TRACE: [1622000000][GPT-Neo-2_7B]_[h32][s1024][d80] Warmup: 2000000 NumTraces: 1622000000
L1:next_line:L2:029-SecTOP-L2-MultiMarkovDelta_ip_stride_v4
*************************************************
   ChampSim Multicore Out-of-Order Simulator
   Last compiled: Oct 27 2024 04:17:09
*************************************************

trace_0 770-tot_memTraces_v3/memTraces[1622000000][GPT-Neo-2_7B]_[h32][s1024][d80].champsim.xz
CPU 0 L1D next line prefetcher
MK1: Size: 128 TMAX: 64 TMIN: 32 MKPTHRESH: 40
MK2: Size: 256 TMAX: 32 TMIN: 16 MK2PTHRESH: 20
MK3: Size: 384 TMAX: 16 TMIN: 8 MK3PTHRESH: 25
MK4: Size: 512 TMAX: 8 TMIN: 0 MK4PTHRESH: 20
Stride Size: 512 Prefetch Degree: 15

CPU 0 L2C prefetcher
MAIN.cc ln 751 stats print skipped
CPU 0 L2C prefetcher initialized


Cache Size: 1280
number of cache lines: 20480
CPU  0 inst:    1000005 cyc:     500417 now IPC :1.99834: AVG IPC :1.99834: L2-Pf-HR :0.88322: L2-HR :0.85734: (Sim:0h0m20s) 
CPU  0 inst:    2000001 cyc:     985523 now IPC :2.06140: AVG IPC :2.02938: L2-Pf-HR :0.91204: L2-HR :0.89034: (Sim:0h0m40s) 

Warmup complete CPU  0 instructions:    2000001 cycles:     985523 (Simulation time: 0 hr 0 min 40 sec) 

CPU  0 inst:    3000005 cyc:    1472038 now IPC :2.05544: AVG IPC :2.05544: L2-Pf-HR :0.90102: L2-HR :0.87378: (Sim:0h0m57s) 
CPU  0 inst:    4000001 cyc:    1949618 now IPC :2.09388: AVG IPC :2.07448: L2-Pf-HR :0.89913: L2-HR :0.87209: (Sim:0h1m13s) 
CPU  0 inst:    5000000 cyc:    2428530 now IPC :2.08806: AVG IPC :2.07899: L2-Pf-HR :0.89819: L2-HR :0.87172: (Sim:0h1m30s) 
CPU  0 inst:    6000000 cyc:    2909840 now IPC :2.07766: AVG IPC :2.07866: L2-Pf-HR :0.89678: L2-HR :0.87064: (Sim:0h1m47s) 
CPU  0 inst:    7000005 cyc:    3390580 now IPC :2.08014: AVG IPC :2.07895: L2-Pf-HR :0.89815: L2-HR :0.87187: (Sim:0h2m3s) 
CPU  0 inst:    8000005 cyc:    3987126 now IPC :1.67632: AVG IPC :1.99893: L2-Pf-HR :0.89641: L2-HR :0.87012: (Sim:0h2m20s) 
CPU  0 inst:    9000003 cyc:    4468736 now IPC :2.07636: AVG IPC :2.00964: L2-Pf-HR :0.89573: L2-HR :0.87006: (Sim:0h2m35s) 
CPU  0 inst:   10000000 cyc:    4941440 now IPC :2.11548: AVG IPC :2.02229: L2-Pf-HR :0.89685: L2-HR :0.87148: (Sim:0h2m43s) 
CPU  0 inst:   11000001 cyc:    5408280 now IPC :2.14206: AVG IPC :2.03493: L2-Pf-HR :0.89757: L2-HR :0.87237: (Sim:0h2m51s) 
CPU  0 inst:   12000003 cyc:    5877818 now IPC :2.12976: AVG IPC :2.04403: L2-Pf-HR :0.89843: L2-HR :0.87342: (Sim:0h3m8s) 
CPU  0 inst:   13000001 cyc:    6346248 now IPC :2.13479: AVG IPC :2.05196: L2-Pf-HR :0.89920: L2-HR :0.87432: (Sim:0h3m25s) 
CPU  0 inst:   14000004 cyc:    6813460 now IPC :2.14036: AVG IPC :2.05905: L2-Pf-HR :0.89994: L2-HR :0.87510: (Sim:0h3m42s) 
CPU  0 inst:   15000001 cyc:    7281129 now IPC :2.13826: AVG IPC :2.06493: L2-Pf-HR :0.90234: L2-HR :0.87708: (Sim:0h3m58s) 
CPU  0 inst:   16000005 cyc:    7859104 now IPC :1.73019: AVG IPC :2.03678: L2-Pf-HR :0.90255: L2-HR :0.87925: (Sim:0h4m16s) 
CPU  0 inst:   17000003 cyc:    8317067 now IPC :2.18358: AVG IPC :2.04595: L2-Pf-HR :0.90568: L2-HR :0.88444: (Sim:0h4m33s) 
CPU  0 inst:   18000002 cyc:    8773001 now IPC :2.19330: AVG IPC :2.05458: L2-Pf-HR :0.90862: L2-HR :0.88918: (Sim:0h4m51s) 
CPU  0 inst:   19000004 cyc:    9230968 now IPC :2.18357: AVG IPC :2.06174: L2-Pf-HR :0.91137: L2-HR :0.89346: (Sim:0h5m8s) 
CPU  0 inst:   20000003 cyc:    9685693 now IPC :2.19913: AVG IPC :2.06893: L2-Pf-HR :0.91529: L2-HR :0.89847: (Sim:0h5m15s) 
CPU  0 inst:   21000003 cyc:   10352635 now IPC :1.49938: AVG IPC :2.02837: L2-Pf-HR :0.91290: L2-HR :0.89561: (Sim:0h5m24s) 
CPU  0 inst:   22000005 cyc:   10843420 now IPC :2.03756: AVG IPC :2.02883: L2-Pf-HR :0.91197: L2-HR :0.89437: (Sim:0h5m32s) 
CPU  0 inst:   23000002 cyc:   11334047 now IPC :2.03820: AVG IPC :2.02927: L2-Pf-HR :0.91110: L2-HR :0.89319: (Sim:0h5m40s) 
CPU  0 inst:   24000002 cyc:   11820066 now IPC :2.05753: AVG IPC :2.03054: L2-Pf-HR :0.91034: L2-HR :0.89216: (Sim:0h5m48s) 
CPU  0 inst:   25000000 cyc:   12309944 now IPC :2.04132: AVG IPC :2.03101: L2-Pf-HR :0.90978: L2-HR :0.89135: (Sim:0h6m4s) 
CPU  0 inst:   26000004 cyc:   12799151 now IPC :2.04413: AVG IPC :2.03155: L2-Pf-HR :0.90916: L2-HR :0.89052: (Sim:0h6m21s) 
CPU  0 inst:   27000000 cyc:   13292592 now IPC :2.02658: AVG IPC :2.03135: L2-Pf-HR :0.90915: L2-HR :0.89018: (Sim:0h6m38s) 
CPU  0 inst:   28000003 cyc:   13924664 now IPC :1.58210: AVG IPC :2.00941: L2-Pf-HR :0.90859: L2-HR :0.88929: (Sim:0h6m56s) 
CPU  0 inst:   29000001 cyc:   14414308 now IPC :2.04230: AVG IPC :2.01061: L2-Pf-HR :0.90813: L2-HR :0.88873: (Sim:0h7m13s) 
CPU  0 inst:   30000004 cyc:   14885272 now IPC :2.12331: AVG IPC :2.01443: L2-Pf-HR :0.90801: L2-HR :0.88848: (Sim:0h7m30s) 
CPU  0 inst:   31000003 cyc:   15354600 now IPC :2.13070: AVG IPC :2.01822: L2-Pf-HR :0.90785: L2-HR :0.88822: (Sim:0h7m47s) 
CPU  0 inst:   32000001 cyc:   15823185 now IPC :2.13408: AVG IPC :2.02188: L2-Pf-HR :0.90776: L2-HR :0.88800: (Sim:0h8m0s) 
CPU  0 inst:   33000002 cyc:   16291150 now IPC :2.13691: AVG IPC :2.02540: L2-Pf-HR :0.90767: L2-HR :0.88781: (Sim:0h8m7s) 
CPU  0 inst:   34000005 cyc:   16756276 now IPC :2.14996: AVG IPC :2.02907: L2-Pf-HR :0.90765: L2-HR :0.88767: (Sim:0h8m15s) 
CPU  0 inst:   35000005 cyc:   17223407 now IPC :2.14073: AVG IPC :2.03228: L2-Pf-HR :0.90832: L2-HR :0.88805: (Sim:0h8m28s) 
CPU  0 inst:   36000004 cyc:   17799523 now IPC :1.73576: AVG IPC :2.02212: L2-Pf-HR :0.90839: L2-HR :0.88876: (Sim:0h8m46s) 
CPU  0 inst:   37000001 cyc:   18256620 now IPC :2.18771: AVG IPC :2.02651: L2-Pf-HR :0.90954: L2-HR :0.89068: (Sim:0h9m3s) 
CPU  0 inst:   38000002 cyc:   18710724 now IPC :2.20214: AVG IPC :2.03101: L2-Pf-HR :0.91069: L2-HR :0.89257: (Sim:0h9m21s) 
CPU  0 inst:   39000005 cyc:   19165460 now IPC :2.19908: AVG IPC :2.03521: L2-Pf-HR :0.91187: L2-HR :0.89441: (Sim:0h9m38s) 
CPU  0 inst:   40000005 cyc:   19620923 now IPC :2.19557: AVG IPC :2.03913: L2-Pf-HR :0.91369: L2-HR :0.89673: (Sim:0h9m55s) 
CPU  0 inst:   41000003 cyc:   20289576 now IPC :1.49554: AVG IPC :2.02030: L2-Pf-HR :0.91264: L2-HR :0.89543: (Sim:0h10m9s) 
CPU  0 inst:   42000003 cyc:   20779646 now IPC :2.04052: AVG IPC :2.02080: L2-Pf-HR :0.91224: L2-HR :0.89485: (Sim:0h10m16s) 
CPU  0 inst:   43000002 cyc:   21270279 now IPC :2.03818: AVG IPC :2.02122: L2-Pf-HR :0.91188: L2-HR :0.89431: (Sim:0h10m24s) 
CPU  0 inst:   44000000 cyc:   21758529 now IPC :2.04813: AVG IPC :2.02185: L2-Pf-HR :0.91156: L2-HR :0.89382: (Sim:0h10m32s) 
CPU  0 inst:   45000000 cyc:   22247352 now IPC :2.04573: AVG IPC :2.02240: L2-Pf-HR :0.91130: L2-HR :0.89340: (Sim:0h10m40s) 
CPU  0 inst:   46000000 cyc:   22734676 now IPC :2.05202: AVG IPC :2.02307: L2-Pf-HR :0.91104: L2-HR :0.89299: (Sim:0h10m47s) 
CPU  0 inst:   47000001 cyc:   23229974 now IPC :2.01899: AVG IPC :2.02298: L2-Pf-HR :0.91105: L2-HR :0.89279: (Sim:0h10m55s) 
CPU  0 inst:   48000004 cyc:   23866544 now IPC :1.57092: AVG IPC :2.01040: L2-Pf-HR :0.91071: L2-HR :0.89229: (Sim:0h11m3s) 
CPU  0 inst:   49000005 cyc:   24352726 now IPC :2.05684: AVG IPC :2.01137: L2-Pf-HR :0.91042: L2-HR :0.89189: (Sim:0h11m11s) 
CPU  0 inst:   50000005 cyc:   24822871 now IPC :2.12700: AVG IPC :2.01365: L2-Pf-HR :0.91024: L2-HR :0.89162: (Sim:0h11m19s) 
CPU  0 inst:   51000001 cyc:   25293541 now IPC :2.12462: AVG IPC :2.01580: L2-Pf-HR :0.91004: L2-HR :0.89132: (Sim:0h11m26s) 
CPU  0 inst:   52000002 cyc:   25764416 now IPC :2.12371: AVG IPC :2.01785: L2-Pf-HR :0.90989: L2-HR :0.89107: (Sim:0h11m34s) 
CPU  0 inst:   53000001 cyc:   26235452 now IPC :2.12298: AVG IPC :2.01981: L2-Pf-HR :0.90979: L2-HR :0.89088: (Sim:0h11m42s) 
CPU  0 inst:   54000004 cyc:   26705771 now IPC :2.12622: AVG IPC :2.02175: L2-Pf-HR :0.90970: L2-HR :0.89069: (Sim:0h11m49s) 
CPU  0 inst:   55000001 cyc:   27171958 now IPC :2.14506: AVG IPC :2.02395: L2-Pf-HR :0.91005: L2-HR :0.89083: (Sim:0h11m57s) 
CPU  0 inst:   56000004 cyc:   27752074 now IPC :1.72380: AVG IPC :2.01744: L2-Pf-HR :0.91001: L2-HR :0.89119: (Sim:0h12m5s) 
CPU  0 inst:   57000000 cyc:   28206932 now IPC :2.19848: AVG IPC :2.02047: L2-Pf-HR :0.91075: L2-HR :0.89239: (Sim:0h12m13s) 
CPU  0 inst:   58000004 cyc:   28662745 now IPC :2.19389: AVG IPC :2.02332: L2-Pf-HR :0.91146: L2-HR :0.89356: (Sim:0h12m20s) 
CPU  0 inst:   59000004 cyc:   29114710 now IPC :2.21256: AVG IPC :2.02637: L2-Pf-HR :0.91222: L2-HR :0.89474: (Sim:0h12m28s) 
CPU  0 inst:   60000003 cyc:   29569453 now IPC :2.19904: AVG IPC :2.02911: L2-Pf-HR :0.91336: L2-HR :0.89622: (Sim:0h12m36s) 
CPU  0 inst:   61000002 cyc:   30244230 now IPC :1.48197: AVG IPC :2.01649: L2-Pf-HR :0.91262: L2-HR :0.89531: (Sim:0h12m44s) 
CPU  0 inst:   62000004 cyc:   30737510 now IPC :2.02725: AVG IPC :2.01667: L2-Pf-HR :0.91235: L2-HR :0.89492: (Sim:0h12m52s) 
CPU  0 inst:   63000003 cyc:   31225448 now IPC :2.04944: AVG IPC :2.01720: L2-Pf-HR :0.91209: L2-HR :0.89455: (Sim:0h13m0s) 
CPU  0 inst:   64000004 cyc:   31718335 now IPC :2.02886: AVG IPC :2.01739: L2-Pf-HR :0.91183: L2-HR :0.89416: (Sim:0h13m8s) 
CPU  0 inst:   65000000 cyc:   32202699 now IPC :2.06455: AVG IPC :2.01812: L2-Pf-HR :0.91165: L2-HR :0.89386: (Sim:0h13m16s) 
CPU  0 inst:   66000003 cyc:   32693873 now IPC :2.03594: AVG IPC :2.01840: L2-Pf-HR :0.91144: L2-HR :0.89354: (Sim:0h13m24s) 
CPU  0 inst:   67000000 cyc:   33188573 now IPC :2.02142: AVG IPC :2.01844: L2-Pf-HR :0.91142: L2-HR :0.89339: (Sim:0h13m31s) 
CPU  0 inst:   68000002 cyc:   33817825 now IPC :1.58919: AVG IPC :2.01022: L2-Pf-HR :0.91119: L2-HR :0.89301: (Sim:0h13m40s) 
CPU  0 inst:   69000003 cyc:   34307038 now IPC :2.04410: AVG IPC :2.01071: L2-Pf-HR :0.91102: L2-HR :0.89278: (Sim:0h13m48s) 
CPU  0 inst:   70000003 cyc:   34780174 now IPC :2.11356: AVG IPC :2.01215: L2-Pf-HR :0.91090: L2-HR :0.89259: (Sim:0h13m55s) 
CPU  0 inst:   71000002 cyc:   35253721 now IPC :2.11172: AVG IPC :2.01353: L2-Pf-HR :0.91074: L2-HR :0.89237: (Sim:0h14m3s) 
CPU  0 inst:   72000005 cyc:   35726016 now IPC :2.11733: AVG IPC :2.01494: L2-Pf-HR :0.91061: L2-HR :0.89217: (Sim:0h14m11s) 
CPU  0 inst:   73000005 cyc:   36194958 now IPC :2.13246: AVG IPC :2.01651: L2-Pf-HR :0.91055: L2-HR :0.89204: (Sim:0h14m19s) 
CPU  0 inst:   74000004 cyc:   36661783 now IPC :2.14213: AVG IPC :2.01815: L2-Pf-HR :0.91050: L2-HR :0.89192: (Sim:0h14m26s) 
CPU  0 inst:   75000004 cyc:   37130389 now IPC :2.13399: AVG IPC :2.01965: L2-Pf-HR :0.91071: L2-HR :0.89200: (Sim:0h14m34s) 
CPU  0 inst:   76000002 cyc:   37708233 now IPC :1.73057: AVG IPC :2.01510: L2-Pf-HR :0.91071: L2-HR :0.89226: (Sim:0h14m42s) 
CPU  0 inst:   77000004 cyc:   38167009 now IPC :2.17972: AVG IPC :2.01713: L2-Pf-HR :0.91123: L2-HR :0.89311: (Sim:0h14m50s) 
CPU  0 inst:   78000000 cyc:   38623878 now IPC :2.18880: AVG IPC :2.01922: L2-Pf-HR :0.91171: L2-HR :0.89392: (Sim:0h14m58s) 
CPU  0 inst:   79000000 cyc:   39076558 now IPC :2.20907: AVG IPC :2.02147: L2-Pf-HR :0.91229: L2-HR :0.89480: (Sim:0h15m5s) 
CPU  0 inst:   80000001 cyc:   39531996 now IPC :2.19569: AVG IPC :2.02353: L2-Pf-HR :0.91311: L2-HR :0.89587: (Sim:0h15m13s) 
CPU  0 inst:   81000003 cyc:   40198770 now IPC :1.49976: AVG IPC :2.01463: L2-Pf-HR :0.91258: L2-HR :0.89522: (Sim:0h15m21s) 
CPU  0 inst:   82000002 cyc:   40683849 now IPC :2.06152: AVG IPC :2.01520: L2-Pf-HR :0.91241: L2-HR :0.89495: (Sim:0h15m29s) 
CPU  0 inst:   83000003 cyc:   41173046 now IPC :2.04417: AVG IPC :2.01555: L2-Pf-HR :0.91224: L2-HR :0.89469: (Sim:0h15m37s) 
CPU  0 inst:   84000003 cyc:   41665075 now IPC :2.03240: AVG IPC :2.01575: L2-Pf-HR :0.91203: L2-HR :0.89439: (Sim:0h15m45s) 
CPU  0 inst:   85000002 cyc:   42151557 now IPC :2.05557: AVG IPC :2.01623: L2-Pf-HR :0.91192: L2-HR :0.89418: (Sim:0h15m53s) 
CPU  0 inst:   86000004 cyc:   42643646 now IPC :2.03216: AVG IPC :2.01641: L2-Pf-HR :0.91176: L2-HR :0.89395: (Sim:0h16m0s) 
CPU  0 inst:   87000000 cyc:   43135255 now IPC :2.03413: AVG IPC :2.01662: L2-Pf-HR :0.91173: L2-HR :0.89379: (Sim:0h16m8s) 
CPU  0 inst:   88000002 cyc:   43762970 now IPC :1.59308: AVG IPC :2.01041: L2-Pf-HR :0.91149: L2-HR :0.89345: (Sim:0h16m17s) 
CPU  0 inst:   89000003 cyc:   44241262 now IPC :2.09078: AVG IPC :2.01129: L2-Pf-HR :0.91132: L2-HR :0.89323: (Sim:0h16m24s) 
CPU  0 inst:   90000001 cyc:   44714078 now IPC :2.11498: AVG IPC :2.01241: L2-Pf-HR :0.91122: L2-HR :0.89308: (Sim:0h16m32s) 
CPU  0 inst:   91000001 cyc:   45183796 now IPC :2.12894: AVG IPC :2.01365: L2-Pf-HR :0.91113: L2-HR :0.89294: (Sim:0h16m40s) 
CPU  0 inst:   92000004 cyc:   45651764 now IPC :2.13690: AVG IPC :2.01494: L2-Pf-HR :0.91101: L2-HR :0.89277: (Sim:0h16m48s) 
CPU  0 inst:   93000000 cyc:   46120990 now IPC :2.13116: AVG IPC :2.01615: L2-Pf-HR :0.91093: L2-HR :0.89264: (Sim:0h16m58s) 
CPU  0 inst:   94000000 cyc:   46590360 now IPC :2.13052: AVG IPC :2.01733: L2-Pf-HR :0.91091: L2-HR :0.89255: (Sim:0h17m15s) 
CPU  0 inst:   95000000 cyc:   47060004 now IPC :2.12927: AVG IPC :2.01847: L2-Pf-HR :0.91109: L2-HR :0.89263: (Sim:0h17m31s) 
CPU  0 inst:   96000000 cyc:   47637465 now IPC :1.73172: AVG IPC :2.01492: L2-Pf-HR :0.91108: L2-HR :0.89283: (Sim:0h17m49s) 
CPU  0 inst:   97000000 cyc:   48094637 now IPC :2.18736: AVG IPC :2.01659: L2-Pf-HR :0.91149: L2-HR :0.89350: (Sim:0h18m6s) 
CPU  0 inst:   98000001 cyc:   48551969 now IPC :2.18660: AVG IPC :2.01823: L2-Pf-HR :0.91189: L2-HR :0.89416: (Sim:0h18m23s) 
CPU  0 inst:   99000002 cyc:   49004738 now IPC :2.20863: AVG IPC :2.02002: L2-Pf-HR :0.91236: L2-HR :0.89489: (Sim:0h18m40s) 
CPU  0 inst:  100000005 cyc:   49458036 now IPC :2.20606: AVG IPC :2.02176: L2-Pf-HR :0.91301: L2-HR :0.89572: (Sim:0h18m57s) 
CPU  0 inst:  101000004 cyc:   50127749 now IPC :1.49318: AVG IPC :2.01456: L2-Pf-HR :0.91258: L2-HR :0.89521: (Sim:0h19m16s) 
CPU  0 inst:  102000003 cyc:   50612866 now IPC :2.06136: AVG IPC :2.01502: L2-Pf-HR :0.91243: L2-HR :0.89499: (Sim:0h19m33s) 
CPU  0 inst:  103000002 cyc:   51102674 now IPC :2.04161: AVG IPC :2.01528: L2-Pf-HR :0.91227: L2-HR :0.89476: (Sim:0h19m51s) 
CPU  0 inst:  104000004 cyc:   51592927 now IPC :2.03977: AVG IPC :2.01552: L2-Pf-HR :0.91210: L2-HR :0.89452: (Sim:0h20m8s) 
CPU  0 inst:  105000002 cyc:   52080023 now IPC :2.05298: AVG IPC :2.01587: L2-Pf-HR :0.91197: L2-HR :0.89432: (Sim:0h20m25s) 
CPU  0 inst:  106000005 cyc:   52571974 now IPC :2.03273: AVG IPC :2.01603: L2-Pf-HR :0.91182: L2-HR :0.89412: (Sim:0h20m43s) 
CPU  0 inst:  107000001 cyc:   53062174 now IPC :2.03998: AVG IPC :2.01626: L2-Pf-HR :0.91180: L2-HR :0.89400: (Sim:0h21m0s) 
CPU  0 inst:  108000000 cyc:   53694171 now IPC :1.58228: AVG IPC :2.01106: L2-Pf-HR :0.91159: L2-HR :0.89371: (Sim:0h21m18s) 
CPU  0 inst:  109000000 cyc:   54177724 now IPC :2.06803: AVG IPC :2.01157: L2-Pf-HR :0.91146: L2-HR :0.89354: (Sim:0h21m35s) 
CPU  0 inst:  110000000 cyc:   54648529 now IPC :2.12402: AVG IPC :2.01256: L2-Pf-HR :0.91135: L2-HR :0.89338: (Sim:0h21m53s) 
CPU  0 inst:  111000000 cyc:   55119277 now IPC :2.12428: AVG IPC :2.01353: L2-Pf-HR :0.91123: L2-HR :0.89321: (Sim:0h22m10s) 
CPU  0 inst:  112000001 cyc:   55587572 now IPC :2.13541: AVG IPC :2.01458: L2-Pf-HR :0.91113: L2-HR :0.89307: (Sim:0h22m27s) 
CPU  0 inst:  113000001 cyc:   56056702 now IPC :2.13161: AVG IPC :2.01557: L2-Pf-HR :0.91103: L2-HR :0.89293: (Sim:0h22m44s) 
CPU  0 inst:  114000000 cyc:   56525372 now IPC :2.13370: AVG IPC :2.01657: L2-Pf-HR :0.91097: L2-HR :0.89281: (Sim:0h23m1s) 
CPU  0 inst:  115000004 cyc:   56993678 now IPC :2.13536: AVG IPC :2.01756: L2-Pf-HR :0.91109: L2-HR :0.89284: (Sim:0h23m18s) 
CPU  0 inst:  116000004 cyc:   57575191 now IPC :1.71965: AVG IPC :2.01450: L2-Pf-HR :0.91110: L2-HR :0.89302: (Sim:0h23m36s) 
CPU  0 inst:  117000003 cyc:   58034093 now IPC :2.17911: AVG IPC :2.01583: L2-Pf-HR :0.91143: L2-HR :0.89357: (Sim:0h23m53s) 
CPU  0 inst:  118000001 cyc:   58487611 now IPC :2.20498: AVG IPC :2.01732: L2-Pf-HR :0.91177: L2-HR :0.89413: (Sim:0h24m10s) 
CPU  0 inst:  119000003 cyc:   58941304 now IPC :2.20414: AVG IPC :2.01878: L2-Pf-HR :0.91216: L2-HR :0.89472: (Sim:0h24m27s) 
CPU  0 inst:  120000000 cyc:   59395518 now IPC :2.20160: AVG IPC :2.02020: L2-Pf-HR :0.91272: L2-HR :0.89544: (Sim:0h24m44s) 
CPU  0 inst:  121000002 cyc:   60059905 now IPC :1.50515: AVG IPC :2.01441: L2-Pf-HR :0.91236: L2-HR :0.89500: (Sim:0h25m2s) 
CPU  0 inst:  122000004 cyc:   60545218 now IPC :2.06053: AVG IPC :2.01479: L2-Pf-HR :0.91223: L2-HR :0.89481: (Sim:0h25m20s) 
CPU  0 inst:  123000001 cyc:   61032656 now IPC :2.05154: AVG IPC :2.01508: L2-Pf-HR :0.91213: L2-HR :0.89464: (Sim:0h25m37s) 
CPU  0 inst:  124000002 cyc:   61522575 now IPC :2.04116: AVG IPC :2.01529: L2-Pf-HR :0.91200: L2-HR :0.89444: (Sim:0h25m54s) 
CPU  0 inst:  125000004 cyc:   62007289 now IPC :2.06308: AVG IPC :2.01567: L2-Pf-HR :0.91193: L2-HR :0.89430: (Sim:0h26m12s) 
CPU  0 inst:  126000003 cyc:   62493671 now IPC :2.05599: AVG IPC :2.01599: L2-Pf-HR :0.91183: L2-HR :0.89414: (Sim:0h26m29s) 
CPU  0 inst:  127000005 cyc:   62986723 now IPC :2.02819: AVG IPC :2.01609: L2-Pf-HR :0.91183: L2-HR :0.89406: (Sim:0h26m46s) 
CPU  0 inst:  128000001 cyc:   63617692 now IPC :1.58486: AVG IPC :2.01175: L2-Pf-HR :0.91166: L2-HR :0.89382: (Sim:0h27m4s) 
CPU  0 inst:  129000004 cyc:   64100365 now IPC :2.07180: AVG IPC :2.01221: L2-Pf-HR :0.91155: L2-HR :0.89368: (Sim:0h27m22s) 
CPU  0 inst:  130000000 cyc:   64572922 now IPC :2.11614: AVG IPC :2.01298: L2-Pf-HR :0.91146: L2-HR :0.89355: (Sim:0h27m39s) 
CPU  0 inst:  131000003 cyc:   65044367 now IPC :2.12114: AVG IPC :2.01377: L2-Pf-HR :0.91137: L2-HR :0.89342: (Sim:0h27m56s) 
CPU  0 inst:  132000000 cyc:   65511788 now IPC :2.13939: AVG IPC :2.01468: L2-Pf-HR :0.91130: L2-HR :0.89330: (Sim:0h28m13s) 
CPU  0 inst:  133000004 cyc:   65981218 now IPC :2.13025: AVG IPC :2.01552: L2-Pf-HR :0.91123: L2-HR :0.89319: (Sim:0h28m30s) 
CPU  0 inst:  134000004 cyc:   66448184 now IPC :2.14148: AVG IPC :2.01642: L2-Pf-HR :0.91121: L2-HR :0.89312: (Sim:0h28m47s) 
CPU  0 inst:  135000001 cyc:   66914884 now IPC :2.14270: AVG IPC :2.01731: L2-Pf-HR :0.91131: L2-HR :0.89315: (Sim:0h29m4s) 
CPU  0 inst:  136000005 cyc:   67486402 now IPC :1.74973: AVG IPC :2.01501: L2-Pf-HR :0.91132: L2-HR :0.89331: (Sim:0h29m22s) 
CPU  0 inst:  137000001 cyc:   67945851 now IPC :2.17651: AVG IPC :2.01612: L2-Pf-HR :0.91160: L2-HR :0.89377: (Sim:0h29m39s) 
CPU  0 inst:  138000000 cyc:   68403602 now IPC :2.18459: AVG IPC :2.01726: L2-Pf-HR :0.91189: L2-HR :0.89425: (Sim:0h29m56s) 
CPU  0 inst:  139000001 cyc:   68857515 now IPC :2.20307: AVG IPC :2.01851: L2-Pf-HR :0.91221: L2-HR :0.89473: (Sim:0h30m13s) 
CPU  0 inst:  140000001 cyc:   69312179 now IPC :2.19943: AVG IPC :2.01971: L2-Pf-HR :0.91269: L2-HR :0.89536: (Sim:0h30m29s) 
CPU  0 inst:  141000000 cyc:   69980364 now IPC :1.49659: AVG IPC :2.01464: L2-Pf-HR :0.91239: L2-HR :0.89498: (Sim:0h30m48s) 
CPU  0 inst:  142000003 cyc:   70465458 now IPC :2.06146: AVG IPC :2.01497: L2-Pf-HR :0.91226: L2-HR :0.89480: (Sim:0h31m5s) 
CPU  0 inst:  143000000 cyc:   70955559 now IPC :2.04039: AVG IPC :2.01515: L2-Pf-HR :0.91214: L2-HR :0.89463: (Sim:0h31m23s) 
CPU  0 inst:  144000003 cyc:   71443382 now IPC :2.04993: AVG IPC :2.01539: L2-Pf-HR :0.91202: L2-HR :0.89446: (Sim:0h31m40s) 
CPU  0 inst:  145000001 cyc:   71929211 now IPC :2.05833: AVG IPC :2.01568: L2-Pf-HR :0.91191: L2-HR :0.89430: (Sim:0h31m58s) 
CPU  0 inst:  146000004 cyc:   72421953 now IPC :2.02947: AVG IPC :2.01578: L2-Pf-HR :0.91181: L2-HR :0.89415: (Sim:0h32m15s) 
CPU  0 inst:  147000000 cyc:   72910901 now IPC :2.04520: AVG IPC :2.01598: L2-Pf-HR :0.91179: L2-HR :0.89406: (Sim:0h32m32s) 
CPU  0 inst:  148000000 cyc:   73546449 now IPC :1.57345: AVG IPC :2.01210: L2-Pf-HR :0.91163: L2-HR :0.89384: (Sim:0h32m50s) 
CPU  0 inst:  149000005 cyc:   74028448 now IPC :2.07470: AVG IPC :2.01252: L2-Pf-HR :0.91154: L2-HR :0.89372: (Sim:0h33m8s) 
CPU  0 inst:  150000001 cyc:   74501915 now IPC :2.11207: AVG IPC :2.01316: L2-Pf-HR :0.91149: L2-HR :0.89363: (Sim:0h33m25s) 
CPU  0 inst:  151000003 cyc:   74970912 now IPC :2.13221: AVG IPC :2.01391: L2-Pf-HR :0.91144: L2-HR :0.89354: (Sim:0h33m42s) 
CPU  0 inst:  152000002 cyc:   75442258 now IPC :2.12158: AVG IPC :2.01459: L2-Pf-HR :0.91138: L2-HR :0.89344: (Sim:0h33m59s) 
CPU  0 inst:  153000000 cyc:   75910601 now IPC :2.13518: AVG IPC :2.01535: L2-Pf-HR :0.91134: L2-HR :0.89336: (Sim:0h34m16s) 
CPU  0 inst:  154000005 cyc:   76378522 now IPC :2.13712: AVG IPC :2.01610: L2-Pf-HR :0.91134: L2-HR :0.89332: (Sim:0h34m33s) 
CPU  0 inst:  155000001 cyc:   76849481 now IPC :2.12332: AVG IPC :2.01677: L2-Pf-HR :0.91144: L2-HR :0.89335: (Sim:0h34m50s) 
CPU  0 inst:  156000004 cyc:   77418489 now IPC :1.75745: AVG IPC :2.01484: L2-Pf-HR :0.91144: L2-HR :0.89349: (Sim:0h35m8s) 
CPU  0 inst:  157000002 cyc:   77878790 now IPC :2.17249: AVG IPC :2.01578: L2-Pf-HR :0.91170: L2-HR :0.89390: (Sim:0h35m25s) 
CPU  0 inst:  158000000 cyc:   78336815 now IPC :2.18328: AVG IPC :2.01677: L2-Pf-HR :0.91196: L2-HR :0.89432: (Sim:0h35m42s) 
CPU  0 inst:  159000002 cyc:   78792308 now IPC :2.19543: AVG IPC :2.01782: L2-Pf-HR :0.91224: L2-HR :0.89475: (Sim:0h35m59s) 
CPU  0 inst:  160000005 cyc:   79246761 now IPC :2.20045: AVG IPC :2.01888: L2-Pf-HR :0.91267: L2-HR :0.89529: (Sim:0h36m16s) 
CPU  0 inst:  161000001 cyc:   79916789 now IPC :1.49247: AVG IPC :2.01441: L2-Pf-HR :0.91241: L2-HR :0.89497: (Sim:0h36m34s) 
CPU  0 inst:  162000002 cyc:   80401353 now IPC :2.06371: AVG IPC :2.01471: L2-Pf-HR :0.91233: L2-HR :0.89485: (Sim:0h36m52s) 
CPU  0 inst:  163000003 cyc:   80890758 now IPC :2.04330: AVG IPC :2.01489: L2-Pf-HR :0.91227: L2-HR :0.89473: (Sim:0h37m9s) 
CPU  0 inst:  164000003 cyc:   81384525 now IPC :2.02525: AVG IPC :2.01495: L2-Pf-HR :0.91219: L2-HR :0.89460: (Sim:0h37m27s) 
CPU  0 inst:  165000000 cyc:   81873619 now IPC :2.04459: AVG IPC :2.01513: L2-Pf-HR :0.91213: L2-HR :0.89449: (Sim:0h37m44s) 
CPU  0 inst:  166000004 cyc:   82359420 now IPC :2.05846: AVG IPC :2.01539: L2-Pf-HR :0.91207: L2-HR :0.89438: (Sim:0h38m1s) 
CPU  0 inst:  167000001 cyc:   82853147 now IPC :2.02540: AVG IPC :2.01545: L2-Pf-HR :0.91207: L2-HR :0.89432: (Sim:0h38m19s) 
CPU  0 inst:  168000001 cyc:   83488281 now IPC :1.57447: AVG IPC :2.01205: L2-Pf-HR :0.91195: L2-HR :0.89414: (Sim:0h38m37s) 
CPU  0 inst:  169000003 cyc:   83971395 now IPC :2.06991: AVG IPC :2.01239: L2-Pf-HR :0.91188: L2-HR :0.89403: (Sim:0h38m54s) 
CPU  0 inst:  170000002 cyc:   84440594 now IPC :2.13129: AVG IPC :2.01306: L2-Pf-HR :0.91182: L2-HR :0.89394: (Sim:0h39m11s) 
CPU  0 inst:  171000003 cyc:   84911040 now IPC :2.12564: AVG IPC :2.01369: L2-Pf-HR :0.91176: L2-HR :0.89385: (Sim:0h39m29s) 
CPU  0 inst:  172000000 cyc:   85383097 now IPC :2.11838: AVG IPC :2.01428: L2-Pf-HR :0.91171: L2-HR :0.89376: (Sim:0h39m46s) 
CPU  0 inst:  173000001 cyc:   85853195 now IPC :2.12722: AVG IPC :2.01490: L2-Pf-HR :0.91166: L2-HR :0.89367: (Sim:0h40m3s) 
CPU  0 inst:  174000000 cyc:   86321412 now IPC :2.13576: AVG IPC :2.01556: L2-Pf-HR :0.91164: L2-HR :0.89362: (Sim:0h40m20s) 
CPU  0 inst:  175000003 cyc:   86791698 now IPC :2.12637: AVG IPC :2.01617: L2-Pf-HR :0.91172: L2-HR :0.89363: (Sim:0h40m37s) 
CPU  0 inst:  176000002 cyc:   87367302 now IPC :1.73730: AVG IPC :2.01431: L2-Pf-HR :0.91173: L2-HR :0.89375: (Sim:0h40m55s) 
CPU  0 inst:  177000001 cyc:   87825483 now IPC :2.18254: AVG IPC :2.01520: L2-Pf-HR :0.91195: L2-HR :0.89411: (Sim:0h41m12s) 
CPU  0 inst:  178000002 cyc:   88280738 now IPC :2.19657: AVG IPC :2.01615: L2-Pf-HR :0.91216: L2-HR :0.89446: (Sim:0h41m29s) 
CPU  0 inst:  179000000 cyc:   88737693 now IPC :2.18840: AVG IPC :2.01704: L2-Pf-HR :0.91241: L2-HR :0.89484: (Sim:0h41m46s) 
CPU  0 inst:  180000004 cyc:   89193522 now IPC :2.19381: AVG IPC :2.01796: L2-Pf-HR :0.91278: L2-HR :0.89531: (Sim:0h42m2s) 
CPU  0 inst:  181000002 cyc:   89854066 now IPC :1.51390: AVG IPC :2.01421: L2-Pf-HR :0.91254: L2-HR :0.89501: (Sim:0h42m21s) 
CPU  0 inst:  182000001 cyc:   90341072 now IPC :2.05336: AVG IPC :2.01442: L2-Pf-HR :0.91246: L2-HR :0.89490: (Sim:0h42m38s) 
CPU  0 inst:  183000003 cyc:   90831647 now IPC :2.03843: AVG IPC :2.01456: L2-Pf-HR :0.91238: L2-HR :0.89478: (Sim:0h42m56s) 
CPU  0 inst:  184000002 cyc:   91325739 now IPC :2.02391: AVG IPC :2.01461: L2-Pf-HR :0.91230: L2-HR :0.89465: (Sim:0h43m13s) 
CPU  0 inst:  185000005 cyc:   91812683 now IPC :2.05363: AVG IPC :2.01482: L2-Pf-HR :0.91223: L2-HR :0.89454: (Sim:0h43m31s) 
CPU  0 inst:  186000003 cyc:   92299539 now IPC :2.05399: AVG IPC :2.01502: L2-Pf-HR :0.91217: L2-HR :0.89444: (Sim:0h43m48s) 
CPU  0 inst:  187000005 cyc:   92791124 now IPC :2.03424: AVG IPC :2.01513: L2-Pf-HR :0.91217: L2-HR :0.89438: (Sim:0h44m5s) 
CPU  0 inst:  188000005 cyc:   93422998 now IPC :1.58259: AVG IPC :2.01217: L2-Pf-HR :0.91204: L2-HR :0.89422: (Sim:0h44m24s) 
CPU  0 inst:  189000001 cyc:   93900615 now IPC :2.09372: AVG IPC :2.01259: L2-Pf-HR :0.91198: L2-HR :0.89413: (Sim:0h44m41s) 
CPU  0 inst:  190000000 cyc:   94371488 now IPC :2.12371: AVG IPC :2.01315: L2-Pf-HR :0.91194: L2-HR :0.89405: (Sim:0h44m58s) 
CPU  0 inst:  191000005 cyc:   94843528 now IPC :2.11848: AVG IPC :2.01368: L2-Pf-HR :0.91190: L2-HR :0.89398: (Sim:0h45m15s) 
CPU  0 inst:  192000000 cyc:   95316925 now IPC :2.11238: AVG IPC :2.01418: L2-Pf-HR :0.91187: L2-HR :0.89393: (Sim:0h45m32s) 
CPU  0 inst:  193000004 cyc:   95789696 now IPC :2.11520: AVG IPC :2.01468: L2-Pf-HR :0.91183: L2-HR :0.89386: (Sim:0h45m49s) 
CPU  0 inst:  194000002 cyc:   96256739 now IPC :2.14113: AVG IPC :2.01530: L2-Pf-HR :0.91183: L2-HR :0.89382: (Sim:0h46m7s) 
CPU  0 inst:  195000005 cyc:   96727519 now IPC :2.12414: AVG IPC :2.01583: L2-Pf-HR :0.91190: L2-HR :0.89384: (Sim:0h46m23s) 
CPU  0 inst:  196000002 cyc:   97300925 now IPC :1.74396: AVG IPC :2.01422: L2-Pf-HR :0.91189: L2-HR :0.89394: (Sim:0h46m41s) 
CPU  0 inst:  197000001 cyc:   97756596 now IPC :2.19456: AVG IPC :2.01506: L2-Pf-HR :0.91210: L2-HR :0.89427: (Sim:0h46m58s) 
CPU  0 inst:  198000000 cyc:   98214136 now IPC :2.18560: AVG IPC :2.01587: L2-Pf-HR :0.91230: L2-HR :0.89459: (Sim:0h47m15s) 
CPU  0 inst:  199000001 cyc:   98669479 now IPC :2.19615: AVG IPC :2.01671: L2-Pf-HR :0.91253: L2-HR :0.89494: (Sim:0h47m32s) 
CPU  0 inst:  200000002 cyc:   99126787 now IPC :2.18671: AVG IPC :2.01750: L2-Pf-HR :0.91285: L2-HR :0.89535: (Sim:0h47m49s) 
CPU  0 inst:  201000000 cyc:   99791310 now IPC :1.50484: AVG IPC :2.01405: L2-Pf-HR :0.91264: L2-HR :0.89509: (Sim:0h48m7s) 
CPU  0 inst:  202000004 cyc:  100276934 now IPC :2.05921: AVG IPC :2.01427: L2-Pf-HR :0.91256: L2-HR :0.89498: (Sim:0h48m25s) 
CPU  0 inst:  203000001 cyc:  100764870 now IPC :2.04944: AVG IPC :2.01444: L2-Pf-HR :0.91249: L2-HR :0.89488: (Sim:0h48m42s) 
CPU  0 inst:  204000003 cyc:  101253084 now IPC :2.04829: AVG IPC :2.01461: L2-Pf-HR :0.91242: L2-HR :0.89476: (Sim:0h48m59s) 
CPU  0 inst:  205000002 cyc:  101742601 now IPC :2.04283: AVG IPC :2.01475: L2-Pf-HR :0.91235: L2-HR :0.89466: (Sim:0h49m17s) 
CPU  0 inst:  206000005 cyc:  102228929 now IPC :2.05623: AVG IPC :2.01495: L2-Pf-HR :0.91229: L2-HR :0.89456: (Sim:0h49m34s) 
CPU  0 inst:  207000000 cyc:  102723315 now IPC :2.02270: AVG IPC :2.01498: L2-Pf-HR :0.91230: L2-HR :0.89451: (Sim:0h49m51s) 
CPU  0 inst:  208000001 cyc:  103357931 now IPC :1.57576: AVG IPC :2.01226: L2-Pf-HR :0.91220: L2-HR :0.89438: (Sim:0h50m10s) 
CPU  0 inst:  209000002 cyc:  103838183 now IPC :2.08224: AVG IPC :2.01259: L2-Pf-HR :0.91213: L2-HR :0.89429: (Sim:0h50m27s) 
CPU  0 inst:  210000003 cyc:  104310549 now IPC :2.11700: AVG IPC :2.01307: L2-Pf-HR :0.91209: L2-HR :0.89422: (Sim:0h50m44s) 
CPU  0 inst:  211000003 cyc:  104782496 now IPC :2.11888: AVG IPC :2.01355: L2-Pf-HR :0.91205: L2-HR :0.89415: (Sim:0h51m1s) 
CPU  0 inst:  212000001 cyc:  105255575 now IPC :2.11381: AVG IPC :2.01400: L2-Pf-HR :0.91200: L2-HR :0.89408: (Sim:0h51m18s) 
CPU  0 inst:  213000000 cyc:  105723878 now IPC :2.13537: AVG IPC :2.01454: L2-Pf-HR :0.91196: L2-HR :0.89401: (Sim:0h51m35s) 
CPU  0 inst:  214000000 cyc:  106190793 now IPC :2.14172: AVG IPC :2.01511: L2-Pf-HR :0.91196: L2-HR :0.89398: (Sim:0h51m52s) 
CPU  0 inst:  215000005 cyc:  106662013 now IPC :2.12216: AVG IPC :2.01559: L2-Pf-HR :0.91202: L2-HR :0.89399: (Sim:0h52m9s) 
CPU  0 inst:  216000001 cyc:  107239219 now IPC :1.73248: AVG IPC :2.01405: L2-Pf-HR :0.91201: L2-HR :0.89408: (Sim:0h52m27s) 
CPU  0 inst:  217000002 cyc:  107694286 now IPC :2.19748: AVG IPC :2.01483: L2-Pf-HR :0.91219: L2-HR :0.89437: (Sim:0h52m44s) 
CPU  0 inst:  218000001 cyc:  108151279 now IPC :2.18822: AVG IPC :2.01557: L2-Pf-HR :0.91237: L2-HR :0.89467: (Sim:0h53m1s) 
CPU  0 inst:  219000002 cyc:  108607881 now IPC :2.19009: AVG IPC :2.01631: L2-Pf-HR :0.91257: L2-HR :0.89497: (Sim:0h53m18s) 
CPU  0 inst:  220000000 cyc:  109065363 now IPC :2.18587: AVG IPC :2.01703: L2-Pf-HR :0.91287: L2-HR :0.89535: (Sim:0h53m34s) 
CPU  0 inst:  221000003 cyc:  109729909 now IPC :1.50479: AVG IPC :2.01390: L2-Pf-HR :0.91267: L2-HR :0.89511: (Sim:0h53m53s) 
CPU  0 inst:  222000005 cyc:  110223106 now IPC :2.02759: AVG IPC :2.01396: L2-Pf-HR :0.91259: L2-HR :0.89500: (Sim:0h54m10s) 
CPU  0 inst:  223000005 cyc:  110708063 now IPC :2.06204: AVG IPC :2.01417: L2-Pf-HR :0.91254: L2-HR :0.89491: (Sim:0h54m28s) 
CPU  0 inst:  224000001 cyc:  111196916 now IPC :2.04560: AVG IPC :2.01431: L2-Pf-HR :0.91248: L2-HR :0.89482: (Sim:0h54m45s) 
CPU  0 inst:  225000005 cyc:  111685463 now IPC :2.04689: AVG IPC :2.01445: L2-Pf-HR :0.91241: L2-HR :0.89471: (Sim:0h55m3s) 
CPU  0 inst:  226000002 cyc:  112171665 now IPC :2.05675: AVG IPC :2.01464: L2-Pf-HR :0.91236: L2-HR :0.89463: (Sim:0h55m20s) 
CPU  0 inst:  227000004 cyc:  112665017 now IPC :2.02695: AVG IPC :2.01469: L2-Pf-HR :0.91236: L2-HR :0.89458: (Sim:0h55m37s) 
CPU  0 inst:  228000001 cyc:  113300050 now IPC :1.57472: AVG IPC :2.01221: L2-Pf-HR :0.91225: L2-HR :0.89444: (Sim:0h55m55s) 
CPU  0 inst:  229000003 cyc:  113778769 now IPC :2.08891: AVG IPC :2.01253: L2-Pf-HR :0.91220: L2-HR :0.89436: (Sim:0h56m13s) 
CPU  0 inst:  230000005 cyc:  114250362 now IPC :2.12048: AVG IPC :2.01298: L2-Pf-HR :0.91216: L2-HR :0.89429: (Sim:0h56m30s) 
CPU  0 inst:  231000004 cyc:  114722217 now IPC :2.11929: AVG IPC :2.01342: L2-Pf-HR :0.91212: L2-HR :0.89423: (Sim:0h56m47s) 
CPU  0 inst:  232000000 cyc:  115193432 now IPC :2.12216: AVG IPC :2.01387: L2-Pf-HR :0.91207: L2-HR :0.89416: (Sim:0h57m4s) 
CPU  0 inst:  233000005 cyc:  115664329 now IPC :2.12362: AVG IPC :2.01432: L2-Pf-HR :0.91204: L2-HR :0.89410: (Sim:0h57m21s) 
CPU  0 inst:  234000000 cyc:  116133426 now IPC :2.13174: AVG IPC :2.01480: L2-Pf-HR :0.91202: L2-HR :0.89406: (Sim:0h57m38s) 
CPU  0 inst:  235000000 cyc:  116604819 now IPC :2.12137: AVG IPC :2.01523: L2-Pf-HR :0.91208: L2-HR :0.89407: (Sim:0h57m55s) 
CPU  0 inst:  236000005 cyc:  117179717 now IPC :1.73945: AVG IPC :2.01387: L2-Pf-HR :0.91209: L2-HR :0.89416: (Sim:0h58m13s) 
CPU  0 inst:  237000000 cyc:  117639025 now IPC :2.17718: AVG IPC :2.01451: L2-Pf-HR :0.91224: L2-HR :0.89441: (Sim:0h58m30s) 
CPU  0 inst:  238000000 cyc:  118097409 now IPC :2.18158: AVG IPC :2.01517: L2-Pf-HR :0.91241: L2-HR :0.89468: (Sim:0h58m47s) 
CPU  0 inst:  239000005 cyc:  118556366 now IPC :2.17886: AVG IPC :2.01581: L2-Pf-HR :0.91259: L2-HR :0.89495: (Sim:0h59m4s) 
CPU  0 inst:  240000000 cyc:  119014749 now IPC :2.18157: AVG IPC :2.01645: L2-Pf-HR :0.91286: L2-HR :0.89529: (Sim:0h59m21s) 
CPU  0 inst:  241000005 cyc:  119672202 now IPC :1.52103: AVG IPC :2.01371: L2-Pf-HR :0.91268: L2-HR :0.89507: (Sim:0h59m39s) 
CPU  0 inst:  242000004 cyc:  120164917 now IPC :2.02957: AVG IPC :2.01377: L2-Pf-HR :0.91260: L2-HR :0.89497: (Sim:0h59m57s) 
CPU  0 inst:  243000000 cyc:  120650760 now IPC :2.05827: AVG IPC :2.01395: L2-Pf-HR :0.91253: L2-HR :0.89487: (Sim:1h0m14s) 
CPU  0 inst:  244000002 cyc:  121138280 now IPC :2.05120: AVG IPC :2.01410: L2-Pf-HR :0.91247: L2-HR :0.89478: (Sim:1h0m32s) 
CPU  0 inst:  245000001 cyc:  121628857 now IPC :2.03841: AVG IPC :2.01420: L2-Pf-HR :0.91240: L2-HR :0.89468: (Sim:1h0m49s) 
CPU  0 inst:  246000000 cyc:  122113419 now IPC :2.06372: AVG IPC :2.01440: L2-Pf-HR :0.91234: L2-HR :0.89459: (Sim:1h1m6s) 
CPU  0 inst:  247000005 cyc:  122608339 now IPC :2.02054: AVG IPC :2.01442: L2-Pf-HR :0.91234: L2-HR :0.89455: (Sim:1h1m24s) 
CPU  0 inst:  248000003 cyc:  123244821 now IPC :1.57113: AVG IPC :2.01212: L2-Pf-HR :0.91224: L2-HR :0.89442: (Sim:1h1m42s) 
CPU  0 inst:  249000002 cyc:  123721650 now IPC :2.09719: AVG IPC :2.01245: L2-Pf-HR :0.91218: L2-HR :0.89433: (Sim:1h1m59s) 
CPU  0 inst:  250000000 cyc:  124190603 now IPC :2.13241: AVG IPC :2.01290: L2-Pf-HR :0.91215: L2-HR :0.89427: (Sim:1h2m16s) 
CPU  0 inst:  251000003 cyc:  124662999 now IPC :2.11687: AVG IPC :2.01330: L2-Pf-HR :0.91211: L2-HR :0.89421: (Sim:1h2m29s) 
CPU  0 inst:  252000001 cyc:  125135055 now IPC :2.11839: AVG IPC :2.01370: L2-Pf-HR :0.91208: L2-HR :0.89416: (Sim:1h2m36s) 
CPU  0 inst:  253000003 cyc:  125607321 now IPC :2.11746: AVG IPC :2.01409: L2-Pf-HR :0.91204: L2-HR :0.89410: (Sim:1h2m44s) 
CPU  0 inst:  254000000 cyc:  126078606 now IPC :2.12185: AVG IPC :2.01450: L2-Pf-HR :0.91203: L2-HR :0.89406: (Sim:1h2m52s) 
CPU  0 inst:  255000000 cyc:  126550756 now IPC :2.11797: AVG IPC :2.01489: L2-Pf-HR :0.91208: L2-HR :0.89407: (Sim:1h2m59s) 
CPU  0 inst:  256000002 cyc:  127123227 now IPC :1.74682: AVG IPC :2.01367: L2-Pf-HR :0.91209: L2-HR :0.89416: (Sim:1h3m7s) 
CPU  0 inst:  257000003 cyc:  127582077 now IPC :2.17936: AVG IPC :2.01427: L2-Pf-HR :0.91222: L2-HR :0.89439: (Sim:1h3m15s) 
CPU  0 inst:  258000000 cyc:  128037513 now IPC :2.19569: AVG IPC :2.01492: L2-Pf-HR :0.91238: L2-HR :0.89465: (Sim:1h3m23s) 
CPU  0 inst:  259000005 cyc:  128493494 now IPC :2.19308: AVG IPC :2.01556: L2-Pf-HR :0.91256: L2-HR :0.89492: (Sim:1h3m30s) 
CPU  0 inst:  260000000 cyc:  128972826 now IPC :2.08623: AVG IPC :2.01583: L2-Pf-HR :0.91280: L2-HR :0.89523: (Sim:1h3m38s) 
CPU  0 inst:  261000002 cyc:  129619249 now IPC :1.54698: AVG IPC :2.01347: L2-Pf-HR :0.91265: L2-HR :0.89503: (Sim:1h3m46s) 
CPU  0 inst:  262000005 cyc:  130112620 now IPC :2.02688: AVG IPC :2.01352: L2-Pf-HR :0.91258: L2-HR :0.89494: (Sim:1h3m54s) 
CPU  0 inst:  263000004 cyc:  130598120 now IPC :2.05973: AVG IPC :2.01369: L2-Pf-HR :0.91251: L2-HR :0.89485: (Sim:1h4m2s) 
CPU  0 inst:  264000003 cyc:  131088140 now IPC :2.04073: AVG IPC :2.01380: L2-Pf-HR :0.91245: L2-HR :0.89476: (Sim:1h4m10s) 
CPU  0 inst:  265000002 cyc:  131580636 now IPC :2.03047: AVG IPC :2.01386: L2-Pf-HR :0.91239: L2-HR :0.89467: (Sim:1h4m17s) 
CPU  0 inst:  266000004 cyc:  132061574 now IPC :2.07927: AVG IPC :2.01410: L2-Pf-HR :0.91232: L2-HR :0.89458: (Sim:1h4m25s) 
CPU  0 inst:  267000000 cyc:  132547405 now IPC :2.05832: AVG IPC :2.01426: L2-Pf-HR :0.91232: L2-HR :0.89454: (Sim:1h4m33s) 
CPU  0 inst:  268000000 cyc:  133189505 now IPC :1.55739: AVG IPC :2.01204: L2-Pf-HR :0.91223: L2-HR :0.89442: (Sim:1h4m41s) 
CPU  0 inst:  269000005 cyc:  133671836 now IPC :2.07328: AVG IPC :2.01226: L2-Pf-HR :0.91219: L2-HR :0.89435: (Sim:1h4m49s) 
CPU  0 inst:  270000004 cyc:  134145684 now IPC :2.11038: AVG IPC :2.01261: L2-Pf-HR :0.91216: L2-HR :0.89430: (Sim:1h4m56s) 
CPU  0 inst:  271000003 cyc:  134615751 now IPC :2.12735: AVG IPC :2.01302: L2-Pf-HR :0.91213: L2-HR :0.89425: (Sim:1h5m4s) 
CPU  0 inst:  272000002 cyc:  135087977 now IPC :2.11763: AVG IPC :2.01339: L2-Pf-HR :0.91210: L2-HR :0.89420: (Sim:1h5m11s) 
CPU  0 inst:  273000001 cyc:  135557851 now IPC :2.12823: AVG IPC :2.01379: L2-Pf-HR :0.91206: L2-HR :0.89414: (Sim:1h5m19s) 
CPU  0 inst:  274000000 cyc:  136024372 now IPC :2.14352: AVG IPC :2.01424: L2-Pf-HR :0.91205: L2-HR :0.89411: (Sim:1h5m26s) 
CPU  0 inst:  275000003 cyc:  136494383 now IPC :2.12762: AVG IPC :2.01463: L2-Pf-HR :0.91210: L2-HR :0.89412: (Sim:1h5m34s) 
CPU  0 inst:  276000004 cyc:  137068234 now IPC :1.74261: AVG IPC :2.01348: L2-Pf-HR :0.91211: L2-HR :0.89421: (Sim:1h5m49s) 
CPU  0 inst:  277000000 cyc:  137524364 now IPC :2.19235: AVG IPC :2.01408: L2-Pf-HR :0.91223: L2-HR :0.89442: (Sim:1h6m6s) 
CPU  0 inst:  278000001 cyc:  137979711 now IPC :2.19613: AVG IPC :2.01468: L2-Pf-HR :0.91238: L2-HR :0.89466: (Sim:1h6m23s) 
CPU  0 inst:  279000001 cyc:  138438084 now IPC :2.18163: AVG IPC :2.01524: L2-Pf-HR :0.91254: L2-HR :0.89490: (Sim:1h6m40s) 
CPU  0 inst:  280000005 cyc:  138929666 now IPC :2.03426: AVG IPC :2.01531: L2-Pf-HR :0.91275: L2-HR :0.89518: (Sim:1h6m57s) 
CPU  0 inst:  281000001 cyc:  139569745 now IPC :1.56230: AVG IPC :2.01322: L2-Pf-HR :0.91261: L2-HR :0.89500: (Sim:1h7m16s) 
CPU  0 inst:  282000001 cyc:  140060972 now IPC :2.03572: AVG IPC :2.01330: L2-Pf-HR :0.91256: L2-HR :0.89492: (Sim:1h7m33s) 
CPU  0 inst:  283000003 cyc:  140548847 now IPC :2.04971: AVG IPC :2.01342: L2-Pf-HR :0.91251: L2-HR :0.89485: (Sim:1h7m51s) 
CPU  0 inst:  284000001 cyc:  141037459 now IPC :2.04661: AVG IPC :2.01354: L2-Pf-HR :0.91246: L2-HR :0.89477: (Sim:1h8m8s) 
CPU  0 inst:  285000001 cyc:  141525167 now IPC :2.05041: AVG IPC :2.01367: L2-Pf-HR :0.91241: L2-HR :0.89469: (Sim:1h8m26s) 
CPU  0 inst:  286000002 cyc:  142010968 now IPC :2.05846: AVG IPC :2.01382: L2-Pf-HR :0.91236: L2-HR :0.89463: (Sim:1h8m43s) 
CPU  0 inst:  287000003 cyc:  142502759 now IPC :2.03339: AVG IPC :2.01389: L2-Pf-HR :0.91238: L2-HR :0.89460: (Sim:1h9m0s) 
CPU  0 inst:  288000002 cyc:  143138138 now IPC :1.57386: AVG IPC :2.01192: L2-Pf-HR :0.91229: L2-HR :0.89449: (Sim:1h9m18s) 
CPU  0 inst:  289000003 cyc:  143617816 now IPC :2.08473: AVG IPC :2.01217: L2-Pf-HR :0.91224: L2-HR :0.89442: (Sim:1h9m36s) 
CPU  0 inst:  290000005 cyc:  144088797 now IPC :2.12323: AVG IPC :2.01253: L2-Pf-HR :0.91221: L2-HR :0.89437: (Sim:1h9m53s) 
CPU  0 inst:  291000001 cyc:  144558201 now IPC :2.13035: AVG IPC :2.01292: L2-Pf-HR :0.91219: L2-HR :0.89433: (Sim:1h10m10s) 
CPU  0 inst:  292000000 cyc:  145028896 now IPC :2.12452: AVG IPC :2.01328: L2-Pf-HR :0.91216: L2-HR :0.89428: (Sim:1h10m27s) 
CPU  0 inst:  293000005 cyc:  145499547 now IPC :2.12473: AVG IPC :2.01365: L2-Pf-HR :0.91213: L2-HR :0.89423: (Sim:1h10m44s) 
CPU  0 inst:  294000000 cyc:  145967275 now IPC :2.13798: AVG IPC :2.01405: L2-Pf-HR :0.91212: L2-HR :0.89420: (Sim:1h11m1s) 
CPU  0 inst:  295000000 cyc:  146438615 now IPC :2.12161: AVG IPC :2.01440: L2-Pf-HR :0.91216: L2-HR :0.89421: (Sim:1h11m18s) 
CPU  0 inst:  296000005 cyc:  147011559 now IPC :1.74538: AVG IPC :2.01334: L2-Pf-HR :0.91217: L2-HR :0.89430: (Sim:1h11m36s) 
CPU  0 inst:  297000000 cyc:  147466784 now IPC :2.19670: AVG IPC :2.01391: L2-Pf-HR :0.91229: L2-HR :0.89450: (Sim:1h11m53s) 
CPU  0 inst:  298000005 cyc:  147925218 now IPC :2.18135: AVG IPC :2.01443: L2-Pf-HR :0.91243: L2-HR :0.89472: (Sim:1h12m10s) 
CPU  0 inst:  299000001 cyc:  148380433 now IPC :2.19676: AVG IPC :2.01499: L2-Pf-HR :0.91259: L2-HR :0.89496: (Sim:1h12m27s) 
CPU  0 inst:  300000002 cyc:  148881810 now IPC :1.99451: AVG IPC :2.01493: L2-Pf-HR :0.91278: L2-HR :0.89521: (Sim:1h12m44s) 
CPU  0 inst:  301000005 cyc:  149512301 now IPC :1.58607: AVG IPC :2.01310: L2-Pf-HR :0.91265: L2-HR :0.89505: (Sim:1h13m3s) 
CPU  0 inst:  302000001 cyc:  150003109 now IPC :2.03745: AVG IPC :2.01319: L2-Pf-HR :0.91260: L2-HR :0.89497: (Sim:1h13m20s) 
CPU  0 inst:  303000003 cyc:  150487611 now IPC :2.06398: AVG IPC :2.01335: L2-Pf-HR :0.91255: L2-HR :0.89490: (Sim:1h13m38s) 
CPU  0 inst:  304000005 cyc:  150976231 now IPC :2.04658: AVG IPC :2.01346: L2-Pf-HR :0.91250: L2-HR :0.89483: (Sim:1h13m55s) 
CPU  0 inst:  305000004 cyc:  151463119 now IPC :2.05386: AVG IPC :2.01359: L2-Pf-HR :0.91246: L2-HR :0.89476: (Sim:1h14m12s) 
CPU  0 inst:  306000000 cyc:  151947765 now IPC :2.06335: AVG IPC :2.01375: L2-Pf-HR :0.91243: L2-HR :0.89469: (Sim:1h14m30s) 
CPU  0 inst:  307000002 cyc:  152439749 now IPC :2.03259: AVG IPC :2.01381: L2-Pf-HR :0.91244: L2-HR :0.89467: (Sim:1h14m47s) 
CPU  0 inst:  308000000 cyc:  153072550 now IPC :1.58027: AVG IPC :2.01201: L2-Pf-HR :0.91238: L2-HR :0.89458: (Sim:1h15m5s) 
CPU  0 inst:  309000002 cyc:  153552023 now IPC :2.08563: AVG IPC :2.01224: L2-Pf-HR :0.91233: L2-HR :0.89451: (Sim:1h15m23s) 
CPU  0 inst:  310000000 cyc:  154021349 now IPC :2.13071: AVG IPC :2.01260: L2-Pf-HR :0.91230: L2-HR :0.89446: (Sim:1h15m40s) 
CPU  0 inst:  311000002 cyc:  154492958 now IPC :2.12040: AVG IPC :2.01293: L2-Pf-HR :0.91228: L2-HR :0.89442: (Sim:1h15m57s) 
CPU  0 inst:  312000004 cyc:  154964947 now IPC :2.11870: AVG IPC :2.01326: L2-Pf-HR :0.91225: L2-HR :0.89438: (Sim:1h16m14s) 
CPU  0 inst:  313000002 cyc:  155436354 now IPC :2.12130: AVG IPC :2.01359: L2-Pf-HR :0.91222: L2-HR :0.89433: (Sim:1h16m31s) 
CPU  0 inst:  314000001 cyc:  155906039 now IPC :2.12908: AVG IPC :2.01394: L2-Pf-HR :0.91222: L2-HR :0.89430: (Sim:1h16m48s) 
CPU  0 inst:  315000001 cyc:  156375799 now IPC :2.12875: AVG IPC :2.01428: L2-Pf-HR :0.91226: L2-HR :0.89432: (Sim:1h17m5s) 
CPU  0 inst:  316000000 cyc:  156943036 now IPC :1.76293: AVG IPC :2.01337: L2-Pf-HR :0.91228: L2-HR :0.89440: (Sim:1h17m23s) 
CPU  0 inst:  317000001 cyc:  157399029 now IPC :2.19302: AVG IPC :2.01389: L2-Pf-HR :0.91239: L2-HR :0.89459: (Sim:1h17m40s) 
CPU  0 inst:  318000000 cyc:  157854159 now IPC :2.19717: AVG IPC :2.01442: L2-Pf-HR :0.91250: L2-HR :0.89479: (Sim:1h17m57s) 
CPU  0 inst:  319000005 cyc:  158307473 now IPC :2.20599: AVG IPC :2.01498: L2-Pf-HR :0.91265: L2-HR :0.89501: (Sim:1h18m14s) 
CPU  0 inst:  320000000 cyc:  158821393 now IPC :1.94582: AVG IPC :2.01475: L2-Pf-HR :0.91284: L2-HR :0.89524: (Sim:1h18m32s) 
CPU  0 inst:  321000003 cyc:  159435932 now IPC :1.62724: AVG IPC :2.01325: L2-Pf-HR :0.91271: L2-HR :0.89509: (Sim:1h18m50s) 
CPU  0 inst:  322000002 cyc:  159925806 now IPC :2.04134: AVG IPC :2.01333: L2-Pf-HR :0.91266: L2-HR :0.89502: (Sim:1h19m7s) 
CPU  0 inst:  323000004 cyc:  160410605 now IPC :2.06271: AVG IPC :2.01348: L2-Pf-HR :0.91262: L2-HR :0.89495: (Sim:1h19m25s) 
CPU  0 inst:  324000000 cyc:  160900391 now IPC :2.04170: AVG IPC :2.01357: L2-Pf-HR :0.91257: L2-HR :0.89488: (Sim:1h19m42s) 
CPU  0 inst:  325000005 cyc:  161393572 now IPC :2.02766: AVG IPC :2.01361: L2-Pf-HR :0.91253: L2-HR :0.89482: (Sim:1h20m0s) 
CPU  0 inst:  326000004 cyc:  161883015 now IPC :2.04314: AVG IPC :2.01370: L2-Pf-HR :0.91250: L2-HR :0.89476: (Sim:1h20m17s) 
CPU  0 inst:  327000003 cyc:  162372812 now IPC :2.04166: AVG IPC :2.01379: L2-Pf-HR :0.91250: L2-HR :0.89473: (Sim:1h20m35s) 
CPU  0 inst:  328000004 cyc:  163004515 now IPC :1.58302: AVG IPC :2.01211: L2-Pf-HR :0.91243: L2-HR :0.89463: (Sim:1h20m53s) 
CPU  0 inst:  329000004 cyc:  163484728 now IPC :2.08241: AVG IPC :2.01232: L2-Pf-HR :0.91238: L2-HR :0.89456: (Sim:1h21m10s) 
CPU  0 inst:  330000004 cyc:  163956192 now IPC :2.12105: AVG IPC :2.01263: L2-Pf-HR :0.91234: L2-HR :0.89450: (Sim:1h21m28s) 
CPU  0 inst:  331000003 cyc:  164425490 now IPC :2.13084: AVG IPC :2.01297: L2-Pf-HR :0.91230: L2-HR :0.89446: (Sim:1h21m45s) 
CPU  0 inst:  332000003 cyc:  164896039 now IPC :2.12518: AVG IPC :2.01329: L2-Pf-HR :0.91227: L2-HR :0.89441: (Sim:1h22m2s) 
CPU  0 inst:  333000001 cyc:  165367030 now IPC :2.12318: AVG IPC :2.01361: L2-Pf-HR :0.91224: L2-HR :0.89436: (Sim:1h22m19s) 
CPU  0 inst:  334000004 cyc:  165838829 now IPC :2.11955: AVG IPC :2.01391: L2-Pf-HR :0.91222: L2-HR :0.89432: (Sim:1h22m36s) 
CPU  0 inst:  335000000 cyc:  166318191 now IPC :2.08610: AVG IPC :2.01412: L2-Pf-HR :0.91225: L2-HR :0.89432: (Sim:1h22m54s) 
CPU  0 inst:  336000003 cyc:  166881546 now IPC :1.77508: AVG IPC :2.01331: L2-Pf-HR :0.91226: L2-HR :0.89440: (Sim:1h23m11s) 
CPU  0 inst:  337000003 cyc:  167337982 now IPC :2.19089: AVG IPC :2.01380: L2-Pf-HR :0.91237: L2-HR :0.89459: (Sim:1h23m28s) 
CPU  0 inst:  338000004 cyc:  167795473 now IPC :2.18584: AVG IPC :2.01427: L2-Pf-HR :0.91248: L2-HR :0.89477: (Sim:1h23m45s) 
CPU  0 inst:  339000004 cyc:  168248931 now IPC :2.20528: AVG IPC :2.01479: L2-Pf-HR :0.91262: L2-HR :0.89498: (Sim:1h24m2s) 
CPU  0 inst:  340000002 cyc:  168767195 now IPC :1.92951: AVG IPC :2.01452: L2-Pf-HR :0.91278: L2-HR :0.89518: (Sim:1h24m20s) 
CPU  0 inst:  341000004 cyc:  169372575 now IPC :1.65186: AVG IPC :2.01322: L2-Pf-HR :0.91267: L2-HR :0.89505: (Sim:1h24m38s) 
CPU  0 inst:  342000003 cyc:  169864117 now IPC :2.03441: AVG IPC :2.01328: L2-Pf-HR :0.91263: L2-HR :0.89498: (Sim:1h24m55s) 
CPU  0 inst:  343000002 cyc:  170348287 now IPC :2.06539: AVG IPC :2.01343: L2-Pf-HR :0.91258: L2-HR :0.89491: (Sim:1h25m13s) 
CPU  0 inst:  344000001 cyc:  170840647 now IPC :2.03103: AVG IPC :2.01348: L2-Pf-HR :0.91254: L2-HR :0.89485: (Sim:1h25m30s) 
CPU  0 inst:  345000003 cyc:  171330128 now IPC :2.04298: AVG IPC :2.01357: L2-Pf-HR :0.91250: L2-HR :0.89479: (Sim:1h25m48s) 
CPU  0 inst:  346000003 cyc:  171819775 now IPC :2.04229: AVG IPC :2.01365: L2-Pf-HR :0.91246: L2-HR :0.89473: (Sim:1h26m5s) 
CPU  0 inst:  347000000 cyc:  172302596 now IPC :2.07115: AVG IPC :2.01381: L2-Pf-HR :0.91246: L2-HR :0.89470: (Sim:1h26m22s) 
CPU  0 inst:  348000002 cyc:  172939151 now IPC :1.57096: AVG IPC :2.01217: L2-Pf-HR :0.91240: L2-HR :0.89462: (Sim:1h26m41s) 
CPU  0 inst:  349000001 cyc:  173421242 now IPC :2.07430: AVG IPC :2.01234: L2-Pf-HR :0.91235: L2-HR :0.89456: (Sim:1h26m58s) 
CPU  0 inst:  350000005 cyc:  173895388 now IPC :2.10906: AVG IPC :2.01261: L2-Pf-HR :0.91232: L2-HR :0.89451: (Sim:1h27m16s) 
CPU  0 inst:  351000001 cyc:  174367259 now IPC :2.11921: AVG IPC :2.01290: L2-Pf-HR :0.91229: L2-HR :0.89447: (Sim:1h27m33s) 
CPU  0 inst:  352000003 cyc:  174837353 now IPC :2.12724: AVG IPC :2.01321: L2-Pf-HR :0.91226: L2-HR :0.89442: (Sim:1h27m50s) 
CPU  0 inst:  353000000 cyc:  175311160 now IPC :2.11056: AVG IPC :2.01347: L2-Pf-HR :0.91223: L2-HR :0.89437: (Sim:1h28m7s) 
CPU  0 inst:  354000004 cyc:  175778486 now IPC :2.13984: AVG IPC :2.01381: L2-Pf-HR :0.91222: L2-HR :0.89435: (Sim:1h28m24s) 
CPU  0 inst:  355000001 cyc:  176271755 now IPC :2.02729: AVG IPC :2.01385: L2-Pf-HR :0.91225: L2-HR :0.89434: (Sim:1h28m42s) 
CPU  0 inst:  356000000 cyc:  176825222 now IPC :1.80679: AVG IPC :2.01320: L2-Pf-HR :0.91226: L2-HR :0.89442: (Sim:1h28m59s) 
CPU  0 inst:  357000004 cyc:  177283950 now IPC :2.17995: AVG IPC :2.01363: L2-Pf-HR :0.91236: L2-HR :0.89459: (Sim:1h29m16s) 
CPU  0 inst:  358000005 cyc:  177738373 now IPC :2.20060: AVG IPC :2.01411: L2-Pf-HR :0.91247: L2-HR :0.89477: (Sim:1h29m33s) 
CPU  0 inst:  359000001 cyc:  178194422 now IPC :2.19274: AVG IPC :2.01457: L2-Pf-HR :0.91259: L2-HR :0.89495: (Sim:1h29m50s) 
CPU  0 inst:  360000000 cyc:  178721395 now IPC :1.89763: AVG IPC :2.01422: L2-Pf-HR :0.91274: L2-HR :0.89514: (Sim:1h30m8s) 
CPU  0 inst:  361000005 cyc:  179320349 now IPC :1.66959: AVG IPC :2.01307: L2-Pf-HR :0.91265: L2-HR :0.89502: (Sim:1h30m26s) 
CPU  0 inst:  362000004 cyc:  179810105 now IPC :2.04183: AVG IPC :2.01315: L2-Pf-HR :0.91261: L2-HR :0.89497: (Sim:1h30m43s) 
CPU  0 inst:  363000000 cyc:  180298086 now IPC :2.04925: AVG IPC :2.01324: L2-Pf-HR :0.91257: L2-HR :0.89491: (Sim:1h31m1s) 
CPU  0 inst:  364000005 cyc:  180789505 now IPC :2.03493: AVG IPC :2.01330: L2-Pf-HR :0.91254: L2-HR :0.89486: (Sim:1h31m18s) 
CPU  0 inst:  365000003 cyc:  181280293 now IPC :2.03754: AVG IPC :2.01337: L2-Pf-HR :0.91250: L2-HR :0.89480: (Sim:1h31m36s) 
CPU  0 inst:  366000000 cyc:  181770080 now IPC :2.04170: AVG IPC :2.01345: L2-Pf-HR :0.91247: L2-HR :0.89474: (Sim:1h31m53s) 
CPU  0 inst:  367000004 cyc:  182258185 now IPC :2.04875: AVG IPC :2.01354: L2-Pf-HR :0.91247: L2-HR :0.89472: (Sim:1h32m10s) 
CPU  0 inst:  368000005 cyc:  182890070 now IPC :1.58257: AVG IPC :2.01204: L2-Pf-HR :0.91241: L2-HR :0.89464: (Sim:1h32m29s) 
CPU  0 inst:  369000000 cyc:  183370542 now IPC :2.08128: AVG IPC :2.01223: L2-Pf-HR :0.91236: L2-HR :0.89458: (Sim:1h32m46s) 
CPU  0 inst:  370000005 cyc:  183841524 now IPC :2.12323: AVG IPC :2.01251: L2-Pf-HR :0.91233: L2-HR :0.89453: (Sim:1h33m3s) 
CPU  0 inst:  371000002 cyc:  184312607 now IPC :2.12276: AVG IPC :2.01280: L2-Pf-HR :0.91230: L2-HR :0.89449: (Sim:1h33m20s) 
CPU  0 inst:  372000004 cyc:  184783955 now IPC :2.12158: AVG IPC :2.01307: L2-Pf-HR :0.91227: L2-HR :0.89444: (Sim:1h33m38s) 
CPU  0 inst:  373000000 cyc:  185254733 now IPC :2.12414: AVG IPC :2.01336: L2-Pf-HR :0.91224: L2-HR :0.89440: (Sim:1h33m55s) 
CPU  0 inst:  374000001 cyc:  185724886 now IPC :2.12697: AVG IPC :2.01365: L2-Pf-HR :0.91223: L2-HR :0.89437: (Sim:1h34m12s) 
CPU  0 inst:  375000001 cyc:  186227687 now IPC :1.98886: AVG IPC :2.01358: L2-Pf-HR :0.91226: L2-HR :0.89437: (Sim:1h34m29s) 
CPU  0 inst:  376000000 cyc:  186769898 now IPC :1.84430: AVG IPC :2.01309: L2-Pf-HR :0.91228: L2-HR :0.89445: (Sim:1h34m47s) 
CPU  0 inst:  377000002 cyc:  187227838 now IPC :2.18370: AVG IPC :2.01351: L2-Pf-HR :0.91237: L2-HR :0.89461: (Sim:1h35m4s) 
CPU  0 inst:  378000005 cyc:  187682498 now IPC :2.19945: AVG IPC :2.01396: L2-Pf-HR :0.91247: L2-HR :0.89478: (Sim:1h35m21s) 
CPU  0 inst:  379000002 cyc:  188140054 now IPC :2.18552: AVG IPC :2.01438: L2-Pf-HR :0.91259: L2-HR :0.89495: (Sim:1h35m38s) 
CPU  0 inst:  380000005 cyc:  188659968 now IPC :1.92340: AVG IPC :2.01413: L2-Pf-HR :0.91272: L2-HR :0.89512: (Sim:1h35m55s) 
CPU  0 inst:  381000000 cyc:  189241202 now IPC :1.72047: AVG IPC :2.01322: L2-Pf-HR :0.91264: L2-HR :0.89502: (Sim:1h36m13s) 
CPU  0 inst:  382000004 cyc:  189730026 now IPC :2.04573: AVG IPC :2.01330: L2-Pf-HR :0.91260: L2-HR :0.89497: (Sim:1h36m31s) 
CPU  0 inst:  383000004 cyc:  190219655 now IPC :2.04236: AVG IPC :2.01338: L2-Pf-HR :0.91256: L2-HR :0.89491: (Sim:1h36m48s) 
CPU  0 inst:  384000000 cyc:  190708722 now IPC :2.04470: AVG IPC :2.01346: L2-Pf-HR :0.91253: L2-HR :0.89485: (Sim:1h37m6s) 
CPU  0 inst:  385000005 cyc:  191196633 now IPC :2.04956: AVG IPC :2.01355: L2-Pf-HR :0.91249: L2-HR :0.89480: (Sim:1h37m23s) 
CPU  0 inst:  386000003 cyc:  191687519 now IPC :2.03713: AVG IPC :2.01361: L2-Pf-HR :0.91246: L2-HR :0.89474: (Sim:1h37m41s) 
CPU  0 inst:  387000003 cyc:  192173079 now IPC :2.05948: AVG IPC :2.01373: L2-Pf-HR :0.91247: L2-HR :0.89472: (Sim:1h37m58s) 
CPU  0 inst:  388000001 cyc:  192809074 now IPC :1.57234: AVG IPC :2.01227: L2-Pf-HR :0.91241: L2-HR :0.89465: (Sim:1h38m16s) 
CPU  0 inst:  389000002 cyc:  193287829 now IPC :2.08875: AVG IPC :2.01246: L2-Pf-HR :0.91238: L2-HR :0.89460: (Sim:1h38m34s) 
CPU  0 inst:  390000005 cyc:  193757779 now IPC :2.12789: AVG IPC :2.01274: L2-Pf-HR :0.91236: L2-HR :0.89457: (Sim:1h38m51s) 
CPU  0 inst:  391000000 cyc:  194227000 now IPC :2.13118: AVG IPC :2.01303: L2-Pf-HR :0.91234: L2-HR :0.89453: (Sim:1h39m8s) 
CPU  0 inst:  392000003 cyc:  194700474 now IPC :2.11205: AVG IPC :2.01327: L2-Pf-HR :0.91232: L2-HR :0.89450: (Sim:1h39m25s) 
CPU  0 inst:  393000000 cyc:  195177180 now IPC :2.09772: AVG IPC :2.01347: L2-Pf-HR :0.91230: L2-HR :0.89446: (Sim:1h39m42s) 
CPU  0 inst:  394000002 cyc:  195644447 now IPC :2.14011: AVG IPC :2.01378: L2-Pf-HR :0.91229: L2-HR :0.89444: (Sim:1h39m59s) 
CPU  0 inst:  395000000 cyc:  196154967 now IPC :1.95878: AVG IPC :2.01363: L2-Pf-HR :0.91231: L2-HR :0.89444: (Sim:1h40m17s) 
CPU  0 inst:  396000004 cyc:  196687197 now IPC :1.87889: AVG IPC :2.01327: L2-Pf-HR :0.91234: L2-HR :0.89452: (Sim:1h40m34s) 
CPU  0 inst:  397000000 cyc:  197145703 now IPC :2.18099: AVG IPC :2.01366: L2-Pf-HR :0.91243: L2-HR :0.89467: (Sim:1h40m51s) 
CPU  0 inst:  398000004 cyc:  197599918 now IPC :2.20161: AVG IPC :2.01409: L2-Pf-HR :0.91253: L2-HR :0.89483: (Sim:1h41m8s) 
CPU  0 inst:  399000003 cyc:  198056908 now IPC :2.18823: AVG IPC :2.01450: L2-Pf-HR :0.91264: L2-HR :0.89500: (Sim:1h41m25s) 
CPU  0 inst:  400000004 cyc:  198603203 now IPC :1.83051: AVG IPC :2.01399: L2-Pf-HR :0.91275: L2-HR :0.89515: (Sim:1h41m43s) 
CPU  0 inst:  401000001 cyc:  199184796 now IPC :1.71941: AVG IPC :2.01313: L2-Pf-HR :0.91268: L2-HR :0.89506: (Sim:1h42m1s) 
CPU  0 inst:  402000002 cyc:  199676596 now IPC :2.03335: AVG IPC :2.01318: L2-Pf-HR :0.91264: L2-HR :0.89501: (Sim:1h42m18s) 
CPU  0 inst:  403000005 cyc:  200162816 now IPC :2.05669: AVG IPC :2.01328: L2-Pf-HR :0.91260: L2-HR :0.89495: (Sim:1h42m35s) 
CPU  0 inst:  404000001 cyc:  200652005 now IPC :2.04419: AVG IPC :2.01336: L2-Pf-HR :0.91257: L2-HR :0.89490: (Sim:1h42m53s) 
CPU  0 inst:  405000003 cyc:  201146321 now IPC :2.02300: AVG IPC :2.01338: L2-Pf-HR :0.91254: L2-HR :0.89485: (Sim:1h43m10s) 
CPU  0 inst:  406000005 cyc:  201640279 now IPC :2.02447: AVG IPC :2.01341: L2-Pf-HR :0.91250: L2-HR :0.89480: (Sim:1h43m28s) 
CPU  0 inst:  407000001 cyc:  202127970 now IPC :2.05047: AVG IPC :2.01350: L2-Pf-HR :0.91250: L2-HR :0.89477: (Sim:1h43m45s) 
CPU  0 inst:  408000002 cyc:  202753200 now IPC :1.59941: AVG IPC :2.01222: L2-Pf-HR :0.91245: L2-HR :0.89470: (Sim:1h44m0s) 
CPU  0 inst:  409000001 cyc:  203236494 now IPC :2.06913: AVG IPC :2.01235: L2-Pf-HR :0.91241: L2-HR :0.89465: (Sim:1h44m8s) 
CPU  0 inst:  410000003 cyc:  203705709 now IPC :2.13122: AVG IPC :2.01263: L2-Pf-HR :0.91238: L2-HR :0.89460: (Sim:1h44m15s) 
CPU  0 inst:  411000002 cyc:  204176344 now IPC :2.12479: AVG IPC :2.01289: L2-Pf-HR :0.91235: L2-HR :0.89456: (Sim:1h44m23s) 
CPU  0 inst:  412000003 cyc:  204644895 now IPC :2.13424: AVG IPC :2.01317: L2-Pf-HR :0.91232: L2-HR :0.89452: (Sim:1h44m31s) 
CPU  0 inst:  413000000 cyc:  205113308 now IPC :2.13486: AVG IPC :2.01344: L2-Pf-HR :0.91229: L2-HR :0.89448: (Sim:1h44m38s) 
CPU  0 inst:  414000004 cyc:  205582662 now IPC :2.13060: AVG IPC :2.01371: L2-Pf-HR :0.91227: L2-HR :0.89445: (Sim:1h44m46s) 
CPU  0 inst:  415000000 cyc:  206100445 now IPC :1.93130: AVG IPC :2.01351: L2-Pf-HR :0.91228: L2-HR :0.89443: (Sim:1h44m54s) 
CPU  0 inst:  416000002 cyc:  206627864 now IPC :1.89603: AVG IPC :2.01320: L2-Pf-HR :0.91230: L2-HR :0.89451: (Sim:1h45m1s) 
CPU  0 inst:  417000001 cyc:  207082686 now IPC :2.19866: AVG IPC :2.01361: L2-Pf-HR :0.91239: L2-HR :0.89465: (Sim:1h45m9s) 
CPU  0 inst:  418000000 cyc:  207536920 now IPC :2.20151: AVG IPC :2.01403: L2-Pf-HR :0.91248: L2-HR :0.89480: (Sim:1h45m17s) 
CPU  0 inst:  419000004 cyc:  207993322 now IPC :2.19106: AVG IPC :2.01442: L2-Pf-HR :0.91259: L2-HR :0.89496: (Sim:1h45m35s) 
CPU  0 inst:  420000003 cyc:  208538967 now IPC :1.83269: AVG IPC :2.01394: L2-Pf-HR :0.91269: L2-HR :0.89510: (Sim:1h45m53s) 
CPU  0 inst:  421000002 cyc:  209118603 now IPC :1.72522: AVG IPC :2.01313: L2-Pf-HR :0.91262: L2-HR :0.89502: (Sim:1h46m11s) 
CPU  0 inst:  422000001 cyc:  209609563 now IPC :2.03682: AVG IPC :2.01319: L2-Pf-HR :0.91259: L2-HR :0.89497: (Sim:1h46m29s) 
CPU  0 inst:  423000001 cyc:  210099456 now IPC :2.04126: AVG IPC :2.01326: L2-Pf-HR :0.91256: L2-HR :0.89492: (Sim:1h46m47s) 
CPU  0 inst:  424000005 cyc:  210587360 now IPC :2.04959: AVG IPC :2.01334: L2-Pf-HR :0.91252: L2-HR :0.89487: (Sim:1h47m5s) 
CPU  0 inst:  425000004 cyc:  211076352 now IPC :2.04502: AVG IPC :2.01341: L2-Pf-HR :0.91250: L2-HR :0.89483: (Sim:1h47m23s) 
CPU  0 inst:  426000005 cyc:  211564866 now IPC :2.04703: AVG IPC :2.01349: L2-Pf-HR :0.91247: L2-HR :0.89478: (Sim:1h47m41s) 
CPU  0 inst:  427000005 cyc:  212050685 now IPC :2.05838: AVG IPC :2.01360: L2-Pf-HR :0.91247: L2-HR :0.89476: (Sim:1h47m59s) 
CPU  0 inst:  428000000 cyc:  212685145 now IPC :1.57614: AVG IPC :2.01229: L2-Pf-HR :0.91241: L2-HR :0.89468: (Sim:1h48m17s) 
CPU  0 inst:  429000005 cyc:  213161875 now IPC :2.09763: AVG IPC :2.01248: L2-Pf-HR :0.91238: L2-HR :0.89463: (Sim:1h48m34s) 
CPU  0 inst:  430000001 cyc:  213632450 now IPC :2.12505: AVG IPC :2.01273: L2-Pf-HR :0.91236: L2-HR :0.89460: (Sim:1h48m52s) 
CPU  0 inst:  431000000 cyc:  214102001 now IPC :2.12969: AVG IPC :2.01298: L2-Pf-HR :0.91234: L2-HR :0.89456: (Sim:1h49m9s) 
CPU  0 inst:  432000004 cyc:  214570622 now IPC :2.13393: AVG IPC :2.01325: L2-Pf-HR :0.91231: L2-HR :0.89452: (Sim:1h49m26s) 
CPU  0 inst:  433000000 cyc:  215040422 now IPC :2.12856: AVG IPC :2.01350: L2-Pf-HR :0.91229: L2-HR :0.89449: (Sim:1h49m43s) 
CPU  0 inst:  434000001 cyc:  215507447 now IPC :2.14122: AVG IPC :2.01378: L2-Pf-HR :0.91229: L2-HR :0.89447: (Sim:1h50m0s) 
CPU  0 inst:  435000002 cyc:  216027745 now IPC :1.92198: AVG IPC :2.01356: L2-Pf-HR :0.91230: L2-HR :0.89446: (Sim:1h50m17s) 
CPU  0 inst:  436000003 cyc:  216554504 now IPC :1.89840: AVG IPC :2.01328: L2-Pf-HR :0.91233: L2-HR :0.89454: (Sim:1h50m35s) 
CPU  0 inst:  437000005 cyc:  217010486 now IPC :2.19307: AVG IPC :2.01366: L2-Pf-HR :0.91241: L2-HR :0.89468: (Sim:1h50m52s) 
CPU  0 inst:  438000001 cyc:  217468348 now IPC :2.18406: AVG IPC :2.01402: L2-Pf-HR :0.91250: L2-HR :0.89482: (Sim:1h51m9s) 
CPU  0 inst:  439000004 cyc:  217922784 now IPC :2.20054: AVG IPC :2.01441: L2-Pf-HR :0.91260: L2-HR :0.89498: (Sim:1h51m25s) 
CPU  0 inst:  440000002 cyc:  218474649 now IPC :1.81203: AVG IPC :2.01389: L2-Pf-HR :0.91270: L2-HR :0.89511: (Sim:1h51m43s) 
CPU  0 inst:  441000003 cyc:  219049248 now IPC :1.74035: AVG IPC :2.01317: L2-Pf-HR :0.91263: L2-HR :0.89503: (Sim:1h52m1s) 
CPU  0 inst:  442000002 cyc:  219534893 now IPC :2.05912: AVG IPC :2.01328: L2-Pf-HR :0.91261: L2-HR :0.89498: (Sim:1h52m18s) 
CPU  0 inst:  443000000 cyc:  220023899 now IPC :2.04496: AVG IPC :2.01335: L2-Pf-HR :0.91257: L2-HR :0.89493: (Sim:1h52m36s) 
CPU  0 inst:  444000003 cyc:  220513934 now IPC :2.04068: AVG IPC :2.01341: L2-Pf-HR :0.91254: L2-HR :0.89488: (Sim:1h52m53s) 
CPU  0 inst:  445000003 cyc:  221001880 now IPC :2.04941: AVG IPC :2.01349: L2-Pf-HR :0.91251: L2-HR :0.89484: (Sim:1h53m11s) 
CPU  0 inst:  446000001 cyc:  221491673 now IPC :2.04167: AVG IPC :2.01355: L2-Pf-HR :0.91248: L2-HR :0.89480: (Sim:1h53m28s) 
CPU  0 inst:  447000003 cyc:  221977944 now IPC :2.05647: AVG IPC :2.01364: L2-Pf-HR :0.91249: L2-HR :0.89478: (Sim:1h53m45s) 
CPU  0 inst:  448000000 cyc:  222620661 now IPC :1.55589: AVG IPC :2.01232: L2-Pf-HR :0.91244: L2-HR :0.89471: (Sim:1h54m3s) 
CPU  0 inst:  449000003 cyc:  223097849 now IPC :2.09562: AVG IPC :2.01250: L2-Pf-HR :0.91241: L2-HR :0.89467: (Sim:1h54m21s) 
CPU  0 inst:  450000003 cyc:  223567431 now IPC :2.12955: AVG IPC :2.01274: L2-Pf-HR :0.91239: L2-HR :0.89464: (Sim:1h54m38s) 
CPU  0 inst:  451000003 cyc:  224036426 now IPC :2.13222: AVG IPC :2.01299: L2-Pf-HR :0.91237: L2-HR :0.89460: (Sim:1h54m55s) 
CPU  0 inst:  452000004 cyc:  224509238 now IPC :2.11501: AVG IPC :2.01321: L2-Pf-HR :0.91235: L2-HR :0.89457: (Sim:1h55m12s) 
CPU  0 inst:  453000003 cyc:  224978142 now IPC :2.13263: AVG IPC :2.01346: L2-Pf-HR :0.91234: L2-HR :0.89454: (Sim:1h55m29s) 
CPU  0 inst:  454000003 cyc:  225448768 now IPC :2.12483: AVG IPC :2.01369: L2-Pf-HR :0.91234: L2-HR :0.89452: (Sim:1h55m45s) 
CPU  0 inst:  455000005 cyc:  225975426 now IPC :1.89877: AVG IPC :2.01342: L2-Pf-HR :0.91235: L2-HR :0.89452: (Sim:1h56m1s) 
CPU  0 inst:  456000004 cyc:  226496190 now IPC :1.92025: AVG IPC :2.01321: L2-Pf-HR :0.91238: L2-HR :0.89460: (Sim:1h56m18s) 
CPU  0 inst:  457000003 cyc:  226953539 now IPC :2.18651: AVG IPC :2.01356: L2-Pf-HR :0.91246: L2-HR :0.89473: (Sim:1h56m35s) 
CPU  0 inst:  458000004 cyc:  227411060 now IPC :2.18569: AVG IPC :2.01391: L2-Pf-HR :0.91254: L2-HR :0.89487: (Sim:1h56m51s) 
CPU  0 inst:  459000000 cyc:  227867619 now IPC :2.19029: AVG IPC :2.01426: L2-Pf-HR :0.91264: L2-HR :0.89502: (Sim:1h57m7s) 
CPU  0 inst:  460000002 cyc:  228424971 now IPC :1.79420: AVG IPC :2.01372: L2-Pf-HR :0.91274: L2-HR :0.89514: (Sim:1h57m24s) 
CPU  0 inst:  461000001 cyc:  228992594 now IPC :1.76173: AVG IPC :2.01310: L2-Pf-HR :0.91267: L2-HR :0.89506: (Sim:1h57m41s) 
CPU  0 inst:  462000005 cyc:  229483254 now IPC :2.03808: AVG IPC :2.01315: L2-Pf-HR :0.91265: L2-HR :0.89502: (Sim:1h57m58s) 
CPU  0 inst:  463000002 cyc:  229975383 now IPC :2.03198: AVG IPC :2.01319: L2-Pf-HR :0.91262: L2-HR :0.89498: (Sim:1h58m15s) 
CPU  0 inst:  464000004 cyc:  230463455 now IPC :2.04888: AVG IPC :2.01327: L2-Pf-HR :0.91259: L2-HR :0.89493: (Sim:1h58m31s) 
CPU  0 inst:  465000003 cyc:  230955807 now IPC :2.03107: AVG IPC :2.01330: L2-Pf-HR :0.91256: L2-HR :0.89489: (Sim:1h58m48s) 
CPU  0 inst:  466000003 cyc:  231445612 now IPC :2.04163: AVG IPC :2.01336: L2-Pf-HR :0.91254: L2-HR :0.89485: (Sim:1h59m5s) 
CPU  0 inst:  467000000 cyc:  231933948 now IPC :2.04776: AVG IPC :2.01344: L2-Pf-HR :0.91255: L2-HR :0.89484: (Sim:1h59m21s) 
CPU  0 inst:  468000001 cyc:  232567899 now IPC :1.57741: AVG IPC :2.01224: L2-Pf-HR :0.91249: L2-HR :0.89477: (Sim:1h59m38s) 
CPU  0 inst:  469000001 cyc:  233043707 now IPC :2.10169: AVG IPC :2.01243: L2-Pf-HR :0.91247: L2-HR :0.89473: (Sim:1h59m56s) 
CPU  0 inst:  470000000 cyc:  233515555 now IPC :2.11932: AVG IPC :2.01264: L2-Pf-HR :0.91245: L2-HR :0.89470: (Sim:2h0m12s) 
CPU  0 inst:  471000004 cyc:  233988310 now IPC :2.11527: AVG IPC :2.01285: L2-Pf-HR :0.91243: L2-HR :0.89467: (Sim:2h0m29s) 
CPU  0 inst:  472000004 cyc:  234457725 now IPC :2.13031: AVG IPC :2.01309: L2-Pf-HR :0.91242: L2-HR :0.89464: (Sim:2h0m45s) 
CPU  0 inst:  473000001 cyc:  234928235 now IPC :2.12535: AVG IPC :2.01331: L2-Pf-HR :0.91240: L2-HR :0.89462: (Sim:2h1m1s) 
CPU  0 inst:  474000000 cyc:  235398227 now IPC :2.12769: AVG IPC :2.01354: L2-Pf-HR :0.91240: L2-HR :0.89460: (Sim:2h1m18s) 
CPU  0 inst:  475000004 cyc:  235927398 now IPC :1.88976: AVG IPC :2.01326: L2-Pf-HR :0.91242: L2-HR :0.89460: (Sim:2h1m35s) 
CPU  0 inst:  476000000 cyc:  236445103 now IPC :1.93159: AVG IPC :2.01308: L2-Pf-HR :0.91244: L2-HR :0.89467: (Sim:2h1m51s) 
CPU  0 inst:  477000001 cyc:  236905087 now IPC :2.17399: AVG IPC :2.01340: L2-Pf-HR :0.91252: L2-HR :0.89481: (Sim:2h2m7s) 
CPU  0 inst:  478000004 cyc:  237359765 now IPC :2.19937: AVG IPC :2.01376: L2-Pf-HR :0.91261: L2-HR :0.89494: (Sim:2h2m24s) 
CPU  0 inst:  479000003 cyc:  237815063 now IPC :2.19636: AVG IPC :2.01411: L2-Pf-HR :0.91270: L2-HR :0.89508: (Sim:2h2m40s) 
CPU  0 inst:  480000000 cyc:  238372097 now IPC :1.79522: AVG IPC :2.01359: L2-Pf-HR :0.91279: L2-HR :0.89520: (Sim:2h2m57s) 
CPU  0 inst:  481000005 cyc:  238939968 now IPC :1.76097: AVG IPC :2.01299: L2-Pf-HR :0.91273: L2-HR :0.89512: (Sim:2h3m15s) 
CPU  0 inst:  482000001 cyc:  239431561 now IPC :2.03419: AVG IPC :2.01303: L2-Pf-HR :0.91270: L2-HR :0.89508: (Sim:2h3m31s) 
CPU  0 inst:  483000003 cyc:  239924489 now IPC :2.02870: AVG IPC :2.01307: L2-Pf-HR :0.91267: L2-HR :0.89503: (Sim:2h3m48s) 
CPU  0 inst:  484000005 cyc:  240410410 now IPC :2.05795: AVG IPC :2.01316: L2-Pf-HR :0.91264: L2-HR :0.89499: (Sim:2h4m5s) 
CPU  0 inst:  485000001 cyc:  240897021 now IPC :2.05502: AVG IPC :2.01324: L2-Pf-HR :0.91262: L2-HR :0.89495: (Sim:2h4m21s) 
CPU  0 inst:  486000000 cyc:  241386363 now IPC :2.04356: AVG IPC :2.01330: L2-Pf-HR :0.91260: L2-HR :0.89492: (Sim:2h4m38s) 
CPU  0 inst:  487000003 cyc:  241876542 now IPC :2.04008: AVG IPC :2.01336: L2-Pf-HR :0.91261: L2-HR :0.89490: (Sim:2h4m55s) 
CPU  0 inst:  488000000 cyc:  242511342 now IPC :1.57529: AVG IPC :2.01221: L2-Pf-HR :0.91256: L2-HR :0.89484: (Sim:2h5m12s) 
CPU  0 inst:  489000005 cyc:  242985609 now IPC :2.10853: AVG IPC :2.01240: L2-Pf-HR :0.91253: L2-HR :0.89480: (Sim:2h5m29s) 
CPU  0 inst:  490000001 cyc:  243454983 now IPC :2.13049: AVG IPC :2.01262: L2-Pf-HR :0.91251: L2-HR :0.89477: (Sim:2h5m46s) 
CPU  0 inst:  491000005 cyc:  243923758 now IPC :2.13323: AVG IPC :2.01286: L2-Pf-HR :0.91249: L2-HR :0.89473: (Sim:2h6m2s) 
CPU  0 inst:  492000004 cyc:  244393574 now IPC :2.12849: AVG IPC :2.01308: L2-Pf-HR :0.91247: L2-HR :0.89470: (Sim:2h6m18s) 
CPU  0 inst:  493000000 cyc:  244862375 now IPC :2.13309: AVG IPC :2.01331: L2-Pf-HR :0.91245: L2-HR :0.89467: (Sim:2h6m35s) 
CPU  0 inst:  494000004 cyc:  245332030 now IPC :2.12923: AVG IPC :2.01353: L2-Pf-HR :0.91244: L2-HR :0.89465: (Sim:2h6m51s) 
CPU  0 inst:  495000002 cyc:  245864697 now IPC :1.87734: AVG IPC :2.01324: L2-Pf-HR :0.91245: L2-HR :0.89463: (Sim:2h7m7s) 
CPU  0 inst:  496000003 cyc:  246375785 now IPC :1.95661: AVG IPC :2.01312: L2-Pf-HR :0.91247: L2-HR :0.89471: (Sim:2h7m24s) 
CPU  0 inst:  497000002 cyc:  246835846 now IPC :2.17362: AVG IPC :2.01342: L2-Pf-HR :0.91255: L2-HR :0.89483: (Sim:2h7m41s) 
CPU  0 inst:  498000001 cyc:  247290626 now IPC :2.19886: AVG IPC :2.01376: L2-Pf-HR :0.91263: L2-HR :0.89496: (Sim:2h7m57s) 
CPU  0 inst:  499000002 cyc:  247746229 now IPC :2.19490: AVG IPC :2.01410: L2-Pf-HR :0.91272: L2-HR :0.89509: (Sim:2h8m13s) 
CPU  0 inst:  500000001 cyc:  248307458 now IPC :1.78180: AVG IPC :2.01357: L2-Pf-HR :0.91281: L2-HR :0.89520: (Sim:2h8m30s) 
CPU  0 inst:  501000004 cyc:  248874783 now IPC :1.76266: AVG IPC :2.01300: L2-Pf-HR :0.91274: L2-HR :0.89513: (Sim:2h8m47s) 
CPU  0 inst:  502000005 cyc:  249369139 now IPC :2.02284: AVG IPC :2.01302: L2-Pf-HR :0.91272: L2-HR :0.89509: (Sim:2h9m5s) 
CPU  0 inst:  503000004 cyc:  249857529 now IPC :2.04754: AVG IPC :2.01308: L2-Pf-HR :0.91269: L2-HR :0.89505: (Sim:2h9m21s) 
CPU  0 inst:  504000000 cyc:  250350169 now IPC :2.02987: AVG IPC :2.01312: L2-Pf-HR :0.91266: L2-HR :0.89500: (Sim:2h9m38s) 
CPU  0 inst:  505000001 cyc:  250837797 now IPC :2.05075: AVG IPC :2.01319: L2-Pf-HR :0.91264: L2-HR :0.89497: (Sim:2h9m55s) 
CPU  0 inst:  506000001 cyc:  251326279 now IPC :2.04716: AVG IPC :2.01326: L2-Pf-HR :0.91261: L2-HR :0.89493: (Sim:2h10m11s) 
CPU  0 inst:  507000003 cyc:  251817663 now IPC :2.03507: AVG IPC :2.01330: L2-Pf-HR :0.91261: L2-HR :0.89490: (Sim:2h10m28s) 
CPU  0 inst:  508000002 cyc:  252454849 now IPC :1.56940: AVG IPC :2.01217: L2-Pf-HR :0.91256: L2-HR :0.89484: (Sim:2h10m46s) 
CPU  0 inst:  509000003 cyc:  252928816 now IPC :2.10985: AVG IPC :2.01236: L2-Pf-HR :0.91254: L2-HR :0.89480: (Sim:2h11m2s) 
CPU  0 inst:  510000005 cyc:  253398522 now IPC :2.12900: AVG IPC :2.01257: L2-Pf-HR :0.91252: L2-HR :0.89477: (Sim:2h11m18s) 
CPU  0 inst:  511000000 cyc:  253866934 now IPC :2.13486: AVG IPC :2.01280: L2-Pf-HR :0.91249: L2-HR :0.89473: (Sim:2h11m35s) 
CPU  0 inst:  512000002 cyc:  254338325 now IPC :2.12139: AVG IPC :2.01300: L2-Pf-HR :0.91247: L2-HR :0.89470: (Sim:2h11m51s) 
CPU  0 inst:  513000001 cyc:  254809767 now IPC :2.12115: AVG IPC :2.01320: L2-Pf-HR :0.91246: L2-HR :0.89468: (Sim:2h12m7s) 
CPU  0 inst:  514000000 cyc:  255279540 now IPC :2.12869: AVG IPC :2.01342: L2-Pf-HR :0.91245: L2-HR :0.89466: (Sim:2h12m24s) 
CPU  0 inst:  515000000 cyc:  255816646 now IPC :1.86183: AVG IPC :2.01310: L2-Pf-HR :0.91246: L2-HR :0.89465: (Sim:2h12m41s) 
CPU  0 inst:  516000005 cyc:  256327076 now IPC :1.95914: AVG IPC :2.01299: L2-Pf-HR :0.91249: L2-HR :0.89472: (Sim:2h12m57s) 
CPU  0 inst:  517000000 cyc:  256785241 now IPC :2.18261: AVG IPC :2.01329: L2-Pf-HR :0.91256: L2-HR :0.89484: (Sim:2h13m14s) 
CPU  0 inst:  518000005 cyc:  257241152 now IPC :2.19342: AVG IPC :2.01361: L2-Pf-HR :0.91264: L2-HR :0.89497: (Sim:2h13m30s) 
CPU  0 inst:  519000000 cyc:  257696621 now IPC :2.19553: AVG IPC :2.01394: L2-Pf-HR :0.91272: L2-HR :0.89510: (Sim:2h13m45s) 
CPU  0 inst:  520000005 cyc:  258251634 now IPC :1.80177: AVG IPC :2.01348: L2-Pf-HR :0.91281: L2-HR :0.89520: (Sim:2h14m3s) 
CPU  0 inst:  521000005 cyc:  258813657 now IPC :1.77929: AVG IPC :2.01297: L2-Pf-HR :0.91275: L2-HR :0.89513: (Sim:2h14m20s) 
CPU  0 inst:  522000001 cyc:  259302959 now IPC :2.04372: AVG IPC :2.01303: L2-Pf-HR :0.91273: L2-HR :0.89509: (Sim:2h14m36s) 
CPU  0 inst:  523000002 cyc:  259793248 now IPC :2.03962: AVG IPC :2.01308: L2-Pf-HR :0.91270: L2-HR :0.89506: (Sim:2h14m53s) 
CPU  0 inst:  524000001 cyc:  260284166 now IPC :2.03700: AVG IPC :2.01312: L2-Pf-HR :0.91268: L2-HR :0.89502: (Sim:2h15m10s) 
CPU  0 inst:  525000000 cyc:  260769446 now IPC :2.06066: AVG IPC :2.01321: L2-Pf-HR :0.91266: L2-HR :0.89498: (Sim:2h15m27s) 
CPU  0 inst:  526000005 cyc:  261261331 now IPC :2.03301: AVG IPC :2.01325: L2-Pf-HR :0.91263: L2-HR :0.89494: (Sim:2h15m44s) 
CPU  0 inst:  527000001 cyc:  261751200 now IPC :2.04135: AVG IPC :2.01330: L2-Pf-HR :0.91264: L2-HR :0.89493: (Sim:2h16m0s) 
CPU  0 inst:  528000002 cyc:  262376990 now IPC :1.59798: AVG IPC :2.01231: L2-Pf-HR :0.91259: L2-HR :0.89486: (Sim:2h16m17s) 
CPU  0 inst:  529000005 cyc:  262853608 now IPC :2.09812: AVG IPC :2.01246: L2-Pf-HR :0.91257: L2-HR :0.89483: (Sim:2h16m33s) 
CPU  0 inst:  530000000 cyc:  263327494 now IPC :2.11020: AVG IPC :2.01264: L2-Pf-HR :0.91255: L2-HR :0.89480: (Sim:2h16m50s) 
CPU  0 inst:  531000002 cyc:  263798510 now IPC :2.12307: AVG IPC :2.01284: L2-Pf-HR :0.91254: L2-HR :0.89477: (Sim:2h17m2s) 
CPU  0 inst:  532000000 cyc:  264267702 now IPC :2.13132: AVG IPC :2.01305: L2-Pf-HR :0.91252: L2-HR :0.89475: (Sim:2h17m10s) 
CPU  0 inst:  533000002 cyc:  264737670 now IPC :2.12781: AVG IPC :2.01325: L2-Pf-HR :0.91251: L2-HR :0.89472: (Sim:2h17m18s) 
CPU  0 inst:  534000000 cyc:  265205989 now IPC :2.13529: AVG IPC :2.01347: L2-Pf-HR :0.91251: L2-HR :0.89471: (Sim:2h17m25s) 
CPU  0 inst:  535000004 cyc:  265745221 now IPC :1.85450: AVG IPC :2.01315: L2-Pf-HR :0.91251: L2-HR :0.89470: (Sim:2h17m33s) 
CPU  0 inst:  536000004 cyc:  266250511 now IPC :1.97906: AVG IPC :2.01308: L2-Pf-HR :0.91254: L2-HR :0.89477: (Sim:2h17m41s) 
CPU  0 inst:  537000004 cyc:  266704709 now IPC :2.20168: AVG IPC :2.01340: L2-Pf-HR :0.91261: L2-HR :0.89489: (Sim:2h17m49s) 
CPU  0 inst:  538000003 cyc:  267165212 now IPC :2.17154: AVG IPC :2.01368: L2-Pf-HR :0.91268: L2-HR :0.89500: (Sim:2h17m56s) 
CPU  0 inst:  539000005 cyc:  267619826 now IPC :2.19967: AVG IPC :2.01399: L2-Pf-HR :0.91277: L2-HR :0.89513: (Sim:2h18m4s) 
CPU  0 inst:  540000000 cyc:  268183169 now IPC :1.77511: AVG IPC :2.01349: L2-Pf-HR :0.91284: L2-HR :0.89523: (Sim:2h18m12s) 
CPU  0 inst:  541000005 cyc:  268743295 now IPC :1.78532: AVG IPC :2.01301: L2-Pf-HR :0.91279: L2-HR :0.89516: (Sim:2h18m20s) 
CPU  0 inst:  542000004 cyc:  269231706 now IPC :2.04745: AVG IPC :2.01308: L2-Pf-HR :0.91277: L2-HR :0.89513: (Sim:2h18m27s) 
CPU  0 inst:  543000003 cyc:  269725538 now IPC :2.02498: AVG IPC :2.01310: L2-Pf-HR :0.91274: L2-HR :0.89509: (Sim:2h18m35s) 
CPU  0 inst:  544000005 cyc:  270216456 now IPC :2.03700: AVG IPC :2.01314: L2-Pf-HR :0.91272: L2-HR :0.89505: (Sim:2h18m43s) 
CPU  0 inst:  545000001 cyc:  270701548 now IPC :2.06146: AVG IPC :2.01323: L2-Pf-HR :0.91269: L2-HR :0.89501: (Sim:2h18m50s) 
CPU  0 inst:  546000000 cyc:  271192044 now IPC :2.03875: AVG IPC :2.01327: L2-Pf-HR :0.91267: L2-HR :0.89498: (Sim:2h18m58s) 
CPU  0 inst:  547000004 cyc:  271679250 now IPC :2.05253: AVG IPC :2.01335: L2-Pf-HR :0.91267: L2-HR :0.89496: (Sim:2h19m5s) 
CPU  0 inst:  548000005 cyc:  272310917 now IPC :1.58311: AVG IPC :2.01234: L2-Pf-HR :0.91263: L2-HR :0.89490: (Sim:2h19m13s) 
CPU  0 inst:  549000005 cyc:  272787185 now IPC :2.09966: AVG IPC :2.01250: L2-Pf-HR :0.91261: L2-HR :0.89487: (Sim:2h19m21s) 
CPU  0 inst:  550000000 cyc:  273259202 now IPC :2.11856: AVG IPC :2.01268: L2-Pf-HR :0.91258: L2-HR :0.89483: (Sim:2h19m28s) 
CPU  0 inst:  551000005 cyc:  273729235 now IPC :2.12752: AVG IPC :2.01288: L2-Pf-HR :0.91256: L2-HR :0.89480: (Sim:2h19m36s) 
CPU  0 inst:  552000001 cyc:  274198909 now IPC :2.12913: AVG IPC :2.01308: L2-Pf-HR :0.91255: L2-HR :0.89478: (Sim:2h19m43s) 
CPU  0 inst:  553000000 cyc:  274670128 now IPC :2.12215: AVG IPC :2.01327: L2-Pf-HR :0.91253: L2-HR :0.89475: (Sim:2h19m51s) 
CPU  0 inst:  554000002 cyc:  275139376 now IPC :2.13107: AVG IPC :2.01347: L2-Pf-HR :0.91253: L2-HR :0.89474: (Sim:2h19m59s) 
CPU  0 inst:  555000002 cyc:  275686324 now IPC :1.82833: AVG IPC :2.01310: L2-Pf-HR :0.91253: L2-HR :0.89472: (Sim:2h20m6s) 
CPU  0 inst:  556000001 cyc:  276188625 now IPC :1.99084: AVG IPC :2.01306: L2-Pf-HR :0.91255: L2-HR :0.89479: (Sim:2h20m14s) 
CPU  0 inst:  557000002 cyc:  276643501 now IPC :2.19840: AVG IPC :2.01336: L2-Pf-HR :0.91262: L2-HR :0.89491: (Sim:2h20m21s) 
CPU  0 inst:  558000001 cyc:  277100447 now IPC :2.18844: AVG IPC :2.01365: L2-Pf-HR :0.91270: L2-HR :0.89502: (Sim:2h20m29s) 
CPU  0 inst:  559000000 cyc:  277555349 now IPC :2.19827: AVG IPC :2.01396: L2-Pf-HR :0.91278: L2-HR :0.89514: (Sim:2h20m36s) 
CPU  0 inst:  560000003 cyc:  278131552 now IPC :1.73550: AVG IPC :2.01338: L2-Pf-HR :0.91285: L2-HR :0.89523: (Sim:2h20m44s) 
CPU  0 inst:  561000003 cyc:  278688005 now IPC :1.79710: AVG IPC :2.01295: L2-Pf-HR :0.91280: L2-HR :0.89517: (Sim:2h20m52s) 
CPU  0 inst:  562000002 cyc:  279172751 now IPC :2.06293: AVG IPC :2.01303: L2-Pf-HR :0.91277: L2-HR :0.89513: (Sim:2h21m0s) 
CPU  0 inst:  563000001 cyc:  279663015 now IPC :2.03972: AVG IPC :2.01308: L2-Pf-HR :0.91275: L2-HR :0.89510: (Sim:2h21m8s) 
CPU  0 inst:  564000000 cyc:  280157112 now IPC :2.02389: AVG IPC :2.01310: L2-Pf-HR :0.91272: L2-HR :0.89505: (Sim:2h21m15s) 
CPU  0 inst:  565000002 cyc:  280645475 now IPC :2.04766: AVG IPC :2.01316: L2-Pf-HR :0.91270: L2-HR :0.89502: (Sim:2h21m23s) 
CPU  0 inst:  566000004 cyc:  281135776 now IPC :2.03957: AVG IPC :2.01321: L2-Pf-HR :0.91268: L2-HR :0.89499: (Sim:2h21m31s) 
CPU  0 inst:  567000003 cyc:  281626920 now IPC :2.03606: AVG IPC :2.01325: L2-Pf-HR :0.91269: L2-HR :0.89497: (Sim:2h21m38s) 
CPU  0 inst:  568000004 cyc:  282263453 now IPC :1.57101: AVG IPC :2.01224: L2-Pf-HR :0.91264: L2-HR :0.89492: (Sim:2h21m46s) 
CPU  0 inst:  569000003 cyc:  282738790 now IPC :2.10377: AVG IPC :2.01240: L2-Pf-HR :0.91262: L2-HR :0.89488: (Sim:2h21m54s) 
CPU  0 inst:  570000005 cyc:  283209637 now IPC :2.12384: AVG IPC :2.01258: L2-Pf-HR :0.91260: L2-HR :0.89486: (Sim:2h22m1s) 
CPU  0 inst:  571000001 cyc:  283676363 now IPC :2.14258: AVG IPC :2.01280: L2-Pf-HR :0.91258: L2-HR :0.89483: (Sim:2h22m9s) 
CPU  0 inst:  572000000 cyc:  284148162 now IPC :2.11954: AVG IPC :2.01298: L2-Pf-HR :0.91256: L2-HR :0.89480: (Sim:2h22m16s) 
CPU  0 inst:  573000004 cyc:  284617631 now IPC :2.13007: AVG IPC :2.01317: L2-Pf-HR :0.91254: L2-HR :0.89477: (Sim:2h22m24s) 
CPU  0 inst:  574000000 cyc:  285086829 now IPC :2.13129: AVG IPC :2.01337: L2-Pf-HR :0.91254: L2-HR :0.89476: (Sim:2h22m31s) 
CPU  0 inst:  575000005 cyc:  285634061 now IPC :1.82739: AVG IPC :2.01301: L2-Pf-HR :0.91255: L2-HR :0.89475: (Sim:2h22m39s) 
CPU  0 inst:  576000005 cyc:  286132190 now IPC :2.00751: AVG IPC :2.01300: L2-Pf-HR :0.91258: L2-HR :0.89482: (Sim:2h22m47s) 
CPU  0 inst:  577000000 cyc:  286588385 now IPC :2.19203: AVG IPC :2.01329: L2-Pf-HR :0.91264: L2-HR :0.89493: (Sim:2h22m54s) 
CPU  0 inst:  578000005 cyc:  287044374 now IPC :2.19305: AVG IPC :2.01357: L2-Pf-HR :0.91271: L2-HR :0.89504: (Sim:2h23m1s) 
CPU  0 inst:  579000000 cyc:  287498705 now IPC :2.20103: AVG IPC :2.01387: L2-Pf-HR :0.91279: L2-HR :0.89516: (Sim:2h23m9s) 
CPU  0 inst:  580000002 cyc:  288074189 now IPC :1.73767: AVG IPC :2.01332: L2-Pf-HR :0.91285: L2-HR :0.89525: (Sim:2h23m17s) 
CPU  0 inst:  581000003 cyc:  288628115 now IPC :1.80530: AVG IPC :2.01291: L2-Pf-HR :0.91281: L2-HR :0.89519: (Sim:2h23m25s) 
CPU  0 inst:  582000000 cyc:  289112206 now IPC :2.06572: AVG IPC :2.01300: L2-Pf-HR :0.91278: L2-HR :0.89515: (Sim:2h23m34s) 
CPU  0 inst:  583000002 cyc:  289599614 now IPC :2.05167: AVG IPC :2.01307: L2-Pf-HR :0.91276: L2-HR :0.89511: (Sim:2h23m44s) 
CPU  0 inst:  584000004 cyc:  290088034 now IPC :2.04742: AVG IPC :2.01313: L2-Pf-HR :0.91273: L2-HR :0.89507: (Sim:2h23m51s) 
CPU  0 inst:  585000003 cyc:  290576710 now IPC :2.04634: AVG IPC :2.01318: L2-Pf-HR :0.91271: L2-HR :0.89504: (Sim:2h23m59s) 
CPU  0 inst:  586000001 cyc:  291067991 now IPC :2.03549: AVG IPC :2.01322: L2-Pf-HR :0.91269: L2-HR :0.89501: (Sim:2h24m6s) 
CPU  0 inst:  587000003 cyc:  291556938 now IPC :2.04522: AVG IPC :2.01327: L2-Pf-HR :0.91269: L2-HR :0.89499: (Sim:2h24m14s) 
CPU  0 inst:  588000005 cyc:  292194235 now IPC :1.56913: AVG IPC :2.01230: L2-Pf-HR :0.91264: L2-HR :0.89493: (Sim:2h24m22s) 
CPU  0 inst:  589000003 cyc:  292668285 now IPC :2.10948: AVG IPC :2.01246: L2-Pf-HR :0.91263: L2-HR :0.89490: (Sim:2h24m30s) 
CPU  0 inst:  590000002 cyc:  293140141 now IPC :2.11929: AVG IPC :2.01263: L2-Pf-HR :0.91261: L2-HR :0.89488: (Sim:2h24m37s) 
CPU  0 inst:  591000004 cyc:  293609879 now IPC :2.12885: AVG IPC :2.01282: L2-Pf-HR :0.91260: L2-HR :0.89485: (Sim:2h24m45s) 
CPU  0 inst:  592000001 cyc:  294080628 now IPC :2.12427: AVG IPC :2.01300: L2-Pf-HR :0.91259: L2-HR :0.89483: (Sim:2h24m53s) 
CPU  0 inst:  593000002 cyc:  294551630 now IPC :2.12314: AVG IPC :2.01318: L2-Pf-HR :0.91257: L2-HR :0.89481: (Sim:2h25m6s) 
CPU  0 inst:  594000000 cyc:  295019789 now IPC :2.13602: AVG IPC :2.01337: L2-Pf-HR :0.91257: L2-HR :0.89479: (Sim:2h25m23s) 
CPU  0 inst:  595000001 cyc:  295567509 now IPC :1.82575: AVG IPC :2.01302: L2-Pf-HR :0.91258: L2-HR :0.89478: (Sim:2h25m41s) 
CPU  0 inst:  596000003 cyc:  296059137 now IPC :2.03406: AVG IPC :2.01306: L2-Pf-HR :0.91260: L2-HR :0.89485: (Sim:2h25m50s) 
CPU  0 inst:  597000001 cyc:  296516493 now IPC :2.18648: AVG IPC :2.01333: L2-Pf-HR :0.91266: L2-HR :0.89495: (Sim:2h25m57s) 
CPU  0 inst:  598000005 cyc:  296970802 now IPC :2.20115: AVG IPC :2.01361: L2-Pf-HR :0.91273: L2-HR :0.89506: (Sim:2h26m5s) 
CPU  0 inst:  599000005 cyc:  297427631 now IPC :2.18900: AVG IPC :2.01388: L2-Pf-HR :0.91281: L2-HR :0.89517: (Sim:2h26m13s) 
CPU  0 inst:  600000002 cyc:  298008250 now IPC :1.72229: AVG IPC :2.01331: L2-Pf-HR :0.91287: L2-HR :0.89526: (Sim:2h26m21s) 
CPU  0 inst:  601000002 cyc:  298563342 now IPC :1.80150: AVG IPC :2.01292: L2-Pf-HR :0.91283: L2-HR :0.89520: (Sim:2h26m29s) 
CPU  0 inst:  602000003 cyc:  299047164 now IPC :2.06688: AVG IPC :2.01301: L2-Pf-HR :0.91281: L2-HR :0.89517: (Sim:2h26m37s) 
CPU  0 inst:  603000004 cyc:  299539330 now IPC :2.03184: AVG IPC :2.01304: L2-Pf-HR :0.91279: L2-HR :0.89514: (Sim:2h26m45s) 
CPU  0 inst:  604000001 cyc:  300033066 now IPC :2.02537: AVG IPC :2.01306: L2-Pf-HR :0.91277: L2-HR :0.89511: (Sim:2h26m52s) 
CPU  0 inst:  605000002 cyc:  300521728 now IPC :2.04641: AVG IPC :2.01311: L2-Pf-HR :0.91275: L2-HR :0.89507: (Sim:2h27m0s) 
CPU  0 inst:  606000003 cyc:  301015099 now IPC :2.02687: AVG IPC :2.01313: L2-Pf-HR :0.91274: L2-HR :0.89505: (Sim:2h27m8s) 
CPU  0 inst:  607000002 cyc:  301507130 now IPC :2.03239: AVG IPC :2.01317: L2-Pf-HR :0.91275: L2-HR :0.89503: (Sim:2h27m16s) 
CPU  0 inst:  608000000 cyc:  302143021 now IPC :1.57259: AVG IPC :2.01224: L2-Pf-HR :0.91270: L2-HR :0.89497: (Sim:2h27m24s) 
CPU  0 inst:  609000002 cyc:  302615299 now IPC :2.11740: AVG IPC :2.01240: L2-Pf-HR :0.91268: L2-HR :0.89494: (Sim:2h27m31s) 
CPU  0 inst:  610000001 cyc:  303087853 now IPC :2.11616: AVG IPC :2.01256: L2-Pf-HR :0.91266: L2-HR :0.89492: (Sim:2h27m39s) 
CPU  0 inst:  611000003 cyc:  303559333 now IPC :2.12099: AVG IPC :2.01273: L2-Pf-HR :0.91265: L2-HR :0.89489: (Sim:2h27m47s) 
CPU  0 inst:  612000000 cyc:  304029828 now IPC :2.12541: AVG IPC :2.01291: L2-Pf-HR :0.91264: L2-HR :0.89487: (Sim:2h27m54s) 
CPU  0 inst:  613000000 cyc:  304501308 now IPC :2.12098: AVG IPC :2.01307: L2-Pf-HR :0.91262: L2-HR :0.89485: (Sim:2h28m2s) 
CPU  0 inst:  614000004 cyc:  304972798 now IPC :2.12094: AVG IPC :2.01324: L2-Pf-HR :0.91263: L2-HR :0.89484: (Sim:2h28m9s) 
CPU  0 inst:  615000005 cyc:  305524527 now IPC :1.81249: AVG IPC :2.01288: L2-Pf-HR :0.91262: L2-HR :0.89482: (Sim:2h28m17s) 
CPU  0 inst:  616000000 cyc:  306011213 now IPC :2.05470: AVG IPC :2.01295: L2-Pf-HR :0.91265: L2-HR :0.89489: (Sim:2h28m25s) 
CPU  0 inst:  617000000 cyc:  306468844 now IPC :2.18517: AVG IPC :2.01320: L2-Pf-HR :0.91271: L2-HR :0.89499: (Sim:2h28m32s) 
CPU  0 inst:  618000004 cyc:  306923650 now IPC :2.19875: AVG IPC :2.01348: L2-Pf-HR :0.91277: L2-HR :0.89509: (Sim:2h28m40s) 
CPU  0 inst:  619000000 cyc:  307384670 now IPC :2.16909: AVG IPC :2.01371: L2-Pf-HR :0.91285: L2-HR :0.89520: (Sim:2h28m47s) 
CPU  0 inst:  620000004 cyc:  307966401 now IPC :1.71901: AVG IPC :2.01315: L2-Pf-HR :0.91291: L2-HR :0.89528: (Sim:2h29m5s) 
CPU  0 inst:  621000003 cyc:  308515358 now IPC :1.82163: AVG IPC :2.01281: L2-Pf-HR :0.91287: L2-HR :0.89523: (Sim:2h29m22s) 
CPU  0 inst:  622000003 cyc:  309003149 now IPC :2.05006: AVG IPC :2.01287: L2-Pf-HR :0.91285: L2-HR :0.89519: (Sim:2h29m39s) 
CPU  0 inst:  623000003 cyc:  309490554 now IPC :2.05168: AVG IPC :2.01293: L2-Pf-HR :0.91282: L2-HR :0.89516: (Sim:2h29m56s) 
CPU  0 inst:  624000004 cyc:  309981830 now IPC :2.03552: AVG IPC :2.01297: L2-Pf-HR :0.91281: L2-HR :0.89513: (Sim:2h30m13s) 
[...]
CPU  0 inst: 1502000002 cyc: 1682610439 now IPC :1.74450: AVG IPC :0.89199: L2-Pf-HR :0.91991: L2-HR :0.89208: (Sim:7h18m34s) 
CPU  0 inst: 1503000003 cyc: 1683060548 now IPC :2.22169: AVG IPC :0.89235: L2-Pf-HR :0.91995: L2-HR :0.89214: (Sim:7h18m42s) 
CPU  0 inst: 1504000001 cyc: 1683653473 now IPC :1.68655: AVG IPC :0.89263: L2-Pf-HR :0.91997: L2-HR :0.89217: (Sim:7h18m50s) 
CPU  0 inst: 1505000002 cyc: 1684192092 now IPC :1.85660: AVG IPC :0.89294: L2-Pf-HR :0.92000: L2-HR :0.89222: (Sim:7h18m58s) 
CPU  0 inst: 1506000002 cyc: 1684746671 now IPC :1.80317: AVG IPC :0.89324: L2-Pf-HR :0.92002: L2-HR :0.89225: (Sim:7h19m6s) 
CPU  0 inst: 1507000003 cyc: 1685197334 now IPC :2.21896: AVG IPC :0.89359: L2-Pf-HR :0.92006: L2-HR :0.89230: (Sim:7h19m13s) 
CPU  0 inst: 1508000005 cyc: 1685769084 now IPC :1.74902: AVG IPC :0.89388: L2-Pf-HR :0.92008: L2-HR :0.89234: (Sim:7h19m21s) 
CPU  0 inst: 1509000004 cyc: 1686279587 now IPC :1.95885: AVG IPC :0.89421: L2-Pf-HR :0.92012: L2-HR :0.89239: (Sim:7h19m29s) 
CPU  0 inst: 1510000004 cyc: 1686788674 now IPC :1.96430: AVG IPC :0.89453: L2-Pf-HR :0.92016: L2-HR :0.89244: (Sim:7h19m38s) 
CPU  0 inst: 1511000001 cyc: 1687332014 now IPC :1.84046: AVG IPC :0.89483: L2-Pf-HR :0.92020: L2-HR :0.89249: (Sim:7h19m57s) 
CPU  0 inst: 1512000002 cyc: 1688012613 now IPC :1.46930: AVG IPC :0.89507: L2-Pf-HR :0.92019: L2-HR :0.89248: (Sim:7h20m17s) 
CPU  0 inst: 1513000001 cyc: 1688537549 now IPC :1.90499: AVG IPC :0.89538: L2-Pf-HR :0.92022: L2-HR :0.89254: (Sim:7h20m35s) 
CPU  0 inst: 1514000001 cyc: 1689103449 now IPC :1.76710: AVG IPC :0.89567: L2-Pf-HR :0.92022: L2-HR :0.89255: (Sim:7h20m52s) 
CPU  0 inst: 1515000004 cyc: 1689683161 now IPC :1.72500: AVG IPC :0.89596: L2-Pf-HR :0.92025: L2-HR :0.89259: (Sim:7h21m10s) 
CPU  0 inst: 1516000002 cyc: 1690288441 now IPC :1.65212: AVG IPC :0.89623: L2-Pf-HR :0.92025: L2-HR :0.89260: (Sim:7h21m29s) 
CPU  0 inst: 1517000004 cyc: 1690751149 now IPC :2.16119: AVG IPC :0.89657: L2-Pf-HR :0.92029: L2-HR :0.89266: (Sim:7h21m46s) 
CPU  0 inst: 1518000000 cyc: 1691339506 now IPC :1.69964: AVG IPC :0.89685: L2-Pf-HR :0.92030: L2-HR :0.89268: (Sim:7h22m4s) 
CPU  0 inst: 1519000005 cyc: 1691879750 now IPC :1.85102: AVG IPC :0.89716: L2-Pf-HR :0.92033: L2-HR :0.89273: (Sim:7h22m20s) 
CPU  0 inst: 1520000000 cyc: 1692465060 now IPC :1.70849: AVG IPC :0.89744: L2-Pf-HR :0.92034: L2-HR :0.89275: (Sim:7h22m28s) 
CPU  0 inst: 1521000002 cyc: 1692916604 now IPC :2.21463: AVG IPC :0.89779: L2-Pf-HR :0.92039: L2-HR :0.89281: (Sim:7h22m38s) 
CPU  0 inst: 1522000001 cyc: 1693509970 now IPC :1.68530: AVG IPC :0.89807: L2-Pf-HR :0.92041: L2-HR :0.89284: (Sim:7h22m57s) 
CPU  0 inst: 1523000001 cyc: 1694045587 now IPC :1.86701: AVG IPC :0.89837: L2-Pf-HR :0.92044: L2-HR :0.89289: (Sim:7h23m15s) 
CPU  0 inst: 1524000003 cyc: 1694629393 now IPC :1.71290: AVG IPC :0.89865: L2-Pf-HR :0.92045: L2-HR :0.89291: (Sim:7h23m34s) 
CPU  0 inst: 1525000000 cyc: 1695081270 now IPC :2.21299: AVG IPC :0.89900: L2-Pf-HR :0.92049: L2-HR :0.89297: (Sim:7h23m51s) 
CPU  0 inst: 1526000001 cyc: 1695676567 now IPC :1.67984: AVG IPC :0.89928: L2-Pf-HR :0.92051: L2-HR :0.89299: (Sim:7h24m10s) 
CPU  0 inst: 1527000000 cyc: 1696184468 now IPC :1.96889: AVG IPC :0.89960: L2-Pf-HR :0.92055: L2-HR :0.89305: (Sim:7h24m28s) 
CPU  0 inst: 1528000004 cyc: 1696684161 now IPC :2.00124: AVG IPC :0.89992: L2-Pf-HR :0.92059: L2-HR :0.89310: (Sim:7h24m45s) 
CPU  0 inst: 1529000002 cyc: 1697218607 now IPC :1.87109: AVG IPC :0.90023: L2-Pf-HR :0.92060: L2-HR :0.89313: (Sim:7h25m4s) 
CPU  0 inst: 1530000003 cyc: 1697791608 now IPC :1.74520: AVG IPC :0.90052: L2-Pf-HR :0.92062: L2-HR :0.89316: (Sim:7h25m22s) 
CPU  0 inst: 1531000002 cyc: 1698246266 now IPC :2.19945: AVG IPC :0.90086: L2-Pf-HR :0.92067: L2-HR :0.89323: (Sim:7h25m39s) 
CPU  0 inst: 1532000004 cyc: 1698761649 now IPC :1.94031: AVG IPC :0.90118: L2-Pf-HR :0.92070: L2-HR :0.89327: (Sim:7h25m57s) 
CPU  0 inst: 1533000003 cyc: 1699350997 now IPC :1.69679: AVG IPC :0.90145: L2-Pf-HR :0.92074: L2-HR :0.89331: (Sim:7h26m17s) 
CPU  0 inst: 1534000002 cyc: 1700021565 now IPC :1.49127: AVG IPC :0.90169: L2-Pf-HR :0.92073: L2-HR :0.89331: (Sim:7h26m38s) 
CPU  0 inst: 1535000002 cyc: 1700496740 now IPC :2.10449: AVG IPC :0.90202: L2-Pf-HR :0.92077: L2-HR :0.89336: (Sim:7h26m55s) 
CPU  0 inst: 1536000005 cyc: 1701115167 now IPC :1.61701: AVG IPC :0.90228: L2-Pf-HR :0.92077: L2-HR :0.89337: (Sim:7h27m13s) 
CPU  0 inst: 1537000002 cyc: 1701693482 now IPC :1.72916: AVG IPC :0.90257: L2-Pf-HR :0.92079: L2-HR :0.89341: (Sim:7h27m31s) 
CPU  0 inst: 1538000001 cyc: 1702307545 now IPC :1.62850: AVG IPC :0.90283: L2-Pf-HR :0.92079: L2-HR :0.89342: (Sim:7h27m51s) 
CPU  0 inst: 1539000005 cyc: 1702758875 now IPC :2.21568: AVG IPC :0.90318: L2-Pf-HR :0.92083: L2-HR :0.89348: (Sim:7h28m8s) 
CPU  0 inst: 1540000000 cyc: 1703365743 now IPC :1.64780: AVG IPC :0.90344: L2-Pf-HR :0.92084: L2-HR :0.89350: (Sim:7h28m27s) 
CPU  0 inst: 1541000004 cyc: 1703910060 now IPC :1.83717: AVG IPC :0.90374: L2-Pf-HR :0.92087: L2-HR :0.89355: (Sim:7h28m44s) 
CPU  0 inst: 1542000004 cyc: 1704507306 now IPC :1.67435: AVG IPC :0.90401: L2-Pf-HR :0.92088: L2-HR :0.89357: (Sim:7h29m4s) 
CPU  0 inst: 1543000001 cyc: 1704958694 now IPC :2.21538: AVG IPC :0.90436: L2-Pf-HR :0.92092: L2-HR :0.89362: (Sim:7h29m21s) 
CPU  0 inst: 1544000005 cyc: 1705546912 now IPC :1.70006: AVG IPC :0.90463: L2-Pf-HR :0.92092: L2-HR :0.89364: (Sim:7h29m40s) 
CPU  0 inst: 1545000001 cyc: 1706045726 now IPC :2.00475: AVG IPC :0.90495: L2-Pf-HR :0.92097: L2-HR :0.89370: (Sim:7h29m57s) 
CPU  0 inst: 1546000000 cyc: 1706547000 now IPC :1.99492: AVG IPC :0.90527: L2-Pf-HR :0.92101: L2-HR :0.89375: (Sim:7h30m15s) 
CPU  0 inst: 1547000005 cyc: 1707134060 now IPC :1.70341: AVG IPC :0.90555: L2-Pf-HR :0.92100: L2-HR :0.89376: (Sim:7h30m34s) 
CPU  0 inst: 1548000000 cyc: 1707727320 now IPC :1.68559: AVG IPC :0.90582: L2-Pf-HR :0.92101: L2-HR :0.89378: (Sim:7h30m52s) 
CPU  0 inst: 1549000000 cyc: 1708182840 now IPC :2.19529: AVG IPC :0.90616: L2-Pf-HR :0.92106: L2-HR :0.89384: (Sim:7h31m9s) 
CPU  0 inst: 1550000004 cyc: 1708709389 now IPC :1.89917: AVG IPC :0.90647: L2-Pf-HR :0.92108: L2-HR :0.89388: (Sim:7h31m27s) 
CPU  0 inst: 1551000000 cyc: 1709275443 now IPC :1.76661: AVG IPC :0.90675: L2-Pf-HR :0.92109: L2-HR :0.89390: (Sim:7h31m46s) 
CPU  0 inst: 1552000003 cyc: 1709837195 now IPC :1.78015: AVG IPC :0.90704: L2-Pf-HR :0.92111: L2-HR :0.89393: (Sim:7h32m4s) 
CPU  0 inst: 1553000005 cyc: 1710281928 now IPC :2.24854: AVG IPC :0.90739: L2-Pf-HR :0.92116: L2-HR :0.89400: (Sim:7h32m21s) 
CPU  0 inst: 1554000004 cyc: 1710808434 now IPC :1.89931: AVG IPC :0.90770: L2-Pf-HR :0.92120: L2-HR :0.89405: (Sim:7h32m39s) 
CPU  0 inst: 1555000001 cyc: 1711397692 now IPC :1.69704: AVG IPC :0.90797: L2-Pf-HR :0.92123: L2-HR :0.89408: (Sim:7h32m59s) 
CPU  0 inst: 1556000000 cyc: 1712073620 now IPC :1.47945: AVG IPC :0.90819: L2-Pf-HR :0.92122: L2-HR :0.89408: (Sim:7h33m19s) 
CPU  0 inst: 1557000002 cyc: 1712546700 now IPC :2.11381: AVG IPC :0.90853: L2-Pf-HR :0.92126: L2-HR :0.89413: (Sim:7h33m36s) 
CPU  0 inst: 1558000000 cyc: 1713172336 now IPC :1.59837: AVG IPC :0.90878: L2-Pf-HR :0.92126: L2-HR :0.89414: (Sim:7h33m55s) 
CPU  0 inst: 1559000003 cyc: 1713739691 now IPC :1.76257: AVG IPC :0.90906: L2-Pf-HR :0.92128: L2-HR :0.89418: (Sim:7h34m12s) 
CPU  0 inst: 1560000005 cyc: 1714333928 now IPC :1.68283: AVG IPC :0.90933: L2-Pf-HR :0.92128: L2-HR :0.89419: (Sim:7h34m31s) 
CPU  0 inst: 1561000001 cyc: 1714789350 now IPC :2.19576: AVG IPC :0.90967: L2-Pf-HR :0.92132: L2-HR :0.89425: (Sim:7h34m49s) 
CPU  0 inst: 1562000002 cyc: 1715391257 now IPC :1.66139: AVG IPC :0.90994: L2-Pf-HR :0.92134: L2-HR :0.89427: (Sim:7h35m7s) 
CPU  0 inst: 1563000004 cyc: 1715880237 now IPC :2.04508: AVG IPC :0.91026: L2-Pf-HR :0.92139: L2-HR :0.89433: (Sim:7h35m24s) 
CPU  0 inst: 1564000004 cyc: 1716392563 now IPC :1.95188: AVG IPC :0.91057: L2-Pf-HR :0.92142: L2-HR :0.89438: (Sim:7h35m42s) 
CPU  0 inst: 1565000001 cyc: 1716983298 now IPC :1.69280: AVG IPC :0.91084: L2-Pf-HR :0.92142: L2-HR :0.89439: (Sim:7h36m2s) 
CPU  0 inst: 1566000002 cyc: 1717591983 now IPC :1.64289: AVG IPC :0.91110: L2-Pf-HR :0.92142: L2-HR :0.89441: (Sim:7h36m20s) 
CPU  0 inst: 1567000004 cyc: 1718044347 now IPC :2.21061: AVG IPC :0.91144: L2-Pf-HR :0.92147: L2-HR :0.89447: (Sim:7h36m37s) 
CPU  0 inst: 1568000002 cyc: 1718580184 now IPC :1.86624: AVG IPC :0.91174: L2-Pf-HR :0.92150: L2-HR :0.89451: (Sim:7h36m55s) 
CPU  0 inst: 1569000000 cyc: 1719176645 now IPC :1.67655: AVG IPC :0.91201: L2-Pf-HR :0.92150: L2-HR :0.89452: (Sim:7h37m14s) 
CPU  0 inst: 1570000001 cyc: 1719770070 now IPC :1.68513: AVG IPC :0.91227: L2-Pf-HR :0.92151: L2-HR :0.89455: (Sim:7h37m32s) 
CPU  0 inst: 1571000002 cyc: 1720212859 now IPC :2.25841: AVG IPC :0.91262: L2-Pf-HR :0.92155: L2-HR :0.89460: (Sim:7h37m48s) 
CPU  0 inst: 1572000000 cyc: 1720755457 now IPC :1.84298: AVG IPC :0.91291: L2-Pf-HR :0.92158: L2-HR :0.89465: (Sim:7h38m5s) 
CPU  0 inst: 1573000004 cyc: 1721315327 now IPC :1.78614: AVG IPC :0.91320: L2-Pf-HR :0.92160: L2-HR :0.89467: (Sim:7h38m22s) 
CPU  0 inst: 1574000005 cyc: 1721883397 now IPC :1.76035: AVG IPC :0.91348: L2-Pf-HR :0.92162: L2-HR :0.89471: (Sim:7h38m39s) 
CPU  0 inst: 1575000005 cyc: 1722327705 now IPC :2.25069: AVG IPC :0.91382: L2-Pf-HR :0.92166: L2-HR :0.89476: (Sim:7h38m55s) 
CPU  0 inst: 1576000001 cyc: 1722853947 now IPC :1.90026: AVG IPC :0.91412: L2-Pf-HR :0.92170: L2-HR :0.89480: (Sim:7h39m12s) 
CPU  0 inst: 1577000001 cyc: 1723394017 now IPC :1.85161: AVG IPC :0.91442: L2-Pf-HR :0.92174: L2-HR :0.89485: (Sim:7h39m30s) 
CPU  0 inst: 1578000003 cyc: 1724074300 now IPC :1.46998: AVG IPC :0.91464: L2-Pf-HR :0.92174: L2-HR :0.89486: (Sim:7h39m48s) 
CPU  0 inst: 1579000003 cyc: 1724577229 now IPC :1.98835: AVG IPC :0.91495: L2-Pf-HR :0.92176: L2-HR :0.89489: (Sim:7h40m5s) 
CPU  0 inst: 1580000000 cyc: 1725224705 now IPC :1.54445: AVG IPC :0.91519: L2-Pf-HR :0.92176: L2-HR :0.89490: (Sim:7h40m22s) 
CPU  0 inst: 1581000000 cyc: 1725715960 now IPC :2.03560: AVG IPC :0.91551: L2-Pf-HR :0.92180: L2-HR :0.89496: (Sim:7h40m38s) 
CPU  0 inst: 1582000005 cyc: 1726277363 now IPC :1.78126: AVG IPC :0.91579: L2-Pf-HR :0.92182: L2-HR :0.89499: (Sim:7h40m55s) 
CPU  0 inst: 1583000005 cyc: 1726875182 now IPC :1.67275: AVG IPC :0.91605: L2-Pf-HR :0.92182: L2-HR :0.89499: (Sim:7h41m14s) 
CPU  0 inst: 1584000000 cyc: 1727486328 now IPC :1.63626: AVG IPC :0.91630: L2-Pf-HR :0.92182: L2-HR :0.89501: (Sim:7h41m31s) 
CPU  0 inst: 1585000000 cyc: 1727938999 now IPC :2.20911: AVG IPC :0.91664: L2-Pf-HR :0.92187: L2-HR :0.89507: (Sim:7h41m46s) 
CPU  0 inst: 1586000003 cyc: 1728481731 now IPC :1.84254: AVG IPC :0.91693: L2-Pf-HR :0.92189: L2-HR :0.89510: (Sim:7h42m2s) 
CPU  0 inst: 1587000005 cyc: 1729060232 now IPC :1.72861: AVG IPC :0.91721: L2-Pf-HR :0.92190: L2-HR :0.89512: (Sim:7h42m21s) 
CPU  0 inst: 1588000000 cyc: 1729668883 now IPC :1.64297: AVG IPC :0.91746: L2-Pf-HR :0.92190: L2-HR :0.89514: (Sim:7h42m39s) 
CPU  0 inst: 1589000004 cyc: 1730114638 now IPC :2.24339: AVG IPC :0.91780: L2-Pf-HR :0.92194: L2-HR :0.89519: (Sim:7h42m54s) 
CPU  0 inst: 1590000000 cyc: 1730664764 now IPC :1.81776: AVG IPC :0.91809: L2-Pf-HR :0.92197: L2-HR :0.89523: (Sim:7h43m11s) 
CPU  0 inst: 1591000003 cyc: 1731259476 now IPC :1.68149: AVG IPC :0.91835: L2-Pf-HR :0.92197: L2-HR :0.89525: (Sim:7h43m30s) 
CPU  0 inst: 1592000003 cyc: 1731841521 now IPC :1.71808: AVG IPC :0.91862: L2-Pf-HR :0.92199: L2-HR :0.89528: (Sim:7h43m48s) 
CPU  0 inst: 1593000005 cyc: 1732288928 now IPC :2.23511: AVG IPC :0.91896: L2-Pf-HR :0.92203: L2-HR :0.89532: (Sim:7h44m4s) 
CPU  0 inst: 1594000002 cyc: 1732836069 now IPC :1.82768: AVG IPC :0.91925: L2-Pf-HR :0.92206: L2-HR :0.89536: (Sim:7h44m19s) 
CPU  0 inst: 1595000005 cyc: 1733407995 now IPC :1.74848: AVG IPC :0.91952: L2-Pf-HR :0.92207: L2-HR :0.89539: (Sim:7h44m37s) 
CPU  0 inst: 1596000005 cyc: 1733875420 now IPC :2.13938: AVG IPC :0.91985: L2-Pf-HR :0.92212: L2-HR :0.89545: (Sim:7h44m54s) 
CPU  0 inst: 1597000002 cyc: 1734417385 now IPC :1.84513: AVG IPC :0.92014: L2-Pf-HR :0.92214: L2-HR :0.89548: (Sim:7h45m11s) 
CPU  0 inst: 1598000003 cyc: 1734942669 now IPC :1.90373: AVG IPC :0.92044: L2-Pf-HR :0.92217: L2-HR :0.89552: (Sim:7h45m27s) 
CPU  0 inst: 1599000000 cyc: 1735465375 now IPC :1.91312: AVG IPC :0.92074: L2-Pf-HR :0.92221: L2-HR :0.89557: (Sim:7h45m45s) 
CPU  0 inst: 1600000004 cyc: 1736018176 now IPC :1.80898: AVG IPC :0.92102: L2-Pf-HR :0.92225: L2-HR :0.89561: (Sim:7h46m2s) 
CPU  0 inst: 1601000000 cyc: 1736668426 now IPC :1.53786: AVG IPC :0.92125: L2-Pf-HR :0.92223: L2-HR :0.89560: (Sim:7h46m20s) 
CPU  0 inst: 1602000002 cyc: 1737324357 now IPC :1.52455: AVG IPC :0.92148: L2-Pf-HR :0.92223: L2-HR :0.89561: (Sim:7h46m37s) 
CPU  0 inst: 1603000004 cyc: 1737787551 now IPC :2.15893: AVG IPC :0.92181: L2-Pf-HR :0.92227: L2-HR :0.89566: (Sim:7h46m53s) 
CPU  0 inst: 1604000000 cyc: 1738352235 now IPC :1.77089: AVG IPC :0.92209: L2-Pf-HR :0.92228: L2-HR :0.89569: (Sim:7h47m10s) 
CPU  0 inst: 1605000000 cyc: 1738924054 now IPC :1.74881: AVG IPC :0.92236: L2-Pf-HR :0.92230: L2-HR :0.89571: (Sim:7h47m29s) 
CPU  0 inst: 1606000003 cyc: 1739523025 now IPC :1.66953: AVG IPC :0.92261: L2-Pf-HR :0.92230: L2-HR :0.89573: (Sim:7h47m45s) 
CPU  0 inst: 1607000003 cyc: 1739967580 now IPC :2.24944: AVG IPC :0.92295: L2-Pf-HR :0.92235: L2-HR :0.89579: (Sim:7h48m1s) 
CPU  0 inst: 1608000001 cyc: 1740511626 now IPC :1.83808: AVG IPC :0.92324: L2-Pf-HR :0.92237: L2-HR :0.89582: (Sim:7h48m18s) 
CPU  0 inst: 1609000004 cyc: 1741098883 now IPC :1.70284: AVG IPC :0.92350: L2-Pf-HR :0.92237: L2-HR :0.89584: (Sim:7h48m36s) 
CPU  0 inst: 1610000002 cyc: 1741688413 now IPC :1.69626: AVG IPC :0.92376: L2-Pf-HR :0.92239: L2-HR :0.89587: (Sim:7h48m54s) 
CPU  0 inst: 1611000001 cyc: 1742140018 now IPC :2.21432: AVG IPC :0.92410: L2-Pf-HR :0.92242: L2-HR :0.89591: (Sim:7h49m10s) 
CPU  0 inst: 1612000002 cyc: 1742681795 now IPC :1.84578: AVG IPC :0.92439: L2-Pf-HR :0.92245: L2-HR :0.89595: (Sim:7h49m27s) 
CPU  0 inst: 1613000002 cyc: 1743251965 now IPC :1.75386: AVG IPC :0.92466: L2-Pf-HR :0.92246: L2-HR :0.89597: (Sim:7h49m44s) 
CPU  0 inst: 1614000002 cyc: 1743722545 now IPC :2.12504: AVG IPC :0.92498: L2-Pf-HR :0.92251: L2-HR :0.89603: (Sim:7h50m1s) 
CPU  0 inst: 1615000003 cyc: 1744306008 now IPC :1.71391: AVG IPC :0.92525: L2-Pf-HR :0.92251: L2-HR :0.89604: (Sim:7h50m18s) 
CPU  0 inst: 1616000005 cyc: 1744851269 now IPC :1.83399: AVG IPC :0.92553: L2-Pf-HR :0.92253: L2-HR :0.89608: (Sim:7h50m35s) 
CPU  0 inst: 1617000001 cyc: 1745426180 now IPC :1.73939: AVG IPC :0.92580: L2-Pf-HR :0.92255: L2-HR :0.89610: (Sim:7h50m54s) 
CPU  0 inst: 1618000001 cyc: 1745877044 now IPC :2.21796: AVG IPC :0.92613: L2-Pf-HR :0.92259: L2-HR :0.89616: (Sim:7h51m10s) 
CPU  0 inst: 1619000003 cyc: 1746439000 now IPC :1.77950: AVG IPC :0.92641: L2-Pf-HR :0.92260: L2-HR :0.89618: (Sim:7h51m26s) 
Finished CPU 0 instr: 1617000002 cyc: 1745453477 AVG IPC: 0.92641 (Sim time: 7h51m26s)

ChampSim completed all CPUs

[ROI Statistics]
Core_0_instructions 1617000002
Core_0_cycles 1745453477
Core_0_IPC 0.92641

Core_0_branch_prediction_accuracy 99.26547
Core_0_branch_MPKI 0.21633
Core_0_average_ROB_occupancy_at_mispredict 611.14963

Core_0_L1D_total_access 938898617
Core_0_L1D_total_hit 900402765 L1D_total_Hit Ratio: 0.95900
Core_0_L1D_total_miss 38495852
Core_0_L1D_loads 349845603
Core_0_L1D_load_hit 329277370 L1D_load_Hit Ratio: 0.94121
Core_0_L1D_load_miss 20568233
Core_0_L1D_RFOs 43547247
Core_0_L1D_RFO_hit 40540962 L1D_RFO_Hit Ratio: 0.93096
Core_0_L1D_RFO_miss 3006285
Core_0_L1D_prefetches 545505767
Core_0_L1D_prefetch_hit 530584433 L1D_prefetch_Hit Ratio: 0.97265
Core_0_L1D_prefetch_miss 14921334
Core_0_L1D_writebacks 0
Core_0_L1D_writeback_hit 0 L1D_writeback_Hit Ratio: -nan
Core_0_L1D_writeback_miss 0
Core_0_L1D_prefetch_requested 1059190818
Core_0_L1D_prefetch_issued 648111483
Core_0_L1D_prefetch_useful 10812048 L1D_Useful Ratio: 0.01668
Core_0_L1D_prefetch_useless 4129249
Core_0_L1D_prefetch_late 2924437
Core_0_L1D_average_miss_latency 77753509.65042

Core_0_L1I_total_access 230566923
Core_0_L1I_total_hit 230562024 L1I_total_Hit Ratio: 0.99998
Core_0_L1I_total_miss 4899
Core_0_L1I_loads 230566923
Core_0_L1I_load_hit 230562024 L1I_load_Hit Ratio: 0.99998
Core_0_L1I_load_miss 4899
Core_0_L1I_RFOs 0
Core_0_L1I_RFO_hit 0 L1I_RFO_Hit Ratio: -nan
Core_0_L1I_RFO_miss 0
Core_0_L1I_prefetches 0
Core_0_L1I_prefetch_hit 0 L1I_prefetch_Hit Ratio: -nan
Core_0_L1I_prefetch_miss 0
Core_0_L1I_writebacks 0
Core_0_L1I_writeback_hit 0 L1I_writeback_Hit Ratio: -nan
Core_0_L1I_writeback_miss 0
Core_0_L1I_prefetch_requested 0
Core_0_L1I_prefetch_issued 0
Core_0_L1I_prefetch_useful 0 L1I_Useful Ratio: -nan
Core_0_L1I_prefetch_useless 0
Core_0_L1I_prefetch_late 0
Core_0_L1I_average_miss_latency 334.92080

Core_0_L2C_total_access 169245847
Core_0_L2C_total_hit 151674471 L2C_total_Hit Ratio: 0.89618
Core_0_L2C_total_miss 17571376
Core_0_L2C_loads 17649733
Core_0_L2C_load_hit 12753936 L2C_load_Hit Ratio: 0.72261
Core_0_L2C_load_miss 4895797
Core_0_L2C_RFOs 3006217
Core_0_L2C_RFO_hit 993213 L2C_RFO_Hit Ratio: 0.33039
Core_0_L2C_RFO_miss 2013004
Core_0_L2C_prefetches 137641971
Core_0_L2C_prefetch_hit 126988465 L2C_prefetch_Hit Ratio: 0.92260
Core_0_L2C_prefetch_miss 10653506
Core_0_L2C_writebacks 10947926
Core_0_L2C_writeback_hit 10938857 L2C_writeback_Hit Ratio: 0.99917
Core_0_L2C_writeback_miss 9069
Core_0_L2C_prefetch_requested 301725273
Core_0_L2C_prefetch_issued 177301299
Core_0_L2C_prefetch_useful 2232983 L2C_Useful Ratio: 0.01259
Core_0_L2C_prefetch_useless 8438544
Core_0_L2C_prefetch_late 1740770
Core_0_L2C_average_miss_latency 263.45183

Core_0_LLC_total_access 25761385
Core_0_LLC_total_hit 13093914 LLC_total_Hit Ratio: 0.50828
Core_0_LLC_total_miss 12667471
Core_0_LLC_loads 3155034
Core_0_LLC_load_hit 1921024 LLC_load_Hit Ratio: 0.60888
Core_0_LLC_load_miss 1234010
Core_0_LLC_RFOs 2012999
Core_0_LLC_RFO_hit 10996 LLC_RFO_Hit Ratio: 0.00546
Core_0_LLC_RFO_miss 2002003
Core_0_LLC_prefetches 12543927
Core_0_LLC_prefetch_hit 3271811 LLC_prefetch_Hit Ratio: 0.26083
Core_0_LLC_prefetch_miss 9272116
Core_0_LLC_writebacks 8049425
Core_0_LLC_writeback_hit 7890083 LLC_writeback_Hit Ratio: 0.98020
Core_0_LLC_writeback_miss 159342
Core_0_LLC_prefetch_requested 0
Core_0_LLC_prefetch_issued 0
Core_0_LLC_prefetch_useful 1455709 LLC_Useful Ratio: inf
Core_0_LLC_prefetch_useless 7801156
Core_0_LLC_prefetch_late 58656
Core_0_LLC_average_miss_latency 333.92854

Core_0_major_page_fault 0
Core_0_minor_page_fault 76848

CPU 0 L1D next line prefetcher final stats
CPU 0 L2C PC-based stride prefetcher final stats
Stride Degree: 15
MK1  MARKOV_LRU_SIZE: 128
MK1  MARKOV_PREDICTION_PERCENTTHRESHOLD: 40.00000
MK1  OUTLIERS_THRESHOLD_Max: 64
MK1  OUTLIERS_THRESHOLD_Min: 32
MK2  MARKOV_LRU_SIZE: 256
MK2  MARKOV_PREDICTION_PERCENTTHRESHOLD: 20.00000
MK2  OUTLIERS_THRESHOLD_Max: 32
MK2  OUTLIERS_THRESHOLD_Min: 16
MK3  MARKOV_LRU_SIZE: 384
MK3  MARKOV_PREDICTION_PERCENTTHRESHOLD: 25.00000
MK3  OUTLIERS_THRESHOLD_Max: 16
MK3  OUTLIERS_THRESHOLD_Min: 8
MK4  MARKOV_LRU_SIZE: 512
MK4  MARKOV_PREDICTION_PERCENTTHRESHOLD: 20.00000
MK4  OUTLIERS_THRESHOLD_Max: 8
MK4  OUTLIERS_THRESHOLD_Min: 0
IPStride Degree/Access Ratio: 6.61901
MK1 IPDEltaMarkov  Degree/Access Ratio: 0.20451
MK2 IPDEltaMarkov  Degree/Access Ratio: 0.11615
MK3 IPDEltaMarkov  Degree/Access Ratio: 0.54397
MK4 IPDEltaMarkov  Degree/Access Ratio: 1.53523
Channel_0_RQ_row_buffer_hit 6850764
Channel_0_RQ_row_buffer_miss 5655233
Channel_0_WQ_row_buffer_hit 1821872
Channel_0_WQ_row_buffer_miss 5051246
Channel_0_WQ_full 62
Channel_0_dbus_congested 12701996

avg_congested_cycle 11

EzSearch AVG IPC :0.92641: L2-Pf-HR :0.92260 : L2-HR :0.89618 Uful:0.01259
     > Finished combination: TraceType=770-tot Sim:1617000000 Prefetcher=L2029-SecTOP-L2-MultiMarkovDelta_ip_stride_v4 L1=next_line
