TRACE: [597000000][OPT-6_7B]_[h32][s512][d128] Warmup: 2000000 NumTraces: 597000000
L1:next_line:L2:029-SecTOP-L2-MultiMarkovDelta_ip_stride_v4-IPStrS256
*************************************************
   ChampSim Multicore Out-of-Order Simulator
   Last compiled: Oct 27 2024 04:05:22
*************************************************

trace_0 770-tot_memTraces_v3/memTraces[597000000][OPT-6_7B]_[h32][s512][d128].champsim.xz
CPU 0 L1D next line prefetcher
MK1: Size: 128 TMAX: 64 TMIN: 32 MKPTHRESH: 40
MK2: Size: 256 TMAX: 32 TMIN: 16 MK2PTHRESH: 30
MK3: Size: 384 TMAX: 16 TMIN: 8 MK3PTHRESH: 25
MK4: Size: 512 TMAX: 8 TMIN: 0 MK4PTHRESH: 20
Stride Size: 256 Prefetch Degree: 15

CPU 0 L2C prefetcher
MAIN.cc ln 751 stats print skipped
CPU 0 L2C prefetcher initialized


Cache Size: 1280
number of cache lines: 20480
CPU  0 inst:    1000000 cyc:     499106 now IPC :2.00358: AVG IPC :2.00358: L2-Pf-HR :0.91748: L2-HR :0.89254: (Sim:0h0m8s) 
CPU  0 inst:    2000001 cyc:     983935 now IPC :2.06258: AVG IPC :2.03266: L2-Pf-HR :0.95215: L2-HR :0.93524: (Sim:0h0m17s) 

Warmup complete CPU  0 instructions:    2000001 cycles:     983935 (Simulation time: 0 hr 0 min 17 sec) 

CPU  0 inst:    3000000 cyc:    1498490 now IPC :1.94342: AVG IPC :1.94342: L2-Pf-HR :0.95395: L2-HR :0.95130: (Sim:0h0m24s) 
CPU  0 inst:    4000001 cyc:    1994812 now IPC :2.01482: AVG IPC :1.97848: L2-Pf-HR :0.95938: L2-HR :0.95744: (Sim:0h0m31s) 
CPU  0 inst:    5000004 cyc:    2494050 now IPC :2.00306: AVG IPC :1.98661: L2-Pf-HR :0.96338: L2-HR :0.96140: (Sim:0h0m38s) 
CPU  0 inst:    6000003 cyc:    2992375 now IPC :2.00672: AVG IPC :1.99160: L2-Pf-HR :0.96706: L2-HR :0.96470: (Sim:0h0m45s) 
CPU  0 inst:    7000003 cyc:    3523440 now IPC :1.88301: AVG IPC :1.96889: L2-Pf-HR :0.96446: L2-HR :0.96073: (Sim:0h0m53s) 
CPU  0 inst:    8000000 cyc:    4009899 now IPC :2.05567: AVG IPC :1.98284: L2-Pf-HR :0.96707: L2-HR :0.96309: (Sim:0h1m0s) 
CPU  0 inst:    9000002 cyc:    4594607 now IPC :1.71026: AVG IPC :1.93870: L2-Pf-HR :0.96252: L2-HR :0.95714: (Sim:0h1m7s) 
CPU  0 inst:   10000004 cyc:    5078411 now IPC :2.06696: AVG IPC :1.95385: L2-Pf-HR :0.96252: L2-HR :0.95769: (Sim:0h1m14s) 
CPU  0 inst:   11000000 cyc:    5563322 now IPC :2.06223: AVG IPC :1.96533: L2-Pf-HR :0.96306: L2-HR :0.95859: (Sim:0h1m21s) 
CPU  0 inst:   12000005 cyc:    6042765 now IPC :2.08576: AVG IPC :1.97674: L2-Pf-HR :0.96380: L2-HR :0.95963: (Sim:0h1m29s) 
CPU  0 inst:   13000001 cyc:    6525678 now IPC :2.07076: AVG IPC :1.98494: L2-Pf-HR :0.96488: L2-HR :0.96081: (Sim:0h1m36s) 
CPU  0 inst:   14000000 cyc:    7003723 now IPC :2.09185: AVG IPC :1.99343: L2-Pf-HR :0.96606: L2-HR :0.96207: (Sim:0h1m43s) 
CPU  0 inst:   15000003 cyc:    7545639 now IPC :1.84531: AVG IPC :1.98119: L2-Pf-HR :0.96534: L2-HR :0.96100: (Sim:0h1m50s) 
CPU  0 inst:   16000001 cyc:    8046472 now IPC :1.99667: AVG IPC :1.98229: L2-Pf-HR :0.96637: L2-HR :0.96193: (Sim:0h1m57s) 
CPU  0 inst:   17000002 cyc:    8698008 now IPC :1.53484: AVG IPC :1.94450: L2-Pf-HR :0.96442: L2-HR :0.95934: (Sim:0h2m4s) 
CPU  0 inst:   18000001 cyc:    9197306 now IPC :2.00281: AVG IPC :1.94804: L2-Pf-HR :0.96427: L2-HR :0.95945: (Sim:0h2m12s) 
CPU  0 inst:   19000001 cyc:    9688811 now IPC :2.03457: AVG IPC :1.95293: L2-Pf-HR :0.96456: L2-HR :0.95993: (Sim:0h2m19s) 
CPU  0 inst:   20000002 cyc:   10190533 now IPC :1.99314: AVG IPC :1.95512: L2-Pf-HR :0.96490: L2-HR :0.96039: (Sim:0h2m26s) 
CPU  0 inst:   21000004 cyc:   10692827 now IPC :1.99087: AVG IPC :1.95697: L2-Pf-HR :0.96537: L2-HR :0.96092: (Sim:0h2m33s) 
CPU  0 inst:   22000004 cyc:   11184175 now IPC :2.03522: AVG IPC :1.96074: L2-Pf-HR :0.96601: L2-HR :0.96164: (Sim:0h2m40s) 
CPU  0 inst:   23000002 cyc:   11735748 now IPC :1.81299: AVG IPC :1.95316: L2-Pf-HR :0.96556: L2-HR :0.96101: (Sim:0h2m48s) 
CPU  0 inst:   24000002 cyc:   12239221 now IPC :1.98620: AVG IPC :1.95464: L2-Pf-HR :0.96619: L2-HR :0.96158: (Sim:0h2m55s) 
CPU  0 inst:   25000005 cyc:   12889839 now IPC :1.53700: AVG IPC :1.93182: L2-Pf-HR :0.96498: L2-HR :0.95998: (Sim:0h3m3s) 
CPU  0 inst:   26000001 cyc:   13393065 now IPC :1.98717: AVG IPC :1.93406: L2-Pf-HR :0.96494: L2-HR :0.96009: (Sim:0h3m10s) 
CPU  0 inst:   27000002 cyc:   13888756 now IPC :2.01739: AVG IPC :1.93726: L2-Pf-HR :0.96499: L2-HR :0.96030: (Sim:0h3m17s) 
CPU  0 inst:   28000005 cyc:   14391250 now IPC :1.99008: AVG IPC :1.93924: L2-Pf-HR :0.96517: L2-HR :0.96060: (Sim:0h3m25s) 
CPU  0 inst:   29000005 cyc:   14892818 now IPC :1.99375: AVG IPC :1.94121: L2-Pf-HR :0.96544: L2-HR :0.96094: (Sim:0h3m32s) 
CPU  0 inst:   30000005 cyc:   15384972 now IPC :2.03188: AVG IPC :1.94430: L2-Pf-HR :0.96598: L2-HR :0.96152: (Sim:0h3m39s) 
CPU  0 inst:   31000004 cyc:   15929658 now IPC :1.83592: AVG IPC :1.94035: L2-Pf-HR :0.96567: L2-HR :0.96110: (Sim:0h3m47s) 
CPU  0 inst:   32000000 cyc:   16435433 now IPC :1.97716: AVG IPC :1.94156: L2-Pf-HR :0.96603: L2-HR :0.96141: (Sim:0h3m54s) 
CPU  0 inst:   33000001 cyc:   17082966 now IPC :1.54432: AVG IPC :1.92558: L2-Pf-HR :0.96516: L2-HR :0.96024: (Sim:0h4m2s) 
CPU  0 inst:   34000002 cyc:   17584434 now IPC :1.99415: AVG IPC :1.92765: L2-Pf-HR :0.96507: L2-HR :0.96026: (Sim:0h4m9s) 
CPU  0 inst:   35000002 cyc:   18075464 now IPC :2.03654: AVG IPC :1.93078: L2-Pf-HR :0.96513: L2-HR :0.96044: (Sim:0h4m16s) 
CPU  0 inst:   36000002 cyc:   18575048 now IPC :2.00167: AVG IPC :1.93279: L2-Pf-HR :0.96525: L2-HR :0.96064: (Sim:0h4m23s) 
CPU  0 inst:   37000005 cyc:   19066663 now IPC :2.03412: AVG IPC :1.93555: L2-Pf-HR :0.96554: L2-HR :0.96099: (Sim:0h4m31s) 
CPU  0 inst:   38000003 cyc:   19563975 now IPC :2.01081: AVG IPC :1.93756: L2-Pf-HR :0.96591: L2-HR :0.96140: (Sim:0h4m38s) 
CPU  0 inst:   39000004 cyc:   20111057 now IPC :1.82788: AVG IPC :1.93443: L2-Pf-HR :0.96568: L2-HR :0.96105: (Sim:0h4m45s) 
CPU  0 inst:   40000004 cyc:   20614499 now IPC :1.98633: AVG IPC :1.93576: L2-Pf-HR :0.96594: L2-HR :0.96128: (Sim:0h4m52s) 
CPU  0 inst:   41000005 cyc:   21269893 now IPC :1.52580: AVG IPC :1.92251: L2-Pf-HR :0.96529: L2-HR :0.96037: (Sim:0h5m0s) 
CPU  0 inst:   42000004 cyc:   21763909 now IPC :2.02422: AVG IPC :1.92493: L2-Pf-HR :0.96527: L2-HR :0.96045: (Sim:0h5m8s) 
CPU  0 inst:   43000000 cyc:   22268139 now IPC :1.98321: AVG IPC :1.92631: L2-Pf-HR :0.96534: L2-HR :0.96058: (Sim:0h5m15s) 
CPU  0 inst:   44000002 cyc:   22765052 now IPC :2.01243: AVG IPC :1.92828: L2-Pf-HR :0.96541: L2-HR :0.96072: (Sim:0h5m22s) 
CPU  0 inst:   45000001 cyc:   23255364 now IPC :2.03952: AVG IPC :1.93072: L2-Pf-HR :0.96560: L2-HR :0.96098: (Sim:0h5m29s) 
CPU  0 inst:   46000003 cyc:   23743353 now IPC :2.04923: AVG IPC :1.93327: L2-Pf-HR :0.96589: L2-HR :0.96131: (Sim:0h5m37s) 
CPU  0 inst:   47000001 cyc:   24297443 now IPC :1.80476: AVG IPC :1.93021: L2-Pf-HR :0.96571: L2-HR :0.96104: (Sim:0h5m44s) 
CPU  0 inst:   48000000 cyc:   24800905 now IPC :1.98625: AVG IPC :1.93140: L2-Pf-HR :0.96594: L2-HR :0.96125: (Sim:0h5m52s) 
CPU  0 inst:   49000002 cyc:   25443741 now IPC :1.55561: AVG IPC :1.92152: L2-Pf-HR :0.96544: L2-HR :0.96055: (Sim:0h5m59s) 
CPU  0 inst:   50000004 cyc:   25945243 now IPC :1.99401: AVG IPC :1.92298: L2-Pf-HR :0.96540: L2-HR :0.96058: (Sim:0h6m7s) 
CPU  0 inst:   51000003 cyc:   26442899 now IPC :2.00942: AVG IPC :1.92467: L2-Pf-HR :0.96544: L2-HR :0.96070: (Sim:0h6m16s) 
CPU  0 inst:   52000002 cyc:   26939629 now IPC :2.01316: AVG IPC :1.92636: L2-Pf-HR :0.96550: L2-HR :0.96080: (Sim:0h6m24s) 
CPU  0 inst:   53000001 cyc:   27424004 now IPC :2.06451: AVG IPC :1.92889: L2-Pf-HR :0.96569: L2-HR :0.96105: (Sim:0h6m31s) 
CPU  0 inst:   54000003 cyc:   27918622 now IPC :2.02177: AVG IPC :1.93060: L2-Pf-HR :0.96595: L2-HR :0.96134: (Sim:0h6m38s) 
CPU  0 inst:   55000003 cyc:   28474837 now IPC :1.79787: AVG IPC :1.92791: L2-Pf-HR :0.96581: L2-HR :0.96113: (Sim:0h6m46s) 
CPU  0 inst:   56000001 cyc:   28977972 now IPC :1.98753: AVG IPC :1.92898: L2-Pf-HR :0.96600: L2-HR :0.96130: (Sim:0h6m59s) 
CPU  0 inst:   57000005 cyc:   29632462 now IPC :1.52791: AVG IPC :1.91982: L2-Pf-HR :0.96557: L2-HR :0.96069: (Sim:0h7m17s) 
CPU  0 inst:   58000004 cyc:   30134207 now IPC :1.99304: AVG IPC :1.92108: L2-Pf-HR :0.96551: L2-HR :0.96069: (Sim:0h7m34s) 
CPU  0 inst:   59000003 cyc:   30636279 now IPC :1.99174: AVG IPC :1.92228: L2-Pf-HR :0.96556: L2-HR :0.96080: (Sim:0h7m50s) 
CPU  0 inst:   60000002 cyc:   31128235 now IPC :2.03270: AVG IPC :1.92408: L2-Pf-HR :0.96563: L2-HR :0.96092: (Sim:0h8m7s) 
CPU  0 inst:   61000004 cyc:   31621150 now IPC :2.02875: AVG IPC :1.92576: L2-Pf-HR :0.96577: L2-HR :0.96109: (Sim:0h8m23s) 
CPU  0 inst:   62000000 cyc:   32119114 now IPC :2.00817: AVG IPC :1.92708: L2-Pf-HR :0.96595: L2-HR :0.96130: (Sim:0h8m40s) 
CPU  0 inst:   63000005 cyc:   32665880 now IPC :1.82895: AVG IPC :1.92539: L2-Pf-HR :0.96584: L2-HR :0.96113: (Sim:0h8m57s) 
CPU  0 inst:   64000001 cyc:   33166541 now IPC :1.99735: AVG IPC :1.92651: L2-Pf-HR :0.96597: L2-HR :0.96125: (Sim:0h9m13s) 
CPU  0 inst:   65000005 cyc:   33812082 now IPC :1.54909: AVG IPC :1.91909: L2-Pf-HR :0.96562: L2-HR :0.96075: (Sim:0h9m31s) 
CPU  0 inst:   66000001 cyc:   34318600 now IPC :1.97426: AVG IPC :1.91992: L2-Pf-HR :0.96558: L2-HR :0.96076: (Sim:0h9m48s) 
CPU  0 inst:   67000001 cyc:   34822472 now IPC :1.98463: AVG IPC :1.92089: L2-Pf-HR :0.96559: L2-HR :0.96082: (Sim:0h10m4s) 
CPU  0 inst:   68000002 cyc:   35314971 now IPC :2.03046: AVG IPC :1.92246: L2-Pf-HR :0.96565: L2-HR :0.96094: (Sim:0h10m21s) 
CPU  0 inst:   69000000 cyc:   35805975 now IPC :2.03664: AVG IPC :1.92407: L2-Pf-HR :0.96575: L2-HR :0.96107: (Sim:0h10m38s) 
CPU  0 inst:   70000001 cyc:   36296502 now IPC :2.03863: AVG IPC :1.92566: L2-Pf-HR :0.96593: L2-HR :0.96128: (Sim:0h10m54s) 
CPU  0 inst:   71000003 cyc:   36851140 now IPC :1.80298: AVG IPC :1.92376: L2-Pf-HR :0.96585: L2-HR :0.96114: (Sim:0h11m11s) 
CPU  0 inst:   72000001 cyc:   37353490 now IPC :1.99064: AVG IPC :1.92469: L2-Pf-HR :0.96596: L2-HR :0.96125: (Sim:0h11m28s) 
CPU  0 inst:   73000000 cyc:   37986171 now IPC :1.58057: AVG IPC :1.91880: L2-Pf-HR :0.96566: L2-HR :0.96082: (Sim:0h11m45s) 
CPU  0 inst:   74000004 cyc:   38498343 now IPC :1.95248: AVG IPC :1.91926: L2-Pf-HR :0.96560: L2-HR :0.96081: (Sim:0h12m2s) 
CPU  0 inst:   75000000 cyc:   38999328 now IPC :1.99606: AVG IPC :1.92027: L2-Pf-HR :0.96560: L2-HR :0.96086: (Sim:0h12m19s) 
CPU  0 inst:   76000002 cyc:   39490892 now IPC :2.03433: AVG IPC :1.92173: L2-Pf-HR :0.96566: L2-HR :0.96097: (Sim:0h12m35s) 
CPU  0 inst:   77000000 cyc:   39985877 now IPC :2.02026: AVG IPC :1.92298: L2-Pf-HR :0.96578: L2-HR :0.96111: (Sim:0h12m52s) 
CPU  0 inst:   78000003 cyc:   40475399 now IPC :2.04282: AVG IPC :1.92447: L2-Pf-HR :0.96595: L2-HR :0.96130: (Sim:0h13m8s) 
CPU  0 inst:   79000000 cyc:   41031408 now IPC :1.79853: AVG IPC :1.92272: L2-Pf-HR :0.96584: L2-HR :0.96116: (Sim:0h13m25s) 
CPU  0 inst:   80000000 cyc:   41537725 now IPC :1.97505: AVG IPC :1.92337: L2-Pf-HR :0.96593: L2-HR :0.96124: (Sim:0h13m42s) 
CPU  0 inst:   81000005 cyc:   42180962 now IPC :1.55464: AVG IPC :1.91761: L2-Pf-HR :0.96568: L2-HR :0.96086: (Sim:0h13m59s) 
CPU  0 inst:   82000001 cyc:   42684339 now IPC :1.98657: AVG IPC :1.91845: L2-Pf-HR :0.96564: L2-HR :0.96086: (Sim:0h14m14s) 
CPU  0 inst:   83000000 cyc:   43179405 now IPC :2.01993: AVG IPC :1.91964: L2-Pf-HR :0.96568: L2-HR :0.96094: (Sim:0h14m21s) 
CPU  0 inst:   84000002 cyc:   43674536 now IPC :2.01967: AVG IPC :1.92080: L2-Pf-HR :0.96571: L2-HR :0.96101: (Sim:0h14m29s) 
CPU  0 inst:   85000001 cyc:   44171296 now IPC :2.01304: AVG IPC :1.92186: L2-Pf-HR :0.96579: L2-HR :0.96112: (Sim:0h14m37s) 
CPU  0 inst:   86000005 cyc:   44661300 now IPC :2.04081: AVG IPC :1.92319: L2-Pf-HR :0.96593: L2-HR :0.96130: (Sim:0h14m49s) 
CPU  0 inst:   87000002 cyc:   45214335 now IPC :1.80820: AVG IPC :1.92176: L2-Pf-HR :0.96587: L2-HR :0.96119: (Sim:0h15m6s) 
CPU  0 inst:   88000003 cyc:   45716713 now IPC :1.99054: AVG IPC :1.92253: L2-Pf-HR :0.96594: L2-HR :0.96126: (Sim:0h15m22s) 
CPU  0 inst:   89000004 cyc:   46362659 now IPC :1.54812: AVG IPC :1.91720: L2-Pf-HR :0.96572: L2-HR :0.96091: (Sim:0h15m40s) 
CPU  0 inst:   90000003 cyc:   46870988 now IPC :1.96723: AVG IPC :1.91775: L2-Pf-HR :0.96567: L2-HR :0.96090: (Sim:0h15m56s) 
CPU  0 inst:   91000000 cyc:   47370426 now IPC :2.00224: AVG IPC :1.91866: L2-Pf-HR :0.96569: L2-HR :0.96096: (Sim:0h16m13s) 
CPU  0 inst:   92000001 cyc:   47863140 now IPC :2.02958: AVG IPC :1.91983: L2-Pf-HR :0.96572: L2-HR :0.96103: (Sim:0h16m23s) 
CPU  0 inst:   93000004 cyc:   48351678 now IPC :2.04693: AVG IPC :1.92114: L2-Pf-HR :0.96580: L2-HR :0.96113: (Sim:0h16m31s) 
CPU  0 inst:   94000000 cyc:   48841287 now IPC :2.04244: AVG IPC :1.92238: L2-Pf-HR :0.96594: L2-HR :0.96130: (Sim:0h16m38s) 
CPU  0 inst:   95000000 cyc:   49393015 now IPC :1.81249: AVG IPC :1.92113: L2-Pf-HR :0.96589: L2-HR :0.96121: (Sim:0h16m55s) 
CPU  0 inst:   96000002 cyc:   49895925 now IPC :1.98843: AVG IPC :1.92182: L2-Pf-HR :0.96594: L2-HR :0.96125: (Sim:0h17m12s) 
CPU  0 inst:   97000005 cyc:   50545640 now IPC :1.53914: AVG IPC :1.91680: L2-Pf-HR :0.96573: L2-HR :0.96092: (Sim:0h17m29s) 
CPU  0 inst:   98000001 cyc:   51053612 now IPC :1.96860: AVG IPC :1.91733: L2-Pf-HR :0.96567: L2-HR :0.96090: (Sim:0h17m46s) 
CPU  0 inst:   99000002 cyc:   51546219 now IPC :2.03002: AVG IPC :1.91843: L2-Pf-HR :0.96570: L2-HR :0.96097: (Sim:0h18m3s) 
CPU  0 inst:  100000002 cyc:   52045968 now IPC :2.00100: AVG IPC :1.91923: L2-Pf-HR :0.96575: L2-HR :0.96104: (Sim:0h18m19s) 
CPU  0 inst:  101000004 cyc:   52535871 now IPC :2.04122: AVG IPC :1.92039: L2-Pf-HR :0.96582: L2-HR :0.96115: (Sim:0h18m36s) 
CPU  0 inst:  102000005 cyc:   53032659 now IPC :2.01293: AVG IPC :1.92128: L2-Pf-HR :0.96592: L2-HR :0.96126: (Sim:0h18m52s) 
CPU  0 inst:  103000004 cyc:   53580780 now IPC :1.82441: AVG IPC :1.92027: L2-Pf-HR :0.96587: L2-HR :0.96119: (Sim:0h19m9s) 
CPU  0 inst:  104000005 cyc:   54087225 now IPC :1.97455: AVG IPC :1.92079: L2-Pf-HR :0.96591: L2-HR :0.96122: (Sim:0h19m25s) 
CPU  0 inst:  105000000 cyc:   54739942 now IPC :1.53205: AVG IPC :1.91606: L2-Pf-HR :0.96573: L2-HR :0.96094: (Sim:0h19m43s) 
CPU  0 inst:  106000004 cyc:   55242033 now IPC :1.99168: AVG IPC :1.91676: L2-Pf-HR :0.96569: L2-HR :0.96093: (Sim:0h19m59s) 
CPU  0 inst:  107000003 cyc:   55742468 now IPC :1.99826: AVG IPC :1.91751: L2-Pf-HR :0.96570: L2-HR :0.96097: (Sim:0h20m16s) 
CPU  0 inst:  108000002 cyc:   56239736 now IPC :2.01099: AVG IPC :1.91835: L2-Pf-HR :0.96572: L2-HR :0.96103: (Sim:0h20m32s) 
CPU  0 inst:  109000001 cyc:   56730717 now IPC :2.03674: AVG IPC :1.91939: L2-Pf-HR :0.96579: L2-HR :0.96112: (Sim:0h20m49s) 
CPU  0 inst:  110000003 cyc:   57229659 now IPC :2.00425: AVG IPC :1.92015: L2-Pf-HR :0.96589: L2-HR :0.96123: (Sim:0h21m5s) 
CPU  0 inst:  111000004 cyc:   57769887 now IPC :1.85107: AVG IPC :1.91949: L2-Pf-HR :0.96586: L2-HR :0.96118: (Sim:0h21m22s) 
CPU  0 inst:  112000002 cyc:   58274191 now IPC :1.98293: AVG IPC :1.92005: L2-Pf-HR :0.96590: L2-HR :0.96121: (Sim:0h21m39s) 
CPU  0 inst:  113000005 cyc:   58920832 now IPC :1.54646: AVG IPC :1.91588: L2-Pf-HR :0.96573: L2-HR :0.96094: (Sim:0h21m57s) 
CPU  0 inst:  114000001 cyc:   59423089 now IPC :1.99100: AVG IPC :1.91652: L2-Pf-HR :0.96568: L2-HR :0.96094: (Sim:0h22m14s) 
CPU  0 inst:  115000003 cyc:   59917881 now IPC :2.02106: AVG IPC :1.91740: L2-Pf-HR :0.96569: L2-HR :0.96097: (Sim:0h22m30s) 
CPU  0 inst:  116000001 cyc:   60412232 now IPC :2.02285: AVG IPC :1.91828: L2-Pf-HR :0.96571: L2-HR :0.96103: (Sim:0h22m47s) 
CPU  0 inst:  117000004 cyc:   60908027 now IPC :2.01697: AVG IPC :1.91909: L2-Pf-HR :0.96578: L2-HR :0.96112: (Sim:0h23m4s) 
CPU  0 inst:  118000000 cyc:   61409999 now IPC :1.99214: AVG IPC :1.91970: L2-Pf-HR :0.96587: L2-HR :0.96122: (Sim:0h23m21s) 
CPU  0 inst:  119000003 cyc:   61954867 now IPC :1.83531: AVG IPC :1.91895: L2-Pf-HR :0.96585: L2-HR :0.96118: (Sim:0h23m38s) 
CPU  0 inst:  120000004 cyc:   62459470 now IPC :1.98176: AVG IPC :1.91946: L2-Pf-HR :0.96589: L2-HR :0.96120: (Sim:0h23m54s) 
CPU  0 inst:  121000003 cyc:   63107602 now IPC :1.54289: AVG IPC :1.91553: L2-Pf-HR :0.96575: L2-HR :0.96097: (Sim:0h24m12s) 
CPU  0 inst:  122000001 cyc:   63603410 now IPC :2.01691: AVG IPC :1.91634: L2-Pf-HR :0.96572: L2-HR :0.96097: (Sim:0h24m29s) 
CPU  0 inst:  123000003 cyc:   64101512 now IPC :2.00762: AVG IPC :1.91706: L2-Pf-HR :0.96574: L2-HR :0.96102: (Sim:0h24m45s) 
CPU  0 inst:  124000004 cyc:   64592327 now IPC :2.03743: AVG IPC :1.91799: L2-Pf-HR :0.96576: L2-HR :0.96106: (Sim:0h25m2s) 
CPU  0 inst:  125000001 cyc:   65094907 now IPC :1.98973: AVG IPC :1.91855: L2-Pf-HR :0.96580: L2-HR :0.96113: (Sim:0h25m18s) 
CPU  0 inst:  126000002 cyc:   65593315 now IPC :2.00639: AVG IPC :1.91923: L2-Pf-HR :0.96588: L2-HR :0.96122: (Sim:0h25m35s) 
CPU  0 inst:  127000005 cyc:   66134071 now IPC :1.84927: AVG IPC :1.91865: L2-Pf-HR :0.96586: L2-HR :0.96119: (Sim:0h25m52s) 
CPU  0 inst:  128000001 cyc:   66633911 now IPC :2.00063: AVG IPC :1.91927: L2-Pf-HR :0.96589: L2-HR :0.96120: (Sim:0h26m9s) 
CPU  0 inst:  129000002 cyc:   67278949 now IPC :1.55030: AVG IPC :1.91568: L2-Pf-HR :0.96578: L2-HR :0.96100: (Sim:0h26m26s) 
CPU  0 inst:  130000003 cyc:   67780965 now IPC :1.99197: AVG IPC :1.91625: L2-Pf-HR :0.96572: L2-HR :0.96098: (Sim:0h26m43s) 
CPU  0 inst:  131000003 cyc:   68279038 now IPC :2.00774: AVG IPC :1.91693: L2-Pf-HR :0.96573: L2-HR :0.96101: (Sim:0h27m0s) 
CPU  0 inst:  132000003 cyc:   68772817 now IPC :2.02520: AVG IPC :1.91772: L2-Pf-HR :0.96575: L2-HR :0.96106: (Sim:0h27m16s) 
CPU  0 inst:  133000004 cyc:   69271325 now IPC :2.00599: AVG IPC :1.91836: L2-Pf-HR :0.96579: L2-HR :0.96112: (Sim:0h27m33s) 
CPU  0 inst:  134000000 cyc:   69774965 now IPC :1.98554: AVG IPC :1.91885: L2-Pf-HR :0.96587: L2-HR :0.96121: (Sim:0h27m50s) 
CPU  0 inst:  135000003 cyc:   70322417 now IPC :1.82665: AVG IPC :1.91813: L2-Pf-HR :0.96586: L2-HR :0.96118: (Sim:0h28m7s) 
CPU  0 inst:  136000004 cyc:   70831834 now IPC :1.96303: AVG IPC :1.91845: L2-Pf-HR :0.96589: L2-HR :0.96120: (Sim:0h28m23s) 
CPU  0 inst:  137000005 cyc:   71465902 now IPC :1.57712: AVG IPC :1.91538: L2-Pf-HR :0.96578: L2-HR :0.96101: (Sim:0h28m41s) 
CPU  0 inst:  138000001 cyc:   71968903 now IPC :1.98806: AVG IPC :1.91590: L2-Pf-HR :0.96573: L2-HR :0.96099: (Sim:0h28m57s) 
CPU  0 inst:  139000000 cyc:   72464686 now IPC :2.01701: AVG IPC :1.91660: L2-Pf-HR :0.96573: L2-HR :0.96101: (Sim:0h29m14s) 
CPU  0 inst:  140000002 cyc:   72957457 now IPC :2.02934: AVG IPC :1.91737: L2-Pf-HR :0.96577: L2-HR :0.96107: (Sim:0h29m31s) 
CPU  0 inst:  141000004 cyc:   73456911 now IPC :2.00219: AVG IPC :1.91796: L2-Pf-HR :0.96581: L2-HR :0.96113: (Sim:0h29m47s) 
CPU  0 inst:  142000000 cyc:   73947939 now IPC :2.03654: AVG IPC :1.91875: L2-Pf-HR :0.96588: L2-HR :0.96121: (Sim:0h30m4s) 
CPU  0 inst:  143000005 cyc:   74499666 now IPC :1.81250: AVG IPC :1.91796: L2-Pf-HR :0.96586: L2-HR :0.96119: (Sim:0h30m21s) 
CPU  0 inst:  144000000 cyc:   75004298 now IPC :1.98163: AVG IPC :1.91839: L2-Pf-HR :0.96587: L2-HR :0.96118: (Sim:0h30m38s) 
CPU  0 inst:  145000000 cyc:   75637913 now IPC :1.57825: AVG IPC :1.91550: L2-Pf-HR :0.96578: L2-HR :0.96102: (Sim:0h30m55s) 
CPU  0 inst:  146000001 cyc:   76157265 now IPC :1.92548: AVG IPC :1.91557: L2-Pf-HR :0.96573: L2-HR :0.96099: (Sim:0h31m12s) 
CPU  0 inst:  147000000 cyc:   76650994 now IPC :2.02540: AVG IPC :1.91629: L2-Pf-HR :0.96574: L2-HR :0.96102: (Sim:0h31m29s) 
CPU  0 inst:  148000005 cyc:   77152057 now IPC :1.99577: AVG IPC :1.91681: L2-Pf-HR :0.96575: L2-HR :0.96106: (Sim:0h31m45s) 
CPU  0 inst:  149000004 cyc:   77650686 now IPC :2.00550: AVG IPC :1.91739: L2-Pf-HR :0.96578: L2-HR :0.96111: (Sim:0h32m2s) 
CPU  0 inst:  150000003 cyc:   78140735 now IPC :2.04061: AVG IPC :1.91817: L2-Pf-HR :0.96585: L2-HR :0.96119: (Sim:0h32m19s) 
CPU  0 inst:  151000002 cyc:   78684933 now IPC :1.83756: AVG IPC :1.91761: L2-Pf-HR :0.96587: L2-HR :0.96119: (Sim:0h32m36s) 
CPU  0 inst:  152000001 cyc:   79192668 now IPC :1.96953: AVG IPC :1.91794: L2-Pf-HR :0.96586: L2-HR :0.96118: (Sim:0h32m52s) 
CPU  0 inst:  153000005 cyc:   79817249 now IPC :1.60108: AVG IPC :1.91543: L2-Pf-HR :0.96579: L2-HR :0.96104: (Sim:0h33m10s) 
CPU  0 inst:  154000001 cyc:   80341615 now IPC :1.90706: AVG IPC :1.91538: L2-Pf-HR :0.96573: L2-HR :0.96100: (Sim:0h33m27s) 
CPU  0 inst:  155000000 cyc:   80837127 now IPC :2.01811: AVG IPC :1.91602: L2-Pf-HR :0.96574: L2-HR :0.96102: (Sim:0h33m43s) 
CPU  0 inst:  156000005 cyc:   81337421 now IPC :1.99883: AVG IPC :1.91653: L2-Pf-HR :0.96575: L2-HR :0.96106: (Sim:0h34m0s) 
CPU  0 inst:  157000001 cyc:   81834043 now IPC :2.01360: AVG IPC :1.91713: L2-Pf-HR :0.96579: L2-HR :0.96111: (Sim:0h34m17s) 
CPU  0 inst:  158000000 cyc:   82325117 now IPC :2.03635: AVG IPC :1.91785: L2-Pf-HR :0.96586: L2-HR :0.96119: (Sim:0h34m33s) 
CPU  0 inst:  159000003 cyc:   82866771 now IPC :1.84620: AVG IPC :1.91737: L2-Pf-HR :0.96587: L2-HR :0.96119: (Sim:0h34m50s) 
CPU  0 inst:  160000005 cyc:   83377124 now IPC :1.95943: AVG IPC :1.91763: L2-Pf-HR :0.96586: L2-HR :0.96117: (Sim:0h35m7s) 
CPU  0 inst:  161000005 cyc:   84007695 now IPC :1.58586: AVG IPC :1.91511: L2-Pf-HR :0.96580: L2-HR :0.96104: (Sim:0h35m24s) 
CPU  0 inst:  162000001 cyc:   84528759 now IPC :1.91914: AVG IPC :1.91514: L2-Pf-HR :0.96574: L2-HR :0.96100: (Sim:0h35m41s) 
CPU  0 inst:  163000003 cyc:   85028717 now IPC :2.00017: AVG IPC :1.91565: L2-Pf-HR :0.96575: L2-HR :0.96103: (Sim:0h35m58s) 
CPU  0 inst:  164000004 cyc:   85529519 now IPC :1.99680: AVG IPC :1.91613: L2-Pf-HR :0.96577: L2-HR :0.96106: (Sim:0h36m15s) 
CPU  0 inst:  165000004 cyc:   86018482 now IPC :2.04514: AVG IPC :1.91687: L2-Pf-HR :0.96580: L2-HR :0.96111: (Sim:0h36m31s) 
CPU  0 inst:  166000002 cyc:   86507217 now IPC :2.04609: AVG IPC :1.91761: L2-Pf-HR :0.96585: L2-HR :0.96118: (Sim:0h36m48s) 
CPU  0 inst:  167000000 cyc:   87056264 now IPC :1.82133: AVG IPC :1.91699: L2-Pf-HR :0.96587: L2-HR :0.96118: (Sim:0h37m0s) 
CPU  0 inst:  168000002 cyc:   87558498 now IPC :1.99111: AVG IPC :1.91742: L2-Pf-HR :0.96586: L2-HR :0.96117: (Sim:0h37m8s) 
CPU  0 inst:  169000002 cyc:   88174072 now IPC :1.62450: AVG IPC :1.91535: L2-Pf-HR :0.96580: L2-HR :0.96107: (Sim:0h37m16s) 
CPU  0 inst:  170000003 cyc:   88701635 now IPC :1.89551: AVG IPC :1.91523: L2-Pf-HR :0.96574: L2-HR :0.96101: (Sim:0h37m23s) 
CPU  0 inst:  171000002 cyc:   89208959 now IPC :1.97113: AVG IPC :1.91556: L2-Pf-HR :0.96573: L2-HR :0.96102: (Sim:0h37m31s) 
CPU  0 inst:  172000002 cyc:   89709556 now IPC :1.99761: AVG IPC :1.91602: L2-Pf-HR :0.96574: L2-HR :0.96105: (Sim:0h37m39s) 
CPU  0 inst:  173000004 cyc:   90196106 now IPC :2.05529: AVG IPC :1.91678: L2-Pf-HR :0.96577: L2-HR :0.96110: (Sim:0h37m46s) 
CPU  0 inst:  174000002 cyc:   90689335 now IPC :2.02745: AVG IPC :1.91739: L2-Pf-HR :0.96584: L2-HR :0.96117: (Sim:0h37m54s) 
CPU  0 inst:  175000004 cyc:   91235149 now IPC :1.83213: AVG IPC :1.91687: L2-Pf-HR :0.96585: L2-HR :0.96117: (Sim:0h38m2s) 
CPU  0 inst:  176000005 cyc:   91743344 now IPC :1.96775: AVG IPC :1.91716: L2-Pf-HR :0.96585: L2-HR :0.96116: (Sim:0h38m9s) 
CPU  0 inst:  177000003 cyc:   92353304 now IPC :1.63945: AVG IPC :1.91530: L2-Pf-HR :0.96581: L2-HR :0.96108: (Sim:0h38m17s) 
CPU  0 inst:  178000001 cyc:   92883660 now IPC :1.88552: AVG IPC :1.91513: L2-Pf-HR :0.96574: L2-HR :0.96101: (Sim:0h38m25s) 
CPU  0 inst:  179000003 cyc:   93385435 now IPC :1.99293: AVG IPC :1.91555: L2-Pf-HR :0.96574: L2-HR :0.96103: (Sim:0h38m33s) 
CPU  0 inst:  180000005 cyc:   93886574 now IPC :1.99546: AVG IPC :1.91598: L2-Pf-HR :0.96576: L2-HR :0.96107: (Sim:0h38m40s) 
CPU  0 inst:  181000003 cyc:   94378108 now IPC :2.03444: AVG IPC :1.91661: L2-Pf-HR :0.96580: L2-HR :0.96112: (Sim:0h38m48s) 
CPU  0 inst:  182000003 cyc:   94866730 now IPC :2.04657: AVG IPC :1.91728: L2-Pf-HR :0.96585: L2-HR :0.96118: (Sim:0h38m55s) 
CPU  0 inst:  183000003 cyc:   95411356 now IPC :1.83612: AVG IPC :1.91682: L2-Pf-HR :0.96586: L2-HR :0.96119: (Sim:0h39m3s) 
CPU  0 inst:  184000003 cyc:   95917529 now IPC :1.97561: AVG IPC :1.91713: L2-Pf-HR :0.96585: L2-HR :0.96117: (Sim:0h39m11s) 
CPU  0 inst:  185000005 cyc:   96515232 now IPC :1.67308: AVG IPC :1.91560: L2-Pf-HR :0.96581: L2-HR :0.96109: (Sim:0h39m18s) 
CPU  0 inst:  186000001 cyc:   97058045 now IPC :1.84225: AVG IPC :1.91519: L2-Pf-HR :0.96575: L2-HR :0.96103: (Sim:0h39m26s) 
CPU  0 inst:  187000000 cyc:   97565048 now IPC :1.97237: AVG IPC :1.91549: L2-Pf-HR :0.96575: L2-HR :0.96104: (Sim:0h39m34s) 
CPU  0 inst:  188000002 cyc:   98059942 now IPC :2.02064: AVG IPC :1.91602: L2-Pf-HR :0.96576: L2-HR :0.96107: (Sim:0h39m41s) 
CPU  0 inst:  189000004 cyc:   98554686 now IPC :2.02125: AVG IPC :1.91656: L2-Pf-HR :0.96578: L2-HR :0.96111: (Sim:0h39m53s) 
CPU  0 inst:  190000000 cyc:   99044135 now IPC :2.04311: AVG IPC :1.91719: L2-Pf-HR :0.96583: L2-HR :0.96116: (Sim:0h40m6s) 
CPU  0 inst:  191000005 cyc:   99581012 now IPC :1.86263: AVG IPC :1.91689: L2-Pf-HR :0.96587: L2-HR :0.96120: (Sim:0h40m22s) 
CPU  0 inst:  192000001 cyc:  100094842 now IPC :1.94616: AVG IPC :1.91704: L2-Pf-HR :0.96585: L2-HR :0.96117: (Sim:0h40m39s) 
CPU  0 inst:  193000001 cyc:  100690128 now IPC :1.67986: AVG IPC :1.91563: L2-Pf-HR :0.96582: L2-HR :0.96110: (Sim:0h40m57s) 
CPU  0 inst:  194000004 cyc:  101238667 now IPC :1.82303: AVG IPC :1.91512: L2-Pf-HR :0.96575: L2-HR :0.96102: (Sim:0h41m14s) 
CPU  0 inst:  195000003 cyc:  101745438 now IPC :1.97328: AVG IPC :1.91541: L2-Pf-HR :0.96575: L2-HR :0.96104: (Sim:0h41m31s) 
CPU  0 inst:  196000002 cyc:  102236916 now IPC :2.03468: AVG IPC :1.91599: L2-Pf-HR :0.96576: L2-HR :0.96106: (Sim:0h41m47s) 
CPU  0 inst:  197000004 cyc:  102731836 now IPC :2.02053: AVG IPC :1.91650: L2-Pf-HR :0.96579: L2-HR :0.96111: (Sim:0h42m4s) 
CPU  0 inst:  198000000 cyc:  103223764 now IPC :2.03281: AVG IPC :1.91706: L2-Pf-HR :0.96584: L2-HR :0.96117: (Sim:0h42m21s) 
CPU  0 inst:  199000003 cyc:  103751618 now IPC :1.89447: AVG IPC :1.91695: L2-Pf-HR :0.96588: L2-HR :0.96120: (Sim:0h42m38s) 
CPU  0 inst:  200000001 cyc:  104264798 now IPC :1.94863: AVG IPC :1.91710: L2-Pf-HR :0.96584: L2-HR :0.96116: (Sim:0h42m55s) 
CPU  0 inst:  201000003 cyc:  104821376 now IPC :1.79670: AVG IPC :1.91646: L2-Pf-HR :0.96587: L2-HR :0.96116: (Sim:0h43m12s) 
CPU  0 inst:  202000001 cyc:  105407291 now IPC :1.70673: AVG IPC :1.91528: L2-Pf-HR :0.96576: L2-HR :0.96103: (Sim:0h43m29s) 
CPU  0 inst:  203000003 cyc:  105908774 now IPC :1.99409: AVG IPC :1.91566: L2-Pf-HR :0.96576: L2-HR :0.96104: (Sim:0h43m46s) 
CPU  0 inst:  204000005 cyc:  106401214 now IPC :2.03071: AVG IPC :1.91619: L2-Pf-HR :0.96578: L2-HR :0.96108: (Sim:0h44m3s) 
CPU  0 inst:  205000001 cyc:  106895531 now IPC :2.02299: AVG IPC :1.91669: L2-Pf-HR :0.96579: L2-HR :0.96111: (Sim:0h44m20s) 
CPU  0 inst:  206000000 cyc:  107385498 now IPC :2.04095: AVG IPC :1.91727: L2-Pf-HR :0.96583: L2-HR :0.96116: (Sim:0h44m36s) 
CPU  0 inst:  207000003 cyc:  107895626 now IPC :1.96030: AVG IPC :1.91747: L2-Pf-HR :0.96591: L2-HR :0.96125: (Sim:0h44m53s) 
CPU  0 inst:  208000000 cyc:  108431589 now IPC :1.86579: AVG IPC :1.91721: L2-Pf-HR :0.96584: L2-HR :0.96116: (Sim:0h45m10s) 
CPU  0 inst:  209000004 cyc:  108948562 now IPC :1.93434: AVG IPC :1.91729: L2-Pf-HR :0.96590: L2-HR :0.96121: (Sim:0h45m27s) 
CPU  0 inst:  210000002 cyc:  109588442 now IPC :1.56279: AVG IPC :1.91521: L2-Pf-HR :0.96576: L2-HR :0.96103: (Sim:0h45m45s) 
CPU  0 inst:  211000003 cyc:  110085207 now IPC :2.01303: AVG IPC :1.91565: L2-Pf-HR :0.96575: L2-HR :0.96104: (Sim:0h46m1s) 
CPU  0 inst:  212000001 cyc:  110586322 now IPC :1.99555: AVG IPC :1.91602: L2-Pf-HR :0.96577: L2-HR :0.96107: (Sim:0h46m18s) 
CPU  0 inst:  213000002 cyc:  111076169 now IPC :2.04146: AVG IPC :1.91657: L2-Pf-HR :0.96578: L2-HR :0.96110: (Sim:0h46m35s) 
CPU  0 inst:  214000000 cyc:  111565249 now IPC :2.04465: AVG IPC :1.91714: L2-Pf-HR :0.96584: L2-HR :0.96117: (Sim:0h46m52s) 
CPU  0 inst:  215000005 cyc:  112072736 now IPC :1.97050: AVG IPC :1.91738: L2-Pf-HR :0.96591: L2-HR :0.96124: (Sim:0h47m9s) 
CPU  0 inst:  216000000 cyc:  112621711 now IPC :1.82157: AVG IPC :1.91691: L2-Pf-HR :0.96585: L2-HR :0.96116: (Sim:0h47m26s) 
CPU  0 inst:  217000005 cyc:  113125710 now IPC :1.98414: AVG IPC :1.91722: L2-Pf-HR :0.96593: L2-HR :0.96124: (Sim:0h47m42s) 
CPU  0 inst:  218000005 cyc:  113769829 now IPC :1.55251: AVG IPC :1.91513: L2-Pf-HR :0.96577: L2-HR :0.96104: (Sim:0h48m0s) 
CPU  0 inst:  219000000 cyc:  114267175 now IPC :2.01066: AVG IPC :1.91555: L2-Pf-HR :0.96577: L2-HR :0.96106: (Sim:0h48m17s) 
CPU  0 inst:  220000005 cyc:  114766161 now IPC :2.00407: AVG IPC :1.91594: L2-Pf-HR :0.96579: L2-HR :0.96109: (Sim:0h48m34s) 
CPU  0 inst:  221000000 cyc:  115263852 now IPC :2.00927: AVG IPC :1.91635: L2-Pf-HR :0.96581: L2-HR :0.96112: (Sim:0h48m51s) 
CPU  0 inst:  222000003 cyc:  115752907 now IPC :2.04477: AVG IPC :1.91689: L2-Pf-HR :0.96585: L2-HR :0.96117: (Sim:0h49m7s) 
CPU  0 inst:  223000001 cyc:  116259445 now IPC :1.97418: AVG IPC :1.91715: L2-Pf-HR :0.96591: L2-HR :0.96124: (Sim:0h49m24s) 
CPU  0 inst:  224000002 cyc:  116809138 now IPC :1.81920: AVG IPC :1.91668: L2-Pf-HR :0.96585: L2-HR :0.96117: (Sim:0h49m41s) 
CPU  0 inst:  225000000 cyc:  117308503 now IPC :2.00254: AVG IPC :1.91705: L2-Pf-HR :0.96592: L2-HR :0.96123: (Sim:0h49m58s) 
CPU  0 inst:  226000000 cyc:  117958491 now IPC :1.53849: AVG IPC :1.91495: L2-Pf-HR :0.96577: L2-HR :0.96105: (Sim:0h50m16s) 
CPU  0 inst:  227000005 cyc:  118459133 now IPC :1.99745: AVG IPC :1.91530: L2-Pf-HR :0.96577: L2-HR :0.96106: (Sim:0h50m32s) 
CPU  0 inst:  228000005 cyc:  118963315 now IPC :1.98341: AVG IPC :1.91559: L2-Pf-HR :0.96578: L2-HR :0.96109: (Sim:0h50m49s) 
CPU  0 inst:  229000000 cyc:  119448700 now IPC :2.06021: AVG IPC :1.91618: L2-Pf-HR :0.96580: L2-HR :0.96112: (Sim:0h51m6s) 
CPU  0 inst:  230000000 cyc:  119949783 now IPC :1.99568: AVG IPC :1.91652: L2-Pf-HR :0.96584: L2-HR :0.96117: (Sim:0h51m23s) 
CPU  0 inst:  231000002 cyc:  120453307 now IPC :1.98601: AVG IPC :1.91681: L2-Pf-HR :0.96589: L2-HR :0.96123: (Sim:0h51m40s) 
CPU  0 inst:  232000002 cyc:  120996890 now IPC :1.83965: AVG IPC :1.91646: L2-Pf-HR :0.96585: L2-HR :0.96117: (Sim:0h51m57s) 
CPU  0 inst:  233000003 cyc:  121501476 now IPC :1.98182: AVG IPC :1.91673: L2-Pf-HR :0.96591: L2-HR :0.96123: (Sim:0h52m13s) 
CPU  0 inst:  234000001 cyc:  122142837 now IPC :1.55918: AVG IPC :1.91484: L2-Pf-HR :0.96577: L2-HR :0.96105: (Sim:0h52m31s) 
CPU  0 inst:  235000003 cyc:  122646142 now IPC :1.98687: AVG IPC :1.91514: L2-Pf-HR :0.96576: L2-HR :0.96106: (Sim:0h52m48s) 
CPU  0 inst:  236000002 cyc:  123140271 now IPC :2.02376: AVG IPC :1.91558: L2-Pf-HR :0.96577: L2-HR :0.96108: (Sim:0h53m5s) 
CPU  0 inst:  237000000 cyc:  123629415 now IPC :2.04438: AVG IPC :1.91609: L2-Pf-HR :0.96580: L2-HR :0.96112: (Sim:0h53m22s) 
CPU  0 inst:  238000000 cyc:  124132391 now IPC :1.98817: AVG IPC :1.91639: L2-Pf-HR :0.96583: L2-HR :0.96116: (Sim:0h53m39s) 
CPU  0 inst:  239000000 cyc:  124626436 now IPC :2.02411: AVG IPC :1.91682: L2-Pf-HR :0.96588: L2-HR :0.96122: (Sim:0h53m55s) 
CPU  0 inst:  240000002 cyc:  125175160 now IPC :1.82241: AVG IPC :1.91640: L2-Pf-HR :0.96585: L2-HR :0.96117: (Sim:0h54m12s) 
CPU  0 inst:  241000004 cyc:  125676731 now IPC :1.99374: AVG IPC :1.91671: L2-Pf-HR :0.96590: L2-HR :0.96122: (Sim:0h54m29s) 
CPU  0 inst:  242000004 cyc:  126328878 now IPC :1.53340: AVG IPC :1.91472: L2-Pf-HR :0.96578: L2-HR :0.96105: (Sim:0h54m47s) 
CPU  0 inst:  243000003 cyc:  126830110 now IPC :1.99508: AVG IPC :1.91504: L2-Pf-HR :0.96578: L2-HR :0.96107: (Sim:0h55m4s) 
CPU  0 inst:  244000002 cyc:  127326691 now IPC :2.01377: AVG IPC :1.91542: L2-Pf-HR :0.96578: L2-HR :0.96109: (Sim:0h55m21s) 
CPU  0 inst:  245000001 cyc:  127820983 now IPC :2.02309: AVG IPC :1.91584: L2-Pf-HR :0.96580: L2-HR :0.96112: (Sim:0h55m37s) 
CPU  0 inst:  246000000 cyc:  128316628 now IPC :2.01757: AVG IPC :1.91624: L2-Pf-HR :0.96584: L2-HR :0.96116: (Sim:0h55m54s) 
CPU  0 inst:  247000005 cyc:  128807957 now IPC :2.03531: AVG IPC :1.91670: L2-Pf-HR :0.96588: L2-HR :0.96122: (Sim:0h56m11s) 
CPU  0 inst:  248000001 cyc:  129353671 now IPC :1.83245: AVG IPC :1.91634: L2-Pf-HR :0.96585: L2-HR :0.96117: (Sim:0h56m28s) 
CPU  0 inst:  249000005 cyc:  129852569 now IPC :2.00443: AVG IPC :1.91668: L2-Pf-HR :0.96590: L2-HR :0.96122: (Sim:0h56m45s) 
CPU  0 inst:  250000004 cyc:  130494994 now IPC :1.55660: AVG IPC :1.91489: L2-Pf-HR :0.96579: L2-HR :0.96107: (Sim:0h57m2s) 
CPU  0 inst:  251000003 cyc:  130997507 now IPC :1.99000: AVG IPC :1.91518: L2-Pf-HR :0.96577: L2-HR :0.96107: (Sim:0h57m19s) 
CPU  0 inst:  252000000 cyc:  131485915 now IPC :2.04746: AVG IPC :1.91568: L2-Pf-HR :0.96578: L2-HR :0.96109: (Sim:0h57m36s) 
CPU  0 inst:  253000001 cyc:  131984322 now IPC :2.00639: AVG IPC :1.91602: L2-Pf-HR :0.96579: L2-HR :0.96112: (Sim:0h57m53s) 
CPU  0 inst:  254000003 cyc:  132484886 now IPC :1.99775: AVG IPC :1.91634: L2-Pf-HR :0.96583: L2-HR :0.96116: (Sim:0h58m10s) 
CPU  0 inst:  255000000 cyc:  132973422 now IPC :2.04693: AVG IPC :1.91682: L2-Pf-HR :0.96589: L2-HR :0.96122: (Sim:0h58m26s) 
CPU  0 inst:  256000003 cyc:  133527165 now IPC :1.80590: AVG IPC :1.91636: L2-Pf-HR :0.96585: L2-HR :0.96117: (Sim:0h58m44s) 
CPU  0 inst:  257000002 cyc:  134029835 now IPC :1.98937: AVG IPC :1.91663: L2-Pf-HR :0.96590: L2-HR :0.96122: (Sim:0h59m0s) 
CPU  0 inst:  258000003 cyc:  138094787 now IPC :0.24601: AVG IPC :1.86710: L2-Pf-HR :0.96454: L2-HR :0.95811: (Sim:0h59m43s) 
CPU  0 inst:  259000005 cyc:  143511802 now IPC :0.18460: AVG IPC :1.80316: L2-Pf-HR :0.96282: L2-HR :0.95426: (Sim:1h0m39s) 
CPU  0 inst:  260000004 cyc:  148929108 now IPC :0.18459: AVG IPC :1.74389: L2-Pf-HR :0.96111: L2-HR :0.95049: (Sim:1h1m35s) 
CPU  0 inst:  261000000 cyc:  154352921 now IPC :0.18437: AVG IPC :1.68874: L2-Pf-HR :0.95940: L2-HR :0.94677: (Sim:1h2m31s) 
CPU  0 inst:  262000001 cyc:  159685311 now IPC :0.18753: AVG IPC :1.63830: L2-Pf-HR :0.95774: L2-HR :0.94320: (Sim:1h3m26s) 
CPU  0 inst:  263000003 cyc:  163277447 now IPC :0.27839: AVG IPC :1.60820: L2-Pf-HR :0.95737: L2-HR :0.94275: (Sim:1h4m1s) 
CPU  0 inst:  264000001 cyc:  166859179 now IPC :0.27919: AVG IPC :1.57950: L2-Pf-HR :0.95701: L2-HR :0.94230: (Sim:1h4m35s) 
CPU  0 inst:  265000003 cyc:  170442210 now IPC :0.27909: AVG IPC :1.55200: L2-Pf-HR :0.95665: L2-HR :0.94186: (Sim:1h5m10s) 
CPU  0 inst:  266000003 cyc:  174023888 now IPC :0.27920: AVG IPC :1.52566: L2-Pf-HR :0.95629: L2-HR :0.94142: (Sim:1h5m44s) 
CPU  0 inst:  267000002 cyc:  177604141 now IPC :0.27931: AVG IPC :1.50039: L2-Pf-HR :0.95594: L2-HR :0.94099: (Sim:1h6m19s) 
CPU  0 inst:  268000002 cyc:  181184388 now IPC :0.27931: AVG IPC :1.47613: L2-Pf-HR :0.95560: L2-HR :0.94056: (Sim:1h6m53s) 
CPU  0 inst:  269000001 cyc:  184766187 now IPC :0.27919: AVG IPC :1.45281: L2-Pf-HR :0.95525: L2-HR :0.94013: (Sim:1h7m27s) 
CPU  0 inst:  270000000 cyc:  188346333 now IPC :0.27932: AVG IPC :1.43038: L2-Pf-HR :0.95491: L2-HR :0.93971: (Sim:1h8m2s) 
CPU  0 inst:  271000001 cyc:  191927064 now IPC :0.27927: AVG IPC :1.40880: L2-Pf-HR :0.95456: L2-HR :0.93929: (Sim:1h8m36s) 
CPU  0 inst:  272000000 cyc:  195506967 now IPC :0.27934: AVG IPC :1.38801: L2-Pf-HR :0.95422: L2-HR :0.93886: (Sim:1h9m11s) 
CPU  0 inst:  273000003 cyc:  199086475 now IPC :0.27937: AVG IPC :1.36798: L2-Pf-HR :0.95388: L2-HR :0.93845: (Sim:1h9m45s) 
CPU  0 inst:  274000003 cyc:  202668175 now IPC :0.27920: AVG IPC :1.34864: L2-Pf-HR :0.95354: L2-HR :0.93803: (Sim:1h10m20s) 
CPU  0 inst:  275000002 cyc:  206249687 now IPC :0.27921: AVG IPC :1.32998: L2-Pf-HR :0.95321: L2-HR :0.93762: (Sim:1h10m54s) 
CPU  0 inst:  276000002 cyc:  209829950 now IPC :0.27931: AVG IPC :1.31197: L2-Pf-HR :0.95288: L2-HR :0.93721: (Sim:1h11m28s) 
CPU  0 inst:  277000001 cyc:  213411334 now IPC :0.27922: AVG IPC :1.29456: L2-Pf-HR :0.95254: L2-HR :0.93680: (Sim:1h12m3s) 
CPU  0 inst:  278000000 cyc:  216992868 now IPC :0.27921: AVG IPC :1.27772: L2-Pf-HR :0.95221: L2-HR :0.93639: (Sim:1h12m37s) 
CPU  0 inst:  279000000 cyc:  220573601 now IPC :0.27927: AVG IPC :1.26144: L2-Pf-HR :0.95189: L2-HR :0.93598: (Sim:1h13m12s) 
CPU  0 inst:  280000003 cyc:  224155365 now IPC :0.27919: AVG IPC :1.24568: L2-Pf-HR :0.95156: L2-HR :0.93558: (Sim:1h13m46s) 
CPU  0 inst:  281000003 cyc:  227735192 now IPC :0.27934: AVG IPC :1.23042: L2-Pf-HR :0.95123: L2-HR :0.93518: (Sim:1h14m20s) 
CPU  0 inst:  282000001 cyc:  231314944 now IPC :0.27935: AVG IPC :1.21564: L2-Pf-HR :0.95091: L2-HR :0.93479: (Sim:1h14m55s) 
CPU  0 inst:  283000002 cyc:  234895494 now IPC :0.27929: AVG IPC :1.20131: L2-Pf-HR :0.95059: L2-HR :0.93439: (Sim:1h15m29s) 
CPU  0 inst:  284000002 cyc:  238476399 now IPC :0.27926: AVG IPC :1.18741: L2-Pf-HR :0.95027: L2-HR :0.93400: (Sim:1h15m51s) 
CPU  0 inst:  285000001 cyc:  242056872 now IPC :0.27929: AVG IPC :1.17392: L2-Pf-HR :0.94995: L2-HR :0.93360: (Sim:1h16m7s) 
CPU  0 inst:  286000000 cyc:  245637775 now IPC :0.27926: AVG IPC :1.16082: L2-Pf-HR :0.94963: L2-HR :0.93321: (Sim:1h16m22s) 
CPU  0 inst:  287000000 cyc:  249219134 now IPC :0.27922: AVG IPC :1.14810: L2-Pf-HR :0.94932: L2-HR :0.93283: (Sim:1h16m37s) 
CPU  0 inst:  288000000 cyc:  252799426 now IPC :0.27931: AVG IPC :1.13575: L2-Pf-HR :0.94901: L2-HR :0.93244: (Sim:1h16m53s) 
CPU  0 inst:  289000001 cyc:  256380995 now IPC :0.27921: AVG IPC :1.12374: L2-Pf-HR :0.94869: L2-HR :0.93206: (Sim:1h17m8s) 
CPU  0 inst:  290000003 cyc:  259962276 now IPC :0.27923: AVG IPC :1.11206: L2-Pf-HR :0.94838: L2-HR :0.93167: (Sim:1h17m23s) 
CPU  0 inst:  291000003 cyc:  263541884 now IPC :0.27936: AVG IPC :1.10071: L2-Pf-HR :0.94807: L2-HR :0.93129: (Sim:1h17m38s) 
CPU  0 inst:  292000002 cyc:  267121966 now IPC :0.27932: AVG IPC :1.08966: L2-Pf-HR :0.94777: L2-HR :0.93092: (Sim:1h17m54s) 
CPU  0 inst:  293000001 cyc:  270702846 now IPC :0.27926: AVG IPC :1.07890: L2-Pf-HR :0.94746: L2-HR :0.93054: (Sim:1h18m9s) 
CPU  0 inst:  294000000 cyc:  274283011 now IPC :0.27932: AVG IPC :1.06843: L2-Pf-HR :0.94716: L2-HR :0.93017: (Sim:1h18m24s) 
CPU  0 inst:  295000000 cyc:  277863640 now IPC :0.27928: AVG IPC :1.05822: L2-Pf-HR :0.94686: L2-HR :0.92980: (Sim:1h18m39s) 
CPU  0 inst:  296000000 cyc:  281444619 now IPC :0.27925: AVG IPC :1.04828: L2-Pf-HR :0.94655: L2-HR :0.92943: (Sim:1h18m55s) 
CPU  0 inst:  297000001 cyc:  285025144 now IPC :0.27929: AVG IPC :1.03858: L2-Pf-HR :0.94625: L2-HR :0.92906: (Sim:1h19m10s) 
CPU  0 inst:  298000003 cyc:  288606574 now IPC :0.27922: AVG IPC :1.02913: L2-Pf-HR :0.94596: L2-HR :0.92869: (Sim:1h19m25s) 
CPU  0 inst:  299000003 cyc:  292187049 now IPC :0.27929: AVG IPC :1.01991: L2-Pf-HR :0.94566: L2-HR :0.92833: (Sim:1h19m41s) 
CPU  0 inst:  300000003 cyc:  295767989 now IPC :0.27926: AVG IPC :1.01091: L2-Pf-HR :0.94536: L2-HR :0.92797: (Sim:1h19m56s) 
CPU  0 inst:  301000002 cyc:  299347627 now IPC :0.27936: AVG IPC :1.00213: L2-Pf-HR :0.94507: L2-HR :0.92761: (Sim:1h20m11s) 
CPU  0 inst:  302000000 cyc:  302928205 now IPC :0.27928: AVG IPC :0.99356: L2-Pf-HR :0.94478: L2-HR :0.92725: (Sim:1h20m27s) 
CPU  0 inst:  303000000 cyc:  306507607 now IPC :0.27938: AVG IPC :0.98519: L2-Pf-HR :0.94449: L2-HR :0.92689: (Sim:1h20m42s) 
CPU  0 inst:  304000000 cyc:  310088943 now IPC :0.27923: AVG IPC :0.97701: L2-Pf-HR :0.94420: L2-HR :0.92653: (Sim:1h20m57s) 
CPU  0 inst:  305000001 cyc:  313670523 now IPC :0.27921: AVG IPC :0.96902: L2-Pf-HR :0.94391: L2-HR :0.92618: (Sim:1h21m12s) 
CPU  0 inst:  306000003 cyc:  317250189 now IPC :0.27936: AVG IPC :0.96122: L2-Pf-HR :0.94362: L2-HR :0.92583: (Sim:1h21m28s) 
CPU  0 inst:  307000003 cyc:  320831569 now IPC :0.27922: AVG IPC :0.95358: L2-Pf-HR :0.94334: L2-HR :0.92548: (Sim:1h21m43s) 
CPU  0 inst:  308000002 cyc:  324412077 now IPC :0.27929: AVG IPC :0.94611: L2-Pf-HR :0.94305: L2-HR :0.92513: (Sim:1h21m58s) 
CPU  0 inst:  309000002 cyc:  327993194 now IPC :0.27924: AVG IPC :0.93881: L2-Pf-HR :0.94277: L2-HR :0.92479: (Sim:1h22m14s) 
CPU  0 inst:  310000003 cyc:  331573453 now IPC :0.27931: AVG IPC :0.93167: L2-Pf-HR :0.94249: L2-HR :0.92444: (Sim:1h22m29s) 
CPU  0 inst:  311000002 cyc:  335152991 now IPC :0.27937: AVG IPC :0.92468: L2-Pf-HR :0.94221: L2-HR :0.92410: (Sim:1h22m44s) 
CPU  0 inst:  312000003 cyc:  338732875 now IPC :0.27934: AVG IPC :0.91784: L2-Pf-HR :0.94193: L2-HR :0.92376: (Sim:1h22m59s) 
CPU  0 inst:  313000001 cyc:  342313112 now IPC :0.27931: AVG IPC :0.91114: L2-Pf-HR :0.94166: L2-HR :0.92342: (Sim:1h23m14s) 
CPU  0 inst:  314000003 cyc:  345894061 now IPC :0.27926: AVG IPC :0.90458: L2-Pf-HR :0.94138: L2-HR :0.92308: (Sim:1h23m30s) 
CPU  0 inst:  315000003 cyc:  349473744 now IPC :0.27935: AVG IPC :0.89816: L2-Pf-HR :0.94111: L2-HR :0.92275: (Sim:1h23m45s) 
CPU  0 inst:  316000000 cyc:  353055445 now IPC :0.27920: AVG IPC :0.89186: L2-Pf-HR :0.94083: L2-HR :0.92241: (Sim:1h24m0s) 
CPU  0 inst:  317000002 cyc:  356637393 now IPC :0.27918: AVG IPC :0.88569: L2-Pf-HR :0.94056: L2-HR :0.92208: (Sim:1h24m16s) 
CPU  0 inst:  318000001 cyc:  360218419 now IPC :0.27925: AVG IPC :0.87965: L2-Pf-HR :0.94029: L2-HR :0.92175: (Sim:1h24m31s) 
CPU  0 inst:  319000000 cyc:  363799409 now IPC :0.27925: AVG IPC :0.87372: L2-Pf-HR :0.94002: L2-HR :0.92142: (Sim:1h24m46s) 
CPU  0 inst:  320000003 cyc:  367379280 now IPC :0.27934: AVG IPC :0.86791: L2-Pf-HR :0.93975: L2-HR :0.92109: (Sim:1h25m1s) 
CPU  0 inst:  321000000 cyc:  370958397 now IPC :0.27940: AVG IPC :0.86222: L2-Pf-HR :0.93949: L2-HR :0.92077: (Sim:1h25m17s) 
CPU  0 inst:  322000001 cyc:  374539053 now IPC :0.27928: AVG IPC :0.85663: L2-Pf-HR :0.93922: L2-HR :0.92044: (Sim:1h25m32s) 
CPU  0 inst:  323000003 cyc:  378119690 now IPC :0.27928: AVG IPC :0.85115: L2-Pf-HR :0.93896: L2-HR :0.92012: (Sim:1h25m47s) 
CPU  0 inst:  324000002 cyc:  381699721 now IPC :0.27933: AVG IPC :0.84578: L2-Pf-HR :0.93869: L2-HR :0.91980: (Sim:1h26m3s) 
CPU  0 inst:  325000002 cyc:  385280703 now IPC :0.27925: AVG IPC :0.84050: L2-Pf-HR :0.93843: L2-HR :0.91948: (Sim:1h26m18s) 
CPU  0 inst:  326000001 cyc:  388862226 now IPC :0.27921: AVG IPC :0.83531: L2-Pf-HR :0.93817: L2-HR :0.91916: (Sim:1h26m33s) 
CPU  0 inst:  327000005 cyc:  390683509 now IPC :0.54907: AVG IPC :0.83398: L2-Pf-HR :0.93784: L2-HR :0.91871: (Sim:1h26m46s) 
CPU  0 inst:  328000004 cyc:  391178564 now IPC :2.01998: AVG IPC :0.83548: L2-Pf-HR :0.93798: L2-HR :0.91888: (Sim:1h26m54s) 
CPU  0 inst:  329000000 cyc:  391761752 now IPC :1.71471: AVG IPC :0.83679: L2-Pf-HR :0.93809: L2-HR :0.91904: (Sim:1h27m3s) 
CPU  0 inst:  330000002 cyc:  392326502 now IPC :1.77070: AVG IPC :0.83814: L2-Pf-HR :0.93800: L2-HR :0.91901: (Sim:1h27m12s) 
CPU  0 inst:  331000004 cyc:  392788638 now IPC :2.16387: AVG IPC :0.83970: L2-Pf-HR :0.93815: L2-HR :0.91920: (Sim:1h27m20s) 
CPU  0 inst:  332000003 cyc:  393286854 now IPC :2.00716: AVG IPC :0.84119: L2-Pf-HR :0.93827: L2-HR :0.91937: (Sim:1h27m28s) 
CPU  0 inst:  333000000 cyc:  393790473 now IPC :1.98562: AVG IPC :0.84265: L2-Pf-HR :0.93824: L2-HR :0.91937: (Sim:1h27m37s) 
CPU  0 inst:  334000002 cyc:  394251362 now IPC :2.16972: AVG IPC :0.84421: L2-Pf-HR :0.93841: L2-HR :0.91958: (Sim:1h27m45s) 
CPU  0 inst:  335000005 cyc:  394979127 now IPC :1.37407: AVG IPC :0.84519: L2-Pf-HR :0.93829: L2-HR :0.91950: (Sim:1h27m54s) 
CPU  0 inst:  336000000 cyc:  395479815 now IPC :1.99724: AVG IPC :0.84665: L2-Pf-HR :0.93839: L2-HR :0.91964: (Sim:1h28m3s) 
CPU  0 inst:  337000002 cyc:  395956198 now IPC :2.09916: AVG IPC :0.84816: L2-Pf-HR :0.93856: L2-HR :0.91985: (Sim:1h28m11s) 
CPU  0 inst:  338000000 cyc:  396557344 now IPC :1.66349: AVG IPC :0.84940: L2-Pf-HR :0.93845: L2-HR :0.91980: (Sim:1h28m19s) 
CPU  0 inst:  339000003 cyc:  397019492 now IPC :2.16382: AVG IPC :0.85093: L2-Pf-HR :0.93858: L2-HR :0.91996: (Sim:1h28m28s) 
CPU  0 inst:  340000004 cyc:  397470094 now IPC :2.21926: AVG IPC :0.85249: L2-Pf-HR :0.93874: L2-HR :0.92016: (Sim:1h28m35s) 
CPU  0 inst:  341000002 cyc:  397955551 now IPC :2.05991: AVG IPC :0.85397: L2-Pf-HR :0.93886: L2-HR :0.92033: (Sim:1h28m43s) 
CPU  0 inst:  342000003 cyc:  398455933 now IPC :1.99848: AVG IPC :0.85541: L2-Pf-HR :0.93883: L2-HR :0.92032: (Sim:1h28m51s) 
CPU  0 inst:  343000005 cyc:  398928706 now IPC :2.11518: AVG IPC :0.85690: L2-Pf-HR :0.93897: L2-HR :0.92050: (Sim:1h28m59s) 
CPU  0 inst:  344000001 cyc:  399578204 now IPC :1.53964: AVG IPC :0.85802: L2-Pf-HR :0.93884: L2-HR :0.92040: (Sim:1h29m9s) 
CPU  0 inst:  345000001 cyc:  400043366 now IPC :2.14979: AVG IPC :0.85952: L2-Pf-HR :0.93896: L2-HR :0.92056: (Sim:1h29m17s) 
CPU  0 inst:  346000004 cyc:  400579742 now IPC :1.86437: AVG IPC :0.86087: L2-Pf-HR :0.93906: L2-HR :0.92070: (Sim:1h29m24s) 
CPU  0 inst:  347000000 cyc:  401122075 now IPC :1.84388: AVG IPC :0.86220: L2-Pf-HR :0.93899: L2-HR :0.92068: (Sim:1h29m33s) 
CPU  0 inst:  348000004 cyc:  401577022 now IPC :2.19807: AVG IPC :0.86372: L2-Pf-HR :0.93914: L2-HR :0.92086: (Sim:1h29m41s) 
CPU  0 inst:  349000004 cyc:  402062891 now IPC :2.05817: AVG IPC :0.86517: L2-Pf-HR :0.93927: L2-HR :0.92103: (Sim:1h29m49s) 
CPU  0 inst:  350000000 cyc:  402553868 now IPC :2.03675: AVG IPC :0.86660: L2-Pf-HR :0.93926: L2-HR :0.92105: (Sim:1h29m57s) 
CPU  0 inst:  351000001 cyc:  403012028 now IPC :2.18265: AVG IPC :0.86810: L2-Pf-HR :0.93943: L2-HR :0.92126: (Sim:1h30m5s) 
CPU  0 inst:  352000002 cyc:  403664674 now IPC :1.53223: AVG IPC :0.86917: L2-Pf-HR :0.93932: L2-HR :0.92116: (Sim:1h30m14s) 
CPU  0 inst:  353000005 cyc:  404150853 now IPC :2.05686: AVG IPC :0.87061: L2-Pf-HR :0.93941: L2-HR :0.92129: (Sim:1h30m23s) 
CPU  0 inst:  354000002 cyc:  404626712 now IPC :2.10146: AVG IPC :0.87206: L2-Pf-HR :0.93957: L2-HR :0.92148: (Sim:1h30m30s) 
CPU  0 inst:  355000001 cyc:  405231825 now IPC :1.65258: AVG IPC :0.87323: L2-Pf-HR :0.93945: L2-HR :0.92140: (Sim:1h30m39s) 
CPU  0 inst:  356000005 cyc:  405692624 now IPC :2.17015: AVG IPC :0.87470: L2-Pf-HR :0.93957: L2-HR :0.92155: (Sim:1h30m47s) 
CPU  0 inst:  357000002 cyc:  406143674 now IPC :2.21704: AVG IPC :0.87620: L2-Pf-HR :0.93973: L2-HR :0.92175: (Sim:1h30m55s) 
CPU  0 inst:  358000003 cyc:  406640107 now IPC :2.01437: AVG IPC :0.87759: L2-Pf-HR :0.93981: L2-HR :0.92187: (Sim:1h31m3s) 
CPU  0 inst:  359000000 cyc:  407125314 now IPC :2.06097: AVG IPC :0.87900: L2-Pf-HR :0.93985: L2-HR :0.92193: (Sim:1h31m11s) 
CPU  0 inst:  360000000 cyc:  407596687 now IPC :2.12146: AVG IPC :0.88044: L2-Pf-HR :0.93999: L2-HR :0.92211: (Sim:1h31m19s) 
CPU  0 inst:  361000004 cyc:  408235939 now IPC :1.56433: AVG IPC :0.88152: L2-Pf-HR :0.93986: L2-HR :0.92201: (Sim:1h31m28s) 
CPU  0 inst:  362000001 cyc:  408706248 now IPC :2.12626: AVG IPC :0.88295: L2-Pf-HR :0.93998: L2-HR :0.92215: (Sim:1h31m36s) 
CPU  0 inst:  363000002 cyc:  409240077 now IPC :1.87326: AVG IPC :0.88425: L2-Pf-HR :0.94006: L2-HR :0.92228: (Sim:1h31m44s) 
CPU  0 inst:  364000004 cyc:  409787372 now IPC :1.82717: AVG IPC :0.88551: L2-Pf-HR :0.94001: L2-HR :0.92226: (Sim:1h31m52s) 
CPU  0 inst:  365000000 cyc:  410244258 now IPC :2.18872: AVG IPC :0.88697: L2-Pf-HR :0.94015: L2-HR :0.92243: (Sim:1h32m0s) 
CPU  0 inst:  366000003 cyc:  410732044 now IPC :2.05009: AVG IPC :0.88835: L2-Pf-HR :0.94025: L2-HR :0.92258: (Sim:1h32m8s) 
CPU  0 inst:  367000005 cyc:  411217726 now IPC :2.05896: AVG IPC :0.88974: L2-Pf-HR :0.94026: L2-HR :0.92260: (Sim:1h32m16s) 
CPU  0 inst:  368000003 cyc:  411687752 now IPC :2.12754: AVG IPC :0.89115: L2-Pf-HR :0.94043: L2-HR :0.92281: (Sim:1h32m24s) 
CPU  0 inst:  369000000 cyc:  412333542 now IPC :1.54849: AVG IPC :0.89219: L2-Pf-HR :0.94031: L2-HR :0.92270: (Sim:1h32m33s) 
CPU  0 inst:  370000002 cyc:  412818517 now IPC :2.06197: AVG IPC :0.89356: L2-Pf-HR :0.94040: L2-HR :0.92283: (Sim:1h32m42s) 
CPU  0 inst:  371000004 cyc:  413339117 now IPC :1.92086: AVG IPC :0.89486: L2-Pf-HR :0.94049: L2-HR :0.92296: (Sim:1h32m49s) 
CPU  0 inst:  372000005 cyc:  413889719 now IPC :1.81620: AVG IPC :0.89609: L2-Pf-HR :0.94044: L2-HR :0.92292: (Sim:1h32m58s) 
CPU  0 inst:  373000001 cyc:  414350510 now IPC :2.17017: AVG IPC :0.89751: L2-Pf-HR :0.94054: L2-HR :0.92305: (Sim:1h33m6s) 
CPU  0 inst:  374000000 cyc:  414811141 now IPC :2.17093: AVG IPC :0.89893: L2-Pf-HR :0.94069: L2-HR :0.92324: (Sim:1h33m14s) 
CPU  0 inst:  375000001 cyc:  415319092 now IPC :1.96870: AVG IPC :0.90024: L2-Pf-HR :0.94066: L2-HR :0.92323: (Sim:1h33m22s) 
CPU  0 inst:  376000003 cyc:  415778545 now IPC :2.17651: AVG IPC :0.90165: L2-Pf-HR :0.94078: L2-HR :0.92339: (Sim:1h33m30s) 
CPU  0 inst:  377000003 cyc:  416248584 now IPC :2.12748: AVG IPC :0.90304: L2-Pf-HR :0.94091: L2-HR :0.92355: (Sim:1h33m38s) 
CPU  0 inst:  378000003 cyc:  416915046 now IPC :1.50046: AVG IPC :0.90400: L2-Pf-HR :0.94076: L2-HR :0.92341: (Sim:1h33m47s) 
CPU  0 inst:  379000001 cyc:  417372986 now IPC :2.18369: AVG IPC :0.90540: L2-Pf-HR :0.94088: L2-HR :0.92356: (Sim:1h33m55s) 
CPU  0 inst:  380000003 cyc:  417900939 now IPC :1.89411: AVG IPC :0.90666: L2-Pf-HR :0.94097: L2-HR :0.92369: (Sim:1h34m3s) 
CPU  0 inst:  381000003 cyc:  418438318 now IPC :1.86088: AVG IPC :0.90788: L2-Pf-HR :0.94091: L2-HR :0.92364: (Sim:1h34m11s) 
CPU  0 inst:  382000004 cyc:  418895914 now IPC :2.18534: AVG IPC :0.90928: L2-Pf-HR :0.94103: L2-HR :0.92379: (Sim:1h34m19s) 
CPU  0 inst:  383000003 cyc:  419384165 now IPC :2.04812: AVG IPC :0.91061: L2-Pf-HR :0.94113: L2-HR :0.92393: (Sim:1h34m27s) 
CPU  0 inst:  384000005 cyc:  419876090 now IPC :2.03283: AVG IPC :0.91193: L2-Pf-HR :0.94112: L2-HR :0.92393: (Sim:1h34m35s) 
CPU  0 inst:  385000002 cyc:  420349998 now IPC :2.11011: AVG IPC :0.91328: L2-Pf-HR :0.94124: L2-HR :0.92409: (Sim:1h34m43s) 
CPU  0 inst:  386000001 cyc:  420981268 now IPC :1.58411: AVG IPC :0.91429: L2-Pf-HR :0.94113: L2-HR :0.92400: (Sim:1h34m51s) 
CPU  0 inst:  387000005 cyc:  421451501 now IPC :2.12661: AVG IPC :0.91565: L2-Pf-HR :0.94122: L2-HR :0.92412: (Sim:1h35m0s) 
CPU  0 inst:  388000000 cyc:  421978975 now IPC :1.89582: AVG IPC :0.91688: L2-Pf-HR :0.94131: L2-HR :0.92424: (Sim:1h35m8s) 
CPU  0 inst:  389000004 cyc:  422516415 now IPC :1.86068: AVG IPC :0.91808: L2-Pf-HR :0.94126: L2-HR :0.92422: (Sim:1h35m16s) 
CPU  0 inst:  390000004 cyc:  422974913 now IPC :2.18103: AVG IPC :0.91945: L2-Pf-HR :0.94137: L2-HR :0.92436: (Sim:1h35m24s) 
CPU  0 inst:  391000003 cyc:  423443327 now IPC :2.13486: AVG IPC :0.92080: L2-Pf-HR :0.94153: L2-HR :0.92455: (Sim:1h35m32s) 
CPU  0 inst:  392000001 cyc:  423956843 now IPC :1.94736: AVG IPC :0.92204: L2-Pf-HR :0.94148: L2-HR :0.92452: (Sim:1h35m40s) 
CPU  0 inst:  393000003 cyc:  424417416 now IPC :2.17121: AVG IPC :0.92340: L2-Pf-HR :0.94160: L2-HR :0.92467: (Sim:1h35m48s) 
CPU  0 inst:  394000002 cyc:  424931324 now IPC :1.94587: AVG IPC :0.92464: L2-Pf-HR :0.94167: L2-HR :0.92477: (Sim:1h35m56s) 
CPU  0 inst:  395000000 cyc:  425537896 now IPC :1.64861: AVG IPC :0.92568: L2-Pf-HR :0.94162: L2-HR :0.92471: (Sim:1h36m6s) 
CPU  0 inst:  396000000 cyc:  425998127 now IPC :2.17282: AVG IPC :0.92703: L2-Pf-HR :0.94172: L2-HR :0.92485: (Sim:1h36m13s) 
CPU  0 inst:  397000003 cyc:  426525606 now IPC :1.89582: AVG IPC :0.92823: L2-Pf-HR :0.94180: L2-HR :0.92496: (Sim:1h36m21s) 
CPU  0 inst:  398000002 cyc:  427078668 now IPC :1.80811: AVG IPC :0.92937: L2-Pf-HR :0.94172: L2-HR :0.92491: (Sim:1h36m30s) 
CPU  0 inst:  399000002 cyc:  427538619 now IPC :2.17414: AVG IPC :0.93071: L2-Pf-HR :0.94184: L2-HR :0.92506: (Sim:1h36m38s) 
CPU  0 inst:  400000000 cyc:  428027908 now IPC :2.04378: AVG IPC :0.93199: L2-Pf-HR :0.94193: L2-HR :0.92519: (Sim:1h36m46s) 
CPU  0 inst:  401000001 cyc:  428524697 now IPC :2.01293: AVG IPC :0.93324: L2-Pf-HR :0.94192: L2-HR :0.92518: (Sim:1h36m54s) 
CPU  0 inst:  402000002 cyc:  428999682 now IPC :2.10533: AVG IPC :0.93455: L2-Pf-HR :0.94203: L2-HR :0.92533: (Sim:1h37m2s) 
CPU  0 inst:  403000000 cyc:  429628813 now IPC :1.58949: AVG IPC :0.93551: L2-Pf-HR :0.94191: L2-HR :0.92524: (Sim:1h37m11s) 
CPU  0 inst:  404000004 cyc:  430093016 now IPC :2.15424: AVG IPC :0.93682: L2-Pf-HR :0.94200: L2-HR :0.92536: (Sim:1h37m20s) 
CPU  0 inst:  405000001 cyc:  430622516 now IPC :1.88857: AVG IPC :0.93800: L2-Pf-HR :0.94208: L2-HR :0.92547: (Sim:1h37m28s) 
CPU  0 inst:  406000004 cyc:  431163901 now IPC :1.84712: AVG IPC :0.93914: L2-Pf-HR :0.94202: L2-HR :0.92545: (Sim:1h37m37s) 
CPU  0 inst:  407000002 cyc:  431628198 now IPC :2.15379: AVG IPC :0.94045: L2-Pf-HR :0.94213: L2-HR :0.92558: (Sim:1h37m45s) 
CPU  0 inst:  408000000 cyc:  432114866 now IPC :2.05478: AVG IPC :0.94171: L2-Pf-HR :0.94223: L2-HR :0.92572: (Sim:1h37m53s) 
CPU  0 inst:  409000005 cyc:  432605691 now IPC :2.03740: AVG IPC :0.94296: L2-Pf-HR :0.94222: L2-HR :0.92573: (Sim:1h38m1s) 
CPU  0 inst:  410000004 cyc:  433066041 now IPC :2.17226: AVG IPC :0.94427: L2-Pf-HR :0.94234: L2-HR :0.92588: (Sim:1h38m9s) 
CPU  0 inst:  411000002 cyc:  433653461 now IPC :1.70236: AVG IPC :0.94529: L2-Pf-HR :0.94230: L2-HR :0.92587: (Sim:1h38m17s) 
CPU  0 inst:  412000005 cyc:  434188469 now IPC :1.86914: AVG IPC :0.94644: L2-Pf-HR :0.94233: L2-HR :0.92590: (Sim:1h38m27s) 
CPU  0 inst:  413000001 cyc:  434648356 now IPC :2.17444: AVG IPC :0.94774: L2-Pf-HR :0.94243: L2-HR :0.92603: (Sim:1h38m35s) 
CPU  0 inst:  414000004 cyc:  435174011 now IPC :1.90239: AVG IPC :0.94889: L2-Pf-HR :0.94250: L2-HR :0.92614: (Sim:1h38m42s) 
CPU  0 inst:  415000000 cyc:  435721033 now IPC :1.82807: AVG IPC :0.95000: L2-Pf-HR :0.94244: L2-HR :0.92610: (Sim:1h38m52s) 
CPU  0 inst:  416000001 cyc:  436170645 now IPC :2.22414: AVG IPC :0.95132: L2-Pf-HR :0.94256: L2-HR :0.92625: (Sim:1h39m0s) 
CPU  0 inst:  417000005 cyc:  436654758 now IPC :2.06564: AVG IPC :0.95255: L2-Pf-HR :0.94265: L2-HR :0.92637: (Sim:1h39m7s) 
CPU  0 inst:  418000004 cyc:  437150539 now IPC :2.01702: AVG IPC :0.95376: L2-Pf-HR :0.94264: L2-HR :0.92638: (Sim:1h39m16s) 
CPU  0 inst:  419000005 cyc:  437626024 now IPC :2.10312: AVG IPC :0.95502: L2-Pf-HR :0.94274: L2-HR :0.92651: (Sim:1h39m24s) 
CPU  0 inst:  420000005 cyc:  438257718 now IPC :1.58305: AVG IPC :0.95592: L2-Pf-HR :0.94265: L2-HR :0.92642: (Sim:1h39m33s) 
CPU  0 inst:  421000000 cyc:  438722786 now IPC :2.15021: AVG IPC :0.95719: L2-Pf-HR :0.94273: L2-HR :0.92653: (Sim:1h39m41s) 
CPU  0 inst:  422000004 cyc:  439262167 now IPC :1.85398: AVG IPC :0.95830: L2-Pf-HR :0.94280: L2-HR :0.92663: (Sim:1h39m49s) 
CPU  0 inst:  423000000 cyc:  439802754 now IPC :1.84983: AVG IPC :0.95939: L2-Pf-HR :0.94275: L2-HR :0.92660: (Sim:1h39m59s) 
CPU  0 inst:  424000001 cyc:  440266599 now IPC :2.15589: AVG IPC :0.96066: L2-Pf-HR :0.94285: L2-HR :0.92673: (Sim:1h40m8s) 
CPU  0 inst:  425000002 cyc:  440756199 now IPC :2.04249: AVG IPC :0.96186: L2-Pf-HR :0.94294: L2-HR :0.92685: (Sim:1h40m15s) 
CPU  0 inst:  426000004 cyc:  441238479 now IPC :2.07349: AVG IPC :0.96308: L2-Pf-HR :0.94293: L2-HR :0.92685: (Sim:1h40m23s) 
CPU  0 inst:  427000001 cyc:  441697279 now IPC :2.17959: AVG IPC :0.96435: L2-Pf-HR :0.94305: L2-HR :0.92700: (Sim:1h40m31s) 
CPU  0 inst:  428000001 cyc:  442329126 now IPC :1.58266: AVG IPC :0.96523: L2-Pf-HR :0.94295: L2-HR :0.92692: (Sim:1h40m41s) 
CPU  0 inst:  429000000 cyc:  442824893 now IPC :2.01707: AVG IPC :0.96641: L2-Pf-HR :0.94301: L2-HR :0.92699: (Sim:1h40m49s) 
CPU  0 inst:  430000003 cyc:  443286583 now IPC :2.16596: AVG IPC :0.96766: L2-Pf-HR :0.94311: L2-HR :0.92712: (Sim:1h40m56s) 
CPU  0 inst:  431000000 cyc:  443841891 now IPC :1.80080: AVG IPC :0.96871: L2-Pf-HR :0.94316: L2-HR :0.92719: (Sim:1h41m4s) 
CPU  0 inst:  432000002 cyc:  444372935 now IPC :1.88309: AVG IPC :0.96980: L2-Pf-HR :0.94312: L2-HR :0.92717: (Sim:1h41m13s) 
CPU  0 inst:  433000003 cyc:  444821550 now IPC :2.22908: AVG IPC :0.97108: L2-Pf-HR :0.94323: L2-HR :0.92731: (Sim:1h41m20s) 
CPU  0 inst:  434000000 cyc:  445304440 now IPC :2.07086: AVG IPC :0.97227: L2-Pf-HR :0.94331: L2-HR :0.92743: (Sim:1h41m28s) 
CPU  0 inst:  435000004 cyc:  445803391 now IPC :2.00421: AVG IPC :0.97343: L2-Pf-HR :0.94330: L2-HR :0.92742: (Sim:1h41m36s) 
CPU  0 inst:  436000002 cyc:  446278396 now IPC :2.10524: AVG IPC :0.97464: L2-Pf-HR :0.94339: L2-HR :0.92754: (Sim:1h41m44s) 
CPU  0 inst:  437000001 cyc:  446919817 now IPC :1.55904: AVG IPC :0.97548: L2-Pf-HR :0.94329: L2-HR :0.92744: (Sim:1h41m52s) 
CPU  0 inst:  438000005 cyc:  447383090 now IPC :2.15856: AVG IPC :0.97670: L2-Pf-HR :0.94337: L2-HR :0.92755: (Sim:1h42m0s) 
CPU  0 inst:  439000005 cyc:  447919464 now IPC :1.86437: AVG IPC :0.97777: L2-Pf-HR :0.94343: L2-HR :0.92764: (Sim:1h42m8s) 
CPU  0 inst:  440000000 cyc:  448469745 now IPC :1.81724: AVG IPC :0.97880: L2-Pf-HR :0.94337: L2-HR :0.92760: (Sim:1h42m17s) 
CPU  0 inst:  441000000 cyc:  448925676 now IPC :2.19331: AVG IPC :0.98004: L2-Pf-HR :0.94347: L2-HR :0.92772: (Sim:1h42m25s) 
CPU  0 inst:  442000002 cyc:  449412218 now IPC :2.05533: AVG IPC :0.98120: L2-Pf-HR :0.94355: L2-HR :0.92783: (Sim:1h42m32s) 
CPU  0 inst:  443000002 cyc:  449899634 now IPC :2.05164: AVG IPC :0.98237: L2-Pf-HR :0.94354: L2-HR :0.92783: (Sim:1h42m40s) 
CPU  0 inst:  444000001 cyc:  450356970 now IPC :2.18657: AVG IPC :0.98359: L2-Pf-HR :0.94365: L2-HR :0.92797: (Sim:1h42m48s) 
CPU  0 inst:  445000005 cyc:  451002999 now IPC :1.54792: AVG IPC :0.98440: L2-Pf-HR :0.94356: L2-HR :0.92788: (Sim:1h42m57s) 
CPU  0 inst:  446000003 cyc:  451498524 now IPC :2.01806: AVG IPC :0.98554: L2-Pf-HR :0.94361: L2-HR :0.92795: (Sim:1h43m5s) 
CPU  0 inst:  447000003 cyc:  451969702 now IPC :2.12234: AVG IPC :0.98673: L2-Pf-HR :0.94372: L2-HR :0.92808: (Sim:1h43m13s) 
CPU  0 inst:  448000005 cyc:  452545630 now IPC :1.73633: AVG IPC :0.98768: L2-Pf-HR :0.94368: L2-HR :0.92807: (Sim:1h43m21s) 
CPU  0 inst:  449000004 cyc:  453038246 now IPC :2.02998: AVG IPC :0.98882: L2-Pf-HR :0.94370: L2-HR :0.92810: (Sim:1h43m29s) 
CPU  0 inst:  450000003 cyc:  453484372 now IPC :2.24152: AVG IPC :0.99005: L2-Pf-HR :0.94381: L2-HR :0.92824: (Sim:1h43m36s) 
CPU  0 inst:  451000003 cyc:  453970943 now IPC :2.05520: AVG IPC :0.99120: L2-Pf-HR :0.94389: L2-HR :0.92835: (Sim:1h43m44s) 
CPU  0 inst:  452000005 cyc:  454459072 now IPC :2.04864: AVG IPC :0.99234: L2-Pf-HR :0.94387: L2-HR :0.92834: (Sim:1h43m52s) 
CPU  0 inst:  453000005 cyc:  454927247 now IPC :2.13595: AVG IPC :0.99352: L2-Pf-HR :0.94396: L2-HR :0.92846: (Sim:1h43m59s) 
CPU  0 inst:  454000004 cyc:  455571495 now IPC :1.55220: AVG IPC :0.99431: L2-Pf-HR :0.94385: L2-HR :0.92835: (Sim:1h44m8s) 
CPU  0 inst:  455000005 cyc:  456036748 now IPC :2.14937: AVG IPC :0.99549: L2-Pf-HR :0.94393: L2-HR :0.92846: (Sim:1h44m16s) 
CPU  0 inst:  456000000 cyc:  456567745 now IPC :1.88324: AVG IPC :0.99652: L2-Pf-HR :0.94399: L2-HR :0.92854: (Sim:1h44m24s) 
CPU  0 inst:  457000002 cyc:  457110964 now IPC :1.84088: AVG IPC :0.99753: L2-Pf-HR :0.94393: L2-HR :0.92850: (Sim:1h44m33s) 
CPU  0 inst:  458000004 cyc:  457566454 now IPC :2.19544: AVG IPC :0.99872: L2-Pf-HR :0.94402: L2-HR :0.92862: (Sim:1h44m40s) 
CPU  0 inst:  459000005 cyc:  458062481 now IPC :2.01602: AVG IPC :0.99983: L2-Pf-HR :0.94409: L2-HR :0.92872: (Sim:1h44m48s) 
CPU  0 inst:  460000002 cyc:  458552801 now IPC :2.03948: AVG IPC :1.00094: L2-Pf-HR :0.94409: L2-HR :0.92872: (Sim:1h44m56s) 
CPU  0 inst:  461000000 cyc:  459010677 now IPC :2.18399: AVG IPC :1.00212: L2-Pf-HR :0.94420: L2-HR :0.92886: (Sim:1h45m4s) 
CPU  0 inst:  462000004 cyc:  459660476 now IPC :1.53894: AVG IPC :1.00289: L2-Pf-HR :0.94412: L2-HR :0.92878: (Sim:1h45m13s) 
CPU  0 inst:  463000000 cyc:  460146226 now IPC :2.05866: AVG IPC :1.00400: L2-Pf-HR :0.94418: L2-HR :0.92886: (Sim:1h45m21s) 
CPU  0 inst:  464000000 cyc:  460625513 now IPC :2.08643: AVG IPC :1.00513: L2-Pf-HR :0.94428: L2-HR :0.92899: (Sim:1h45m28s) 
CPU  0 inst:  465000000 cyc:  461218429 now IPC :1.68658: AVG IPC :1.00601: L2-Pf-HR :0.94419: L2-HR :0.92892: (Sim:1h45m37s) 
CPU  0 inst:  466000000 cyc:  461676038 now IPC :2.18527: AVG IPC :1.00718: L2-Pf-HR :0.94425: L2-HR :0.92900: (Sim:1h45m45s) 
CPU  0 inst:  467000002 cyc:  462123417 now IPC :2.23525: AVG IPC :1.00837: L2-Pf-HR :0.94436: L2-HR :0.92913: (Sim:1h46m0s) 
CPU  0 inst:  468000000 cyc:  462622212 now IPC :2.00483: AVG IPC :1.00945: L2-Pf-HR :0.94444: L2-HR :0.92924: (Sim:1h46m16s) 
CPU  0 inst:  469000000 cyc:  463113496 now IPC :2.03548: AVG IPC :1.01054: L2-Pf-HR :0.94441: L2-HR :0.92921: (Sim:1h46m34s) 
CPU  0 inst:  470000002 cyc:  463582392 now IPC :2.13267: AVG IPC :1.01168: L2-Pf-HR :0.94450: L2-HR :0.92933: (Sim:1h46m49s) 
CPU  0 inst:  471000004 cyc:  464204821 now IPC :1.60661: AVG IPC :1.01248: L2-Pf-HR :0.94440: L2-HR :0.92924: (Sim:1h47m7s) 
CPU  0 inst:  472000002 cyc:  464676965 now IPC :2.11799: AVG IPC :1.01360: L2-Pf-HR :0.94448: L2-HR :0.92934: (Sim:1h47m25s) 
CPU  0 inst:  473000001 cyc:  465206161 now IPC :1.88966: AVG IPC :1.01460: L2-Pf-HR :0.94454: L2-HR :0.92942: (Sim:1h47m40s) 
CPU  0 inst:  474000000 cyc:  465754286 now IPC :1.82440: AVG IPC :1.01556: L2-Pf-HR :0.94449: L2-HR :0.92939: (Sim:1h47m59s) 
CPU  0 inst:  475000003 cyc:  466211214 now IPC :2.18854: AVG IPC :1.01671: L2-Pf-HR :0.94458: L2-HR :0.92950: (Sim:1h48m15s) 
CPU  0 inst:  476000002 cyc:  466705321 now IPC :2.02385: AVG IPC :1.01778: L2-Pf-HR :0.94465: L2-HR :0.92960: (Sim:1h48m30s) 
CPU  0 inst:  477000002 cyc:  467199577 now IPC :2.02324: AVG IPC :1.01884: L2-Pf-HR :0.94464: L2-HR :0.92960: (Sim:1h48m48s) 
CPU  0 inst:  478000001 cyc:  467663813 now IPC :2.15407: AVG IPC :1.01997: L2-Pf-HR :0.94475: L2-HR :0.92973: (Sim:1h49m4s) 
CPU  0 inst:  479000002 cyc:  468297313 now IPC :1.57853: AVG IPC :1.02073: L2-Pf-HR :0.94465: L2-HR :0.92965: (Sim:1h49m22s) 
CPU  0 inst:  480000002 cyc:  468781864 now IPC :2.06377: AVG IPC :1.02181: L2-Pf-HR :0.94471: L2-HR :0.92972: (Sim:1h49m39s) 
CPU  0 inst:  481000003 cyc:  469282827 now IPC :1.99616: AVG IPC :1.02285: L2-Pf-HR :0.94479: L2-HR :0.92982: (Sim:1h49m55s) 
CPU  0 inst:  482000003 cyc:  469852847 now IPC :1.75432: AVG IPC :1.02374: L2-Pf-HR :0.94472: L2-HR :0.92979: (Sim:1h50m13s) 
CPU  0 inst:  483000003 cyc:  470314342 now IPC :2.16687: AVG IPC :1.02486: L2-Pf-HR :0.94480: L2-HR :0.92988: (Sim:1h50m30s) 
CPU  0 inst:  484000004 cyc:  470768907 now IPC :2.19991: AVG IPC :1.02600: L2-Pf-HR :0.94490: L2-HR :0.93000: (Sim:1h50m45s) 
CPU  0 inst:  485000000 cyc:  471281140 now IPC :1.95223: AVG IPC :1.02701: L2-Pf-HR :0.94490: L2-HR :0.93002: (Sim:1h51m1s) 
CPU  0 inst:  486000005 cyc:  471756181 now IPC :2.10509: AVG IPC :1.02810: L2-Pf-HR :0.94496: L2-HR :0.93010: (Sim:1h51m19s) 
CPU  0 inst:  487000002 cyc:  472228445 now IPC :2.11745: AVG IPC :1.02919: L2-Pf-HR :0.94505: L2-HR :0.93021: (Sim:1h51m35s) 
CPU  0 inst:  488000004 cyc:  472868246 now IPC :1.56299: AVG IPC :1.02991: L2-Pf-HR :0.94496: L2-HR :0.93012: (Sim:1h51m54s) 
CPU  0 inst:  489000001 cyc:  473341755 now IPC :2.11189: AVG IPC :1.03100: L2-Pf-HR :0.94503: L2-HR :0.93022: (Sim:1h52m11s) 
CPU  0 inst:  490000000 cyc:  473875530 now IPC :1.87345: AVG IPC :1.03195: L2-Pf-HR :0.94508: L2-HR :0.93029: (Sim:1h52m27s) 
CPU  0 inst:  491000003 cyc:  474424534 now IPC :1.82149: AVG IPC :1.03286: L2-Pf-HR :0.94502: L2-HR :0.93025: (Sim:1h52m45s) 
CPU  0 inst:  492000002 cyc:  474883967 now IPC :2.17659: AVG IPC :1.03397: L2-Pf-HR :0.94512: L2-HR :0.93036: (Sim:1h53m2s) 
CPU  0 inst:  493000000 cyc:  475371068 now IPC :2.05296: AVG IPC :1.03502: L2-Pf-HR :0.94518: L2-HR :0.93046: (Sim:1h53m17s) 
CPU  0 inst:  494000001 cyc:  475864640 now IPC :2.02605: AVG IPC :1.03605: L2-Pf-HR :0.94517: L2-HR :0.93046: (Sim:1h53m34s) 
CPU  0 inst:  495000004 cyc:  476338445 now IPC :2.11058: AVG IPC :1.03712: L2-Pf-HR :0.94529: L2-HR :0.93059: (Sim:1h53m52s) 
CPU  0 inst:  496000004 cyc:  476960049 now IPC :1.60874: AVG IPC :1.03787: L2-Pf-HR :0.94518: L2-HR :0.93049: (Sim:1h54m8s) 
CPU  0 inst:  497000000 cyc:  477441818 now IPC :2.07568: AVG IPC :1.03892: L2-Pf-HR :0.94524: L2-HR :0.93056: (Sim:1h54m25s) 
CPU  0 inst:  498000000 cyc:  477974928 now IPC :1.87579: AVG IPC :1.03985: L2-Pf-HR :0.94529: L2-HR :0.93064: (Sim:1h54m42s) 
CPU  0 inst:  499000000 cyc:  478515575 now IPC :1.84964: AVG IPC :1.04077: L2-Pf-HR :0.94525: L2-HR :0.93061: (Sim:1h55m0s) 
CPU  0 inst:  500000000 cyc:  478976682 now IPC :2.16869: AVG IPC :1.04186: L2-Pf-HR :0.94533: L2-HR :0.93071: (Sim:1h55m17s) 
CPU  0 inst:  501000002 cyc:  479442029 now IPC :2.14894: AVG IPC :1.04293: L2-Pf-HR :0.94544: L2-HR :0.93084: (Sim:1h55m33s) 
CPU  0 inst:  502000003 cyc:  479953532 now IPC :1.95502: AVG IPC :1.04391: L2-Pf-HR :0.94539: L2-HR :0.93081: (Sim:1h55m50s) 
CPU  0 inst:  503000005 cyc:  480414859 now IPC :2.16766: AVG IPC :1.04499: L2-Pf-HR :0.94548: L2-HR :0.93092: (Sim:1h56m7s) 
CPU  0 inst:  504000000 cyc:  480892980 now IPC :2.09151: AVG IPC :1.04603: L2-Pf-HR :0.94556: L2-HR :0.93102: (Sim:1h56m23s) 
CPU  0 inst:  505000002 cyc:  481547075 now IPC :1.52883: AVG IPC :1.04669: L2-Pf-HR :0.94546: L2-HR :0.93091: (Sim:1h56m41s) 
CPU  0 inst:  506000003 cyc:  482011265 now IPC :2.15429: AVG IPC :1.04776: L2-Pf-HR :0.94553: L2-HR :0.93101: (Sim:1h56m57s) 
CPU  0 inst:  507000001 cyc:  482544261 now IPC :1.87618: AVG IPC :1.04867: L2-Pf-HR :0.94558: L2-HR :0.93108: (Sim:1h57m14s) 
CPU  0 inst:  508000002 cyc:  483083002 now IPC :1.85618: AVG IPC :1.04958: L2-Pf-HR :0.94553: L2-HR :0.93104: (Sim:1h57m31s) 
CPU  0 inst:  509000002 cyc:  483546520 now IPC :2.15741: AVG IPC :1.05064: L2-Pf-HR :0.94563: L2-HR :0.93115: (Sim:1h57m49s) 
CPU  0 inst:  510000001 cyc:  484037613 now IPC :2.03627: AVG IPC :1.05164: L2-Pf-HR :0.94569: L2-HR :0.93124: (Sim:1h58m4s) 
CPU  0 inst:  511000003 cyc:  484530985 now IPC :2.02687: AVG IPC :1.05264: L2-Pf-HR :0.94568: L2-HR :0.93124: (Sim:1h58m21s) 
CPU  0 inst:  512000004 cyc:  485005909 now IPC :2.10560: AVG IPC :1.05367: L2-Pf-HR :0.94576: L2-HR :0.93134: (Sim:1h58m38s) 
CPU  0 inst:  513000003 cyc:  485662204 now IPC :1.52370: AVG IPC :1.05431: L2-Pf-HR :0.94567: L2-HR :0.93125: (Sim:1h58m56s) 
CPU  0 inst:  514000001 cyc:  486131735 now IPC :2.12978: AVG IPC :1.05535: L2-Pf-HR :0.94573: L2-HR :0.93133: (Sim:1h59m12s) 
CPU  0 inst:  515000003 cyc:  486669304 now IPC :1.86023: AVG IPC :1.05624: L2-Pf-HR :0.94578: L2-HR :0.93140: (Sim:1h59m29s) 
CPU  0 inst:  516000001 cyc:  487208234 now IPC :1.85552: AVG IPC :1.05713: L2-Pf-HR :0.94573: L2-HR :0.93136: (Sim:1h59m47s) 
CPU  0 inst:  517000002 cyc:  487676964 now IPC :2.13343: AVG IPC :1.05816: L2-Pf-HR :0.94581: L2-HR :0.93145: (Sim:2h0m4s) 
CPU  0 inst:  518000003 cyc:  488145713 now IPC :2.13334: AVG IPC :1.05920: L2-Pf-HR :0.94591: L2-HR :0.93157: (Sim:2h0m20s) 
CPU  0 inst:  519000003 cyc:  488644159 now IPC :2.00624: AVG IPC :1.06016: L2-Pf-HR :0.94585: L2-HR :0.93153: (Sim:2h0m36s) 
CPU  0 inst:  520000003 cyc:  489108039 now IPC :2.15573: AVG IPC :1.06121: L2-Pf-HR :0.94594: L2-HR :0.93163: (Sim:2h0m53s) 
CPU  0 inst:  521000002 cyc:  489658481 now IPC :1.81672: AVG IPC :1.06206: L2-Pf-HR :0.94594: L2-HR :0.93165: (Sim:2h1m10s) 
CPU  0 inst:  522000002 cyc:  490229715 now IPC :1.75060: AVG IPC :1.06286: L2-Pf-HR :0.94591: L2-HR :0.93162: (Sim:2h1m28s) 
CPU  0 inst:  523000002 cyc:  490693465 now IPC :2.15633: AVG IPC :1.06390: L2-Pf-HR :0.94598: L2-HR :0.93171: (Sim:2h1m44s) 
CPU  0 inst:  524000005 cyc:  491214163 now IPC :1.92050: AVG IPC :1.06481: L2-Pf-HR :0.94604: L2-HR :0.93178: (Sim:2h2m1s) 
CPU  0 inst:  525000000 cyc:  491763748 now IPC :1.81955: AVG IPC :1.06565: L2-Pf-HR :0.94599: L2-HR :0.93174: (Sim:2h2m19s) 
CPU  0 inst:  526000000 cyc:  492224386 now IPC :2.17090: AVG IPC :1.06669: L2-Pf-HR :0.94607: L2-HR :0.93183: (Sim:2h2m35s) 
CPU  0 inst:  527000002 cyc:  492716037 now IPC :2.03397: AVG IPC :1.06765: L2-Pf-HR :0.94614: L2-HR :0.93192: (Sim:2h2m51s) 
CPU  0 inst:  528000003 cyc:  493208386 now IPC :2.03108: AVG IPC :1.06862: L2-Pf-HR :0.94611: L2-HR :0.93190: (Sim:2h3m8s) 
CPU  0 inst:  529000004 cyc:  493684320 now IPC :2.10113: AVG IPC :1.06962: L2-Pf-HR :0.94619: L2-HR :0.93200: (Sim:2h3m25s) 
CPU  0 inst:  530000002 cyc:  494328533 now IPC :1.55228: AVG IPC :1.07025: L2-Pf-HR :0.94612: L2-HR :0.93191: (Sim:2h3m43s) 
CPU  0 inst:  531000001 cyc:  494793175 now IPC :2.15219: AVG IPC :1.07126: L2-Pf-HR :0.94618: L2-HR :0.93199: (Sim:2h3m59s) 
CPU  0 inst:  532000004 cyc:  495324285 now IPC :1.88285: AVG IPC :1.07214: L2-Pf-HR :0.94623: L2-HR :0.93206: (Sim:2h4m16s) 
CPU  0 inst:  533000000 cyc:  495858825 now IPC :1.87076: AVG IPC :1.07300: L2-Pf-HR :0.94617: L2-HR :0.93203: (Sim:2h4m33s) 
CPU  0 inst:  534000004 cyc:  496320651 now IPC :2.16533: AVG IPC :1.07402: L2-Pf-HR :0.94624: L2-HR :0.93211: (Sim:2h4m44s) 
CPU  0 inst:  535000001 cyc:  496815025 now IPC :2.02275: AVG IPC :1.07496: L2-Pf-HR :0.94630: L2-HR :0.93220: (Sim:2h4m52s) 
CPU  0 inst:  536000003 cyc:  497303191 now IPC :2.04849: AVG IPC :1.07592: L2-Pf-HR :0.94628: L2-HR :0.93218: (Sim:2h5m0s) 
CPU  0 inst:  537000005 cyc:  497764240 now IPC :2.16897: AVG IPC :1.07693: L2-Pf-HR :0.94636: L2-HR :0.93228: (Sim:2h5m11s) 
CPU  0 inst:  538000004 cyc:  498377672 now IPC :1.63017: AVG IPC :1.07762: L2-Pf-HR :0.94631: L2-HR :0.93222: (Sim:2h5m21s) 
CPU  0 inst:  539000002 cyc:  498872622 now IPC :2.02040: AVG IPC :1.07855: L2-Pf-HR :0.94635: L2-HR :0.93227: (Sim:2h5m30s) 
CPU  0 inst:  540000000 cyc:  499333474 now IPC :2.16989: AVG IPC :1.07956: L2-Pf-HR :0.94641: L2-HR :0.93236: (Sim:2h5m37s) 
CPU  0 inst:  541000002 cyc:  499869743 now IPC :1.86474: AVG IPC :1.08041: L2-Pf-HR :0.94647: L2-HR :0.93243: (Sim:2h5m45s) 
CPU  0 inst:  542000002 cyc:  500423068 now IPC :1.80726: AVG IPC :1.08121: L2-Pf-HR :0.94641: L2-HR :0.93238: (Sim:2h5m54s) 
CPU  0 inst:  543000003 cyc:  500872657 now IPC :2.22426: AVG IPC :1.08224: L2-Pf-HR :0.94649: L2-HR :0.93248: (Sim:2h6m1s) 
CPU  0 inst:  544000002 cyc:  501363540 now IPC :2.03714: AVG IPC :1.08318: L2-Pf-HR :0.94655: L2-HR :0.93256: (Sim:2h6m12s) 
CPU  0 inst:  545000003 cyc:  501860542 now IPC :2.01207: AVG IPC :1.08410: L2-Pf-HR :0.94653: L2-HR :0.93255: (Sim:2h6m21s) 
CPU  0 inst:  546000005 cyc:  502334604 now IPC :2.10943: AVG IPC :1.08507: L2-Pf-HR :0.94660: L2-HR :0.93263: (Sim:2h6m29s) 
CPU  0 inst:  547000000 cyc:  502958696 now IPC :1.60232: AVG IPC :1.08571: L2-Pf-HR :0.94651: L2-HR :0.93256: (Sim:2h6m38s) 
CPU  0 inst:  548000004 cyc:  503421478 now IPC :2.16085: AVG IPC :1.08670: L2-Pf-HR :0.94656: L2-HR :0.93263: (Sim:2h6m46s) 
CPU  0 inst:  549000001 cyc:  503955481 now IPC :1.87264: AVG IPC :1.08754: L2-Pf-HR :0.94661: L2-HR :0.93269: (Sim:2h6m54s) 
CPU  0 inst:  550000000 cyc:  504501870 now IPC :1.83020: AVG IPC :1.08834: L2-Pf-HR :0.94656: L2-HR :0.93266: (Sim:2h7m3s) 
CPU  0 inst:  551000000 cyc:  504965077 now IPC :2.15886: AVG IPC :1.08933: L2-Pf-HR :0.94663: L2-HR :0.93275: (Sim:2h7m11s) 
CPU  0 inst:  552000001 cyc:  505454917 now IPC :2.04149: AVG IPC :1.09025: L2-Pf-HR :0.94669: L2-HR :0.93283: (Sim:2h7m19s) 
CPU  0 inst:  553000000 cyc:  505940614 now IPC :2.05889: AVG IPC :1.09118: L2-Pf-HR :0.94667: L2-HR :0.93282: (Sim:2h7m27s) 
CPU  0 inst:  554000000 cyc:  506401271 now IPC :2.17081: AVG IPC :1.09217: L2-Pf-HR :0.94675: L2-HR :0.93292: (Sim:2h7m35s) 
CPU  0 inst:  555000001 cyc:  507035219 now IPC :1.57742: AVG IPC :1.09277: L2-Pf-HR :0.94669: L2-HR :0.93286: (Sim:2h7m44s) 
CPU  0 inst:  556000005 cyc:  507525814 now IPC :2.03835: AVG IPC :1.09369: L2-Pf-HR :0.94673: L2-HR :0.93291: (Sim:2h7m52s) 
CPU  0 inst:  557000000 cyc:  507993588 now IPC :2.13777: AVG IPC :1.09465: L2-Pf-HR :0.94680: L2-HR :0.93300: (Sim:2h8m0s) 
CPU  0 inst:  558000000 cyc:  508562245 now IPC :1.75853: AVG IPC :1.09540: L2-Pf-HR :0.94680: L2-HR :0.93302: (Sim:2h8m8s) 
CPU  0 inst:  559000002 cyc:  509079869 now IPC :1.93191: AVG IPC :1.09625: L2-Pf-HR :0.94678: L2-HR :0.93301: (Sim:2h8m17s) 
CPU  0 inst:  560000004 cyc:  509527545 now IPC :2.23376: AVG IPC :1.09725: L2-Pf-HR :0.94687: L2-HR :0.93312: (Sim:2h8m25s) 
CPU  0 inst:  561000004 cyc:  510012654 now IPC :2.06139: AVG IPC :1.09817: L2-Pf-HR :0.94693: L2-HR :0.93319: (Sim:2h8m32s) 
CPU  0 inst:  562000004 cyc:  510507605 now IPC :2.02040: AVG IPC :1.09907: L2-Pf-HR :0.94691: L2-HR :0.93318: (Sim:2h8m42s) 
CPU  0 inst:  563000003 cyc:  510983976 now IPC :2.09920: AVG IPC :1.10000: L2-Pf-HR :0.94698: L2-HR :0.93327: (Sim:2h8m52s) 
CPU  0 inst:  564000001 cyc:  511611974 now IPC :1.59236: AVG IPC :1.10061: L2-Pf-HR :0.94690: L2-HR :0.93318: (Sim:2h9m2s) 
CPU  0 inst:  565000003 cyc:  512074796 now IPC :2.16066: AVG IPC :1.10157: L2-Pf-HR :0.94695: L2-HR :0.93326: (Sim:2h9m10s) 
CPU  0 inst:  566000001 cyc:  512614855 now IPC :1.85165: AVG IPC :1.10236: L2-Pf-HR :0.94700: L2-HR :0.93331: (Sim:2h9m18s) 
CPU  0 inst:  567000002 cyc:  513158543 now IPC :1.83929: AVG IPC :1.10314: L2-Pf-HR :0.94694: L2-HR :0.93328: (Sim:2h9m27s) 
CPU  0 inst:  568000002 cyc:  513614539 now IPC :2.19300: AVG IPC :1.10411: L2-Pf-HR :0.94701: L2-HR :0.93336: (Sim:2h9m35s) 
CPU  0 inst:  569000002 cyc:  514101435 now IPC :2.05383: AVG IPC :1.10501: L2-Pf-HR :0.94707: L2-HR :0.93344: (Sim:2h9m42s) 
CPU  0 inst:  570000001 cyc:  514594011 now IPC :2.03014: AVG IPC :1.10590: L2-Pf-HR :0.94705: L2-HR :0.93343: (Sim:2h9m51s) 
CPU  0 inst:  571000000 cyc:  515051708 now IPC :2.18485: AVG IPC :1.10686: L2-Pf-HR :0.94714: L2-HR :0.93353: (Sim:2h9m58s) 
CPU  0 inst:  572000003 cyc:  515692362 now IPC :1.56091: AVG IPC :1.10742: L2-Pf-HR :0.94706: L2-HR :0.93345: (Sim:2h10m7s) 
CPU  0 inst:  573000000 cyc:  516178647 now IPC :2.05640: AVG IPC :1.10832: L2-Pf-HR :0.94710: L2-HR :0.93350: (Sim:2h10m15s) 
CPU  0 inst:  574000001 cyc:  516653784 now IPC :2.10466: AVG IPC :1.10924: L2-Pf-HR :0.94717: L2-HR :0.93359: (Sim:2h10m23s) 
CPU  0 inst:  575000000 cyc:  517254992 now IPC :1.66332: AVG IPC :1.10988: L2-Pf-HR :0.94710: L2-HR :0.93353: (Sim:2h10m32s) 
CPU  0 inst:  576000001 cyc:  517712920 now IPC :2.18375: AVG IPC :1.11083: L2-Pf-HR :0.94715: L2-HR :0.93360: (Sim:2h10m40s) 
CPU  0 inst:  577000005 cyc:  518163214 now IPC :2.22078: AVG IPC :1.11180: L2-Pf-HR :0.94723: L2-HR :0.93370: (Sim:2h10m47s) 
CPU  0 inst:  578000004 cyc:  518653821 now IPC :2.03829: AVG IPC :1.11268: L2-Pf-HR :0.94729: L2-HR :0.93378: (Sim:2h10m55s) 
CPU  0 inst:  579000004 cyc:  519143586 now IPC :2.04180: AVG IPC :1.11356: L2-Pf-HR :0.94728: L2-HR :0.93376: (Sim:2h11m3s) 
CPU  0 inst:  580000001 cyc:  519614734 now IPC :2.12247: AVG IPC :1.11447: L2-Pf-HR :0.94734: L2-HR :0.93385: (Sim:2h11m11s) 
CPU  0 inst:  581000005 cyc:  520258554 now IPC :1.55324: AVG IPC :1.11502: L2-Pf-HR :0.94726: L2-HR :0.93376: (Sim:2h11m20s) 
CPU  0 inst:  582000000 cyc:  520723635 now IPC :2.15015: AVG IPC :1.11594: L2-Pf-HR :0.94732: L2-HR :0.93383: (Sim:2h11m28s) 
CPU  0 inst:  583000001 cyc:  521255689 now IPC :1.87951: AVG IPC :1.11672: L2-Pf-HR :0.94736: L2-HR :0.93389: (Sim:2h11m35s) 
CPU  0 inst:  584000005 cyc:  521802371 now IPC :1.82922: AVG IPC :1.11747: L2-Pf-HR :0.94732: L2-HR :0.93385: (Sim:2h11m44s) 
CPU  0 inst:  585000005 cyc:  522258960 now IPC :2.19015: AVG IPC :1.11841: L2-Pf-HR :0.94739: L2-HR :0.93393: (Sim:2h11m52s) 
CPU  0 inst:  586000002 cyc:  522751928 now IPC :2.02852: AVG IPC :1.11927: L2-Pf-HR :0.94744: L2-HR :0.93400: (Sim:2h11m59s) 
CPU  0 inst:  587000004 cyc:  523236232 now IPC :2.06482: AVG IPC :1.12015: L2-Pf-HR :0.94743: L2-HR :0.93399: (Sim:2h12m7s) 
CPU  0 inst:  588000001 cyc:  523698864 now IPC :2.16154: AVG IPC :1.12107: L2-Pf-HR :0.94751: L2-HR :0.93409: (Sim:2h12m15s) 
CPU  0 inst:  589000003 cyc:  524337075 now IPC :1.56688: AVG IPC :1.12161: L2-Pf-HR :0.94743: L2-HR :0.93401: (Sim:2h12m24s) 
CPU  0 inst:  590000003 cyc:  524823954 now IPC :2.05390: AVG IPC :1.12248: L2-Pf-HR :0.94747: L2-HR :0.93406: (Sim:2h12m32s) 
CPU  0 inst:  591000005 cyc:  525303304 now IPC :2.08616: AVG IPC :1.12336: L2-Pf-HR :0.94755: L2-HR :0.93416: (Sim:2h12m40s) 
CPU  0 inst:  592000001 cyc:  525905663 now IPC :1.66013: AVG IPC :1.12398: L2-Pf-HR :0.94747: L2-HR :0.93408: (Sim:2h12m49s) 
CPU  0 inst:  593000004 cyc:  526364998 now IPC :2.17707: AVG IPC :1.12490: L2-Pf-HR :0.94753: L2-HR :0.93415: (Sim:2h12m57s) 
CPU  0 inst:  594000000 cyc:  526817625 now IPC :2.20932: AVG IPC :1.12583: L2-Pf-HR :0.94761: L2-HR :0.93425: (Sim:2h13m4s) 
Finished CPU 0 instr: 592000005 cyc: 525833692 AVG IPC: 1.12583 (Sim time: 2h13m4s)

ChampSim completed all CPUs

[ROI Statistics]
Core_0_instructions 592000005
Core_0_cycles 525833692
Core_0_IPC 1.12583

Core_0_branch_prediction_accuracy 98.24511
Core_0_branch_MPKI 0.42508
Core_0_average_ROB_occupancy_at_mispredict 576.55759

Core_0_L1D_total_access 319401934
Core_0_L1D_total_hit 306920570 L1D_total_Hit Ratio: 0.96092
Core_0_L1D_total_miss 12481364
Core_0_L1D_loads 124912722
Core_0_L1D_load_hit 117791710 L1D_load_Hit Ratio: 0.94299
Core_0_L1D_load_miss 7121012
Core_0_L1D_RFOs 11975502
Core_0_L1D_RFO_hit 11382944 L1D_RFO_Hit Ratio: 0.95052
Core_0_L1D_RFO_miss 592558
Core_0_L1D_prefetches 182513710
Core_0_L1D_prefetch_hit 177745916 L1D_prefetch_Hit Ratio: 0.97388
Core_0_L1D_prefetch_miss 4767794
Core_0_L1D_writebacks 0
Core_0_L1D_writeback_hit 0 L1D_writeback_Hit Ratio: -nan
Core_0_L1D_writeback_miss 0
Core_0_L1D_prefetch_requested 379341186
Core_0_L1D_prefetch_issued 222040423
Core_0_L1D_prefetch_useful 3735087 L1D_Useful Ratio: 0.01682
Core_0_L1D_prefetch_useless 1048861
Core_0_L1D_prefetch_late 914947
Core_0_L1D_average_miss_latency 21695269.86691

Core_0_L1I_total_access 75405137
Core_0_L1I_total_hit 75400262 L1I_total_Hit Ratio: 0.99994
Core_0_L1I_total_miss 4875
Core_0_L1I_loads 75405137
Core_0_L1I_load_hit 75400262 L1I_load_Hit Ratio: 0.99994
Core_0_L1I_load_miss 4875
Core_0_L1I_RFOs 0
Core_0_L1I_RFO_hit 0 L1I_RFO_Hit Ratio: -nan
Core_0_L1I_RFO_miss 0
Core_0_L1I_prefetches 0
Core_0_L1I_prefetch_hit 0 L1I_prefetch_Hit Ratio: -nan
Core_0_L1I_prefetch_miss 0
Core_0_L1I_writebacks 0
Core_0_L1I_writeback_hit 0 L1I_writeback_Hit Ratio: -nan
Core_0_L1I_writeback_miss 0
Core_0_L1I_prefetch_requested 0
Core_0_L1I_prefetch_issued 0
Core_0_L1I_prefetch_useful 0 L1I_Useful Ratio: -nan
Core_0_L1I_prefetch_useless 0
Core_0_L1I_prefetch_late 0
Core_0_L1I_average_miss_latency 339.62626

Core_0_L2C_total_access 60541532
Core_0_L2C_total_hit 56560825 L2C_total_Hit Ratio: 0.93425
Core_0_L2C_total_miss 3980707
Core_0_L2C_loads 6212349
Core_0_L2C_load_hit 5241967 L2C_load_Hit Ratio: 0.84380
Core_0_L2C_load_miss 970382
Core_0_L2C_RFOs 592424
Core_0_L2C_RFO_hit 229615 L2C_RFO_Hit Ratio: 0.38759
Core_0_L2C_RFO_miss 362809
Core_0_L2C_prefetches 50531897
Core_0_L2C_prefetch_hit 47884399 L2C_prefetch_Hit Ratio: 0.94761
Core_0_L2C_prefetch_miss 2647498
Core_0_L2C_writebacks 3204862
Core_0_L2C_writeback_hit 3204844 L2C_writeback_Hit Ratio: 0.99999
Core_0_L2C_writeback_miss 18
Core_0_L2C_prefetch_requested 114504636
Core_0_L2C_prefetch_issued 65921267
Core_0_L2C_prefetch_useful 1043625 L2C_Useful Ratio: 0.01583
Core_0_L2C_prefetch_useless 1611616
Core_0_L2C_prefetch_late 460773
Core_0_L2C_average_miss_latency 299.62213

Core_0_LLC_total_access 6122055
Core_0_LLC_total_hit 2950032 LLC_total_Hit Ratio: 0.48187
Core_0_LLC_total_miss 3172023
Core_0_LLC_loads 509604
Core_0_LLC_load_hit 178239 LLC_load_Hit Ratio: 0.34976
Core_0_LLC_load_miss 331365
Core_0_LLC_RFOs 362799
Core_0_LLC_RFO_hit 3112 LLC_RFO_Hit Ratio: 0.00858
Core_0_LLC_RFO_miss 359687
Core_0_LLC_prefetches 3176357
Core_0_LLC_prefetch_hit 710320 LLC_prefetch_Hit Ratio: 0.22363
Core_0_LLC_prefetch_miss 2466037
Core_0_LLC_writebacks 2073295
Core_0_LLC_writeback_hit 2058361 LLC_writeback_Hit Ratio: 0.99280
Core_0_LLC_writeback_miss 14934
Core_0_LLC_prefetch_requested 0
Core_0_LLC_prefetch_issued 0
Core_0_LLC_prefetch_useful 107111 LLC_Useful Ratio: inf
Core_0_LLC_prefetch_useless 2337424
Core_0_LLC_prefetch_late 21178
Core_0_LLC_average_miss_latency 373.16151

Core_0_major_page_fault 0
Core_0_minor_page_fault 25625

CPU 0 L1D next line prefetcher final stats
CPU 0 L2C PC-based stride prefetcher final stats
Stride Degree: 15
MK1  MARKOV_LRU_SIZE: 128
MK1  MARKOV_PREDICTION_PERCENTTHRESHOLD: 40.00000
MK1  OUTLIERS_THRESHOLD_Max: 64
MK1  OUTLIERS_THRESHOLD_Min: 32
MK2  MARKOV_LRU_SIZE: 256
MK2  MARKOV_PREDICTION_PERCENTTHRESHOLD: 30.00000
MK2  OUTLIERS_THRESHOLD_Max: 32
MK2  OUTLIERS_THRESHOLD_Min: 16
MK3  MARKOV_LRU_SIZE: 384
MK3  MARKOV_PREDICTION_PERCENTTHRESHOLD: 25.00000
MK3  OUTLIERS_THRESHOLD_Max: 16
MK3  OUTLIERS_THRESHOLD_Min: 8
MK4  MARKOV_LRU_SIZE: 512
MK4  MARKOV_PREDICTION_PERCENTTHRESHOLD: 20.00000
MK4  OUTLIERS_THRESHOLD_Max: 8
MK4  OUTLIERS_THRESHOLD_Min: 0
IPStride Degree/Access Ratio: 7.38627
MK1 IPDEltaMarkov  Degree/Access Ratio: 0.19463
MK2 IPDEltaMarkov  Degree/Access Ratio: 0.34644
MK3 IPDEltaMarkov  Degree/Access Ratio: 0.55578
MK4 IPDEltaMarkov  Degree/Access Ratio: 1.60596
Channel_0_RQ_row_buffer_hit 1732632
Channel_0_RQ_row_buffer_miss 1424437
Channel_0_WQ_row_buffer_hit 554153
Channel_0_WQ_row_buffer_miss 1161493
Channel_0_WQ_full 725
Channel_0_dbus_congested 3223484

avg_congested_cycle 11

EzSearch AVG IPC :1.12583: L2-Pf-HR :0.94761 : L2-HR :0.93425 Uful:0.01583
     > Finished combination: TraceType=770-tot Sim:592000000 Prefetcher=L2029-SecTOP-L2-MultiMarkovDelta_ip_stride_v4-IPStrS256 L1=next_line
