TRACE: [496000000][OPT-125M]_[h12][s1024][d64] Warmup: 2000000 NumTraces: 496000000
L1:no:L2:spp_berti_src
Initialize SIGNATURE TABLE
ST_SET: 1
ST_WAY: 256
ST_TAG_BIT: 16
ST_TAG_MASK: ffff

Initialize PATTERN TABLE
PT_SET: 512
PT_WAY: 4
SIG_DELTA_BIT: 7
C_SIG_BIT: 4
C_DELTA_BIT: 4

Initialize PREFETCH FILTER
FILTER_SET: 1024
*************************************************
   ChampSim Multicore Out-of-Order Simulator
   Last compiled: Oct 27 2024 04:55:17
*************************************************

trace_0 770-tot_memTraces_v3/memTraces[496000000][OPT-125M]_[h12][s1024][d64].champsim.xz
ST_WAYS: 256
PT_SETS: 512
MAIN.cc ln 751 stats print skipped
CPU  0 inst:    1000002 cyc:     500195 now IPC :1.99922: AVG IPC :1.99922: L2-Pf-HR :0.95813: L2-HR :0.84122: (Sim:0h0m19s) 
CPU  0 inst:    2000000 cyc:     984401 now IPC :2.06523: AVG IPC :2.03169: L2-Pf-HR :0.98218: L2-HR :0.89758: (Sim:0h0m40s) 

Warmup complete CPU  0 instructions:    2000002 cycles:     984402 (Simulation time: 0 hr 0 min 40 sec) 

CPU  0 inst:    3000002 cyc:    1472722 now IPC :2.04784: AVG IPC :2.04784: L2-Pf-HR :0.99730: L2-HR :0.93666: (Sim:0h0m56s) 
CPU  0 inst:    4000000 cyc:    1959052 now IPC :2.05621: AVG IPC :2.05202: L2-Pf-HR :0.99740: L2-HR :0.93689: (Sim:0h1m13s) 
CPU  0 inst:    5000005 cyc:    2444813 now IPC :2.05864: AVG IPC :2.05422: L2-Pf-HR :0.99744: L2-HR :0.93699: (Sim:0h1m30s) 
CPU  0 inst:    6000005 cyc:    2955919 now IPC :1.95654: AVG IPC :2.02890: L2-Pf-HR :0.99739: L2-HR :0.93722: (Sim:0h1m47s) 
CPU  0 inst:    7000002 cyc:    3556373 now IPC :1.66540: AVG IPC :1.94403: L2-Pf-HR :0.99450: L2-HR :0.93149: (Sim:0h2m4s) 
CPU  0 inst:    8000005 cyc:    4029608 now IPC :2.11312: AVG IPC :1.97031: L2-Pf-HR :0.99498: L2-HR :0.93296: (Sim:0h2m21s) 
CPU  0 inst:    9000005 cyc:    4497150 now IPC :2.13885: AVG IPC :1.99274: L2-Pf-HR :0.99540: L2-HR :0.93448: (Sim:0h2m38s) 
CPU  0 inst:   10000002 cyc:    4969228 now IPC :2.11829: AVG IPC :2.00762: L2-Pf-HR :0.99517: L2-HR :0.93492: (Sim:0h2m55s) 
CPU  0 inst:   11000003 cyc:    5437758 now IPC :2.13434: AVG IPC :2.02095: L2-Pf-HR :0.99229: L2-HR :0.93061: (Sim:0h3m12s) 
CPU  0 inst:   12000002 cyc:    5906163 now IPC :2.13490: AVG IPC :2.03179: L2-Pf-HR :0.98988: L2-HR :0.92696: (Sim:0h3m29s) 
CPU  0 inst:   13000005 cyc:    6487217 now IPC :1.72102: AVG IPC :1.99898: L2-Pf-HR :0.98944: L2-HR :0.92653: (Sim:0h3m46s) 
CPU  0 inst:   14000002 cyc:    6960926 now IPC :2.11099: AVG IPC :2.00786: L2-Pf-HR :0.99010: L2-HR :0.92839: (Sim:0h4m3s) 
CPU  0 inst:   15000003 cyc:    7426453 now IPC :2.14811: AVG IPC :2.01799: L2-Pf-HR :0.99067: L2-HR :0.93025: (Sim:0h4m20s) 
CPU  0 inst:   16000002 cyc:    7896541 now IPC :2.12726: AVG IPC :2.02542: L2-Pf-HR :0.99115: L2-HR :0.93169: (Sim:0h4m37s) 
CPU  0 inst:   17000004 cyc:    8549170 now IPC :1.53227: AVG IPC :1.98288: L2-Pf-HR :0.99063: L2-HR :0.92967: (Sim:0h4m55s) 
CPU  0 inst:   18000000 cyc:    9065201 now IPC :1.93786: AVG IPC :1.98000: L2-Pf-HR :0.99106: L2-HR :0.93003: (Sim:0h5m13s) 
CPU  0 inst:   19000005 cyc:    9572330 now IPC :1.97189: AVG IPC :1.97952: L2-Pf-HR :0.99153: L2-HR :0.93057: (Sim:0h5m30s) 
CPU  0 inst:   20000003 cyc:   10093072 now IPC :1.92033: AVG IPC :1.97614: L2-Pf-HR :0.99192: L2-HR :0.93104: (Sim:0h5m47s) 
CPU  0 inst:   21000001 cyc:   10610341 now IPC :1.93323: AVG IPC :1.97383: L2-Pf-HR :0.99226: L2-HR :0.93145: (Sim:0h6m5s) 
CPU  0 inst:   22000000 cyc:   11133725 now IPC :1.91064: AVG IPC :1.97057: L2-Pf-HR :0.99256: L2-HR :0.93184: (Sim:0h6m22s) 
CPU  0 inst:   23000003 cyc:   11782507 now IPC :1.54135: AVG IPC :1.94479: L2-Pf-HR :0.99207: L2-HR :0.93080: (Sim:0h6m40s) 
CPU  0 inst:   24000003 cyc:   12251941 now IPC :2.13022: AVG IPC :1.95251: L2-Pf-HR :0.99230: L2-HR :0.93121: (Sim:0h6m57s) 
CPU  0 inst:   25000003 cyc:   12713641 now IPC :2.16591: AVG IPC :1.96091: L2-Pf-HR :0.99162: L2-HR :0.93035: (Sim:0h7m14s) 
CPU  0 inst:   26000004 cyc:   13178842 now IPC :2.14961: AVG IPC :1.96811: L2-Pf-HR :0.99108: L2-HR :0.92959: (Sim:0h7m31s) 
CPU  0 inst:   27000004 cyc:   13644610 now IPC :2.14699: AVG IPC :1.97469: L2-Pf-HR :0.98973: L2-HR :0.92775: (Sim:0h7m48s) 
CPU  0 inst:   28000004 cyc:   14137875 now IPC :2.02731: AVG IPC :1.97666: L2-Pf-HR :0.98922: L2-HR :0.92692: (Sim:0h8m5s) 
CPU  0 inst:   29000005 cyc:   14731437 now IPC :1.68475: AVG IPC :1.96406: L2-Pf-HR :0.98890: L2-HR :0.92653: (Sim:0h8m23s) 
CPU  0 inst:   30000000 cyc:   15190242 now IPC :2.17956: AVG IPC :1.97102: L2-Pf-HR :0.98920: L2-HR :0.92736: (Sim:0h8m40s) 
CPU  0 inst:   31000001 cyc:   15651602 now IPC :2.16751: AVG IPC :1.97720: L2-Pf-HR :0.98949: L2-HR :0.92823: (Sim:0h8m57s) 
CPU  0 inst:   32000004 cyc:   16122026 now IPC :2.12575: AVG IPC :1.98182: L2-Pf-HR :0.98977: L2-HR :0.92897: (Sim:0h9m14s) 
CPU  0 inst:   33000003 cyc:   16771344 now IPC :1.54008: AVG IPC :1.96365: L2-Pf-HR :0.98957: L2-HR :0.92819: (Sim:0h9m32s) 
CPU  0 inst:   34000005 cyc:   17292605 now IPC :1.91843: AVG IPC :1.96220: L2-Pf-HR :0.98979: L2-HR :0.92837: (Sim:0h9m50s) 
CPU  0 inst:   35000005 cyc:   17811598 now IPC :1.92681: AVG IPC :1.96111: L2-Pf-HR :0.99008: L2-HR :0.92871: (Sim:0h10m7s) 
CPU  0 inst:   36000005 cyc:   18340337 now IPC :1.89129: AVG IPC :1.95898: L2-Pf-HR :0.99035: L2-HR :0.92906: (Sim:0h10m25s) 
CPU  0 inst:   37000004 cyc:   18859827 now IPC :1.92496: AVG IPC :1.95800: L2-Pf-HR :0.99060: L2-HR :0.92934: (Sim:0h10m42s) 
CPU  0 inst:   38000005 cyc:   19389221 now IPC :1.88895: AVG IPC :1.95601: L2-Pf-HR :0.99082: L2-HR :0.92962: (Sim:0h11m0s) 
CPU  0 inst:   39000004 cyc:   20035752 now IPC :1.54671: AVG IPC :1.94212: L2-Pf-HR :0.99061: L2-HR :0.92911: (Sim:0h11m18s) 
CPU  0 inst:   40000001 cyc:   20511126 now IPC :2.10360: AVG IPC :1.94605: L2-Pf-HR :0.99075: L2-HR :0.92931: (Sim:0h11m36s) 
CPU  0 inst:   41000001 cyc:   20984330 now IPC :2.11325: AVG IPC :1.95001: L2-Pf-HR :0.99096: L2-HR :0.92966: (Sim:0h11m53s) 
CPU  0 inst:   42000001 cyc:   21463900 now IPC :2.08520: AVG IPC :1.95317: L2-Pf-HR :0.99116: L2-HR :0.93004: (Sim:0h12m11s) 
CPU  0 inst:   43000005 cyc:   21931365 now IPC :2.13921: AVG IPC :1.95732: L2-Pf-HR :0.99072: L2-HR :0.92940: (Sim:0h12m28s) 
CPU  0 inst:   44000000 cyc:   22400182 now IPC :2.13302: AVG IPC :1.96117: L2-Pf-HR :0.99002: L2-HR :0.92838: (Sim:0h12m45s) 
CPU  0 inst:   45000003 cyc:   23018913 now IPC :1.61622: AVG IPC :1.95148: L2-Pf-HR :0.98976: L2-HR :0.92798: (Sim:0h13m3s) 
CPU  0 inst:   46000000 cyc:   23486997 now IPC :2.13636: AVG IPC :1.95533: L2-Pf-HR :0.98973: L2-HR :0.92833: (Sim:0h13m20s) 
CPU  0 inst:   47000000 cyc:   23963525 now IPC :2.09851: AVG IPC :1.95830: L2-Pf-HR :0.98990: L2-HR :0.92882: (Sim:0h13m37s) 
CPU  0 inst:   48000001 cyc:   24444424 now IPC :2.07944: AVG IPC :1.96078: L2-Pf-HR :0.99007: L2-HR :0.92933: (Sim:0h13m55s) 
CPU  0 inst:   49000003 cyc:   25098601 now IPC :1.52864: AVG IPC :1.94906: L2-Pf-HR :0.99001: L2-HR :0.92895: (Sim:0h14m13s) 
CPU  0 inst:   50000004 cyc:   25602026 now IPC :1.98640: AVG IPC :1.94982: L2-Pf-HR :0.99013: L2-HR :0.92901: (Sim:0h14m30s) 
CPU  0 inst:   51000000 cyc:   26122427 now IPC :1.92159: AVG IPC :1.94924: L2-Pf-HR :0.99031: L2-HR :0.92921: (Sim:0h14m48s) 
CPU  0 inst:   52000003 cyc:   26650738 now IPC :1.89283: AVG IPC :1.94808: L2-Pf-HR :0.99049: L2-HR :0.92941: (Sim:0h15m6s) 
CPU  0 inst:   53000005 cyc:   27174744 now IPC :1.90838: AVG IPC :1.94728: L2-Pf-HR :0.99065: L2-HR :0.92960: (Sim:0h15m24s) 
CPU  0 inst:   54000002 cyc:   27674183 now IPC :2.00224: AVG IPC :1.94831: L2-Pf-HR :0.99081: L2-HR :0.92978: (Sim:0h15m41s) 
CPU  0 inst:   55000001 cyc:   28328163 now IPC :1.52910: AVG IPC :1.93828: L2-Pf-HR :0.99071: L2-HR :0.92948: (Sim:0h15m59s) 
CPU  0 inst:   56000000 cyc:   28803238 now IPC :2.10493: AVG IPC :1.94113: L2-Pf-HR :0.99076: L2-HR :0.92954: (Sim:0h16m17s) 
CPU  0 inst:   57000003 cyc:   29273476 now IPC :2.12659: AVG IPC :1.94421: L2-Pf-HR :0.99092: L2-HR :0.92983: (Sim:0h16m34s) 
CPU  0 inst:   58000005 cyc:   29748745 now IPC :2.10408: AVG IPC :1.94685: L2-Pf-HR :0.99106: L2-HR :0.93010: (Sim:0h16m52s) 
CPU  0 inst:   59000003 cyc:   30230127 now IPC :2.07735: AVG IPC :1.94900: L2-Pf-HR :0.99111: L2-HR :0.93018: (Sim:0h17m9s) 
CPU  0 inst:   60000003 cyc:   30693325 now IPC :2.15890: AVG IPC :1.95228: L2-Pf-HR :0.99062: L2-HR :0.92953: (Sim:0h17m26s) 
CPU  0 inst:   61000003 cyc:   31255165 now IPC :1.77987: AVG IPC :1.94908: L2-Pf-HR :0.99026: L2-HR :0.92901: (Sim:0h17m44s) 
CPU  0 inst:   62000000 cyc:   31730043 now IPC :2.10580: AVG IPC :1.95150: L2-Pf-HR :0.99036: L2-HR :0.92932: (Sim:0h18m1s) 
CPU  0 inst:   63000005 cyc:   32207998 now IPC :2.09226: AVG IPC :1.95365: L2-Pf-HR :0.99046: L2-HR :0.92965: (Sim:0h18m18s) 
CPU  0 inst:   64000005 cyc:   32685284 now IPC :2.09518: AVG IPC :1.95578: L2-Pf-HR :0.99058: L2-HR :0.93002: (Sim:0h18m35s) 
CPU  0 inst:   65000000 cyc:   33319001 now IPC :1.57798: AVG IPC :1.94838: L2-Pf-HR :0.99056: L2-HR :0.92981: (Sim:0h18m53s) 
CPU  0 inst:   66000001 cyc:   33830531 now IPC :1.95492: AVG IPC :1.94848: L2-Pf-HR :0.99060: L2-HR :0.92978: (Sim:0h19m11s) 
CPU  0 inst:   67000005 cyc:   34371259 now IPC :1.84937: AVG IPC :1.94687: L2-Pf-HR :0.99072: L2-HR :0.92989: (Sim:0h19m29s) 
CPU  0 inst:   68000000 cyc:   34894824 now IPC :1.90997: AVG IPC :1.94630: L2-Pf-HR :0.99084: L2-HR :0.93004: (Sim:0h19m46s) 
CPU  0 inst:   69000000 cyc:   35410435 now IPC :1.93945: AVG IPC :1.94620: L2-Pf-HR :0.99097: L2-HR :0.93018: (Sim:0h20m4s) 
CPU  0 inst:   70000000 cyc:   35908287 now IPC :2.00863: AVG IPC :1.94709: L2-Pf-HR :0.99108: L2-HR :0.93031: (Sim:0h20m21s) 
CPU  0 inst:   71000003 cyc:   36559435 now IPC :1.53575: AVG IPC :1.93956: L2-Pf-HR :0.99105: L2-HR :0.93014: (Sim:0h20m39s) 
CPU  0 inst:   72000003 cyc:   37037466 now IPC :2.09191: AVG IPC :1.94158: L2-Pf-HR :0.99104: L2-HR :0.93012: (Sim:0h20m56s) 
CPU  0 inst:   73000004 cyc:   37506309 now IPC :2.13291: AVG IPC :1.94404: L2-Pf-HR :0.99115: L2-HR :0.93033: (Sim:0h21m13s) 
CPU  0 inst:   74000005 cyc:   37979504 now IPC :2.11330: AVG IPC :1.94620: L2-Pf-HR :0.99126: L2-HR :0.93052: (Sim:0h21m30s) 
CPU  0 inst:   75000001 cyc:   38452293 now IPC :2.11510: AVG IPC :1.94833: L2-Pf-HR :0.99110: L2-HR :0.93034: (Sim:0h21m47s) 
CPU  0 inst:   76000001 cyc:   38912292 now IPC :2.17392: AVG IPC :1.95107: L2-Pf-HR :0.99078: L2-HR :0.92982: (Sim:0h22m4s) 
CPU  0 inst:   77000001 cyc:   39482708 now IPC :1.75311: AVG IPC :1.94814: L2-Pf-HR :0.99050: L2-HR :0.92939: (Sim:0h22m21s) 
CPU  0 inst:   78000005 cyc:   39951510 now IPC :2.13311: AVG IPC :1.95036: L2-Pf-HR :0.99054: L2-HR :0.92957: (Sim:0h22m38s) 
CPU  0 inst:   79000000 cyc:   40422422 now IPC :2.12353: AVG IPC :1.95243: L2-Pf-HR :0.99063: L2-HR :0.92986: (Sim:0h22m54s) 
CPU  0 inst:   80000003 cyc:   40898644 now IPC :2.09987: AVG IPC :1.95419: L2-Pf-HR :0.99072: L2-HR :0.93014: (Sim:0h23m11s) 
CPU  0 inst:   81000003 cyc:   41550070 now IPC :1.53509: AVG IPC :1.94746: L2-Pf-HR :0.99072: L2-HR :0.93004: (Sim:0h23m29s) 
CPU  0 inst:   82000005 cyc:   42057469 now IPC :1.97084: AVG IPC :1.94775: L2-Pf-HR :0.99070: L2-HR :0.92993: (Sim:0h23m46s) 
CPU  0 inst:   83000002 cyc:   42580545 now IPC :1.91176: AVG IPC :1.94730: L2-Pf-HR :0.99081: L2-HR :0.93006: (Sim:0h24m3s) 
CPU  0 inst:   84000000 cyc:   43096778 now IPC :1.93711: AVG IPC :1.94717: L2-Pf-HR :0.99091: L2-HR :0.93018: (Sim:0h24m21s) 
CPU  0 inst:   85000001 cyc:   43614214 now IPC :1.93261: AVG IPC :1.94699: L2-Pf-HR :0.99100: L2-HR :0.93029: (Sim:0h24m38s) 
CPU  0 inst:   86000005 cyc:   44117948 now IPC :1.98518: AVG IPC :1.94744: L2-Pf-HR :0.99109: L2-HR :0.93039: (Sim:0h24m55s) 
CPU  0 inst:   87000002 cyc:   44739806 now IPC :1.60808: AVG IPC :1.94262: L2-Pf-HR :0.99112: L2-HR :0.93032: (Sim:0h25m13s) 
CPU  0 inst:   88000001 cyc:   45254712 now IPC :1.94210: AVG IPC :1.94261: L2-Pf-HR :0.99099: L2-HR :0.93012: (Sim:0h25m30s) 
CPU  0 inst:   89000001 cyc:   45722750 now IPC :2.13658: AVG IPC :1.94464: L2-Pf-HR :0.99108: L2-HR :0.93027: (Sim:0h25m47s) 
CPU  0 inst:   90000002 cyc:   46197368 now IPC :2.10696: AVG IPC :1.94634: L2-Pf-HR :0.99117: L2-HR :0.93043: (Sim:0h26m4s) 
CPU  0 inst:   91000002 cyc:   46666550 now IPC :2.13137: AVG IPC :1.94824: L2-Pf-HR :0.99082: L2-HR :0.92993: (Sim:0h26m21s) 
CPU  0 inst:   92000005 cyc:   47134833 now IPC :2.13547: AVG IPC :1.95014: L2-Pf-HR :0.99062: L2-HR :0.92962: (Sim:0h26m38s) 
CPU  0 inst:   93000001 cyc:   47706433 now IPC :1.74947: AVG IPC :1.94769: L2-Pf-HR :0.99046: L2-HR :0.92929: (Sim:0h26m55s) 
CPU  0 inst:   94000005 cyc:   48198750 now IPC :2.03122: AVG IPC :1.94856: L2-Pf-HR :0.99050: L2-HR :0.92946: (Sim:0h27m12s) 
CPU  0 inst:   95000001 cyc:   48679629 now IPC :2.07952: AVG IPC :1.94988: L2-Pf-HR :0.99057: L2-HR :0.92968: (Sim:0h27m29s) 
CPU  0 inst:   96000003 cyc:   49149047 now IPC :2.13030: AVG IPC :1.95164: L2-Pf-HR :0.99064: L2-HR :0.92990: (Sim:0h27m45s) 
CPU  0 inst:   97000001 cyc:   49739345 now IPC :1.69406: AVG IPC :1.94852: L2-Pf-HR :0.99069: L2-HR :0.92990: (Sim:0h28m3s) 
CPU  0 inst:   98000000 cyc:   50294607 now IPC :1.80095: AVG IPC :1.94686: L2-Pf-HR :0.99065: L2-HR :0.92976: (Sim:0h28m20s) 
CPU  0 inst:   99000000 cyc:   50834440 now IPC :1.85242: AVG IPC :1.94584: L2-Pf-HR :0.99073: L2-HR :0.92986: (Sim:0h28m37s) 
CPU  0 inst:  100000003 cyc:   51339810 now IPC :1.97875: AVG IPC :1.94617: L2-Pf-HR :0.99081: L2-HR :0.92996: (Sim:0h28m55s) 
CPU  0 inst:  101000000 cyc:   51854924 now IPC :1.94131: AVG IPC :1.94612: L2-Pf-HR :0.99090: L2-HR :0.93005: (Sim:0h29m12s) 
CPU  0 inst:  102000002 cyc:   52357898 now IPC :1.98818: AVG IPC :1.94653: L2-Pf-HR :0.99097: L2-HR :0.93014: (Sim:0h29m29s) 
CPU  0 inst:  103000001 cyc:   52904815 now IPC :1.82843: AVG IPC :1.94528: L2-Pf-HR :0.99096: L2-HR :0.93011: (Sim:0h29m46s) 
CPU  0 inst:  104000005 cyc:   53518797 now IPC :1.62872: AVG IPC :1.94159: L2-Pf-HR :0.99083: L2-HR :0.92984: (Sim:0h30m4s) 
CPU  0 inst:  105000002 cyc:   53991200 now IPC :2.11683: AVG IPC :1.94315: L2-Pf-HR :0.99089: L2-HR :0.92992: (Sim:0h30m21s) 
CPU  0 inst:  106000002 cyc:   54461975 now IPC :2.12416: AVG IPC :1.94474: L2-Pf-HR :0.99097: L2-HR :0.93006: (Sim:0h30m38s) 
CPU  0 inst:  107000000 cyc:   54937263 now IPC :2.10398: AVG IPC :1.94614: L2-Pf-HR :0.99093: L2-HR :0.93004: (Sim:0h30m55s) 
CPU  0 inst:  108000000 cyc:   55404861 now IPC :2.13859: AVG IPC :1.94780: L2-Pf-HR :0.99071: L2-HR :0.92971: (Sim:0h31m12s) 
CPU  0 inst:  109000004 cyc:   55873189 now IPC :2.13526: AVG IPC :1.94940: L2-Pf-HR :0.99049: L2-HR :0.92938: (Sim:0h31m29s) 
CPU  0 inst:  110000003 cyc:   56432620 now IPC :1.78753: AVG IPC :1.94776: L2-Pf-HR :0.99047: L2-HR :0.92938: (Sim:0h31m46s) 
CPU  0 inst:  111000000 cyc:   56904366 now IPC :2.11978: AVG IPC :1.94921: L2-Pf-HR :0.99054: L2-HR :0.92956: (Sim:0h32m3s) 
CPU  0 inst:  112000000 cyc:   57553387 now IPC :1.54078: AVG IPC :1.94453: L2-Pf-HR :0.99060: L2-HR :0.92976: (Sim:0h32m20s) 
CPU  0 inst:  113000000 cyc:   58241681 now IPC :1.45287: AVG IPC :1.93862: L2-Pf-HR :0.99066: L2-HR :0.92995: (Sim:0h32m38s) 
CPU  0 inst:  114000001 cyc:   58924840 now IPC :1.46379: AVG IPC :1.93302: L2-Pf-HR :0.99061: L2-HR :0.92968: (Sim:0h32m56s) 
CPU  0 inst:  115000004 cyc:   59460174 now IPC :1.86800: AVG IPC :1.93242: L2-Pf-HR :0.99068: L2-HR :0.92975: (Sim:0h33m14s) 
CPU  0 inst:  116000001 cyc:   59982812 now IPC :1.91336: AVG IPC :1.93226: L2-Pf-HR :0.99076: L2-HR :0.92983: (Sim:0h33m31s) 
CPU  0 inst:  117000001 cyc:   60506179 now IPC :1.91071: AVG IPC :1.93207: L2-Pf-HR :0.99083: L2-HR :0.92991: (Sim:0h33m49s) 
CPU  0 inst:  118000002 cyc:   61019745 now IPC :1.94717: AVG IPC :1.93220: L2-Pf-HR :0.99090: L2-HR :0.92999: (Sim:0h34m6s) 
CPU  0 inst:  119000003 cyc:   61520571 now IPC :1.99670: AVG IPC :1.93273: L2-Pf-HR :0.99096: L2-HR :0.93007: (Sim:0h34m23s) 
CPU  0 inst:  120000000 cyc:   62161149 now IPC :1.56109: AVG IPC :1.92884: L2-Pf-HR :0.99088: L2-HR :0.92987: (Sim:0h34m41s) 
CPU  0 inst:  121000000 cyc:   62635686 now IPC :2.10732: AVG IPC :1.93021: L2-Pf-HR :0.99094: L2-HR :0.92998: (Sim:0h34m57s) 
CPU  0 inst:  122000004 cyc:   63104920 now IPC :2.13114: AVG IPC :1.93173: L2-Pf-HR :0.99101: L2-HR :0.93011: (Sim:0h35m15s) 
CPU  0 inst:  123000003 cyc:   63573474 now IPC :2.13422: AVG IPC :1.93324: L2-Pf-HR :0.99082: L2-HR :0.92985: (Sim:0h35m32s) 
CPU  0 inst:  124000003 cyc:   64040783 now IPC :2.13991: AVG IPC :1.93478: L2-Pf-HR :0.99060: L2-HR :0.92953: (Sim:0h35m48s) 
CPU  0 inst:  125000005 cyc:   64533348 now IPC :2.03019: AVG IPC :1.93552: L2-Pf-HR :0.99037: L2-HR :0.92919: (Sim:0h36m5s) 
CPU  0 inst:  126000003 cyc:   65122509 now IPC :1.69733: AVG IPC :1.93333: L2-Pf-HR :0.99032: L2-HR :0.92915: (Sim:0h36m23s) 
CPU  0 inst:  127000004 cyc:   65595200 now IPC :2.11555: AVG IPC :1.93466: L2-Pf-HR :0.99038: L2-HR :0.92931: (Sim:0h36m39s) 
CPU  0 inst:  128000005 cyc:   66062702 now IPC :2.13903: AVG IPC :1.93613: L2-Pf-HR :0.99043: L2-HR :0.92949: (Sim:0h36m56s) 
CPU  0 inst:  129000005 cyc:   66539588 now IPC :2.09694: AVG IPC :1.93730: L2-Pf-HR :0.99049: L2-HR :0.92963: (Sim:0h37m13s) 
CPU  0 inst:  130000004 cyc:   67193598 now IPC :1.52903: AVG IPC :1.93327: L2-Pf-HR :0.99043: L2-HR :0.92942: (Sim:0h37m31s) 
CPU  0 inst:  131000005 cyc:   67728326 now IPC :1.87011: AVG IPC :1.93276: L2-Pf-HR :0.99049: L2-HR :0.92948: (Sim:0h37m48s) 
CPU  0 inst:  132000003 cyc:   68268046 now IPC :1.85281: AVG IPC :1.93212: L2-Pf-HR :0.99056: L2-HR :0.92956: (Sim:0h38m6s) 
CPU  0 inst:  133000002 cyc:   68842072 now IPC :1.74208: AVG IPC :1.93051: L2-Pf-HR :0.99063: L2-HR :0.92963: (Sim:0h38m24s) 
CPU  0 inst:  134000002 cyc:   69341352 now IPC :2.00288: AVG IPC :1.93104: L2-Pf-HR :0.99069: L2-HR :0.92970: (Sim:0h38m41s) 
CPU  0 inst:  135000003 cyc:   69832658 now IPC :2.03539: AVG IPC :1.93178: L2-Pf-HR :0.99075: L2-HR :0.92977: (Sim:0h38m58s) 
CPU  0 inst:  136000002 cyc:   70464698 now IPC :1.58218: AVG IPC :1.92860: L2-Pf-HR :0.99067: L2-HR :0.92960: (Sim:0h39m16s) 
CPU  0 inst:  137000004 cyc:   70939606 now IPC :2.10568: AVG IPC :1.92981: L2-Pf-HR :0.99073: L2-HR :0.92968: (Sim:0h39m33s) 
CPU  0 inst:  138000005 cyc:   71404751 now IPC :2.14987: AVG IPC :1.93126: L2-Pf-HR :0.99055: L2-HR :0.92945: (Sim:0h39m49s) 
CPU  0 inst:  139000005 cyc:   71869711 now IPC :2.15072: AVG IPC :1.93270: L2-Pf-HR :0.99037: L2-HR :0.92919: (Sim:0h40m6s) 
CPU  0 inst:  140000005 cyc:   72332905 now IPC :2.15892: AVG IPC :1.93417: L2-Pf-HR :0.99021: L2-HR :0.92892: (Sim:0h40m23s) 
CPU  0 inst:  141000002 cyc:   72798501 now IPC :2.14778: AVG IPC :1.93555: L2-Pf-HR :0.99001: L2-HR :0.92865: (Sim:0h40m40s) 
CPU  0 inst:  142000001 cyc:   73372652 now IPC :1.74170: AVG IPC :1.93402: L2-Pf-HR :0.98995: L2-HR :0.92855: (Sim:0h40m57s) 
CPU  0 inst:  143000004 cyc:   73885340 now IPC :1.95051: AVG IPC :1.93413: L2-Pf-HR :0.98999: L2-HR :0.92868: (Sim:0h41m14s) 
CPU  0 inst:  144000005 cyc:   74367613 now IPC :2.07352: AVG IPC :1.93505: L2-Pf-HR :0.99004: L2-HR :0.92880: (Sim:0h41m31s) 
CPU  0 inst:  145000000 cyc:   74886415 now IPC :1.92751: AVG IPC :1.93499: L2-Pf-HR :0.99008: L2-HR :0.92892: (Sim:0h41m47s) 
CPU  0 inst:  146000001 cyc:   75529375 now IPC :1.55531: AVG IPC :1.93172: L2-Pf-HR :0.99006: L2-HR :0.92876: (Sim:0h42m5s) 
CPU  0 inst:  147000002 cyc:   76064347 now IPC :1.86926: AVG IPC :1.93127: L2-Pf-HR :0.99011: L2-HR :0.92880: (Sim:0h42m23s) 
CPU  0 inst:  148000000 cyc:   76587427 now IPC :1.91175: AVG IPC :1.93114: L2-Pf-HR :0.99017: L2-HR :0.92887: (Sim:0h42m40s) 
CPU  0 inst:  149000004 cyc:   77113627 now IPC :1.90043: AVG IPC :1.93093: L2-Pf-HR :0.99023: L2-HR :0.92895: (Sim:0h42m58s) 
CPU  0 inst:  150000005 cyc:   77624719 now IPC :1.95660: AVG IPC :1.93110: L2-Pf-HR :0.99029: L2-HR :0.92902: (Sim:0h43m15s) 
CPU  0 inst:  151000003 cyc:   78118249 now IPC :2.02622: AVG IPC :1.93171: L2-Pf-HR :0.99035: L2-HR :0.92908: (Sim:0h43m32s) 
CPU  0 inst:  152000003 cyc:   78768939 now IPC :1.53683: AVG IPC :1.92840: L2-Pf-HR :0.99029: L2-HR :0.92895: (Sim:0h43m50s) 
CPU  0 inst:  153000002 cyc:   79242877 now IPC :2.10998: AVG IPC :1.92950: L2-Pf-HR :0.99033: L2-HR :0.92901: (Sim:0h44m7s) 
CPU  0 inst:  154000003 cyc:   79708095 now IPC :2.14953: AVG IPC :1.93080: L2-Pf-HR :0.99026: L2-HR :0.92894: (Sim:0h44m23s) 
CPU  0 inst:  155000003 cyc:   80173236 now IPC :2.14989: AVG IPC :1.93209: L2-Pf-HR :0.99007: L2-HR :0.92865: (Sim:0h44m40s) 
CPU  0 inst:  156000000 cyc:   80639680 now IPC :2.14387: AVG IPC :1.93333: L2-Pf-HR :0.98990: L2-HR :0.92841: (Sim:0h44m57s) 
CPU  0 inst:  157000003 cyc:   81103484 now IPC :2.15609: AVG IPC :1.93462: L2-Pf-HR :0.98970: L2-HR :0.92812: (Sim:0h45m14s) 
CPU  0 inst:  158000000 cyc:   81693760 now IPC :1.69412: AVG IPC :1.93286: L2-Pf-HR :0.98966: L2-HR :0.92806: (Sim:0h45m32s) 
CPU  0 inst:  159000002 cyc:   82163514 now IPC :2.12878: AVG IPC :1.93400: L2-Pf-HR :0.98970: L2-HR :0.92818: (Sim:0h45m47s) 
CPU  0 inst:  160000003 cyc:   82634510 now IPC :2.12316: AVG IPC :1.93509: L2-Pf-HR :0.98975: L2-HR :0.92832: (Sim:0h45m55s) 
CPU  0 inst:  161000003 cyc:   83122199 now IPC :2.05049: AVG IPC :1.93577: L2-Pf-HR :0.98980: L2-HR :0.92847: (Sim:0h46m2s) 
CPU  0 inst:  162000004 cyc:   83768104 now IPC :1.54822: AVG IPC :1.93275: L2-Pf-HR :0.98977: L2-HR :0.92834: (Sim:0h46m10s) 
CPU  0 inst:  163000002 cyc:   84282025 now IPC :1.94582: AVG IPC :1.93283: L2-Pf-HR :0.98981: L2-HR :0.92836: (Sim:0h46m18s) 
CPU  0 inst:  164000005 cyc:   84801205 now IPC :1.92612: AVG IPC :1.93279: L2-Pf-HR :0.98987: L2-HR :0.92844: (Sim:0h46m26s) 
CPU  0 inst:  165000001 cyc:   85318555 now IPC :1.93292: AVG IPC :1.93279: L2-Pf-HR :0.98993: L2-HR :0.92851: (Sim:0h46m34s) 
CPU  0 inst:  166000002 cyc:   85822430 now IPC :1.98462: AVG IPC :1.93310: L2-Pf-HR :0.98998: L2-HR :0.92858: (Sim:0h46m41s) 
CPU  0 inst:  167000000 cyc:   86317906 now IPC :2.01826: AVG IPC :1.93359: L2-Pf-HR :0.99004: L2-HR :0.92864: (Sim:0h46m49s) 
CPU  0 inst:  168000003 cyc:   86971500 now IPC :1.53001: AVG IPC :1.93052: L2-Pf-HR :0.99001: L2-HR :0.92855: (Sim:0h46m57s) 
CPU  0 inst:  169000004 cyc:   87448416 now IPC :2.09681: AVG IPC :1.93144: L2-Pf-HR :0.99004: L2-HR :0.92859: (Sim:0h47m4s) 
CPU  0 inst:  170000004 cyc:   87922167 now IPC :2.11081: AVG IPC :1.93242: L2-Pf-HR :0.99009: L2-HR :0.92867: (Sim:0h47m12s) 
CPU  0 inst:  171000004 cyc:   88388353 now IPC :2.14507: AVG IPC :1.93355: L2-Pf-HR :0.98992: L2-HR :0.92842: (Sim:0h47m19s) 
CPU  0 inst:  172000004 cyc:   88852059 now IPC :2.15654: AVG IPC :1.93473: L2-Pf-HR :0.98976: L2-HR :0.92820: (Sim:0h47m27s) 
CPU  0 inst:  173000004 cyc:   89315095 now IPC :2.15966: AVG IPC :1.93591: L2-Pf-HR :0.98962: L2-HR :0.92799: (Sim:0h47m35s) 
CPU  0 inst:  174000001 cyc:   89901287 now IPC :1.70592: AVG IPC :1.93439: L2-Pf-HR :0.98955: L2-HR :0.92789: (Sim:0h47m42s) 
CPU  0 inst:  175000002 cyc:   90375999 now IPC :2.10654: AVG IPC :1.93530: L2-Pf-HR :0.98959: L2-HR :0.92800: (Sim:0h47m50s) 
CPU  0 inst:  176000001 cyc:   90852518 now IPC :2.09855: AVG IPC :1.93617: L2-Pf-HR :0.98964: L2-HR :0.92814: (Sim:0h47m58s) 
CPU  0 inst:  177000001 cyc:   91337133 now IPC :2.06349: AVG IPC :1.93685: L2-Pf-HR :0.98969: L2-HR :0.92828: (Sim:0h48m5s) 
CPU  0 inst:  178000001 cyc:   91987999 now IPC :1.53641: AVG IPC :1.93399: L2-Pf-HR :0.98967: L2-HR :0.92820: (Sim:0h48m13s) 
CPU  0 inst:  179000005 cyc:   92492547 now IPC :1.98198: AVG IPC :1.93425: L2-Pf-HR :0.98969: L2-HR :0.92819: (Sim:0h48m21s) 
CPU  0 inst:  180000000 cyc:   93004839 now IPC :1.95200: AVG IPC :1.93435: L2-Pf-HR :0.98974: L2-HR :0.92825: (Sim:0h48m29s) 
CPU  0 inst:  181000004 cyc:   93519324 now IPC :1.94370: AVG IPC :1.93440: L2-Pf-HR :0.98980: L2-HR :0.92831: (Sim:0h48m36s) 
CPU  0 inst:  182000002 cyc:   94033751 now IPC :1.94391: AVG IPC :1.93446: L2-Pf-HR :0.98985: L2-HR :0.92837: (Sim:0h48m44s) 
CPU  0 inst:  183000000 cyc:   94537384 now IPC :1.98557: AVG IPC :1.93473: L2-Pf-HR :0.98990: L2-HR :0.92844: (Sim:0h48m52s) 
CPU  0 inst:  184000004 cyc:   95198309 now IPC :1.51304: AVG IPC :1.93177: L2-Pf-HR :0.98989: L2-HR :0.92838: (Sim:0h49m0s) 
CPU  0 inst:  185000005 cyc:   95679830 now IPC :2.07675: AVG IPC :1.93251: L2-Pf-HR :0.98991: L2-HR :0.92839: (Sim:0h49m7s) 
CPU  0 inst:  186000005 cyc:   96155424 now IPC :2.10263: AVG IPC :1.93336: L2-Pf-HR :0.98996: L2-HR :0.92850: (Sim:0h49m15s) 
CPU  0 inst:  187000002 cyc:   96638250 now IPC :2.07113: AVG IPC :1.93406: L2-Pf-HR :0.99001: L2-HR :0.92860: (Sim:0h49m23s) 
CPU  0 inst:  188000002 cyc:   97119231 now IPC :2.07908: AVG IPC :1.93478: L2-Pf-HR :0.99005: L2-HR :0.92868: (Sim:0h49m30s) 
CPU  0 inst:  189000002 cyc:   97591239 now IPC :2.11861: AVG IPC :1.93568: L2-Pf-HR :0.98991: L2-HR :0.92848: (Sim:0h49m38s) 
CPU  0 inst:  190000005 cyc:   98163416 now IPC :1.74772: AVG IPC :1.93457: L2-Pf-HR :0.98982: L2-HR :0.92834: (Sim:0h49m46s) 
CPU  0 inst:  191000005 cyc:   98651804 now IPC :2.04755: AVG IPC :1.93514: L2-Pf-HR :0.98985: L2-HR :0.92844: (Sim:0h49m53s) 
CPU  0 inst:  192000004 cyc:   99139277 now IPC :2.05139: AVG IPC :1.93572: L2-Pf-HR :0.98989: L2-HR :0.92856: (Sim:0h50m1s) 
CPU  0 inst:  193000005 cyc:   99616827 now IPC :2.09402: AVG IPC :1.93648: L2-Pf-HR :0.98993: L2-HR :0.92867: (Sim:0h50m9s) 
CPU  0 inst:  194000004 cyc:  101487532 now IPC :0.53456: AVG IPC :1.91039: L2-Pf-HR :0.98994: L2-HR :0.92750: (Sim:0h50m20s) 
CPU  0 inst:  195000000 cyc:  106765791 now IPC :0.18946: AVG IPC :1.82452: L2-Pf-HR :0.98986: L2-HR :0.92252: (Sim:0h50m46s) 
CPU  0 inst:  196000003 cyc:  112164236 now IPC :0.18524: AVG IPC :1.74492: L2-Pf-HR :0.98977: L2-HR :0.91766: (Sim:0h51m13s) 
CPU  0 inst:  197000001 cyc:  117563650 now IPC :0.18520: AVG IPC :1.67268: L2-Pf-HR :0.98969: L2-HR :0.91290: (Sim:0h51m39s) 
CPU  0 inst:  198000003 cyc:  122962490 now IPC :0.18523: AVG IPC :1.60685: L2-Pf-HR :0.98961: L2-HR :0.90826: (Sim:0h52m6s) 
CPU  0 inst:  199000005 cyc:  128361680 now IPC :0.18521: AVG IPC :1.54659: L2-Pf-HR :0.98952: L2-HR :0.90372: (Sim:0h52m32s) 
CPU  0 inst:  200000004 cyc:  133765374 now IPC :0.18506: AVG IPC :1.49118: L2-Pf-HR :0.98944: L2-HR :0.89928: (Sim:0h52m58s) 
CPU  0 inst:  201000000 cyc:  138931051 now IPC :0.19358: AVG IPC :1.44259: L2-Pf-HR :0.98934: L2-HR :0.89546: (Sim:0h53m30s) 
CPU  0 inst:  202000000 cyc:  142873751 now IPC :0.25363: AVG IPC :1.40955: L2-Pf-HR :0.98912: L2-HR :0.89479: (Sim:0h54m8s) 
CPU  0 inst:  203000002 cyc:  146816789 now IPC :0.25361: AVG IPC :1.37829: L2-Pf-HR :0.98891: L2-HR :0.89413: (Sim:0h54m45s) 
CPU  0 inst:  204000005 cyc:  150760432 now IPC :0.25357: AVG IPC :1.34868: L2-Pf-HR :0.98869: L2-HR :0.89347: (Sim:0h55m22s) 
CPU  0 inst:  205000000 cyc:  154698008 now IPC :0.25396: AVG IPC :1.32064: L2-Pf-HR :0.98847: L2-HR :0.89281: (Sim:0h55m59s) 
CPU  0 inst:  206000000 cyc:  158639816 now IPC :0.25369: AVG IPC :1.29396: L2-Pf-HR :0.98825: L2-HR :0.89215: (Sim:0h56m35s) 
CPU  0 inst:  207000000 cyc:  162579909 now IPC :0.25380: AVG IPC :1.26860: L2-Pf-HR :0.98803: L2-HR :0.89149: (Sim:0h57m12s) 
CPU  0 inst:  208000004 cyc:  166518704 now IPC :0.25389: AVG IPC :1.24446: L2-Pf-HR :0.98781: L2-HR :0.89083: (Sim:0h57m49s) 
CPU  0 inst:  209000000 cyc:  170456499 now IPC :0.25395: AVG IPC :1.22144: L2-Pf-HR :0.98759: L2-HR :0.89018: (Sim:0h58m26s) 
CPU  0 inst:  210000001 cyc:  174398924 now IPC :0.25365: AVG IPC :1.19944: L2-Pf-HR :0.98737: L2-HR :0.88953: (Sim:0h59m3s) 
CPU  0 inst:  211000001 cyc:  178337806 now IPC :0.25388: AVG IPC :1.17844: L2-Pf-HR :0.98716: L2-HR :0.88888: (Sim:0h59m40s) 
CPU  0 inst:  212000004 cyc:  182278153 now IPC :0.25379: AVG IPC :1.15834: L2-Pf-HR :0.98694: L2-HR :0.88823: (Sim:1h0m16s) 
CPU  0 inst:  213000000 cyc:  186218303 now IPC :0.25380: AVG IPC :1.13910: L2-Pf-HR :0.98672: L2-HR :0.88758: (Sim:1h0m53s) 
CPU  0 inst:  214000000 cyc:  190156549 now IPC :0.25392: AVG IPC :1.12067: L2-Pf-HR :0.98650: L2-HR :0.88694: (Sim:1h1m29s) 
CPU  0 inst:  215000000 cyc:  194095804 now IPC :0.25386: AVG IPC :1.10299: L2-Pf-HR :0.98628: L2-HR :0.88629: (Sim:1h2m6s) 
CPU  0 inst:  216000000 cyc:  198034821 now IPC :0.25387: AVG IPC :1.08602: L2-Pf-HR :0.98607: L2-HR :0.88565: (Sim:1h2m42s) 
CPU  0 inst:  217000000 cyc:  201973325 now IPC :0.25390: AVG IPC :1.06971: L2-Pf-HR :0.98585: L2-HR :0.88501: (Sim:1h3m18s) 
CPU  0 inst:  218000001 cyc:  205911599 now IPC :0.25392: AVG IPC :1.05403: L2-Pf-HR :0.98563: L2-HR :0.88438: (Sim:1h3m55s) 
CPU  0 inst:  219000003 cyc:  209853315 now IPC :0.25370: AVG IPC :1.03893: L2-Pf-HR :0.98541: L2-HR :0.88374: (Sim:1h4m31s) 
CPU  0 inst:  220000000 cyc:  213794045 now IPC :0.25376: AVG IPC :1.02439: L2-Pf-HR :0.98520: L2-HR :0.88310: (Sim:1h5m7s) 
CPU  0 inst:  221000000 cyc:  217732699 now IPC :0.25389: AVG IPC :1.01039: L2-Pf-HR :0.98498: L2-HR :0.88247: (Sim:1h5m44s) 
CPU  0 inst:  222000000 cyc:  221669332 now IPC :0.25402: AVG IPC :0.99690: L2-Pf-HR :0.98476: L2-HR :0.88184: (Sim:1h6m20s) 
CPU  0 inst:  223000000 cyc:  225608700 now IPC :0.25385: AVG IPC :0.98387: L2-Pf-HR :0.98454: L2-HR :0.88121: (Sim:1h6m57s) 
CPU  0 inst:  224000000 cyc:  229549630 now IPC :0.25375: AVG IPC :0.97128: L2-Pf-HR :0.98433: L2-HR :0.88058: (Sim:1h7m33s) 
CPU  0 inst:  225000001 cyc:  233485251 now IPC :0.25409: AVG IPC :0.95914: L2-Pf-HR :0.98411: L2-HR :0.87995: (Sim:1h8m9s) 
CPU  0 inst:  226000001 cyc:  237426261 now IPC :0.25374: AVG IPC :0.94738: L2-Pf-HR :0.98389: L2-HR :0.87933: (Sim:1h8m46s) 
CPU  0 inst:  227000000 cyc:  241368011 now IPC :0.25369: AVG IPC :0.93600: L2-Pf-HR :0.98368: L2-HR :0.87871: (Sim:1h9m22s) 
CPU  0 inst:  228000000 cyc:  245307911 now IPC :0.25381: AVG IPC :0.92500: L2-Pf-HR :0.98346: L2-HR :0.87809: (Sim:1h9m59s) 
CPU  0 inst:  229000004 cyc:  249248699 now IPC :0.25376: AVG IPC :0.91435: L2-Pf-HR :0.98324: L2-HR :0.87747: (Sim:1h10m35s) 
CPU  0 inst:  230000000 cyc:  253186497 now IPC :0.25395: AVG IPC :0.90404: L2-Pf-HR :0.98303: L2-HR :0.87685: (Sim:1h11m11s) 
CPU  0 inst:  231000000 cyc:  257125838 now IPC :0.25385: AVG IPC :0.89404: L2-Pf-HR :0.98281: L2-HR :0.87623: (Sim:1h11m48s) 
CPU  0 inst:  232000000 cyc:  261065470 now IPC :0.25383: AVG IPC :0.88434: L2-Pf-HR :0.98259: L2-HR :0.87561: (Sim:1h12m24s) 
CPU  0 inst:  233000000 cyc:  265001897 now IPC :0.25404: AVG IPC :0.87494: L2-Pf-HR :0.98238: L2-HR :0.87500: (Sim:1h13m1s) 
CPU  0 inst:  234000003 cyc:  268942313 now IPC :0.25378: AVG IPC :0.86581: L2-Pf-HR :0.98216: L2-HR :0.87439: (Sim:1h13m37s) 
CPU  0 inst:  235000000 cyc:  272883543 now IPC :0.25373: AVG IPC :0.85694: L2-Pf-HR :0.98195: L2-HR :0.87378: (Sim:1h14m13s) 
CPU  0 inst:  236000000 cyc:  276824106 now IPC :0.25377: AVG IPC :0.84832: L2-Pf-HR :0.98173: L2-HR :0.87317: (Sim:1h14m50s) 
CPU  0 inst:  237000000 cyc:  280763527 now IPC :0.25384: AVG IPC :0.83995: L2-Pf-HR :0.98151: L2-HR :0.87256: (Sim:1h15m26s) 
CPU  0 inst:  238000000 cyc:  284702815 now IPC :0.25385: AVG IPC :0.83181: L2-Pf-HR :0.98130: L2-HR :0.87196: (Sim:1h16m3s) 
CPU  0 inst:  239000000 cyc:  288644335 now IPC :0.25371: AVG IPC :0.82389: L2-Pf-HR :0.98108: L2-HR :0.87135: (Sim:1h16m39s) 
CPU  0 inst:  240000000 cyc:  292583463 now IPC :0.25386: AVG IPC :0.81619: L2-Pf-HR :0.98087: L2-HR :0.87075: (Sim:1h17m15s) 
CPU  0 inst:  241000001 cyc:  296523230 now IPC :0.25382: AVG IPC :0.80869: L2-Pf-HR :0.98065: L2-HR :0.87015: (Sim:1h17m52s) 
CPU  0 inst:  242000000 cyc:  300465064 now IPC :0.25369: AVG IPC :0.80139: L2-Pf-HR :0.98044: L2-HR :0.86955: (Sim:1h18m28s) 
CPU  0 inst:  243000000 cyc:  304404958 now IPC :0.25381: AVG IPC :0.79428: L2-Pf-HR :0.98022: L2-HR :0.86896: (Sim:1h18m59s) 
CPU  0 inst:  244000000 cyc:  308344574 now IPC :0.25383: AVG IPC :0.78735: L2-Pf-HR :0.98000: L2-HR :0.86836: (Sim:1h19m33s) 
CPU  0 inst:  245000000 cyc:  312283225 now IPC :0.25389: AVG IPC :0.78060: L2-Pf-HR :0.97979: L2-HR :0.86776: (Sim:1h20m9s) 
CPU  0 inst:  246000004 cyc:  316222834 now IPC :0.25383: AVG IPC :0.77402: L2-Pf-HR :0.97957: L2-HR :0.86717: (Sim:1h20m46s) 
CPU  0 inst:  247000000 cyc:  320162482 now IPC :0.25383: AVG IPC :0.76760: L2-Pf-HR :0.97936: L2-HR :0.86658: (Sim:1h21m22s) 
CPU  0 inst:  248000002 cyc:  324101041 now IPC :0.25390: AVG IPC :0.76133: L2-Pf-HR :0.97915: L2-HR :0.86599: (Sim:1h21m59s) 
CPU  0 inst:  249000003 cyc:  328040815 now IPC :0.25382: AVG IPC :0.75522: L2-Pf-HR :0.97893: L2-HR :0.86540: (Sim:1h22m35s) 
CPU  0 inst:  250000004 cyc:  331978262 now IPC :0.25397: AVG IPC :0.74926: L2-Pf-HR :0.97872: L2-HR :0.86481: (Sim:1h23m11s) 
CPU  0 inst:  251000000 cyc:  335918711 now IPC :0.25378: AVG IPC :0.74343: L2-Pf-HR :0.97850: L2-HR :0.86423: (Sim:1h23m48s) 
CPU  0 inst:  252000000 cyc:  339857860 now IPC :0.25386: AVG IPC :0.73774: L2-Pf-HR :0.97829: L2-HR :0.86364: (Sim:1h24m24s) 
CPU  0 inst:  253000000 cyc:  343796375 now IPC :0.25390: AVG IPC :0.73218: L2-Pf-HR :0.97807: L2-HR :0.86306: (Sim:1h25m1s) 
CPU  0 inst:  254000000 cyc:  347738925 now IPC :0.25364: AVG IPC :0.72674: L2-Pf-HR :0.97786: L2-HR :0.86248: (Sim:1h25m37s) 
CPU  0 inst:  255000002 cyc:  351677335 now IPC :0.25391: AVG IPC :0.72143: L2-Pf-HR :0.97764: L2-HR :0.86190: (Sim:1h26m13s) 
CPU  0 inst:  256000001 cyc:  355616907 now IPC :0.25383: AVG IPC :0.71623: L2-Pf-HR :0.97743: L2-HR :0.86132: (Sim:1h26m50s) 
CPU  0 inst:  257000000 cyc:  359556506 now IPC :0.25383: AVG IPC :0.71115: L2-Pf-HR :0.97722: L2-HR :0.86075: (Sim:1h27m26s) 
CPU  0 inst:  258000000 cyc:  363494262 now IPC :0.25395: AVG IPC :0.70619: L2-Pf-HR :0.97700: L2-HR :0.86017: (Sim:1h28m3s) 
CPU  0 inst:  259000000 cyc:  367433522 now IPC :0.25385: AVG IPC :0.70133: L2-Pf-HR :0.97679: L2-HR :0.85960: (Sim:1h28m39s) 
CPU  0 inst:  260000000 cyc:  371373122 now IPC :0.25383: AVG IPC :0.69657: L2-Pf-HR :0.97657: L2-HR :0.85903: (Sim:1h29m15s) 
CPU  0 inst:  261000000 cyc:  375311151 now IPC :0.25393: AVG IPC :0.69191: L2-Pf-HR :0.97636: L2-HR :0.85845: (Sim:1h29m52s) 
CPU  0 inst:  262000001 cyc:  379250695 now IPC :0.25384: AVG IPC :0.68735: L2-Pf-HR :0.97615: L2-HR :0.85788: (Sim:1h30m28s) 
CPU  0 inst:  263000001 cyc:  383189376 now IPC :0.25389: AVG IPC :0.68288: L2-Pf-HR :0.97593: L2-HR :0.85732: (Sim:1h31m4s) 
CPU  0 inst:  264000003 cyc:  387132225 now IPC :0.25362: AVG IPC :0.67850: L2-Pf-HR :0.97572: L2-HR :0.85675: (Sim:1h31m41s) 
CPU  0 inst:  265000000 cyc:  391069286 now IPC :0.25400: AVG IPC :0.67421: L2-Pf-HR :0.97551: L2-HR :0.85619: (Sim:1h32m17s) 
CPU  0 inst:  266000000 cyc:  395009523 now IPC :0.25379: AVG IPC :0.67001: L2-Pf-HR :0.97529: L2-HR :0.85562: (Sim:1h32m54s) 
CPU  0 inst:  267000004 cyc:  398947405 now IPC :0.25394: AVG IPC :0.66589: L2-Pf-HR :0.97508: L2-HR :0.85506: (Sim:1h33m30s) 
CPU  0 inst:  268000000 cyc:  402884828 now IPC :0.25397: AVG IPC :0.66186: L2-Pf-HR :0.97487: L2-HR :0.85450: (Sim:1h34m6s) 
CPU  0 inst:  269000000 cyc:  406826403 now IPC :0.25371: AVG IPC :0.65789: L2-Pf-HR :0.97465: L2-HR :0.85394: (Sim:1h34m43s) 
CPU  0 inst:  270000001 cyc:  410764420 now IPC :0.25394: AVG IPC :0.65401: L2-Pf-HR :0.97444: L2-HR :0.85338: (Sim:1h35m19s) 
CPU  0 inst:  271000001 cyc:  414705670 now IPC :0.25373: AVG IPC :0.65020: L2-Pf-HR :0.97423: L2-HR :0.85282: (Sim:1h35m55s) 
CPU  0 inst:  272000000 cyc:  418647962 now IPC :0.25366: AVG IPC :0.64645: L2-Pf-HR :0.97402: L2-HR :0.85227: (Sim:1h36m32s) 
CPU  0 inst:  273000000 cyc:  422586125 now IPC :0.25393: AVG IPC :0.64279: L2-Pf-HR :0.97381: L2-HR :0.85171: (Sim:1h37m8s) 
CPU  0 inst:  274000000 cyc:  426524961 now IPC :0.25388: AVG IPC :0.63919: L2-Pf-HR :0.97359: L2-HR :0.85116: (Sim:1h37m44s) 
CPU  0 inst:  275000000 cyc:  430464431 now IPC :0.25384: AVG IPC :0.63565: L2-Pf-HR :0.97338: L2-HR :0.85061: (Sim:1h38m20s) 
CPU  0 inst:  276000000 cyc:  434401629 now IPC :0.25399: AVG IPC :0.63219: L2-Pf-HR :0.97317: L2-HR :0.85006: (Sim:1h38m57s) 
CPU  0 inst:  277000000 cyc:  438339382 now IPC :0.25395: AVG IPC :0.62878: L2-Pf-HR :0.97296: L2-HR :0.84951: (Sim:1h39m33s) 
CPU  0 inst:  278000001 cyc:  442275802 now IPC :0.25404: AVG IPC :0.62544: L2-Pf-HR :0.97275: L2-HR :0.84897: (Sim:1h40m10s) 
CPU  0 inst:  279000003 cyc:  446217461 now IPC :0.25370: AVG IPC :0.62215: L2-Pf-HR :0.97253: L2-HR :0.84842: (Sim:1h40m46s) 
CPU  0 inst:  280000000 cyc:  450155263 now IPC :0.25395: AVG IPC :0.61892: L2-Pf-HR :0.97232: L2-HR :0.84788: (Sim:1h41m22s) 
CPU  0 inst:  281000000 cyc:  454093729 now IPC :0.25391: AVG IPC :0.61575: L2-Pf-HR :0.97211: L2-HR :0.84733: (Sim:1h41m59s) 
CPU  0 inst:  282000000 cyc:  458032735 now IPC :0.25387: AVG IPC :0.61263: L2-Pf-HR :0.97190: L2-HR :0.84679: (Sim:1h42m35s) 
CPU  0 inst:  283000000 cyc:  461969624 now IPC :0.25401: AVG IPC :0.60956: L2-Pf-HR :0.97169: L2-HR :0.84625: (Sim:1h43m11s) 
CPU  0 inst:  284000004 cyc:  465909191 now IPC :0.25384: AVG IPC :0.60655: L2-Pf-HR :0.97148: L2-HR :0.84571: (Sim:1h43m48s) 
CPU  0 inst:  285000000 cyc:  469845377 now IPC :0.25405: AVG IPC :0.60359: L2-Pf-HR :0.97127: L2-HR :0.84517: (Sim:1h44m24s) 
CPU  0 inst:  286000003 cyc:  473787521 now IPC :0.25367: AVG IPC :0.60067: L2-Pf-HR :0.97105: L2-HR :0.84464: (Sim:1h45m0s) 
CPU  0 inst:  287000000 cyc:  477727427 now IPC :0.25381: AVG IPC :0.59781: L2-Pf-HR :0.97084: L2-HR :0.84410: (Sim:1h45m37s) 
CPU  0 inst:  288000004 cyc:  481667708 now IPC :0.25379: AVG IPC :0.59499: L2-Pf-HR :0.97063: L2-HR :0.84357: (Sim:1h46m13s) 
CPU  0 inst:  289000000 cyc:  485607295 now IPC :0.25383: AVG IPC :0.59221: L2-Pf-HR :0.97042: L2-HR :0.84303: (Sim:1h46m50s) 
CPU  0 inst:  290000000 cyc:  489547701 now IPC :0.25378: AVG IPC :0.58948: L2-Pf-HR :0.97021: L2-HR :0.84250: (Sim:1h47m26s) 
CPU  0 inst:  291000000 cyc:  493486402 now IPC :0.25389: AVG IPC :0.58680: L2-Pf-HR :0.97000: L2-HR :0.84197: (Sim:1h48m2s) 
CPU  0 inst:  292000000 cyc:  497425715 now IPC :0.25385: AVG IPC :0.58416: L2-Pf-HR :0.96979: L2-HR :0.84144: (Sim:1h48m39s) 
CPU  0 inst:  293000001 cyc:  501362128 now IPC :0.25404: AVG IPC :0.58156: L2-Pf-HR :0.96958: L2-HR :0.84092: (Sim:1h49m15s) 
CPU  0 inst:  294000001 cyc:  505301901 now IPC :0.25382: AVG IPC :0.57900: L2-Pf-HR :0.96937: L2-HR :0.84039: (Sim:1h49m51s) 
CPU  0 inst:  295000000 cyc:  509241361 now IPC :0.25384: AVG IPC :0.57648: L2-Pf-HR :0.96916: L2-HR :0.83987: (Sim:1h50m28s) 
CPU  0 inst:  296000000 cyc:  513179678 now IPC :0.25392: AVG IPC :0.57400: L2-Pf-HR :0.96895: L2-HR :0.83934: (Sim:1h51m4s) 
CPU  0 inst:  297000001 cyc:  514796576 now IPC :0.61847: AVG IPC :0.57414: L2-Pf-HR :0.96885: L2-HR :0.83967: (Sim:1h51m29s) 
CPU  0 inst:  298000001 cyc:  515416293 now IPC :1.61364: AVG IPC :0.57539: L2-Pf-HR :0.96883: L2-HR :0.84044: (Sim:1h51m51s) 
CPU  0 inst:  299000004 cyc:  516023871 now IPC :1.64588: AVG IPC :0.57665: L2-Pf-HR :0.96880: L2-HR :0.84121: (Sim:1h52m12s) 
CPU  0 inst:  300000004 cyc:  516623285 now IPC :1.66830: AVG IPC :0.57792: L2-Pf-HR :0.96877: L2-HR :0.84195: (Sim:1h52m33s) 
CPU  0 inst:  301000001 cyc:  517226409 now IPC :1.65803: AVG IPC :0.57919: L2-Pf-HR :0.96874: L2-HR :0.84268: (Sim:1h52m55s) 
CPU  0 inst:  302000003 cyc:  517802709 now IPC :1.73521: AVG IPC :0.58047: L2-Pf-HR :0.96872: L2-HR :0.84344: (Sim:1h53m16s) 
CPU  0 inst:  303000001 cyc:  518366575 now IPC :1.77347: AVG IPC :0.58177: L2-Pf-HR :0.96869: L2-HR :0.84418: (Sim:1h53m37s) 
CPU  0 inst:  304000000 cyc:  518932615 now IPC :1.76666: AVG IPC :0.58307: L2-Pf-HR :0.96866: L2-HR :0.84491: (Sim:1h53m56s) 
CPU  0 inst:  305000003 cyc:  519511016 now IPC :1.72891: AVG IPC :0.58435: L2-Pf-HR :0.96866: L2-HR :0.84564: (Sim:1h54m5s) 
CPU  0 inst:  306000000 cyc:  520081095 now IPC :1.75414: AVG IPC :0.58563: L2-Pf-HR :0.96863: L2-HR :0.84636: (Sim:1h54m15s) 
CPU  0 inst:  307000000 cyc:  520641174 now IPC :1.78546: AVG IPC :0.58693: L2-Pf-HR :0.96859: L2-HR :0.84705: (Sim:1h54m24s) 
CPU  0 inst:  308000001 cyc:  521200154 now IPC :1.78897: AVG IPC :0.58822: L2-Pf-HR :0.96857: L2-HR :0.84776: (Sim:1h54m33s) 
CPU  0 inst:  309000001 cyc:  521768566 now IPC :1.75929: AVG IPC :0.58950: L2-Pf-HR :0.96858: L2-HR :0.84845: (Sim:1h54m43s) 
CPU  0 inst:  310000002 cyc:  522332183 now IPC :1.77426: AVG IPC :0.59078: L2-Pf-HR :0.96864: L2-HR :0.84913: (Sim:1h54m52s) 
CPU  0 inst:  311000002 cyc:  522896010 now IPC :1.77359: AVG IPC :0.59205: L2-Pf-HR :0.96870: L2-HR :0.84981: (Sim:1h55m1s) 
CPU  0 inst:  312000001 cyc:  523460336 now IPC :1.77202: AVG IPC :0.59333: L2-Pf-HR :0.96876: L2-HR :0.85049: (Sim:1h55m10s) 
CPU  0 inst:  313000003 cyc:  524038157 now IPC :1.73064: AVG IPC :0.59459: L2-Pf-HR :0.96881: L2-HR :0.85115: (Sim:1h55m20s) 
CPU  0 inst:  314000000 cyc:  524634161 now IPC :1.67784: AVG IPC :0.59582: L2-Pf-HR :0.96878: L2-HR :0.85176: (Sim:1h55m29s) 
CPU  0 inst:  315000002 cyc:  525222203 now IPC :1.70056: AVG IPC :0.59706: L2-Pf-HR :0.96878: L2-HR :0.85240: (Sim:1h55m38s) 
CPU  0 inst:  316000000 cyc:  525810359 now IPC :1.70023: AVG IPC :0.59829: L2-Pf-HR :0.96876: L2-HR :0.85304: (Sim:1h55m48s) 
CPU  0 inst:  317000000 cyc:  526402204 now IPC :1.68963: AVG IPC :0.59952: L2-Pf-HR :0.96873: L2-HR :0.85364: (Sim:1h55m57s) 
CPU  0 inst:  318000002 cyc:  526971642 now IPC :1.75612: AVG IPC :0.60078: L2-Pf-HR :0.96870: L2-HR :0.85425: (Sim:1h56m6s) 
CPU  0 inst:  319000005 cyc:  527522125 now IPC :1.81659: AVG IPC :0.60205: L2-Pf-HR :0.96868: L2-HR :0.85487: (Sim:1h56m16s) 
CPU  0 inst:  320000002 cyc:  528077611 now IPC :1.80022: AVG IPC :0.60331: L2-Pf-HR :0.96867: L2-HR :0.85549: (Sim:1h56m25s) 
CPU  0 inst:  321000002 cyc:  528628155 now IPC :1.81639: AVG IPC :0.60457: L2-Pf-HR :0.96866: L2-HR :0.85612: (Sim:1h56m34s) 
CPU  0 inst:  322000004 cyc:  529197678 now IPC :1.75586: AVG IPC :0.60582: L2-Pf-HR :0.96861: L2-HR :0.85668: (Sim:1h56m43s) 
CPU  0 inst:  323000002 cyc:  529742288 now IPC :1.83617: AVG IPC :0.60708: L2-Pf-HR :0.96860: L2-HR :0.85728: (Sim:1h56m52s) 
CPU  0 inst:  324000001 cyc:  530293534 now IPC :1.81407: AVG IPC :0.60834: L2-Pf-HR :0.96859: L2-HR :0.85787: (Sim:1h57m1s) 
CPU  0 inst:  325000003 cyc:  530847953 now IPC :1.80369: AVG IPC :0.60959: L2-Pf-HR :0.96858: L2-HR :0.85847: (Sim:1h57m11s) 
CPU  0 inst:  326000003 cyc:  531419310 now IPC :1.75022: AVG IPC :0.61082: L2-Pf-HR :0.96858: L2-HR :0.85901: (Sim:1h57m20s) 
CPU  0 inst:  327000005 cyc:  531976161 now IPC :1.79582: AVG IPC :0.61206: L2-Pf-HR :0.96864: L2-HR :0.85958: (Sim:1h57m29s) 
CPU  0 inst:  328000003 cyc:  532531979 now IPC :1.79915: AVG IPC :0.61330: L2-Pf-HR :0.96870: L2-HR :0.86016: (Sim:1h57m38s) 
CPU  0 inst:  329000005 cyc:  533090047 now IPC :1.79190: AVG IPC :0.61454: L2-Pf-HR :0.96876: L2-HR :0.86072: (Sim:1h57m47s) 
CPU  0 inst:  330000000 cyc:  533683961 now IPC :1.68374: AVG IPC :0.61573: L2-Pf-HR :0.96876: L2-HR :0.86122: (Sim:1h57m57s) 
CPU  0 inst:  331000000 cyc:  534272029 now IPC :1.70048: AVG IPC :0.61693: L2-Pf-HR :0.96875: L2-HR :0.86175: (Sim:1h58m6s) 
CPU  0 inst:  332000005 cyc:  534858077 now IPC :1.70635: AVG IPC :0.61812: L2-Pf-HR :0.96873: L2-HR :0.86228: (Sim:1h58m15s) 
CPU  0 inst:  333000000 cyc:  535450933 now IPC :1.68674: AVG IPC :0.61931: L2-Pf-HR :0.96872: L2-HR :0.86280: (Sim:1h58m25s) 
CPU  0 inst:  334000001 cyc:  536050101 now IPC :1.66898: AVG IPC :0.62048: L2-Pf-HR :0.96867: L2-HR :0.86327: (Sim:1h58m34s) 
CPU  0 inst:  335000004 cyc:  536601954 now IPC :1.81208: AVG IPC :0.62171: L2-Pf-HR :0.96866: L2-HR :0.86381: (Sim:1h58m43s) 
CPU  0 inst:  336000003 cyc:  537151692 now IPC :1.81905: AVG IPC :0.62294: L2-Pf-HR :0.96865: L2-HR :0.86434: (Sim:1h58m52s) 
CPU  0 inst:  337000005 cyc:  537713361 now IPC :1.78041: AVG IPC :0.62415: L2-Pf-HR :0.96862: L2-HR :0.86484: (Sim:1h59m2s) 
CPU  0 inst:  338000005 cyc:  538267214 now IPC :1.80553: AVG IPC :0.62537: L2-Pf-HR :0.96861: L2-HR :0.86537: (Sim:1h59m11s) 
CPU  0 inst:  339000001 cyc:  538829996 now IPC :1.77688: AVG IPC :0.62657: L2-Pf-HR :0.96858: L2-HR :0.86585: (Sim:1h59m20s) 
CPU  0 inst:  340000002 cyc:  539382154 now IPC :1.81108: AVG IPC :0.62779: L2-Pf-HR :0.96856: L2-HR :0.86634: (Sim:1h59m29s) 
CPU  0 inst:  341000002 cyc:  539936563 now IPC :1.80372: AVG IPC :0.62900: L2-Pf-HR :0.96853: L2-HR :0.86682: (Sim:1h59m39s) 
CPU  0 inst:  342000002 cyc:  540490382 now IPC :1.80564: AVG IPC :0.63021: L2-Pf-HR :0.96850: L2-HR :0.86731: (Sim:1h59m48s) 
CPU  0 inst:  343000001 cyc:  541058408 now IPC :1.76048: AVG IPC :0.63139: L2-Pf-HR :0.96855: L2-HR :0.86779: (Sim:1h59m57s) 
CPU  0 inst:  344000001 cyc:  541619443 now IPC :1.78242: AVG IPC :0.63259: L2-Pf-HR :0.96859: L2-HR :0.86826: (Sim:2h0m6s) 
CPU  0 inst:  345000001 cyc:  542178728 now IPC :1.78800: AVG IPC :0.63378: L2-Pf-HR :0.96864: L2-HR :0.86874: (Sim:2h0m15s) 
CPU  0 inst:  346000002 cyc:  542736604 now IPC :1.79251: AVG IPC :0.63498: L2-Pf-HR :0.96869: L2-HR :0.86922: (Sim:2h0m24s) 
CPU  0 inst:  347000000 cyc:  543333186 now IPC :1.67621: AVG IPC :0.63612: L2-Pf-HR :0.96869: L2-HR :0.86964: (Sim:2h0m33s) 
CPU  0 inst:  348000002 cyc:  543924730 now IPC :1.69049: AVG IPC :0.63727: L2-Pf-HR :0.96868: L2-HR :0.87008: (Sim:2h0m43s) 
CPU  0 inst:  349000001 cyc:  544513396 now IPC :1.69875: AVG IPC :0.63842: L2-Pf-HR :0.96867: L2-HR :0.87052: (Sim:2h0m52s) 
CPU  0 inst:  350000003 cyc:  545102938 now IPC :1.69624: AVG IPC :0.63957: L2-Pf-HR :0.96866: L2-HR :0.87096: (Sim:2h1m1s) 
CPU  0 inst:  351000000 cyc:  545688904 now IPC :1.70658: AVG IPC :0.64071: L2-Pf-HR :0.96862: L2-HR :0.87136: (Sim:2h1m11s) 
CPU  0 inst:  352000005 cyc:  546238765 now IPC :1.81865: AVG IPC :0.64190: L2-Pf-HR :0.96861: L2-HR :0.87182: (Sim:2h1m20s) 
CPU  0 inst:  353000005 cyc:  546793218 now IPC :1.80358: AVG IPC :0.64308: L2-Pf-HR :0.96860: L2-HR :0.87227: (Sim:2h1m29s) 
CPU  0 inst:  354000004 cyc:  547351513 now IPC :1.79117: AVG IPC :0.64426: L2-Pf-HR :0.96859: L2-HR :0.87271: (Sim:2h1m38s) 
CPU  0 inst:  355000001 cyc:  547921967 now IPC :1.75298: AVG IPC :0.64541: L2-Pf-HR :0.96855: L2-HR :0.87311: (Sim:2h1m47s) 
CPU  0 inst:  356000005 cyc:  548470679 now IPC :1.82246: AVG IPC :0.64659: L2-Pf-HR :0.96854: L2-HR :0.87355: (Sim:2h1m56s) 
CPU  0 inst:  357000003 cyc:  549019101 now IPC :1.82341: AVG IPC :0.64777: L2-Pf-HR :0.96853: L2-HR :0.87397: (Sim:2h2m5s) 
CPU  0 inst:  358000005 cyc:  549573908 now IPC :1.80243: AVG IPC :0.64894: L2-Pf-HR :0.96852: L2-HR :0.87439: (Sim:2h2m15s) 
CPU  0 inst:  359000002 cyc:  550141786 now IPC :1.76094: AVG IPC :0.65009: L2-Pf-HR :0.96850: L2-HR :0.87479: (Sim:2h2m24s) 
CPU  0 inst:  360000000 cyc:  550702499 now IPC :1.78344: AVG IPC :0.65124: L2-Pf-HR :0.96855: L2-HR :0.87521: (Sim:2h2m33s) 
CPU  0 inst:  361000005 cyc:  551259003 now IPC :1.79694: AVG IPC :0.65240: L2-Pf-HR :0.96860: L2-HR :0.87563: (Sim:2h2m42s) 
CPU  0 inst:  362000005 cyc:  551817111 now IPC :1.79177: AVG IPC :0.65356: L2-Pf-HR :0.96865: L2-HR :0.87604: (Sim:2h2m51s) 
CPU  0 inst:  363000003 cyc:  552382601 now IPC :1.76837: AVG IPC :0.65470: L2-Pf-HR :0.96869: L2-HR :0.87645: (Sim:2h3m0s) 
CPU  0 inst:  364000003 cyc:  552986649 now IPC :1.65550: AVG IPC :0.65579: L2-Pf-HR :0.96867: L2-HR :0.87680: (Sim:2h3m9s) 
CPU  0 inst:  365000003 cyc:  553574107 now IPC :1.70225: AVG IPC :0.65691: L2-Pf-HR :0.96866: L2-HR :0.87719: (Sim:2h3m19s) 
CPU  0 inst:  366000002 cyc:  554162537 now IPC :1.69944: AVG IPC :0.65802: L2-Pf-HR :0.96865: L2-HR :0.87757: (Sim:2h3m28s) 
CPU  0 inst:  367000000 cyc:  554754787 now IPC :1.68847: AVG IPC :0.65912: L2-Pf-HR :0.96863: L2-HR :0.87795: (Sim:2h3m37s) 
CPU  0 inst:  368000002 cyc:  555333194 now IPC :1.72889: AVG IPC :0.66023: L2-Pf-HR :0.96860: L2-HR :0.87830: (Sim:2h3m46s) 
CPU  0 inst:  369000005 cyc:  555885396 now IPC :1.81094: AVG IPC :0.66138: L2-Pf-HR :0.96859: L2-HR :0.87869: (Sim:2h3m56s) 
CPU  0 inst:  370000000 cyc:  556442624 now IPC :1.79459: AVG IPC :0.66252: L2-Pf-HR :0.96858: L2-HR :0.87907: (Sim:2h4m5s) 
CPU  0 inst:  371000000 cyc:  557004483 now IPC :1.77981: AVG IPC :0.66365: L2-Pf-HR :0.96856: L2-HR :0.87945: (Sim:2h4m14s) 
CPU  0 inst:  372000003 cyc:  557569305 now IPC :1.77047: AVG IPC :0.66477: L2-Pf-HR :0.96854: L2-HR :0.87980: (Sim:2h4m23s) 
CPU  0 inst:  373000003 cyc:  558116110 now IPC :1.82881: AVG IPC :0.66591: L2-Pf-HR :0.96853: L2-HR :0.88018: (Sim:2h4m33s) 
CPU  0 inst:  374000000 cyc:  558667795 now IPC :1.81262: AVG IPC :0.66705: L2-Pf-HR :0.96851: L2-HR :0.88054: (Sim:2h4m42s) 
CPU  0 inst:  375000005 cyc:  559226087 now IPC :1.79119: AVG IPC :0.66817: L2-Pf-HR :0.96849: L2-HR :0.88090: (Sim:2h4m51s) 
CPU  0 inst:  376000002 cyc:  559788995 now IPC :1.77648: AVG IPC :0.66929: L2-Pf-HR :0.96850: L2-HR :0.88126: (Sim:2h5m0s) 
CPU  0 inst:  377000004 cyc:  560348658 now IPC :1.78679: AVG IPC :0.67040: L2-Pf-HR :0.96854: L2-HR :0.88161: (Sim:2h5m9s) 
CPU  0 inst:  378000002 cyc:  560908001 now IPC :1.78781: AVG IPC :0.67152: L2-Pf-HR :0.96858: L2-HR :0.88196: (Sim:2h5m18s) 
CPU  0 inst:  379000000 cyc:  561469480 now IPC :1.78101: AVG IPC :0.67263: L2-Pf-HR :0.96862: L2-HR :0.88231: (Sim:2h5m37s) 
CPU  0 inst:  380000001 cyc:  562047895 now IPC :1.72886: AVG IPC :0.67372: L2-Pf-HR :0.96865: L2-HR :0.88265: (Sim:2h5m59s) 
CPU  0 inst:  381000002 cyc:  562641058 now IPC :1.68588: AVG IPC :0.67479: L2-Pf-HR :0.96862: L2-HR :0.88297: (Sim:2h6m20s) 
CPU  0 inst:  382000000 cyc:  563234179 now IPC :1.68599: AVG IPC :0.67586: L2-Pf-HR :0.96860: L2-HR :0.88329: (Sim:2h6m42s) 
CPU  0 inst:  383000000 cyc:  563824065 now IPC :1.69524: AVG IPC :0.67692: L2-Pf-HR :0.96859: L2-HR :0.88362: (Sim:2h7m4s) 
CPU  0 inst:  384000002 cyc:  564419063 now IPC :1.68068: AVG IPC :0.67798: L2-Pf-HR :0.96858: L2-HR :0.88393: (Sim:2h7m26s) 
CPU  0 inst:  385000004 cyc:  564975503 now IPC :1.79714: AVG IPC :0.67909: L2-Pf-HR :0.96855: L2-HR :0.88425: (Sim:2h7m48s) 
CPU  0 inst:  386000000 cyc:  565526675 now IPC :1.81431: AVG IPC :0.68020: L2-Pf-HR :0.96854: L2-HR :0.88458: (Sim:2h8m10s) 
CPU  0 inst:  387000000 cyc:  566089012 now IPC :1.77829: AVG IPC :0.68129: L2-Pf-HR :0.96853: L2-HR :0.88492: (Sim:2h8m32s) 
CPU  0 inst:  388000002 cyc:  566643911 now IPC :1.80213: AVG IPC :0.68239: L2-Pf-HR :0.96851: L2-HR :0.88524: (Sim:2h8m54s) 
CPU  0 inst:  389000001 cyc:  567206276 now IPC :1.77820: AVG IPC :0.68348: L2-Pf-HR :0.96849: L2-HR :0.88555: (Sim:2h9m16s) 
CPU  0 inst:  390000002 cyc:  567753326 now IPC :1.82799: AVG IPC :0.68458: L2-Pf-HR :0.96848: L2-HR :0.88587: (Sim:2h9m38s) 
CPU  0 inst:  391000005 cyc:  568306903 now IPC :1.80644: AVG IPC :0.68568: L2-Pf-HR :0.96847: L2-HR :0.88619: (Sim:2h10m0s) 
CPU  0 inst:  392000005 cyc:  568858074 now IPC :1.81432: AVG IPC :0.68677: L2-Pf-HR :0.96846: L2-HR :0.88651: (Sim:2h10m22s) 
CPU  0 inst:  393000005 cyc:  569430204 now IPC :1.74785: AVG IPC :0.68784: L2-Pf-HR :0.96847: L2-HR :0.88680: (Sim:2h10m44s) 
CPU  0 inst:  394000001 cyc:  569988014 now IPC :1.79272: AVG IPC :0.68892: L2-Pf-HR :0.96852: L2-HR :0.88712: (Sim:2h11m6s) 
CPU  0 inst:  395000000 cyc:  570546108 now IPC :1.79181: AVG IPC :0.69000: L2-Pf-HR :0.96856: L2-HR :0.88744: (Sim:2h11m28s) 
CPU  0 inst:  396000003 cyc:  571104397 now IPC :1.79119: AVG IPC :0.69108: L2-Pf-HR :0.96861: L2-HR :0.88775: (Sim:2h11m49s) 
CPU  0 inst:  397000004 cyc:  571698712 now IPC :1.68261: AVG IPC :0.69212: L2-Pf-HR :0.96861: L2-HR :0.88802: (Sim:2h12m11s) 
CPU  0 inst:  398000002 cyc:  572286831 now IPC :1.70033: AVG IPC :0.69315: L2-Pf-HR :0.96860: L2-HR :0.88831: (Sim:2h12m33s) 
CPU  0 inst:  399000002 cyc:  572873717 now IPC :1.70391: AVG IPC :0.69419: L2-Pf-HR :0.96859: L2-HR :0.88861: (Sim:2h12m55s) 
CPU  0 inst:  400000000 cyc:  573463775 now IPC :1.69475: AVG IPC :0.69522: L2-Pf-HR :0.96858: L2-HR :0.88889: (Sim:2h13m17s) 
CPU  0 inst:  401000003 cyc:  574056324 now IPC :1.68763: AVG IPC :0.69625: L2-Pf-HR :0.96854: L2-HR :0.88915: (Sim:2h13m39s) 
CPU  0 inst:  402000003 cyc:  574606727 now IPC :1.81685: AVG IPC :0.69732: L2-Pf-HR :0.96854: L2-HR :0.88945: (Sim:2h14m1s) 
CPU  0 inst:  403000004 cyc:  575159589 now IPC :1.80877: AVG IPC :0.69839: L2-Pf-HR :0.96853: L2-HR :0.88975: (Sim:2h14m23s) 
CPU  0 inst:  404000004 cyc:  575723866 now IPC :1.77218: AVG IPC :0.69945: L2-Pf-HR :0.96852: L2-HR :0.89004: (Sim:2h14m45s) 
CPU  0 inst:  405000004 cyc:  576293714 now IPC :1.75485: AVG IPC :0.70049: L2-Pf-HR :0.96849: L2-HR :0.89031: (Sim:2h15m7s) 
CPU  0 inst:  406000000 cyc:  576845378 now IPC :1.81269: AVG IPC :0.70156: L2-Pf-HR :0.96848: L2-HR :0.89060: (Sim:2h15m29s) 
CPU  0 inst:  407000003 cyc:  577392907 now IPC :1.82639: AVG IPC :0.70263: L2-Pf-HR :0.96847: L2-HR :0.89088: (Sim:2h15m51s) 
CPU  0 inst:  408000000 cyc:  577952417 now IPC :1.78727: AVG IPC :0.70368: L2-Pf-HR :0.96845: L2-HR :0.89115: (Sim:2h16m13s) 
CPU  0 inst:  409000000 cyc:  578507653 now IPC :1.80104: AVG IPC :0.70473: L2-Pf-HR :0.96844: L2-HR :0.89143: (Sim:2h16m35s) 
CPU  0 inst:  410000002 cyc:  579076545 now IPC :1.75781: AVG IPC :0.70577: L2-Pf-HR :0.96847: L2-HR :0.89170: (Sim:2h16m57s) 
CPU  0 inst:  411000005 cyc:  579634068 now IPC :1.79365: AVG IPC :0.70682: L2-Pf-HR :0.96851: L2-HR :0.89198: (Sim:2h17m19s) 
CPU  0 inst:  412000000 cyc:  580196898 now IPC :1.77673: AVG IPC :0.70786: L2-Pf-HR :0.96855: L2-HR :0.89225: (Sim:2h17m40s) 
CPU  0 inst:  413000000 cyc:  580759922 now IPC :1.77612: AVG IPC :0.70890: L2-Pf-HR :0.96859: L2-HR :0.89252: (Sim:2h18m2s) 
CPU  0 inst:  414000005 cyc:  581355196 now IPC :1.67991: AVG IPC :0.70989: L2-Pf-HR :0.96858: L2-HR :0.89277: (Sim:2h18m24s) 
CPU  0 inst:  415000001 cyc:  581943736 now IPC :1.69911: AVG IPC :0.71089: L2-Pf-HR :0.96856: L2-HR :0.89302: (Sim:2h18m46s) 
CPU  0 inst:  416000003 cyc:  582537552 now IPC :1.68403: AVG IPC :0.71189: L2-Pf-HR :0.96854: L2-HR :0.89327: (Sim:2h19m8s) 
CPU  0 inst:  417000003 cyc:  583123420 now IPC :1.70687: AVG IPC :0.71289: L2-Pf-HR :0.96853: L2-HR :0.89352: (Sim:2h19m30s) 
CPU  0 inst:  418000003 cyc:  583702716 now IPC :1.72623: AVG IPC :0.71390: L2-Pf-HR :0.96850: L2-HR :0.89376: (Sim:2h19m52s) 
CPU  0 inst:  419000001 cyc:  584252635 now IPC :1.81845: AVG IPC :0.71494: L2-Pf-HR :0.96849: L2-HR :0.89402: (Sim:2h20m14s) 
CPU  0 inst:  420000003 cyc:  584807578 now IPC :1.80199: AVG IPC :0.71597: L2-Pf-HR :0.96848: L2-HR :0.89428: (Sim:2h20m36s) 
CPU  0 inst:  421000005 cyc:  585361585 now IPC :1.80503: AVG IPC :0.71700: L2-Pf-HR :0.96847: L2-HR :0.89454: (Sim:2h20m58s) 
CPU  0 inst:  422000000 cyc:  585931761 now IPC :1.75384: AVG IPC :0.71801: L2-Pf-HR :0.96845: L2-HR :0.89477: (Sim:2h21m20s) 
CPU  0 inst:  423000004 cyc:  586477884 now IPC :1.83110: AVG IPC :0.71905: L2-Pf-HR :0.96843: L2-HR :0.89503: (Sim:2h21m42s) 
CPU  0 inst:  424000001 cyc:  587030297 now IPC :1.81023: AVG IPC :0.72008: L2-Pf-HR :0.96843: L2-HR :0.89528: (Sim:2h22m4s) 
CPU  0 inst:  425000001 cyc:  587582297 now IPC :1.81159: AVG IPC :0.72111: L2-Pf-HR :0.96842: L2-HR :0.89553: (Sim:2h22m26s) 
CPU  0 inst:  426000003 cyc:  588152000 now IPC :1.75530: AVG IPC :0.72211: L2-Pf-HR :0.96841: L2-HR :0.89575: (Sim:2h22m48s) 
CPU  0 inst:  427000002 cyc:  588707239 now IPC :1.80102: AVG IPC :0.72313: L2-Pf-HR :0.96845: L2-HR :0.89601: (Sim:2h23m10s) 
CPU  0 inst:  428000005 cyc:  589262265 now IPC :1.80172: AVG IPC :0.72415: L2-Pf-HR :0.96849: L2-HR :0.89626: (Sim:2h23m31s) 
CPU  0 inst:  429000004 cyc:  589821285 now IPC :1.78884: AVG IPC :0.72516: L2-Pf-HR :0.96853: L2-HR :0.89651: (Sim:2h23m53s) 
CPU  0 inst:  430000003 cyc:  590404196 now IPC :1.71553: AVG IPC :0.72614: L2-Pf-HR :0.96855: L2-HR :0.89673: (Sim:2h24m15s) 
CPU  0 inst:  431000001 cyc:  590993585 now IPC :1.69667: AVG IPC :0.72711: L2-Pf-HR :0.96853: L2-HR :0.89695: (Sim:2h24m37s) 
CPU  0 inst:  432000001 cyc:  591581474 now IPC :1.70100: AVG IPC :0.72808: L2-Pf-HR :0.96852: L2-HR :0.89718: (Sim:2h24m59s) 
CPU  0 inst:  433000002 cyc:  592172916 now IPC :1.69078: AVG IPC :0.72904: L2-Pf-HR :0.96851: L2-HR :0.89741: (Sim:2h25m21s) 
CPU  0 inst:  434000002 cyc:  592767512 now IPC :1.68181: AVG IPC :0.73000: L2-Pf-HR :0.96849: L2-HR :0.89762: (Sim:2h25m43s) 
CPU  0 inst:  435000004 cyc:  593334105 now IPC :1.76494: AVG IPC :0.73099: L2-Pf-HR :0.96847: L2-HR :0.89784: (Sim:2h26m5s) 
CPU  0 inst:  436000003 cyc:  593885259 now IPC :1.81437: AVG IPC :0.73199: L2-Pf-HR :0.96846: L2-HR :0.89807: (Sim:2h26m27s) 
CPU  0 inst:  437000005 cyc:  594439100 now IPC :1.80558: AVG IPC :0.73300: L2-Pf-HR :0.96845: L2-HR :0.89830: (Sim:2h26m49s) 
CPU  0 inst:  438000002 cyc:  594996821 now IPC :1.79301: AVG IPC :0.73399: L2-Pf-HR :0.96844: L2-HR :0.89854: (Sim:2h27m10s) 
CPU  0 inst:  439000000 cyc:  595565671 now IPC :1.75793: AVG IPC :0.73497: L2-Pf-HR :0.96842: L2-HR :0.89874: (Sim:2h27m32s) 
CPU  0 inst:  440000000 cyc:  596112500 now IPC :1.82873: AVG IPC :0.73598: L2-Pf-HR :0.96841: L2-HR :0.89897: (Sim:2h27m54s) 
CPU  0 inst:  441000005 cyc:  596661062 now IPC :1.82296: AVG IPC :0.73698: L2-Pf-HR :0.96840: L2-HR :0.89919: (Sim:2h28m15s) 
CPU  0 inst:  442000002 cyc:  597218480 now IPC :1.79398: AVG IPC :0.73797: L2-Pf-HR :0.96839: L2-HR :0.89941: (Sim:2h28m37s) 
CPU  0 inst:  443000005 cyc:  597789651 now IPC :1.75079: AVG IPC :0.73893: L2-Pf-HR :0.96840: L2-HR :0.89962: (Sim:2h28m59s) 
CPU  0 inst:  444000004 cyc:  598346004 now IPC :1.79742: AVG IPC :0.73992: L2-Pf-HR :0.96843: L2-HR :0.89985: (Sim:2h29m20s) 
CPU  0 inst:  445000005 cyc:  598906923 now IPC :1.78279: AVG IPC :0.74090: L2-Pf-HR :0.96847: L2-HR :0.90006: (Sim:2h29m42s) 
CPU  0 inst:  446000004 cyc:  599472531 now IPC :1.76801: AVG IPC :0.74187: L2-Pf-HR :0.96850: L2-HR :0.90028: (Sim:2h30m3s) 
CPU  0 inst:  447000000 cyc:  600059323 now IPC :1.70417: AVG IPC :0.74281: L2-Pf-HR :0.96851: L2-HR :0.90047: (Sim:2h30m25s) 
CPU  0 inst:  448000003 cyc:  600650881 now IPC :1.69046: AVG IPC :0.74375: L2-Pf-HR :0.96851: L2-HR :0.90067: (Sim:2h30m47s) 
CPU  0 inst:  449000000 cyc:  601246407 now IPC :1.67918: AVG IPC :0.74467: L2-Pf-HR :0.96848: L2-HR :0.90087: (Sim:2h31m9s) 
CPU  0 inst:  450000005 cyc:  601834945 now IPC :1.69913: AVG IPC :0.74561: L2-Pf-HR :0.96847: L2-HR :0.90107: (Sim:2h31m30s) 
CPU  0 inst:  451000005 cyc:  602428055 now IPC :1.68603: AVG IPC :0.74654: L2-Pf-HR :0.96846: L2-HR :0.90125: (Sim:2h31m52s) 
CPU  0 inst:  452000000 cyc:  602980877 now IPC :1.80889: AVG IPC :0.74751: L2-Pf-HR :0.96844: L2-HR :0.90146: (Sim:2h32m14s) 
CPU  0 inst:  453000001 cyc:  603535233 now IPC :1.80390: AVG IPC :0.74848: L2-Pf-HR :0.96843: L2-HR :0.90167: (Sim:2h32m25s) 
CPU  0 inst:  454000003 cyc:  604095662 now IPC :1.78435: AVG IPC :0.74945: L2-Pf-HR :0.96842: L2-HR :0.90187: (Sim:2h32m35s) 
CPU  0 inst:  455000000 cyc:  604659175 now IPC :1.77458: AVG IPC :0.75040: L2-Pf-HR :0.96841: L2-HR :0.90207: (Sim:2h32m45s) 
CPU  0 inst:  456000005 cyc:  605214336 now IPC :1.80129: AVG IPC :0.75137: L2-Pf-HR :0.96839: L2-HR :0.90227: (Sim:2h32m54s) 
CPU  0 inst:  457000001 cyc:  605761941 now IPC :1.82613: AVG IPC :0.75234: L2-Pf-HR :0.96838: L2-HR :0.90247: (Sim:2h33m4s) 
CPU  0 inst:  458000000 cyc:  606316904 now IPC :1.80192: AVG IPC :0.75331: L2-Pf-HR :0.96838: L2-HR :0.90267: (Sim:2h33m13s) 
CPU  0 inst:  459000004 cyc:  606872082 now IPC :1.80123: AVG IPC :0.75427: L2-Pf-HR :0.96836: L2-HR :0.90287: (Sim:2h33m22s) 
CPU  0 inst:  460000002 cyc:  607441728 now IPC :1.75547: AVG IPC :0.75521: L2-Pf-HR :0.96839: L2-HR :0.90305: (Sim:2h33m32s) 
CPU  0 inst:  461000004 cyc:  607999147 now IPC :1.79399: AVG IPC :0.75616: L2-Pf-HR :0.96842: L2-HR :0.90326: (Sim:2h33m41s) 
CPU  0 inst:  462000001 cyc:  608559799 now IPC :1.78363: AVG IPC :0.75711: L2-Pf-HR :0.96846: L2-HR :0.90346: (Sim:2h33m50s) 
CPU  0 inst:  463000001 cyc:  609118855 now IPC :1.78873: AVG IPC :0.75806: L2-Pf-HR :0.96849: L2-HR :0.90366: (Sim:2h33m59s) 
CPU  0 inst:  464000004 cyc:  609719613 now IPC :1.66457: AVG IPC :0.75895: L2-Pf-HR :0.96848: L2-HR :0.90382: (Sim:2h34m8s) 
CPU  0 inst:  465000001 cyc:  610307654 now IPC :1.70056: AVG IPC :0.75986: L2-Pf-HR :0.96847: L2-HR :0.90400: (Sim:2h34m17s) 
CPU  0 inst:  466000002 cyc:  610896300 now IPC :1.69882: AVG IPC :0.76077: L2-Pf-HR :0.96846: L2-HR :0.90419: (Sim:2h34m26s) 
CPU  0 inst:  467000001 cyc:  611481195 now IPC :1.70971: AVG IPC :0.76167: L2-Pf-HR :0.96846: L2-HR :0.90437: (Sim:2h34m36s) 
CPU  0 inst:  468000000 cyc:  612066766 now IPC :1.70773: AVG IPC :0.76258: L2-Pf-HR :0.96844: L2-HR :0.90453: (Sim:2h34m45s) 
CPU  0 inst:  469000005 cyc:  612616206 now IPC :1.82004: AVG IPC :0.76353: L2-Pf-HR :0.96843: L2-HR :0.90472: (Sim:2h34m55s) 
CPU  0 inst:  470000000 cyc:  613169795 now IPC :1.80639: AVG IPC :0.76447: L2-Pf-HR :0.96842: L2-HR :0.90491: (Sim:2h35m4s) 
CPU  0 inst:  471000004 cyc:  613728010 now IPC :1.79143: AVG IPC :0.76541: L2-Pf-HR :0.96841: L2-HR :0.90510: (Sim:2h35m14s) 
CPU  0 inst:  472000002 cyc:  614299307 now IPC :1.75040: AVG IPC :0.76633: L2-Pf-HR :0.96839: L2-HR :0.90527: (Sim:2h35m23s) 
CPU  0 inst:  473000002 cyc:  614847463 now IPC :1.82430: AVG IPC :0.76727: L2-Pf-HR :0.96839: L2-HR :0.90546: (Sim:2h35m33s) 
CPU  0 inst:  474000000 cyc:  615395570 now IPC :1.82446: AVG IPC :0.76822: L2-Pf-HR :0.96838: L2-HR :0.90564: (Sim:2h35m42s) 
CPU  0 inst:  475000002 cyc:  615950820 now IPC :1.80099: AVG IPC :0.76915: L2-Pf-HR :0.96837: L2-HR :0.90583: (Sim:2h35m51s) 
CPU  0 inst:  476000001 cyc:  616521968 now IPC :1.75086: AVG IPC :0.77006: L2-Pf-HR :0.96836: L2-HR :0.90599: (Sim:2h36m1s) 
CPU  0 inst:  477000000 cyc:  617080113 now IPC :1.79165: AVG IPC :0.77098: L2-Pf-HR :0.96839: L2-HR :0.90617: (Sim:2h36m10s) 
CPU  0 inst:  478000000 cyc:  617634865 now IPC :1.80261: AVG IPC :0.77191: L2-Pf-HR :0.96843: L2-HR :0.90636: (Sim:2h36m19s) 
CPU  0 inst:  479000002 cyc:  618197939 now IPC :1.77597: AVG IPC :0.77283: L2-Pf-HR :0.96846: L2-HR :0.90653: (Sim:2h36m28s) 
CPU  0 inst:  480000003 cyc:  618762958 now IPC :1.76985: AVG IPC :0.77374: L2-Pf-HR :0.96849: L2-HR :0.90671: (Sim:2h36m37s) 
CPU  0 inst:  481000000 cyc:  619366658 now IPC :1.65645: AVG IPC :0.77460: L2-Pf-HR :0.96848: L2-HR :0.90686: (Sim:2h36m47s) 
CPU  0 inst:  482000005 cyc:  619956203 now IPC :1.69623: AVG IPC :0.77548: L2-Pf-HR :0.96846: L2-HR :0.90702: (Sim:2h36m56s) 
CPU  0 inst:  483000004 cyc:  620553654 now IPC :1.67378: AVG IPC :0.77635: L2-Pf-HR :0.96845: L2-HR :0.90718: (Sim:2h37m5s) 
CPU  0 inst:  484000000 cyc:  621145986 now IPC :1.68824: AVG IPC :0.77722: L2-Pf-HR :0.96844: L2-HR :0.90734: (Sim:2h37m14s) 
CPU  0 inst:  485000001 cyc:  621709998 now IPC :1.77301: AVG IPC :0.77812: L2-Pf-HR :0.96843: L2-HR :0.90750: (Sim:2h37m24s) 
CPU  0 inst:  486000002 cyc:  622266529 now IPC :1.79685: AVG IPC :0.77903: L2-Pf-HR :0.96842: L2-HR :0.90767: (Sim:2h37m33s) 
CPU  0 inst:  487000005 cyc:  622825136 now IPC :1.79017: AVG IPC :0.77994: L2-Pf-HR :0.96841: L2-HR :0.90784: (Sim:2h37m42s) 
CPU  0 inst:  488000000 cyc:  623384485 now IPC :1.78778: AVG IPC :0.78085: L2-Pf-HR :0.96840: L2-HR :0.90801: (Sim:2h37m52s) 
CPU  0 inst:  489000003 cyc:  623951551 now IPC :1.76347: AVG IPC :0.78174: L2-Pf-HR :0.96839: L2-HR :0.90816: (Sim:2h38m3s) 
CPU  0 inst:  490000003 cyc:  624501415 now IPC :1.81863: AVG IPC :0.78266: L2-Pf-HR :0.96837: L2-HR :0.90833: (Sim:2h38m12s) 
CPU  0 inst:  491000004 cyc:  625051809 now IPC :1.81688: AVG IPC :0.78357: L2-Pf-HR :0.96837: L2-HR :0.90849: (Sim:2h38m21s) 
CPU  0 inst:  492000005 cyc:  625604943 now IPC :1.80788: AVG IPC :0.78448: L2-Pf-HR :0.96836: L2-HR :0.90866: (Sim:2h38m42s) 
CPU  0 inst:  493000004 cyc:  626181874 now IPC :1.73331: AVG IPC :0.78535: L2-Pf-HR :0.96836: L2-HR :0.90880: (Sim:2h39m4s) 
Finished CPU 0 instr: 491000002 cyc: 625197472 AVG IPC: 0.78535 (Sim time: 2h39m4s)

ChampSim completed all CPUs

[ROI Statistics]
Core_0_instructions 491000002
Core_0_cycles 625197472
Core_0_IPC 0.78535

Core_0_branch_prediction_accuracy 99.58586
Core_0_branch_MPKI 0.12051
Core_0_average_ROB_occupancy_at_mispredict 569.18844

Core_0_L1D_total_access 136003498
Core_0_L1D_total_hit 116626735 L1D_total_Hit Ratio: 0.85753
Core_0_L1D_total_miss 19376763
Core_0_L1D_loads 123213887
Core_0_L1D_load_hit 104785594 L1D_load_Hit Ratio: 0.85044
Core_0_L1D_load_miss 18428293
Core_0_L1D_RFOs 12789611
Core_0_L1D_RFO_hit 11841141 L1D_RFO_Hit Ratio: 0.92584
Core_0_L1D_RFO_miss 948470
Core_0_L1D_prefetches 0
Core_0_L1D_prefetch_hit 0 L1D_prefetch_Hit Ratio: -nan
Core_0_L1D_prefetch_miss 0
Core_0_L1D_writebacks 0
Core_0_L1D_writeback_hit 0 L1D_writeback_Hit Ratio: -nan
Core_0_L1D_writeback_miss 0
Core_0_L1D_prefetch_requested 0
Core_0_L1D_prefetch_issued 0
Core_0_L1D_prefetch_useful 0 L1D_Useful Ratio: -nan
Core_0_L1D_prefetch_useless 0
Core_0_L1D_prefetch_late 0
Core_0_L1D_average_miss_latency 57.51171

Core_0_L1I_total_access 71719540
Core_0_L1I_total_hit 71714566 L1I_total_Hit Ratio: 0.99993
Core_0_L1I_total_miss 4974
Core_0_L1I_loads 71719540
Core_0_L1I_load_hit 71714566 L1I_load_Hit Ratio: 0.99993
Core_0_L1I_load_miss 4974
Core_0_L1I_RFOs 0
Core_0_L1I_RFO_hit 0 L1I_RFO_Hit Ratio: -nan
Core_0_L1I_RFO_miss 0
Core_0_L1I_prefetches 0
Core_0_L1I_prefetch_hit 0 L1I_prefetch_Hit Ratio: -nan
Core_0_L1I_prefetch_miss 0
Core_0_L1I_writebacks 0
Core_0_L1I_writeback_hit 0 L1I_writeback_Hit Ratio: -nan
Core_0_L1I_writeback_miss 0
Core_0_L1I_prefetch_requested 0
Core_0_L1I_prefetch_issued 0
Core_0_L1I_prefetch_useful 0 L1I_Useful Ratio: -nan
Core_0_L1I_prefetch_useless 0
Core_0_L1I_prefetch_late 0
Core_0_L1I_average_miss_latency 335.79413

Core_0_L2C_total_access 51723391
Core_0_L2C_total_hit 47006367 L2C_total_Hit Ratio: 0.90880
Core_0_L2C_total_miss 4717024
Core_0_L2C_loads 18433194
Core_0_L2C_load_hit 15435587 L2C_load_Hit Ratio: 0.83738
Core_0_L2C_load_miss 2997607
Core_0_L2C_RFOs 948470
Core_0_L2C_RFO_hit 161365 L2C_RFO_Hit Ratio: 0.17013
Core_0_L2C_RFO_miss 787105
Core_0_L2C_prefetches 29427900
Core_0_L2C_prefetch_hit 28496751 L2C_prefetch_Hit Ratio: 0.96836
Core_0_L2C_prefetch_miss 931149
Core_0_L2C_writebacks 2913827
Core_0_L2C_writeback_hit 2912664 L2C_writeback_Hit Ratio: 0.99960
Core_0_L2C_writeback_miss 1163
Core_0_L2C_prefetch_requested 68860406
Core_0_L2C_prefetch_issued 65006799
Core_0_L2C_prefetch_useful 818976 L2C_Useful Ratio: 0.01260
Core_0_L2C_prefetch_useless 114384
Core_0_L2C_prefetch_late 713472
Core_0_L2C_average_miss_latency 192.04189

Core_0_LLC_total_access 20681146
Core_0_LLC_total_hit 16155671 LLC_total_Hit Ratio: 0.78118
Core_0_LLC_total_miss 4525475
Core_0_LLC_loads 2284187
Core_0_LLC_load_hit 1628412 LLC_load_Hit Ratio: 0.71291
Core_0_LLC_load_miss 655775
Core_0_LLC_RFOs 787104
Core_0_LLC_RFO_hit 350 LLC_RFO_Hit Ratio: 0.00044
Core_0_LLC_RFO_miss 786754
Core_0_LLC_prefetches 14874545
Core_0_LLC_prefetch_hit 11851007 LLC_prefetch_Hit Ratio: 0.79673
Core_0_LLC_prefetch_miss 3023538
Core_0_LLC_writebacks 2735310
Core_0_LLC_writeback_hit 2675902 LLC_writeback_Hit Ratio: 0.97828
Core_0_LLC_writeback_miss 59408
Core_0_LLC_prefetch_requested 0
Core_0_LLC_prefetch_issued 0
Core_0_LLC_prefetch_useful 1300955 LLC_Useful Ratio: inf
Core_0_LLC_prefetch_useless 1708010
Core_0_LLC_prefetch_late 244316
Core_0_LLC_average_miss_latency 340.30974

Core_0_major_page_fault 0
Core_0_minor_page_fault 28665

 All Calls: 18477279
 Critical Calls: 18477279
------------------
Depth Distribution
------------------
depth 0: 0
depth 1: 12025610
depth 2: 11136935
depth 3: 9901275
depth 4: 8386153
depth 5: 6641314
depth 6: 4507668
depth 7: 3096147
depth 8: 2552460
depth 9: 2129801
depth 10: 1812067
depth 11: 1341842
depth 12: 878320
depth 13: 446680
depth 14: 76174
depth 15: 74123
depth 16: 230
depth 17: 0
depth 18: 0
depth 19: 0
depth 20: 0
depth 21: 0
depth 22: 0
depth 23: 0
depth 24: 0
depth 25: 0
depth 26: 0
depth 27: 0
depth 28: 0
depth 29: 0
Total: 65006799
-----------------------------
-----------------------------
	Captured at Filter
-----------------------------
depth 0: 0
depth 1: 5473154
depth 2: 5016761
depth 3: 4520214
depth 4: 3833898
depth 5: 2715989
depth 6: 1233646
depth 7: 391051
depth 8: 226677
depth 9: 173646
depth 10: 137159
depth 11: 95027
depth 12: 55281
depth 13: 23130
depth 14: 548
depth 15: 506
depth 16: 2
depth 17: 0
depth 18: 0
depth 19: 0
depth 20: 0
depth 21: 0
depth 22: 0
depth 23: 0
depth 24: 0
depth 25: 0
depth 26: 0
depth 27: 0
depth 28: 0
depth 29: 0
-----------------------------
-----------------------------
		Lost at Page
-----------------------------
depth 0: 0
depth 1: 952886
depth 2: 1560918
depth 3: 2122113
depth 4: 2676594
depth 5: 3049271
depth 6: 2772962
depth 7: 1529233
depth 8: 870013
depth 9: 449771
depth 10: 378399
depth 11: 315718
depth 12: 232866
depth 13: 129239
depth 14: 21521
depth 15: 23040
depth 16: 12
depth 17: 0
depth 18: 0
depth 19: 0
depth 20: 0
depth 21: 0
depth 22: 0
depth 23: 0
depth 24: 0
depth 25: 0
depth 26: 0
depth 27: 0
depth 28: 0
depth 29: 0
-----------------------------
-----------------------------
	Lost due to PQ Size
-----------------------------
3853607
-----------------------------
ST read accesses: 17790933
ST write accesses: 642261
PT read accesses: 640416177
PT write accesses: 25938200
FILTER read accesses: 115687053
FILTER write accesses: 16303492
GHR read accesses: 108974250
GHR write accesses: 17068860
GHR counter read accesses: 545351136
GHR counter write accesses: 30301067
ST tag read accesses: 7432000553
ST tag write accesses: 243945811
Channel_0_RQ_row_buffer_hit 2458271
Channel_0_RQ_row_buffer_miss 2007687
Channel_0_WQ_row_buffer_hit 939277
Channel_0_WQ_row_buffer_miss 1530582
Channel_0_WQ_full 75
Channel_0_dbus_congested 3404894

avg_congested_cycle 11

EzSearch AVG IPC :0.78535: L2-Pf-HR :0.96836 : L2-HR :0.90880 Uful:0.01260
     > Finished combination: TraceType=770-tot Sim:491000000 Prefetcher=L2spp_berti_src L1=no
