TRACE: [298000000][GPT-Neo_1_3B]_[h16][s512][d128] Warmup: 2000000 NumTraces: 298000000
L1:berti:L2:berti
*************************************************
   ChampSim Multicore Out-of-Order Simulator
   Last compiled: Oct 27 2024 07:23:32
*************************************************

trace_0 770-tot_memTraces_v3/memTraces[298000000][GPT-Neo_1_3B]_[h16][s512][d128].champsim.xz
CPU 0 L1D Berti prefetcher
CPU 0 L2C Berti prefetcher
MAIN.cc ln 751 stats print skipped
CPU  0 inst:    1000003 cyc:     499415 now IPC :2.00235: AVG IPC :2.00235: L2-Pf-HR :0.64738: L2-HR :0.67373: (Sim:0h0m22s) 
CPU  0 inst:    2000001 cyc:     984330 now IPC :2.06221: AVG IPC :2.03184: L2-Pf-HR :0.75869: L2-HR :0.76012: (Sim:0h0m46s) 

Warmup complete CPU  0 instructions:    2000001 cycles:     984330 (Simulation time: 0 hr 0 min 46 sec) 

CPU  0 inst:    3000002 cyc:    1471220 now IPC :2.05385: AVG IPC :2.05385: L2-Pf-HR :0.88606: L2-HR :0.88675: (Sim:0h1m4s) 
CPU  0 inst:    4000002 cyc:    1943452 now IPC :2.11760: AVG IPC :2.08524: L2-Pf-HR :0.88799: L2-HR :0.88984: (Sim:0h1m22s) 
CPU  0 inst:    5000004 cyc:    2416327 now IPC :2.11473: AVG IPC :2.09498: L2-Pf-HR :0.89281: L2-HR :0.89466: (Sim:0h1m41s) 
CPU  0 inst:    6000003 cyc:    2886240 now IPC :2.12805: AVG IPC :2.10315: L2-Pf-HR :0.89946: L2-HR :0.90052: (Sim:0h1m59s) 
CPU  0 inst:    7000000 cyc:    3411952 now IPC :1.90218: AVG IPC :2.05963: L2-Pf-HR :0.89305: L2-HR :0.89080: (Sim:0h2m17s) 
CPU  0 inst:    8000004 cyc:    3877393 now IPC :2.14851: AVG IPC :2.07393: L2-Pf-HR :0.89976: L2-HR :0.89738: (Sim:0h2m35s) 
CPU  0 inst:    9000005 cyc:    4476874 now IPC :1.66811: AVG IPC :2.00427: L2-Pf-HR :0.89100: L2-HR :0.88416: (Sim:0h2m54s) 
CPU  0 inst:   10000000 cyc:    4987850 now IPC :1.95703: AVG IPC :1.99824: L2-Pf-HR :0.88909: L2-HR :0.88205: (Sim:0h3m12s) 
CPU  0 inst:   11000003 cyc:    5460818 now IPC :2.11431: AVG IPC :2.01051: L2-Pf-HR :0.88836: L2-HR :0.88234: (Sim:0h3m31s) 
CPU  0 inst:   12000001 cyc:    5921211 now IPC :2.17205: AVG IPC :2.02557: L2-Pf-HR :0.88929: L2-HR :0.88430: (Sim:0h3m49s) 
CPU  0 inst:   13000004 cyc:    6390365 now IPC :2.13150: AVG IPC :2.03476: L2-Pf-HR :0.89157: L2-HR :0.88676: (Sim:0h4m7s) 
CPU  0 inst:   14000003 cyc:    6856976 now IPC :2.14311: AVG IPC :2.04337: L2-Pf-HR :0.89478: L2-HR :0.88982: (Sim:0h4m25s) 
CPU  0 inst:   15000002 cyc:    7396391 now IPC :1.85386: AVG IPC :2.02743: L2-Pf-HR :0.89368: L2-HR :0.88732: (Sim:0h4m44s) 
CPU  0 inst:   16000000 cyc:    7864470 now IPC :2.13639: AVG IPC :2.03484: L2-Pf-HR :0.89635: L2-HR :0.89027: (Sim:0h5m2s) 
CPU  0 inst:   17000005 cyc:    8540958 now IPC :1.47823: AVG IPC :1.98501: L2-Pf-HR :0.89447: L2-HR :0.88503: (Sim:0h5m22s) 
CPU  0 inst:   18000005 cyc:    9088349 now IPC :1.82685: AVG IPC :1.97433: L2-Pf-HR :0.89342: L2-HR :0.88386: (Sim:0h5m41s) 
CPU  0 inst:   19000003 cyc:    9576815 now IPC :2.04722: AVG IPC :1.97847: L2-Pf-HR :0.89393: L2-HR :0.88494: (Sim:0h6m0s) 
CPU  0 inst:   20000004 cyc:   10053884 now IPC :2.09613: AVG IPC :1.98466: L2-Pf-HR :0.89401: L2-HR :0.88571: (Sim:0h6m18s) 
CPU  0 inst:   21000004 cyc:   10531561 now IPC :2.09346: AVG IPC :1.99011: L2-Pf-HR :0.89463: L2-HR :0.88685: (Sim:0h6m37s) 
CPU  0 inst:   22000001 cyc:   10998373 now IPC :2.14218: AVG IPC :1.99720: L2-Pf-HR :0.89569: L2-HR :0.88825: (Sim:0h6m55s) 
CPU  0 inst:   23000000 cyc:   11556609 now IPC :1.79136: AVG IPC :1.98633: L2-Pf-HR :0.89504: L2-HR :0.88685: (Sim:0h7m14s) 
CPU  0 inst:   24000003 cyc:   12024572 now IPC :2.13693: AVG IPC :1.99271: L2-Pf-HR :0.89628: L2-HR :0.88843: (Sim:0h7m32s) 
CPU  0 inst:   25000005 cyc:   12699126 now IPC :1.48246: AVG IPC :1.96333: L2-Pf-HR :0.89423: L2-HR :0.88510: (Sim:0h7m51s) 
CPU  0 inst:   26000001 cyc:   13249351 now IPC :1.81743: AVG IPC :1.95678: L2-Pf-HR :0.89365: L2-HR :0.88445: (Sim:0h8m10s) 
CPU  0 inst:   27000005 cyc:   13730158 now IPC :2.07984: AVG IPC :1.96143: L2-Pf-HR :0.89351: L2-HR :0.88479: (Sim:0h8m29s) 
CPU  0 inst:   28000003 cyc:   14206088 now IPC :2.10115: AVG IPC :1.96646: L2-Pf-HR :0.89323: L2-HR :0.88506: (Sim:0h8m47s) 
CPU  0 inst:   29000003 cyc:   14690382 now IPC :2.06486: AVG IPC :1.96993: L2-Pf-HR :0.89350: L2-HR :0.88555: (Sim:0h9m6s) 
CPU  0 inst:   30000002 cyc:   15167256 now IPC :2.09699: AVG IPC :1.97420: L2-Pf-HR :0.89477: L2-HR :0.88702: (Sim:0h9m24s) 
CPU  0 inst:   31000003 cyc:   15730231 now IPC :1.77628: AVG IPC :1.96665: L2-Pf-HR :0.89446: L2-HR :0.88620: (Sim:0h9m43s) 
CPU  0 inst:   32000005 cyc:   16203253 now IPC :2.11407: AVG IPC :1.97123: L2-Pf-HR :0.89528: L2-HR :0.88726: (Sim:0h10m1s) 
CPU  0 inst:   33000004 cyc:   16873291 now IPC :1.49245: AVG IPC :1.95104: L2-Pf-HR :0.89413: L2-HR :0.88467: (Sim:0h10m18s) 
CPU  0 inst:   34000001 cyc:   17423074 now IPC :1.81889: AVG IPC :1.94662: L2-Pf-HR :0.89352: L2-HR :0.88401: (Sim:0h10m31s) 
CPU  0 inst:   35000002 cyc:   17916628 now IPC :2.02612: AVG IPC :1.94894: L2-Pf-HR :0.89352: L2-HR :0.88431: (Sim:0h10m49s) 
CPU  0 inst:   36000000 cyc:   18398094 now IPC :2.07699: AVG IPC :1.95248: L2-Pf-HR :0.89352: L2-HR :0.88456: (Sim:0h10m58s) 
CPU  0 inst:   37000003 cyc:   18871236 now IPC :2.11354: AVG IPC :1.95674: L2-Pf-HR :0.89394: L2-HR :0.88521: (Sim:0h11m7s) 
CPU  0 inst:   38000000 cyc:   19353718 now IPC :2.07261: AVG IPC :1.95978: L2-Pf-HR :0.89458: L2-HR :0.88597: (Sim:0h11m17s) 
CPU  0 inst:   39000001 cyc:   19910297 now IPC :1.79669: AVG IPC :1.95499: L2-Pf-HR :0.89419: L2-HR :0.88520: (Sim:0h11m26s) 
CPU  0 inst:   40000004 cyc:   20380387 now IPC :2.12726: AVG IPC :1.95916: L2-Pf-HR :0.89488: L2-HR :0.88612: (Sim:0h11m34s) 
CPU  0 inst:   41000003 cyc:   21042434 now IPC :1.51047: AVG IPC :1.94435: L2-Pf-HR :0.89432: L2-HR :0.88433: (Sim:0h11m43s) 
CPU  0 inst:   42000000 cyc:   21589810 now IPC :1.82689: AVG IPC :1.94123: L2-Pf-HR :0.89402: L2-HR :0.88399: (Sim:0h11m52s) 
CPU  0 inst:   43000003 cyc:   22086515 now IPC :2.01327: AVG IPC :1.94293: L2-Pf-HR :0.89401: L2-HR :0.88424: (Sim:0h12m2s) 
CPU  0 inst:   44000002 cyc:   22569903 now IPC :2.06873: AVG IPC :1.94574: L2-Pf-HR :0.89386: L2-HR :0.88443: (Sim:0h12m10s) 
CPU  0 inst:   45000000 cyc:   23042299 now IPC :2.11686: AVG IPC :1.94941: L2-Pf-HR :0.89401: L2-HR :0.88486: (Sim:0h12m19s) 
CPU  0 inst:   46000005 cyc:   23519544 now IPC :2.09537: AVG IPC :1.95250: L2-Pf-HR :0.89456: L2-HR :0.88555: (Sim:0h12m28s) 
CPU  0 inst:   47000001 cyc:   24087197 now IPC :1.76163: AVG IPC :1.94781: L2-Pf-HR :0.89439: L2-HR :0.88503: (Sim:0h12m39s) 
CPU  0 inst:   48000003 cyc:   24562407 now IPC :2.10434: AVG IPC :1.95096: L2-Pf-HR :0.89486: L2-HR :0.88566: (Sim:0h12m48s) 
CPU  0 inst:   49000002 cyc:   25225455 now IPC :1.50818: AVG IPC :1.93885: L2-Pf-HR :0.89420: L2-HR :0.88422: (Sim:0h12m57s) 
CPU  0 inst:   50000004 cyc:   25767756 now IPC :1.84400: AVG IPC :1.93678: L2-Pf-HR :0.89381: L2-HR :0.88385: (Sim:0h13m6s) 
CPU  0 inst:   51000002 cyc:   26259993 now IPC :2.03154: AVG IPC :1.93862: L2-Pf-HR :0.89372: L2-HR :0.88394: (Sim:0h13m15s) 
CPU  0 inst:   52000004 cyc:   26745597 now IPC :2.05930: AVG IPC :1.94090: L2-Pf-HR :0.89351: L2-HR :0.88402: (Sim:0h13m24s) 
CPU  0 inst:   53000004 cyc:   27220075 now IPC :2.10758: AVG IPC :1.94391: L2-Pf-HR :0.89390: L2-HR :0.88456: (Sim:0h13m32s) 
CPU  0 inst:   54000003 cyc:   27696003 now IPC :2.10116: AVG IPC :1.94671: L2-Pf-HR :0.89451: L2-HR :0.88523: (Sim:0h13m41s) 
CPU  0 inst:   55000001 cyc:   28256140 now IPC :1.78527: AVG IPC :1.94340: L2-Pf-HR :0.89441: L2-HR :0.88484: (Sim:0h13m50s) 
CPU  0 inst:   56000000 cyc:   28728688 now IPC :2.11618: AVG IPC :1.94634: L2-Pf-HR :0.89463: L2-HR :0.88529: (Sim:0h13m59s) 
CPU  0 inst:   57000001 cyc:   29387117 now IPC :1.51877: AVG IPC :1.93643: L2-Pf-HR :0.89434: L2-HR :0.88425: (Sim:0h14m8s) 
CPU  0 inst:   58000001 cyc:   29929859 now IPC :1.84250: AVG IPC :1.93467: L2-Pf-HR :0.89403: L2-HR :0.88393: (Sim:0h14m17s) 
CPU  0 inst:   59000002 cyc:   30425139 now IPC :2.01906: AVG IPC :1.93609: L2-Pf-HR :0.89399: L2-HR :0.88406: (Sim:0h14m26s) 
CPU  0 inst:   60000002 cyc:   30900969 now IPC :2.10159: AVG IPC :1.93872: L2-Pf-HR :0.89400: L2-HR :0.88425: (Sim:0h14m34s) 
CPU  0 inst:   61000004 cyc:   31378839 now IPC :2.09262: AVG IPC :1.94114: L2-Pf-HR :0.89405: L2-HR :0.88449: (Sim:0h14m43s) 
CPU  0 inst:   62000005 cyc:   31858398 now IPC :2.08525: AVG IPC :1.94338: L2-Pf-HR :0.89430: L2-HR :0.88489: (Sim:0h14m52s) 
CPU  0 inst:   63000003 cyc:   32409329 now IPC :1.81511: AVG IPC :1.94113: L2-Pf-HR :0.89422: L2-HR :0.88456: (Sim:0h15m3s) 
CPU  0 inst:   64000004 cyc:   32883002 now IPC :2.11116: AVG IPC :1.94365: L2-Pf-HR :0.89446: L2-HR :0.88497: (Sim:0h15m14s) 
CPU  0 inst:   65000005 cyc:   33530441 now IPC :1.54455: AVG IPC :1.93572: L2-Pf-HR :0.89409: L2-HR :0.88423: (Sim:0h15m24s) 
CPU  0 inst:   66000002 cyc:   34083295 now IPC :1.80879: AVG IPC :1.93360: L2-Pf-HR :0.89371: L2-HR :0.88381: (Sim:0h15m33s) 
CPU  0 inst:   67000003 cyc:   34574032 now IPC :2.03775: AVG IPC :1.93512: L2-Pf-HR :0.89370: L2-HR :0.88396: (Sim:0h15m42s) 
CPU  0 inst:   68000001 cyc:   35053501 now IPC :2.08564: AVG IPC :1.93724: L2-Pf-HR :0.89361: L2-HR :0.88408: (Sim:0h15m51s) 
CPU  0 inst:   69000004 cyc:   35535537 now IPC :2.07454: AVG IPC :1.93915: L2-Pf-HR :0.89370: L2-HR :0.88432: (Sim:0h16m0s) 
CPU  0 inst:   70000002 cyc:   36009069 now IPC :2.11179: AVG IPC :1.94148: L2-Pf-HR :0.89407: L2-HR :0.88480: (Sim:0h16m9s) 
CPU  0 inst:   71000000 cyc:   36572821 now IPC :1.77383: AVG IPC :1.93883: L2-Pf-HR :0.89409: L2-HR :0.88457: (Sim:0h16m19s) 
CPU  0 inst:   72000004 cyc:   37045293 now IPC :2.11654: AVG IPC :1.94116: L2-Pf-HR :0.89431: L2-HR :0.88493: (Sim:0h16m31s) 
CPU  0 inst:   73000003 cyc:   37679269 now IPC :1.57735: AVG IPC :1.93487: L2-Pf-HR :0.89392: L2-HR :0.88424: (Sim:0h16m51s) 
CPU  0 inst:   74000005 cyc:   38227243 now IPC :1.82491: AVG IPC :1.93325: L2-Pf-HR :0.89348: L2-HR :0.88382: (Sim:0h17m11s) 
CPU  0 inst:   75000003 cyc:   38728397 now IPC :1.99539: AVG IPC :1.93408: L2-Pf-HR :0.89348: L2-HR :0.88393: (Sim:0h17m30s) 
CPU  0 inst:   76000004 cyc:   39201707 now IPC :2.11278: AVG IPC :1.93629: L2-Pf-HR :0.89356: L2-HR :0.88419: (Sim:0h17m49s) 
CPU  0 inst:   77000003 cyc:   39686602 now IPC :2.06230: AVG IPC :1.93787: L2-Pf-HR :0.89367: L2-HR :0.88443: (Sim:0h18m8s) 
CPU  0 inst:   78000005 cyc:   40155943 now IPC :2.13065: AVG IPC :1.94018: L2-Pf-HR :0.89401: L2-HR :0.88490: (Sim:0h18m27s) 
CPU  0 inst:   79000000 cyc:   40708906 now IPC :1.80843: AVG IPC :1.93835: L2-Pf-HR :0.89402: L2-HR :0.88476: (Sim:0h18m47s) 
CPU  0 inst:   80000004 cyc:   41192618 now IPC :2.06735: AVG IPC :1.93990: L2-Pf-HR :0.89414: L2-HR :0.88499: (Sim:0h19m5s) 
CPU  0 inst:   81000004 cyc:   41831146 now IPC :1.56610: AVG IPC :1.93406: L2-Pf-HR :0.89398: L2-HR :0.88444: (Sim:0h19m26s) 
CPU  0 inst:   82000003 cyc:   42391188 now IPC :1.78558: AVG IPC :1.93205: L2-Pf-HR :0.89369: L2-HR :0.88409: (Sim:0h19m45s) 
CPU  0 inst:   83000005 cyc:   42882692 now IPC :2.03458: AVG IPC :1.93325: L2-Pf-HR :0.89379: L2-HR :0.88431: (Sim:0h20m4s) 
CPU  0 inst:   84000004 cyc:   43362861 now IPC :2.08260: AVG IPC :1.93494: L2-Pf-HR :0.89375: L2-HR :0.88444: (Sim:0h20m24s) 
CPU  0 inst:   85000005 cyc:   43844301 now IPC :2.07710: AVG IPC :1.93654: L2-Pf-HR :0.89376: L2-HR :0.88459: (Sim:0h20m43s) 
CPU  0 inst:   86000000 cyc:   44318925 now IPC :2.10692: AVG IPC :1.93841: L2-Pf-HR :0.89408: L2-HR :0.88501: (Sim:0h21m1s) 
CPU  0 inst:   87000000 cyc:   44866206 now IPC :1.82721: AVG IPC :1.93702: L2-Pf-HR :0.89394: L2-HR :0.88480: (Sim:0h21m21s) 
CPU  0 inst:   88000000 cyc:   45339481 now IPC :2.11294: AVG IPC :1.93890: L2-Pf-HR :0.89401: L2-HR :0.88500: (Sim:0h21m39s) 
CPU  0 inst:   89000001 cyc:   45985931 now IPC :1.54691: AVG IPC :1.93326: L2-Pf-HR :0.89403: L2-HR :0.88453: (Sim:0h21m59s) 
CPU  0 inst:   90000001 cyc:   46547950 now IPC :1.77930: AVG IPC :1.93137: L2-Pf-HR :0.89366: L2-HR :0.88412: (Sim:0h22m19s) 
CPU  0 inst:   91000003 cyc:   47029633 now IPC :2.07606: AVG IPC :1.93288: L2-Pf-HR :0.89364: L2-HR :0.88422: (Sim:0h22m38s) 
CPU  0 inst:   92000004 cyc:   47516794 now IPC :2.05271: AVG IPC :1.93413: L2-Pf-HR :0.89357: L2-HR :0.88428: (Sim:0h22m57s) 
CPU  0 inst:   93000000 cyc:   48005235 now IPC :2.04732: AVG IPC :1.93531: L2-Pf-HR :0.89363: L2-HR :0.88441: (Sim:0h23m16s) 
CPU  0 inst:   94000001 cyc:   48475816 now IPC :2.12503: AVG IPC :1.93719: L2-Pf-HR :0.89396: L2-HR :0.88482: (Sim:0h23m35s) 
CPU  0 inst:   95000001 cyc:   49030603 now IPC :1.80249: AVG IPC :1.93563: L2-Pf-HR :0.89390: L2-HR :0.88467: (Sim:0h23m55s) 
CPU  0 inst:   96000005 cyc:   49515050 now IPC :2.06422: AVG IPC :1.93692: L2-Pf-HR :0.89393: L2-HR :0.88479: (Sim:0h24m14s) 
CPU  0 inst:   97000005 cyc:   50163257 now IPC :1.54272: AVG IPC :1.93172: L2-Pf-HR :0.89381: L2-HR :0.88426: (Sim:0h24m34s) 
CPU  0 inst:   98000000 cyc:   50728174 now IPC :1.77016: AVG IPC :1.92989: L2-Pf-HR :0.89350: L2-HR :0.88390: (Sim:0h24m54s) 
CPU  0 inst:   99000003 cyc:   51218098 now IPC :2.04114: AVG IPC :1.93097: L2-Pf-HR :0.89361: L2-HR :0.88409: (Sim:0h25m13s) 
CPU  0 inst:  100000005 cyc:   51700878 now IPC :2.07134: AVG IPC :1.93231: L2-Pf-HR :0.89365: L2-HR :0.88426: (Sim:0h25m32s) 
CPU  0 inst:  101000004 cyc:   52176496 now IPC :2.10253: AVG IPC :1.93389: L2-Pf-HR :0.89368: L2-HR :0.88442: (Sim:0h25m51s) 
CPU  0 inst:  102000002 cyc:   52648503 now IPC :2.11861: AVG IPC :1.93558: L2-Pf-HR :0.89394: L2-HR :0.88474: (Sim:0h26m10s) 
CPU  0 inst:  103000003 cyc:   53202512 now IPC :1.80503: AVG IPC :1.93419: L2-Pf-HR :0.89393: L2-HR :0.88456: (Sim:0h26m29s) 
CPU  0 inst:  104000005 cyc:   53689310 now IPC :2.05424: AVG IPC :1.93530: L2-Pf-HR :0.89393: L2-HR :0.88467: (Sim:0h26m48s) 
CPU  0 inst:  105000004 cyc:   54325832 now IPC :1.57104: AVG IPC :1.93095: L2-Pf-HR :0.89385: L2-HR :0.88433: (Sim:0h27m8s) 
CPU  0 inst:  106000001 cyc:   54886670 now IPC :1.78304: AVG IPC :1.92942: L2-Pf-HR :0.89362: L2-HR :0.88406: (Sim:0h27m28s) 
CPU  0 inst:  107000003 cyc:   55390051 now IPC :1.98657: AVG IPC :1.92994: L2-Pf-HR :0.89365: L2-HR :0.88418: (Sim:0h27m47s) 
CPU  0 inst:  108000005 cyc:   55871146 now IPC :2.07860: AVG IPC :1.93125: L2-Pf-HR :0.89360: L2-HR :0.88424: (Sim:0h28m6s) 
CPU  0 inst:  109000002 cyc:   56353481 now IPC :2.07324: AVG IPC :1.93248: L2-Pf-HR :0.89362: L2-HR :0.88435: (Sim:0h28m25s) 
CPU  0 inst:  110000000 cyc:   56828826 now IPC :2.10373: AVG IPC :1.93394: L2-Pf-HR :0.89389: L2-HR :0.88469: (Sim:0h28m44s) 
CPU  0 inst:  111000000 cyc:   57369512 now IPC :1.84950: AVG IPC :1.93313: L2-Pf-HR :0.89390: L2-HR :0.88463: (Sim:0h29m3s) 
CPU  0 inst:  112000005 cyc:   57861447 now IPC :2.03280: AVG IPC :1.93399: L2-Pf-HR :0.89390: L2-HR :0.88468: (Sim:0h29m22s) 
CPU  0 inst:  113000002 cyc:   58500045 now IPC :1.56593: AVG IPC :1.92991: L2-Pf-HR :0.89377: L2-HR :0.88436: (Sim:0h29m42s) 
CPU  0 inst:  114000001 cyc:   59057138 now IPC :1.79503: AVG IPC :1.92861: L2-Pf-HR :0.89352: L2-HR :0.88408: (Sim:0h30m2s) 
CPU  0 inst:  115000000 cyc:   59556720 now IPC :2.00167: AVG IPC :1.92924: L2-Pf-HR :0.89354: L2-HR :0.88417: (Sim:0h30m21s) 
CPU  0 inst:  116000002 cyc:   60039665 now IPC :2.07063: AVG IPC :1.93039: L2-Pf-HR :0.89352: L2-HR :0.88426: (Sim:0h30m40s) 
CPU  0 inst:  117000005 cyc:   60518429 now IPC :2.08872: AVG IPC :1.93167: L2-Pf-HR :0.89363: L2-HR :0.88446: (Sim:0h30m59s) 
CPU  0 inst:  118000000 cyc:   60996665 now IPC :2.09101: AVG IPC :1.93294: L2-Pf-HR :0.89383: L2-HR :0.88474: (Sim:0h31m17s) 
CPU  0 inst:  119000002 cyc:   61543279 now IPC :1.82945: AVG IPC :1.93200: L2-Pf-HR :0.89384: L2-HR :0.88465: (Sim:0h31m37s) 
CPU  0 inst:  120000001 cyc:   62032667 now IPC :2.04337: AVG IPC :1.93289: L2-Pf-HR :0.89383: L2-HR :0.88467: (Sim:0h31m56s) 
CPU  0 inst:  121000002 cyc:   62656329 now IPC :1.60343: AVG IPC :1.92956: L2-Pf-HR :0.89380: L2-HR :0.88435: (Sim:0h32m16s) 
CPU  0 inst:  122000000 cyc:   63216842 now IPC :1.78408: AVG IPC :1.92825: L2-Pf-HR :0.89365: L2-HR :0.88414: (Sim:0h32m35s) 
CPU  0 inst:  123000003 cyc:   63731294 now IPC :1.94382: AVG IPC :1.92838: L2-Pf-HR :0.89367: L2-HR :0.88420: (Sim:0h32m55s) 
CPU  0 inst:  124000002 cyc:   64208091 now IPC :2.09733: AVG IPC :1.92965: L2-Pf-HR :0.89362: L2-HR :0.88425: (Sim:0h33m14s) 
CPU  0 inst:  125000004 cyc:   64686404 now IPC :2.09069: AVG IPC :1.93086: L2-Pf-HR :0.89360: L2-HR :0.88432: (Sim:0h33m32s) 
CPU  0 inst:  126000005 cyc:   65169322 now IPC :2.07075: AVG IPC :1.93192: L2-Pf-HR :0.89375: L2-HR :0.88452: (Sim:0h33m51s) 
CPU  0 inst:  127000002 cyc:   65706782 now IPC :1.86060: AVG IPC :1.93132: L2-Pf-HR :0.89383: L2-HR :0.88454: (Sim:0h34m10s) 
CPU  0 inst:  128000004 cyc:   66196927 now IPC :2.04022: AVG IPC :1.93214: L2-Pf-HR :0.89379: L2-HR :0.88457: (Sim:0h34m29s) 
CPU  0 inst:  129000001 cyc:   68204960 now IPC :0.49800: AVG IPC :1.88930: L2-Pf-HR :0.89045: L2-HR :0.87879: (Sim:0h34m59s) 
CPU  0 inst:  130000001 cyc:   73555918 now IPC :0.18688: AVG IPC :1.76378: L2-Pf-HR :0.87854: L2-HR :0.86176: (Sim:0h35m59s) 
CPU  0 inst:  131000005 cyc:   79037902 now IPC :0.18242: AVG IPC :1.65271: L2-Pf-HR :0.86690: L2-HR :0.84636: (Sim:0h37m0s) 
CPU  0 inst:  132000004 cyc:   82700168 now IPC :0.27305: AVG IPC :1.59088: L2-Pf-HR :0.86426: L2-HR :0.84330: (Sim:0h37m37s) 
CPU  0 inst:  133000000 cyc:   86269537 now IPC :0.28016: AVG IPC :1.53602: L2-Pf-HR :0.86211: L2-HR :0.84106: (Sim:0h38m13s) 
CPU  0 inst:  134000000 cyc:   89840559 now IPC :0.28003: AVG IPC :1.48555: L2-Pf-HR :0.85997: L2-HR :0.83884: (Sim:0h38m50s) 
CPU  0 inst:  135000004 cyc:   93411522 now IPC :0.28004: AVG IPC :1.43897: L2-Pf-HR :0.85786: L2-HR :0.83665: (Sim:0h39m26s) 
CPU  0 inst:  136000000 cyc:   96982567 now IPC :0.28003: AVG IPC :1.39586: L2-Pf-HR :0.85573: L2-HR :0.83447: (Sim:0h40m3s) 
CPU  0 inst:  137000000 cyc:  100554661 now IPC :0.27995: AVG IPC :1.35583: L2-Pf-HR :0.85364: L2-HR :0.83232: (Sim:0h40m39s) 
CPU  0 inst:  138000000 cyc:  104125545 now IPC :0.28004: AVG IPC :1.31858: L2-Pf-HR :0.85156: L2-HR :0.83019: (Sim:0h41m16s) 
CPU  0 inst:  139000000 cyc:  107696820 now IPC :0.28001: AVG IPC :1.28382: L2-Pf-HR :0.84950: L2-HR :0.82809: (Sim:0h41m52s) 
CPU  0 inst:  140000000 cyc:  111269052 now IPC :0.27994: AVG IPC :1.25131: L2-Pf-HR :0.84747: L2-HR :0.82601: (Sim:0h42m28s) 
CPU  0 inst:  141000002 cyc:  114840243 now IPC :0.28002: AVG IPC :1.22084: L2-Pf-HR :0.84542: L2-HR :0.82394: (Sim:0h43m5s) 
CPU  0 inst:  142000003 cyc:  118410470 now IPC :0.28009: AVG IPC :1.19224: L2-Pf-HR :0.84342: L2-HR :0.82192: (Sim:0h43m41s) 
CPU  0 inst:  143000001 cyc:  121979233 now IPC :0.28021: AVG IPC :1.16534: L2-Pf-HR :0.84144: L2-HR :0.81992: (Sim:0h44m17s) 
CPU  0 inst:  144000000 cyc:  125548300 now IPC :0.28018: AVG IPC :1.13998: L2-Pf-HR :0.83946: L2-HR :0.81793: (Sim:0h44m54s) 
CPU  0 inst:  145000000 cyc:  129118893 now IPC :0.28007: AVG IPC :1.11601: L2-Pf-HR :0.83749: L2-HR :0.81596: (Sim:0h45m30s) 
CPU  0 inst:  146000000 cyc:  132690989 now IPC :0.27995: AVG IPC :1.09334: L2-Pf-HR :0.83556: L2-HR :0.81402: (Sim:0h46m6s) 
CPU  0 inst:  147000000 cyc:  136261044 now IPC :0.28011: AVG IPC :1.07188: L2-Pf-HR :0.83364: L2-HR :0.81210: (Sim:0h46m43s) 
CPU  0 inst:  148000000 cyc:  139832053 now IPC :0.28003: AVG IPC :1.05151: L2-Pf-HR :0.83174: L2-HR :0.81021: (Sim:0h47m19s) 
CPU  0 inst:  149000000 cyc:  143404837 now IPC :0.27989: AVG IPC :1.03215: L2-Pf-HR :0.82984: L2-HR :0.80832: (Sim:0h47m55s) 
CPU  0 inst:  150000000 cyc:  146976623 now IPC :0.27997: AVG IPC :1.01375: L2-Pf-HR :0.82796: L2-HR :0.80646: (Sim:0h48m32s) 
CPU  0 inst:  151000002 cyc:  150548874 now IPC :0.27994: AVG IPC :0.99623: L2-Pf-HR :0.82609: L2-HR :0.80463: (Sim:0h49m8s) 
CPU  0 inst:  152000000 cyc:  154117557 now IPC :0.28021: AVG IPC :0.97954: L2-Pf-HR :0.82426: L2-HR :0.80282: (Sim:0h49m44s) 
CPU  0 inst:  153000002 cyc:  157686638 now IPC :0.28018: AVG IPC :0.96361: L2-Pf-HR :0.82243: L2-HR :0.80103: (Sim:0h50m20s) 
CPU  0 inst:  154000000 cyc:  161256805 now IPC :0.28010: AVG IPC :0.94838: L2-Pf-HR :0.82063: L2-HR :0.79926: (Sim:0h50m57s) 
CPU  0 inst:  155000000 cyc:  164828058 now IPC :0.28001: AVG IPC :0.93382: L2-Pf-HR :0.81883: L2-HR :0.79750: (Sim:0h51m33s) 
CPU  0 inst:  156000000 cyc:  168399852 now IPC :0.27997: AVG IPC :0.91987: L2-Pf-HR :0.81704: L2-HR :0.79575: (Sim:0h52m10s) 
CPU  0 inst:  157000000 cyc:  171972360 now IPC :0.27992: AVG IPC :0.90650: L2-Pf-HR :0.81526: L2-HR :0.79403: (Sim:0h52m46s) 
CPU  0 inst:  158000000 cyc:  175542198 now IPC :0.28012: AVG IPC :0.89369: L2-Pf-HR :0.81347: L2-HR :0.79231: (Sim:0h53m22s) 
CPU  0 inst:  159000000 cyc:  179112417 now IPC :0.28009: AVG IPC :0.88139: L2-Pf-HR :0.81174: L2-HR :0.79063: (Sim:0h53m58s) 
CPU  0 inst:  160000004 cyc:  182686336 now IPC :0.27981: AVG IPC :0.86956: L2-Pf-HR :0.80996: L2-HR :0.78893: (Sim:0h54m34s) 
CPU  0 inst:  161000002 cyc:  186255653 now IPC :0.28017: AVG IPC :0.85820: L2-Pf-HR :0.80824: L2-HR :0.78728: (Sim:0h55m10s) 
CPU  0 inst:  162000001 cyc:  189824629 now IPC :0.28019: AVG IPC :0.84728: L2-Pf-HR :0.80653: L2-HR :0.78564: (Sim:0h55m46s) 
CPU  0 inst:  163000002 cyc:  193394859 now IPC :0.28009: AVG IPC :0.83675: L2-Pf-HR :0.80478: L2-HR :0.78398: (Sim:0h56m22s) 
CPU  0 inst:  164000000 cyc:  195095722 now IPC :0.58794: AVG IPC :0.83457: L2-Pf-HR :0.80314: L2-HR :0.78233: (Sim:0h56m51s) 
CPU  0 inst:  165000005 cyc:  195580995 now IPC :2.06071: AVG IPC :0.83763: L2-Pf-HR :0.80377: L2-HR :0.78298: (Sim:0h57m12s) 
CPU  0 inst:  166000003 cyc:  196128025 now IPC :1.82805: AVG IPC :0.84041: L2-Pf-HR :0.80441: L2-HR :0.78358: (Sim:0h57m32s) 
CPU  0 inst:  167000002 cyc:  196723148 now IPC :1.68032: AVG IPC :0.84296: L2-Pf-HR :0.80443: L2-HR :0.78377: (Sim:0h57m54s) 
CPU  0 inst:  168000000 cyc:  197170799 now IPC :2.23388: AVG IPC :0.84613: L2-Pf-HR :0.80525: L2-HR :0.78453: (Sim:0h58m14s) 
CPU  0 inst:  169000001 cyc:  197682582 now IPC :1.95396: AVG IPC :0.84902: L2-Pf-HR :0.80612: L2-HR :0.78532: (Sim:0h58m35s) 
CPU  0 inst:  170000003 cyc:  198173944 now IPC :2.03516: AVG IPC :0.85197: L2-Pf-HR :0.80629: L2-HR :0.78560: (Sim:0h58m55s) 
CPU  0 inst:  171000001 cyc:  198633102 now IPC :2.17790: AVG IPC :0.85505: L2-Pf-HR :0.80721: L2-HR :0.78644: (Sim:0h59m15s) 
CPU  0 inst:  172000004 cyc:  199293496 now IPC :1.51425: AVG IPC :0.85725: L2-Pf-HR :0.80700: L2-HR :0.78635: (Sim:0h59m36s) 
CPU  0 inst:  173000005 cyc:  199788851 now IPC :2.01876: AVG IPC :0.86014: L2-Pf-HR :0.80758: L2-HR :0.78687: (Sim:0h59m56s) 
CPU  0 inst:  174000004 cyc:  200269766 now IPC :2.07937: AVG IPC :0.86308: L2-Pf-HR :0.80844: L2-HR :0.78767: (Sim:1h0m15s) 
CPU  0 inst:  175000000 cyc:  200877301 now IPC :1.64599: AVG IPC :0.86546: L2-Pf-HR :0.80810: L2-HR :0.78764: (Sim:1h0m35s) 
CPU  0 inst:  176000003 cyc:  201320626 now IPC :2.25569: AVG IPC :0.86854: L2-Pf-HR :0.80883: L2-HR :0.78833: (Sim:1h0m53s) 
CPU  0 inst:  177000000 cyc:  201766616 now IPC :2.24220: AVG IPC :0.87159: L2-Pf-HR :0.80967: L2-HR :0.78906: (Sim:1h1m12s) 
CPU  0 inst:  178000005 cyc:  202252209 now IPC :2.05935: AVG IPC :0.87446: L2-Pf-HR :0.81035: L2-HR :0.78976: (Sim:1h1m29s) 
CPU  0 inst:  179000005 cyc:  202748298 now IPC :2.01577: AVG IPC :0.87726: L2-Pf-HR :0.81061: L2-HR :0.79009: (Sim:1h1m49s) 
CPU  0 inst:  180000003 cyc:  203216661 now IPC :2.13509: AVG IPC :0.88018: L2-Pf-HR :0.81133: L2-HR :0.79080: (Sim:1h2m7s) 
CPU  0 inst:  181000002 cyc:  203819905 now IPC :1.65770: AVG IPC :0.88249: L2-Pf-HR :0.81108: L2-HR :0.79063: (Sim:1h2m27s) 
CPU  0 inst:  182000000 cyc:  204285619 now IPC :2.14724: AVG IPC :0.88539: L2-Pf-HR :0.81168: L2-HR :0.79123: (Sim:1h2m46s) 
CPU  0 inst:  183000001 cyc:  204821125 now IPC :1.86739: AVG IPC :0.88797: L2-Pf-HR :0.81222: L2-HR :0.79177: (Sim:1h3m4s) 
CPU  0 inst:  184000004 cyc:  205365064 now IPC :1.83845: AVG IPC :0.89049: L2-Pf-HR :0.81192: L2-HR :0.79176: (Sim:1h3m26s) 
CPU  0 inst:  185000002 cyc:  205796434 now IPC :2.31819: AVG IPC :0.89350: L2-Pf-HR :0.81262: L2-HR :0.79245: (Sim:1h3m42s) 
CPU  0 inst:  186000005 cyc:  206277045 now IPC :2.08069: AVG IPC :0.89628: L2-Pf-HR :0.81330: L2-HR :0.79315: (Sim:1h3m59s) 
CPU  0 inst:  187000002 cyc:  206761107 now IPC :2.06584: AVG IPC :0.89903: L2-Pf-HR :0.81339: L2-HR :0.79333: (Sim:1h4m19s) 
CPU  0 inst:  188000004 cyc:  207219106 now IPC :2.18342: AVG IPC :0.90188: L2-Pf-HR :0.81422: L2-HR :0.79410: (Sim:1h4m36s) 
CPU  0 inst:  189000005 cyc:  207843816 now IPC :1.60074: AVG IPC :0.90400: L2-Pf-HR :0.81381: L2-HR :0.79390: (Sim:1h4m56s) 
CPU  0 inst:  190000002 cyc:  208325448 now IPC :2.07627: AVG IPC :0.90672: L2-Pf-HR :0.81432: L2-HR :0.79439: (Sim:1h5m16s) 
CPU  0 inst:  191000003 cyc:  208813139 now IPC :2.05048: AVG IPC :0.90940: L2-Pf-HR :0.81502: L2-HR :0.79504: (Sim:1h5m33s) 
CPU  0 inst:  192000002 cyc:  209386910 now IPC :1.74285: AVG IPC :0.91170: L2-Pf-HR :0.81463: L2-HR :0.79494: (Sim:1h5m54s) 
CPU  0 inst:  193000005 cyc:  209832136 now IPC :2.24606: AVG IPC :0.91454: L2-Pf-HR :0.81527: L2-HR :0.79553: (Sim:1h6m11s) 
CPU  0 inst:  194000003 cyc:  210281240 now IPC :2.22665: AVG IPC :0.91736: L2-Pf-HR :0.81598: L2-HR :0.79617: (Sim:1h6m29s) 
CPU  0 inst:  195000000 cyc:  210781899 now IPC :1.99736: AVG IPC :0.91993: L2-Pf-HR :0.81620: L2-HR :0.79648: (Sim:1h6m48s) 
CPU  0 inst:  196000004 cyc:  211252805 now IPC :2.12357: AVG IPC :0.92263: L2-Pf-HR :0.81672: L2-HR :0.79699: (Sim:1h7m7s) 
CPU  0 inst:  197000005 cyc:  211721444 now IPC :2.13384: AVG IPC :0.92532: L2-Pf-HR :0.81734: L2-HR :0.79760: (Sim:1h7m25s) 
CPU  0 inst:  198000000 cyc:  212349919 now IPC :1.59115: AVG IPC :0.92730: L2-Pf-HR :0.81704: L2-HR :0.79741: (Sim:1h7m46s) 
CPU  0 inst:  199000001 cyc:  212827514 now IPC :2.09383: AVG IPC :0.92993: L2-Pf-HR :0.81752: L2-HR :0.79787: (Sim:1h8m5s) 
CPU  0 inst:  200000005 cyc:  213350171 now IPC :1.91331: AVG IPC :0.93235: L2-Pf-HR :0.81793: L2-HR :0.79830: (Sim:1h8m24s) 
CPU  0 inst:  201000002 cyc:  213878428 now IPC :1.89301: AVG IPC :0.93474: L2-Pf-HR :0.81785: L2-HR :0.79837: (Sim:1h8m45s) 
CPU  0 inst:  202000000 cyc:  214320236 now IPC :2.26342: AVG IPC :0.93749: L2-Pf-HR :0.81847: L2-HR :0.79895: (Sim:1h9m4s) 
CPU  0 inst:  203000005 cyc:  214807145 now IPC :2.05378: AVG IPC :0.94003: L2-Pf-HR :0.81904: L2-HR :0.79949: (Sim:1h9m25s) 
CPU  0 inst:  204000005 cyc:  215294590 now IPC :2.05151: AVG IPC :0.94256: L2-Pf-HR :0.81917: L2-HR :0.79969: (Sim:1h9m45s) 
CPU  0 inst:  205000005 cyc:  215759946 now IPC :2.14889: AVG IPC :0.94517: L2-Pf-HR :0.81995: L2-HR :0.80042: (Sim:1h10m4s) 
CPU  0 inst:  206000002 cyc:  216387852 now IPC :1.59259: AVG IPC :0.94706: L2-Pf-HR :0.81948: L2-HR :0.80012: (Sim:1h10m26s) 
CPU  0 inst:  207000001 cyc:  216874480 now IPC :2.05496: AVG IPC :0.94956: L2-Pf-HR :0.81993: L2-HR :0.80053: (Sim:1h10m47s) 
CPU  0 inst:  208000000 cyc:  217393042 now IPC :1.92841: AVG IPC :0.95190: L2-Pf-HR :0.82044: L2-HR :0.80102: (Sim:1h11m5s) 
CPU  0 inst:  209000004 cyc:  217922865 now IPC :1.88743: AVG IPC :0.95419: L2-Pf-HR :0.82021: L2-HR :0.80099: (Sim:1h11m26s) 
CPU  0 inst:  210000003 cyc:  218374260 now IPC :2.21535: AVG IPC :0.95681: L2-Pf-HR :0.82075: L2-HR :0.80148: (Sim:1h11m46s) 
CPU  0 inst:  211000003 cyc:  218829137 now IPC :2.19840: AVG IPC :0.95940: L2-Pf-HR :0.82149: L2-HR :0.80217: (Sim:1h12m6s) 
CPU  0 inst:  212000000 cyc:  219337244 now IPC :1.96808: AVG IPC :0.96175: L2-Pf-HR :0.82137: L2-HR :0.80220: (Sim:1h12m26s) 
CPU  0 inst:  213000000 cyc:  219787722 now IPC :2.21986: AVG IPC :0.96434: L2-Pf-HR :0.82198: L2-HR :0.80276: (Sim:1h12m45s) 
CPU  0 inst:  214000001 cyc:  220259778 now IPC :2.11839: AVG IPC :0.96682: L2-Pf-HR :0.82247: L2-HR :0.80327: (Sim:1h13m4s) 
CPU  0 inst:  215000002 cyc:  220888559 now IPC :1.59038: AVG IPC :0.96860: L2-Pf-HR :0.82216: L2-HR :0.80303: (Sim:1h13m27s) 
CPU  0 inst:  216000000 cyc:  221353027 now IPC :2.15300: AVG IPC :0.97110: L2-Pf-HR :0.82263: L2-HR :0.80349: (Sim:1h13m46s) 
CPU  0 inst:  217000005 cyc:  221873908 now IPC :1.91983: AVG IPC :0.97334: L2-Pf-HR :0.82302: L2-HR :0.80388: (Sim:1h14m5s) 
CPU  0 inst:  218000005 cyc:  222403972 now IPC :1.88656: AVG IPC :0.97552: L2-Pf-HR :0.82297: L2-HR :0.80395: (Sim:1h14m26s) 
CPU  0 inst:  219000002 cyc:  222866638 now IPC :2.16138: AVG IPC :0.97800: L2-Pf-HR :0.82355: L2-HR :0.80446: (Sim:1h14m47s) 
CPU  0 inst:  220000005 cyc:  223345054 now IPC :2.09024: AVG IPC :0.98039: L2-Pf-HR :0.82404: L2-HR :0.80496: (Sim:1h15m6s) 
CPU  0 inst:  221000001 cyc:  223839040 now IPC :2.02434: AVG IPC :0.98270: L2-Pf-HR :0.82419: L2-HR :0.80514: (Sim:1h15m26s) 
CPU  0 inst:  222000004 cyc:  224316943 now IPC :2.09248: AVG IPC :0.98508: L2-Pf-HR :0.82479: L2-HR :0.80570: (Sim:1h15m44s) 
CPU  0 inst:  223000004 cyc:  224932261 now IPC :1.62518: AVG IPC :0.98684: L2-Pf-HR :0.82454: L2-HR :0.80549: (Sim:1h16m4s) 
CPU  0 inst:  224000000 cyc:  225401871 now IPC :2.12942: AVG IPC :0.98923: L2-Pf-HR :0.82491: L2-HR :0.80589: (Sim:1h16m22s) 
CPU  0 inst:  225000000 cyc:  225930147 now IPC :1.89295: AVG IPC :0.99135: L2-Pf-HR :0.82534: L2-HR :0.80628: (Sim:1h16m41s) 
CPU  0 inst:  226000003 cyc:  226460493 now IPC :1.88557: AVG IPC :0.99345: L2-Pf-HR :0.82510: L2-HR :0.80623: (Sim:1h17m0s) 
CPU  0 inst:  227000002 cyc:  226914246 now IPC :2.20384: AVG IPC :0.99588: L2-Pf-HR :0.82560: L2-HR :0.80669: (Sim:1h17m19s) 
CPU  0 inst:  228000005 cyc:  227375929 now IPC :2.16599: AVG IPC :0.99827: L2-Pf-HR :0.82629: L2-HR :0.80732: (Sim:1h17m37s) 
CPU  0 inst:  229000002 cyc:  227868971 now IPC :2.02822: AVG IPC :1.00051: L2-Pf-HR :0.82613: L2-HR :0.80731: (Sim:1h17m56s) 
CPU  0 inst:  230000003 cyc:  228323809 now IPC :2.19859: AVG IPC :1.00291: L2-Pf-HR :0.82667: L2-HR :0.80781: (Sim:1h18m14s) 
CPU  0 inst:  231000001 cyc:  228843710 now IPC :1.92344: AVG IPC :1.00501: L2-Pf-HR :0.82689: L2-HR :0.80808: (Sim:1h18m32s) 
CPU  0 inst:  232000000 cyc:  229417750 now IPC :1.74204: AVG IPC :1.00686: L2-Pf-HR :0.82679: L2-HR :0.80801: (Sim:1h18m53s) 
CPU  0 inst:  233000005 cyc:  229875374 now IPC :2.18521: AVG IPC :1.00921: L2-Pf-HR :0.82720: L2-HR :0.80841: (Sim:1h19m11s) 
CPU  0 inst:  234000001 cyc:  230395971 now IPC :1.92086: AVG IPC :1.01128: L2-Pf-HR :0.82756: L2-HR :0.80876: (Sim:1h19m29s) 
CPU  0 inst:  235000002 cyc:  230931284 now IPC :1.86807: AVG IPC :1.01328: L2-Pf-HR :0.82744: L2-HR :0.80876: (Sim:1h19m45s) 
CPU  0 inst:  236000005 cyc:  231390491 now IPC :2.17767: AVG IPC :1.01560: L2-Pf-HR :0.82795: L2-HR :0.80922: (Sim:1h19m55s) 
CPU  0 inst:  237000000 cyc:  231871788 now IPC :2.07771: AVG IPC :1.01781: L2-Pf-HR :0.82836: L2-HR :0.80965: (Sim:1h20m4s) 
CPU  0 inst:  238000000 cyc:  232363724 now IPC :2.03278: AVG IPC :1.01997: L2-Pf-HR :0.82843: L2-HR :0.80976: (Sim:1h20m14s) 
CPU  0 inst:  239000001 cyc:  232841491 now IPC :2.09307: AVG IPC :1.02218: L2-Pf-HR :0.82897: L2-HR :0.81026: (Sim:1h20m23s) 
CPU  0 inst:  240000002 cyc:  233469612 now IPC :1.59205: AVG IPC :1.02372: L2-Pf-HR :0.82866: L2-HR :0.81000: (Sim:1h20m34s) 
CPU  0 inst:  241000002 cyc:  233923413 now IPC :2.20361: AVG IPC :1.02602: L2-Pf-HR :0.82908: L2-HR :0.81042: (Sim:1h20m43s) 
CPU  0 inst:  242000005 cyc:  234461250 now IPC :1.85930: AVG IPC :1.02794: L2-Pf-HR :0.82943: L2-HR :0.81074: (Sim:1h20m52s) 
CPU  0 inst:  243000000 cyc:  234982736 now IPC :1.91759: AVG IPC :1.02992: L2-Pf-HR :0.82920: L2-HR :0.81068: (Sim:1h21m2s) 
CPU  0 inst:  244000004 cyc:  235439533 now IPC :2.18916: AVG IPC :1.03218: L2-Pf-HR :0.82968: L2-HR :0.81112: (Sim:1h21m12s) 
CPU  0 inst:  245000000 cyc:  235934967 now IPC :2.01842: AVG IPC :1.03426: L2-Pf-HR :0.83016: L2-HR :0.81156: (Sim:1h21m21s) 
CPU  0 inst:  246000004 cyc:  236410111 now IPC :2.10463: AVG IPC :1.03642: L2-Pf-HR :0.83011: L2-HR :0.81160: (Sim:1h21m31s) 
CPU  0 inst:  247000005 cyc:  236867753 now IPC :2.18512: AVG IPC :1.03865: L2-Pf-HR :0.83062: L2-HR :0.81208: (Sim:1h21m41s) 
CPU  0 inst:  248000001 cyc:  237464697 now IPC :1.67519: AVG IPC :1.04026: L2-Pf-HR :0.83048: L2-HR :0.81198: (Sim:1h21m51s) 
CPU  0 inst:  249000003 cyc:  237962826 now IPC :2.00752: AVG IPC :1.04229: L2-Pf-HR :0.83074: L2-HR :0.81223: (Sim:1h22m1s) 
CPU  0 inst:  250000005 cyc:  238428002 now IPC :2.14973: AVG IPC :1.04446: L2-Pf-HR :0.83112: L2-HR :0.81260: (Sim:1h22m9s) 
CPU  0 inst:  251000000 cyc:  238949676 now IPC :1.91690: AVG IPC :1.04637: L2-Pf-HR :0.83143: L2-HR :0.81292: (Sim:1h22m19s) 
CPU  0 inst:  252000002 cyc:  239487215 now IPC :1.86033: AVG IPC :1.04821: L2-Pf-HR :0.83130: L2-HR :0.81290: (Sim:1h22m29s) 
CPU  0 inst:  253000000 cyc:  239927866 now IPC :2.26937: AVG IPC :1.05046: L2-Pf-HR :0.83179: L2-HR :0.81337: (Sim:1h22m38s) 
CPU  0 inst:  254000004 cyc:  240406491 now IPC :2.08933: AVG IPC :1.05253: L2-Pf-HR :0.83213: L2-HR :0.81374: (Sim:1h22m47s) 
CPU  0 inst:  255000003 cyc:  240894728 now IPC :2.04818: AVG IPC :1.05456: L2-Pf-HR :0.83216: L2-HR :0.81382: (Sim:1h22m57s) 
CPU  0 inst:  256000004 cyc:  241365755 now IPC :2.12302: AVG IPC :1.05665: L2-Pf-HR :0.83260: L2-HR :0.81427: (Sim:1h23m6s) 
CPU  0 inst:  257000000 cyc:  241991170 now IPC :1.59893: AVG IPC :1.05806: L2-Pf-HR :0.83226: L2-HR :0.81403: (Sim:1h23m17s) 
CPU  0 inst:  258000005 cyc:  242448796 now IPC :2.18520: AVG IPC :1.06020: L2-Pf-HR :0.83263: L2-HR :0.81439: (Sim:1h23m26s) 
CPU  0 inst:  259000000 cyc:  242987893 now IPC :1.85494: AVG IPC :1.06197: L2-Pf-HR :0.83290: L2-HR :0.81466: (Sim:1h23m36s) 
CPU  0 inst:  260000002 cyc:  243520048 now IPC :1.87916: AVG IPC :1.06376: L2-Pf-HR :0.83268: L2-HR :0.81457: (Sim:1h23m46s) 
CPU  0 inst:  261000005 cyc:  243984287 now IPC :2.15407: AVG IPC :1.06584: L2-Pf-HR :0.83313: L2-HR :0.81497: (Sim:1h23m56s) 
CPU  0 inst:  262000001 cyc:  244465800 now IPC :2.07678: AVG IPC :1.06784: L2-Pf-HR :0.83347: L2-HR :0.81533: (Sim:1h24m5s) 
CPU  0 inst:  263000000 cyc:  244943633 now IPC :2.09278: AVG IPC :1.06985: L2-Pf-HR :0.83343: L2-HR :0.81535: (Sim:1h24m15s) 
CPU  0 inst:  264000000 cyc:  245404785 now IPC :2.16848: AVG IPC :1.07192: L2-Pf-HR :0.83391: L2-HR :0.81581: (Sim:1h24m25s) 
CPU  0 inst:  265000000 cyc:  246014557 now IPC :1.63996: AVG IPC :1.07334: L2-Pf-HR :0.83361: L2-HR :0.81565: (Sim:1h24m35s) 
CPU  0 inst:  266000002 cyc:  246508931 now IPC :2.02276: AVG IPC :1.07525: L2-Pf-HR :0.83392: L2-HR :0.81590: (Sim:1h24m45s) 
CPU  0 inst:  267000000 cyc:  246978774 now IPC :2.12837: AVG IPC :1.07726: L2-Pf-HR :0.83424: L2-HR :0.81623: (Sim:1h24m54s) 
CPU  0 inst:  268000003 cyc:  247520685 now IPC :1.84533: AVG IPC :1.07895: L2-Pf-HR :0.83432: L2-HR :0.81637: (Sim:1h25m3s) 
CPU  0 inst:  269000005 cyc:  248031406 now IPC :1.95802: AVG IPC :1.08077: L2-Pf-HR :0.83433: L2-HR :0.81643: (Sim:1h25m14s) 
CPU  0 inst:  270000004 cyc:  248479902 now IPC :2.22967: AVG IPC :1.08285: L2-Pf-HR :0.83475: L2-HR :0.81679: (Sim:1h25m23s) 
CPU  0 inst:  271000005 cyc:  248957936 now IPC :2.09190: AVG IPC :1.08479: L2-Pf-HR :0.83506: L2-HR :0.81714: (Sim:1h25m32s) 
CPU  0 inst:  272000005 cyc:  249453643 now IPC :2.01732: AVG IPC :1.08665: L2-Pf-HR :0.83512: L2-HR :0.81724: (Sim:1h25m42s) 
CPU  0 inst:  273000000 cyc:  249925861 now IPC :2.11766: AVG IPC :1.08861: L2-Pf-HR :0.83555: L2-HR :0.81767: (Sim:1h25m51s) 
CPU  0 inst:  274000004 cyc:  250551082 now IPC :1.59944: AVG IPC :1.08989: L2-Pf-HR :0.83522: L2-HR :0.81742: (Sim:1h26m2s) 
CPU  0 inst:  275000003 cyc:  251017454 now IPC :2.14421: AVG IPC :1.09186: L2-Pf-HR :0.83552: L2-HR :0.81771: (Sim:1h26m12s) 
CPU  0 inst:  276000003 cyc:  251540058 now IPC :1.91349: AVG IPC :1.09357: L2-Pf-HR :0.83581: L2-HR :0.81800: (Sim:1h26m21s) 
CPU  0 inst:  277000002 cyc:  252072282 now IPC :1.87891: AVG IPC :1.09523: L2-Pf-HR :0.83565: L2-HR :0.81795: (Sim:1h26m31s) 
CPU  0 inst:  278000000 cyc:  252521058 now IPC :2.22828: AVG IPC :1.09726: L2-Pf-HR :0.83604: L2-HR :0.81831: (Sim:1h26m41s) 
CPU  0 inst:  279000002 cyc:  253006571 now IPC :2.05968: AVG IPC :1.09911: L2-Pf-HR :0.83638: L2-HR :0.81866: (Sim:1h26m50s) 
CPU  0 inst:  280000003 cyc:  253493749 now IPC :2.05264: AVG IPC :1.10095: L2-Pf-HR :0.83635: L2-HR :0.81868: (Sim:1h27m0s) 
CPU  0 inst:  281000000 cyc:  253945422 now IPC :2.21398: AVG IPC :1.10294: L2-Pf-HR :0.83680: L2-HR :0.81910: (Sim:1h27m9s) 
CPU  0 inst:  282000005 cyc:  254564673 now IPC :1.61486: AVG IPC :1.10419: L2-Pf-HR :0.83647: L2-HR :0.81888: (Sim:1h27m20s) 
CPU  0 inst:  283000003 cyc:  255055558 now IPC :2.03713: AVG IPC :1.10599: L2-Pf-HR :0.83672: L2-HR :0.81910: (Sim:1h27m30s) 
CPU  0 inst:  284000002 cyc:  255526655 now IPC :2.12270: AVG IPC :1.10787: L2-Pf-HR :0.83710: L2-HR :0.81947: (Sim:1h27m39s) 
CPU  0 inst:  285000000 cyc:  256102905 now IPC :1.73535: AVG IPC :1.10929: L2-Pf-HR :0.83684: L2-HR :0.81935: (Sim:1h27m49s) 
CPU  0 inst:  286000003 cyc:  256574106 now IPC :2.12224: AVG IPC :1.11116: L2-Pf-HR :0.83719: L2-HR :0.81964: (Sim:1h27m59s) 
CPU  0 inst:  287000001 cyc:  257017987 now IPC :2.25285: AVG IPC :1.11313: L2-Pf-HR :0.83761: L2-HR :0.82002: (Sim:1h28m12s) 
CPU  0 inst:  288000004 cyc:  257495637 now IPC :2.09359: AVG IPC :1.11496: L2-Pf-HR :0.83791: L2-HR :0.82034: (Sim:1h28m31s) 
CPU  0 inst:  289000001 cyc:  257987663 now IPC :2.03241: AVG IPC :1.11672: L2-Pf-HR :0.83792: L2-HR :0.82040: (Sim:1h28m50s) 
CPU  0 inst:  290000001 cyc:  258455838 now IPC :2.13595: AVG IPC :1.11857: L2-Pf-HR :0.83827: L2-HR :0.82075: (Sim:1h29m9s) 
CPU  0 inst:  291000000 cyc:  259077151 now IPC :1.60949: AVG IPC :1.11975: L2-Pf-HR :0.83799: L2-HR :0.82050: (Sim:1h29m30s) 
CPU  0 inst:  292000002 cyc:  259551421 now IPC :2.10851: AVG IPC :1.12157: L2-Pf-HR :0.83827: L2-HR :0.82075: (Sim:1h29m50s) 
CPU  0 inst:  293000005 cyc:  260080663 now IPC :1.88950: AVG IPC :1.12313: L2-Pf-HR :0.83849: L2-HR :0.82096: (Sim:1h30m9s) 
CPU  0 inst:  294000005 cyc:  260620222 now IPC :1.85337: AVG IPC :1.12465: L2-Pf-HR :0.83831: L2-HR :0.82089: (Sim:1h30m30s) 
CPU  0 inst:  295000001 cyc:  261068738 now IPC :2.22957: AVG IPC :1.12656: L2-Pf-HR :0.83868: L2-HR :0.82123: (Sim:1h30m50s) 
Finished CPU 0 instr: 293000000 cyc: 260084408 AVG IPC: 1.12656 (Sim time: 1h30m50s)

ChampSim completed all CPUs

[ROI Statistics]
Core_0_instructions 293000000
Core_0_cycles 260084408
Core_0_IPC 1.12656

Core_0_branch_prediction_accuracy 98.23791
Core_0_branch_MPKI 0.42863
Core_0_average_ROB_occupancy_at_mispredict 572.64280

Core_0_L1D_total_access 116979692
Core_0_L1D_total_hit 110959993 L1D_total_Hit Ratio: 0.94854
Core_0_L1D_total_miss 6019699
Core_0_L1D_loads 61664675
Core_0_L1D_load_hit 60245088 L1D_load_Hit Ratio: 0.97698
Core_0_L1D_load_miss 1419587
Core_0_L1D_RFOs 5938967
Core_0_L1D_RFO_hit 5682254 L1D_RFO_Hit Ratio: 0.95677
Core_0_L1D_RFO_miss 256713
Core_0_L1D_prefetches 49376050
Core_0_L1D_prefetch_hit 45032651 L1D_prefetch_Hit Ratio: 0.91203
Core_0_L1D_prefetch_miss 4343399
Core_0_L1D_writebacks 0
Core_0_L1D_writeback_hit 0 L1D_writeback_Hit Ratio: -nan
Core_0_L1D_writeback_miss 0
Core_0_L1D_prefetch_requested 51724816
Core_0_L1D_prefetch_issued 51724816
Core_0_L1D_prefetch_useful 4001412 L1D_Useful Ratio: 0.07736
Core_0_L1D_prefetch_useless 368423
Core_0_L1D_prefetch_late 202218
Core_0_L1D_average_miss_latency 3896129.40040

Core_0_L1I_total_access 37203338
Core_0_L1I_total_hit 37198494 L1I_total_Hit Ratio: 0.99987
Core_0_L1I_total_miss 4844
Core_0_L1I_loads 37203338
Core_0_L1I_load_hit 37198494 L1I_load_Hit Ratio: 0.99987
Core_0_L1I_load_miss 4844
Core_0_L1I_RFOs 0
Core_0_L1I_RFO_hit 0 L1I_RFO_Hit Ratio: -nan
Core_0_L1I_RFO_miss 0
Core_0_L1I_prefetches 0
Core_0_L1I_prefetch_hit 0 L1I_prefetch_Hit Ratio: -nan
Core_0_L1I_prefetch_miss 0
Core_0_L1I_writebacks 0
Core_0_L1I_writeback_hit 0 L1I_writeback_Hit Ratio: -nan
Core_0_L1I_writeback_miss 0
Core_0_L1I_prefetch_requested 0
Core_0_L1I_prefetch_issued 0
Core_0_L1I_prefetch_useful 0 L1I_Useful Ratio: -nan
Core_0_L1I_prefetch_useless 0
Core_0_L1I_prefetch_late 0
Core_0_L1I_average_miss_latency 311.26383

Core_0_L2C_total_access 10944070
Core_0_L2C_total_hit 8987545 L2C_total_Hit Ratio: 0.82123
Core_0_L2C_total_miss 1956525
Core_0_L2C_loads 1222590
Core_0_L2C_load_hit 733699 L2C_load_Hit Ratio: 0.60012
Core_0_L2C_load_miss 488891
Core_0_L2C_RFOs 256711
Core_0_L2C_RFO_hit 59858 L2C_RFO_Hit Ratio: 0.23317
Core_0_L2C_RFO_miss 196853
Core_0_L2C_prefetches 7875557
Core_0_L2C_prefetch_hit 6605091 L2C_prefetch_Hit Ratio: 0.83868
Core_0_L2C_prefetch_miss 1270466
Core_0_L2C_writebacks 1589212
Core_0_L2C_writeback_hit 1588897 L2C_writeback_Hit Ratio: 0.99980
Core_0_L2C_writeback_miss 315
Core_0_L2C_prefetch_requested 5126420
Core_0_L2C_prefetch_issued 3846421
Core_0_L2C_prefetch_useful 415789 L2C_Useful Ratio: 0.10810
Core_0_L2C_prefetch_useless 860772
Core_0_L2C_prefetch_late 143097
Core_0_L2C_average_miss_latency 327.60151

Core_0_LLC_total_access 2984221
Core_0_LLC_total_hit 1389191 LLC_total_Hit Ratio: 0.46551
Core_0_LLC_total_miss 1595030
Core_0_LLC_loads 345963
Core_0_LLC_load_hit 77062 LLC_load_Hit Ratio: 0.22275
Core_0_LLC_load_miss 268901
Core_0_LLC_RFOs 196850
Core_0_LLC_RFO_hit 2130 LLC_RFO_Hit Ratio: 0.01082
Core_0_LLC_RFO_miss 194720
Core_0_LLC_prefetches 1413372
Core_0_LLC_prefetch_hit 293956 LLC_prefetch_Hit Ratio: 0.20798
Core_0_LLC_prefetch_miss 1119416
Core_0_LLC_writebacks 1028036
Core_0_LLC_writeback_hit 1016043 LLC_writeback_Hit Ratio: 0.98833
Core_0_LLC_writeback_miss 11993
Core_0_LLC_prefetch_requested 0
Core_0_LLC_prefetch_issued 0
Core_0_LLC_prefetch_useful 54614 LLC_Useful Ratio: inf
Core_0_LLC_prefetch_useless 1047720
Core_0_LLC_prefetch_late 0
Core_0_LLC_average_miss_latency 370.50387

Core_0_major_page_fault 0
Core_0_minor_page_fault 13331

CPU 0 L1D berti prefetcher final stats
0-> Hits: 18, Late: 5, Early: 0, Misses: 0
1-> Hits: 2, Late: 1, Early: 0, Misses: 0
3-> Hits: 5, Late: 0, Early: 0, Misses: 0
4-> Hits: 2, Late: 0, Early: 0, Misses: 0
5-> Hits: 3, Late: 1, Early: 0, Misses: 0
6-> Hits: 1, Late: 0, Early: 0, Misses: 0
7-> Hits: 2, Late: 0, Early: 0, Misses: 0
8-> Hits: 0, Late: 1, Early: 0, Misses: 0
9-> Hits: 2, Late: 0, Early: 0, Misses: 0
a-> Hits: 0, Late: 2, Early: 0, Misses: 0
b-> Hits: 5, Late: 0, Early: 0, Misses: 0
e-> Hits: 37, Late: 0, Early: 0, Misses: 0
10-> Hits: 2, Late: 0, Early: 0, Misses: 0
11-> Hits: 0, Late: 1, Early: 0, Misses: 0
13-> Hits: 1, Late: 0, Early: 0, Misses: 0
14-> Hits: 2, Late: 0, Early: 0, Misses: 0
16-> Hits: 12, Late: 0, Early: 0, Misses: 0
17-> Hits: 3, Late: 0, Early: 0, Misses: 0
18-> Hits: 1, Late: 0, Early: 0, Misses: 0
1a-> Hits: 615, Late: 2, Early: 0, Misses: 0
1b-> Hits: 1, Late: 0, Early: 0, Misses: 0
1c-> Hits: 37, Late: 0, Early: 0, Misses: 0
1d-> Hits: 3, Late: 1, Early: 0, Misses: 0
1e-> Hits: 3, Late: 0, Early: 0, Misses: 0
1f-> Hits: 1, Late: 0, Early: 0, Misses: 0
20-> Hits: 2, Late: 1, Early: 0, Misses: 0
21-> Hits: 441, Late: 2, Early: 0, Misses: 0
22-> Hits: 2, Late: 2, Early: 0, Misses: 0
24-> Hits: 12, Late: 0, Early: 0, Misses: 0
25-> Hits: 3, Late: 0, Early: 0, Misses: 0
27-> Hits: 83, Late: 0, Early: 0, Misses: 2
28-> Hits: 10, Late: 0, Early: 0, Misses: 0
2a-> Hits: 487, Late: 2, Early: 0, Misses: 0
2b-> Hits: 6, Late: 0, Early: 0, Misses: 0
2c-> Hits: 1, Late: 0, Early: 0, Misses: 0
2d-> Hits: 1, Late: 0, Early: 0, Misses: 0
2f-> Hits: 3, Late: 0, Early: 0, Misses: 0
30-> Hits: 7, Late: 2, Early: 0, Misses: 0
33-> Hits: 11, Late: 0, Early: 0, Misses: 0
34-> Hits: 12, Late: 0, Early: 0, Misses: 0
35-> Hits: 149, Late: 483, Early: 0, Misses: 0
36-> Hits: 2, Late: 0, Early: 0, Misses: 0
37-> Hits: 1, Late: 0, Early: 0, Misses: 0
38-> Hits: 4, Late: 0, Early: 0, Misses: 0
39-> Hits: 2, Late: 0, Early: 0, Misses: 0
3a-> Hits: 2, Late: 0, Early: 0, Misses: 0
3c-> Hits: 2, Late: 0, Early: 0, Misses: 0
3d-> Hits: 0, Late: 32, Early: 0, Misses: 0
3e-> Hits: 3, Late: 0, Early: 0, Misses: 0
3f-> Hits: 1, Late: 0, Early: 0, Misses: 0
40-> Hits: 2, Late: 2, Early: 0, Misses: 0
43-> Hits: 2, Late: 0, Early: 0, Misses: 0
44-> Hits: 3, Late: 0, Early: 0, Misses: 0
45-> Hits: 2, Late: 0, Early: 0, Misses: 0
46-> Hits: 2, Late: 0, Early: 0, Misses: 0
47-> Hits: 2, Late: 0, Early: 0, Misses: 0
48-> Hits: 37, Late: 0, Early: 0, Misses: 0
49-> Hits: 39, Late: 0, Early: 0, Misses: 0
4a-> Hits: 34, Late: 0, Early: 0, Misses: 0
4b-> Hits: 34, Late: 0, Early: 0, Misses: 0
4d-> Hits: 34, Late: 0, Early: 0, Misses: 0
4e-> Hits: 1, Late: 0, Early: 0, Misses: 0
4f-> Hits: 32, Late: 0, Early: 0, Misses: 0
50-> Hits: 8, Late: 2, Early: 0, Misses: 0
51-> Hits: 32, Late: 0, Early: 0, Misses: 0
52-> Hits: 32, Late: 0, Early: 0, Misses: 0
53-> Hits: 35, Late: 0, Early: 0, Misses: 0
54-> Hits: 3, Late: 0, Early: 0, Misses: 0
56-> Hits: 1, Late: 0, Early: 0, Misses: 0
58-> Hits: 6, Late: 0, Early: 0, Misses: 0
5a-> Hits: 2, Late: 0, Early: 0, Misses: 0
5c-> Hits: 3, Late: 1, Early: 0, Misses: 0
5d-> Hits: 3, Late: 0, Early: 0, Misses: 0
61-> Hits: 3, Late: 0, Early: 0, Misses: 0
62-> Hits: 2, Late: 0, Early: 0, Misses: 0
63-> Hits: 0, Late: 2, Early: 0, Misses: 0
64-> Hits: 633, Late: 2, Early: 0, Misses: 0
69-> Hits: 2, Late: 0, Early: 0, Misses: 0
6a-> Hits: 2, Late: 0, Early: 0, Misses: 0
6f-> Hits: 1, Late: 0, Early: 0, Misses: 0
70-> Hits: 2, Late: 1, Early: 0, Misses: 0
76-> Hits: 3, Late: 1, Early: 0, Misses: 0
77-> Hits: 2, Late: 0, Early: 0, Misses: 0
78-> Hits: 613, Late: 0, Early: 0, Misses: 47
79-> Hits: 1, Late: 0, Early: 0, Misses: 0
7a-> Hits: 3, Late: 0, Early: 0, Misses: 0
7b-> Hits: 3, Late: 2, Early: 0, Misses: 0
7c-> Hits: 1, Late: 0, Early: 0, Misses: 0
7d-> Hits: 1, Late: 0, Early: 0, Misses: 0
7e-> Hits: 3, Late: 0, Early: 0, Misses: 0
7f-> Hits: 5, Late: 0, Early: 0, Misses: 0
80-> Hits: 21336, Late: 1173, Early: 0, Misses: 71
81-> Hits: 1, Late: 0, Early: 0, Misses: 0
82-> Hits: 2, Late: 0, Early: 0, Misses: 0
84-> Hits: 4, Late: 1, Early: 0, Misses: 0
86-> Hits: 1, Late: 0, Early: 0, Misses: 0
88-> Hits: 14779, Late: 813, Early: 0, Misses: 80
89-> Hits: 31, Late: 2, Early: 0, Misses: 0
8a-> Hits: 2, Late: 0, Early: 0, Misses: 0
8f-> Hits: 6, Late: 0, Early: 0, Misses: 0
90-> Hits: 0, Late: 1, Early: 0, Misses: 0
91-> Hits: 2, Late: 0, Early: 0, Misses: 0
92-> Hits: 52986, Late: 48, Early: 0, Misses: 16
94-> Hits: 540, Late: 46, Early: 0, Misses: 110
95-> Hits: 1, Late: 0, Early: 0, Misses: 0
96-> Hits: 3, Late: 0, Early: 0, Misses: 0
98-> Hits: 3, Late: 0, Early: 0, Misses: 0
99-> Hits: 1, Late: 0, Early: 0, Misses: 0
9a-> Hits: 5, Late: 0, Early: 0, Misses: 0
9b-> Hits: 3, Late: 0, Early: 0, Misses: 0
9c-> Hits: 6294, Late: 0, Early: 0, Misses: 0
9d-> Hits: 2, Late: 0, Early: 0, Misses: 0
9e-> Hits: 2, Late: 0, Early: 0, Misses: 0
9f-> Hits: 4, Late: 0, Early: 0, Misses: 0
a0-> Hits: 1994, Late: 24, Early: 0, Misses: 0
a1-> Hits: 5, Late: 0, Early: 0, Misses: 0
a2-> Hits: 1, Late: 0, Early: 0, Misses: 0
a3-> Hits: 3, Late: 0, Early: 0, Misses: 0
a4-> Hits: 8, Late: 0, Early: 0, Misses: 0
a5-> Hits: 4, Late: 0, Early: 0, Misses: 0
a6-> Hits: 53005, Late: 32, Early: 0, Misses: 16
a7-> Hits: 4, Late: 0, Early: 0, Misses: 0
a8-> Hits: 3, Late: 0, Early: 0, Misses: 0
a9-> Hits: 4, Late: 0, Early: 0, Misses: 0
aa-> Hits: 3, Late: 0, Early: 0, Misses: 0
ab-> Hits: 5, Late: 0, Early: 0, Misses: 0
ac-> Hits: 1149, Late: 49, Early: 0, Misses: 16
ad-> Hits: 4, Late: 0, Early: 0, Misses: 0
ae-> Hits: 7, Late: 0, Early: 0, Misses: 0
af-> Hits: 3, Late: 31, Early: 0, Misses: 0
b0-> Hits: 15, Late: 6, Early: 0, Misses: 0
b1-> Hits: 1, Late: 1, Early: 0, Misses: 0
b3-> Hits: 6, Late: 0, Early: 0, Misses: 0
b4-> Hits: 4, Late: 0, Early: 0, Misses: 0
b6-> Hits: 42077, Late: 10355, Early: 0, Misses: 823
b7-> Hits: 4100, Late: 0, Early: 0, Misses: 0
b8-> Hits: 2, Late: 1, Early: 0, Misses: 0
ba-> Hits: 2, Late: 0, Early: 0, Misses: 0
bb-> Hits: 981, Late: 48887, Early: 0, Misses: 761
bc-> Hits: 2, Late: 0, Early: 0, Misses: 0
bf-> Hits: 1, Late: 0, Early: 0, Misses: 0
c0-> Hits: 11, Late: 34, Early: 0, Misses: 0
c1-> Hits: 1, Late: 0, Early: 0, Misses: 0
c2-> Hits: 4, Late: 1, Early: 0, Misses: 0
c3-> Hits: 5, Late: 0, Early: 0, Misses: 1
c4-> Hits: 589, Late: 60, Early: 0, Misses: 46
c5-> Hits: 1, Late: 0, Early: 0, Misses: 0
c6-> Hits: 187, Late: 0, Early: 0, Misses: 0
c7-> Hits: 5, Late: 0, Early: 0, Misses: 0
c8-> Hits: 10, Late: 0, Early: 0, Misses: 0
c9-> Hits: 1, Late: 0, Early: 0, Misses: 0
ca-> Hits: 1, Late: 0, Early: 0, Misses: 0
cb-> Hits: 28637, Late: 24444, Early: 0, Misses: 862
cc-> Hits: 1, Late: 0, Early: 0, Misses: 0
cf-> Hits: 1, Late: 0, Early: 0, Misses: 0
d0-> Hits: 2392, Late: 51715, Early: 0, Misses: 1250
d1-> Hits: 3, Late: 0, Early: 0, Misses: 0
d2-> Hits: 6, Late: 0, Early: 0, Misses: 0
d3-> Hits: 198, Late: 496, Early: 0, Misses: 0
d4-> Hits: 1, Late: 0, Early: 0, Misses: 0
d5-> Hits: 2, Late: 0, Early: 0, Misses: 0
d6-> Hits: 2, Late: 0, Early: 0, Misses: 0
d7-> Hits: 1, Late: 0, Early: 0, Misses: 0
d8-> Hits: 1, Late: 0, Early: 0, Misses: 0
d9-> Hits: 8, Late: 1, Early: 0, Misses: 0
da-> Hits: 1696, Late: 2065, Early: 0, Misses: 335
db-> Hits: 2, Late: 0, Early: 0, Misses: 0
dd-> Hits: 2, Late: 0, Early: 0, Misses: 0
df-> Hits: 1, Late: 0, Early: 0, Misses: 0
e0-> Hits: 12, Late: 6, Early: 0, Misses: 0
e1-> Hits: 1, Late: 0, Early: 0, Misses: 0
e5-> Hits: 503, Late: 3242, Early: 0, Misses: 351
ea-> Hits: 2, Late: 0, Early: 0, Misses: 0
ef-> Hits: 1929, Late: 1778, Early: 0, Misses: 389
f3-> Hits: 679, Late: 1, Early: 0, Misses: 0
f4-> Hits: 1, Late: 0, Early: 0, Misses: 0
f6-> Hits: 2, Late: 0, Early: 0, Misses: 0
f7-> Hits: 4, Late: 0, Early: 0, Misses: 0
f8-> Hits: 3, Late: 0, Early: 0, Misses: 0
f9-> Hits: 14, Late: 2, Early: 0, Misses: 0
fa-> Hits: 2, Late: 0, Early: 0, Misses: 0
fb-> Hits: 632, Late: 0, Early: 0, Misses: 47
fc-> Hits: 1, Late: 0, Early: 0, Misses: 0
fd-> Hits: 2, Late: 0, Early: 0, Misses: 0
fe-> Hits: 1, Late: 0, Early: 0, Misses: 0
ff-> Hits: 4, Late: 0, Early: 0, Misses: 0
100-> Hits: 11, Late: 2, Early: 0, Misses: 0
101-> Hits: 1, Late: 0, Early: 0, Misses: 0
103-> Hits: 1, Late: 0, Early: 0, Misses: 0
104-> Hits: 0, Late: 1, Early: 0, Misses: 0
106-> Hits: 1, Late: 0, Early: 0, Misses: 0
10a-> Hits: 1, Late: 0, Early: 0, Misses: 0
10b-> Hits: 3, Late: 0, Early: 0, Misses: 0
10d-> Hits: 3, Late: 0, Early: 0, Misses: 0
10e-> Hits: 1, Late: 0, Early: 0, Misses: 0
10f-> Hits: 1, Late: 0, Early: 0, Misses: 0
110-> Hits: 1, Late: 1, Early: 0, Misses: 0
112-> Hits: 12, Late: 1, Early: 0, Misses: 0
114-> Hits: 0, Late: 1, Early: 0, Misses: 0
115-> Hits: 163068, Late: 527, Early: 0, Misses: 246
116-> Hits: 1, Late: 0, Early: 0, Misses: 0
117-> Hits: 3, Late: 0, Early: 0, Misses: 0
118-> Hits: 1, Late: 0, Early: 0, Misses: 0
11a-> Hits: 3, Late: 0, Early: 0, Misses: 0
11b-> Hits: 3, Late: 0, Early: 0, Misses: 0
11c-> Hits: 20133, Late: 10, Early: 0, Misses: 4
11d-> Hits: 1, Late: 0, Early: 0, Misses: 0
11e-> Hits: 2, Late: 0, Early: 0, Misses: 0
11f-> Hits: 141715, Late: 1178, Early: 0, Misses: 468
120-> Hits: 2, Late: 2, Early: 0, Misses: 0
121-> Hits: 1, Late: 0, Early: 0, Misses: 0
122-> Hits: 2, Late: 0, Early: 0, Misses: 0
123-> Hits: 1, Late: 0, Early: 0, Misses: 0
124-> Hits: 3, Late: 0, Early: 0, Misses: 0
125-> Hits: 1, Late: 0, Early: 0, Misses: 0
126-> Hits: 9948, Late: 3, Early: 0, Misses: 0
127-> Hits: 163155, Late: 169, Early: 0, Misses: 517
128-> Hits: 680, Late: 10, Early: 0, Misses: 0
129-> Hits: 2, Late: 0, Early: 0, Misses: 0
12b-> Hits: 15, Late: 0, Early: 0, Misses: 0
12c-> Hits: 142603, Late: 276, Early: 0, Misses: 489
12d-> Hits: 2, Late: 0, Early: 0, Misses: 0
12e-> Hits: 11163, Late: 0, Early: 0, Misses: 1
12f-> Hits: 1, Late: 0, Early: 0, Misses: 0
130-> Hits: 2, Late: 1, Early: 0, Misses: 0
132-> Hits: 1, Late: 0, Early: 0, Misses: 0
133-> Hits: 1, Late: 0, Early: 0, Misses: 0
134-> Hits: 0, Late: 1, Early: 0, Misses: 0
136-> Hits: 1, Late: 0, Early: 0, Misses: 0
137-> Hits: 1, Late: 0, Early: 0, Misses: 0
138-> Hits: 1, Late: 0, Early: 0, Misses: 0
139-> Hits: 8058, Late: 12, Early: 0, Misses: 7
13a-> Hits: 4, Late: 0, Early: 0, Misses: 0
13b-> Hits: 1, Late: 0, Early: 0, Misses: 0
13c-> Hits: 1, Late: 0, Early: 0, Misses: 0
13e-> Hits: 1, Late: 0, Early: 0, Misses: 0
13f-> Hits: 1, Late: 0, Early: 0, Misses: 0
140-> Hits: 1, Late: 3, Early: 0, Misses: 0
142-> Hits: 12107, Late: 3, Early: 0, Misses: 16
143-> Hits: 1, Late: 0, Early: 0, Misses: 0
144-> Hits: 9887, Late: 6, Early: 0, Misses: 1
145-> Hits: 1, Late: 0, Early: 0, Misses: 0
147-> Hits: 34, Late: 0, Early: 0, Misses: 0
148-> Hits: 2, Late: 0, Early: 0, Misses: 0
149-> Hits: 4, Late: 0, Early: 0, Misses: 0
14a-> Hits: 163826, Late: 0, Early: 0, Misses: 0
14d-> Hits: 0, Late: 1, Early: 0, Misses: 0
14f-> Hits: 33, Late: 0, Early: 0, Misses: 0
154-> Hits: 16099, Late: 0, Early: 0, Misses: 0
155-> Hits: 2, Late: 2, Early: 0, Misses: 0
156-> Hits: 0, Late: 1, Early: 0, Misses: 0
157-> Hits: 5765, Late: 1, Early: 0, Misses: 9
159-> Hits: 36, Late: 0, Early: 0, Misses: 0
15b-> Hits: 2, Late: 0, Early: 0, Misses: 0
15d-> Hits: 142624, Late: 265, Early: 0, Misses: 474
15f-> Hits: 17510, Late: 1, Early: 0, Misses: 0
160-> Hits: 1, Late: 0, Early: 0, Misses: 0
163-> Hits: 234, Late: 0, Early: 0, Misses: 47
164-> Hits: 695, Late: 0, Early: 0, Misses: 0
165-> Hits: 2, Late: 0, Early: 0, Misses: 0
168-> Hits: 1, Late: 0, Early: 0, Misses: 0
169-> Hits: 56162, Late: 5, Early: 0, Misses: 1
16a-> Hits: 45115, Late: 25, Early: 0, Misses: 21
16b-> Hits: 34, Late: 0, Early: 0, Misses: 0
16d-> Hits: 64, Late: 0, Early: 0, Misses: 0
16e-> Hits: 239, Late: 455, Early: 0, Misses: 4
16f-> Hits: 34, Late: 0, Early: 0, Misses: 0
171-> Hits: 32, Late: 0, Early: 0, Misses: 0
172-> Hits: 2, Late: 0, Early: 0, Misses: 0
173-> Hits: 131706, Late: 44, Early: 0, Misses: 27
175-> Hits: 43387, Late: 26, Early: 0, Misses: 7
176-> Hits: 34, Late: 0, Early: 0, Misses: 0
177-> Hits: 33, Late: 0, Early: 0, Misses: 0
178-> Hits: 1, Late: 0, Early: 0, Misses: 0
17a-> Hits: 0, Late: 1, Early: 0, Misses: 0
17b-> Hits: 27858, Late: 0, Early: 0, Misses: 0
17c-> Hits: 12941, Late: 97, Early: 0, Misses: 6
17d-> Hits: 2, Late: 0, Early: 0, Misses: 0
17e-> Hits: 1, Late: 0, Early: 0, Misses: 0
180-> Hits: 13, Late: 6, Early: 0, Misses: 0
181-> Hits: 28313, Late: 16, Early: 0, Misses: 20
184-> Hits: 29, Late: 0, Early: 0, Misses: 0
185-> Hits: 14642, Late: 5, Early: 0, Misses: 0
188-> Hits: 2, Late: 0, Early: 0, Misses: 0
189-> Hits: 3, Late: 0, Early: 0, Misses: 0
18b-> Hits: 163116, Late: 178, Early: 0, Misses: 548
18c-> Hits: 3, Late: 0, Early: 0, Misses: 0
18e-> Hits: 1, Late: 0, Early: 0, Misses: 0
18f-> Hits: 1, Late: 0, Early: 0, Misses: 0
190-> Hits: 10, Late: 1, Early: 0, Misses: 0
192-> Hits: 2, Late: 0, Early: 0, Misses: 0
194-> Hits: 1, Late: 124, Early: 0, Misses: 0
195-> Hits: 3, Late: 0, Early: 0, Misses: 0
196-> Hits: 46909, Late: 15, Early: 0, Misses: 12
197-> Hits: 17074, Late: 14, Early: 0, Misses: 6
198-> Hits: 5, Late: 0, Early: 0, Misses: 0
199-> Hits: 6, Late: 124, Early: 0, Misses: 0
19a-> Hits: 3, Late: 0, Early: 0, Misses: 0
19b-> Hits: 7, Late: 0, Early: 0, Misses: 0
19c-> Hits: 4, Late: 0, Early: 0, Misses: 0
19d-> Hits: 12, Late: 1, Early: 0, Misses: 0
19e-> Hits: 2, Late: 0, Early: 0, Misses: 0
19f-> Hits: 4, Late: 0, Early: 0, Misses: 0
1a0-> Hits: 4, Late: 0, Early: 0, Misses: 0
1a1-> Hits: 5, Late: 0, Early: 0, Misses: 0
1a2-> Hits: 12433, Late: 23, Early: 0, Misses: 2
1a4-> Hits: 7, Late: 1, Early: 0, Misses: 0
1a5-> Hits: 1, Late: 0, Early: 0, Misses: 0
1a6-> Hits: 1, Late: 0, Early: 0, Misses: 0
1a7-> Hits: 4, Late: 0, Early: 0, Misses: 0
1a8-> Hits: 2, Late: 0, Early: 0, Misses: 0
1a9-> Hits: 9, Late: 0, Early: 0, Misses: 0
1ab-> Hits: 43874, Late: 14, Early: 0, Misses: 46
1ad-> Hits: 12052, Late: 58, Early: 0, Misses: 6
1ae-> Hits: 2, Late: 0, Early: 0, Misses: 0
1af-> Hits: 7, Late: 0, Early: 0, Misses: 0
1b0-> Hits: 5, Late: 2, Early: 0, Misses: 0
1b1-> Hits: 142643, Late: 257, Early: 0, Misses: 464
1b3-> Hits: 163828, Late: 0, Early: 0, Misses: 16
1b5-> Hits: 2, Late: 2, Early: 0, Misses: 0
1b6-> Hits: 2, Late: 1, Early: 0, Misses: 0
1b7-> Hits: 70, Late: 3, Early: 0, Misses: 0
1b8-> Hits: 3, Late: 2, Early: 0, Misses: 0
1ba-> Hits: 3, Late: 0, Early: 0, Misses: 0
1bc-> Hits: 20051, Late: 13, Early: 0, Misses: 0
1bd-> Hits: 5, Late: 0, Early: 0, Misses: 0
1be-> Hits: 5, Late: 0, Early: 0, Misses: 0
1bf-> Hits: 7, Late: 0, Early: 0, Misses: 0
1c0-> Hits: 3, Late: 3, Early: 0, Misses: 0
1c2-> Hits: 0, Late: 58, Early: 0, Misses: 6
1c3-> Hits: 5, Late: 0, Early: 0, Misses: 0
1c4-> Hits: 3, Late: 0, Early: 0, Misses: 0
1c5-> Hits: 2, Late: 1, Early: 0, Misses: 0
1c6-> Hits: 4, Late: 0, Early: 0, Misses: 0
1c7-> Hits: 39206, Late: 70, Early: 0, Misses: 15
1c8-> Hits: 5, Late: 0, Early: 0, Misses: 0
1c9-> Hits: 1, Late: 0, Early: 0, Misses: 0
1ca-> Hits: 2, Late: 0, Early: 0, Misses: 0
1cc-> Hits: 1, Late: 2, Early: 0, Misses: 0
1cd-> Hits: 6, Late: 0, Early: 0, Misses: 0
1ce-> Hits: 3, Late: 0, Early: 0, Misses: 0
1d0-> Hits: 12, Late: 1, Early: 0, Misses: 0
1d2-> Hits: 160044, Late: 48, Early: 0, Misses: 53
1d4-> Hits: 1, Late: 0, Early: 0, Misses: 0
1d6-> Hits: 6, Late: 0, Early: 0, Misses: 0
1d7-> Hits: 1, Late: 0, Early: 0, Misses: 0
1d8-> Hits: 7, Late: 0, Early: 0, Misses: 0
1da-> Hits: 2, Late: 0, Early: 0, Misses: 0
1db-> Hits: 5, Late: 1, Early: 0, Misses: 0
1dc-> Hits: 6970, Late: 0, Early: 0, Misses: 0
1dd-> Hits: 163629, Late: 79, Early: 0, Misses: 28
1de-> Hits: 9, Late: 1, Early: 0, Misses: 0
1df-> Hits: 13, Late: 0, Early: 0, Misses: 0
1e0-> Hits: 9, Late: 985, Early: 0, Misses: 0
1e1-> Hits: 7, Late: 1, Early: 0, Misses: 0
1e2-> Hits: 1, Late: 1, Early: 0, Misses: 0
1e3-> Hits: 13673, Late: 0, Early: 0, Misses: 1
1e4-> Hits: 1, Late: 0, Early: 0, Misses: 0
1e5-> Hits: 1, Late: 1, Early: 0, Misses: 0
1e6-> Hits: 143309, Late: 35, Early: 0, Misses: 16
1e7-> Hits: 1, Late: 0, Early: 0, Misses: 0
1e8-> Hits: 0, Late: 1, Early: 0, Misses: 0
1ea-> Hits: 0, Late: 1, Early: 0, Misses: 0
1eb-> Hits: 5, Late: 0, Early: 0, Misses: 0
1ec-> Hits: 2, Late: 984, Early: 0, Misses: 0
1ee-> Hits: 24183, Late: 4, Early: 0, Misses: 16
1ef-> Hits: 34, Late: 0, Early: 0, Misses: 0
1f0-> Hits: 14, Late: 482, Early: 0, Misses: 0
1f1-> Hits: 1, Late: 1, Early: 0, Misses: 0
1f2-> Hits: 1, Late: 0, Early: 0, Misses: 0
1f4-> Hits: 2, Late: 5, Early: 0, Misses: 0
1f6-> Hits: 1, Late: 0, Early: 0, Misses: 0
1f7-> Hits: 31, Late: 0, Early: 0, Misses: 0
1f8-> Hits: 5, Late: 0, Early: 0, Misses: 0
1f9-> Hits: 4, Late: 982, Early: 0, Misses: 0
1fa-> Hits: 1, Late: 0, Early: 0, Misses: 0
1fc-> Hits: 32, Late: 0, Early: 0, Misses: 0
1fd-> Hits: 1, Late: 1, Early: 0, Misses: 0
1fe-> Hits: 142621, Late: 302, Early: 0, Misses: 443
200-> Hits: 2, Late: 0, Early: 0, Misses: 0
201-> Hits: 5, Late: 0, Early: 0, Misses: 0
202-> Hits: 1, Late: 0, Early: 0, Misses: 0
203-> Hits: 13, Late: 5, Early: 0, Misses: 0
205-> Hits: 3, Late: 0, Early: 0, Misses: 0
206-> Hits: 6, Late: 983, Early: 0, Misses: 0
207-> Hits: 11, Late: 0, Early: 0, Misses: 0
208-> Hits: 5, Late: 441, Early: 0, Misses: 0
20a-> Hits: 7626, Late: 22, Early: 0, Misses: 23
20c-> Hits: 5, Late: 0, Early: 0, Misses: 0
20e-> Hits: 6, Late: 0, Early: 0, Misses: 0
20f-> Hits: 14, Late: 2, Early: 0, Misses: 0
210-> Hits: 4094, Late: 3, Early: 0, Misses: 0
212-> Hits: 5, Late: 0, Early: 0, Misses: 0
213-> Hits: 0, Late: 984, Early: 0, Misses: 0
214-> Hits: 4, Late: 47, Early: 0, Misses: 0
216-> Hits: 3, Late: 0, Early: 0, Misses: 0
217-> Hits: 11, Late: 1, Early: 0, Misses: 0
218-> Hits: 3, Late: 0, Early: 0, Misses: 0
219-> Hits: 0, Late: 1, Early: 0, Misses: 0
21a-> Hits: 8, Late: 1, Early: 0, Misses: 0
21d-> Hits: 2, Late: 0, Early: 0, Misses: 0
21e-> Hits: 0, Late: 984, Early: 0, Misses: 0
21f-> Hits: 15728, Late: 58, Early: 0, Misses: 31
220-> Hits: 5, Late: 4, Early: 0, Misses: 0
221-> Hits: 4, Late: 1, Early: 0, Misses: 0
224-> Hits: 1, Late: 2, Early: 0, Misses: 0
225-> Hits: 6, Late: 2, Early: 0, Misses: 0
226-> Hits: 1, Late: 0, Early: 0, Misses: 0
227-> Hits: 0, Late: 1, Early: 0, Misses: 0
228-> Hits: 1, Late: 0, Early: 0, Misses: 0
22a-> Hits: 4, Late: 0, Early: 0, Misses: 0
22b-> Hits: 9, Late: 983, Early: 0, Misses: 0
22c-> Hits: 5, Late: 0, Early: 0, Misses: 0
22d-> Hits: 3, Late: 0, Early: 0, Misses: 0
22e-> Hits: 1, Late: 0, Early: 0, Misses: 0
22f-> Hits: 3, Late: 0, Early: 0, Misses: 0
230-> Hits: 4, Late: 1, Early: 0, Misses: 0
231-> Hits: 7, Late: 0, Early: 0, Misses: 0
232-> Hits: 4, Late: 0, Early: 0, Misses: 0
233-> Hits: 4, Late: 0, Early: 0, Misses: 0
234-> Hits: 11560, Late: 85, Early: 0, Misses: 18
235-> Hits: 2, Late: 0, Early: 0, Misses: 0
236-> Hits: 1, Late: 0, Early: 0, Misses: 0
238-> Hits: 30, Late: 954, Early: 0, Misses: 0
23a-> Hits: 142634, Late: 309, Early: 0, Misses: 429
23b-> Hits: 4, Late: 0, Early: 0, Misses: 0
23c-> Hits: 4, Late: 1, Early: 0, Misses: 0
23d-> Hits: 109, Late: 0, Early: 0, Misses: 0
23e-> Hits: 6, Late: 0, Early: 0, Misses: 0
23f-> Hits: 7, Late: 0, Early: 0, Misses: 0
240-> Hits: 10, Late: 5, Early: 0, Misses: 0
241-> Hits: 2, Late: 0, Early: 0, Misses: 0
245-> Hits: 5, Late: 0, Early: 0, Misses: 1
246-> Hits: 29063, Late: 1, Early: 0, Misses: 1
247-> Hits: 1, Late: 0, Early: 0, Misses: 0
248-> Hits: 4, Late: 0, Early: 0, Misses: 0
249-> Hits: 2, Late: 0, Early: 0, Misses: 0
24a-> Hits: 1, Late: 1, Early: 0, Misses: 0
24b-> Hits: 0, Late: 0, Early: 0, Misses: 1
24d-> Hits: 2, Late: 0, Early: 0, Misses: 0
24e-> Hits: 1, Late: 0, Early: 0, Misses: 0
24f-> Hits: 4, Late: 0, Early: 0, Misses: 0
250-> Hits: 4, Late: 1, Early: 0, Misses: 0
251-> Hits: 4, Late: 0, Early: 0, Misses: 0
252-> Hits: 4, Late: 1, Early: 0, Misses: 0
253-> Hits: 140738, Late: 27, Early: 0, Misses: 16
254-> Hits: 4, Late: 0, Early: 0, Misses: 0
255-> Hits: 2, Late: 1, Early: 0, Misses: 0
256-> Hits: 3, Late: 0, Early: 0, Misses: 0
258-> Hits: 4, Late: 0, Early: 0, Misses: 0
25a-> Hits: 3, Late: 0, Early: 0, Misses: 0
25c-> Hits: 1, Late: 0, Early: 0, Misses: 0
25d-> Hits: 1, Late: 0, Early: 0, Misses: 0
25e-> Hits: 1, Late: 0, Early: 0, Misses: 0
25f-> Hits: 4, Late: 2, Early: 0, Misses: 0
260-> Hits: 9585, Late: 3, Early: 0, Misses: 0
261-> Hits: 1, Late: 0, Early: 0, Misses: 0
262-> Hits: 3, Late: 5, Early: 0, Misses: 0
263-> Hits: 10, Late: 0, Early: 0, Misses: 0
264-> Hits: 2, Late: 0, Early: 0, Misses: 0
265-> Hits: 3, Late: 0, Early: 0, Misses: 0
266-> Hits: 4, Late: 0, Early: 0, Misses: 0
267-> Hits: 6, Late: 0, Early: 0, Misses: 0
268-> Hits: 108522, Late: 84, Early: 0, Misses: 61
269-> Hits: 1, Late: 0, Early: 0, Misses: 0
26a-> Hits: 2, Late: 0, Early: 0, Misses: 0
26b-> Hits: 1, Late: 0, Early: 0, Misses: 0
26d-> Hits: 32, Late: 0, Early: 0, Misses: 0
26e-> Hits: 125, Late: 0, Early: 0, Misses: 0
270-> Hits: 16, Late: 1, Early: 0, Misses: 0
271-> Hits: 1, Late: 0, Early: 0, Misses: 0
274-> Hits: 1, Late: 0, Early: 0, Misses: 0
275-> Hits: 32, Late: 0, Early: 0, Misses: 0
276-> Hits: 3952, Late: 142, Early: 0, Misses: 3
277-> Hits: 1, Late: 0, Early: 0, Misses: 0
278-> Hits: 1, Late: 0, Early: 0, Misses: 0
27a-> Hits: 32, Late: 0, Early: 0, Misses: 0
27b-> Hits: 5, Late: 0, Early: 0, Misses: 0
27c-> Hits: 2, Late: 0, Early: 0, Misses: 0
27d-> Hits: 6941, Late: 3, Early: 0, Misses: 1
27e-> Hits: 6, Late: 0, Early: 0, Misses: 0
27f-> Hits: 32, Late: 0, Early: 0, Misses: 0
280-> Hits: 0, Late: 2, Early: 0, Misses: 0
281-> Hits: 1, Late: 0, Early: 0, Misses: 0
282-> Hits: 3892, Late: 206, Early: 0, Misses: 3
283-> Hits: 142632, Late: 311, Early: 0, Misses: 417
284-> Hits: 4, Late: 0, Early: 0, Misses: 0
285-> Hits: 7, Late: 1, Early: 0, Misses: 0
289-> Hits: 0, Late: 1, Early: 0, Misses: 0
28a-> Hits: 2, Late: 0, Early: 0, Misses: 0
28f-> Hits: 10, Late: 0, Early: 0, Misses: 0
290-> Hits: 1, Late: 0, Early: 0, Misses: 0
291-> Hits: 1, Late: 0, Early: 0, Misses: 0
293-> Hits: 1, Late: 0, Early: 0, Misses: 0
297-> Hits: 1, Late: 0, Early: 0, Misses: 0
298-> Hits: 1, Late: 0, Early: 0, Misses: 0
299-> Hits: 10432, Late: 3, Early: 0, Misses: 1
29a-> Hits: 1, Late: 0, Early: 0, Misses: 0
29d-> Hits: 11, Late: 2, Early: 0, Misses: 0
29e-> Hits: 2, Late: 0, Early: 0, Misses: 0
29f-> Hits: 7, Late: 0, Early: 0, Misses: 0
2a0-> Hits: 2, Late: 1, Early: 0, Misses: 0
2a1-> Hits: 2, Late: 0, Early: 0, Misses: 0
2a2-> Hits: 12, Late: 0, Early: 0, Misses: 0
2a4-> Hits: 4, Late: 0, Early: 0, Misses: 0
2a5-> Hits: 1, Late: 0, Early: 0, Misses: 0
2a6-> Hits: 5, Late: 0, Early: 0, Misses: 0
2a7-> Hits: 5, Late: 0, Early: 0, Misses: 0
2a8-> Hits: 1, Late: 0, Early: 0, Misses: 0
2a9-> Hits: 7, Late: 0, Early: 0, Misses: 0
2aa-> Hits: 5, Late: 0, Early: 0, Misses: 0
2ad-> Hits: 1, Late: 1, Early: 0, Misses: 0
2ae-> Hits: 16895, Late: 7, Early: 0, Misses: 1
2af-> Hits: 1, Late: 1, Early: 0, Misses: 0
2b1-> Hits: 1, Late: 1, Early: 0, Misses: 0
2b3-> Hits: 1, Late: 1, Early: 0, Misses: 0
2b6-> Hits: 1, Late: 1, Early: 0, Misses: 0
2b7-> Hits: 0, Late: 1, Early: 0, Misses: 0
2bd-> Hits: 143611, Late: 22, Early: 0, Misses: 16
2c0-> Hits: 238, Late: 211, Early: 0, Misses: 0
2c1-> Hits: 1, Late: 1, Early: 0, Misses: 0
2c3-> Hits: 1, Late: 0, Early: 0, Misses: 0
2c5-> Hits: 345, Late: 99, Early: 0, Misses: 0
2c6-> Hits: 3, Late: 0, Early: 0, Misses: 0
2c7-> Hits: 1, Late: 0, Early: 0, Misses: 0
2c8-> Hits: 2, Late: 0, Early: 0, Misses: 0
2c9-> Hits: 7, Late: 2, Early: 0, Misses: 0
2ca-> Hits: 2894, Late: 239, Early: 0, Misses: 0
2cc-> Hits: 2, Late: 1, Early: 0, Misses: 0
2cd-> Hits: 1, Late: 2, Early: 0, Misses: 0
2d0-> Hits: 311, Late: 120, Early: 0, Misses: 0
2d1-> Hits: 1, Late: 1, Early: 0, Misses: 0
2d3-> Hits: 0, Late: 1, Early: 0, Misses: 0
2d6-> Hits: 2, Late: 1, Early: 0, Misses: 0
2d7-> Hits: 143330, Late: 29, Early: 0, Misses: 1
2d8-> Hits: 1, Late: 0, Early: 0, Misses: 0
2da-> Hits: 2, Late: 0, Early: 0, Misses: 0
2db-> Hits: 3, Late: 0, Early: 0, Misses: 0
2dc-> Hits: 4, Late: 0, Early: 0, Misses: 0
2de-> Hits: 2, Late: 0, Early: 0, Misses: 0
2df-> Hits: 5, Late: 2, Early: 0, Misses: 0
2e0-> Hits: 234, Late: 248, Early: 0, Misses: 0
2e2-> Hits: 12, Late: 0, Early: 0, Misses: 0
2e4-> Hits: 2, Late: 0, Early: 0, Misses: 0
2e5-> Hits: 348, Late: 127, Early: 0, Misses: 0
2e6-> Hits: 5, Late: 1, Early: 0, Misses: 0
2e9-> Hits: 2, Late: 0, Early: 0, Misses: 0
2ea-> Hits: 143280, Late: 442, Early: 0, Misses: 113
2ed-> Hits: 1, Late: 0, Early: 0, Misses: 0
2ee-> Hits: 281, Late: 0, Early: 0, Misses: 0
2ef-> Hits: 1, Late: 0, Early: 0, Misses: 0
2f0-> Hits: 336, Late: 136, Early: 0, Misses: 0
2f1-> Hits: 2, Late: 0, Early: 0, Misses: 0
2f2-> Hits: 1, Late: 0, Early: 0, Misses: 0
2f3-> Hits: 49, Late: 4, Early: 0, Misses: 0
2f4-> Hits: 10, Late: 0, Early: 0, Misses: 0
2f5-> Hits: 13, Late: 0, Early: 0, Misses: 0
2f6-> Hits: 10, Late: 0, Early: 0, Misses: 0
2f7-> Hits: 45, Late: 0, Early: 0, Misses: 1
2f8-> Hits: 10, Late: 0, Early: 0, Misses: 0
2fa-> Hits: 10, Late: 0, Early: 0, Misses: 0
2fb-> Hits: 25, Late: 10, Early: 0, Misses: 0
2ff-> Hits: 220, Late: 249, Early: 0, Misses: 0
300-> Hits: 30780, Late: 2544, Early: 0, Misses: 265
301-> Hits: 2, Late: 0, Early: 0, Misses: 0
302-> Hits: 2, Late: 0, Early: 0, Misses: 0
304-> Hits: 12937, Late: 425, Early: 0, Misses: 0
305-> Hits: 10, Late: 0, Early: 0, Misses: 0
306-> Hits: 2, Late: 0, Early: 0, Misses: 0
308-> Hits: 1, Late: 1, Early: 0, Misses: 0
309-> Hits: 12159, Late: 3637, Early: 0, Misses: 0
30a-> Hits: 2, Late: 0, Early: 0, Misses: 0
30b-> Hits: 2, Late: 0, Early: 0, Misses: 0
30c-> Hits: 1, Late: 0, Early: 0, Misses: 0
30f-> Hits: 12955, Late: 1236, Early: 0, Misses: 0
310-> Hits: 1, Late: 1, Early: 0, Misses: 0
312-> Hits: 3, Late: 0, Early: 0, Misses: 0
313-> Hits: 1, Late: 0, Early: 0, Misses: 0
314-> Hits: 12461, Late: 3536, Early: 0, Misses: 0
315-> Hits: 1326, Late: 0, Early: 0, Misses: 0
316-> Hits: 3, Late: 0, Early: 0, Misses: 0
317-> Hits: 8, Late: 3, Early: 0, Misses: 0
318-> Hits: 13, Late: 1, Early: 0, Misses: 0
319-> Hits: 7, Late: 0, Early: 0, Misses: 0
31a-> Hits: 3742, Late: 50832, Early: 0, Misses: 0
31b-> Hits: 5, Late: 0, Early: 0, Misses: 0
31d-> Hits: 5, Late: 0, Early: 0, Misses: 0
31e-> Hits: 196, Late: 243, Early: 0, Misses: 0
31f-> Hits: 1193, Late: 52065, Early: 0, Misses: 0
320-> Hits: 1032, Late: 0, Early: 0, Misses: 0
323-> Hits: 302, Late: 123, Early: 0, Misses: 0
324-> Hits: 1, Late: 0, Early: 0, Misses: 0
325-> Hits: 551, Late: 52698, Early: 0, Misses: 0
326-> Hits: 2, Late: 0, Early: 0, Misses: 0
327-> Hits: 1, Late: 0, Early: 0, Misses: 0
328-> Hits: 108, Late: 318, Early: 0, Misses: 0
32a-> Hits: 3709, Late: 49540, Early: 0, Misses: 0
32c-> Hits: 1, Late: 0, Early: 0, Misses: 0
32e-> Hits: 253, Late: 176, Early: 0, Misses: 0
32f-> Hits: 1, Late: 0, Early: 0, Misses: 0
330-> Hits: 4, Late: 1, Early: 0, Misses: 0
332-> Hits: 5, Late: 0, Early: 0, Misses: 0
333-> Hits: 2, Late: 0, Early: 0, Misses: 0
334-> Hits: 37175, Late: 3633, Early: 0, Misses: 272
335-> Hits: 8, Late: 0, Early: 0, Misses: 0
336-> Hits: 212, Late: 3, Early: 0, Misses: 0
338-> Hits: 4, Late: 0, Early: 0, Misses: 0
339-> Hits: 1, Late: 0, Early: 0, Misses: 0
33a-> Hits: 7, Late: 0, Early: 0, Misses: 0
33c-> Hits: 1, Late: 0, Early: 0, Misses: 0
33d-> Hits: 215, Late: 0, Early: 0, Misses: 0
33f-> Hits: 1, Late: 0, Early: 0, Misses: 0
340-> Hits: 210, Late: 2, Early: 0, Misses: 0
341-> Hits: 3, Late: 0, Early: 0, Misses: 0
343-> Hits: 2, Late: 212, Early: 0, Misses: 0
344-> Hits: 3, Late: 2, Early: 0, Misses: 0
347-> Hits: 3, Late: 3, Early: 0, Misses: 0
34a-> Hits: 4, Late: 0, Early: 0, Misses: 0
34b-> Hits: 2, Late: 0, Early: 0, Misses: 0
34c-> Hits: 3, Late: 1, Early: 0, Misses: 0
34d-> Hits: 3, Late: 2, Early: 0, Misses: 0
34e-> Hits: 1, Late: 0, Early: 0, Misses: 0
34f-> Hits: 1706369, Late: 17964, Early: 0, Misses: 781
350-> Hits: 480, Late: 23, Early: 0, Misses: 0
351-> Hits: 1, Late: 0, Early: 0, Misses: 0
352-> Hits: 0, Late: 1, Early: 0, Misses: 0
353-> Hits: 3, Late: 0, Early: 0, Misses: 0
355-> Hits: 0, Late: 1, Early: 0, Misses: 0
356-> Hits: 92600, Late: 106, Early: 0, Misses: 1
357-> Hits: 454, Late: 0, Early: 0, Misses: 0
358-> Hits: 3, Late: 1, Early: 0, Misses: 0
359-> Hits: 5, Late: 1, Early: 0, Misses: 0
35a-> Hits: 448, Late: 0, Early: 0, Misses: 0
35c-> Hits: 1717939, Late: 5964, Early: 0, Misses: 518
35d-> Hits: 3, Late: 471, Early: 0, Misses: 6
360-> Hits: 15, Late: 0, Early: 0, Misses: 0
361-> Hits: 373, Late: 111, Early: 0, Misses: 32
362-> Hits: 4, Late: 0, Early: 0, Misses: 0
363-> Hits: 9, Late: 0, Early: 0, Misses: 0
364-> Hits: 4, Late: 0, Early: 0, Misses: 0
366-> Hits: 4, Late: 1, Early: 0, Misses: 0
367-> Hits: 1, Late: 0, Early: 0, Misses: 0
368-> Hits: 6, Late: 0, Early: 0, Misses: 0
36a-> Hits: 4, Late: 0, Early: 0, Misses: 0
36c-> Hits: 9, Late: 0, Early: 0, Misses: 0
36d-> Hits: 0, Late: 1, Early: 0, Misses: 0
36e-> Hits: 0, Late: 1, Early: 0, Misses: 0
36f-> Hits: 1, Late: 0, Early: 0, Misses: 0
370-> Hits: 3, Late: 0, Early: 0, Misses: 0
372-> Hits: 172224, Late: 29, Early: 0, Misses: 3
374-> Hits: 2, Late: 0, Early: 0, Misses: 0
375-> Hits: 368, Late: 115, Early: 0, Misses: 32
376-> Hits: 4, Late: 0, Early: 0, Misses: 0
377-> Hits: 2, Late: 0, Early: 0, Misses: 0
379-> Hits: 2, Late: 1, Early: 0, Misses: 0
37a-> Hits: 9, Late: 1, Early: 0, Misses: 0
37b-> Hits: 3, Late: 0, Early: 0, Misses: 0
37d-> Hits: 2, Late: 1, Early: 0, Misses: 0
37f-> Hits: 2, Late: 2, Early: 0, Misses: 0
380-> Hits: 2, Late: 0, Early: 0, Misses: 0
382-> Hits: 1, Late: 0, Early: 0, Misses: 0
383-> Hits: 0, Late: 2, Early: 0, Misses: 0
385-> Hits: 2, Late: 0, Early: 0, Misses: 0
387-> Hits: 66623, Late: 17, Early: 0, Misses: 0
388-> Hits: 1, Late: 0, Early: 0, Misses: 0
389-> Hits: 4, Late: 0, Early: 0, Misses: 0
38a-> Hits: 0, Late: 1, Early: 0, Misses: 0
38b-> Hits: 2, Late: 0, Early: 0, Misses: 0
38d-> Hits: 1717665, Late: 6141, Early: 0, Misses: 610
38e-> Hits: 1, Late: 0, Early: 0, Misses: 0
391-> Hits: 5, Late: 0, Early: 0, Misses: 0
392-> Hits: 1, Late: 0, Early: 0, Misses: 0
393-> Hits: 2, Late: 0, Early: 0, Misses: 0
394-> Hits: 4, Late: 0, Early: 0, Misses: 0
395-> Hits: 1, Late: 0, Early: 0, Misses: 0
396-> Hits: 2, Late: 1, Early: 0, Misses: 0
398-> Hits: 1, Late: 0, Early: 0, Misses: 0
399-> Hits: 529469, Late: 68, Early: 0, Misses: 0
39a-> Hits: 1, Late: 1, Early: 0, Misses: 0
39b-> Hits: 1, Late: 0, Early: 0, Misses: 0
39c-> Hits: 1, Late: 0, Early: 0, Misses: 0
39d-> Hits: 1, Late: 0, Early: 0, Misses: 0
3a0-> Hits: 1, Late: 2, Early: 0, Misses: 0
3a2-> Hits: 1, Late: 0, Early: 0, Misses: 0
3a3-> Hits: 1494314, Late: 926, Early: 0, Misses: 1
3a7-> Hits: 3, Late: 0, Early: 0, Misses: 0
3aa-> Hits: 3, Late: 0, Early: 0, Misses: 0
3ab-> Hits: 1, Late: 0, Early: 0, Misses: 0
3ac-> Hits: 260080, Late: 156, Early: 0, Misses: 0
3af-> Hits: 1, Late: 0, Early: 0, Misses: 0
3b0-> Hits: 3, Late: 0, Early: 0, Misses: 0
3b1-> Hits: 258838, Late: 42, Early: 0, Misses: 10
3b2-> Hits: 2, Late: 0, Early: 0, Misses: 0
3b3-> Hits: 1, Late: 0, Early: 0, Misses: 0
3b5-> Hits: 1, Late: 0, Early: 0, Misses: 0
3b7-> Hits: 1, Late: 0, Early: 0, Misses: 0
3b9-> Hits: 3, Late: 0, Early: 0, Misses: 0
3c0-> Hits: 11, Late: 0, Early: 0, Misses: 0
3c6-> Hits: 622557, Late: 88, Early: 0, Misses: 3
3c8-> Hits: 1, Late: 0, Early: 0, Misses: 0
3ca-> Hits: 5, Late: 0, Early: 0, Misses: 0
3cb-> Hits: 1, Late: 0, Early: 0, Misses: 0
3cd-> Hits: 6, Late: 0, Early: 0, Misses: 0
3ce-> Hits: 2, Late: 0, Early: 0, Misses: 0
3cf-> Hits: 1, Late: 1, Early: 0, Misses: 0
3d0-> Hits: 4, Late: 0, Early: 0, Misses: 0
3d5-> Hits: 1, Late: 0, Early: 0, Misses: 0
3d6-> Hits: 2, Late: 0, Early: 0, Misses: 0
3db-> Hits: 598609, Late: 114, Early: 0, Misses: 5
3dc-> Hits: 1, Late: 0, Early: 0, Misses: 0
3dd-> Hits: 3, Late: 0, Early: 0, Misses: 0
3e0-> Hits: 524296, Late: 1, Early: 0, Misses: 0
3e1-> Hits: 1717716, Late: 6213, Early: 0, Misses: 488
3e4-> Hits: 2, Late: 0, Early: 0, Misses: 0
3e5-> Hits: 2, Late: 0, Early: 0, Misses: 0
3e6-> Hits: 2, Late: 0, Early: 0, Misses: 0
3e8-> Hits: 3, Late: 0, Early: 0, Misses: 0
3ea-> Hits: 2, Late: 0, Early: 0, Misses: 0
3eb-> Hits: 1, Late: 0, Early: 0, Misses: 0
3ec-> Hits: 2, Late: 0, Early: 0, Misses: 0
3ed-> Hits: 1, Late: 0, Early: 0, Misses: 0
3ee-> Hits: 2, Late: 0, Early: 0, Misses: 0
3ef-> Hits: 8, Late: 0, Early: 0, Misses: 0
3f0-> Hits: 10, Late: 4, Early: 0, Misses: 0
3f5-> Hits: 1, Late: 0, Early: 0, Misses: 0
3f7-> Hits: 312059, Late: 79, Early: 0, Misses: 1
3fe-> Hits: 2, Late: 0, Early: 0, Misses: 0
400-> Hits: 5, Late: 0, Early: 0, Misses: 0
401-> Hits: 4, Late: 0, Early: 0, Misses: 0
402-> Hits: 1722200, Late: 1005, Early: 0, Misses: 0
403-> Hits: 1, Late: 0, Early: 0, Misses: 0
404-> Hits: 4, Late: 0, Early: 0, Misses: 0
405-> Hits: 1, Late: 1, Early: 0, Misses: 0
406-> Hits: 4, Late: 0, Early: 0, Misses: 0
408-> Hits: 5, Late: 0, Early: 0, Misses: 0
40a-> Hits: 4, Late: 0, Early: 0, Misses: 0
40b-> Hits: 3, Late: 1, Early: 0, Misses: 0
40c-> Hits: 119403, Late: 21, Early: 0, Misses: 0
40d-> Hits: 1, Late: 0, Early: 0, Misses: 0
40e-> Hits: 2, Late: 0, Early: 0, Misses: 0
410-> Hits: 6, Late: 0, Early: 0, Misses: 0
413-> Hits: 1, Late: 0, Early: 0, Misses: 0
416-> Hits: 1723262, Late: 1106, Early: 0, Misses: 0
419-> Hits: 3, Late: 0, Early: 0, Misses: 0
41c-> Hits: 3, Late: 0, Early: 0, Misses: 0
41e-> Hits: 246502, Late: 133, Early: 0, Misses: 5
420-> Hits: 8, Late: 0, Early: 0, Misses: 0
422-> Hits: 2, Late: 0, Early: 0, Misses: 0
424-> Hits: 9, Late: 0, Early: 0, Misses: 0
426-> Hits: 2, Late: 0, Early: 0, Misses: 0
427-> Hits: 2, Late: 0, Early: 0, Misses: 0
428-> Hits: 5, Late: 2, Early: 0, Misses: 0
42a-> Hits: 2, Late: 0, Early: 0, Misses: 0
42b-> Hits: 3, Late: 0, Early: 0, Misses: 0
42c-> Hits: 2, Late: 0, Early: 0, Misses: 0
42d-> Hits: 1, Late: 0, Early: 0, Misses: 0
42e-> Hits: 1717041, Late: 6691, Early: 0, Misses: 686
437-> Hits: 1, Late: 0, Early: 0, Misses: 0
438-> Hits: 3, Late: 0, Early: 0, Misses: 0
43a-> Hits: 88137, Late: 86, Early: 0, Misses: 1
43b-> Hits: 3, Late: 1, Early: 0, Misses: 0
43f-> Hits: 1, Late: 0, Early: 0, Misses: 0
440-> Hits: 9, Late: 4, Early: 0, Misses: 0
441-> Hits: 2, Late: 0, Early: 0, Misses: 0
443-> Hits: 7, Late: 1, Early: 0, Misses: 0
444-> Hits: 1, Late: 0, Early: 0, Misses: 0
447-> Hits: 4, Late: 0, Early: 0, Misses: 0
448-> Hits: 7, Late: 0, Early: 0, Misses: 0
44a-> Hits: 3, Late: 0, Early: 0, Misses: 0
44b-> Hits: 3, Late: 0, Early: 0, Misses: 0
44c-> Hits: 4, Late: 1, Early: 0, Misses: 0
44f-> Hits: 206095, Late: 500, Early: 0, Misses: 1
450-> Hits: 8, Late: 0, Early: 0, Misses: 0
451-> Hits: 2, Late: 0, Early: 0, Misses: 0
453-> Hits: 4, Late: 0, Early: 0, Misses: 0
454-> Hits: 33, Late: 31, Early: 0, Misses: 0
457-> Hits: 4, Late: 0, Early: 0, Misses: 0
458-> Hits: 2, Late: 0, Early: 0, Misses: 0
459-> Hits: 10, Late: 1, Early: 0, Misses: 0
45a-> Hits: 11, Late: 0, Early: 0, Misses: 0
45b-> Hits: 42, Late: 0, Early: 0, Misses: 0
45d-> Hits: 39, Late: 0, Early: 0, Misses: 0
45f-> Hits: 3, Late: 0, Early: 0, Misses: 0
460-> Hits: 2, Late: 0, Early: 0, Misses: 0
461-> Hits: 1, Late: 0, Early: 0, Misses: 0
463-> Hits: 3, Late: 0, Early: 0, Misses: 0
464-> Hits: 128550, Late: 297, Early: 0, Misses: 4
466-> Hits: 6, Late: 0, Early: 0, Misses: 0
468-> Hits: 7, Late: 0, Early: 0, Misses: 0
46a-> Hits: 1716931, Late: 6822, Early: 0, Misses: 669
46d-> Hits: 4, Late: 0, Early: 0, Misses: 0
470-> Hits: 525005, Late: 47, Early: 0, Misses: 0
471-> Hits: 42, Late: 0, Early: 0, Misses: 0
472-> Hits: 1, Late: 0, Early: 0, Misses: 0
473-> Hits: 3, Late: 0, Early: 0, Misses: 0
475-> Hits: 2, Late: 0, Early: 0, Misses: 0
476-> Hits: 303781, Late: 44, Early: 0, Misses: 0
477-> Hits: 3, Late: 0, Early: 0, Misses: 0
478-> Hits: 1103, Late: 0, Early: 0, Misses: 0
47b-> Hits: 1, Late: 0, Early: 0, Misses: 0
47c-> Hits: 3, Late: 0, Early: 0, Misses: 0
47d-> Hits: 1105, Late: 0, Early: 0, Misses: 0
47e-> Hits: 6, Late: 0, Early: 0, Misses: 0
47f-> Hits: 10, Late: 0, Early: 0, Misses: 0
480-> Hits: 6, Late: 3, Early: 0, Misses: 0
481-> Hits: 1, Late: 0, Early: 0, Misses: 0
482-> Hits: 5, Late: 0, Early: 0, Misses: 0
483-> Hits: 1675764, Late: 976, Early: 0, Misses: 0
484-> Hits: 2, Late: 0, Early: 0, Misses: 0
486-> Hits: 67, Late: 0, Early: 0, Misses: 0
487-> Hits: 6, Late: 0, Early: 0, Misses: 0
488-> Hits: 18, Late: 0, Early: 0, Misses: 0
489-> Hits: 9, Late: 0, Early: 0, Misses: 0
48a-> Hits: 1, Late: 0, Early: 0, Misses: 0
48b-> Hits: 5, Late: 0, Early: 0, Misses: 0
48d-> Hits: 9, Late: 2, Early: 0, Misses: 0
48e-> Hits: 4, Late: 0, Early: 0, Misses: 0
48f-> Hits: 5, Late: 0, Early: 0, Misses: 0
490-> Hits: 100560, Late: 54, Early: 0, Misses: 0
491-> Hits: 5, Late: 0, Early: 0, Misses: 0
493-> Hits: 34, Late: 2, Early: 0, Misses: 0
494-> Hits: 38, Late: 0, Early: 0, Misses: 0
495-> Hits: 37, Late: 0, Early: 0, Misses: 0
496-> Hits: 4, Late: 0, Early: 0, Misses: 0
497-> Hits: 40, Late: 0, Early: 0, Misses: 0
498-> Hits: 1212208, Late: 79, Early: 0, Misses: 5
499-> Hits: 37, Late: 0, Early: 0, Misses: 0
49b-> Hits: 40, Late: 0, Early: 0, Misses: 0
49d-> Hits: 416, Late: 0, Early: 0, Misses: 0
4a0-> Hits: 2, Late: 1, Early: 0, Misses: 0
4a2-> Hits: 3, Late: 0, Early: 0, Misses: 0
4a3-> Hits: 328, Late: 0, Early: 0, Misses: 0
4a5-> Hits: 32, Late: 0, Early: 0, Misses: 0
4a6-> Hits: 2, Late: 0, Early: 0, Misses: 0
4ab-> Hits: 4, Late: 0, Early: 0, Misses: 0
4ac-> Hits: 3, Late: 1, Early: 0, Misses: 0
4ad-> Hits: 88061, Late: 6, Early: 0, Misses: 1
4ae-> Hits: 5, Late: 0, Early: 0, Misses: 0
4b0-> Hits: 42, Late: 0, Early: 0, Misses: 0
4b1-> Hits: 3, Late: 0, Early: 0, Misses: 0
4b2-> Hits: 11, Late: 0, Early: 0, Misses: 0
4b3-> Hits: 1716953, Late: 6889, Early: 0, Misses: 577
4b4-> Hits: 4, Late: 1, Early: 0, Misses: 0
4b7-> Hits: 16, Late: 0, Early: 0, Misses: 0
4b8-> Hits: 32, Late: 0, Early: 0, Misses: 0
4b9-> Hits: 4, Late: 0, Early: 0, Misses: 0
4bb-> Hits: 21, Late: 0, Early: 0, Misses: 0
4be-> Hits: 1, Late: 1, Early: 0, Misses: 0
4c0-> Hits: 2, Late: 1, Early: 0, Misses: 0
4c1-> Hits: 1, Late: 0, Early: 0, Misses: 0
4c2-> Hits: 2, Late: 0, Early: 0, Misses: 0
4c4-> Hits: 2, Late: 0, Early: 0, Misses: 0
4c5-> Hits: 18, Late: 0, Early: 0, Misses: 0
4c6-> Hits: 8, Late: 0, Early: 0, Misses: 0
4c7-> Hits: 0, Late: 1, Early: 0, Misses: 0
[...]
d96-> Hits: 1, Late: 0, Early: 0, Misses: 0
d97-> Hits: 3, Late: 3, Early: 0, Misses: 0
d98-> Hits: 4, Late: 0, Early: 0, Misses: 0
d99-> Hits: 5, Late: 0, Early: 0, Misses: 0
d9f-> Hits: 1, Late: 0, Early: 0, Misses: 0
da0-> Hits: 7, Late: 1, Early: 0, Misses: 0
da1-> Hits: 21, Late: 2998, Early: 0, Misses: 0
da2-> Hits: 6, Late: 0, Early: 0, Misses: 0
da3-> Hits: 1, Late: 0, Early: 0, Misses: 0
da5-> Hits: 5, Late: 0, Early: 0, Misses: 0
da6-> Hits: 7, Late: 34, Early: 0, Misses: 0
da7-> Hits: 3, Late: 0, Early: 0, Misses: 0
da8-> Hits: 2, Late: 0, Early: 0, Misses: 0
da9-> Hits: 1, Late: 0, Early: 0, Misses: 0
daa-> Hits: 1, Late: 0, Early: 0, Misses: 0
dab-> Hits: 3, Late: 0, Early: 0, Misses: 0
dac-> Hits: 10, Late: 0, Early: 0, Misses: 0
dad-> Hits: 13, Late: 0, Early: 0, Misses: 0
dae-> Hits: 1, Late: 0, Early: 0, Misses: 0
daf-> Hits: 3, Late: 0, Early: 0, Misses: 0
db0-> Hits: 7, Late: 4, Early: 0, Misses: 0
db1-> Hits: 28, Late: 4994, Early: 0, Misses: 0
db3-> Hits: 2, Late: 0, Early: 0, Misses: 0
db5-> Hits: 3, Late: 0, Early: 0, Misses: 0
db7-> Hits: 2, Late: 0, Early: 0, Misses: 1
db8-> Hits: 3, Late: 0, Early: 0, Misses: 0
db9-> Hits: 2, Late: 0, Early: 0, Misses: 0
dba-> Hits: 4, Late: 1, Early: 0, Misses: 0
dbb-> Hits: 2, Late: 0, Early: 0, Misses: 0
dbc-> Hits: 1, Late: 0, Early: 0, Misses: 0
dbd-> Hits: 1, Late: 0, Early: 0, Misses: 0
dbe-> Hits: 5, Late: 0, Early: 0, Misses: 0
dbf-> Hits: 7, Late: 1, Early: 0, Misses: 0
dc0-> Hits: 15, Late: 7, Early: 0, Misses: 0
dc1-> Hits: 21, Late: 2015, Early: 0, Misses: 0
dc2-> Hits: 3, Late: 2, Early: 0, Misses: 0
dc3-> Hits: 3, Late: 0, Early: 0, Misses: 0
dc7-> Hits: 11, Late: 1, Early: 0, Misses: 0
dc8-> Hits: 3, Late: 1, Early: 0, Misses: 0
dca-> Hits: 3, Late: 0, Early: 0, Misses: 0
dcb-> Hits: 6, Late: 0, Early: 0, Misses: 0
dcc-> Hits: 37, Late: 2, Early: 0, Misses: 0
dcd-> Hits: 39, Late: 0, Early: 0, Misses: 0
dcf-> Hits: 31, Late: 0, Early: 0, Misses: 0
dd1-> Hits: 64, Late: 2981, Early: 0, Misses: 0
dd2-> Hits: 1, Late: 26, Early: 0, Misses: 0
dd3-> Hits: 35, Late: 0, Early: 0, Misses: 0
dd5-> Hits: 2, Late: 0, Early: 0, Misses: 0
dd6-> Hits: 4, Late: 0, Early: 0, Misses: 0
dd8-> Hits: 38, Late: 0, Early: 0, Misses: 0
dd9-> Hits: 31, Late: 0, Early: 0, Misses: 0
dda-> Hits: 35, Late: 0, Early: 0, Misses: 0
ddc-> Hits: 5, Late: 0, Early: 0, Misses: 0
dde-> Hits: 4, Late: 0, Early: 0, Misses: 0
ddf-> Hits: 4, Late: 0, Early: 0, Misses: 0
de0-> Hits: 3, Late: 0, Early: 0, Misses: 0
de2-> Hits: 2, Late: 0, Early: 0, Misses: 0
de3-> Hits: 4, Late: 2, Early: 0, Misses: 0
de4-> Hits: 2, Late: 0, Early: 0, Misses: 0
de7-> Hits: 1, Late: 0, Early: 0, Misses: 0
de8-> Hits: 2, Late: 0, Early: 0, Misses: 0
de9-> Hits: 1, Late: 0, Early: 0, Misses: 0
deb-> Hits: 1, Late: 0, Early: 0, Misses: 0
dec-> Hits: 1, Late: 0, Early: 0, Misses: 0
ded-> Hits: 5, Late: 0, Early: 0, Misses: 0
dee-> Hits: 5, Late: 0, Early: 0, Misses: 0
def-> Hits: 5, Late: 0, Early: 0, Misses: 0
df0-> Hits: 1, Late: 0, Early: 0, Misses: 0
df1-> Hits: 18, Late: 0, Early: 0, Misses: 0
df2-> Hits: 3, Late: 0, Early: 0, Misses: 0
df3-> Hits: 6, Late: 0, Early: 0, Misses: 0
df4-> Hits: 1, Late: 0, Early: 0, Misses: 0
df5-> Hits: 6, Late: 0, Early: 0, Misses: 0
df7-> Hits: 7, Late: 0, Early: 0, Misses: 0
df8-> Hits: 1, Late: 0, Early: 0, Misses: 0
df9-> Hits: 2, Late: 0, Early: 0, Misses: 0
dfb-> Hits: 1, Late: 0, Early: 0, Misses: 0
dfd-> Hits: 3, Late: 0, Early: 0, Misses: 0
e00-> Hits: 17, Late: 0, Early: 0, Misses: 0
e01-> Hits: 2, Late: 0, Early: 0, Misses: 0
e02-> Hits: 5, Late: 0, Early: 0, Misses: 0
e03-> Hits: 1, Late: 0, Early: 0, Misses: 0
e05-> Hits: 4, Late: 1, Early: 0, Misses: 0
e06-> Hits: 35, Late: 0, Early: 0, Misses: 0
e07-> Hits: 0, Late: 31, Early: 0, Misses: 0
e0f-> Hits: 11, Late: 22, Early: 0, Misses: 0
e10-> Hits: 3, Late: 0, Early: 0, Misses: 0
e12-> Hits: 6, Late: 0, Early: 0, Misses: 0
e13-> Hits: 7, Late: 0, Early: 0, Misses: 0
e14-> Hits: 4, Late: 0, Early: 0, Misses: 0
e15-> Hits: 2, Late: 0, Early: 0, Misses: 0
e16-> Hits: 2, Late: 0, Early: 0, Misses: 0
e17-> Hits: 1, Late: 0, Early: 0, Misses: 0
e18-> Hits: 4, Late: 0, Early: 0, Misses: 0
e19-> Hits: 127, Late: 0, Early: 0, Misses: 0
e1a-> Hits: 2, Late: 0, Early: 0, Misses: 0
e1b-> Hits: 32, Late: 93, Early: 0, Misses: 0
e1c-> Hits: 5, Late: 0, Early: 0, Misses: 0
e1d-> Hits: 0, Late: 3, Early: 0, Misses: 0
e1e-> Hits: 6, Late: 88, Early: 0, Misses: 31
e20-> Hits: 14, Late: 2, Early: 0, Misses: 0
e22-> Hits: 3, Late: 0, Early: 0, Misses: 0
e23-> Hits: 12, Late: 92, Early: 0, Misses: 27
e25-> Hits: 1, Late: 0, Early: 0, Misses: 0
e26-> Hits: 2, Late: 0, Early: 0, Misses: 0
e27-> Hits: 1, Late: 0, Early: 0, Misses: 0
e28-> Hits: 10, Late: 102, Early: 0, Misses: 21
e29-> Hits: 65, Late: 60, Early: 0, Misses: 0
e2a-> Hits: 3, Late: 0, Early: 0, Misses: 0
e2c-> Hits: 1, Late: 123, Early: 0, Misses: 2
e2d-> Hits: 2, Late: 0, Early: 0, Misses: 0
e30-> Hits: 18, Late: 0, Early: 0, Misses: 0
e31-> Hits: 0, Late: 124, Early: 0, Misses: 1
e33-> Hits: 2, Late: 1, Early: 0, Misses: 0
e34-> Hits: 1, Late: 0, Early: 0, Misses: 0
e35-> Hits: 15, Late: 0, Early: 0, Misses: 0
e36-> Hits: 2, Late: 0, Early: 0, Misses: 0
e38-> Hits: 1, Late: 0, Early: 0, Misses: 0
e39-> Hits: 7, Late: 124, Early: 0, Misses: 1
e3a-> Hits: 1, Late: 0, Early: 0, Misses: 0
e3b-> Hits: 0, Late: 1, Early: 0, Misses: 0
e3c-> Hits: 4, Late: 1, Early: 0, Misses: 0
e3d-> Hits: 12, Late: 6, Early: 0, Misses: 1
e3e-> Hits: 2, Late: 0, Early: 0, Misses: 0
e3f-> Hits: 1, Late: 0, Early: 0, Misses: 0
e40-> Hits: 6, Late: 1, Early: 0, Misses: 0
e41-> Hits: 6, Late: 185, Early: 0, Misses: 2
e42-> Hits: 2, Late: 0, Early: 0, Misses: 0
e44-> Hits: 3, Late: 0, Early: 0, Misses: 0
e45-> Hits: 1, Late: 1, Early: 0, Misses: 0
e47-> Hits: 2, Late: 0, Early: 0, Misses: 0
e48-> Hits: 3, Late: 0, Early: 0, Misses: 0
e49-> Hits: 1, Late: 122, Early: 0, Misses: 2
e4a-> Hits: 1, Late: 0, Early: 0, Misses: 0
e4c-> Hits: 0, Late: 1, Early: 0, Misses: 0
e4d-> Hits: 3, Late: 0, Early: 0, Misses: 0
e4f-> Hits: 2, Late: 0, Early: 0, Misses: 0
e50-> Hits: 0, Late: 3, Early: 0, Misses: 0
e51-> Hits: 2, Late: 0, Early: 0, Misses: 0
e54-> Hits: 1, Late: 0, Early: 0, Misses: 0
e55-> Hits: 2, Late: 0, Early: 0, Misses: 0
e57-> Hits: 8, Late: 0, Early: 0, Misses: 0
e58-> Hits: 2, Late: 0, Early: 0, Misses: 0
e59-> Hits: 20, Late: 0, Early: 0, Misses: 0
e5a-> Hits: 22, Late: 0, Early: 0, Misses: 0
e5b-> Hits: 22, Late: 0, Early: 0, Misses: 0
e5c-> Hits: 2, Late: 0, Early: 0, Misses: 0
e5d-> Hits: 20, Late: 0, Early: 0, Misses: 0
e5e-> Hits: 7, Late: 0, Early: 0, Misses: 0
e5f-> Hits: 21, Late: 0, Early: 0, Misses: 0
e60-> Hits: 6, Late: 2, Early: 0, Misses: 0
e61-> Hits: 22, Late: 0, Early: 0, Misses: 0
e62-> Hits: 2, Late: 0, Early: 0, Misses: 0
e63-> Hits: 26, Late: 0, Early: 0, Misses: 0
e64-> Hits: 0, Late: 1, Early: 0, Misses: 0
e65-> Hits: 6, Late: 0, Early: 0, Misses: 0
e68-> Hits: 2, Late: 0, Early: 0, Misses: 0
e6b-> Hits: 1, Late: 0, Early: 0, Misses: 0
e6c-> Hits: 1, Late: 0, Early: 0, Misses: 0
e6f-> Hits: 2, Late: 0, Early: 0, Misses: 0
e70-> Hits: 5, Late: 1, Early: 0, Misses: 0
e71-> Hits: 6, Late: 0, Early: 0, Misses: 0
e72-> Hits: 28, Late: 0, Early: 0, Misses: 0
e73-> Hits: 2, Late: 0, Early: 0, Misses: 0
e74-> Hits: 5, Late: 0, Early: 0, Misses: 0
e75-> Hits: 6, Late: 0, Early: 0, Misses: 0
e76-> Hits: 5, Late: 0, Early: 0, Misses: 0
e77-> Hits: 1, Late: 0, Early: 0, Misses: 0
e79-> Hits: 1, Late: 0, Early: 0, Misses: 1
e7a-> Hits: 1, Late: 0, Early: 0, Misses: 0
e7b-> Hits: 1, Late: 0, Early: 0, Misses: 0
e7d-> Hits: 0, Late: 31, Early: 0, Misses: 0
e7e-> Hits: 31, Late: 0, Early: 0, Misses: 0
e7f-> Hits: 34, Late: 0, Early: 0, Misses: 0
e80-> Hits: 1, Late: 0, Early: 0, Misses: 0
e81-> Hits: 37, Late: 0, Early: 0, Misses: 0
e82-> Hits: 4, Late: 0, Early: 0, Misses: 0
e83-> Hits: 34, Late: 0, Early: 0, Misses: 0
e84-> Hits: 57, Late: 57, Early: 0, Misses: 0
e85-> Hits: 31, Late: 0, Early: 0, Misses: 0
e86-> Hits: 3, Late: 0, Early: 0, Misses: 0
e87-> Hits: 31, Late: 0, Early: 0, Misses: 0
e88-> Hits: 124, Late: 3, Early: 0, Misses: 0
e8a-> Hits: 3, Late: 0, Early: 0, Misses: 0
e8b-> Hits: 2, Late: 0, Early: 0, Misses: 0
e8d-> Hits: 1, Late: 0, Early: 0, Misses: 0
e90-> Hits: 2, Late: 0, Early: 0, Misses: 0
e91-> Hits: 2, Late: 0, Early: 0, Misses: 0
e92-> Hits: 4, Late: 0, Early: 0, Misses: 0
e94-> Hits: 4, Late: 0, Early: 0, Misses: 0
e95-> Hits: 2, Late: 0, Early: 0, Misses: 0
e96-> Hits: 1, Late: 0, Early: 0, Misses: 0
e97-> Hits: 2, Late: 0, Early: 0, Misses: 0
e98-> Hits: 2, Late: 0, Early: 0, Misses: 0
e99-> Hits: 2, Late: 0, Early: 0, Misses: 0
e9a-> Hits: 2, Late: 0, Early: 0, Misses: 0
e9b-> Hits: 1, Late: 0, Early: 0, Misses: 0
e9d-> Hits: 1, Late: 0, Early: 0, Misses: 0
e9f-> Hits: 1, Late: 0, Early: 0, Misses: 0
ea0-> Hits: 2, Late: 1, Early: 0, Misses: 0
ea1-> Hits: 129, Late: 0, Early: 0, Misses: 0
ea2-> Hits: 2, Late: 0, Early: 0, Misses: 0
ea5-> Hits: 1, Late: 0, Early: 0, Misses: 0
ea6-> Hits: 0, Late: 1, Early: 0, Misses: 0
ea7-> Hits: 1, Late: 0, Early: 0, Misses: 0
ea8-> Hits: 1, Late: 0, Early: 0, Misses: 0
ea9-> Hits: 3, Late: 0, Early: 0, Misses: 0
eaa-> Hits: 1, Late: 0, Early: 0, Misses: 0
eab-> Hits: 4, Late: 0, Early: 0, Misses: 0
eac-> Hits: 1, Late: 0, Early: 0, Misses: 0
eaf-> Hits: 0, Late: 1, Early: 0, Misses: 0
eb0-> Hits: 135770, Late: 71268, Early: 0, Misses: 0
eb3-> Hits: 1, Late: 0, Early: 0, Misses: 0
eb4-> Hits: 1, Late: 0, Early: 0, Misses: 0
eb5-> Hits: 153481, Late: 41623, Early: 0, Misses: 0
eb6-> Hits: 9, Late: 1, Early: 0, Misses: 0
eb8-> Hits: 1, Late: 0, Early: 0, Misses: 0
eba-> Hits: 100886, Late: 102086, Early: 0, Misses: 0
ebc-> Hits: 4, Late: 0, Early: 0, Misses: 0
ebd-> Hits: 1, Late: 0, Early: 0, Misses: 0
ebe-> Hits: 2, Late: 0, Early: 0, Misses: 0
ebf-> Hits: 2, Late: 1, Early: 0, Misses: 0
ec0-> Hits: 136491, Late: 54139, Early: 0, Misses: 0
ec1-> Hits: 13, Late: 0, Early: 0, Misses: 0
ec2-> Hits: 2, Late: 0, Early: 0, Misses: 0
ec3-> Hits: 2, Late: 0, Early: 0, Misses: 0
ec4-> Hits: 1, Late: 1, Early: 0, Misses: 0
ec5-> Hits: 7, Late: 0, Early: 0, Misses: 0
ec6-> Hits: 96414, Late: 99714, Early: 0, Misses: 0
ec7-> Hits: 1, Late: 1, Early: 0, Misses: 0
ec8-> Hits: 1, Late: 0, Early: 0, Misses: 0
eca-> Hits: 1, Late: 0, Early: 0, Misses: 0
ecb-> Hits: 0, Late: 1, Early: 0, Misses: 0
ecc-> Hits: 131457, Late: 55718, Early: 0, Misses: 0
ecd-> Hits: 1, Late: 0, Early: 0, Misses: 0
ece-> Hits: 0, Late: 1, Early: 0, Misses: 0
ecf-> Hits: 3, Late: 0, Early: 0, Misses: 0
ed0-> Hits: 3, Late: 0, Early: 0, Misses: 0
ed1-> Hits: 126, Late: 2, Early: 0, Misses: 0
ed2-> Hits: 95834, Late: 98876, Early: 0, Misses: 0
ed3-> Hits: 2, Late: 0, Early: 0, Misses: 0
ed5-> Hits: 7, Late: 1, Early: 0, Misses: 0
ed6-> Hits: 2, Late: 0, Early: 0, Misses: 0
ed7-> Hits: 3, Late: 0, Early: 0, Misses: 0
ed8-> Hits: 127732, Late: 58559, Early: 0, Misses: 16
ed9-> Hits: 5, Late: 0, Early: 0, Misses: 0
edb-> Hits: 2, Late: 0, Early: 0, Misses: 0
edc-> Hits: 3, Late: 0, Early: 0, Misses: 0
edf-> Hits: 0, Late: 1, Early: 0, Misses: 0
ee0-> Hits: 8, Late: 126, Early: 0, Misses: 0
ee1-> Hits: 6, Late: 32, Early: 0, Misses: 0
ee2-> Hits: 4, Late: 0, Early: 0, Misses: 0
ee3-> Hits: 5, Late: 0, Early: 0, Misses: 0
ee4-> Hits: 8, Late: 0, Early: 0, Misses: 0
ee5-> Hits: 5, Late: 0, Early: 0, Misses: 0
ee7-> Hits: 5, Late: 0, Early: 0, Misses: 0
ee8-> Hits: 2, Late: 0, Early: 0, Misses: 0
ee9-> Hits: 6, Late: 0, Early: 0, Misses: 0
eea-> Hits: 5, Late: 0, Early: 0, Misses: 0
eeb-> Hits: 2, Late: 0, Early: 0, Misses: 0
eec-> Hits: 2, Late: 0, Early: 0, Misses: 0
eed-> Hits: 2, Late: 0, Early: 0, Misses: 0
eee-> Hits: 2, Late: 0, Early: 0, Misses: 0
eef-> Hits: 16, Late: 0, Early: 0, Misses: 0
ef0-> Hits: 5, Late: 0, Early: 0, Misses: 0
ef1-> Hits: 2, Late: 0, Early: 0, Misses: 0
ef2-> Hits: 3, Late: 0, Early: 0, Misses: 0
ef3-> Hits: 1, Late: 0, Early: 0, Misses: 0
ef4-> Hits: 34, Late: 0, Early: 0, Misses: 0
ef5-> Hits: 1, Late: 0, Early: 0, Misses: 0
ef6-> Hits: 2, Late: 0, Early: 0, Misses: 0
ef7-> Hits: 2, Late: 0, Early: 0, Misses: 0
ef8-> Hits: 3, Late: 2, Early: 0, Misses: 0
ef9-> Hits: 1, Late: 0, Early: 0, Misses: 0
efa-> Hits: 5, Late: 0, Early: 0, Misses: 0
efb-> Hits: 5, Late: 0, Early: 0, Misses: 0
efc-> Hits: 4, Late: 0, Early: 0, Misses: 0
efd-> Hits: 2, Late: 0, Early: 0, Misses: 0
efe-> Hits: 196951, Late: 124004, Early: 0, Misses: 725
eff-> Hits: 6, Late: 0, Early: 0, Misses: 0
f00-> Hits: 4, Late: 0, Early: 0, Misses: 0
f01-> Hits: 4, Late: 0, Early: 0, Misses: 0
f02-> Hits: 4, Late: 0, Early: 0, Misses: 0
f03-> Hits: 2, Late: 0, Early: 0, Misses: 0
f04-> Hits: 6, Late: 0, Early: 0, Misses: 0
f05-> Hits: 4, Late: 0, Early: 0, Misses: 0
f06-> Hits: 8, Late: 0, Early: 0, Misses: 0
f07-> Hits: 2, Late: 0, Early: 0, Misses: 0
f08-> Hits: 4, Late: 0, Early: 0, Misses: 0
f09-> Hits: 10, Late: 0, Early: 0, Misses: 0
f0b-> Hits: 2, Late: 0, Early: 0, Misses: 0
f0c-> Hits: 4, Late: 4, Early: 0, Misses: 0
f0d-> Hits: 2, Late: 0, Early: 0, Misses: 0
f0e-> Hits: 1, Late: 0, Early: 0, Misses: 0
f10-> Hits: 40, Late: 3, Early: 0, Misses: 0
f13-> Hits: 34, Late: 0, Early: 0, Misses: 0
f15-> Hits: 1, Late: 0, Early: 0, Misses: 0
f16-> Hits: 1, Late: 0, Early: 0, Misses: 0
f17-> Hits: 7, Late: 109, Early: 0, Misses: 16
f18-> Hits: 1, Late: 0, Early: 0, Misses: 0
f19-> Hits: 3, Late: 3, Early: 0, Misses: 0
f1c-> Hits: 1, Late: 0, Early: 0, Misses: 0
f1e-> Hits: 2, Late: 0, Early: 0, Misses: 0
f20-> Hits: 1, Late: 0, Early: 0, Misses: 0
f21-> Hits: 15, Late: 1, Early: 0, Misses: 0
f22-> Hits: 8, Late: 0, Early: 0, Misses: 0
f23-> Hits: 32, Late: 0, Early: 0, Misses: 0
f24-> Hits: 38, Late: 0, Early: 0, Misses: 0
f25-> Hits: 1, Late: 0, Early: 0, Misses: 0
f26-> Hits: 1, Late: 0, Early: 0, Misses: 0
f27-> Hits: 10, Late: 0, Early: 0, Misses: 0
f28-> Hits: 2, Late: 0, Early: 0, Misses: 0
f29-> Hits: 151, Late: 543, Early: 0, Misses: 0
f2a-> Hits: 6, Late: 0, Early: 0, Misses: 0
f2b-> Hits: 32, Late: 1, Early: 0, Misses: 0
f2f-> Hits: 5, Late: 0, Early: 0, Misses: 0
f30-> Hits: 11, Late: 2, Early: 0, Misses: 0
f31-> Hits: 446, Late: 124, Early: 0, Misses: 0
f32-> Hits: 35, Late: 0, Early: 0, Misses: 0
f33-> Hits: 9, Late: 0, Early: 0, Misses: 0
f34-> Hits: 1, Late: 2, Early: 0, Misses: 0
f37-> Hits: 4, Late: 0, Early: 0, Misses: 0
f39-> Hits: 3, Late: 0, Early: 0, Misses: 0
f3b-> Hits: 8, Late: 0, Early: 0, Misses: 0
f3c-> Hits: 8, Late: 0, Early: 0, Misses: 0
f3d-> Hits: 75, Late: 49, Early: 0, Misses: 16
f3e-> Hits: 1, Late: 0, Early: 0, Misses: 0
f3f-> Hits: 15, Late: 0, Early: 0, Misses: 0
f41-> Hits: 8, Late: 0, Early: 0, Misses: 0
f43-> Hits: 10, Late: 0, Early: 0, Misses: 0
f44-> Hits: 4, Late: 0, Early: 0, Misses: 0
f45-> Hits: 8, Late: 0, Early: 0, Misses: 0
f47-> Hits: 62, Late: 0, Early: 0, Misses: 0
f49-> Hits: 2, Late: 0, Early: 0, Misses: 0
f4c-> Hits: 0, Late: 1, Early: 0, Misses: 0
f50-> Hits: 0, Late: 1, Early: 0, Misses: 0
f53-> Hits: 7, Late: 0, Early: 0, Misses: 0
f54-> Hits: 2, Late: 0, Early: 0, Misses: 0
f59-> Hits: 1, Late: 632, Early: 0, Misses: 0
f5a-> Hits: 35, Late: 0, Early: 0, Misses: 1
f5b-> Hits: 1, Late: 0, Early: 0, Misses: 0
f5d-> Hits: 1, Late: 0, Early: 0, Misses: 0
f5e-> Hits: 1, Late: 0, Early: 0, Misses: 0
f5f-> Hits: 3, Late: 0, Early: 0, Misses: 0
f60-> Hits: 13, Late: 2, Early: 0, Misses: 0
f61-> Hits: 1, Late: 0, Early: 0, Misses: 0
f63-> Hits: 2, Late: 0, Early: 0, Misses: 0
f64-> Hits: 0, Late: 632, Early: 0, Misses: 0
f65-> Hits: 4, Late: 1, Early: 0, Misses: 0
f66-> Hits: 2, Late: 0, Early: 0, Misses: 0
f68-> Hits: 2, Late: 0, Early: 0, Misses: 0
f6c-> Hits: 22, Late: 1, Early: 0, Misses: 0
f6d-> Hits: 8, Late: 0, Early: 0, Misses: 0
f6f-> Hits: 11, Late: 2, Early: 0, Misses: 0
f70-> Hits: 0, Late: 34, Early: 0, Misses: 0
f73-> Hits: 1, Late: 1, Early: 0, Misses: 0
f74-> Hits: 210, Late: 423, Early: 0, Misses: 0
f78-> Hits: 2, Late: 0, Early: 0, Misses: 0
f7a-> Hits: 4, Late: 0, Early: 0, Misses: 0
f7d-> Hits: 3, Late: 629, Early: 0, Misses: 0
f7f-> Hits: 3, Late: 1, Early: 0, Misses: 0
f80-> Hits: 4, Late: 1, Early: 0, Misses: 0
f85-> Hits: 3, Late: 0, Early: 0, Misses: 0
f86-> Hits: 3, Late: 1, Early: 0, Misses: 0
f87-> Hits: 14, Late: 0, Early: 0, Misses: 0
f89-> Hits: 1, Late: 0, Early: 0, Misses: 0
f8b-> Hits: 16, Late: 51, Early: 0, Misses: 0
f8c-> Hits: 6, Late: 0, Early: 0, Misses: 0
f8d-> Hits: 4, Late: 0, Early: 0, Misses: 0
f8f-> Hits: 1, Late: 0, Early: 0, Misses: 0
f90-> Hits: 6, Late: 0, Early: 0, Misses: 0
f91-> Hits: 1, Late: 0, Early: 0, Misses: 0
f92-> Hits: 2, Late: 0, Early: 0, Misses: 0
f93-> Hits: 6, Late: 0, Early: 0, Misses: 0
f94-> Hits: 1, Late: 0, Early: 0, Misses: 0
f95-> Hits: 0, Late: 2, Early: 0, Misses: 0
f96-> Hits: 1, Late: 0, Early: 0, Misses: 0
f98-> Hits: 1, Late: 0, Early: 0, Misses: 0
f9a-> Hits: 17, Late: 0, Early: 0, Misses: 0
f9c-> Hits: 3, Late: 0, Early: 0, Misses: 0
f9d-> Hits: 16, Late: 3, Early: 0, Misses: 0
f9e-> Hits: 1, Late: 0, Early: 0, Misses: 0
f9f-> Hits: 5, Late: 0, Early: 0, Misses: 0
fa0-> Hits: 6, Late: 1, Early: 0, Misses: 0
fa1-> Hits: 1, Late: 0, Early: 0, Misses: 0
fa4-> Hits: 2, Late: 0, Early: 0, Misses: 0
faa-> Hits: 3, Late: 0, Early: 0, Misses: 0
fb0-> Hits: 79, Late: 576, Early: 0, Misses: 0
fb1-> Hits: 3, Late: 3, Early: 0, Misses: 0
fb3-> Hits: 10, Late: 0, Early: 0, Misses: 0
fb6-> Hits: 1, Late: 0, Early: 0, Misses: 0
fb8-> Hits: 4, Late: 0, Early: 0, Misses: 0
fba-> Hits: 23, Late: 2, Early: 0, Misses: 0
fbb-> Hits: 30, Late: 2, Early: 0, Misses: 0
fbd-> Hits: 1, Late: 0, Early: 0, Misses: 0
fbe-> Hits: 1, Late: 0, Early: 0, Misses: 0
fbf-> Hits: 2, Late: 0, Early: 0, Misses: 0
fc0-> Hits: 3, Late: 0, Early: 0, Misses: 0
fc4-> Hits: 10, Late: 0, Early: 0, Misses: 0
fc5-> Hits: 1, Late: 0, Early: 0, Misses: 0
fc6-> Hits: 2, Late: 0, Early: 0, Misses: 0
fc7-> Hits: 2, Late: 0, Early: 0, Misses: 0
fc8-> Hits: 8, Late: 0, Early: 0, Misses: 0
fca-> Hits: 2, Late: 0, Early: 0, Misses: 0
fcb-> Hits: 1, Late: 0, Early: 0, Misses: 0
fcd-> Hits: 1, Late: 1, Early: 0, Misses: 0
fce-> Hits: 1, Late: 0, Early: 0, Misses: 0
fd0-> Hits: 4, Late: 0, Early: 0, Misses: 0
fd2-> Hits: 1, Late: 0, Early: 0, Misses: 0
fd6-> Hits: 6, Late: 0, Early: 0, Misses: 0
fd7-> Hits: 6, Late: 0, Early: 0, Misses: 0
fd8-> Hits: 10, Late: 0, Early: 0, Misses: 0
fda-> Hits: 6, Late: 0, Early: 0, Misses: 0
fdc-> Hits: 7, Late: 1, Early: 0, Misses: 0
fde-> Hits: 8, Late: 0, Early: 0, Misses: 0
fdf-> Hits: 69, Late: 2, Early: 0, Misses: 0
fe0-> Hits: 9, Late: 0, Early: 0, Misses: 0
fe1-> Hits: 4, Late: 0, Early: 0, Misses: 0
fe2-> Hits: 2, Late: 0, Early: 0, Misses: 0
fe3-> Hits: 4, Late: 0, Early: 0, Misses: 0
fe4-> Hits: 31, Late: 2, Early: 0, Misses: 0
fe5-> Hits: 5, Late: 8, Early: 0, Misses: 0
fe6-> Hits: 2, Late: 0, Early: 0, Misses: 0
fe7-> Hits: 1, Late: 1, Early: 0, Misses: 0
feb-> Hits: 1, Late: 2, Early: 0, Misses: 0
fec-> Hits: 4, Late: 0, Early: 0, Misses: 0
fed-> Hits: 6, Late: 0, Early: 0, Misses: 0
fef-> Hits: 0, Late: 1, Early: 0, Misses: 0
ff0-> Hits: 8, Late: 0, Early: 0, Misses: 0
ff2-> Hits: 19, Late: 7, Early: 0, Misses: 0
ff3-> Hits: 14, Late: 0, Early: 0, Misses: 0
ff5-> Hits: 2, Late: 0, Early: 0, Misses: 0
ff7-> Hits: 4, Late: 0, Early: 0, Misses: 0
ff9-> Hits: 7, Late: 0, Early: 0, Misses: 0
ffd-> Hits: 2, Late: 0, Early: 0, Misses: 0
ffe-> Hits: 632, Late: 0, Early: 0, Misses: 0
fff-> Hits: 12, Late: 0, Early: 0, Misses: 0
Total misses (from ip) 1851382
Total accesses (misses) 62783799 1851382
Pref: Addr 0 IP 0 Current 0
CPU 0 L2C berti prefetcher final stats
Channel_0_RQ_row_buffer_hit 871990
Channel_0_RQ_row_buffer_miss 711035
Channel_0_WQ_row_buffer_hit 296981
Channel_0_WQ_row_buffer_miss 562960
Channel_0_WQ_full 423
Channel_0_dbus_congested 1221155

avg_congested_cycle 10

EzSearch AVG IPC :1.12656: L2-Pf-HR :0.83868 : L2-HR :0.82123 Uful:0.10810
     > Finished combination: TraceType=770-tot Sim:293000000 Prefetcher=L2berti L1=berti
