TRACE: [409000000][GPT-Neo_2_7B]_[h32][s512][d80] Warmup: 2000000 NumTraces: 409000000
L1:isb_ideal:L2:isb_ideal
*************************************************
   ChampSim Multicore Out-of-Order Simulator
   Last compiled: Oct 27 2024 11:17:54
*************************************************

trace_0 770-tot_memTraces_v3/memTraces[409000000][GPT-Neo_2_7B]_[h32][s512][d80].champsim.xz
L1D: Ideal ISB Prefetching
Ideal ISB Prefetching
MAIN.cc ln 751 stats print skipped
CPU  0 inst:    1000003 cyc:     499530 now IPC :2.00189: AVG IPC :2.00189: L2-Pf-HR :1.00000: L2-HR :0.87868: (Sim:0h0m20s) 
CPU  0 inst:    2000003 cyc:     983184 now IPC :2.06759: AVG IPC :2.03421: L2-Pf-HR :1.00000: L2-HR :0.91684: (Sim:0h0m41s) 

Warmup complete CPU  0 instructions:    2000003 cycles:     983184 (Simulation time: 0 hr 0 min 41 sec) 

CPU  0 inst:    3000000 cyc:    1594672 now IPC :1.63535: AVG IPC :1.63535: L2-Pf-HR :1.00000: L2-HR :0.95487: (Sim:0h0m59s) 
CPU  0 inst:    4000003 cyc:    2216483 now IPC :1.60821: AVG IPC :1.62167: L2-Pf-HR :0.99946: L2-HR :0.95427: (Sim:0h1m18s) 
CPU  0 inst:    5000002 cyc:    2794385 now IPC :1.73040: AVG IPC :1.65636: L2-Pf-HR :0.99860: L2-HR :0.95799: (Sim:0h1m35s) 
CPU  0 inst:    6000002 cyc:    3431769 now IPC :1.56891: AVG IPC :1.63360: L2-Pf-HR :0.99893: L2-HR :0.95520: (Sim:0h1m54s) 
CPU  0 inst:    7000004 cyc:    4021432 now IPC :1.69589: AVG IPC :1.64569: L2-Pf-HR :0.99901: L2-HR :0.95640: (Sim:0h2m12s) 
CPU  0 inst:    8000002 cyc:    4609368 now IPC :1.70086: AVG IPC :1.65463: L2-Pf-HR :0.99894: L2-HR :0.95711: (Sim:0h2m29s) 
CPU  0 inst:    9000000 cyc:    5198364 now IPC :1.69780: AVG IPC :1.66066: L2-Pf-HR :0.99850: L2-HR :0.95770: (Sim:0h2m46s) 
CPU  0 inst:   10000003 cyc:    5801556 now IPC :1.65785: AVG IPC :1.66031: L2-Pf-HR :0.99813: L2-HR :0.95779: (Sim:0h3m4s) 
CPU  0 inst:   11000004 cyc:    6466641 now IPC :1.50357: AVG IPC :1.64130: L2-Pf-HR :0.99833: L2-HR :0.95675: (Sim:0h3m23s) 
CPU  0 inst:   12000004 cyc:    7090081 now IPC :1.60400: AVG IPC :1.63749: L2-Pf-HR :0.99848: L2-HR :0.95713: (Sim:0h3m42s) 
CPU  0 inst:   13000005 cyc:    7713978 now IPC :1.60283: AVG IPC :1.63428: L2-Pf-HR :0.99852: L2-HR :0.95735: (Sim:0h4m0s) 
CPU  0 inst:   14000001 cyc:    8332643 now IPC :1.61638: AVG IPC :1.63277: L2-Pf-HR :0.99833: L2-HR :0.95748: (Sim:0h4m17s) 
CPU  0 inst:   15000005 cyc:    8976302 now IPC :1.55362: AVG IPC :1.62640: L2-Pf-HR :0.99814: L2-HR :0.95782: (Sim:0h4m36s) 
CPU  0 inst:   16000002 cyc:    9680550 now IPC :1.41995: AVG IPC :1.60968: L2-Pf-HR :0.99827: L2-HR :0.95706: (Sim:0h4m55s) 
CPU  0 inst:   17000004 cyc:   10322827 now IPC :1.55696: AVG IPC :1.60606: L2-Pf-HR :0.99837: L2-HR :0.95734: (Sim:0h5m13s) 
CPU  0 inst:   18000000 cyc:   10965416 now IPC :1.55620: AVG IPC :1.60285: L2-Pf-HR :0.99843: L2-HR :0.95758: (Sim:0h5m32s) 
CPU  0 inst:   19000005 cyc:   11610227 now IPC :1.55085: AVG IPC :1.59969: L2-Pf-HR :0.99838: L2-HR :0.95769: (Sim:0h5m50s) 
CPU  0 inst:   20000003 cyc:   12261649 now IPC :1.53510: AVG IPC :1.59596: L2-Pf-HR :0.99820: L2-HR :0.95783: (Sim:0h6m8s) 
CPU  0 inst:   21000002 cyc:   12964224 now IPC :1.42333: AVG IPC :1.58584: L2-Pf-HR :0.99829: L2-HR :0.95728: (Sim:0h6m27s) 
CPU  0 inst:   22000001 cyc:   13602151 now IPC :1.56758: AVG IPC :1.58492: L2-Pf-HR :0.99836: L2-HR :0.95747: (Sim:0h6m46s) 
CPU  0 inst:   23000003 cyc:   14239466 now IPC :1.56909: AVG IPC :1.58415: L2-Pf-HR :0.99843: L2-HR :0.95767: (Sim:0h7m4s) 
CPU  0 inst:   24000005 cyc:   14870579 now IPC :1.58451: AVG IPC :1.58417: L2-Pf-HR :0.99839: L2-HR :0.95776: (Sim:0h7m22s) 
CPU  0 inst:   25000005 cyc:   15516904 now IPC :1.54721: AVG IPC :1.58253: L2-Pf-HR :0.99823: L2-HR :0.95779: (Sim:0h7m41s) 
CPU  0 inst:   26000005 cyc:   16215361 now IPC :1.43173: AVG IPC :1.57561: L2-Pf-HR :0.99829: L2-HR :0.95738: (Sim:0h8m0s) 
CPU  0 inst:   27000001 cyc:   16854183 now IPC :1.56537: AVG IPC :1.57520: L2-Pf-HR :0.99834: L2-HR :0.95756: (Sim:0h8m18s) 
CPU  0 inst:   28000003 cyc:   17496574 now IPC :1.55669: AVG IPC :1.57448: L2-Pf-HR :0.99839: L2-HR :0.95766: (Sim:0h8m36s) 
CPU  0 inst:   29000002 cyc:   18135533 now IPC :1.56504: AVG IPC :1.57413: L2-Pf-HR :0.99838: L2-HR :0.95769: (Sim:0h8m55s) 
CPU  0 inst:   30000002 cyc:   18788047 now IPC :1.53253: AVG IPC :1.57260: L2-Pf-HR :0.99815: L2-HR :0.95763: (Sim:0h9m13s) 
CPU  0 inst:   31000001 cyc:   19474986 now IPC :1.45573: AVG IPC :1.56826: L2-Pf-HR :0.99819: L2-HR :0.95732: (Sim:0h9m33s) 
CPU  0 inst:   32000001 cyc:   20123064 now IPC :1.54302: AVG IPC :1.56741: L2-Pf-HR :0.99825: L2-HR :0.95741: (Sim:0h9m52s) 
CPU  0 inst:   33000001 cyc:   20769462 now IPC :1.54703: AVG IPC :1.56674: L2-Pf-HR :0.99828: L2-HR :0.95748: (Sim:0h10m9s) 
CPU  0 inst:   34000002 cyc:   21410689 now IPC :1.55951: AVG IPC :1.56652: L2-Pf-HR :0.99825: L2-HR :0.95755: (Sim:0h10m28s) 
CPU  0 inst:   35000004 cyc:   22059012 now IPC :1.54244: AVG IPC :1.56577: L2-Pf-HR :0.99809: L2-HR :0.95749: (Sim:0h10m47s) 
CPU  0 inst:   36000004 cyc:   22749188 now IPC :1.44891: AVG IPC :1.56207: L2-Pf-HR :0.99814: L2-HR :0.95722: (Sim:0h11m6s) 
CPU  0 inst:   37000001 cyc:   23392689 now IPC :1.55399: AVG IPC :1.56184: L2-Pf-HR :0.99819: L2-HR :0.95734: (Sim:0h11m24s) 
CPU  0 inst:   38000000 cyc:   24037712 now IPC :1.55033: AVG IPC :1.56152: L2-Pf-HR :0.99822: L2-HR :0.95743: (Sim:0h11m43s) 
CPU  0 inst:   39000001 cyc:   24685413 now IPC :1.54392: AVG IPC :1.56103: L2-Pf-HR :0.99823: L2-HR :0.95750: (Sim:0h12m1s) 
CPU  0 inst:   40000002 cyc:   25337837 now IPC :1.53275: AVG IPC :1.56028: L2-Pf-HR :0.99812: L2-HR :0.95747: (Sim:0h12m20s) 
CPU  0 inst:   41000005 cyc:   26022179 now IPC :1.46126: AVG IPC :1.55757: L2-Pf-HR :0.99817: L2-HR :0.95726: (Sim:0h12m39s) 
CPU  0 inst:   42000004 cyc:   26664816 now IPC :1.55609: AVG IPC :1.55753: L2-Pf-HR :0.99821: L2-HR :0.95735: (Sim:0h12m58s) 
CPU  0 inst:   43000003 cyc:   27303400 now IPC :1.56596: AVG IPC :1.55774: L2-Pf-HR :0.99824: L2-HR :0.95744: (Sim:0h13m17s) 
CPU  0 inst:   44000004 cyc:   27941203 now IPC :1.56788: AVG IPC :1.55798: L2-Pf-HR :0.99826: L2-HR :0.95752: (Sim:0h13m36s) 
CPU  0 inst:   45000004 cyc:   28591857 now IPC :1.53692: AVG IPC :1.55748: L2-Pf-HR :0.99816: L2-HR :0.95747: (Sim:0h13m55s) 
CPU  0 inst:   46000002 cyc:   29261785 now IPC :1.49269: AVG IPC :1.55595: L2-Pf-HR :0.99820: L2-HR :0.95728: (Sim:0h14m15s) 
CPU  0 inst:   47000004 cyc:   29916576 now IPC :1.52721: AVG IPC :1.55530: L2-Pf-HR :0.99824: L2-HR :0.95739: (Sim:0h14m34s) 
CPU  0 inst:   48000005 cyc:   30561268 now IPC :1.55113: AVG IPC :1.55521: L2-Pf-HR :0.99826: L2-HR :0.95744: (Sim:0h14m52s) 
CPU  0 inst:   49000005 cyc:   31205035 now IPC :1.55336: AVG IPC :1.55517: L2-Pf-HR :0.99828: L2-HR :0.95747: (Sim:0h15m11s) 
CPU  0 inst:   50000002 cyc:   31860569 now IPC :1.52547: AVG IPC :1.55454: L2-Pf-HR :0.99819: L2-HR :0.95745: (Sim:0h15m31s) 
CPU  0 inst:   51000003 cyc:   32489330 now IPC :1.59043: AVG IPC :1.55525: L2-Pf-HR :0.99822: L2-HR :0.95764: (Sim:0h15m49s) 
CPU  0 inst:   52000001 cyc:   33190067 now IPC :1.42707: AVG IPC :1.55246: L2-Pf-HR :0.99825: L2-HR :0.95735: (Sim:0h16m9s) 
CPU  0 inst:   53000003 cyc:   33832389 now IPC :1.55685: AVG IPC :1.55255: L2-Pf-HR :0.99827: L2-HR :0.95739: (Sim:0h16m28s) 
CPU  0 inst:   54000002 cyc:   34470654 now IPC :1.56675: AVG IPC :1.55282: L2-Pf-HR :0.99829: L2-HR :0.95747: (Sim:0h16m47s) 
CPU  0 inst:   55000001 cyc:   35125849 now IPC :1.52626: AVG IPC :1.55231: L2-Pf-HR :0.99821: L2-HR :0.95743: (Sim:0h17m6s) 
CPU  0 inst:   56000002 cyc:   35756625 now IPC :1.58535: AVG IPC :1.55291: L2-Pf-HR :0.99820: L2-HR :0.95755: (Sim:0h17m19s) 
CPU  0 inst:   57000003 cyc:   36455787 now IPC :1.43029: AVG IPC :1.55049: L2-Pf-HR :0.99823: L2-HR :0.95732: (Sim:0h17m28s) 
CPU  0 inst:   58000000 cyc:   37096544 now IPC :1.56065: AVG IPC :1.55067: L2-Pf-HR :0.99826: L2-HR :0.95738: (Sim:0h17m36s) 
CPU  0 inst:   59000005 cyc:   37735096 now IPC :1.56605: AVG IPC :1.55094: L2-Pf-HR :0.99827: L2-HR :0.95743: (Sim:0h17m53s) 
CPU  0 inst:   60000005 cyc:   38390872 now IPC :1.52491: AVG IPC :1.55048: L2-Pf-HR :0.99822: L2-HR :0.95741: (Sim:0h18m12s) 
CPU  0 inst:   61000004 cyc:   39018534 now IPC :1.59321: AVG IPC :1.55119: L2-Pf-HR :0.99821: L2-HR :0.95751: (Sim:0h18m30s) 
CPU  0 inst:   62000001 cyc:   39722800 now IPC :1.41991: AVG IPC :1.54880: L2-Pf-HR :0.99824: L2-HR :0.95731: (Sim:0h18m50s) 
CPU  0 inst:   63000005 cyc:   40365436 now IPC :1.55610: AVG IPC :1.54892: L2-Pf-HR :0.99826: L2-HR :0.95737: (Sim:0h19m8s) 
CPU  0 inst:   64000001 cyc:   41002733 now IPC :1.56912: AVG IPC :1.54924: L2-Pf-HR :0.99828: L2-HR :0.95742: (Sim:0h19m27s) 
CPU  0 inst:   65000004 cyc:   41635691 now IPC :1.57989: AVG IPC :1.54972: L2-Pf-HR :0.99824: L2-HR :0.95747: (Sim:0h19m45s) 
CPU  0 inst:   66000002 cyc:   42288890 now IPC :1.53092: AVG IPC :1.54942: L2-Pf-HR :0.99822: L2-HR :0.95746: (Sim:0h20m4s) 
CPU  0 inst:   67000001 cyc:   42988199 now IPC :1.42998: AVG IPC :1.54743: L2-Pf-HR :0.99824: L2-HR :0.95731: (Sim:0h20m23s) 
CPU  0 inst:   68000002 cyc:   43635236 now IPC :1.54551: AVG IPC :1.54741: L2-Pf-HR :0.99827: L2-HR :0.95735: (Sim:0h20m42s) 
CPU  0 inst:   69000001 cyc:   44282009 now IPC :1.54614: AVG IPC :1.54739: L2-Pf-HR :0.99829: L2-HR :0.95739: (Sim:0h21m0s) 
CPU  0 inst:   70000004 cyc:   44922403 now IPC :1.56154: AVG IPC :1.54759: L2-Pf-HR :0.99827: L2-HR :0.95740: (Sim:0h21m18s) 
CPU  0 inst:   71000001 cyc:   45565705 now IPC :1.55448: AVG IPC :1.54769: L2-Pf-HR :0.99823: L2-HR :0.95743: (Sim:0h21m37s) 
CPU  0 inst:   72000001 cyc:   46260730 now IPC :1.43880: AVG IPC :1.54602: L2-Pf-HR :0.99825: L2-HR :0.95727: (Sim:0h21m57s) 
CPU  0 inst:   73000003 cyc:   46897794 now IPC :1.56970: AVG IPC :1.54635: L2-Pf-HR :0.99827: L2-HR :0.95732: (Sim:0h22m16s) 
CPU  0 inst:   74000002 cyc:   47536123 now IPC :1.56659: AVG IPC :1.54663: L2-Pf-HR :0.99828: L2-HR :0.95736: (Sim:0h22m35s) 
CPU  0 inst:   75000001 cyc:   48175761 now IPC :1.56338: AVG IPC :1.54685: L2-Pf-HR :0.99827: L2-HR :0.95737: (Sim:0h22m54s) 
CPU  0 inst:   76000005 cyc:   48822638 now IPC :1.54590: AVG IPC :1.54684: L2-Pf-HR :0.99824: L2-HR :0.95740: (Sim:0h23m14s) 
CPU  0 inst:   77000001 cyc:   49528123 now IPC :1.41746: AVG IPC :1.54496: L2-Pf-HR :0.99826: L2-HR :0.95726: (Sim:0h23m34s) 
CPU  0 inst:   78000000 cyc:   50167987 now IPC :1.56283: AVG IPC :1.54519: L2-Pf-HR :0.99828: L2-HR :0.95731: (Sim:0h23m54s) 
CPU  0 inst:   79000000 cyc:   50802910 now IPC :1.57499: AVG IPC :1.54557: L2-Pf-HR :0.99829: L2-HR :0.95735: (Sim:0h24m13s) 
CPU  0 inst:   80000004 cyc:   51442230 now IPC :1.56417: AVG IPC :1.54581: L2-Pf-HR :0.99828: L2-HR :0.95737: (Sim:0h24m32s) 
CPU  0 inst:   81000000 cyc:   52089682 now IPC :1.54451: AVG IPC :1.54579: L2-Pf-HR :0.99824: L2-HR :0.95736: (Sim:0h24m43s) 
CPU  0 inst:   82000004 cyc:   52778097 now IPC :1.45262: AVG IPC :1.54455: L2-Pf-HR :0.99826: L2-HR :0.95724: (Sim:0h24m53s) 
CPU  0 inst:   83000000 cyc:   53417599 now IPC :1.56371: AVG IPC :1.54479: L2-Pf-HR :0.99828: L2-HR :0.95730: (Sim:0h25m2s) 
CPU  0 inst:   84000002 cyc:   54060295 now IPC :1.55595: AVG IPC :1.54492: L2-Pf-HR :0.99829: L2-HR :0.95733: (Sim:0h25m10s) 
CPU  0 inst:   85000000 cyc:   54700555 now IPC :1.56186: AVG IPC :1.54512: L2-Pf-HR :0.99829: L2-HR :0.95734: (Sim:0h25m19s) 
CPU  0 inst:   86000005 cyc:   55352324 now IPC :1.53429: AVG IPC :1.54499: L2-Pf-HR :0.99824: L2-HR :0.95733: (Sim:0h25m28s) 
CPU  0 inst:   87000004 cyc:   56051769 now IPC :1.42970: AVG IPC :1.54353: L2-Pf-HR :0.99826: L2-HR :0.95723: (Sim:0h25m37s) 
CPU  0 inst:   88000003 cyc:   56690303 now IPC :1.56609: AVG IPC :1.54379: L2-Pf-HR :0.99827: L2-HR :0.95725: (Sim:0h25m45s) 
CPU  0 inst:   89000002 cyc:   57327631 now IPC :1.56905: AVG IPC :1.54407: L2-Pf-HR :0.99828: L2-HR :0.95728: (Sim:0h25m53s) 
CPU  0 inst:   90000001 cyc:   57961671 now IPC :1.57719: AVG IPC :1.54444: L2-Pf-HR :0.99828: L2-HR :0.95730: (Sim:0h26m2s) 
CPU  0 inst:   91000003 cyc:   58608216 now IPC :1.54669: AVG IPC :1.54447: L2-Pf-HR :0.99824: L2-HR :0.95730: (Sim:0h26m11s) 
CPU  0 inst:   92000001 cyc:   59299284 now IPC :1.44703: AVG IPC :1.54331: L2-Pf-HR :0.99826: L2-HR :0.95719: (Sim:0h26m20s) 
CPU  0 inst:   93000003 cyc:   59937697 now IPC :1.56639: AVG IPC :1.54356: L2-Pf-HR :0.99828: L2-HR :0.95724: (Sim:0h26m28s) 
CPU  0 inst:   94000004 cyc:   60576187 now IPC :1.56620: AVG IPC :1.54381: L2-Pf-HR :0.99829: L2-HR :0.95727: (Sim:0h26m36s) 
CPU  0 inst:   95000004 cyc:   61215839 now IPC :1.56335: AVG IPC :1.54401: L2-Pf-HR :0.99830: L2-HR :0.95730: (Sim:0h26m45s) 
CPU  0 inst:   96000002 cyc:   61869134 now IPC :1.53070: AVG IPC :1.54387: L2-Pf-HR :0.99824: L2-HR :0.95728: (Sim:0h26m54s) 
CPU  0 inst:   97000001 cyc:   62565130 now IPC :1.43679: AVG IPC :1.54266: L2-Pf-HR :0.99825: L2-HR :0.95718: (Sim:0h27m2s) 
CPU  0 inst:   98000003 cyc:   63216709 now IPC :1.53474: AVG IPC :1.54258: L2-Pf-HR :0.99827: L2-HR :0.95722: (Sim:0h27m11s) 
CPU  0 inst:   99000002 cyc:   63858519 now IPC :1.55809: AVG IPC :1.54274: L2-Pf-HR :0.99828: L2-HR :0.95725: (Sim:0h27m19s) 
CPU  0 inst:  100000004 cyc:   64495674 now IPC :1.56948: AVG IPC :1.54300: L2-Pf-HR :0.99828: L2-HR :0.95728: (Sim:0h27m36s) 
CPU  0 inst:  101000000 cyc:   65148186 now IPC :1.53253: AVG IPC :1.54290: L2-Pf-HR :0.99823: L2-HR :0.95724: (Sim:0h27m56s) 
CPU  0 inst:  102000001 cyc:   65825934 now IPC :1.47548: AVG IPC :1.54219: L2-Pf-HR :0.99824: L2-HR :0.95715: (Sim:0h28m17s) 
CPU  0 inst:  103000002 cyc:   66479980 now IPC :1.52895: AVG IPC :1.54206: L2-Pf-HR :0.99826: L2-HR :0.95720: (Sim:0h28m36s) 
CPU  0 inst:  104000002 cyc:   67118873 now IPC :1.56521: AVG IPC :1.54228: L2-Pf-HR :0.99827: L2-HR :0.95722: (Sim:0h28m55s) 
CPU  0 inst:  105000004 cyc:   67761862 now IPC :1.55524: AVG IPC :1.54241: L2-Pf-HR :0.99828: L2-HR :0.95724: (Sim:0h29m15s) 
CPU  0 inst:  106000002 cyc:   68411403 now IPC :1.53955: AVG IPC :1.54238: L2-Pf-HR :0.99824: L2-HR :0.95723: (Sim:0h29m35s) 
CPU  0 inst:  107000000 cyc:   69028898 now IPC :1.61944: AVG IPC :1.54308: L2-Pf-HR :0.99825: L2-HR :0.95732: (Sim:0h29m54s) 
CPU  0 inst:  108000003 cyc:   69748149 now IPC :1.39034: AVG IPC :1.54148: L2-Pf-HR :0.99827: L2-HR :0.95718: (Sim:0h30m14s) 
CPU  0 inst:  109000002 cyc:   70393582 now IPC :1.54935: AVG IPC :1.54156: L2-Pf-HR :0.99828: L2-HR :0.95720: (Sim:0h30m34s) 
CPU  0 inst:  110000004 cyc:   71034240 now IPC :1.56090: AVG IPC :1.54173: L2-Pf-HR :0.99828: L2-HR :0.95723: (Sim:0h30m53s) 
CPU  0 inst:  111000000 cyc:   71695464 now IPC :1.51234: AVG IPC :1.54146: L2-Pf-HR :0.99825: L2-HR :0.95721: (Sim:0h31m13s) 
CPU  0 inst:  112000003 cyc:   72318538 now IPC :1.60495: AVG IPC :1.54201: L2-Pf-HR :0.99825: L2-HR :0.95728: (Sim:0h31m32s) 
CPU  0 inst:  113000000 cyc:   73021203 now IPC :1.42315: AVG IPC :1.54085: L2-Pf-HR :0.99827: L2-HR :0.95717: (Sim:0h31m53s) 
CPU  0 inst:  114000001 cyc:   73659679 now IPC :1.56623: AVG IPC :1.54108: L2-Pf-HR :0.99828: L2-HR :0.95720: (Sim:0h32m12s) 
CPU  0 inst:  115000004 cyc:   74297631 now IPC :1.56752: AVG IPC :1.54131: L2-Pf-HR :0.99829: L2-HR :0.95723: (Sim:0h32m32s) 
CPU  0 inst:  116000004 cyc:   74949176 now IPC :1.53481: AVG IPC :1.54125: L2-Pf-HR :0.99827: L2-HR :0.95722: (Sim:0h32m52s) 
CPU  0 inst:  117000003 cyc:   75575789 now IPC :1.59588: AVG IPC :1.54171: L2-Pf-HR :0.99827: L2-HR :0.95728: (Sim:0h33m11s) 
CPU  0 inst:  118000002 cyc:   76281039 now IPC :1.41794: AVG IPC :1.54055: L2-Pf-HR :0.99828: L2-HR :0.95718: (Sim:0h33m31s) 
CPU  0 inst:  119000005 cyc:   76920294 now IPC :1.56433: AVG IPC :1.54075: L2-Pf-HR :0.99829: L2-HR :0.95721: (Sim:0h33m51s) 
CPU  0 inst:  120000001 cyc:   77552606 now IPC :1.58149: AVG IPC :1.54109: L2-Pf-HR :0.99830: L2-HR :0.95724: (Sim:0h34m10s) 
CPU  0 inst:  121000005 cyc:   78184552 now IPC :1.58242: AVG IPC :1.54142: L2-Pf-HR :0.99828: L2-HR :0.95726: (Sim:0h34m30s) 
CPU  0 inst:  122000004 cyc:   78831083 now IPC :1.54671: AVG IPC :1.54147: L2-Pf-HR :0.99828: L2-HR :0.95727: (Sim:0h34m49s) 
CPU  0 inst:  123000000 cyc:   79529803 now IPC :1.43118: AVG IPC :1.54049: L2-Pf-HR :0.99829: L2-HR :0.95719: (Sim:0h35m10s) 
CPU  0 inst:  124000005 cyc:   80167608 now IPC :1.56789: AVG IPC :1.54071: L2-Pf-HR :0.99831: L2-HR :0.95721: (Sim:0h35m29s) 
CPU  0 inst:  125000001 cyc:   80805441 now IPC :1.56780: AVG IPC :1.54092: L2-Pf-HR :0.99831: L2-HR :0.95722: (Sim:0h35m49s) 
CPU  0 inst:  126000003 cyc:   81439045 now IPC :1.57828: AVG IPC :1.54122: L2-Pf-HR :0.99830: L2-HR :0.95723: (Sim:0h36m8s) 
CPU  0 inst:  127000002 cyc:   82088430 now IPC :1.53992: AVG IPC :1.54121: L2-Pf-HR :0.99828: L2-HR :0.95725: (Sim:0h36m28s) 
CPU  0 inst:  128000003 cyc:   82776877 now IPC :1.45255: AVG IPC :1.54046: L2-Pf-HR :0.99830: L2-HR :0.95716: (Sim:0h36m48s) 
CPU  0 inst:  129000005 cyc:   83413448 now IPC :1.57092: AVG IPC :1.54070: L2-Pf-HR :0.99831: L2-HR :0.95719: (Sim:0h37m1s) 
CPU  0 inst:  130000001 cyc:   84053603 now IPC :1.56212: AVG IPC :1.54086: L2-Pf-HR :0.99832: L2-HR :0.95721: (Sim:0h37m9s) 
CPU  0 inst:  131000005 cyc:   84694161 now IPC :1.56115: AVG IPC :1.54102: L2-Pf-HR :0.99831: L2-HR :0.95723: (Sim:0h37m18s) 
CPU  0 inst:  132000000 cyc:   85333243 now IPC :1.56474: AVG IPC :1.54120: L2-Pf-HR :0.99830: L2-HR :0.95725: (Sim:0h37m26s) 
CPU  0 inst:  133000005 cyc:   86034803 now IPC :1.42540: AVG IPC :1.54024: L2-Pf-HR :0.99831: L2-HR :0.95717: (Sim:0h37m35s) 
CPU  0 inst:  134000005 cyc:   86677324 now IPC :1.55637: AVG IPC :1.54036: L2-Pf-HR :0.99832: L2-HR :0.95719: (Sim:0h37m43s) 
CPU  0 inst:  135000000 cyc:   87317879 now IPC :1.56114: AVG IPC :1.54052: L2-Pf-HR :0.99833: L2-HR :0.95722: (Sim:0h37m51s) 
CPU  0 inst:  136000002 cyc:   87956110 now IPC :1.56683: AVG IPC :1.54071: L2-Pf-HR :0.99832: L2-HR :0.95723: (Sim:0h38m0s) 
CPU  0 inst:  137000002 cyc:   88600430 now IPC :1.55202: AVG IPC :1.54079: L2-Pf-HR :0.99830: L2-HR :0.95723: (Sim:0h38m8s) 
CPU  0 inst:  138000000 cyc:   89300623 now IPC :1.42817: AVG IPC :1.53990: L2-Pf-HR :0.99831: L2-HR :0.95716: (Sim:0h38m17s) 
CPU  0 inst:  139000005 cyc:   89938363 now IPC :1.56805: AVG IPC :1.54010: L2-Pf-HR :0.99832: L2-HR :0.95719: (Sim:0h38m25s) 
CPU  0 inst:  140000003 cyc:   90584137 now IPC :1.54853: AVG IPC :1.54016: L2-Pf-HR :0.99833: L2-HR :0.95721: (Sim:0h38m33s) 
CPU  0 inst:  141000000 cyc:   91228986 now IPC :1.55075: AVG IPC :1.54024: L2-Pf-HR :0.99832: L2-HR :0.95721: (Sim:0h38m51s) 
CPU  0 inst:  142000004 cyc:   91881007 now IPC :1.53370: AVG IPC :1.54019: L2-Pf-HR :0.99830: L2-HR :0.95721: (Sim:0h39m11s) 
CPU  0 inst:  143000000 cyc:   92576807 now IPC :1.43719: AVG IPC :1.53941: L2-Pf-HR :0.99831: L2-HR :0.95715: (Sim:0h39m31s) 
CPU  0 inst:  144000005 cyc:   93222998 now IPC :1.54754: AVG IPC :1.53947: L2-Pf-HR :0.99832: L2-HR :0.95717: (Sim:0h39m50s) 
CPU  0 inst:  145000002 cyc:   93866586 now IPC :1.55378: AVG IPC :1.53956: L2-Pf-HR :0.99833: L2-HR :0.95718: (Sim:0h40m9s) 
CPU  0 inst:  146000000 cyc:   94505597 now IPC :1.56492: AVG IPC :1.53974: L2-Pf-HR :0.99833: L2-HR :0.95720: (Sim:0h40m28s) 
CPU  0 inst:  147000005 cyc:   95160008 now IPC :1.52810: AVG IPC :1.53966: L2-Pf-HR :0.99830: L2-HR :0.95720: (Sim:0h40m47s) 
CPU  0 inst:  148000000 cyc:   95861842 now IPC :1.42483: AVG IPC :1.53881: L2-Pf-HR :0.99831: L2-HR :0.95713: (Sim:0h41m7s) 
CPU  0 inst:  149000001 cyc:   96502540 now IPC :1.56080: AVG IPC :1.53896: L2-Pf-HR :0.99832: L2-HR :0.95716: (Sim:0h41m26s) 
CPU  0 inst:  150000001 cyc:   97149043 now IPC :1.54678: AVG IPC :1.53901: L2-Pf-HR :0.99833: L2-HR :0.95718: (Sim:0h41m46s) 
CPU  0 inst:  151000003 cyc:   97793917 now IPC :1.55069: AVG IPC :1.53909: L2-Pf-HR :0.99833: L2-HR :0.95720: (Sim:0h42m5s) 
CPU  0 inst:  152000003 cyc:   98438790 now IPC :1.55069: AVG IPC :1.53916: L2-Pf-HR :0.99832: L2-HR :0.95720: (Sim:0h42m24s) 
CPU  0 inst:  153000003 cyc:   99113152 now IPC :1.48288: AVG IPC :1.53878: L2-Pf-HR :0.99832: L2-HR :0.95714: (Sim:0h42m44s) 
CPU  0 inst:  154000002 cyc:   99763864 now IPC :1.53678: AVG IPC :1.53876: L2-Pf-HR :0.99833: L2-HR :0.95716: (Sim:0h43m3s) 
CPU  0 inst:  155000001 cyc:  100414164 now IPC :1.53775: AVG IPC :1.53876: L2-Pf-HR :0.99834: L2-HR :0.95718: (Sim:0h43m22s) 
CPU  0 inst:  156000003 cyc:  101058773 now IPC :1.55133: AVG IPC :1.53884: L2-Pf-HR :0.99834: L2-HR :0.95720: (Sim:0h43m41s) 
CPU  0 inst:  157000005 cyc:  101714293 now IPC :1.52551: AVG IPC :1.53875: L2-Pf-HR :0.99831: L2-HR :0.95718: (Sim:0h44m1s) 
CPU  0 inst:  158000000 cyc:  102396405 now IPC :1.46603: AVG IPC :1.53826: L2-Pf-HR :0.99832: L2-HR :0.95712: (Sim:0h44m21s) 
CPU  0 inst:  159000005 cyc:  103050781 now IPC :1.52818: AVG IPC :1.53820: L2-Pf-HR :0.99833: L2-HR :0.95715: (Sim:0h44m40s) 
CPU  0 inst:  160000001 cyc:  103695539 now IPC :1.55096: AVG IPC :1.53828: L2-Pf-HR :0.99833: L2-HR :0.95716: (Sim:0h44m59s) 
CPU  0 inst:  161000000 cyc:  104339843 now IPC :1.55206: AVG IPC :1.53836: L2-Pf-HR :0.99833: L2-HR :0.95717: (Sim:0h45m18s) 
CPU  0 inst:  162000001 cyc:  104995872 now IPC :1.52432: AVG IPC :1.53827: L2-Pf-HR :0.99832: L2-HR :0.95717: (Sim:0h45m38s) 
CPU  0 inst:  163000000 cyc:  105614013 now IPC :1.61775: AVG IPC :1.53874: L2-Pf-HR :0.99832: L2-HR :0.95722: (Sim:0h45m49s) 
CPU  0 inst:  164000005 cyc:  110806289 now IPC :0.19259: AVG IPC :1.47510: L2-Pf-HR :0.99832: L2-HR :0.95143: (Sim:0h46m17s) 
CPU  0 inst:  165000001 cyc:  116286689 now IPC :0.18247: AVG IPC :1.41366: L2-Pf-HR :0.99832: L2-HR :0.94557: (Sim:0h46m48s) 
CPU  0 inst:  166000003 cyc:  121767181 now IPC :0.18247: AVG IPC :1.35780: L2-Pf-HR :0.99832: L2-HR :0.93986: (Sim:0h47m19s) 
CPU  0 inst:  167000005 cyc:  127245314 now IPC :0.18254: AVG IPC :1.30681: L2-Pf-HR :0.99832: L2-HR :0.93429: (Sim:0h47m50s) 
CPU  0 inst:  168000001 cyc:  132628023 now IPC :0.18578: AVG IPC :1.26097: L2-Pf-HR :0.99832: L2-HR :0.92986: (Sim:0h48m19s) 
CPU  0 inst:  169000000 cyc:  138107742 now IPC :0.18249: AVG IPC :1.21787: L2-Pf-HR :0.99832: L2-HR :0.92904: (Sim:0h48m38s) 
CPU  0 inst:  170000000 cyc:  143586519 now IPC :0.18252: AVG IPC :1.17809: L2-Pf-HR :0.99832: L2-HR :0.92822: (Sim:0h48m58s) 
CPU  0 inst:  171000000 cyc:  148996630 now IPC :0.18484: AVG IPC :1.14179: L2-Pf-HR :0.99832: L2-HR :0.92740: (Sim:0h49m17s) 
CPU  0 inst:  172000001 cyc:  154203071 now IPC :0.19207: AVG IPC :1.10952: L2-Pf-HR :0.99832: L2-HR :0.92658: (Sim:0h49m36s) 
CPU  0 inst:  173000003 cyc:  159298998 now IPC :0.19624: AVG IPC :1.08012: L2-Pf-HR :0.99832: L2-HR :0.92577: (Sim:0h49m55s) 
CPU  0 inst:  174000002 cyc:  164382776 now IPC :0.19670: AVG IPC :1.05263: L2-Pf-HR :0.99832: L2-HR :0.92496: (Sim:0h50m14s) 
CPU  0 inst:  175000003 cyc:  169612044 now IPC :0.19123: AVG IPC :1.02592: L2-Pf-HR :0.99832: L2-HR :0.92415: (Sim:0h50m33s) 
CPU  0 inst:  176000001 cyc:  174739466 now IPC :0.19503: AVG IPC :1.00140: L2-Pf-HR :0.99832: L2-HR :0.92334: (Sim:0h50m51s) 
CPU  0 inst:  177000000 cyc:  179990939 now IPC :0.19042: AVG IPC :0.97761: L2-Pf-HR :0.99832: L2-HR :0.92254: (Sim:0h51m10s) 
CPU  0 inst:  178000000 cyc:  185244775 now IPC :0.19034: AVG IPC :0.95516: L2-Pf-HR :0.99832: L2-HR :0.92174: (Sim:0h51m30s) 
CPU  0 inst:  179000000 cyc:  190503758 now IPC :0.19015: AVG IPC :0.93394: L2-Pf-HR :0.99832: L2-HR :0.92094: (Sim:0h51m49s) 
CPU  0 inst:  180000001 cyc:  195793961 now IPC :0.18903: AVG IPC :0.91371: L2-Pf-HR :0.99832: L2-HR :0.92014: (Sim:0h52m8s) 
CPU  0 inst:  181000003 cyc:  200925805 now IPC :0.19486: AVG IPC :0.89526: L2-Pf-HR :0.99832: L2-HR :0.91934: (Sim:0h52m27s) 
CPU  0 inst:  182000003 cyc:  206141012 now IPC :0.19175: AVG IPC :0.87737: L2-Pf-HR :0.99832: L2-HR :0.91855: (Sim:0h52m46s) 
CPU  0 inst:  183000002 cyc:  211299327 now IPC :0.19386: AVG IPC :0.86061: L2-Pf-HR :0.99832: L2-HR :0.91776: (Sim:0h53m5s) 
CPU  0 inst:  184000004 cyc:  216462833 now IPC :0.19367: AVG IPC :0.84463: L2-Pf-HR :0.99832: L2-HR :0.91697: (Sim:0h53m24s) 
CPU  0 inst:  185000000 cyc:  221583262 now IPC :0.19530: AVG IPC :0.82956: L2-Pf-HR :0.99832: L2-HR :0.91618: (Sim:0h53m43s) 
CPU  0 inst:  186000004 cyc:  226654583 now IPC :0.19719: AVG IPC :0.81534: L2-Pf-HR :0.99832: L2-HR :0.91540: (Sim:0h54m2s) 
CPU  0 inst:  187000000 cyc:  231823773 now IPC :0.19345: AVG IPC :0.80142: L2-Pf-HR :0.99832: L2-HR :0.91461: (Sim:0h54m20s) 
CPU  0 inst:  188000001 cyc:  236990141 now IPC :0.19356: AVG IPC :0.78811: L2-Pf-HR :0.99832: L2-HR :0.91383: (Sim:0h54m39s) 
CPU  0 inst:  189000003 cyc:  242138300 now IPC :0.19424: AVG IPC :0.77543: L2-Pf-HR :0.99832: L2-HR :0.91305: (Sim:0h54m58s) 
CPU  0 inst:  190000003 cyc:  247311435 now IPC :0.19331: AVG IPC :0.76321: L2-Pf-HR :0.99832: L2-HR :0.91228: (Sim:0h55m17s) 
CPU  0 inst:  191000002 cyc:  252523967 now IPC :0.19185: AVG IPC :0.75137: L2-Pf-HR :0.99832: L2-HR :0.91150: (Sim:0h55m37s) 
CPU  0 inst:  192000002 cyc:  257677929 now IPC :0.19403: AVG IPC :0.74018: L2-Pf-HR :0.99832: L2-HR :0.91073: (Sim:0h55m55s) 
CPU  0 inst:  193000001 cyc:  262910188 now IPC :0.19112: AVG IPC :0.72921: L2-Pf-HR :0.99832: L2-HR :0.90996: (Sim:0h56m14s) 
CPU  0 inst:  194000002 cyc:  268144634 now IPC :0.19104: AVG IPC :0.71867: L2-Pf-HR :0.99832: L2-HR :0.90919: (Sim:0h56m33s) 
CPU  0 inst:  195000001 cyc:  273266424 now IPC :0.19524: AVG IPC :0.70882: L2-Pf-HR :0.99832: L2-HR :0.90842: (Sim:0h57m15s) 
CPU  0 inst:  196000002 cyc:  278449970 now IPC :0.19292: AVG IPC :0.69918: L2-Pf-HR :0.99832: L2-HR :0.90766: (Sim:0h57m58s) 
CPU  0 inst:  197000003 cyc:  283571976 now IPC :0.19524: AVG IPC :0.69005: L2-Pf-HR :0.99832: L2-HR :0.90690: (Sim:0h58m41s) 
CPU  0 inst:  198000003 cyc:  288772679 now IPC :0.19228: AVG IPC :0.68105: L2-Pf-HR :0.99832: L2-HR :0.90614: (Sim:0h59m24s) 
CPU  0 inst:  199000002 cyc:  294003688 now IPC :0.19117: AVG IPC :0.67231: L2-Pf-HR :0.99832: L2-HR :0.90538: (Sim:1h0m8s) 
CPU  0 inst:  200000002 cyc:  299255958 now IPC :0.19039: AVG IPC :0.66382: L2-Pf-HR :0.99832: L2-HR :0.90462: (Sim:1h0m51s) 
CPU  0 inst:  201000001 cyc:  304412809 now IPC :0.19392: AVG IPC :0.65584: L2-Pf-HR :0.99832: L2-HR :0.90387: (Sim:1h1m34s) 
CPU  0 inst:  202000000 cyc:  309648941 now IPC :0.19098: AVG IPC :0.64795: L2-Pf-HR :0.99832: L2-HR :0.90312: (Sim:1h2m17s) 
CPU  0 inst:  203000004 cyc:  314771964 now IPC :0.19520: AVG IPC :0.64056: L2-Pf-HR :0.99832: L2-HR :0.90237: (Sim:1h3m0s) 
CPU  0 inst:  204000001 cyc:  320004187 now IPC :0.19112: AVG IPC :0.63319: L2-Pf-HR :0.99832: L2-HR :0.90162: (Sim:1h3m43s) 
CPU  0 inst:  205000002 cyc:  325275769 now IPC :0.18970: AVG IPC :0.62598: L2-Pf-HR :0.99832: L2-HR :0.90087: (Sim:1h4m26s) 
CPU  0 inst:  206000003 cyc:  330508204 now IPC :0.19112: AVG IPC :0.61907: L2-Pf-HR :0.99832: L2-HR :0.90013: (Sim:1h5m10s) 
CPU  0 inst:  207000002 cyc:  335691872 now IPC :0.19291: AVG IPC :0.61247: L2-Pf-HR :0.99832: L2-HR :0.89938: (Sim:1h5m53s) 
CPU  0 inst:  208000002 cyc:  340934441 now IPC :0.19075: AVG IPC :0.60597: L2-Pf-HR :0.99832: L2-HR :0.89864: (Sim:1h6m36s) 
CPU  0 inst:  209000001 cyc:  346094753 now IPC :0.19379: AVG IPC :0.59981: L2-Pf-HR :0.99832: L2-HR :0.89791: (Sim:1h7m19s) 
CPU  0 inst:  210000000 cyc:  351320158 now IPC :0.19137: AVG IPC :0.59371: L2-Pf-HR :0.99832: L2-HR :0.89717: (Sim:1h8m2s) 
CPU  0 inst:  211000000 cyc:  356489779 now IPC :0.19344: AVG IPC :0.58789: L2-Pf-HR :0.99832: L2-HR :0.89643: (Sim:1h8m45s) 
CPU  0 inst:  212000000 cyc:  361691390 now IPC :0.19225: AVG IPC :0.58219: L2-Pf-HR :0.99832: L2-HR :0.89570: (Sim:1h9m28s) 
CPU  0 inst:  213000002 cyc:  366853141 now IPC :0.19373: AVG IPC :0.57671: L2-Pf-HR :0.99832: L2-HR :0.89497: (Sim:1h10m11s) 
CPU  0 inst:  214000005 cyc:  372105171 now IPC :0.19040: AVG IPC :0.57124: L2-Pf-HR :0.99832: L2-HR :0.89424: (Sim:1h10m54s) 
CPU  0 inst:  215000000 cyc:  377167633 now IPC :0.19753: AVG IPC :0.56621: L2-Pf-HR :0.99832: L2-HR :0.89351: (Sim:1h11m37s) 
CPU  0 inst:  216000002 cyc:  382427688 now IPC :0.19011: AVG IPC :0.56103: L2-Pf-HR :0.99832: L2-HR :0.89279: (Sim:1h12m20s) 
CPU  0 inst:  217000001 cyc:  387639390 now IPC :0.19188: AVG IPC :0.55605: L2-Pf-HR :0.99832: L2-HR :0.89207: (Sim:1h13m3s) 
CPU  0 inst:  218000000 cyc:  392830343 now IPC :0.19264: AVG IPC :0.55124: L2-Pf-HR :0.99832: L2-HR :0.89134: (Sim:1h13m46s) 
CPU  0 inst:  219000000 cyc:  398039792 now IPC :0.19196: AVG IPC :0.54652: L2-Pf-HR :0.99832: L2-HR :0.89062: (Sim:1h14m29s) 
CPU  0 inst:  220000000 cyc:  403151023 now IPC :0.19565: AVG IPC :0.54206: L2-Pf-HR :0.99832: L2-HR :0.88991: (Sim:1h15m12s) 
CPU  0 inst:  221000001 cyc:  408356218 now IPC :0.19212: AVG IPC :0.53759: L2-Pf-HR :0.99832: L2-HR :0.88919: (Sim:1h15m55s) 
CPU  0 inst:  222000003 cyc:  413532721 now IPC :0.19318: AVG IPC :0.53327: L2-Pf-HR :0.99832: L2-HR :0.88848: (Sim:1h16m38s) 
CPU  0 inst:  223000002 cyc:  418868681 now IPC :0.18741: AVG IPC :0.52885: L2-Pf-HR :0.99832: L2-HR :0.88777: (Sim:1h17m22s) 
CPU  0 inst:  224000001 cyc:  424023537 now IPC :0.19399: AVG IPC :0.52477: L2-Pf-HR :0.99832: L2-HR :0.88706: (Sim:1h18m5s) 
CPU  0 inst:  225000004 cyc:  429184745 now IPC :0.19375: AVG IPC :0.52078: L2-Pf-HR :0.99832: L2-HR :0.88635: (Sim:1h18m47s) 
CPU  0 inst:  226000002 cyc:  434421358 now IPC :0.19096: AVG IPC :0.51680: L2-Pf-HR :0.99832: L2-HR :0.88564: (Sim:1h19m14s) 
CPU  0 inst:  227000000 cyc:  439653446 now IPC :0.19113: AVG IPC :0.51291: L2-Pf-HR :0.99832: L2-HR :0.88493: (Sim:1h19m34s) 
CPU  0 inst:  228000000 cyc:  444860637 now IPC :0.19204: AVG IPC :0.50915: L2-Pf-HR :0.99832: L2-HR :0.88423: (Sim:1h19m54s) 
CPU  0 inst:  229000001 cyc:  450016631 now IPC :0.19395: AVG IPC :0.50553: L2-Pf-HR :0.99832: L2-HR :0.88353: (Sim:1h20m13s) 
CPU  0 inst:  230000003 cyc:  455177073 now IPC :0.19378: AVG IPC :0.50199: L2-Pf-HR :0.99832: L2-HR :0.88283: (Sim:1h20m32s) 
CPU  0 inst:  231000003 cyc:  460327853 now IPC :0.19415: AVG IPC :0.49854: L2-Pf-HR :0.99832: L2-HR :0.88213: (Sim:1h20m51s) 
CPU  0 inst:  232000002 cyc:  465513024 now IPC :0.19286: AVG IPC :0.49512: L2-Pf-HR :0.99832: L2-HR :0.88144: (Sim:1h21m10s) 
CPU  0 inst:  233000004 cyc:  466732432 now IPC :0.82007: AVG IPC :0.49598: L2-Pf-HR :0.99826: L2-HR :0.88130: (Sim:1h21m22s) 
CPU  0 inst:  234000000 cyc:  467331267 now IPC :1.66990: AVG IPC :0.49748: L2-Pf-HR :0.99826: L2-HR :0.88180: (Sim:1h21m31s) 
CPU  0 inst:  235000002 cyc:  467936890 now IPC :1.65120: AVG IPC :0.49898: L2-Pf-HR :0.99825: L2-HR :0.88210: (Sim:1h21m41s) 
CPU  0 inst:  236000000 cyc:  468460291 now IPC :1.91058: AVG IPC :0.50056: L2-Pf-HR :0.99823: L2-HR :0.88258: (Sim:1h21m50s) 
CPU  0 inst:  237000000 cyc:  469008550 now IPC :1.82396: AVG IPC :0.50211: L2-Pf-HR :0.99822: L2-HR :0.88291: (Sim:1h21m59s) 
CPU  0 inst:  238000003 cyc:  469731800 now IPC :1.38265: AVG IPC :0.50347: L2-Pf-HR :0.99821: L2-HR :0.88313: (Sim:1h22m9s) 
CPU  0 inst:  239000001 cyc:  470260621 now IPC :1.89100: AVG IPC :0.50503: L2-Pf-HR :0.99821: L2-HR :0.88351: (Sim:1h22m18s) 
CPU  0 inst:  240000001 cyc:  470949929 now IPC :1.45073: AVG IPC :0.50642: L2-Pf-HR :0.99821: L2-HR :0.88373: (Sim:1h22m28s) 
CPU  0 inst:  241000000 cyc:  471405741 now IPC :2.19388: AVG IPC :0.50805: L2-Pf-HR :0.99819: L2-HR :0.88414: (Sim:1h22m46s) 
CPU  0 inst:  242000004 cyc:  472008049 now IPC :1.66029: AVG IPC :0.50953: L2-Pf-HR :0.99817: L2-HR :0.88445: (Sim:1h23m6s) 
CPU  0 inst:  243000003 cyc:  472498766 now IPC :2.03783: AVG IPC :0.51112: L2-Pf-HR :0.99816: L2-HR :0.88487: (Sim:1h23m24s) 
CPU  0 inst:  244000004 cyc:  473111145 now IPC :1.63298: AVG IPC :0.51257: L2-Pf-HR :0.99816: L2-HR :0.88503: (Sim:1h23m45s) 
CPU  0 inst:  245000001 cyc:  473669902 now IPC :1.78968: AVG IPC :0.51408: L2-Pf-HR :0.99816: L2-HR :0.88538: (Sim:1h24m4s) 
CPU  0 inst:  246000000 cyc:  474237104 now IPC :1.76304: AVG IPC :0.51558: L2-Pf-HR :0.99815: L2-HR :0.88558: (Sim:1h24m24s) 
CPU  0 inst:  247000001 cyc:  474747201 now IPC :1.96041: AVG IPC :0.51714: L2-Pf-HR :0.99813: L2-HR :0.88598: (Sim:1h24m43s) 
CPU  0 inst:  248000000 cyc:  475269329 now IPC :1.91524: AVG IPC :0.51867: L2-Pf-HR :0.99812: L2-HR :0.88623: (Sim:1h25m2s) 
CPU  0 inst:  249000001 cyc:  475899410 now IPC :1.58710: AVG IPC :0.52009: L2-Pf-HR :0.99811: L2-HR :0.88637: (Sim:1h25m23s) 
CPU  0 inst:  250000002 cyc:  476395391 now IPC :2.01621: AVG IPC :0.52165: L2-Pf-HR :0.99811: L2-HR :0.88669: (Sim:1h25m41s) 
CPU  0 inst:  251000002 cyc:  477039219 now IPC :1.55321: AVG IPC :0.52305: L2-Pf-HR :0.99811: L2-HR :0.88684: (Sim:1h26m2s) 
CPU  0 inst:  252000001 cyc:  477494803 now IPC :2.19498: AVG IPC :0.52465: L2-Pf-HR :0.99809: L2-HR :0.88719: (Sim:1h26m20s) 
CPU  0 inst:  253000005 cyc:  478067251 now IPC :1.74689: AVG IPC :0.52611: L2-Pf-HR :0.99807: L2-HR :0.88740: (Sim:1h26m41s) 
CPU  0 inst:  254000003 cyc:  478555554 now IPC :2.04790: AVG IPC :0.52767: L2-Pf-HR :0.99806: L2-HR :0.88773: (Sim:1h26m59s) 
CPU  0 inst:  255000001 cyc:  479162904 now IPC :1.64649: AVG IPC :0.52909: L2-Pf-HR :0.99805: L2-HR :0.88780: (Sim:1h27m20s) 
CPU  0 inst:  256000002 cyc:  479720868 now IPC :1.79223: AVG IPC :0.53056: L2-Pf-HR :0.99805: L2-HR :0.88808: (Sim:1h27m39s) 
CPU  0 inst:  257000001 cyc:  480292089 now IPC :1.75063: AVG IPC :0.53202: L2-Pf-HR :0.99804: L2-HR :0.88820: (Sim:1h27m59s) 
CPU  0 inst:  258000002 cyc:  480808697 now IPC :1.93571: AVG IPC :0.53353: L2-Pf-HR :0.99802: L2-HR :0.88851: (Sim:1h28m18s) 
CPU  0 inst:  259000000 cyc:  481322668 now IPC :1.94563: AVG IPC :0.53504: L2-Pf-HR :0.99801: L2-HR :0.88868: (Sim:1h28m37s) 
CPU  0 inst:  260000001 cyc:  481939405 now IPC :1.62144: AVG IPC :0.53643: L2-Pf-HR :0.99798: L2-HR :0.88873: (Sim:1h28m57s) 
CPU  0 inst:  261000002 cyc:  482434101 now IPC :2.02145: AVG IPC :0.53796: L2-Pf-HR :0.99798: L2-HR :0.88898: (Sim:1h29m15s) 
CPU  0 inst:  262000000 cyc:  483082986 now IPC :1.54110: AVG IPC :0.53931: L2-Pf-HR :0.99798: L2-HR :0.88905: (Sim:1h29m35s) 
CPU  0 inst:  263000002 cyc:  483537090 now IPC :2.20214: AVG IPC :0.54087: L2-Pf-HR :0.99796: L2-HR :0.88933: (Sim:1h29m53s) 
CPU  0 inst:  264000003 cyc:  484101927 now IPC :1.77042: AVG IPC :0.54231: L2-Pf-HR :0.99795: L2-HR :0.88950: (Sim:1h30m12s) 
CPU  0 inst:  265000000 cyc:  484599576 now IPC :2.00944: AVG IPC :0.54382: L2-Pf-HR :0.99794: L2-HR :0.88974: (Sim:1h30m31s) 
CPU  0 inst:  266000001 cyc:  485202491 now IPC :1.65861: AVG IPC :0.54521: L2-Pf-HR :0.99792: L2-HR :0.88977: (Sim:1h30m50s) 
CPU  0 inst:  267000005 cyc:  485752479 now IPC :1.81823: AVG IPC :0.54665: L2-Pf-HR :0.99791: L2-HR :0.89000: (Sim:1h31m9s) 
CPU  0 inst:  268000005 cyc:  486323510 now IPC :1.75122: AVG IPC :0.54807: L2-Pf-HR :0.99790: L2-HR :0.89006: (Sim:1h31m28s) 
CPU  0 inst:  269000003 cyc:  486834170 now IPC :1.95825: AVG IPC :0.54955: L2-Pf-HR :0.99789: L2-HR :0.89032: (Sim:1h31m47s) 
CPU  0 inst:  270000001 cyc:  487349724 now IPC :1.93966: AVG IPC :0.55102: L2-Pf-HR :0.99787: L2-HR :0.89042: (Sim:1h32m6s) 
CPU  0 inst:  271000005 cyc:  487968870 now IPC :1.61513: AVG IPC :0.55238: L2-Pf-HR :0.99784: L2-HR :0.89044: (Sim:1h32m26s) 
CPU  0 inst:  272000003 cyc:  488468425 now IPC :2.00178: AVG IPC :0.55386: L2-Pf-HR :0.99785: L2-HR :0.89062: (Sim:1h32m44s) 
CPU  0 inst:  273000001 cyc:  489082324 now IPC :1.62893: AVG IPC :0.55522: L2-Pf-HR :0.99785: L2-HR :0.89073: (Sim:1h33m4s) 
CPU  0 inst:  274000000 cyc:  489583039 now IPC :1.99714: AVG IPC :0.55669: L2-Pf-HR :0.99782: L2-HR :0.89087: (Sim:1h33m23s) 
CPU  0 inst:  275000003 cyc:  490092552 now IPC :1.96266: AVG IPC :0.55816: L2-Pf-HR :0.99781: L2-HR :0.89110: (Sim:1h33m41s) 
CPU  0 inst:  276000004 cyc:  490618132 now IPC :1.90266: AVG IPC :0.55960: L2-Pf-HR :0.99779: L2-HR :0.89119: (Sim:1h34m1s) 
CPU  0 inst:  277000002 cyc:  491251321 now IPC :1.57930: AVG IPC :0.56092: L2-Pf-HR :0.99777: L2-HR :0.89116: (Sim:1h34m22s) 
CPU  0 inst:  278000004 cyc:  491804123 now IPC :1.80897: AVG IPC :0.56232: L2-Pf-HR :0.99777: L2-HR :0.89134: (Sim:1h34m41s) 
CPU  0 inst:  279000001 cyc:  492374812 now IPC :1.75226: AVG IPC :0.56371: L2-Pf-HR :0.99776: L2-HR :0.89136: (Sim:1h35m1s) 
CPU  0 inst:  280000001 cyc:  492849101 now IPC :2.10842: AVG IPC :0.56519: L2-Pf-HR :0.99775: L2-HR :0.89160: (Sim:1h35m19s) 
CPU  0 inst:  281000001 cyc:  493402666 now IPC :1.80647: AVG IPC :0.56659: L2-Pf-HR :0.99773: L2-HR :0.89162: (Sim:1h35m39s) 
CPU  0 inst:  282000003 cyc:  493949121 now IPC :1.82998: AVG IPC :0.56799: L2-Pf-HR :0.99771: L2-HR :0.89172: (Sim:1h35m58s) 
CPU  0 inst:  283000002 cyc:  494531063 now IPC :1.71838: AVG IPC :0.56935: L2-Pf-HR :0.99771: L2-HR :0.89175: (Sim:1h36m18s) 
CPU  0 inst:  284000000 cyc:  495086014 now IPC :1.80196: AVG IPC :0.57073: L2-Pf-HR :0.99770: L2-HR :0.89190: (Sim:1h36m37s) 
CPU  0 inst:  285000001 cyc:  495640556 now IPC :1.80329: AVG IPC :0.57211: L2-Pf-HR :0.99769: L2-HR :0.89192: (Sim:1h36m57s) 
CPU  0 inst:  286000002 cyc:  496140691 now IPC :1.99946: AVG IPC :0.57355: L2-Pf-HR :0.99767: L2-HR :0.89211: (Sim:1h37m16s) 
CPU  0 inst:  287000000 cyc:  496663723 now IPC :1.91193: AVG IPC :0.57497: L2-Pf-HR :0.99765: L2-HR :0.89216: (Sim:1h37m35s) 
CPU  0 inst:  288000003 cyc:  497301307 now IPC :1.56843: AVG IPC :0.57624: L2-Pf-HR :0.99764: L2-HR :0.89211: (Sim:1h37m56s) 
CPU  0 inst:  289000001 cyc:  497810085 now IPC :1.96549: AVG IPC :0.57767: L2-Pf-HR :0.99763: L2-HR :0.89230: (Sim:1h38m15s) 
CPU  0 inst:  290000005 cyc:  498427419 now IPC :1.61988: AVG IPC :0.57896: L2-Pf-HR :0.99763: L2-HR :0.89225: (Sim:1h38m34s) 
CPU  0 inst:  291000000 cyc:  498892886 now IPC :2.14837: AVG IPC :0.58043: L2-Pf-HR :0.99761: L2-HR :0.89247: (Sim:1h38m51s) 
CPU  0 inst:  292000005 cyc:  499457014 now IPC :1.77266: AVG IPC :0.58178: L2-Pf-HR :0.99760: L2-HR :0.89250: (Sim:1h39m10s) 
CPU  0 inst:  293000000 cyc:  499946892 now IPC :2.04131: AVG IPC :0.58321: L2-Pf-HR :0.99758: L2-HR :0.89265: (Sim:1h39m28s) 
CPU  0 inst:  294000003 cyc:  500566721 now IPC :1.61335: AVG IPC :0.58449: L2-Pf-HR :0.99757: L2-HR :0.89261: (Sim:1h39m48s) 
CPU  0 inst:  295000005 cyc:  501124815 now IPC :1.79182: AVG IPC :0.58583: L2-Pf-HR :0.99757: L2-HR :0.89274: (Sim:1h40m6s) 
CPU  0 inst:  296000001 cyc:  501680978 now IPC :1.79803: AVG IPC :0.58718: L2-Pf-HR :0.99755: L2-HR :0.89277: (Sim:1h40m24s) 
CPU  0 inst:  297000003 cyc:  502190056 now IPC :1.96434: AVG IPC :0.58858: L2-Pf-HR :0.99754: L2-HR :0.89294: (Sim:1h40m41s) 
CPU  0 inst:  298000005 cyc:  502711089 now IPC :1.91927: AVG IPC :0.58996: L2-Pf-HR :0.99752: L2-HR :0.89298: (Sim:1h41m0s) 
CPU  0 inst:  299000002 cyc:  503346962 now IPC :1.57264: AVG IPC :0.59121: L2-Pf-HR :0.99751: L2-HR :0.89293: (Sim:1h41m20s) 
CPU  0 inst:  300000005 cyc:  503856225 now IPC :1.96363: AVG IPC :0.59259: L2-Pf-HR :0.99750: L2-HR :0.89310: (Sim:1h41m38s) 
CPU  0 inst:  301000000 cyc:  504486399 now IPC :1.58686: AVG IPC :0.59384: L2-Pf-HR :0.99750: L2-HR :0.89305: (Sim:1h41m58s) 
CPU  0 inst:  302000005 cyc:  504939871 now IPC :2.20522: AVG IPC :0.59529: L2-Pf-HR :0.99748: L2-HR :0.89326: (Sim:1h42m15s) 
CPU  0 inst:  303000003 cyc:  505509957 now IPC :1.75412: AVG IPC :0.59660: L2-Pf-HR :0.99747: L2-HR :0.89330: (Sim:1h42m34s) 
CPU  0 inst:  304000001 cyc:  505997444 now IPC :2.05133: AVG IPC :0.59800: L2-Pf-HR :0.99745: L2-HR :0.89344: (Sim:1h42m51s) 
CPU  0 inst:  305000005 cyc:  506606576 now IPC :1.64169: AVG IPC :0.59926: L2-Pf-HR :0.99744: L2-HR :0.89342: (Sim:1h43m10s) 
CPU  0 inst:  306000000 cyc:  507176504 now IPC :1.75460: AVG IPC :0.60056: L2-Pf-HR :0.99744: L2-HR :0.89354: (Sim:1h43m29s) 
CPU  0 inst:  307000005 cyc:  507736198 now IPC :1.78670: AVG IPC :0.60187: L2-Pf-HR :0.99743: L2-HR :0.89355: (Sim:1h43m48s) 
CPU  0 inst:  308000004 cyc:  508244959 now IPC :1.96556: AVG IPC :0.60324: L2-Pf-HR :0.99741: L2-HR :0.89373: (Sim:1h44m6s) 
CPU  0 inst:  309000002 cyc:  508765216 now IPC :1.92212: AVG IPC :0.60459: L2-Pf-HR :0.99740: L2-HR :0.89377: (Sim:1h44m25s) 
CPU  0 inst:  310000005 cyc:  509391866 now IPC :1.59579: AVG IPC :0.60581: L2-Pf-HR :0.99738: L2-HR :0.89373: (Sim:1h44m44s) 
CPU  0 inst:  311000001 cyc:  509889164 now IPC :2.01086: AVG IPC :0.60718: L2-Pf-HR :0.99738: L2-HR :0.89388: (Sim:1h45m1s) 
CPU  0 inst:  312000004 cyc:  510523825 now IPC :1.57565: AVG IPC :0.60839: L2-Pf-HR :0.99738: L2-HR :0.89385: (Sim:1h45m21s) 
CPU  0 inst:  313000001 cyc:  510976935 now IPC :2.20696: AVG IPC :0.60981: L2-Pf-HR :0.99736: L2-HR :0.89405: (Sim:1h45m39s) 
CPU  0 inst:  314000000 cyc:  511548693 now IPC :1.74899: AVG IPC :0.61109: L2-Pf-HR :0.99735: L2-HR :0.89409: (Sim:1h45m58s) 
CPU  0 inst:  315000000 cyc:  512036115 now IPC :2.05161: AVG IPC :0.61246: L2-Pf-HR :0.99734: L2-HR :0.89424: (Sim:1h46m15s) 
CPU  0 inst:  316000000 cyc:  512644054 now IPC :1.64490: AVG IPC :0.61369: L2-Pf-HR :0.99733: L2-HR :0.89421: (Sim:1h46m34s) 
CPU  0 inst:  317000005 cyc:  513201292 now IPC :1.79457: AVG IPC :0.61497: L2-Pf-HR :0.99733: L2-HR :0.89434: (Sim:1h46m53s) 
CPU  0 inst:  318000000 cyc:  513766170 now IPC :1.77028: AVG IPC :0.61625: L2-Pf-HR :0.99732: L2-HR :0.89434: (Sim:1h47m12s) 
CPU  0 inst:  319000002 cyc:  514274168 now IPC :1.96852: AVG IPC :0.61758: L2-Pf-HR :0.99730: L2-HR :0.89451: (Sim:1h47m30s) 
CPU  0 inst:  320000000 cyc:  514796375 now IPC :1.91495: AVG IPC :0.61890: L2-Pf-HR :0.99729: L2-HR :0.89455: (Sim:1h47m49s) 
CPU  0 inst:  321000004 cyc:  515417515 now IPC :1.60995: AVG IPC :0.62010: L2-Pf-HR :0.99727: L2-HR :0.89450: (Sim:1h48m8s) 
CPU  0 inst:  322000002 cyc:  515922591 now IPC :1.97990: AVG IPC :0.62143: L2-Pf-HR :0.99727: L2-HR :0.89463: (Sim:1h48m25s) 
CPU  0 inst:  323000005 cyc:  516566719 now IPC :1.55249: AVG IPC :0.62260: L2-Pf-HR :0.99727: L2-HR :0.89460: (Sim:1h48m46s) 
CPU  0 inst:  324000002 cyc:  517019126 now IPC :2.21039: AVG IPC :0.62399: L2-Pf-HR :0.99725: L2-HR :0.89476: (Sim:1h49m3s) 
CPU  0 inst:  325000005 cyc:  517592608 now IPC :1.74374: AVG IPC :0.62523: L2-Pf-HR :0.99724: L2-HR :0.89480: (Sim:1h49m23s) 
CPU  0 inst:  326000003 cyc:  518079382 now IPC :2.05434: AVG IPC :0.62658: L2-Pf-HR :0.99723: L2-HR :0.89493: (Sim:1h49m39s) 
CPU  0 inst:  327000001 cyc:  518689365 now IPC :1.63939: AVG IPC :0.62777: L2-Pf-HR :0.99721: L2-HR :0.89488: (Sim:1h49m58s) 
CPU  0 inst:  328000000 cyc:  519248715 now IPC :1.78779: AVG IPC :0.62902: L2-Pf-HR :0.99721: L2-HR :0.89500: (Sim:1h50m17s) 
CPU  0 inst:  329000004 cyc:  519814421 now IPC :1.76771: AVG IPC :0.63026: L2-Pf-HR :0.99720: L2-HR :0.89498: (Sim:1h50m36s) 
CPU  0 inst:  330000003 cyc:  520324642 now IPC :1.95993: AVG IPC :0.63157: L2-Pf-HR :0.99719: L2-HR :0.89515: (Sim:1h50m54s) 
CPU  0 inst:  331000000 cyc:  520841506 now IPC :1.93474: AVG IPC :0.63286: L2-Pf-HR :0.99717: L2-HR :0.89517: (Sim:1h51m13s) 
CPU  0 inst:  332000005 cyc:  521460459 now IPC :1.61564: AVG IPC :0.63403: L2-Pf-HR :0.99715: L2-HR :0.89512: (Sim:1h51m33s) 
CPU  0 inst:  333000003 cyc:  521962502 now IPC :1.99186: AVG IPC :0.63534: L2-Pf-HR :0.99715: L2-HR :0.89523: (Sim:1h51m50s) 
CPU  0 inst:  334000002 cyc:  522585002 now IPC :1.60642: AVG IPC :0.63650: L2-Pf-HR :0.99715: L2-HR :0.89523: (Sim:1h52m9s) 
CPU  0 inst:  335000000 cyc:  523059418 now IPC :2.10785: AVG IPC :0.63784: L2-Pf-HR :0.99714: L2-HR :0.89535: (Sim:1h52m27s) 
CPU  0 inst:  336000005 cyc:  523586391 now IPC :1.89764: AVG IPC :0.63911: L2-Pf-HR :0.99712: L2-HR :0.89546: (Sim:1h52m45s) 
CPU  0 inst:  337000002 cyc:  524098330 now IPC :1.95335: AVG IPC :0.64039: L2-Pf-HR :0.99711: L2-HR :0.89553: (Sim:1h53m3s) 
CPU  0 inst:  338000000 cyc:  524730309 now IPC :1.58233: AVG IPC :0.64153: L2-Pf-HR :0.99709: L2-HR :0.89545: (Sim:1h53m24s) 
CPU  0 inst:  339000005 cyc:  525281506 now IPC :1.81424: AVG IPC :0.64276: L2-Pf-HR :0.99709: L2-HR :0.89557: (Sim:1h53m42s) 
CPU  0 inst:  340000005 cyc:  525846590 now IPC :1.76965: AVG IPC :0.64398: L2-Pf-HR :0.99708: L2-HR :0.89554: (Sim:1h54m0s) 
CPU  0 inst:  341000000 cyc:  526321645 now IPC :2.10501: AVG IPC :0.64530: L2-Pf-HR :0.99706: L2-HR :0.89573: (Sim:1h54m18s) 
CPU  0 inst:  342000003 cyc:  526867956 now IPC :1.83046: AVG IPC :0.64653: L2-Pf-HR :0.99705: L2-HR :0.89570: (Sim:1h54m37s) 
CPU  0 inst:  343000005 cyc:  527442511 now IPC :1.74048: AVG IPC :0.64772: L2-Pf-HR :0.99704: L2-HR :0.89571: (Sim:1h54m56s) 
CPU  0 inst:  344000003 cyc:  527986076 now IPC :1.83970: AVG IPC :0.64895: L2-Pf-HR :0.99703: L2-HR :0.89574: (Sim:1h55m14s) 
CPU  0 inst:  345000000 cyc:  528554937 now IPC :1.75789: AVG IPC :0.65015: L2-Pf-HR :0.99702: L2-HR :0.89583: (Sim:1h55m32s) 
CPU  0 inst:  346000000 cyc:  529086792 now IPC :1.88021: AVG IPC :0.65139: L2-Pf-HR :0.99701: L2-HR :0.89584: (Sim:1h55m51s) 
CPU  0 inst:  347000003 cyc:  529591102 now IPC :1.98291: AVG IPC :0.65266: L2-Pf-HR :0.99699: L2-HR :0.89597: (Sim:1h56m9s) 
CPU  0 inst:  348000004 cyc:  530113801 now IPC :1.91315: AVG IPC :0.65390: L2-Pf-HR :0.99698: L2-HR :0.89599: (Sim:1h56m28s) 
CPU  0 inst:  349000001 cyc:  530752989 now IPC :1.56448: AVG IPC :0.65500: L2-Pf-HR :0.99696: L2-HR :0.89593: (Sim:1h56m48s) 
CPU  0 inst:  350000004 cyc:  531261900 now IPC :1.96499: AVG IPC :0.65626: L2-Pf-HR :0.99696: L2-HR :0.89607: (Sim:1h57m5s) 
CPU  0 inst:  351000000 cyc:  531870842 now IPC :1.64219: AVG IPC :0.65739: L2-Pf-HR :0.99695: L2-HR :0.89599: (Sim:1h57m24s) 
CPU  0 inst:  352000004 cyc:  532340173 now IPC :2.13070: AVG IPC :0.65869: L2-Pf-HR :0.99694: L2-HR :0.89616: (Sim:1h57m41s) 
CPU  0 inst:  353000001 cyc:  532897183 now IPC :1.79529: AVG IPC :0.65988: L2-Pf-HR :0.99692: L2-HR :0.89615: (Sim:1h58m1s) 
CPU  0 inst:  354000002 cyc:  533390972 now IPC :2.02516: AVG IPC :0.66115: L2-Pf-HR :0.99691: L2-HR :0.89625: (Sim:1h58m20s) 
CPU  0 inst:  355000004 cyc:  534016834 now IPC :1.59780: AVG IPC :0.66225: L2-Pf-HR :0.99690: L2-HR :0.89619: (Sim:1h58m41s) 
CPU  0 inst:  356000002 cyc:  534574513 now IPC :1.79314: AVG IPC :0.66343: L2-Pf-HR :0.99690: L2-HR :0.89627: (Sim:1h58m59s) 
CPU  0 inst:  357000000 cyc:  535127907 now IPC :1.80703: AVG IPC :0.66461: L2-Pf-HR :0.99689: L2-HR :0.89628: (Sim:1h59m20s) 
CPU  0 inst:  358000002 cyc:  535640073 now IPC :1.95250: AVG IPC :0.66585: L2-Pf-HR :0.99687: L2-HR :0.89639: (Sim:1h59m37s) 
CPU  0 inst:  359000000 cyc:  536161448 now IPC :1.91800: AVG IPC :0.66707: L2-Pf-HR :0.99686: L2-HR :0.89640: (Sim:1h59m56s) 
CPU  0 inst:  360000005 cyc:  536796025 now IPC :1.57586: AVG IPC :0.66814: L2-Pf-HR :0.99684: L2-HR :0.89632: (Sim:2h0m17s) 
CPU  0 inst:  361000004 cyc:  537301510 now IPC :1.97830: AVG IPC :0.66938: L2-Pf-HR :0.99684: L2-HR :0.89644: (Sim:2h0m35s) 
CPU  0 inst:  362000001 cyc:  537920564 now IPC :1.61536: AVG IPC :0.67047: L2-Pf-HR :0.99684: L2-HR :0.89638: (Sim:2h0m55s) 
CPU  0 inst:  363000001 cyc:  538379584 now IPC :2.17855: AVG IPC :0.67176: L2-Pf-HR :0.99682: L2-HR :0.89654: (Sim:2h1m13s) 
CPU  0 inst:  364000005 cyc:  538945493 now IPC :1.76708: AVG IPC :0.67291: L2-Pf-HR :0.99681: L2-HR :0.89654: (Sim:2h1m33s) 
CPU  0 inst:  365000003 cyc:  539434732 now IPC :2.04399: AVG IPC :0.67416: L2-Pf-HR :0.99680: L2-HR :0.89663: (Sim:2h1m51s) 
CPU  0 inst:  366000005 cyc:  540044869 now IPC :1.63898: AVG IPC :0.67525: L2-Pf-HR :0.99679: L2-HR :0.89658: (Sim:2h2m10s) 
CPU  0 inst:  367000000 cyc:  540600554 now IPC :1.79957: AVG IPC :0.67641: L2-Pf-HR :0.99679: L2-HR :0.89666: (Sim:2h2m29s) 
CPU  0 inst:  368000004 cyc:  541162114 now IPC :1.78076: AVG IPC :0.67755: L2-Pf-HR :0.99678: L2-HR :0.89664: (Sim:2h2m49s) 
CPU  0 inst:  369000003 cyc:  541676465 now IPC :1.94420: AVG IPC :0.67876: L2-Pf-HR :0.99676: L2-HR :0.89676: (Sim:2h3m7s) 
CPU  0 inst:  370000005 cyc:  542201039 now IPC :1.90631: AVG IPC :0.67995: L2-Pf-HR :0.99675: L2-HR :0.89677: (Sim:2h3m26s) 
CPU  0 inst:  371000003 cyc:  542826236 now IPC :1.59949: AVG IPC :0.68101: L2-Pf-HR :0.99673: L2-HR :0.89669: (Sim:2h3m46s) 
CPU  0 inst:  372000001 cyc:  543324590 now IPC :2.00660: AVG IPC :0.68223: L2-Pf-HR :0.99673: L2-HR :0.89680: (Sim:2h4m4s) 
CPU  0 inst:  373000003 cyc:  543953401 now IPC :1.59031: AVG IPC :0.68328: L2-Pf-HR :0.99672: L2-HR :0.89674: (Sim:2h4m24s) 
CPU  0 inst:  374000000 cyc:  544406405 now IPC :2.20748: AVG IPC :0.68455: L2-Pf-HR :0.99671: L2-HR :0.89688: (Sim:2h4m41s) 
CPU  0 inst:  375000003 cyc:  544977305 now IPC :1.75163: AVG IPC :0.68567: L2-Pf-HR :0.99670: L2-HR :0.89689: (Sim:2h5m1s) 
CPU  0 inst:  376000004 cyc:  545465215 now IPC :2.04956: AVG IPC :0.68689: L2-Pf-HR :0.99669: L2-HR :0.89698: (Sim:2h5m18s) 
CPU  0 inst:  377000000 cyc:  546073670 now IPC :1.64350: AVG IPC :0.68796: L2-Pf-HR :0.99668: L2-HR :0.89692: (Sim:2h5m27s) 
CPU  0 inst:  378000005 cyc:  546632698 now IPC :1.78883: AVG IPC :0.68909: L2-Pf-HR :0.99668: L2-HR :0.89700: (Sim:2h5m37s) 
CPU  0 inst:  379000005 cyc:  547196316 now IPC :1.77425: AVG IPC :0.69021: L2-Pf-HR :0.99667: L2-HR :0.89697: (Sim:2h5m46s) 
CPU  0 inst:  380000004 cyc:  547705720 now IPC :1.96308: AVG IPC :0.69139: L2-Pf-HR :0.99665: L2-HR :0.89710: (Sim:2h5m55s) 
CPU  0 inst:  381000002 cyc:  548235336 now IPC :1.88816: AVG IPC :0.69255: L2-Pf-HR :0.99664: L2-HR :0.89710: (Sim:2h6m5s) 
CPU  0 inst:  382000003 cyc:  548855505 now IPC :1.61247: AVG IPC :0.69359: L2-Pf-HR :0.99662: L2-HR :0.89702: (Sim:2h6m15s) 
CPU  0 inst:  383000001 cyc:  549352557 now IPC :2.01186: AVG IPC :0.69479: L2-Pf-HR :0.99662: L2-HR :0.89711: (Sim:2h6m23s) 
CPU  0 inst:  384000000 cyc:  549986856 now IPC :1.57654: AVG IPC :0.69581: L2-Pf-HR :0.99662: L2-HR :0.89706: (Sim:2h6m34s) 
CPU  0 inst:  385000001 cyc:  550440045 now IPC :2.20659: AVG IPC :0.69705: L2-Pf-HR :0.99661: L2-HR :0.89719: (Sim:2h6m42s) 
CPU  0 inst:  386000001 cyc:  551010914 now IPC :1.75172: AVG IPC :0.69815: L2-Pf-HR :0.99660: L2-HR :0.89721: (Sim:2h6m52s) 
CPU  0 inst:  387000005 cyc:  551501388 now IPC :2.03885: AVG IPC :0.69934: L2-Pf-HR :0.99659: L2-HR :0.89729: (Sim:2h7m1s) 
CPU  0 inst:  388000001 cyc:  552105297 now IPC :1.65587: AVG IPC :0.70039: L2-Pf-HR :0.99658: L2-HR :0.89722: (Sim:2h7m11s) 
CPU  0 inst:  389000005 cyc:  552658071 now IPC :1.80906: AVG IPC :0.70150: L2-Pf-HR :0.99658: L2-HR :0.89731: (Sim:2h7m20s) 
CPU  0 inst:  390000003 cyc:  553224895 now IPC :1.76421: AVG IPC :0.70259: L2-Pf-HR :0.99657: L2-HR :0.89727: (Sim:2h7m30s) 
CPU  0 inst:  391000002 cyc:  553732254 now IPC :1.97099: AVG IPC :0.70376: L2-Pf-HR :0.99656: L2-HR :0.89739: (Sim:2h7m39s) 
CPU  0 inst:  392000001 cyc:  554250144 now IPC :1.93091: AVG IPC :0.70490: L2-Pf-HR :0.99654: L2-HR :0.89740: (Sim:2h7m48s) 
CPU  0 inst:  393000004 cyc:  554866785 now IPC :1.62169: AVG IPC :0.70592: L2-Pf-HR :0.99653: L2-HR :0.89732: (Sim:2h8m0s) 
CPU  0 inst:  394000002 cyc:  555363080 now IPC :2.01493: AVG IPC :0.70710: L2-Pf-HR :0.99653: L2-HR :0.89740: (Sim:2h8m10s) 
CPU  0 inst:  395000000 cyc:  556010910 now IPC :1.54361: AVG IPC :0.70807: L2-Pf-HR :0.99653: L2-HR :0.89735: (Sim:2h8m20s) 
CPU  0 inst:  396000005 cyc:  556469011 now IPC :2.18294: AVG IPC :0.70929: L2-Pf-HR :0.99651: L2-HR :0.89747: (Sim:2h8m28s) 
CPU  0 inst:  397000001 cyc:  557020304 now IPC :1.81391: AVG IPC :0.71038: L2-Pf-HR :0.99650: L2-HR :0.89751: (Sim:2h8m38s) 
CPU  0 inst:  398000002 cyc:  557517521 now IPC :2.01120: AVG IPC :0.71155: L2-Pf-HR :0.99649: L2-HR :0.89758: (Sim:2h8m47s) 
CPU  0 inst:  399000001 cyc:  558132405 now IPC :1.62632: AVG IPC :0.71256: L2-Pf-HR :0.99648: L2-HR :0.89749: (Sim:2h8m57s) 
CPU  0 inst:  400000000 cyc:  558676508 now IPC :1.83789: AVG IPC :0.71365: L2-Pf-HR :0.99647: L2-HR :0.89757: (Sim:2h9m11s) 
CPU  0 inst:  401000004 cyc:  559251524 now IPC :1.73909: AVG IPC :0.71471: L2-Pf-HR :0.99647: L2-HR :0.89753: (Sim:2h9m31s) 
CPU  0 inst:  402000004 cyc:  559758659 now IPC :1.97186: AVG IPC :0.71585: L2-Pf-HR :0.99646: L2-HR :0.89765: (Sim:2h9m49s) 
CPU  0 inst:  403000000 cyc:  560281546 now IPC :1.91245: AVG IPC :0.71697: L2-Pf-HR :0.99644: L2-HR :0.89764: (Sim:2h10m8s) 
CPU  0 inst:  404000005 cyc:  560883456 now IPC :1.66139: AVG IPC :0.71799: L2-Pf-HR :0.99642: L2-HR :0.89760: (Sim:2h10m28s) 
CPU  0 inst:  405000003 cyc:  561392803 now IPC :1.96329: AVG IPC :0.71912: L2-Pf-HR :0.99642: L2-HR :0.89765: (Sim:2h10m46s) 
CPU  0 inst:  406000002 cyc:  561983623 now IPC :1.69256: AVG IPC :0.72014: L2-Pf-HR :0.99642: L2-HR :0.89767: (Sim:2h11m5s) 
Finished CPU 0 instr: 404000005 cyc: 561000440 AVG IPC: 0.72014 (Sim time: 2h11m5s)

ChampSim completed all CPUs

[ROI Statistics]
Core_0_instructions 404000005
Core_0_cycles 561000440
Core_0_IPC 0.72014

Core_0_branch_prediction_accuracy 98.90148
Core_0_branch_MPKI 0.32729
Core_0_average_ROB_occupancy_at_mispredict 536.94708

Core_0_L1D_total_access 98202533
Core_0_L1D_total_hit 89620355 L1D_total_Hit Ratio: 0.91261
Core_0_L1D_total_miss 8582178
Core_0_L1D_loads 86382646
Core_0_L1D_load_hit 78408191 L1D_load_Hit Ratio: 0.90768
Core_0_L1D_load_miss 7974455
Core_0_L1D_RFOs 11220219
Core_0_L1D_RFO_hit 10612496 L1D_RFO_Hit Ratio: 0.94584
Core_0_L1D_RFO_miss 607723
Core_0_L1D_prefetches 599668
Core_0_L1D_prefetch_hit 599668 L1D_prefetch_Hit Ratio: 1.00000
Core_0_L1D_prefetch_miss 0
Core_0_L1D_writebacks 0
Core_0_L1D_writeback_hit 0 L1D_writeback_Hit Ratio: -nan
Core_0_L1D_writeback_miss 0
Core_0_L1D_prefetch_requested 41043311
Core_0_L1D_prefetch_issued 21665529
Core_0_L1D_prefetch_useful 0 L1D_Useful Ratio: 0.00000
Core_0_L1D_prefetch_useless 0
Core_0_L1D_prefetch_late 0
Core_0_L1D_average_miss_latency 126.81920

Core_0_L1I_total_access 55419417
Core_0_L1I_total_hit 55414549 L1I_total_Hit Ratio: 0.99991
Core_0_L1I_total_miss 4868
Core_0_L1I_loads 55419417
Core_0_L1I_load_hit 55414549 L1I_load_Hit Ratio: 0.99991
Core_0_L1I_load_miss 4868
Core_0_L1I_RFOs 0
Core_0_L1I_RFO_hit 0 L1I_RFO_Hit Ratio: -nan
Core_0_L1I_RFO_miss 0
Core_0_L1I_prefetches 0
Core_0_L1I_prefetch_hit 0 L1I_prefetch_Hit Ratio: -nan
Core_0_L1I_prefetch_miss 0
Core_0_L1I_writebacks 0
Core_0_L1I_writeback_hit 0 L1I_writeback_Hit Ratio: -nan
Core_0_L1I_writeback_miss 0
Core_0_L1I_prefetch_requested 0
Core_0_L1I_prefetch_issued 0
Core_0_L1I_prefetch_useful 0 L1I_Useful Ratio: -nan
Core_0_L1I_prefetch_useless 0
Core_0_L1I_prefetch_late 0
Core_0_L1I_average_miss_latency 282.22843

Core_0_L2C_total_access 30316709
Core_0_L2C_total_hit 27214539 L2C_total_Hit Ratio: 0.89767
Core_0_L2C_total_miss 3102170
Core_0_L2C_loads 7979322
Core_0_L2C_load_hit 5471197 L2C_load_Hit Ratio: 0.68567
Core_0_L2C_load_miss 2508125
Core_0_L2C_RFOs 607723
Core_0_L2C_RFO_hit 81229 L2C_RFO_Hit Ratio: 0.13366
Core_0_L2C_RFO_miss 526494
Core_0_L2C_prefetches 18876605
Core_0_L2C_prefetch_hit 18809060 L2C_prefetch_Hit Ratio: 0.99642
Core_0_L2C_prefetch_miss 67545
Core_0_L2C_writebacks 2853059
Core_0_L2C_writeback_hit 2853053 L2C_writeback_Hit Ratio: 1.00000
Core_0_L2C_writeback_miss 6
Core_0_L2C_prefetch_requested 8964992
Core_0_L2C_prefetch_issued 128477
Core_0_L2C_prefetch_useful 67443 L2C_Useful Ratio: 0.52494
Core_0_L2C_prefetch_useless 102
Core_0_L2C_prefetch_late 5562
Core_0_L2C_average_miss_latency 309.78915

Core_0_LLC_total_access 4876512
Core_0_LLC_total_hit 1922657 LLC_total_Hit Ratio: 0.39427
Core_0_LLC_total_miss 2953855
Core_0_LLC_loads 2502558
Core_0_LLC_load_hit 87122 LLC_load_Hit Ratio: 0.03481
Core_0_LLC_load_miss 2415436
Core_0_LLC_RFOs 526491
Core_0_LLC_RFO_hit 1692 LLC_RFO_Hit Ratio: 0.00321
Core_0_LLC_RFO_miss 524799
Core_0_LLC_prefetches 100592
Core_0_LLC_prefetch_hit 98102 LLC_prefetch_Hit Ratio: 0.97525
Core_0_LLC_prefetch_miss 2490
Core_0_LLC_writebacks 1746871
Core_0_LLC_writeback_hit 1735741 LLC_writeback_Hit Ratio: 0.99363
Core_0_LLC_writeback_miss 11130
Core_0_LLC_prefetch_requested 0
Core_0_LLC_prefetch_issued 0
Core_0_LLC_prefetch_useful 1049 LLC_Useful Ratio: inf
Core_0_LLC_prefetch_useless 1433
Core_0_LLC_prefetch_late 327
Core_0_LLC_average_miss_latency 272.92397

Core_0_major_page_fault 0
Core_0_minor_page_fault 22520

CPU 0 L1D next line prefetcher final stats
Prefetcher final stats
Training Unit Size: 4590
Addr table size: 1374684 1374685


Triggers: 2523796
No Prediction: 1385167 54.88427
Stream end: 24826
No translation: 16093677 637.67741
Predictions: 128477 5.09063


Stream divergence: 37406 1.48213
Stream divergence -- new stream: 0
Channel_0_RQ_row_buffer_hit 1645420
Channel_0_RQ_row_buffer_miss 1297304
Channel_0_WQ_row_buffer_hit 754330
Channel_0_WQ_row_buffer_miss 905823
Channel_0_WQ_full 1699
Channel_0_dbus_congested 1755746

avg_congested_cycle 10

EzSearch AVG IPC :0.72014: L2-Pf-HR :0.99642 : L2-HR :0.89767 Uful:0.52494
     > Finished combination: TraceType=770-tot Sim:404000000 Prefetcher=L2isb_ideal L1=isb_ideal
