TRACE: [83000000][Pythia-70M]_[h8][s512][d64] Warmup: 2000000 NumTraces: 83000000
L1:no:L2:spp_berti_src
Initialize SIGNATURE TABLE
ST_SET: 1
ST_WAY: 256
ST_TAG_BIT: 16
ST_TAG_MASK: ffff

Initialize PATTERN TABLE
PT_SET: 512
PT_WAY: 4
SIG_DELTA_BIT: 7
C_SIG_BIT: 4
C_DELTA_BIT: 4

Initialize PREFETCH FILTER
FILTER_SET: 1024
*************************************************
   ChampSim Multicore Out-of-Order Simulator
   Last compiled: Oct 27 2024 07:04:26
*************************************************

trace_0 770-tot_memTraces_v3/memTraces[83000000][Pythia-70M]_[h8][s512][d64].champsim.xz
ST_WAYS: 256
PT_SETS: 512
MAIN.cc ln 751 stats print skipped
CPU  0 inst:    1000003 cyc:     499815 now IPC :2.00075: AVG IPC :2.00075: L2-Pf-HR :0.97122: L2-HR :0.87036: (Sim:0h0m20s) 
CPU  0 inst:    2000001 cyc:     982777 now IPC :2.07055: AVG IPC :2.03505: L2-Pf-HR :0.97365: L2-HR :0.90362: (Sim:0h0m41s) 

Warmup complete CPU  0 instructions:    2000001 cycles:     982777 (Simulation time: 0 hr 0 min 41 sec) 

CPU  0 inst:    3000004 cyc:    1473345 now IPC :2.03846: AVG IPC :2.03846: L2-Pf-HR :0.98006: L2-HR :0.93684: (Sim:0h0m57s) 
CPU  0 inst:    4000005 cyc:    1993449 now IPC :1.92269: AVG IPC :1.97889: L2-Pf-HR :0.97961: L2-HR :0.92628: (Sim:0h1m14s) 
CPU  0 inst:    5000000 cyc:    2566530 now IPC :1.74495: AVG IPC :1.89423: L2-Pf-HR :0.98338: L2-HR :0.92565: (Sim:0h1m32s) 
CPU  0 inst:    6000004 cyc:    3051835 now IPC :2.06057: AVG IPC :1.93325: L2-Pf-HR :0.98338: L2-HR :0.93101: (Sim:0h1m49s) 
CPU  0 inst:    7000002 cyc:    3539941 now IPC :2.04873: AVG IPC :1.95529: L2-Pf-HR :0.98328: L2-HR :0.93376: (Sim:0h2m6s) 
CPU  0 inst:    8000001 cyc:    4064101 now IPC :1.90781: AVG IPC :1.94721: L2-Pf-HR :0.98290: L2-HR :0.93159: (Sim:0h2m22s) 
CPU  0 inst:    9000004 cyc:    4646687 now IPC :1.71649: AVG IPC :1.91053: L2-Pf-HR :0.98434: L2-HR :0.93046: (Sim:0h2m39s) 
CPU  0 inst:   10000002 cyc:    5132639 now IPC :2.05781: AVG IPC :1.92778: L2-Pf-HR :0.98612: L2-HR :0.93355: (Sim:0h2m56s) 
CPU  0 inst:   11000003 cyc:    5618125 now IPC :2.05979: AVG IPC :1.94160: L2-Pf-HR :0.98736: L2-HR :0.93565: (Sim:0h3m13s) 
CPU  0 inst:   12000005 cyc:    6149987 now IPC :1.88019: AVG IPC :1.93528: L2-Pf-HR :0.98793: L2-HR :0.93514: (Sim:0h3m30s) 
CPU  0 inst:   13000002 cyc:    6748304 now IPC :1.67135: AVG IPC :1.90789: L2-Pf-HR :0.98826: L2-HR :0.93337: (Sim:0h3m47s) 
CPU  0 inst:   14000002 cyc:    7250387 now IPC :1.99170: AVG IPC :1.91461: L2-Pf-HR :0.98782: L2-HR :0.93423: (Sim:0h4m4s) 
CPU  0 inst:   15000003 cyc:    7751499 now IPC :1.99556: AVG IPC :1.92060: L2-Pf-HR :0.98735: L2-HR :0.93503: (Sim:0h4m21s) 
CPU  0 inst:   16000000 cyc:    8303235 now IPC :1.81246: AVG IPC :1.91245: L2-Pf-HR :0.98717: L2-HR :0.93465: (Sim:0h4m38s) 
CPU  0 inst:   17000000 cyc:    8923621 now IPC :1.61190: AVG IPC :1.88897: L2-Pf-HR :0.98714: L2-HR :0.93310: (Sim:0h4m56s) 
CPU  0 inst:   18000000 cyc:    9422799 now IPC :2.00329: AVG IPC :1.89573: L2-Pf-HR :0.98680: L2-HR :0.93383: (Sim:0h5m12s) 
CPU  0 inst:   19000001 cyc:    9929214 now IPC :1.97467: AVG IPC :1.90020: L2-Pf-HR :0.98658: L2-HR :0.93436: (Sim:0h5m29s) 
CPU  0 inst:   20000000 cyc:   10477433 now IPC :1.82409: AVG IPC :1.89580: L2-Pf-HR :0.98668: L2-HR :0.93442: (Sim:0h5m47s) 
CPU  0 inst:   21000002 cyc:   11065064 now IPC :1.70175: AVG IPC :1.88449: L2-Pf-HR :0.98700: L2-HR :0.93304: (Sim:0h6m4s) 
CPU  0 inst:   22000004 cyc:   11570127 now IPC :1.97995: AVG IPC :1.88905: L2-Pf-HR :0.98753: L2-HR :0.93396: (Sim:0h6m21s) 
CPU  0 inst:   23000002 cyc:   12063155 now IPC :2.02828: AVG IPC :1.89524: L2-Pf-HR :0.98804: L2-HR :0.93500: (Sim:0h6m38s) 
CPU  0 inst:   24000003 cyc:   12611768 now IPC :1.82278: AVG IPC :1.89182: L2-Pf-HR :0.98831: L2-HR :0.93531: (Sim:0h6m55s) 
CPU  0 inst:   25000000 cyc:   13222592 now IPC :1.63713: AVG IPC :1.87911: L2-Pf-HR :0.98804: L2-HR :0.93386: (Sim:0h7m13s) 
CPU  0 inst:   26000002 cyc:   13738840 now IPC :1.93706: AVG IPC :1.88146: L2-Pf-HR :0.98847: L2-HR :0.93472: (Sim:0h7m30s) 
CPU  0 inst:   27000000 cyc:   14230701 now IPC :2.03309: AVG IPC :1.88709: L2-Pf-HR :0.98881: L2-HR :0.93543: (Sim:0h7m46s) 
CPU  0 inst:   28000004 cyc:   14777298 now IPC :1.82951: AVG IPC :1.88481: L2-Pf-HR :0.98912: L2-HR :0.93598: (Sim:0h8m4s) 
CPU  0 inst:   29000002 cyc:   15344859 now IPC :1.76192: AVG IPC :1.87995: L2-Pf-HR :0.98914: L2-HR :0.93455: (Sim:0h8m21s) 
CPU  0 inst:   30000000 cyc:   15872645 now IPC :1.89470: AVG IPC :1.88047: L2-Pf-HR :0.98909: L2-HR :0.93501: (Sim:0h8m38s) 
CPU  0 inst:   31000004 cyc:   16372967 now IPC :1.99872: AVG IPC :1.88432: L2-Pf-HR :0.98888: L2-HR :0.93533: (Sim:0h8m55s) 
CPU  0 inst:   32000002 cyc:   16921046 now IPC :1.82455: AVG IPC :1.88226: L2-Pf-HR :0.98884: L2-HR :0.93584: (Sim:0h9m12s) 
CPU  0 inst:   33000000 cyc:   17532154 now IPC :1.63637: AVG IPC :1.87318: L2-Pf-HR :0.98843: L2-HR :0.93451: (Sim:0h9m29s) 
CPU  0 inst:   34000000 cyc:   22684434 now IPC :0.19409: AVG IPC :1.47454: L2-Pf-HR :0.98774: L2-HR :0.89850: (Sim:0h10m23s) 
CPU  0 inst:   35000002 cyc:   26799682 now IPC :0.24300: AVG IPC :1.27823: L2-Pf-HR :0.98621: L2-HR :0.88772: (Sim:0h11m2s) 
CPU  0 inst:   36000001 cyc:   30602058 now IPC :0.26299: AVG IPC :1.14790: L2-Pf-HR :0.98441: L2-HR :0.88290: (Sim:0h11m36s) 
CPU  0 inst:   37000001 cyc:   34405748 now IPC :0.26290: AVG IPC :1.04718: L2-Pf-HR :0.98262: L2-HR :0.87816: (Sim:0h12m10s) 
CPU  0 inst:   38000000 cyc:   38205015 now IPC :0.26321: AVG IPC :0.96716: L2-Pf-HR :0.98083: L2-HR :0.87353: (Sim:0h12m44s) 
CPU  0 inst:   39000000 cyc:   42001666 now IPC :0.26339: AVG IPC :0.90202: L2-Pf-HR :0.97906: L2-HR :0.86898: (Sim:0h13m18s) 
CPU  0 inst:   40000003 cyc:   45799689 now IPC :0.26330: AVG IPC :0.84789: L2-Pf-HR :0.97729: L2-HR :0.86451: (Sim:0h13m52s) 
CPU  0 inst:   41000001 cyc:   49597442 now IPC :0.26331: AVG IPC :0.80223: L2-Pf-HR :0.97553: L2-HR :0.86014: (Sim:0h14m26s) 
CPU  0 inst:   42000001 cyc:   53399079 now IPC :0.26304: AVG IPC :0.76312: L2-Pf-HR :0.97375: L2-HR :0.85584: (Sim:0h15m0s) 
CPU  0 inst:   43000005 cyc:   57196373 now IPC :0.26335: AVG IPC :0.72936: L2-Pf-HR :0.97199: L2-HR :0.85163: (Sim:0h15m35s) 
CPU  0 inst:   44000001 cyc:   60995657 now IPC :0.26321: AVG IPC :0.69985: L2-Pf-HR :0.97026: L2-HR :0.84749: (Sim:0h16m8s) 
CPU  0 inst:   45000001 cyc:   64794120 now IPC :0.26326: AVG IPC :0.67386: L2-Pf-HR :0.96852: L2-HR :0.84344: (Sim:0h16m43s) 
CPU  0 inst:   46000000 cyc:   68594084 now IPC :0.26316: AVG IPC :0.65078: L2-Pf-HR :0.96679: L2-HR :0.83945: (Sim:0h17m16s) 
CPU  0 inst:   47000000 cyc:   72393882 now IPC :0.26317: AVG IPC :0.63015: L2-Pf-HR :0.96505: L2-HR :0.83554: (Sim:0h17m51s) 
CPU  0 inst:   48000000 cyc:   76190380 now IPC :0.26340: AVG IPC :0.61164: L2-Pf-HR :0.96333: L2-HR :0.83170: (Sim:0h18m25s) 
CPU  0 inst:   49000000 cyc:   79987582 now IPC :0.26335: AVG IPC :0.59490: L2-Pf-HR :0.96162: L2-HR :0.82793: (Sim:0h18m48s) 
CPU  0 inst:   50000003 cyc:   83787334 now IPC :0.26318: AVG IPC :0.57968: L2-Pf-HR :0.95992: L2-HR :0.82422: (Sim:0h19m3s) 
CPU  0 inst:   51000001 cyc:   85539895 now IPC :0.57059: AVG IPC :0.57949: L2-Pf-HR :0.95991: L2-HR :0.82640: (Sim:0h19m15s) 
CPU  0 inst:   52000003 cyc:   86131598 now IPC :1.69004: AVG IPC :0.58721: L2-Pf-HR :0.96091: L2-HR :0.83230: (Sim:0h19m25s) 
CPU  0 inst:   53000002 cyc:   86718644 now IPC :1.70344: AVG IPC :0.59485: L2-Pf-HR :0.96199: L2-HR :0.83775: (Sim:0h19m34s) 
CPU  0 inst:   54000001 cyc:   87249142 now IPC :1.88502: AVG IPC :0.60278: L2-Pf-HR :0.96324: L2-HR :0.84330: (Sim:0h19m44s) 
CPU  0 inst:   55000004 cyc:   87857763 now IPC :1.64306: AVG IPC :0.61007: L2-Pf-HR :0.96407: L2-HR :0.84781: (Sim:0h19m57s) 
CPU  0 inst:   56000004 cyc:   88458976 now IPC :1.66330: AVG IPC :0.61731: L2-Pf-HR :0.96481: L2-HR :0.85212: (Sim:0h20m18s) 
CPU  0 inst:   57000005 cyc:   89056330 now IPC :1.67405: AVG IPC :0.62448: L2-Pf-HR :0.96552: L2-HR :0.85595: (Sim:0h20m39s) 
CPU  0 inst:   58000005 cyc:   89588718 now IPC :1.87833: AVG IPC :0.63201: L2-Pf-HR :0.96648: L2-HR :0.86003: (Sim:0h20m59s) 
CPU  0 inst:   59000000 cyc:   90174588 now IPC :1.70685: AVG IPC :0.63907: L2-Pf-HR :0.96717: L2-HR :0.86353: (Sim:0h21m20s) 
CPU  0 inst:   60000005 cyc:   90750128 now IPC :1.73751: AVG IPC :0.64611: L2-Pf-HR :0.96770: L2-HR :0.86676: (Sim:0h21m40s) 
CPU  0 inst:   61000002 cyc:   91333886 now IPC :1.71303: AVG IPC :0.65301: L2-Pf-HR :0.96813: L2-HR :0.86951: (Sim:0h22m1s) 
CPU  0 inst:   62000002 cyc:   91862288 now IPC :1.89250: AVG IPC :0.66021: L2-Pf-HR :0.96887: L2-HR :0.87271: (Sim:0h22m21s) 
CPU  0 inst:   63000001 cyc:   92419255 now IPC :1.79544: AVG IPC :0.66713: L2-Pf-HR :0.96949: L2-HR :0.87553: (Sim:0h22m42s) 
CPU  0 inst:   64000000 cyc:   92988948 now IPC :1.75533: AVG IPC :0.67387: L2-Pf-HR :0.96991: L2-HR :0.87808: (Sim:0h23m2s) 
CPU  0 inst:   65000002 cyc:   93571001 now IPC :1.71806: AVG IPC :0.68043: L2-Pf-HR :0.97025: L2-HR :0.88027: (Sim:0h23m23s) 
CPU  0 inst:   66000005 cyc:   94101325 now IPC :1.88565: AVG IPC :0.68730: L2-Pf-HR :0.97085: L2-HR :0.88276: (Sim:0h23m43s) 
CPU  0 inst:   67000001 cyc:   94626650 now IPC :1.90358: AVG IPC :0.69412: L2-Pf-HR :0.97146: L2-HR :0.88531: (Sim:0h24m3s) 
CPU  0 inst:   68000004 cyc:   95214863 now IPC :1.70007: AVG IPC :0.70040: L2-Pf-HR :0.97171: L2-HR :0.88711: (Sim:0h24m24s) 
CPU  0 inst:   69000003 cyc:   95792504 now IPC :1.73118: AVG IPC :0.70668: L2-Pf-HR :0.97196: L2-HR :0.88893: (Sim:0h24m44s) 
CPU  0 inst:   70000002 cyc:   96336901 now IPC :1.83689: AVG IPC :0.71313: L2-Pf-HR :0.97241: L2-HR :0.89085: (Sim:0h25m5s) 
CPU  0 inst:   71000002 cyc:   96861374 now IPC :1.90668: AVG IPC :0.71966: L2-Pf-HR :0.97291: L2-HR :0.89294: (Sim:0h25m25s) 
CPU  0 inst:   72000000 cyc:   97444455 now IPC :1.71502: AVG IPC :0.72568: L2-Pf-HR :0.97313: L2-HR :0.89445: (Sim:0h25m46s) 
CPU  0 inst:   73000002 cyc:   98019049 now IPC :1.74036: AVG IPC :0.73169: L2-Pf-HR :0.97333: L2-HR :0.89595: (Sim:0h26m6s) 
CPU  0 inst:   74000005 cyc:   98569429 now IPC :1.81693: AVG IPC :0.73781: L2-Pf-HR :0.97366: L2-HR :0.89747: (Sim:0h26m26s) 
CPU  0 inst:   75000002 cyc:   99096482 now IPC :1.89734: AVG IPC :0.74403: L2-Pf-HR :0.97408: L2-HR :0.89919: (Sim:0h26m47s) 
CPU  0 inst:   76000002 cyc:   99671709 now IPC :1.73844: AVG IPC :0.74983: L2-Pf-HR :0.97429: L2-HR :0.90047: (Sim:0h27m7s) 
CPU  0 inst:   77000005 cyc:  100250752 now IPC :1.72699: AVG IPC :0.75553: L2-Pf-HR :0.97446: L2-HR :0.90173: (Sim:0h27m28s) 
CPU  0 inst:   78000001 cyc:  100805769 now IPC :1.80174: AVG IPC :0.76135: L2-Pf-HR :0.97472: L2-HR :0.90303: (Sim:0h27m48s) 
CPU  0 inst:   79000000 cyc:  101332805 now IPC :1.89740: AVG IPC :0.76731: L2-Pf-HR :0.97510: L2-HR :0.90452: (Sim:0h28m8s) 
CPU  0 inst:   80000001 cyc:  101900257 now IPC :1.76227: AVG IPC :0.77291: L2-Pf-HR :0.97529: L2-HR :0.90561: (Sim:0h28m29s) 
Finished CPU 0 instr: 78000000 cyc: 100917480 AVG IPC: 0.77291 (Sim time: 0h28m29s)

ChampSim completed all CPUs

[ROI Statistics]
Core_0_instructions 78000000
Core_0_cycles 100917480
Core_0_IPC 0.77291

Core_0_branch_prediction_accuracy 99.16542
Core_0_branch_MPKI 0.25491
Core_0_average_ROB_occupancy_at_mispredict 437.57954

Core_0_L1D_total_access 21650866
Core_0_L1D_total_hit 18717996 L1D_total_Hit Ratio: 0.86454
Core_0_L1D_total_miss 2932870
Core_0_L1D_loads 19489998
Core_0_L1D_load_hit 16689410 L1D_load_Hit Ratio: 0.85631
Core_0_L1D_load_miss 2800588
Core_0_L1D_RFOs 2160868
Core_0_L1D_RFO_hit 2028586 L1D_RFO_Hit Ratio: 0.93878
Core_0_L1D_RFO_miss 132282
Core_0_L1D_prefetches 0
Core_0_L1D_prefetch_hit 0 L1D_prefetch_Hit Ratio: -nan
Core_0_L1D_prefetch_miss 0
Core_0_L1D_writebacks 0
Core_0_L1D_writeback_hit 0 L1D_writeback_Hit Ratio: -nan
Core_0_L1D_writeback_miss 0
Core_0_L1D_prefetch_requested 0
Core_0_L1D_prefetch_issued 0
Core_0_L1D_prefetch_useful 0 L1D_Useful Ratio: -nan
Core_0_L1D_prefetch_useless 0
Core_0_L1D_prefetch_late 0
Core_0_L1D_average_miss_latency 60.83742

Core_0_L1I_total_access 11129351
Core_0_L1I_total_hit 11124444 L1I_total_Hit Ratio: 0.99956
Core_0_L1I_total_miss 4907
Core_0_L1I_loads 11129351
Core_0_L1I_load_hit 11124444 L1I_load_Hit Ratio: 0.99956
Core_0_L1I_load_miss 4907
Core_0_L1I_RFOs 0
Core_0_L1I_RFO_hit 0 L1I_RFO_Hit Ratio: -nan
Core_0_L1I_RFO_miss 0
Core_0_L1I_prefetches 0
Core_0_L1I_prefetch_hit 0 L1I_prefetch_Hit Ratio: -nan
Core_0_L1I_prefetch_miss 0
Core_0_L1I_writebacks 0
Core_0_L1I_writeback_hit 0 L1I_writeback_Hit Ratio: -nan
Core_0_L1I_writeback_miss 0
Core_0_L1I_prefetch_requested 0
Core_0_L1I_prefetch_issued 0
Core_0_L1I_prefetch_useful 0 L1I_Useful Ratio: -nan
Core_0_L1I_prefetch_useless 0
Core_0_L1I_prefetch_late 0
Core_0_L1I_average_miss_latency 335.45629

Core_0_L2C_total_access 7479543
Core_0_L2C_total_hit 6773574 L2C_total_Hit Ratio: 0.90561
Core_0_L2C_total_miss 705969
Core_0_L2C_loads 2805498
Core_0_L2C_load_hit 2331038 L2C_load_Hit Ratio: 0.83088
Core_0_L2C_load_miss 474460
Core_0_L2C_RFOs 132282
Core_0_L2C_RFO_hit 856 L2C_RFO_Hit Ratio: 0.00647
Core_0_L2C_RFO_miss 131426
Core_0_L2C_prefetches 4050168
Core_0_L2C_prefetch_hit 3950090 L2C_prefetch_Hit Ratio: 0.97529
Core_0_L2C_prefetch_miss 100078
Core_0_L2C_writebacks 491595
Core_0_L2C_writeback_hit 491590 L2C_writeback_Hit Ratio: 0.99999
Core_0_L2C_writeback_miss 5
Core_0_L2C_prefetch_requested 11272502
Core_0_L2C_prefetch_issued 10796983
Core_0_L2C_prefetch_useful 102684 L2C_Useful Ratio: 0.00951
Core_0_L2C_prefetch_useless 408
Core_0_L2C_prefetch_late 118518
Core_0_L2C_average_miss_latency 203.74986

Core_0_LLC_total_access 2834888
Core_0_LLC_total_hit 2127612 LLC_total_Hit Ratio: 0.75051
Core_0_LLC_total_miss 707276
Core_0_LLC_loads 355998
Core_0_LLC_load_hit 234571 LLC_load_Hit Ratio: 0.65891
Core_0_LLC_load_miss 121427
Core_0_LLC_RFOs 131426
Core_0_LLC_RFO_hit 197 LLC_RFO_Hit Ratio: 0.00150
Core_0_LLC_RFO_miss 131229
Core_0_LLC_prefetches 1935590
Core_0_LLC_prefetch_hit 1484632 LLC_prefetch_Hit Ratio: 0.76702
Core_0_LLC_prefetch_miss 450958
Core_0_LLC_writebacks 411874
Core_0_LLC_writeback_hit 408212 LLC_writeback_Hit Ratio: 0.99111
Core_0_LLC_writeback_miss 3662
Core_0_LLC_prefetch_requested 0
Core_0_LLC_prefetch_issued 0
Core_0_LLC_prefetch_useful 237918 LLC_Useful Ratio: inf
Core_0_LLC_prefetch_useless 212706
Core_0_LLC_prefetch_late 46954
Core_0_LLC_average_miss_latency 322.58214

Core_0_major_page_fault 0
Core_0_minor_page_fault 6067

 All Calls: 2849466
 Critical Calls: 2849466
------------------
Depth Distribution
------------------
depth 0: 0
depth 1: 1876189
depth 2: 1785681
depth 3: 1663193
depth 4: 1527361
depth 5: 1276693
depth 6: 940942
depth 7: 585614
depth 8: 377982
depth 9: 250761
depth 10: 191459
depth 11: 143530
depth 12: 98898
depth 13: 54714
depth 14: 12130
depth 15: 11803
depth 16: 33
depth 17: 0
depth 18: 0
depth 19: 0
depth 20: 0
depth 21: 0
depth 22: 0
depth 23: 0
depth 24: 0
depth 25: 0
depth 26: 0
depth 27: 0
depth 28: 0
depth 29: 0
Total: 10796983
-----------------------------
-----------------------------
	Captured at Filter
-----------------------------
depth 0: 0
depth 1: 812923
depth 2: 729753
depth 3: 674746
depth 4: 573415
depth 5: 455771
depth 6: 305356
depth 7: 139908
depth 8: 47073
depth 9: 13238
depth 10: 3699
depth 11: 1773
depth 12: 983
depth 13: 442
depth 14: 53
depth 15: 70
depth 16: 0
depth 17: 0
depth 18: 0
depth 19: 0
depth 20: 0
depth 21: 0
depth 22: 0
depth 23: 0
depth 24: 0
depth 25: 0
depth 26: 0
depth 27: 0
depth 28: 0
depth 29: 0
-----------------------------
-----------------------------
		Lost at Page
-----------------------------
depth 0: 0
depth 1: 144364
depth 2: 241101
depth 3: 338148
depth 4: 418500
depth 5: 462241
depth 6: 488454
depth 7: 430018
depth 8: 324866
depth 9: 175958
depth 10: 57836
depth 11: 33810
depth 12: 24770
depth 13: 15177
depth 14: 3411
depth 15: 3643
depth 16: 2
depth 17: 0
depth 18: 0
depth 19: 0
depth 20: 0
depth 21: 0
depth 22: 0
depth 23: 0
depth 24: 0
depth 25: 0
depth 26: 0
depth 27: 0
depth 28: 0
depth 29: 0
-----------------------------
-----------------------------
	Lost due to PQ Size
-----------------------------
475519
-----------------------------
ST read accesses: 2792492
ST write accesses: 13006
PT read accesses: 106784567
PT write accesses: 4179392
FILTER read accesses: 18321971
FILTER write accesses: 2499215
GHR read accesses: 19679611
GHR write accesses: 3151507
GHR counter read accesses: 88398408
GHR counter write accesses: 4635062
ST tag read accesses: 1105224024
ST tag write accesses: 20201572
Channel_0_RQ_row_buffer_hit 365501
Channel_0_RQ_row_buffer_miss 338114
Channel_0_WQ_row_buffer_hit 158904
Channel_0_WQ_row_buffer_miss 248936
Channel_0_WQ_full 422
Channel_0_dbus_congested 551871

avg_congested_cycle 11

EzSearch AVG IPC :0.77291: L2-Pf-HR :0.97529 : L2-HR :0.90561 Uful:0.00951
     > Finished combination: TraceType=770-tot Sim:78000000 Prefetcher=L2spp_berti_src L1=no
