TRACE: [42000000]_FE_[OPT-350M]_[h16]_[s256]_[d64] Warmup: 2000000 NumTraces: 42000000
L1:ipcp:L2:ipcp
*************************************************
   ChampSim Multicore Out-of-Order Simulator
   Last compiled: Oct 27 2024 13:31:24
*************************************************

trace_0 770-tot_memTraces_v3/memTraces[42000000]_FE_[OPT-350M]_[h16]_[s256]_[d64].champsim.xz
MAIN.cc ln 751 stats print skipped
CPU  0 inst:    1000002 cyc:     501358 now IPC :1.99459: AVG IPC :1.99459: L2-Pf-HR :0.90233: L2-HR :0.82688: (Sim:0h0m20s) 
CPU  0 inst:    2000000 cyc:     989302 now IPC :2.04941: AVG IPC :2.02163: L2-Pf-HR :0.93875: L2-HR :0.86741: (Sim:0h0m40s) 

Warmup complete CPU  0 instructions:    2000002 cycles:     989303 (Simulation time: 0 hr 0 min 40 sec) 

CPU  0 inst:    3000003 cyc:    1625277 now IPC :1.57239: AVG IPC :1.57239: L2-Pf-HR :0.96236: L2-HR :0.88102: (Sim:0h0m57s) 
CPU  0 inst:    4000003 cyc:    2257791 now IPC :1.58099: AVG IPC :1.57668: L2-Pf-HR :0.96415: L2-HR :0.88238: (Sim:0h1m14s) 
CPU  0 inst:    5000002 cyc:    2891225 now IPC :1.57869: AVG IPC :1.57735: L2-Pf-HR :0.96478: L2-HR :0.88184: (Sim:0h1m32s) 
CPU  0 inst:    6000000 cyc:    3523400 now IPC :1.58184: AVG IPC :1.57847: L2-Pf-HR :0.96459: L2-HR :0.88197: (Sim:0h1m50s) 
CPU  0 inst:    7000002 cyc:    4157118 now IPC :1.57799: AVG IPC :1.57837: L2-Pf-HR :0.96496: L2-HR :0.88268: (Sim:0h2m8s) 
CPU  0 inst:    8000003 cyc:    4800511 now IPC :1.55426: AVG IPC :1.57430: L2-Pf-HR :0.96499: L2-HR :0.88235: (Sim:0h2m24s) 
CPU  0 inst:    9000005 cyc:    5464441 now IPC :1.50619: AVG IPC :1.56420: L2-Pf-HR :0.96519: L2-HR :0.88260: (Sim:0h2m42s) 
CPU  0 inst:   10000005 cyc:    6154942 now IPC :1.44822: AVG IPC :1.54870: L2-Pf-HR :0.96529: L2-HR :0.88285: (Sim:0h3m0s) 
CPU  0 inst:   11000002 cyc:    6858051 now IPC :1.42225: AVG IPC :1.53355: L2-Pf-HR :0.96543: L2-HR :0.88301: (Sim:0h3m18s) 
CPU  0 inst:   12000002 cyc:    7552983 now IPC :1.43899: AVG IPC :1.52354: L2-Pf-HR :0.96527: L2-HR :0.88280: (Sim:0h3m37s) 
CPU  0 inst:   13000005 cyc:    8246566 now IPC :1.44179: AVG IPC :1.51572: L2-Pf-HR :0.96516: L2-HR :0.88302: (Sim:0h3m48s) 
CPU  0 inst:   14000004 cyc:    8940065 now IPC :1.44196: AVG IPC :1.50929: L2-Pf-HR :0.96524: L2-HR :0.88320: (Sim:0h3m57s) 
CPU  0 inst:   15000000 cyc:    9633351 now IPC :1.44240: AVG IPC :1.50392: L2-Pf-HR :0.96475: L2-HR :0.88259: (Sim:0h4m5s) 
CPU  0 inst:   16000002 cyc:   10327726 now IPC :1.44015: AVG IPC :1.49918: L2-Pf-HR :0.96478: L2-HR :0.88269: (Sim:0h4m22s) 
CPU  0 inst:   17000003 cyc:   11088683 now IPC :1.31414: AVG IPC :1.48524: L2-Pf-HR :0.96370: L2-HR :0.88091: (Sim:0h4m39s) 
CPU  0 inst:   18000001 cyc:   15221342 now IPC :0.24197: AVG IPC :1.12422: L2-Pf-HR :0.91655: L2-HR :0.81743: (Sim:0h5m17s) 
CPU  0 inst:   19000000 cyc:   18618494 now IPC :0.29436: AVG IPC :0.96431: L2-Pf-HR :0.89668: L2-HR :0.80548: (Sim:0h5m46s) 
CPU  0 inst:   20000000 cyc:   22015352 now IPC :0.29439: AVG IPC :0.85608: L2-Pf-HR :0.87788: L2-HR :0.79423: (Sim:0h6m13s) 
CPU  0 inst:   21000000 cyc:   25410415 now IPC :0.29455: AVG IPC :0.77802: L2-Pf-HR :0.85989: L2-HR :0.78371: (Sim:0h6m40s) 
CPU  0 inst:   22000000 cyc:   28805152 now IPC :0.29457: AVG IPC :0.71901: L2-Pf-HR :0.84274: L2-HR :0.77387: (Sim:0h7m8s) 
CPU  0 inst:   23000000 cyc:   32200168 now IPC :0.29455: AVG IPC :0.67284: L2-Pf-HR :0.82646: L2-HR :0.76454: (Sim:0h7m36s) 
CPU  0 inst:   24000000 cyc:   35596295 now IPC :0.29445: AVG IPC :0.63571: L2-Pf-HR :0.81099: L2-HR :0.75572: (Sim:0h8m3s) 
CPU  0 inst:   25000000 cyc:   38996028 now IPC :0.29414: AVG IPC :0.60516: L2-Pf-HR :0.79630: L2-HR :0.74735: (Sim:0h8m30s) 
CPU  0 inst:   26000001 cyc:   42122920 now IPC :0.31981: AVG IPC :0.58346: L2-Pf-HR :0.78450: L2-HR :0.74109: (Sim:0h8m57s) 
CPU  0 inst:   27000000 cyc:   42712703 now IPC :1.69554: AVG IPC :0.59918: L2-Pf-HR :0.80130: L2-HR :0.75948: (Sim:0h9m17s) 
CPU  0 inst:   28000002 cyc:   43305299 now IPC :1.68749: AVG IPC :0.61442: L2-Pf-HR :0.81485: L2-HR :0.77495: (Sim:0h9m38s) 
CPU  0 inst:   29000005 cyc:   43887973 now IPC :1.71623: AVG IPC :0.62939: L2-Pf-HR :0.82678: L2-HR :0.78860: (Sim:0h9m58s) 
CPU  0 inst:   30000002 cyc:   44464842 now IPC :1.73349: AVG IPC :0.64404: L2-Pf-HR :0.83606: L2-HR :0.79989: (Sim:0h10m19s) 
CPU  0 inst:   31000005 cyc:   45068181 now IPC :1.65745: AVG IPC :0.65791: L2-Pf-HR :0.84373: L2-HR :0.80952: (Sim:0h10m39s) 
CPU  0 inst:   32000003 cyc:   45671576 now IPC :1.65729: AVG IPC :0.67141: L2-Pf-HR :0.85024: L2-HR :0.81791: (Sim:0h11m0s) 
CPU  0 inst:   33000003 cyc:   46260310 now IPC :1.69856: AVG IPC :0.68476: L2-Pf-HR :0.85602: L2-HR :0.82540: (Sim:0h11m20s) 
CPU  0 inst:   34000002 cyc:   46835614 now IPC :1.73821: AVG IPC :0.69798: L2-Pf-HR :0.86116: L2-HR :0.83214: (Sim:0h11m41s) 
CPU  0 inst:   35000000 cyc:   47412311 now IPC :1.73401: AVG IPC :0.71085: L2-Pf-HR :0.86601: L2-HR :0.83839: (Sim:0h12m1s) 
CPU  0 inst:   36000000 cyc:   47979622 now IPC :1.76270: AVG IPC :0.72355: L2-Pf-HR :0.87009: L2-HR :0.84386: (Sim:0h12m21s) 
CPU  0 inst:   37000001 cyc:   48551139 now IPC :1.74973: AVG IPC :0.73588: L2-Pf-HR :0.87352: L2-HR :0.84865: (Sim:0h12m42s) 
CPU  0 inst:   38000002 cyc:   49123172 now IPC :1.74815: AVG IPC :0.74791: L2-Pf-HR :0.87670: L2-HR :0.85306: (Sim:0h13m2s) 
CPU  0 inst:   39000005 cyc:   49689804 now IPC :1.76482: AVG IPC :0.75975: L2-Pf-HR :0.87962: L2-HR :0.85713: (Sim:0h13m22s) 
Finished CPU 0 instr: 37000003 cyc: 48700501 AVG IPC: 0.75975 (Sim time: 0h13m22s)

ChampSim completed all CPUs

[ROI Statistics]
Core_0_instructions 37000003
Core_0_cycles 48700501
Core_0_IPC 0.75975

Core_0_branch_prediction_accuracy 98.43855
Core_0_branch_MPKI 0.50535
Core_0_average_ROB_occupancy_at_mispredict 343.10247

Core_0_L1D_total_access 16939046
Core_0_L1D_total_hit 15543988 L1D_total_Hit Ratio: 0.91764
Core_0_L1D_total_miss 1395058
Core_0_L1D_loads 9265151
Core_0_L1D_load_hit 8507162 L1D_load_Hit Ratio: 0.91819
Core_0_L1D_load_miss 757989
Core_0_L1D_RFOs 1133719
Core_0_L1D_RFO_hit 1090259 L1D_RFO_Hit Ratio: 0.96167
Core_0_L1D_RFO_miss 43460
Core_0_L1D_prefetches 6540176
Core_0_L1D_prefetch_hit 5946567 L1D_prefetch_Hit Ratio: 0.90924
Core_0_L1D_prefetch_miss 593609
Core_0_L1D_writebacks 0
Core_0_L1D_writeback_hit 0 L1D_writeback_Hit Ratio: -nan
Core_0_L1D_writeback_miss 0
Core_0_L1D_prefetch_requested 18714298
Core_0_L1D_prefetch_issued 9857288
Core_0_L1D_prefetch_useful 577695 L1D_Useful Ratio: 0.05861
Core_0_L1D_prefetch_useless 33990
Core_0_L1D_prefetch_late 143397
Core_0_L1D_average_miss_latency 3822870.48200

Core_0_L1I_total_access 5057711
Core_0_L1I_total_hit 5052990 L1I_total_Hit Ratio: 0.99907
Core_0_L1I_total_miss 4721
Core_0_L1I_loads 5057711
Core_0_L1I_load_hit 5052990 L1I_load_Hit Ratio: 0.99907
Core_0_L1I_load_miss 4721
Core_0_L1I_RFOs 0
Core_0_L1I_RFO_hit 0 L1I_RFO_Hit Ratio: -nan
Core_0_L1I_RFO_miss 0
Core_0_L1I_prefetches 0
Core_0_L1I_prefetch_hit 0 L1I_prefetch_Hit Ratio: -nan
Core_0_L1I_prefetch_miss 0
Core_0_L1I_writebacks 0
Core_0_L1I_writeback_hit 0 L1I_writeback_Hit Ratio: -nan
Core_0_L1I_writeback_miss 0
Core_0_L1I_prefetch_requested 0
Core_0_L1I_prefetch_issued 0
Core_0_L1I_prefetch_useful 0 L1I_Useful Ratio: -nan
Core_0_L1I_prefetch_useless 0
Core_0_L1I_prefetch_late 0
Core_0_L1I_average_miss_latency 294.25291

Core_0_L2C_total_access 2585936
Core_0_L2C_total_hit 2216492 L2C_total_Hit Ratio: 0.85713
Core_0_L2C_total_miss 369444
Core_0_L2C_loads 619390
Core_0_L2C_load_hit 485521 L2C_load_Hit Ratio: 0.78387
Core_0_L2C_load_miss 133869
Core_0_L2C_RFOs 43455
Core_0_L2C_RFO_hit 10549 L2C_RFO_Hit Ratio: 0.24276
Core_0_L2C_RFO_miss 32906
Core_0_L2C_prefetches 1683484
Core_0_L2C_prefetch_hit 1480820 L2C_prefetch_Hit Ratio: 0.87962
Core_0_L2C_prefetch_miss 202664
Core_0_L2C_writebacks 239607
Core_0_L2C_writeback_hit 239602 L2C_writeback_Hit Ratio: 0.99998
Core_0_L2C_writeback_miss 5
Core_0_L2C_prefetch_requested 2163776
Core_0_L2C_prefetch_issued 2129549
Core_0_L2C_prefetch_useful 41039 L2C_Useful Ratio: 0.01927
Core_0_L2C_prefetch_useless 155581
Core_0_L2C_prefetch_late 48145
Core_0_L2C_average_miss_latency 332.61182

Core_0_LLC_total_access 577531
Core_0_LLC_total_hit 206949 LLC_total_Hit Ratio: 0.35833
Core_0_LLC_total_miss 370582
Core_0_LLC_loads 85873
Core_0_LLC_load_hit 0 LLC_load_Hit Ratio: 0.00000
Core_0_LLC_load_miss 85873
Core_0_LLC_RFOs 32905
Core_0_LLC_RFO_hit 1 LLC_RFO_Hit Ratio: 0.00003
Core_0_LLC_RFO_miss 32904
Core_0_LLC_prefetches 250661
Core_0_LLC_prefetch_hit 46 LLC_prefetch_Hit Ratio: 0.00018
Core_0_LLC_prefetch_miss 250615
Core_0_LLC_writebacks 208092
Core_0_LLC_writeback_hit 206902 LLC_writeback_Hit Ratio: 0.99428
Core_0_LLC_writeback_miss 1190
Core_0_LLC_prefetch_requested 0
Core_0_LLC_prefetch_issued 0
Core_0_LLC_prefetch_useful 0 LLC_Useful Ratio: -nan
Core_0_LLC_prefetch_useless 214733
Core_0_LLC_prefetch_late 0
Core_0_LLC_average_miss_latency 299.00108

Core_0_major_page_fault 0
Core_0_minor_page_fault 3913


Channel_0_RQ_row_buffer_hit 190273
Channel_0_RQ_row_buffer_miss 179121
Channel_0_WQ_row_buffer_hit 73020
Channel_0_WQ_row_buffer_miss 130190
Channel_0_WQ_full 62
Channel_0_dbus_congested 328037

avg_congested_cycle 11

EzSearch AVG IPC :0.75975: L2-Pf-HR :0.87962 : L2-HR :0.85713 Uful:0.01927
     > Finished combination: TraceType=770-tot Sim:37000000 Prefetcher=L2ipcp L1=ipcp
