TRACE: [125000000][OPT-125M]_[h12][s512][d64] Warmup: 2000000 NumTraces: 125000000
L1:berti:L2:berti
*************************************************
   ChampSim Multicore Out-of-Order Simulator
   Last compiled: Oct 27 2024 06:14:14
*************************************************

trace_0 770-tot_memTraces_v3/memTraces[125000000][OPT-125M]_[h12][s512][d64].champsim.xz
CPU 0 L1D Berti prefetcher
CPU 0 L2C Berti prefetcher
MAIN.cc ln 751 stats print skipped
CPU  0 inst:    1000001 cyc:     499875 now IPC :2.00050: AVG IPC :2.00050: L2-Pf-HR :0.67075: L2-HR :0.69157: (Sim:0h0m23s) 
CPU  0 inst:    2000000 cyc:     982659 now IPC :2.07132: AVG IPC :2.03529: L2-Pf-HR :0.76301: L2-HR :0.77887: (Sim:0h0m47s) 

Warmup complete CPU  0 instructions:    2000003 cycles:     982660 (Simulation time: 0 hr 0 min 47 sec) 

CPU  0 inst:    3000004 cyc:    1458627 now IPC :2.10099: AVG IPC :2.10099: L2-Pf-HR :0.93806: L2-HR :0.93676: (Sim:0h1m6s) 
CPU  0 inst:    4000004 cyc:    1975386 now IPC :1.93514: AVG IPC :2.01466: L2-Pf-HR :0.90587: L2-HR :0.90533: (Sim:0h1m27s) 
CPU  0 inst:    5000001 cyc:    2587262 now IPC :1.63431: AVG IPC :1.86962: L2-Pf-HR :0.87856: L2-HR :0.87048: (Sim:0h1m47s) 
CPU  0 inst:    6000004 cyc:    3067444 now IPC :2.08255: AVG IPC :1.91866: L2-Pf-HR :0.87719: L2-HR :0.87493: (Sim:0h2m7s) 
CPU  0 inst:    7000005 cyc:    3539256 now IPC :2.11949: AVG IPC :1.95573: L2-Pf-HR :0.88874: L2-HR :0.88712: (Sim:0h2m26s) 
CPU  0 inst:    8000005 cyc:    4056864 now IPC :1.93196: AVG IPC :1.95173: L2-Pf-HR :0.88467: L2-HR :0.88397: (Sim:0h2m47s) 
CPU  0 inst:    9000000 cyc:    4686031 now IPC :1.58940: AVG IPC :1.89017: L2-Pf-HR :0.87581: L2-HR :0.87375: (Sim:0h3m8s) 
CPU  0 inst:   10000002 cyc:    5206990 now IPC :1.91954: AVG IPC :1.89379: L2-Pf-HR :0.87511: L2-HR :0.87462: (Sim:0h3m28s) 
CPU  0 inst:   11000005 cyc:    5696611 now IPC :2.04240: AVG IPC :1.90923: L2-Pf-HR :0.88121: L2-HR :0.88095: (Sim:0h3m48s) 
CPU  0 inst:   12000005 cyc:    6258125 now IPC :1.78090: AVG IPC :1.89557: L2-Pf-HR :0.88109: L2-HR :0.88065: (Sim:0h4m8s) 
CPU  0 inst:   13000002 cyc:    6908179 now IPC :1.53833: AVG IPC :1.85638: L2-Pf-HR :0.87785: L2-HR :0.87552: (Sim:0h4m29s) 
CPU  0 inst:   14000005 cyc:    7446969 now IPC :1.85602: AVG IPC :1.85635: L2-Pf-HR :0.87602: L2-HR :0.87489: (Sim:0h4m50s) 
CPU  0 inst:   15000001 cyc:    7938393 now IPC :2.03489: AVG IPC :1.86896: L2-Pf-HR :0.87931: L2-HR :0.87859: (Sim:0h5m10s) 
CPU  0 inst:   16000005 cyc:    8503953 now IPC :1.76817: AVG IPC :1.86138: L2-Pf-HR :0.87996: L2-HR :0.87909: (Sim:0h5m31s) 
CPU  0 inst:   17000000 cyc:    9143677 now IPC :1.56317: AVG IPC :1.83801: L2-Pf-HR :0.87741: L2-HR :0.87571: (Sim:0h5m52s) 
CPU  0 inst:   18000001 cyc:    9704606 now IPC :1.78276: AVG IPC :1.83445: L2-Pf-HR :0.87616: L2-HR :0.87493: (Sim:0h6m12s) 
CPU  0 inst:   19000002 cyc:   10191247 now IPC :2.05490: AVG IPC :1.84610: L2-Pf-HR :0.87797: L2-HR :0.87725: (Sim:0h6m32s) 
CPU  0 inst:   20000002 cyc:   10749429 now IPC :1.79153: AVG IPC :1.84298: L2-Pf-HR :0.87973: L2-HR :0.87847: (Sim:0h6m53s) 
CPU  0 inst:   21000003 cyc:   11377595 now IPC :1.59194: AVG IPC :1.82781: L2-Pf-HR :0.87762: L2-HR :0.87635: (Sim:0h7m14s) 
CPU  0 inst:   22000005 cyc:   11953413 now IPC :1.73666: AVG IPC :1.82303: L2-Pf-HR :0.87590: L2-HR :0.87495: (Sim:0h7m35s) 
CPU  0 inst:   23000001 cyc:   12449917 now IPC :2.01407: AVG IPC :1.83130: L2-Pf-HR :0.87701: L2-HR :0.87656: (Sim:0h7m55s) 
CPU  0 inst:   24000004 cyc:   12998862 now IPC :1.82168: AVG IPC :1.83086: L2-Pf-HR :0.87935: L2-HR :0.87842: (Sim:0h8m16s) 
CPU  0 inst:   25000003 cyc:   13599558 now IPC :1.66473: AVG IPC :1.82295: L2-Pf-HR :0.87767: L2-HR :0.87681: (Sim:0h8m36s) 
CPU  0 inst:   26000005 cyc:   14195599 now IPC :1.67774: AVG IPC :1.81640: L2-Pf-HR :0.87582: L2-HR :0.87528: (Sim:0h8m57s) 
CPU  0 inst:   27000000 cyc:   14694504 now IPC :2.00438: AVG IPC :1.82324: L2-Pf-HR :0.87635: L2-HR :0.87633: (Sim:0h9m18s) 
CPU  0 inst:   28000002 cyc:   15234692 now IPC :1.85121: AVG IPC :1.82430: L2-Pf-HR :0.87912: L2-HR :0.87849: (Sim:0h9m38s) 
CPU  0 inst:   29000000 cyc:   15826371 now IPC :1.69010: AVG IPC :1.81895: L2-Pf-HR :0.87799: L2-HR :0.87717: (Sim:0h9m59s) 
CPU  0 inst:   30000000 cyc:   16442476 now IPC :1.62310: AVG IPC :1.81115: L2-Pf-HR :0.87624: L2-HR :0.87541: (Sim:0h10m20s) 
CPU  0 inst:   31000003 cyc:   16943815 now IPC :1.99466: AVG IPC :1.81691: L2-Pf-HR :0.87645: L2-HR :0.87613: (Sim:0h10m40s) 
CPU  0 inst:   32000001 cyc:   17468322 now IPC :1.90655: AVG IPC :1.81976: L2-Pf-HR :0.87927: L2-HR :0.87850: (Sim:0h11m0s) 
CPU  0 inst:   33000003 cyc:   18033205 now IPC :1.77028: AVG IPC :1.81812: L2-Pf-HR :0.87838: L2-HR :0.87772: (Sim:0h11m21s) 
CPU  0 inst:   34000004 cyc:   18697292 now IPC :1.50583: AVG IPC :1.80642: L2-Pf-HR :0.87653: L2-HR :0.87542: (Sim:0h11m42s) 
CPU  0 inst:   35000004 cyc:   19203171 now IPC :1.97676: AVG IPC :1.81115: L2-Pf-HR :0.87670: L2-HR :0.87600: (Sim:0h12m3s) 
CPU  0 inst:   36000004 cyc:   19692738 now IPC :2.04262: AVG IPC :1.81720: L2-Pf-HR :0.87895: L2-HR :0.87813: (Sim:0h12m22s) 
CPU  0 inst:   37000000 cyc:   20251814 now IPC :1.78866: AVG IPC :1.81637: L2-Pf-HR :0.87845: L2-HR :0.87777: (Sim:0h12m43s) 
CPU  0 inst:   38000003 cyc:   20958551 now IPC :1.41496: AVG IPC :1.80217: L2-Pf-HR :0.87656: L2-HR :0.87542: (Sim:0h13m5s) 
CPU  0 inst:   39000001 cyc:   21467876 now IPC :1.96338: AVG IPC :1.80618: L2-Pf-HR :0.87649: L2-HR :0.87575: (Sim:0h13m25s) 
CPU  0 inst:   40000000 cyc:   21953994 now IPC :2.05711: AVG IPC :1.81200: L2-Pf-HR :0.87832: L2-HR :0.87756: (Sim:0h13m45s) 
CPU  0 inst:   41000003 cyc:   22514272 now IPC :1.78483: AVG IPC :1.81129: L2-Pf-HR :0.87784: L2-HR :0.87725: (Sim:0h14m5s) 
CPU  0 inst:   42000001 cyc:   23191110 now IPC :1.47746: AVG IPC :1.80112: L2-Pf-HR :0.87668: L2-HR :0.87548: (Sim:0h14m27s) 
CPU  0 inst:   43000000 cyc:   23714641 now IPC :1.91010: AVG IPC :1.80363: L2-Pf-HR :0.87663: L2-HR :0.87576: (Sim:0h14m47s) 
CPU  0 inst:   44000004 cyc:   24207659 now IPC :2.02833: AVG IPC :1.80840: L2-Pf-HR :0.87814: L2-HR :0.87728: (Sim:0h15m7s) 
CPU  0 inst:   45000000 cyc:   24774286 now IPC :1.76482: AVG IPC :1.80736: L2-Pf-HR :0.87780: L2-HR :0.87704: (Sim:0h15m28s) 
CPU  0 inst:   46000002 cyc:   25449710 now IPC :1.48055: AVG IPC :1.79834: L2-Pf-HR :0.87698: L2-HR :0.87571: (Sim:0h15m49s) 
CPU  0 inst:   47000000 cyc:   25979690 now IPC :1.88686: AVG IPC :1.80021: L2-Pf-HR :0.87685: L2-HR :0.87582: (Sim:0h16m10s) 
CPU  0 inst:   48000002 cyc:   26472157 now IPC :2.03060: AVG IPC :1.80466: L2-Pf-HR :0.87796: L2-HR :0.87701: (Sim:0h16m30s) 
CPU  0 inst:   49000000 cyc:   27034113 now IPC :1.77950: AVG IPC :1.80412: L2-Pf-HR :0.87806: L2-HR :0.87708: (Sim:0h16m50s) 
CPU  0 inst:   50000001 cyc:   30170118 now IPC :0.31888: AVG IPC :1.64454: L2-Pf-HR :0.86284: L2-HR :0.85597: (Sim:0h17m29s) 
CPU  0 inst:   51000003 cyc:   35649639 now IPC :0.18250: AVG IPC :1.41345: L2-Pf-HR :0.83584: L2-HR :0.82391: (Sim:0h18m28s) 
CPU  0 inst:   52000000 cyc:   39651890 now IPC :0.24986: AVG IPC :1.29302: L2-Pf-HR :0.82586: L2-HR :0.81367: (Sim:0h19m8s) 
CPU  0 inst:   53000000 cyc:   43222602 now IPC :0.28006: AVG IPC :1.20739: L2-Pf-HR :0.82116: L2-HR :0.80944: (Sim:0h19m44s) 
CPU  0 inst:   54000000 cyc:   46791582 now IPC :0.28019: AVG IPC :1.13515: L2-Pf-HR :0.81655: L2-HR :0.80531: (Sim:0h20m20s) 
CPU  0 inst:   55000001 cyc:   50360877 now IPC :0.28017: AVG IPC :1.07335: L2-Pf-HR :0.81207: L2-HR :0.80129: (Sim:0h20m55s) 
CPU  0 inst:   56000000 cyc:   53930155 now IPC :0.28017: AVG IPC :1.01988: L2-Pf-HR :0.80756: L2-HR :0.79730: (Sim:0h21m30s) 
CPU  0 inst:   57000000 cyc:   57500797 now IPC :0.28006: AVG IPC :0.97314: L2-Pf-HR :0.80318: L2-HR :0.79342: (Sim:0h22m6s) 
CPU  0 inst:   58000000 cyc:   61070694 now IPC :0.28012: AVG IPC :0.93197: L2-Pf-HR :0.79887: L2-HR :0.78962: (Sim:0h22m41s) 
CPU  0 inst:   59000000 cyc:   64641257 now IPC :0.28007: AVG IPC :0.89540: L2-Pf-HR :0.79466: L2-HR :0.78591: (Sim:0h23m16s) 
CPU  0 inst:   60000000 cyc:   68210739 now IPC :0.28015: AVG IPC :0.86273: L2-Pf-HR :0.79045: L2-HR :0.78224: (Sim:0h23m52s) 
CPU  0 inst:   61000004 cyc:   71781177 now IPC :0.28008: AVG IPC :0.83335: L2-Pf-HR :0.78644: L2-HR :0.77872: (Sim:0h24m27s) 
CPU  0 inst:   62000000 cyc:   75351471 now IPC :0.28009: AVG IPC :0.80679: L2-Pf-HR :0.78247: L2-HR :0.77526: (Sim:0h25m3s) 
CPU  0 inst:   63000000 cyc:   78921506 now IPC :0.28011: AVG IPC :0.78266: L2-Pf-HR :0.77859: L2-HR :0.77187: (Sim:0h25m38s) 
CPU  0 inst:   64000001 cyc:   82491170 now IPC :0.28014: AVG IPC :0.76066: L2-Pf-HR :0.77475: L2-HR :0.76855: (Sim:0h26m13s) 
CPU  0 inst:   65000002 cyc:   86060666 now IPC :0.28015: AVG IPC :0.74050: L2-Pf-HR :0.77095: L2-HR :0.76529: (Sim:0h26m49s) 
CPU  0 inst:   66000000 cyc:   89630377 now IPC :0.28013: AVG IPC :0.72196: L2-Pf-HR :0.76726: L2-HR :0.76212: (Sim:0h27m24s) 
CPU  0 inst:   67000000 cyc:   93201183 now IPC :0.28005: AVG IPC :0.70485: L2-Pf-HR :0.76365: L2-HR :0.75901: (Sim:0h28m0s) 
CPU  0 inst:   68000000 cyc:   96771835 now IPC :0.28006: AVG IPC :0.68901: L2-Pf-HR :0.76015: L2-HR :0.75600: (Sim:0h28m35s) 
CPU  0 inst:   69000004 cyc:  100341840 now IPC :0.28011: AVG IPC :0.67432: L2-Pf-HR :0.75669: L2-HR :0.75303: (Sim:0h29m10s) 
CPU  0 inst:   70000000 cyc:  103914855 now IPC :0.27987: AVG IPC :0.66063: L2-Pf-HR :0.75332: L2-HR :0.75015: (Sim:0h29m46s) 
CPU  0 inst:   71000000 cyc:  107484951 now IPC :0.28010: AVG IPC :0.64787: L2-Pf-HR :0.74999: L2-HR :0.74731: (Sim:0h30m21s) 
CPU  0 inst:   72000000 cyc:  111054549 now IPC :0.28014: AVG IPC :0.63595: L2-Pf-HR :0.74663: L2-HR :0.74447: (Sim:0h30m56s) 
CPU  0 inst:   73000000 cyc:  114625902 now IPC :0.28001: AVG IPC :0.62476: L2-Pf-HR :0.74339: L2-HR :0.74171: (Sim:0h31m32s) 
CPU  0 inst:   74000001 cyc:  118196077 now IPC :0.28010: AVG IPC :0.61426: L2-Pf-HR :0.74017: L2-HR :0.73901: (Sim:0h32m7s) 
CPU  0 inst:   75000002 cyc:  121765066 now IPC :0.28019: AVG IPC :0.60439: L2-Pf-HR :0.73711: L2-HR :0.73641: (Sim:0h32m42s) 
CPU  0 inst:   76000001 cyc:  123633880 now IPC :0.53510: AVG IPC :0.60334: L2-Pf-HR :0.73622: L2-HR :0.73745: (Sim:0h33m12s) 
CPU  0 inst:   77000003 cyc:  124221732 now IPC :1.70111: AVG IPC :0.60857: L2-Pf-HR :0.73768: L2-HR :0.74194: (Sim:0h33m39s) 
CPU  0 inst:   78000005 cyc:  124799823 now IPC :1.72983: AVG IPC :0.61381: L2-Pf-HR :0.74039: L2-HR :0.74724: (Sim:0h34m5s) 
CPU  0 inst:   79000000 cyc:  125321136 now IPC :1.91822: AVG IPC :0.61928: L2-Pf-HR :0.74414: L2-HR :0.75327: (Sim:0h34m31s) 
CPU  0 inst:   80000000 cyc:  125923797 now IPC :1.65931: AVG IPC :0.62429: L2-Pf-HR :0.74636: L2-HR :0.75802: (Sim:0h34m57s) 
CPU  0 inst:   81000001 cyc:  126515634 now IPC :1.68966: AVG IPC :0.62932: L2-Pf-HR :0.74802: L2-HR :0.76230: (Sim:0h35m24s) 
CPU  0 inst:   82000002 cyc:  127118591 now IPC :1.65849: AVG IPC :0.63424: L2-Pf-HR :0.75030: L2-HR :0.76677: (Sim:0h35m50s) 
CPU  0 inst:   83000004 cyc:  127642557 now IPC :1.90852: AVG IPC :0.63951: L2-Pf-HR :0.75384: L2-HR :0.77194: (Sim:0h36m16s) 
CPU  0 inst:   84000005 cyc:  128237346 now IPC :1.68127: AVG IPC :0.64438: L2-Pf-HR :0.75627: L2-HR :0.77613: (Sim:0h36m43s) 
CPU  0 inst:   85000000 cyc:  128800566 now IPC :1.77550: AVG IPC :0.64936: L2-Pf-HR :0.75772: L2-HR :0.77959: (Sim:0h37m9s) 
CPU  0 inst:   86000004 cyc:  129381731 now IPC :1.72069: AVG IPC :0.65421: L2-Pf-HR :0.75932: L2-HR :0.78299: (Sim:0h37m36s) 
CPU  0 inst:   87000005 cyc:  129899949 now IPC :1.92969: AVG IPC :0.65934: L2-Pf-HR :0.76275: L2-HR :0.78746: (Sim:0h38m2s) 
CPU  0 inst:   88000004 cyc:  130446772 now IPC :1.82874: AVG IPC :0.66428: L2-Pf-HR :0.76548: L2-HR :0.79131: (Sim:0h38m28s) 
CPU  0 inst:   89000001 cyc:  131008321 now IPC :1.78078: AVG IPC :0.66910: L2-Pf-HR :0.76628: L2-HR :0.79401: (Sim:0h38m54s) 
CPU  0 inst:   90000001 cyc:  131567987 now IPC :1.78678: AVG IPC :0.67389: L2-Pf-HR :0.76722: L2-HR :0.79676: (Sim:0h39m20s) 
CPU  0 inst:   91000003 cyc:  132103271 now IPC :1.86817: AVG IPC :0.67876: L2-Pf-HR :0.76958: L2-HR :0.80013: (Sim:0h39m46s) 
CPU  0 inst:   92000001 cyc:  132623191 now IPC :1.92337: AVG IPC :0.68368: L2-Pf-HR :0.77215: L2-HR :0.80360: (Sim:0h40m12s) 
CPU  0 inst:   93000002 cyc:  133200031 now IPC :1.73358: AVG IPC :0.68826: L2-Pf-HR :0.77291: L2-HR :0.80590: (Sim:0h40m38s) 
CPU  0 inst:   94000005 cyc:  133757545 now IPC :1.79368: AVG IPC :0.69290: L2-Pf-HR :0.77386: L2-HR :0.80830: (Sim:0h41m4s) 
CPU  0 inst:   95000000 cyc:  134301143 now IPC :1.83959: AVG IPC :0.69758: L2-Pf-HR :0.77594: L2-HR :0.81116: (Sim:0h41m30s) 
CPU  0 inst:   96000001 cyc:  134819761 now IPC :1.92820: AVG IPC :0.70235: L2-Pf-HR :0.77861: L2-HR :0.81431: (Sim:0h41m56s) 
CPU  0 inst:   97000000 cyc:  135386477 now IPC :1.76455: AVG IPC :0.70683: L2-Pf-HR :0.77963: L2-HR :0.81640: (Sim:0h42m22s) 
CPU  0 inst:   98000000 cyc:  135950023 now IPC :1.77448: AVG IPC :0.71128: L2-Pf-HR :0.78037: L2-HR :0.81831: (Sim:0h42m48s) 
CPU  0 inst:   99000003 cyc:  136500708 now IPC :1.81593: AVG IPC :0.71577: L2-Pf-HR :0.78196: L2-HR :0.82061: (Sim:0h43m9s) 
CPU  0 inst:  100000002 cyc:  137016556 now IPC :1.93855: AVG IPC :0.72041: L2-Pf-HR :0.78449: L2-HR :0.82341: (Sim:0h43m22s) 
CPU  0 inst:  101000004 cyc:  137584465 now IPC :1.76085: AVG IPC :0.72473: L2-Pf-HR :0.78581: L2-HR :0.82542: (Sim:0h43m35s) 
CPU  0 inst:  102000005 cyc:  138145172 now IPC :1.78346: AVG IPC :0.72906: L2-Pf-HR :0.78646: L2-HR :0.82708: (Sim:0h43m48s) 
CPU  0 inst:  103000005 cyc:  138708724 now IPC :1.77446: AVG IPC :0.73334: L2-Pf-HR :0.78757: L2-HR :0.82891: (Sim:0h44m2s) 
CPU  0 inst:  104000000 cyc:  139226594 now IPC :1.93098: AVG IPC :0.73783: L2-Pf-HR :0.78970: L2-HR :0.83128: (Sim:0h44m15s) 
CPU  0 inst:  105000002 cyc:  139785940 now IPC :1.78781: AVG IPC :0.74206: L2-Pf-HR :0.79115: L2-HR :0.83320: (Sim:0h44m28s) 
CPU  0 inst:  106000005 cyc:  140345752 now IPC :1.78632: AVG IPC :0.74625: L2-Pf-HR :0.79187: L2-HR :0.83473: (Sim:0h44m42s) 
CPU  0 inst:  107000001 cyc:  140920734 now IPC :1.73918: AVG IPC :0.75033: L2-Pf-HR :0.79263: L2-HR :0.83622: (Sim:0h44m55s) 
CPU  0 inst:  108000005 cyc:  141436790 now IPC :1.93778: AVG IPC :0.75469: L2-Pf-HR :0.79442: L2-HR :0.83830: (Sim:0h45m8s) 
CPU  0 inst:  109000003 cyc:  141985290 now IPC :1.82315: AVG IPC :0.75885: L2-Pf-HR :0.79576: L2-HR :0.84007: (Sim:0h45m21s) 
CPU  0 inst:  110000001 cyc:  142545123 now IPC :1.78624: AVG IPC :0.76291: L2-Pf-HR :0.79617: L2-HR :0.84128: (Sim:0h45m34s) 
CPU  0 inst:  111000002 cyc:  143120714 now IPC :1.73735: AVG IPC :0.76686: L2-Pf-HR :0.79667: L2-HR :0.84249: (Sim:0h45m48s) 
CPU  0 inst:  112000005 cyc:  143639944 now IPC :1.92593: AVG IPC :0.77108: L2-Pf-HR :0.79864: L2-HR :0.84447: (Sim:0h46m1s) 
CPU  0 inst:  113000001 cyc:  144173664 now IPC :1.87363: AVG IPC :0.77519: L2-Pf-HR :0.80040: L2-HR :0.84627: (Sim:0h46m14s) 
CPU  0 inst:  114000001 cyc:  144745846 now IPC :1.74770: AVG IPC :0.77906: L2-Pf-HR :0.80054: L2-HR :0.84725: (Sim:0h46m27s) 
CPU  0 inst:  115000001 cyc:  145306770 now IPC :1.78277: AVG IPC :0.78296: L2-Pf-HR :0.80096: L2-HR :0.84839: (Sim:0h46m40s) 
CPU  0 inst:  116000003 cyc:  145843243 now IPC :1.86403: AVG IPC :0.78696: L2-Pf-HR :0.80227: L2-HR :0.84987: (Sim:0h46m53s) 
CPU  0 inst:  117000005 cyc:  146363280 now IPC :1.92294: AVG IPC :0.79103: L2-Pf-HR :0.80375: L2-HR :0.85145: (Sim:0h47m6s) 
CPU  0 inst:  118000000 cyc:  146947990 now IPC :1.71024: AVG IPC :0.79471: L2-Pf-HR :0.80398: L2-HR :0.85234: (Sim:0h47m19s) 
CPU  0 inst:  119000005 cyc:  147505510 now IPC :1.79367: AVG IPC :0.79851: L2-Pf-HR :0.80437: L2-HR :0.85337: (Sim:0h47m32s) 
CPU  0 inst:  120000005 cyc:  148053311 now IPC :1.82548: AVG IPC :0.80234: L2-Pf-HR :0.80544: L2-HR :0.85466: (Sim:0h47m45s) 
CPU  0 inst:  121000004 cyc:  148574384 now IPC :1.91911: AVG IPC :0.80628: L2-Pf-HR :0.80684: L2-HR :0.85613: (Sim:0h47m58s) 
CPU  0 inst:  122000004 cyc:  149147974 now IPC :1.74341: AVG IPC :0.80991: L2-Pf-HR :0.80721: L2-HR :0.85702: (Sim:0h48m13s) 
Finished CPU 0 instr: 120000001 cyc: 148165314 AVG IPC: 0.80991 (Sim time: 0h48m13s)

ChampSim completed all CPUs

[ROI Statistics]
Core_0_instructions 120000001
Core_0_cycles 148165314
Core_0_IPC 0.80991

Core_0_branch_prediction_accuracy 99.19469
Core_0_branch_MPKI 0.24154
Core_0_average_ROB_occupancy_at_mispredict 446.58755

Core_0_L1D_total_access 53588207
Core_0_L1D_total_hit 47789637 L1D_total_Hit Ratio: 0.89179
Core_0_L1D_total_miss 5798570
Core_0_L1D_loads 30131212
Core_0_L1D_load_hit 27090901 L1D_load_Hit Ratio: 0.89910
Core_0_L1D_load_miss 3040311
Core_0_L1D_RFOs 3275097
Core_0_L1D_RFO_hit 3121314 L1D_RFO_Hit Ratio: 0.95304
Core_0_L1D_RFO_miss 153783
Core_0_L1D_prefetches 20181898
Core_0_L1D_prefetch_hit 17577422 L1D_prefetch_Hit Ratio: 0.87095
Core_0_L1D_prefetch_miss 2604476
Core_0_L1D_writebacks 0
Core_0_L1D_writeback_hit 0 L1D_writeback_Hit Ratio: -nan
Core_0_L1D_writeback_miss 0
Core_0_L1D_prefetch_requested 21967640
Core_0_L1D_prefetch_issued 21967640
Core_0_L1D_prefetch_useful 1423984 L1D_Useful Ratio: 0.06482
Core_0_L1D_prefetch_useless 1214354
Core_0_L1D_prefetch_late 90964
Core_0_L1D_average_miss_latency 846495.44313

Core_0_L1I_total_access 17052141
Core_0_L1I_total_hit 17047204 L1I_total_Hit Ratio: 0.99971
Core_0_L1I_total_miss 4937
Core_0_L1I_loads 17052141
Core_0_L1I_load_hit 17047204 L1I_load_Hit Ratio: 0.99971
Core_0_L1I_load_miss 4937
Core_0_L1I_RFOs 0
Core_0_L1I_RFO_hit 0 L1I_RFO_Hit Ratio: -nan
Core_0_L1I_RFO_miss 0
Core_0_L1I_prefetches 0
Core_0_L1I_prefetch_hit 0 L1I_prefetch_Hit Ratio: -nan
Core_0_L1I_prefetch_miss 0
Core_0_L1I_writebacks 0
Core_0_L1I_writeback_hit 0 L1I_writeback_Hit Ratio: -nan
Core_0_L1I_writeback_miss 0
Core_0_L1I_prefetch_requested 0
Core_0_L1I_prefetch_issued 0
Core_0_L1I_prefetch_useful 0 L1I_Useful Ratio: -nan
Core_0_L1I_prefetch_useless 0
Core_0_L1I_prefetch_late 0
Core_0_L1I_average_miss_latency 299.67409

Core_0_L2C_total_access 7600347
Core_0_L2C_total_hit 6513612 L2C_total_Hit Ratio: 0.85702
Core_0_L2C_total_miss 1086735
Core_0_L2C_loads 2954743
Core_0_L2C_load_hit 2735869 L2C_load_Hit Ratio: 0.92592
Core_0_L2C_load_miss 218874
Core_0_L2C_RFOs 153775
Core_0_L2C_RFO_hit 7830 L2C_RFO_Hit Ratio: 0.05092
Core_0_L2C_RFO_miss 145945
Core_0_L2C_prefetches 3744532
Core_0_L2C_prefetch_hit 3022623 L2C_prefetch_Hit Ratio: 0.80721
Core_0_L2C_prefetch_miss 721909
Core_0_L2C_writebacks 747297
Core_0_L2C_writeback_hit 747290 L2C_writeback_Hit Ratio: 0.99999
Core_0_L2C_writeback_miss 7
Core_0_L2C_prefetch_requested 1673324
Core_0_L2C_prefetch_issued 1345947
Core_0_L2C_prefetch_useful 275065 L2C_Useful Ratio: 0.20437
Core_0_L2C_prefetch_useless 454517
Core_0_L2C_prefetch_late 80053
Core_0_L2C_average_miss_latency 367.89275

Core_0_LLC_total_access 1710363
Core_0_LLC_total_hit 643381 LLC_total_Hit Ratio: 0.37617
Core_0_LLC_total_miss 1066982
Core_0_LLC_loads 138945
Core_0_LLC_load_hit 4023 LLC_load_Hit Ratio: 0.02895
Core_0_LLC_load_miss 134922
Core_0_LLC_RFOs 145943
Core_0_LLC_RFO_hit 116 LLC_RFO_Hit Ratio: 0.00079
Core_0_LLC_RFO_miss 145827
Core_0_LLC_prefetches 801840
Core_0_LLC_prefetch_hit 19432 LLC_prefetch_Hit Ratio: 0.02423
Core_0_LLC_prefetch_miss 782408
Core_0_LLC_writebacks 623635
Core_0_LLC_writeback_hit 619810 LLC_writeback_Hit Ratio: 0.99387
Core_0_LLC_writeback_miss 3825
Core_0_LLC_prefetch_requested 0
Core_0_LLC_prefetch_issued 0
Core_0_LLC_prefetch_useful 2606 LLC_Useful Ratio: inf
Core_0_LLC_prefetch_useless 751917
Core_0_LLC_prefetch_late 0
Core_0_LLC_average_miss_latency 354.88678

Core_0_major_page_fault 0
Core_0_minor_page_fault 8629

CPU 0 L1D berti prefetcher final stats
0-> Hits: 16, Late: 5, Early: 0, Misses: 0
1-> Hits: 2, Late: 1, Early: 0, Misses: 0
3-> Hits: 5, Late: 0, Early: 0, Misses: 0
4-> Hits: 2, Late: 0, Early: 0, Misses: 0
5-> Hits: 3, Late: 1, Early: 0, Misses: 0
6-> Hits: 1, Late: 0, Early: 0, Misses: 0
7-> Hits: 2, Late: 0, Early: 0, Misses: 0
8-> Hits: 0, Late: 1, Early: 0, Misses: 0
9-> Hits: 2, Late: 0, Early: 0, Misses: 0
a-> Hits: 0, Late: 2, Early: 0, Misses: 0
b-> Hits: 4, Late: 0, Early: 0, Misses: 0
e-> Hits: 17, Late: 0, Early: 0, Misses: 0
10-> Hits: 2, Late: 0, Early: 0, Misses: 0
11-> Hits: 0, Late: 1, Early: 0, Misses: 0
13-> Hits: 1, Late: 0, Early: 0, Misses: 0
14-> Hits: 2, Late: 0, Early: 0, Misses: 0
16-> Hits: 12, Late: 0, Early: 0, Misses: 0
17-> Hits: 3, Late: 0, Early: 0, Misses: 0
18-> Hits: 1, Late: 0, Early: 0, Misses: 0
1a-> Hits: 264, Late: 2, Early: 0, Misses: 0
1b-> Hits: 1, Late: 0, Early: 0, Misses: 0
1c-> Hits: 17, Late: 0, Early: 0, Misses: 0
1d-> Hits: 3, Late: 1, Early: 0, Misses: 0
1e-> Hits: 3, Late: 0, Early: 0, Misses: 0
1f-> Hits: 1, Late: 0, Early: 0, Misses: 0
20-> Hits: 2, Late: 1, Early: 0, Misses: 0
21-> Hits: 238, Late: 0, Early: 0, Misses: 0
22-> Hits: 3, Late: 1, Early: 0, Misses: 0
24-> Hits: 17, Late: 0, Early: 0, Misses: 0
25-> Hits: 3, Late: 0, Early: 0, Misses: 0
27-> Hits: 24, Late: 0, Early: 0, Misses: 0
28-> Hits: 10, Late: 0, Early: 0, Misses: 0
2a-> Hits: 257, Late: 1, Early: 0, Misses: 0
2b-> Hits: 6, Late: 0, Early: 0, Misses: 0
2c-> Hits: 1, Late: 0, Early: 0, Misses: 0
2d-> Hits: 1, Late: 0, Early: 0, Misses: 0
2f-> Hits: 4, Late: 0, Early: 0, Misses: 0
30-> Hits: 7, Late: 2, Early: 0, Misses: 0
33-> Hits: 11, Late: 0, Early: 0, Misses: 0
34-> Hits: 12, Late: 0, Early: 0, Misses: 0
35-> Hits: 7, Late: 244, Early: 0, Misses: 12
36-> Hits: 2, Late: 0, Early: 0, Misses: 0
37-> Hits: 1, Late: 0, Early: 0, Misses: 0
38-> Hits: 4, Late: 0, Early: 0, Misses: 0
39-> Hits: 2, Late: 0, Early: 0, Misses: 0
3a-> Hits: 2, Late: 0, Early: 0, Misses: 0
3c-> Hits: 2, Late: 0, Early: 0, Misses: 0
3d-> Hits: 0, Late: 24, Early: 0, Misses: 0
3e-> Hits: 2, Late: 0, Early: 0, Misses: 0
3f-> Hits: 1, Late: 0, Early: 0, Misses: 0
40-> Hits: 2, Late: 2, Early: 0, Misses: 0
43-> Hits: 2, Late: 0, Early: 0, Misses: 0
44-> Hits: 3, Late: 0, Early: 0, Misses: 0
45-> Hits: 2, Late: 0, Early: 0, Misses: 0
46-> Hits: 2, Late: 0, Early: 0, Misses: 0
47-> Hits: 2, Late: 0, Early: 0, Misses: 0
48-> Hits: 29, Late: 0, Early: 0, Misses: 0
49-> Hits: 31, Late: 0, Early: 0, Misses: 0
4a-> Hits: 26, Late: 0, Early: 0, Misses: 0
4b-> Hits: 26, Late: 0, Early: 0, Misses: 0
4d-> Hits: 26, Late: 0, Early: 0, Misses: 0
4e-> Hits: 1, Late: 0, Early: 0, Misses: 0
4f-> Hits: 24, Late: 0, Early: 0, Misses: 0
50-> Hits: 8, Late: 2, Early: 0, Misses: 0
51-> Hits: 24, Late: 0, Early: 0, Misses: 0
52-> Hits: 1, Late: 0, Early: 0, Misses: 0
53-> Hits: 27, Late: 0, Early: 0, Misses: 0
54-> Hits: 3, Late: 0, Early: 0, Misses: 0
56-> Hits: 458, Late: 0, Early: 0, Misses: 38
58-> Hits: 2, Late: 0, Early: 0, Misses: 0
5a-> Hits: 2, Late: 0, Early: 0, Misses: 0
5c-> Hits: 5, Late: 1, Early: 0, Misses: 0
5d-> Hits: 4, Late: 0, Early: 0, Misses: 0
61-> Hits: 3, Late: 0, Early: 0, Misses: 0
62-> Hits: 2, Late: 0, Early: 0, Misses: 0
63-> Hits: 0, Late: 2, Early: 0, Misses: 0
64-> Hits: 265, Late: 2, Early: 0, Misses: 0
69-> Hits: 2, Late: 0, Early: 0, Misses: 0
6a-> Hits: 2, Late: 0, Early: 0, Misses: 0
6b-> Hits: 1, Late: 12, Early: 0, Misses: 0
6f-> Hits: 1, Late: 0, Early: 0, Misses: 0
70-> Hits: 402, Late: 1, Early: 0, Misses: 0
71-> Hits: 1, Late: 0, Early: 0, Misses: 0
76-> Hits: 2, Late: 1, Early: 0, Misses: 0
77-> Hits: 2, Late: 0, Early: 0, Misses: 0
78-> Hits: 266, Late: 0, Early: 0, Misses: 0
79-> Hits: 1, Late: 0, Early: 0, Misses: 0
7a-> Hits: 3, Late: 0, Early: 0, Misses: 0
7b-> Hits: 3, Late: 2, Early: 0, Misses: 0
7c-> Hits: 1, Late: 0, Early: 0, Misses: 0
7d-> Hits: 1, Late: 0, Early: 0, Misses: 0
7e-> Hits: 3, Late: 0, Early: 0, Misses: 0
7f-> Hits: 5, Late: 0, Early: 0, Misses: 0
80-> Hits: 32195, Late: 66, Early: 0, Misses: 0
81-> Hits: 1, Late: 0, Early: 0, Misses: 0
82-> Hits: 2, Late: 0, Early: 0, Misses: 0
84-> Hits: 4, Late: 1, Early: 0, Misses: 0
86-> Hits: 1, Late: 0, Early: 0, Misses: 0
88-> Hits: 3039, Late: 334, Early: 0, Misses: 24
89-> Hits: 12, Late: 1, Early: 0, Misses: 0
8a-> Hits: 2, Late: 0, Early: 0, Misses: 0
8f-> Hits: 23, Late: 0, Early: 0, Misses: 9
90-> Hits: 0, Late: 1, Early: 0, Misses: 0
91-> Hits: 2, Late: 0, Early: 0, Misses: 0
92-> Hits: 32093, Late: 12, Early: 0, Misses: 0
94-> Hits: 16, Late: 0, Early: 0, Misses: 0
95-> Hits: 1, Late: 0, Early: 0, Misses: 0
96-> Hits: 3, Late: 0, Early: 0, Misses: 0
98-> Hits: 3, Late: 0, Early: 0, Misses: 0
99-> Hits: 1, Late: 0, Early: 0, Misses: 0
9a-> Hits: 5, Late: 0, Early: 0, Misses: 0
9b-> Hits: 3, Late: 0, Early: 0, Misses: 0
9c-> Hits: 2286, Late: 0, Early: 0, Misses: 0
9d-> Hits: 2, Late: 0, Early: 0, Misses: 0
9e-> Hits: 2, Late: 0, Early: 0, Misses: 0
9f-> Hits: 4, Late: 0, Early: 0, Misses: 0
a0-> Hits: 1507, Late: 4, Early: 0, Misses: 1
a1-> Hits: 5, Late: 0, Early: 0, Misses: 0
a2-> Hits: 1, Late: 0, Early: 0, Misses: 0
a3-> Hits: 3, Late: 0, Early: 0, Misses: 0
a4-> Hits: 6, Late: 0, Early: 0, Misses: 0
a5-> Hits: 4, Late: 0, Early: 0, Misses: 0
a6-> Hits: 32093, Late: 12, Early: 0, Misses: 0
a7-> Hits: 4, Late: 0, Early: 0, Misses: 0
a8-> Hits: 3, Late: 0, Early: 0, Misses: 0
a9-> Hits: 4, Late: 0, Early: 0, Misses: 0
aa-> Hits: 2, Late: 0, Early: 0, Misses: 0
ab-> Hits: 5, Late: 0, Early: 0, Misses: 0
ac-> Hits: 392, Late: 13, Early: 0, Misses: 0
ad-> Hits: 4, Late: 0, Early: 0, Misses: 0
ae-> Hits: 6, Late: 0, Early: 0, Misses: 0
af-> Hits: 3, Late: 11, Early: 0, Misses: 0
b0-> Hits: 15, Late: 6, Early: 0, Misses: 0
b1-> Hits: 1, Late: 1, Early: 0, Misses: 0
b3-> Hits: 6, Late: 0, Early: 0, Misses: 0
b4-> Hits: 4, Late: 0, Early: 0, Misses: 0
b6-> Hits: 23015, Late: 9248, Early: 0, Misses: 0
b7-> Hits: 1535, Late: 0, Early: 0, Misses: 0
b8-> Hits: 2, Late: 1, Early: 0, Misses: 0
ba-> Hits: 2, Late: 0, Early: 0, Misses: 0
bb-> Hits: 1226, Late: 31030, Early: 0, Misses: 0
bc-> Hits: 2, Late: 0, Early: 0, Misses: 0
bf-> Hits: 1, Late: 0, Early: 0, Misses: 0
c0-> Hits: 11, Late: 26, Early: 0, Misses: 0
c1-> Hits: 1, Late: 0, Early: 0, Misses: 0
c2-> Hits: 5, Late: 1, Early: 0, Misses: 0
c3-> Hits: 6, Late: 0, Early: 0, Misses: 0
c4-> Hits: 267, Late: 0, Early: 0, Misses: 12
c5-> Hits: 1, Late: 0, Early: 0, Misses: 0
c6-> Hits: 117, Late: 0, Early: 0, Misses: 0
c7-> Hits: 5, Late: 0, Early: 0, Misses: 0
c8-> Hits: 10, Late: 0, Early: 0, Misses: 0
c9-> Hits: 1, Late: 0, Early: 0, Misses: 0
ca-> Hits: 1, Late: 0, Early: 0, Misses: 0
cb-> Hits: 24615, Late: 7894, Early: 0, Misses: 24
cc-> Hits: 1, Late: 0, Early: 0, Misses: 0
cf-> Hits: 1, Late: 0, Early: 0, Misses: 0
d0-> Hits: 1360, Late: 32432, Early: 0, Misses: 0
d1-> Hits: 3, Late: 0, Early: 0, Misses: 0
d2-> Hits: 6, Late: 0, Early: 0, Misses: 0
d3-> Hits: 23, Late: 7, Early: 0, Misses: 0
d4-> Hits: 1, Late: 0, Early: 0, Misses: 0
d5-> Hits: 2, Late: 0, Early: 0, Misses: 0
d6-> Hits: 1, Late: 1, Early: 0, Misses: 0
d7-> Hits: 1, Late: 0, Early: 0, Misses: 0
d8-> Hits: 1, Late: 0, Early: 0, Misses: 0
d9-> Hits: 16, Late: 264, Early: 0, Misses: 1
da-> Hits: 918, Late: 618, Early: 0, Misses: 0
db-> Hits: 2, Late: 0, Early: 0, Misses: 0
dd-> Hits: 2, Late: 0, Early: 0, Misses: 0
df-> Hits: 1, Late: 0, Early: 0, Misses: 0
e0-> Hits: 12, Late: 6, Early: 0, Misses: 0
e1-> Hits: 1, Late: 0, Early: 0, Misses: 0
e5-> Hits: 1, Late: 1535, Early: 0, Misses: 0
ea-> Hits: 2, Late: 0, Early: 0, Misses: 0
ef-> Hits: 1327, Late: 209, Early: 0, Misses: 0
f3-> Hits: 269, Late: 1, Early: 0, Misses: 0
f4-> Hits: 1, Late: 0, Early: 0, Misses: 0
f6-> Hits: 2, Late: 0, Early: 0, Misses: 0
f7-> Hits: 4, Late: 0, Early: 0, Misses: 0
f8-> Hits: 3, Late: 0, Early: 0, Misses: 0
fa-> Hits: 2, Late: 0, Early: 0, Misses: 0
fb-> Hits: 14, Late: 0, Early: 0, Misses: 0
fc-> Hits: 1, Late: 0, Early: 0, Misses: 0
fd-> Hits: 2, Late: 0, Early: 0, Misses: 0
fe-> Hits: 1, Late: 0, Early: 0, Misses: 0
ff-> Hits: 4, Late: 0, Early: 0, Misses: 0
100-> Hits: 10, Late: 3, Early: 0, Misses: 0
101-> Hits: 1, Late: 0, Early: 0, Misses: 0
103-> Hits: 1, Late: 0, Early: 0, Misses: 0
104-> Hits: 0, Late: 1, Early: 0, Misses: 0
106-> Hits: 1, Late: 0, Early: 0, Misses: 0
10a-> Hits: 1, Late: 0, Early: 0, Misses: 0
10b-> Hits: 3, Late: 0, Early: 0, Misses: 0
10d-> Hits: 3, Late: 0, Early: 0, Misses: 0
10e-> Hits: 1, Late: 0, Early: 0, Misses: 0
10f-> Hits: 1, Late: 0, Early: 0, Misses: 0
110-> Hits: 1, Late: 1, Early: 0, Misses: 0
112-> Hits: 12, Late: 1, Early: 0, Misses: 0
114-> Hits: 1, Late: 0, Early: 0, Misses: 0
115-> Hits: 24418, Late: 159, Early: 0, Misses: 0
116-> Hits: 1, Late: 0, Early: 0, Misses: 0
117-> Hits: 3, Late: 0, Early: 0, Misses: 0
118-> Hits: 1, Late: 0, Early: 0, Misses: 0
11a-> Hits: 4, Late: 0, Early: 0, Misses: 0
11b-> Hits: 4, Late: 0, Early: 0, Misses: 0
11c-> Hits: 5929, Late: 4, Early: 0, Misses: 0
11d-> Hits: 1, Late: 0, Early: 0, Misses: 0
11e-> Hits: 2, Late: 0, Early: 0, Misses: 0
11f-> Hits: 1, Late: 0, Early: 0, Misses: 0
120-> Hits: 2, Late: 2, Early: 0, Misses: 0
121-> Hits: 1, Late: 0, Early: 0, Misses: 0
122-> Hits: 2, Late: 0, Early: 0, Misses: 0
123-> Hits: 1, Late: 0, Early: 0, Misses: 0
124-> Hits: 3, Late: 0, Early: 0, Misses: 0
125-> Hits: 1, Late: 0, Early: 0, Misses: 0
126-> Hits: 1, Late: 0, Early: 0, Misses: 0
127-> Hits: 24573, Late: 1, Early: 0, Misses: 0
128-> Hits: 272, Late: 3, Early: 0, Misses: 0
129-> Hits: 2, Late: 0, Early: 0, Misses: 0
12b-> Hits: 6, Late: 0, Early: 0, Misses: 0
12c-> Hits: 2, Late: 0, Early: 0, Misses: 0
12d-> Hits: 2, Late: 0, Early: 0, Misses: 0
12e-> Hits: 2369, Late: 0, Early: 0, Misses: 0
12f-> Hits: 1, Late: 0, Early: 0, Misses: 0
130-> Hits: 8, Late: 1, Early: 0, Misses: 0
132-> Hits: 1, Late: 0, Early: 0, Misses: 0
133-> Hits: 1, Late: 0, Early: 0, Misses: 0
134-> Hits: 0, Late: 1, Early: 0, Misses: 0
136-> Hits: 1, Late: 0, Early: 0, Misses: 0
137-> Hits: 1, Late: 0, Early: 0, Misses: 0
138-> Hits: 1, Late: 0, Early: 0, Misses: 0
139-> Hits: 1615, Late: 0, Early: 0, Misses: 0
13a-> Hits: 3, Late: 0, Early: 0, Misses: 0
13b-> Hits: 1, Late: 0, Early: 0, Misses: 0
13c-> Hits: 1, Late: 0, Early: 0, Misses: 0
13e-> Hits: 1, Late: 0, Early: 0, Misses: 0
13f-> Hits: 1, Late: 0, Early: 0, Misses: 0
140-> Hits: 1, Late: 3, Early: 0, Misses: 0
142-> Hits: 4, Late: 0, Early: 0, Misses: 0
143-> Hits: 1, Late: 0, Early: 0, Misses: 0
144-> Hits: 1540, Late: 7, Early: 0, Misses: 0
145-> Hits: 1, Late: 0, Early: 0, Misses: 0
147-> Hits: 14, Late: 0, Early: 0, Misses: 0
148-> Hits: 2, Late: 0, Early: 0, Misses: 0
149-> Hits: 4, Late: 0, Early: 0, Misses: 0
14a-> Hits: 24571, Late: 0, Early: 0, Misses: 0
14d-> Hits: 0, Late: 1, Early: 0, Misses: 0
14f-> Hits: 13, Late: 0, Early: 0, Misses: 0
154-> Hits: 2073, Late: 1, Early: 0, Misses: 0
155-> Hits: 2, Late: 2, Early: 0, Misses: 0
156-> Hits: 0, Late: 1, Early: 0, Misses: 0
159-> Hits: 16, Late: 0, Early: 0, Misses: 0
15b-> Hits: 2, Late: 0, Early: 0, Misses: 0
15d-> Hits: 3, Late: 0, Early: 0, Misses: 0
15f-> Hits: 2660, Late: 0, Early: 0, Misses: 0
160-> Hits: 1, Late: 0, Early: 0, Misses: 0
163-> Hits: 1, Late: 0, Early: 0, Misses: 0
164-> Hits: 277, Late: 0, Early: 0, Misses: 0
165-> Hits: 2, Late: 0, Early: 0, Misses: 0
168-> Hits: 1, Late: 0, Early: 0, Misses: 0
169-> Hits: 12, Late: 0, Early: 0, Misses: 0
16a-> Hits: 5468, Late: 25, Early: 0, Misses: 0
16b-> Hits: 14, Late: 0, Early: 0, Misses: 0
16d-> Hits: 24, Late: 0, Early: 0, Misses: 0
16e-> Hits: 263, Late: 18, Early: 0, Misses: 0
16f-> Hits: 14, Late: 0, Early: 0, Misses: 0
171-> Hits: 12, Late: 0, Early: 0, Misses: 0
172-> Hits: 2, Late: 0, Early: 0, Misses: 0
175-> Hits: 5509, Late: 23, Early: 0, Misses: 0
176-> Hits: 13, Late: 0, Early: 0, Misses: 0
177-> Hits: 13, Late: 0, Early: 0, Misses: 0
178-> Hits: 1, Late: 0, Early: 0, Misses: 0
17a-> Hits: 0, Late: 1, Early: 0, Misses: 0
17b-> Hits: 3139, Late: 0, Early: 0, Misses: 0
17c-> Hits: 22, Late: 0, Early: 0, Misses: 0
17d-> Hits: 2, Late: 0, Early: 0, Misses: 0
17e-> Hits: 2, Late: 0, Early: 0, Misses: 0
17f-> Hits: 1, Late: 0, Early: 0, Misses: 0
180-> Hits: 13, Late: 6, Early: 0, Misses: 0
181-> Hits: 9, Late: 0, Early: 0, Misses: 0
184-> Hits: 5, Late: 0, Early: 0, Misses: 0
185-> Hits: 4729, Late: 0, Early: 0, Misses: 0
188-> Hits: 2, Late: 0, Early: 0, Misses: 0
189-> Hits: 3, Late: 0, Early: 0, Misses: 0
18b-> Hits: 24523, Late: 1, Early: 0, Misses: 0
18c-> Hits: 3, Late: 0, Early: 0, Misses: 0
18e-> Hits: 1, Late: 0, Early: 0, Misses: 0
18f-> Hits: 1, Late: 0, Early: 0, Misses: 0
190-> Hits: 10, Late: 1, Early: 0, Misses: 0
192-> Hits: 2, Late: 0, Early: 0, Misses: 0
194-> Hits: 1, Late: 24, Early: 0, Misses: 0
195-> Hits: 2, Late: 0, Early: 0, Misses: 0
197-> Hits: 3314, Late: 1, Early: 0, Misses: 0
198-> Hits: 5, Late: 0, Early: 0, Misses: 0
199-> Hits: 6, Late: 24, Early: 0, Misses: 0
19a-> Hits: 3, Late: 0, Early: 0, Misses: 0
19b-> Hits: 7, Late: 0, Early: 0, Misses: 0
19c-> Hits: 3, Late: 0, Early: 0, Misses: 0
19d-> Hits: 12, Late: 1, Early: 0, Misses: 0
19e-> Hits: 2, Late: 0, Early: 0, Misses: 0
19f-> Hits: 4, Late: 0, Early: 0, Misses: 0
1a0-> Hits: 1944, Late: 1403, Early: 0, Misses: 63185
1a1-> Hits: 5, Late: 0, Early: 0, Misses: 0
1a2-> Hits: 2623, Late: 10, Early: 0, Misses: 0
1a4-> Hits: 39626, Late: 574, Early: 0, Misses: 21442
1a5-> Hits: 1, Late: 0, Early: 0, Misses: 0
1a6-> Hits: 1, Late: 0, Early: 0, Misses: 0
1a7-> Hits: 4, Late: 0, Early: 0, Misses: 0
1a8-> Hits: 4, Late: 0, Early: 0, Misses: 0
1a9-> Hits: 2981, Late: 51, Early: 0, Misses: 1941
1ad-> Hits: 2323, Late: 12, Early: 0, Misses: 0
1ae-> Hits: 2, Late: 0, Early: 0, Misses: 0
1af-> Hits: 7, Late: 0, Early: 0, Misses: 0
1b0-> Hits: 5, Late: 2, Early: 0, Misses: 0
1b1-> Hits: 56928, Late: 1060, Early: 0, Misses: 2771
1b3-> Hits: 24580, Late: 0, Early: 0, Misses: 0
1b5-> Hits: 2, Late: 2, Early: 0, Misses: 0
1b6-> Hits: 2, Late: 1, Early: 0, Misses: 0
1b7-> Hits: 22, Late: 3, Early: 0, Misses: 0
1b8-> Hits: 2, Late: 2, Early: 0, Misses: 0
1b9-> Hits: 1, Late: 0, Early: 0, Misses: 0
1ba-> Hits: 3, Late: 0, Early: 0, Misses: 0
1bc-> Hits: 2209, Late: 2, Early: 0, Misses: 0
1bd-> Hits: 5, Late: 0, Early: 0, Misses: 0
1be-> Hits: 5, Late: 0, Early: 0, Misses: 0
1bf-> Hits: 7, Late: 0, Early: 0, Misses: 0
1c0-> Hits: 3, Late: 3, Early: 0, Misses: 0
1c1-> Hits: 46133, Late: 5047, Early: 0, Misses: 15340
1c2-> Hits: 12, Late: 2, Early: 0, Misses: 0
1c3-> Hits: 5, Late: 0, Early: 0, Misses: 0
1c4-> Hits: 3, Late: 0, Early: 0, Misses: 0
1c5-> Hits: 58746, Late: 1048, Early: 0, Misses: 2772
1c6-> Hits: 4, Late: 0, Early: 0, Misses: 0
1c7-> Hits: 2043, Late: 15, Early: 0, Misses: 0
1c8-> Hits: 4, Late: 0, Early: 0, Misses: 0
1c9-> Hits: 1, Late: 0, Early: 0, Misses: 0
1ca-> Hits: 2, Late: 0, Early: 0, Misses: 0
1cc-> Hits: 1, Late: 2, Early: 0, Misses: 0
1cd-> Hits: 6, Late: 0, Early: 0, Misses: 0
1ce-> Hits: 3, Late: 0, Early: 0, Misses: 0
1d0-> Hits: 12, Late: 1, Early: 0, Misses: 0
1d2-> Hits: 2844, Late: 2, Early: 0, Misses: 0
1d4-> Hits: 1, Late: 0, Early: 0, Misses: 0
1d6-> Hits: 60327, Late: 1110, Early: 0, Misses: 2769
1d7-> Hits: 1, Late: 0, Early: 0, Misses: 0
1d8-> Hits: 7, Late: 0, Early: 0, Misses: 0
1da-> Hits: 3, Late: 0, Early: 0, Misses: 0
1db-> Hits: 5, Late: 1, Early: 0, Misses: 0
1dd-> Hits: 24393, Late: 59, Early: 0, Misses: 0
1de-> Hits: 11, Late: 1, Early: 0, Misses: 0
1df-> Hits: 13, Late: 0, Early: 0, Misses: 0
1e0-> Hits: 8, Late: 1, Early: 0, Misses: 0
1e1-> Hits: 8, Late: 1, Early: 0, Misses: 0
1e2-> Hits: 1, Late: 1, Early: 0, Misses: 0
1e3-> Hits: 2726, Late: 0, Early: 0, Misses: 0
1e4-> Hits: 1, Late: 0, Early: 0, Misses: 0
1e5-> Hits: 2, Late: 1, Early: 0, Misses: 0
1e7-> Hits: 59090, Late: 1086, Early: 0, Misses: 2772
1e8-> Hits: 0, Late: 1, Early: 0, Misses: 0
1ea-> Hits: 0, Late: 1, Early: 0, Misses: 0
1eb-> Hits: 5, Late: 0, Early: 0, Misses: 0
1ec-> Hits: 2, Late: 0, Early: 0, Misses: 0
1ef-> Hits: 15, Late: 0, Early: 0, Misses: 0
1f0-> Hits: 14, Late: 278, Early: 0, Misses: 0
1f1-> Hits: 1, Late: 0, Early: 0, Misses: 0
1f2-> Hits: 1, Late: 0, Early: 0, Misses: 0
1f4-> Hits: 1, Late: 239, Early: 0, Misses: 0
1f6-> Hits: 1, Late: 0, Early: 0, Misses: 0
1f7-> Hits: 60566, Late: 1120, Early: 0, Misses: 2769
1f8-> Hits: 5, Late: 0, Early: 0, Misses: 0
1f9-> Hits: 2, Late: 10, Early: 0, Misses: 0
1fa-> Hits: 1, Late: 0, Early: 0, Misses: 0
1fc-> Hits: 2, Late: 12, Early: 0, Misses: 0
1fd-> Hits: 0, Late: 1, Early: 0, Misses: 0
1fe-> Hits: 13, Late: 21, Early: 0, Misses: 0
200-> Hits: 1, Late: 0, Early: 0, Misses: 0
201-> Hits: 5, Late: 0, Early: 0, Misses: 0
202-> Hits: 1, Late: 0, Early: 0, Misses: 0
203-> Hits: 13, Late: 0, Early: 0, Misses: 0
205-> Hits: 3, Late: 0, Early: 0, Misses: 0
206-> Hits: 4, Late: 1, Early: 0, Misses: 0
207-> Hits: 12, Late: 0, Early: 0, Misses: 0
208-> Hits: 59596, Late: 1084, Early: 0, Misses: 2771
20a-> Hits: 5, Late: 0, Early: 0, Misses: 0
20c-> Hits: 5, Late: 0, Early: 0, Misses: 0
20e-> Hits: 6, Late: 0, Early: 0, Misses: 0
20f-> Hits: 11, Late: 5, Early: 0, Misses: 0
210-> Hits: 1547, Late: 3, Early: 0, Misses: 0
212-> Hits: 5, Late: 0, Early: 0, Misses: 0
214-> Hits: 2, Late: 7, Early: 0, Misses: 0
216-> Hits: 3, Late: 0, Early: 0, Misses: 0
217-> Hits: 11, Late: 1, Early: 0, Misses: 0
218-> Hits: 3, Late: 0, Early: 0, Misses: 0
219-> Hits: 1929, Late: 1487, Early: 0, Misses: 63113
21a-> Hits: 8, Late: 1, Early: 0, Misses: 0
21d-> Hits: 41206, Late: 587, Early: 0, Misses: 20156
21f-> Hits: 9, Late: 0, Early: 0, Misses: 0
220-> Hits: 5, Late: 4, Early: 0, Misses: 0
221-> Hits: 4, Late: 1, Early: 0, Misses: 0
222-> Hits: 3725, Late: 43, Early: 0, Misses: 899
224-> Hits: 1, Late: 2, Early: 0, Misses: 0
225-> Hits: 6, Late: 1, Early: 0, Misses: 0
226-> Hits: 1, Late: 0, Early: 0, Misses: 0
227-> Hits: 0, Late: 1, Early: 0, Misses: 0
228-> Hits: 1, Late: 0, Early: 0, Misses: 0
22a-> Hits: 28747, Late: 106, Early: 0, Misses: 536
22b-> Hits: 7, Late: 1, Early: 0, Misses: 0
22c-> Hits: 5, Late: 0, Early: 0, Misses: 0
22d-> Hits: 3, Late: 0, Early: 0, Misses: 0
22e-> Hits: 1, Late: 0, Early: 0, Misses: 0
22f-> Hits: 3, Late: 0, Early: 0, Misses: 0
230-> Hits: 4, Late: 1, Early: 0, Misses: 0
231-> Hits: 7, Late: 0, Early: 0, Misses: 0
232-> Hits: 4, Late: 0, Early: 0, Misses: 0
233-> Hits: 4, Late: 0, Early: 0, Misses: 0
234-> Hits: 1, Late: 0, Early: 0, Misses: 0
235-> Hits: 2, Late: 0, Early: 0, Misses: 0
236-> Hits: 1, Late: 0, Early: 0, Misses: 0
23a-> Hits: 61320, Late: 1518, Early: 0, Misses: 3696
23b-> Hits: 5, Late: 0, Early: 0, Misses: 0
23c-> Hits: 5, Late: 0, Early: 0, Misses: 0
23d-> Hits: 17, Late: 2, Early: 0, Misses: 0
23e-> Hits: 6, Late: 0, Early: 0, Misses: 0
23f-> Hits: 27837, Late: 78, Early: 0, Misses: 507
240-> Hits: 11, Late: 5, Early: 0, Misses: 0
241-> Hits: 2, Late: 0, Early: 0, Misses: 0
245-> Hits: 5, Late: 0, Early: 0, Misses: 0
246-> Hits: 4, Late: 0, Early: 0, Misses: 0
247-> Hits: 1, Late: 0, Early: 0, Misses: 0
248-> Hits: 4, Late: 0, Early: 0, Misses: 0
249-> Hits: 2, Late: 0, Early: 0, Misses: 0
24a-> Hits: 1, Late: 1, Early: 0, Misses: 0
24b-> Hits: 1, Late: 0, Early: 0, Misses: 0
24d-> Hits: 2, Late: 0, Early: 0, Misses: 0
24e-> Hits: 1, Late: 0, Early: 0, Misses: 0
24f-> Hits: 4, Late: 0, Early: 0, Misses: 0
250-> Hits: 25737, Late: 58, Early: 0, Misses: 478
251-> Hits: 4, Late: 0, Early: 0, Misses: 0
252-> Hits: 4, Late: 1, Early: 0, Misses: 0
253-> Hits: 1, Late: 0, Early: 0, Misses: 0
254-> Hits: 4, Late: 0, Early: 0, Misses: 0
255-> Hits: 2, Late: 1, Early: 0, Misses: 0
256-> Hits: 3, Late: 0, Early: 0, Misses: 0
258-> Hits: 4, Late: 0, Early: 0, Misses: 0
25a-> Hits: 3, Late: 0, Early: 0, Misses: 0
25c-> Hits: 1, Late: 0, Early: 0, Misses: 0
25d-> Hits: 1, Late: 0, Early: 0, Misses: 0
25e-> Hits: 1, Late: 0, Early: 0, Misses: 0
25f-> Hits: 1, Late: 2, Early: 0, Misses: 0
260-> Hits: 1544, Late: 4, Early: 0, Misses: 0
261-> Hits: 26067, Late: 59, Early: 0, Misses: 406
263-> Hits: 10, Late: 0, Early: 0, Misses: 0
264-> Hits: 2, Late: 0, Early: 0, Misses: 0
265-> Hits: 3, Late: 0, Early: 0, Misses: 0
266-> Hits: 4, Late: 0, Early: 0, Misses: 0
267-> Hits: 6, Late: 0, Early: 0, Misses: 0
268-> Hits: 1470, Late: 60, Early: 0, Misses: 11
269-> Hits: 1, Late: 0, Early: 0, Misses: 0
26a-> Hits: 2, Late: 0, Early: 0, Misses: 0
26b-> Hits: 1, Late: 0, Early: 0, Misses: 0
26d-> Hits: 12, Late: 0, Early: 0, Misses: 0
26e-> Hits: 0, Late: 0, Early: 0, Misses: 24
270-> Hits: 17, Late: 1, Early: 0, Misses: 0
271-> Hits: 24718, Late: 85, Early: 0, Misses: 413
275-> Hits: 12, Late: 0, Early: 0, Misses: 0
276-> Hits: 1511, Late: 26, Early: 0, Misses: 0
277-> Hits: 1, Late: 0, Early: 0, Misses: 0
278-> Hits: 1, Late: 0, Early: 0, Misses: 0
27a-> Hits: 12, Late: 0, Early: 0, Misses: 0
27b-> Hits: 5, Late: 0, Early: 0, Misses: 0
27c-> Hits: 2, Late: 0, Early: 0, Misses: 0
27d-> Hits: 264, Late: 1, Early: 0, Misses: 0
27e-> Hits: 6, Late: 0, Early: 0, Misses: 0
27f-> Hits: 12, Late: 0, Early: 0, Misses: 0
280-> Hits: 0, Late: 2, Early: 0, Misses: 0
281-> Hits: 1, Late: 0, Early: 0, Misses: 0
282-> Hits: 25455, Late: 169, Early: 0, Misses: 681
284-> Hits: 4, Late: 0, Early: 0, Misses: 0
285-> Hits: 12, Late: 1, Early: 0, Misses: 0
289-> Hits: 0, Late: 1, Early: 0, Misses: 0
28a-> Hits: 3, Late: 0, Early: 0, Misses: 0
28f-> Hits: 10, Late: 0, Early: 0, Misses: 0
290-> Hits: 1, Late: 0, Early: 0, Misses: 0
291-> Hits: 1, Late: 0, Early: 0, Misses: 0
293-> Hits: 2062, Late: 1534, Early: 0, Misses: 62933
297-> Hits: 43039, Late: 519, Early: 0, Misses: 18685
298-> Hits: 1, Late: 0, Early: 0, Misses: 0
299-> Hits: 1, Late: 0, Early: 0, Misses: 0
29a-> Hits: 1, Late: 0, Early: 0, Misses: 0
29c-> Hits: 3207, Late: 37, Early: 0, Misses: 1191
29d-> Hits: 11, Late: 2, Early: 0, Misses: 0
29e-> Hits: 2, Late: 0, Early: 0, Misses: 0
29f-> Hits: 8, Late: 0, Early: 0, Misses: 0
2a0-> Hits: 2, Late: 1, Early: 0, Misses: 0
2a1-> Hits: 2, Late: 0, Early: 0, Misses: 0
2a2-> Hits: 13, Late: 0, Early: 0, Misses: 0
2a4-> Hits: 47675, Late: 301, Early: 0, Misses: 1583
2a5-> Hits: 1, Late: 0, Early: 0, Misses: 0
2a6-> Hits: 4, Late: 0, Early: 0, Misses: 0
2a7-> Hits: 5, Late: 0, Early: 0, Misses: 0
2a8-> Hits: 1, Late: 0, Early: 0, Misses: 0
2a9-> Hits: 7, Late: 0, Early: 0, Misses: 0
2aa-> Hits: 5, Late: 0, Early: 0, Misses: 0
2ad-> Hits: 1, Late: 1, Early: 0, Misses: 0
2ae-> Hits: 264, Late: 0, Early: 0, Misses: 0
2af-> Hits: 1, Late: 1, Early: 0, Misses: 0
2b0-> Hits: 1, Late: 0, Early: 0, Misses: 0
2b1-> Hits: 1, Late: 1, Early: 0, Misses: 0
2b3-> Hits: 1, Late: 1, Early: 0, Misses: 0
2b4-> Hits: 43023, Late: 261, Early: 0, Misses: 1775
2b6-> Hits: 1, Late: 1, Early: 0, Misses: 0
2b7-> Hits: 0, Late: 1, Early: 0, Misses: 0
2bd-> Hits: 15, Late: 0, Early: 0, Misses: 0
2c0-> Hits: 104, Late: 54, Early: 0, Misses: 0
2c1-> Hits: 1, Late: 1, Early: 0, Misses: 0
2c3-> Hits: 1, Late: 0, Early: 0, Misses: 0
2c5-> Hits: 49172, Late: 4804, Early: 0, Misses: 12701
2c6-> Hits: 3, Late: 0, Early: 0, Misses: 0
2c7-> Hits: 1, Late: 0, Early: 0, Misses: 0
2c8-> Hits: 2, Late: 0, Early: 0, Misses: 0
2c9-> Hits: 8, Late: 1, Early: 0, Misses: 0
2ca-> Hits: 45508, Late: 335, Early: 0, Misses: 1810
2cc-> Hits: 2, Late: 1, Early: 0, Misses: 0
2cd-> Hits: 1, Late: 2, Early: 0, Misses: 0
2d0-> Hits: 101, Late: 44, Early: 0, Misses: 0
2d1-> Hits: 1, Late: 1, Early: 0, Misses: 0
2d3-> Hits: 0, Late: 1, Early: 0, Misses: 0
2d6-> Hits: 2, Late: 1, Early: 0, Misses: 0
2d8-> Hits: 1, Late: 0, Early: 0, Misses: 0
2da-> Hits: 2, Late: 0, Early: 0, Misses: 0
2db-> Hits: 45637, Late: 213, Early: 0, Misses: 1786
2dc-> Hits: 4, Late: 0, Early: 0, Misses: 0
2de-> Hits: 2, Late: 0, Early: 0, Misses: 0
2df-> Hits: 3, Late: 1, Early: 0, Misses: 0
2e0-> Hits: 117, Late: 67, Early: 0, Misses: 0
2e2-> Hits: 3, Late: 0, Early: 0, Misses: 0
2e4-> Hits: 2, Late: 0, Early: 0, Misses: 0
2e5-> Hits: 138, Late: 36, Early: 0, Misses: 0
2e6-> Hits: 5, Late: 1, Early: 0, Misses: 0
2e9-> Hits: 2, Late: 0, Early: 0, Misses: 0
2ea-> Hits: 73, Late: 101, Early: 0, Misses: 0
2eb-> Hits: 46460, Late: 178, Early: 0, Misses: 1775
2ed-> Hits: 1, Late: 0, Early: 0, Misses: 0
2ee-> Hits: 1, Late: 0, Early: 0, Misses: 0
2ef-> Hits: 1, Late: 0, Early: 0, Misses: 0
2f0-> Hits: 101, Late: 73, Early: 0, Misses: 0
2f1-> Hits: 2, Late: 0, Early: 0, Misses: 0
2f2-> Hits: 1, Late: 0, Early: 0, Misses: 0
2f3-> Hits: 27, Late: 1, Early: 0, Misses: 0
2f4-> Hits: 10, Late: 0, Early: 0, Misses: 0
2f5-> Hits: 13, Late: 0, Early: 0, Misses: 0
2f6-> Hits: 10, Late: 0, Early: 0, Misses: 0
2f7-> Hits: 14, Late: 0, Early: 0, Misses: 0
2f8-> Hits: 10, Late: 0, Early: 0, Misses: 0
2fa-> Hits: 10, Late: 0, Early: 0, Misses: 0
2fb-> Hits: 20, Late: 1, Early: 0, Misses: 0
2fc-> Hits: 47650, Late: 142, Early: 0, Misses: 1440
2ff-> Hits: 104, Late: 64, Early: 0, Misses: 0
300-> Hits: 32010, Late: 189, Early: 0, Misses: 0
301-> Hits: 1, Late: 0, Early: 0, Misses: 0
302-> Hits: 2, Late: 0, Early: 0, Misses: 0
304-> Hits: 5823, Late: 844, Early: 0, Misses: 0
305-> Hits: 10, Late: 0, Early: 0, Misses: 0
306-> Hits: 1, Late: 0, Early: 0, Misses: 0
308-> Hits: 1, Late: 1, Early: 0, Misses: 0
309-> Hits: 2596, Late: 3272, Early: 0, Misses: 0
30a-> Hits: 2, Late: 0, Early: 0, Misses: 0
30b-> Hits: 2, Late: 0, Early: 0, Misses: 0
30c-> Hits: 1, Late: 0, Early: 0, Misses: 0
30d-> Hits: 1923, Late: 1504, Early: 0, Misses: 63101
30f-> Hits: 3198, Late: 639, Early: 0, Misses: 0
310-> Hits: 1, Late: 1, Early: 0, Misses: 0
311-> Hits: 41443, Late: 680, Early: 0, Misses: 20656
312-> Hits: 2, Late: 0, Early: 0, Misses: 0
313-> Hits: 1, Late: 0, Early: 0, Misses: 0
314-> Hits: 2336, Late: 1976, Early: 0, Misses: 1
315-> Hits: 540, Late: 0, Early: 0, Misses: 0
316-> Hits: 2442, Late: 40, Early: 0, Misses: 1416
317-> Hits: 9, Late: 2, Early: 0, Misses: 0
318-> Hits: 12, Late: 1, Early: 0, Misses: 1
319-> Hits: 7, Late: 0, Early: 0, Misses: 0
31a-> Hits: 768, Late: 32028, Early: 0, Misses: 0
31b-> Hits: 5, Late: 0, Early: 0, Misses: 0
31d-> Hits: 4, Late: 0, Early: 0, Misses: 0
31e-> Hits: 40117, Late: 512, Early: 0, Misses: 172
31f-> Hits: 1544, Late: 30722, Early: 0, Misses: 0
320-> Hits: 421, Late: 0, Early: 0, Misses: 0
323-> Hits: 110, Late: 33, Early: 0, Misses: 0
324-> Hits: 1, Late: 0, Early: 0, Misses: 0
325-> Hits: 269, Late: 31988, Early: 0, Misses: 0
326-> Hits: 2, Late: 0, Early: 0, Misses: 0
327-> Hits: 1, Late: 0, Early: 0, Misses: 0
328-> Hits: 20, Late: 122, Early: 0, Misses: 0
32a-> Hits: 1831, Late: 30425, Early: 0, Misses: 0
32c-> Hits: 1, Late: 0, Early: 0, Misses: 0
32d-> Hits: 1, Late: 0, Early: 0, Misses: 0
32e-> Hits: 44783, Late: 528, Early: 0, Misses: 388
32f-> Hits: 1, Late: 0, Early: 0, Misses: 0
330-> Hits: 4, Late: 1, Early: 0, Misses: 0
332-> Hits: 5, Late: 0, Early: 0, Misses: 0
333-> Hits: 2, Late: 0, Early: 0, Misses: 0
334-> Hits: 32097, Late: 142, Early: 0, Misses: 0
335-> Hits: 2, Late: 0, Early: 0, Misses: 0
336-> Hits: 1, Late: 0, Early: 0, Misses: 0
338-> Hits: 4, Late: 0, Early: 0, Misses: 0
339-> Hits: 1, Late: 0, Early: 0, Misses: 0
33a-> Hits: 7, Late: 0, Early: 0, Misses: 0
33c-> Hits: 1, Late: 0, Early: 0, Misses: 0
33d-> Hits: 2, Late: 0, Early: 0, Misses: 0
33f-> Hits: 38515, Late: 513, Early: 0, Misses: 261
340-> Hits: 29, Late: 49, Early: 0, Misses: 1510
341-> Hits: 3, Late: 0, Early: 0, Misses: 0
344-> Hits: 806, Late: 16, Early: 0, Misses: 623
347-> Hits: 3, Late: 3, Early: 0, Misses: 0
349-> Hits: 73, Late: 2, Early: 0, Misses: 70
34a-> Hits: 4, Late: 0, Early: 0, Misses: 0
34b-> Hits: 2, Late: 0, Early: 0, Misses: 0
34c-> Hits: 4, Late: 0, Early: 0, Misses: 0
34d-> Hits: 3, Late: 2, Early: 0, Misses: 0
34e-> Hits: 1, Late: 0, Early: 0, Misses: 0
34f-> Hits: 509423, Late: 6793, Early: 0, Misses: 161
350-> Hits: 52210, Late: 4536, Early: 0, Misses: 10073
351-> Hits: 1351, Late: 34, Early: 0, Misses: 66
352-> Hits: 0, Late: 1, Early: 0, Misses: 0
353-> Hits: 3, Late: 0, Early: 0, Misses: 0
354-> Hits: 45223, Late: 557, Early: 0, Misses: 540
355-> Hits: 0, Late: 1, Early: 0, Misses: 0
356-> Hits: 34495, Late: 61, Early: 0, Misses: 3
357-> Hits: 242, Late: 0, Early: 0, Misses: 0
358-> Hits: 4, Late: 0, Early: 0, Misses: 0
359-> Hits: 5, Late: 1, Early: 0, Misses: 0
35a-> Hits: 239, Late: 0, Early: 0, Misses: 0
35c-> Hits: 515814, Late: 184, Early: 0, Misses: 41
35d-> Hits: 24, Late: 252, Early: 0, Misses: 0
360-> Hits: 15, Late: 0, Early: 0, Misses: 0
361-> Hits: 1097, Late: 167, Early: 0, Misses: 516
362-> Hits: 4, Late: 0, Early: 0, Misses: 0
363-> Hits: 9, Late: 0, Early: 0, Misses: 0
364-> Hits: 43781, Late: 373, Early: 0, Misses: 447
365-> Hits: 1386, Late: 24, Early: 0, Misses: 66
366-> Hits: 4, Late: 1, Early: 0, Misses: 0
367-> Hits: 1, Late: 0, Early: 0, Misses: 0
368-> Hits: 6, Late: 0, Early: 0, Misses: 0
36a-> Hits: 4, Late: 0, Early: 0, Misses: 0
36c-> Hits: 9, Late: 0, Early: 0, Misses: 0
36d-> Hits: 0, Late: 1, Early: 0, Misses: 0
36e-> Hits: 0, Late: 1, Early: 0, Misses: 0
36f-> Hits: 1, Late: 0, Early: 0, Misses: 0
370-> Hits: 485, Late: 0, Early: 0, Misses: 0
372-> Hits: 57352, Late: 52, Early: 0, Misses: 4
374-> Hits: 2, Late: 0, Early: 0, Misses: 0
375-> Hits: 44124, Late: 381, Early: 0, Misses: 874
376-> Hits: 1379, Late: 39, Early: 0, Misses: 66
377-> Hits: 2, Late: 0, Early: 0, Misses: 0
379-> Hits: 2, Late: 1, Early: 0, Misses: 0
37a-> Hits: 9, Late: 1, Early: 0, Misses: 0
37b-> Hits: 3, Late: 0, Early: 0, Misses: 0
37d-> Hits: 3, Late: 1, Early: 0, Misses: 0
37f-> Hits: 2, Late: 2, Early: 0, Misses: 0
380-> Hits: 2, Late: 0, Early: 0, Misses: 0
382-> Hits: 1, Late: 0, Early: 0, Misses: 0
383-> Hits: 0, Late: 2, Early: 0, Misses: 0
385-> Hits: 2, Late: 0, Early: 0, Misses: 0
386-> Hits: 1646, Late: 1370, Early: 0, Misses: 63512
387-> Hits: 31353, Late: 42, Early: 0, Misses: 73
388-> Hits: 1, Late: 0, Early: 0, Misses: 0
389-> Hits: 4, Late: 0, Early: 0, Misses: 0
38a-> Hits: 40066, Late: 575, Early: 0, Misses: 21963
38b-> Hits: 2, Late: 0, Early: 0, Misses: 0
38d-> Hits: 515865, Late: 211, Early: 0, Misses: 13
38e-> Hits: 1, Late: 0, Early: 0, Misses: 0
38f-> Hits: 2887, Late: 35, Early: 0, Misses: 1632
391-> Hits: 5, Late: 0, Early: 0, Misses: 0
392-> Hits: 1, Late: 0, Early: 0, Misses: 0
393-> Hits: 2, Late: 0, Early: 0, Misses: 0
394-> Hits: 3, Late: 0, Early: 0, Misses: 0
395-> Hits: 1, Late: 0, Early: 0, Misses: 0
396-> Hits: 2, Late: 1, Early: 0, Misses: 0
397-> Hits: 48365, Late: 206, Early: 0, Misses: 1695
398-> Hits: 1, Late: 0, Early: 0, Misses: 0
399-> Hits: 236528, Late: 5, Early: 0, Misses: 0
39a-> Hits: 1, Late: 1, Early: 0, Misses: 0
39b-> Hits: 856, Late: 12, Early: 0, Misses: 615
39c-> Hits: 1, Late: 0, Early: 0, Misses: 0
39d-> Hits: 1, Late: 0, Early: 0, Misses: 0
3a0-> Hits: 63, Late: 4, Early: 0, Misses: 44
3a2-> Hits: 1, Late: 0, Early: 0, Misses: 0
3a3-> Hits: 468311, Late: 30, Early: 0, Misses: 0
3a7-> Hits: 48031, Late: 187, Early: 0, Misses: 369
3a8-> Hits: 629, Late: 10, Early: 0, Misses: 4
3aa-> Hits: 3, Late: 0, Early: 0, Misses: 0
3ab-> Hits: 1, Late: 0, Early: 0, Misses: 0
3ac-> Hits: 70093, Late: 2, Early: 0, Misses: 0
3af-> Hits: 1, Late: 0, Early: 0, Misses: 0
3b0-> Hits: 3, Late: 0, Early: 0, Misses: 0
3b1-> Hits: 94020, Late: 49, Early: 0, Misses: 8
3b2-> Hits: 2, Late: 0, Early: 0, Misses: 0
3b3-> Hits: 1, Late: 0, Early: 0, Misses: 0
3b5-> Hits: 1, Late: 0, Early: 0, Misses: 0
3b7-> Hits: 1, Late: 0, Early: 0, Misses: 0
3b8-> Hits: 51801, Late: 179, Early: 0, Misses: 395
3b9-> Hits: 3, Late: 0, Early: 0, Misses: 0
3bd-> Hits: 506, Late: 1, Early: 0, Misses: 0
3c0-> Hits: 14, Late: 1, Early: 0, Misses: 0
3c6-> Hits: 175529, Late: 162, Early: 0, Misses: 17
3c8-> Hits: 1, Late: 0, Early: 0, Misses: 0
3c9-> Hits: 42994, Late: 115, Early: 0, Misses: 284
3ca-> Hits: 5, Late: 0, Early: 0, Misses: 0
3cb-> Hits: 1, Late: 0, Early: 0, Misses: 0
3cd-> Hits: 6, Late: 0, Early: 0, Misses: 0
3ce-> Hits: 434, Late: 2, Early: 0, Misses: 0
3cf-> Hits: 1, Late: 1, Early: 0, Misses: 0
3d0-> Hits: 4, Late: 0, Early: 0, Misses: 0
3d5-> Hits: 2, Late: 0, Early: 0, Misses: 0
3d6-> Hits: 2, Late: 0, Early: 0, Misses: 0
3d9-> Hits: 49132, Late: 4851, Early: 0, Misses: 12538
3db-> Hits: 173987, Late: 193, Early: 0, Misses: 26
3dc-> Hits: 1, Late: 0, Early: 0, Misses: 0
3dd-> Hits: 4, Late: 0, Early: 0, Misses: 0
3de-> Hits: 46699, Late: 357, Early: 0, Misses: 256
3df-> Hits: 382, Late: 4, Early: 0, Misses: 0
3e0-> Hits: 393224, Late: 1, Early: 0, Misses: 0
3e1-> Hits: 515825, Late: 234, Early: 0, Misses: 38
3e4-> Hits: 2, Late: 0, Early: 0, Misses: 0
3e5-> Hits: 2, Late: 0, Early: 0, Misses: 0
3e6-> Hits: 2, Late: 0, Early: 0, Misses: 0
3e8-> Hits: 3, Late: 0, Early: 0, Misses: 0
3ea-> Hits: 2, Late: 0, Early: 0, Misses: 0
3eb-> Hits: 1, Late: 0, Early: 0, Misses: 0
3ec-> Hits: 2, Late: 0, Early: 0, Misses: 0
3ed-> Hits: 1, Late: 0, Early: 0, Misses: 0
3ee-> Hits: 2, Late: 0, Early: 0, Misses: 0
3ef-> Hits: 42997, Late: 360, Early: 0, Misses: 1793
3f0-> Hits: 9, Late: 4, Early: 0, Misses: 0
3f3-> Hits: 866, Late: 19, Early: 0, Misses: 596
3f5-> Hits: 1, Late: 0, Early: 0, Misses: 0
3f7-> Hits: 97518, Late: 41, Early: 0, Misses: 7
3f8-> Hits: 60, Late: 2, Early: 0, Misses: 47
3fe-> Hits: 2, Late: 0, Early: 0, Misses: 0
400-> Hits: 2520, Late: 1453, Early: 0, Misses: 63306
401-> Hits: 4, Late: 0, Early: 0, Misses: 0
402-> Hits: 515164, Late: 32, Early: 0, Misses: 0
403-> Hits: 12, Late: 0, Early: 0, Misses: 0
404-> Hits: 39386, Late: 608, Early: 0, Misses: 23436
405-> Hits: 1, Late: 1, Early: 0, Misses: 0
406-> Hits: 15, Late: 0, Early: 0, Misses: 0
408-> Hits: 16, Late: 0, Early: 0, Misses: 0
409-> Hits: 2101, Late: 36, Early: 0, Misses: 1009
40a-> Hits: 15, Late: 0, Early: 0, Misses: 0
40b-> Hits: 2, Late: 2, Early: 0, Misses: 0
40c-> Hits: 38016, Late: 0, Early: 0, Misses: 0
40d-> Hits: 1, Late: 0, Early: 0, Misses: 0
40e-> Hits: 2, Late: 0, Early: 0, Misses: 0
40f-> Hits: 0, Late: 0, Early: 0, Misses: 11
410-> Hits: 664, Late: 0, Early: 0, Misses: 18
411-> Hits: 38728, Late: 176, Early: 0, Misses: 30
413-> Hits: 1, Late: 0, Early: 0, Misses: 0
416-> Hits: 516042, Late: 33, Early: 0, Misses: 0
419-> Hits: 3, Late: 0, Early: 0, Misses: 0
41c-> Hits: 2, Late: 0, Early: 0, Misses: 0
41e-> Hits: 88854, Late: 66, Early: 0, Misses: 5
420-> Hits: 10, Late: 0, Early: 0, Misses: 0
421-> Hits: 39348, Late: 290, Early: 0, Misses: 453
422-> Hits: 2, Late: 0, Early: 0, Misses: 0
424-> Hits: 9, Late: 0, Early: 0, Misses: 0
426-> Hits: 869, Late: 8, Early: 0, Misses: 19
427-> Hits: 2, Late: 0, Early: 0, Misses: 0
428-> Hits: 5, Late: 2, Early: 0, Misses: 0
42a-> Hits: 2, Late: 0, Early: 0, Misses: 0
42b-> Hits: 3, Late: 0, Early: 0, Misses: 0
42c-> Hits: 2, Late: 0, Early: 0, Misses: 0
42d-> Hits: 1, Late: 0, Early: 0, Misses: 0
42e-> Hits: 515859, Late: 233, Early: 0, Misses: 6
430-> Hits: 1574, Late: 1529, Early: 0, Misses: 65383
432-> Hits: 36691, Late: 192, Early: 0, Misses: 16
434-> Hits: 40288, Late: 517, Early: 0, Misses: 22238
437-> Hits: 994, Late: 9, Early: 0, Misses: 18
438-> Hits: 4, Late: 0, Early: 0, Misses: 0
439-> Hits: 3065, Late: 60, Early: 0, Misses: 1993
43a-> Hits: 56594, Late: 42, Early: 0, Misses: 3
43b-> Hits: 3, Late: 1, Early: 0, Misses: 0
43f-> Hits: 1, Late: 0, Early: 0, Misses: 0
440-> Hits: 9, Late: 4, Early: 0, Misses: 0
441-> Hits: 58204, Late: 1183, Early: 0, Misses: 2846
443-> Hits: 42667, Late: 183, Early: 0, Misses: 7
444-> Hits: 1, Late: 0, Early: 0, Misses: 0
447-> Hits: 40, Late: 29, Early: 0, Misses: 1519
448-> Hits: 7, Late: 0, Early: 0, Misses: 0
44a-> Hits: 3, Late: 0, Early: 0, Misses: 0
44b-> Hits: 874, Late: 10, Early: 0, Misses: 595
44c-> Hits: 2, Late: 1, Early: 0, Misses: 0
44f-> Hits: 77925, Late: 320, Early: 0, Misses: 10
450-> Hits: 59, Late: 2, Early: 0, Misses: 57
451-> Hits: 40532, Late: 9037, Early: 0, Misses: 18914
453-> Hits: 34179, Late: 204, Early: 0, Misses: 4
454-> Hits: 25, Late: 23, Early: 0, Misses: 0
455-> Hits: 59744, Late: 1273, Early: 0, Misses: 2846
457-> Hits: 1, Late: 0, Early: 0, Misses: 0
458-> Hits: 917, Late: 9, Early: 0, Misses: 3
459-> Hits: 10, Late: 1, Early: 0, Misses: 0
45a-> Hits: 11, Late: 0, Early: 0, Misses: 0
45b-> Hits: 22, Late: 0, Early: 0, Misses: 0
45d-> Hits: 19, Late: 0, Early: 0, Misses: 0
45f-> Hits: 3, Late: 0, Early: 0, Misses: 0
460-> Hits: 4, Late: 0, Early: 0, Misses: 0
461-> Hits: 1, Late: 0, Early: 0, Misses: 0
463-> Hits: 3, Late: 0, Early: 0, Misses: 0
464-> Hits: 110893, Late: 4557, Early: 0, Misses: 9494
466-> Hits: 61348, Late: 1421, Early: 0, Misses: 2846
468-> Hits: 941, Late: 12, Early: 0, Misses: 42
469-> Hits: 40169, Late: 230, Early: 0, Misses: 17
46a-> Hits: 515850, Late: 247, Early: 0, Misses: 0
46d-> Hits: 4, Late: 0, Early: 0, Misses: 0
470-> Hits: 393493, Late: 14, Early: 0, Misses: 0
471-> Hits: 22, Late: 0, Early: 0, Misses: 0
472-> Hits: 1, Late: 0, Early: 0, Misses: 0
473-> Hits: 3, Late: 0, Early: 0, Misses: 0
475-> Hits: 2, Late: 0, Early: 0, Misses: 0
476-> Hits: 106996, Late: 2, Early: 0, Misses: 0
477-> Hits: 59957, Late: 1456, Early: 0, Misses: 2847
478-> Hits: 304, Late: 0, Early: 0, Misses: 0
479-> Hits: 762, Late: 17, Early: 0, Misses: 42
47a-> Hits: 1956, Late: 1452, Early: 0, Misses: 63120
47b-> Hits: 1, Late: 0, Early: 0, Misses: 0
47c-> Hits: 3, Late: 0, Early: 0, Misses: 0
47d-> Hits: 306, Late: 0, Early: 0, Misses: 0
47e-> Hits: 38687, Late: 559, Early: 0, Misses: 22587
47f-> Hits: 10, Late: 0, Early: 0, Misses: 0
480-> Hits: 9, Late: 3, Early: 0, Misses: 0
481-> Hits: 1, Late: 0, Early: 0, Misses: 0
482-> Hits: 5, Late: 0, Early: 0, Misses: 0
483-> Hits: 508192, Late: 73, Early: 0, Misses: 1664
484-> Hits: 2, Late: 0, Early: 0, Misses: 0
486-> Hits: 52, Late: 0, Early: 0, Misses: 0
487-> Hits: 61470, Late: 1550, Early: 0, Misses: 2843
488-> Hits: 18, Late: 0, Early: 0, Misses: 0
489-> Hits: 9, Late: 0, Early: 0, Misses: 0
48a-> Hits: 1209, Late: 112, Early: 0, Misses: 264
48b-> Hits: 42726, Late: 116, Early: 0, Misses: 16
48d-> Hits: 9, Late: 2, Early: 0, Misses: 0
48e-> Hits: 681, Late: 24, Early: 0, Misses: 48
48f-> Hits: 5, Late: 0, Early: 0, Misses: 0
490-> Hits: 37127, Late: 4, Early: 0, Misses: 0
491-> Hits: 5, Late: 0, Early: 0, Misses: 0
493-> Hits: 29, Late: 1, Early: 0, Misses: 0
494-> Hits: 32, Late: 0, Early: 0, Misses: 0
495-> Hits: 30, Late: 0, Early: 0, Misses: 0
496-> Hits: 4, Late: 0, Early: 0, Misses: 0
497-> Hits: 33, Late: 0, Early: 0, Misses: 0
498-> Hits: 397318, Late: 1988, Early: 0, Misses: 2869
499-> Hits: 30, Late: 0, Early: 0, Misses: 0
49b-> Hits: 43469, Late: 128, Early: 0, Misses: 24
49d-> Hits: 307, Late: 5, Early: 0, Misses: 0
49e-> Hits: 30, Late: 40, Early: 0, Misses: 1514
4a0-> Hits: 2, Late: 1, Early: 0, Misses: 0
4a2-> Hits: 837, Late: 11, Early: 0, Misses: 637
4a3-> Hits: 231, Late: 0, Early: 0, Misses: 0
4a5-> Hits: 12, Late: 0, Early: 0, Misses: 0
4a6-> Hits: 2, Late: 0, Early: 0, Misses: 0
4a7-> Hits: 66, Late: 1, Early: 0, Misses: 43
4a9-> Hits: 1840, Late: 1729, Early: 0, Misses: 64917
4ab-> Hits: 5, Late: 0, Early: 0, Misses: 0
4ac-> Hits: 45078, Late: 103, Early: 0, Misses: 16
4ad-> Hits: 76948, Late: 749, Early: 0, Misses: 20440
4ae-> Hits: 5, Late: 0, Early: 0, Misses: 0
4af-> Hits: 747, Late: 4, Early: 0, Misses: 0
4b0-> Hits: 17, Late: 0, Early: 0, Misses: 0
4b1-> Hits: 3, Late: 0, Early: 0, Misses: 0
4b2-> Hits: 3908, Late: 23, Early: 0, Misses: 1009
4b3-> Hits: 515819, Late: 270, Early: 0, Misses: 10
4b4-> Hits: 4, Late: 1, Early: 0, Misses: 0
4b7-> Hits: 16, Late: 0, Early: 0, Misses: 0
4b8-> Hits: 20, Late: 0, Early: 0, Misses: 0
4b9-> Hits: 4, Late: 0, Early: 0, Misses: 0
4ba-> Hits: 29086, Late: 66, Early: 0, Misses: 376
4bb-> Hits: 19, Late: 0, Early: 0, Misses: 0
4bd-> Hits: 45760, Late: 146, Early: 0, Misses: 1
4be-> Hits: 1, Late: 1, Early: 0, Misses: 0
4bf-> Hits: 821, Late: 4, Early: 0, Misses: 1
4c0-> Hits: 2, Late: 1, Early: 0, Misses: 0
4c1-> Hits: 1, Late: 0, Early: 0, Misses: 0
4c2-> Hits: 2, Late: 0, Early: 0, Misses: 0
4c4-> Hits: 2, Late: 0, Early: 0, Misses: 0
4c5-> Hits: 18, Late: 0, Early: 0, Misses: 0
4c6-> Hits: 7, Late: 0, Early: 0, Misses: 0
4c7-> Hits: 0, Late: 1, Early: 0, Misses: 0
4c8-> Hits: 1, Late: 1, Early: 0, Misses: 0
4c9-> Hits: 58642, Late: 1, Early: 0, Misses: 6
4ca-> Hits: 63706, Late: 1818, Early: 0, Misses: 2956
4cb-> Hits: 3, Late: 0, Early: 0, Misses: 0
4cc-> Hits: 1, Late: 0, Early: 0, Misses: 0
4cd-> Hits: 51107, Late: 185, Early: 0, Misses: 14
4ce-> Hits: 4, Late: 2, Early: 0, Misses: 0
4cf-> Hits: 28841, Late: 98, Early: 0, Misses: 382
4d0-> Hits: 1012, Late: 22, Early: 0, Misses: 1
4d1-> Hits: 27, Late: 0, Early: 0, Misses: 0
4d2-> Hits: 4, Late: 0, Early: 0, Misses: 0
4d3-> Hits: 1, Late: 0, Early: 0, Misses: 0
4d4-> Hits: 6, Late: 0, Early: 0, Misses: 0
4d5-> Hits: 1, Late: 1, Early: 0, Misses: 0
4d6-> Hits: 11, Late: 17, Early: 0, Misses: 0
4d7-> Hits: 4, Late: 0, Early: 0, Misses: 0
4da-> Hits: 1, Late: 0, Early: 0, Misses: 0
4dc-> Hits: 3, Late: 2, Early: 0, Misses: 0
4dd-> Hits: 4, Late: 0, Early: 0, Misses: 0
4de-> Hits: 109332, Late: 128, Early: 0, Misses: 17
4df-> Hits: 4, Late: 0, Early: 0, Misses: 0
4e0-> Hits: 26334, Late: 232, Early: 0, Misses: 1870
4e1-> Hits: 960, Late: 9, Early: 0, Misses: 1
4e2-> Hits: 6, Late: 0, Early: 0, Misses: 0
4e4-> Hits: 816, Late: 19, Early: 0, Misses: 612
4e5-> Hits: 6, Late: 0, Early: 0, Misses: 0
4e6-> Hits: 1, Late: 0, Early: 0, Misses: 0
4e7-> Hits: 3, Late: 0, Early: 0, Misses: 0
4e8-> Hits: 5, Late: 0, Early: 0, Misses: 0
4e9-> Hits: 65, Late: 4, Early: 0, Misses: 73
4ea-> Hits: 2, Late: 0, Early: 0, Misses: 0
4eb-> Hits: 23, Late: 0, Early: 0, Misses: 0
4ec-> Hits: 1, Late: 0, Early: 0, Misses: 0
4ed-> Hits: 516050, Late: 26, Early: 0, Misses: 0
4ef-> Hits: 1815, Late: 1326, Early: 0, Misses: 63389
4f1-> Hits: 28399, Late: 375, Early: 0, Misses: 1920
4f2-> Hits: 15, Late: 0, Early: 0, Misses: 1
4f3-> Hits: 37925, Late: 614, Early: 0, Misses: 23122
4f5-> Hits: 788, Late: 12, Early: 0, Misses: 660
4f6-> Hits: 1, Late: 0, Early: 0, Misses: 0
4f7-> Hits: 4, Late: 0, Early: 0, Misses: 0
4f8-> Hits: 3557, Late: 46, Early: 0, Misses: 1852
4f9-> Hits: 15, Late: 0, Early: 0, Misses: 0
4fa-> Hits: 21777, Late: 4, Early: 0, Misses: 48
4fb-> Hits: 12, Late: 0, Early: 0, Misses: 0
4fc-> Hits: 0, Late: 1, Early: 0, Misses: 0
4fd-> Hits: 56, Late: 0, Early: 0, Misses: 0
4fe-> Hits: 1, Late: 0, Early: 0, Misses: 0
4ff-> Hits: 25, Late: 0, Early: 0, Misses: 0
500-> Hits: 39389, Late: 166, Early: 0, Misses: 35
501-> Hits: 26134, Late: 430, Early: 0, Misses: 999
502-> Hits: 922, Late: 6, Early: 0, Misses: 0
503-> Hits: 2, Late: 0, Early: 0, Misses: 0
504-> Hits: 1, Late: 12, Early: 0, Misses: 0
505-> Hits: 1355, Late: 57, Early: 0, Misses: 66
506-> Hits: 4, Late: 0, Early: 0, Misses: 0
507-> Hits: 516046, Late: 27, Early: 0, Misses: 0
508-> Hits: 1, Late: 0, Early: 0, Misses: 0
509-> Hits: 1, Late: 0, Early: 0, Misses: 0
50b-> Hits: 0, Late: 1, Early: 0, Misses: 0
50c-> Hits: 1, Late: 1, Early: 0, Misses: 0
50d-> Hits: 3, Late: 0, Early: 0, Misses: 0
510-> Hits: 38390, Late: 118, Early: 0, Misses: 48
511-> Hits: 1, Late: 0, Early: 0, Misses: 0
512-> Hits: 25464, Late: 255, Early: 0, Misses: 426
514-> Hits: 0, Late: 1, Early: 0, Misses: 0
515-> Hits: 1, Late: 0, Early: 0, Misses: 0
516-> Hits: 516218, Late: 1114, Early: 0, Misses: 181
518-> Hits: 1, Late: 0, Early: 0, Misses: 0
519-> Hits: 2, Late: 0, Early: 0, Misses: 0
51a-> Hits: 1, Late: 0, Early: 0, Misses: 0
51b-> Hits: 4, Late: 0, Early: 0, Misses: 0
51c-> Hits: 7, Late: 0, Early: 0, Misses: 113
51d-> Hits: 24, Late: 0, Early: 0, Misses: 0
51f-> Hits: 1, Late: 1, Early: 0, Misses: 0
520-> Hits: 393217, Late: 266, Early: 0, Misses: 0
521-> Hits: 37726, Late: 182, Early: 0, Misses: 22
522-> Hits: 1, Late: 0, Early: 0, Misses: 0
523-> Hits: 2826, Late: 1525, Early: 0, Misses: 64858
524-> Hits: 9, Late: 0, Early: 0, Misses: 0
527-> Hits: 45101, Late: 680, Early: 0, Misses: 19090
528-> Hits: 393243, Late: 1, Early: 0, Misses: 0
529-> Hits: 24, Late: 0, Early: 0, Misses: 0
52a-> Hits: 1, Late: 0, Early: 0, Misses: 0
52b-> Hits: 2, Late: 0, Early: 0, Misses: 0
52c-> Hits: 3455, Late: 33, Early: 0, Misses: 1204
52e-> Hits: 2, Late: 0, Early: 0, Misses: 0
530-> Hits: 8, Late: 1, Early: 0, Misses: 0
532-> Hits: 1, Late: 0, Early: 0, Misses: 0
534-> Hits: 48466, Late: 300, Early: 0, Misses: 1945
535-> Hits: 1, Late: 0, Early: 0, Misses: 0
536-> Hits: 36642, Late: 72, Early: 0, Misses: 0
537-> Hits: 22, Late: 33, Early: 0, Misses: 1529
538-> Hits: 26, Late: 0, Early: 0, Misses: 3
539-> Hits: 1, Late: 0, Early: 0, Misses: 0
53a-> Hits: 9, Late: 0, Early: 0, Misses: 0
53b-> Hits: 842, Late: 20, Early: 0, Misses: 606
53c-> Hits: 393239, Late: 1, Early: 0, Misses: 0
53d-> Hits: 1, Late: 0, Early: 0, Misses: 0
53e-> Hits: 1, Late: 1, Early: 0, Misses: 0
53f-> Hits: 4, Late: 0, Early: 0, Misses: 0
540-> Hits: 84, Late: 8, Early: 0, Misses: 32
541-> Hits: 2, Late: 0, Early: 0, Misses: 0
544-> Hits: 43025, Late: 291, Early: 0, Misses: 3369
545-> Hits: 393229, Late: 0, Early: 0, Misses: 0
546-> Hits: 35878, Late: 106, Early: 0, Misses: 4
547-> Hits: 0, Late: 1, Early: 0, Misses: 0
548-> Hits: 1436, Late: 22, Early: 0, Misses: 680
549-> Hits: 1, Late: 0, Early: 0, Misses: 0
54a-> Hits: 1, Late: 0, Early: 0, Misses: 0
54b-> Hits: 1, Late: 0, Early: 0, Misses: 0
54c-> Hits: 0, Late: 1, Early: 0, Misses: 0
54d-> Hits: 98, Late: 2, Early: 0, Misses: 43
54e-> Hits: 393303, Late: 0, Early: 0, Misses: 25
550-> Hits: 0, Late: 2, Early: 0, Misses: 0
553-> Hits: 8, Late: 1, Early: 0, Misses: 0
554-> Hits: 2, Late: 0, Early: 0, Misses: 0
555-> Hits: 41067, Late: 9410, Early: 0, Misses: 18824
556-> Hits: 9, Late: 0, Early: 0, Misses: 0
557-> Hits: 435786, Late: 77, Early: 0, Misses: 3
558-> Hits: 1390, Late: 89, Early: 0, Misses: 108
559-> Hits: 2, Late: 0, Early: 0, Misses: 0
55a-> Hits: 46361, Late: 283, Early: 0, Misses: 1933
55b-> Hits: 2, Late: 0, Early: 0, Misses: 0
55c-> Hits: 4, Late: 2, Early: 0, Misses: 0
55d-> Hits: 521, Late: 7, Early: 0, Misses: 109
55e-> Hits: 6, Late: 0, Early: 0, Misses: 0
55f-> Hits: 3, Late: 0, Early: 0, Misses: 0
560-> Hits: 393226, Late: 2, Early: 0, Misses: 0
561-> Hits: 25, Late: 0, Early: 0, Misses: 0
562-> Hits: 5, Late: 0, Early: 0, Misses: 0
563-> Hits: 3, Late: 4, Early: 0, Misses: 0
564-> Hits: 49, Late: 1, Early: 0, Misses: 0
565-> Hits: 816, Late: 1, Early: 0, Misses: 2
566-> Hits: 2, Late: 0, Early: 0, Misses: 0
567-> Hits: 2, Late: 1, Early: 0, Misses: 0
568-> Hits: 10, Late: 0, Early: 0, Misses: 0
569-> Hits: 393215, Late: 1, Early: 0, Misses: 0
56a-> Hits: 8, Late: 0, Early: 0, Misses: 113
56b-> Hits: 46264, Late: 357, Early: 0, Misses: 1875
56c-> Hits: 8487, Late: 3956, Early: 0, Misses: 54085
56d-> Hits: 42, Late: 0, Early: 0, Misses: 0
56e-> Hits: 441, Late: 8, Early: 0, Misses: 0
570-> Hits: 476, Late: 0, Early: 0, Misses: 0
572-> Hits: 393218, Late: 1, Early: 0, Misses: 0
574-> Hits: 13, Late: 1, Early: 0, Misses: 24
576-> Hits: 774, Late: 9, Early: 0, Misses: 2
577-> Hits: 21, Late: 13, Early: 0, Misses: 0
578-> Hits: 14, Late: 0, Early: 0, Misses: 0
579-> Hits: 4, Late: 0, Early: 0, Misses: 0
57a-> Hits: 7, Late: 0, Early: 0, Misses: 0
57b-> Hits: 47537, Late: 344, Early: 0, Misses: 1768
57c-> Hits: 1, Late: 3, Early: 0, Misses: 0
57d-> Hits: 4, Late: 0, Early: 0, Misses: 0
57f-> Hits: 426, Late: 7, Early: 0, Misses: 0
580-> Hits: 30, Late: 3675, Early: 0, Misses: 0
581-> Hits: 3, Late: 3, Early: 0, Misses: 0
582-> Hits: 2, Late: 0, Early: 0, Misses: 0
583-> Hits: 29, Late: 1, Early: 0, Misses: 0
584-> Hits: 393220, Late: 2, Early: 0, Misses: 0
585-> Hits: 38, Late: 3658, Early: 0, Misses: 0
586-> Hits: 1, Late: 2, Early: 0, Misses: 0
587-> Hits: 766, Late: 10, Early: 0, Misses: 2
588-> Hits: 6, Late: 1, Early: 0, Misses: 0
58b-> Hits: 497, Late: 3213, Early: 0, Misses: 110
58c-> Hits: 48507, Late: 483, Early: 0, Misses: 1753
58e-> Hits: 9, Late: 0, Early: 0, Misses: 0
58f-> Hits: 28, Late: 31, Early: 0, Misses: 1525
590-> Hits: 17, Late: 5, Early: 0, Misses: 0
591-> Hits: 393993, Late: 2920, Early: 0, Misses: 0
593-> Hits: 878, Late: 32, Early: 0, Misses: 579
594-> Hits: 1, Late: 0, Early: 0, Misses: 0
595-> Hits: 3, Late: 0, Early: 0, Misses: 0
596-> Hits: 531, Late: 3165, Early: 0, Misses: 0
597-> Hits: 26, Late: 53, Early: 0, Misses: 1505
598-> Hits: 72, Late: 0, Early: 0, Misses: 49
599-> Hits: 8, Late: 2, Early: 0, Misses: 0
59a-> Hits: 2, Late: 0, Early: 0, Misses: 0
59b-> Hits: 807, Late: 18, Early: 0, Misses: 636
59c-> Hits: 602, Late: 3094, Early: 0, Misses: 0
59d-> Hits: 2165, Late: 1487, Early: 0, Misses: 64846
59e-> Hits: 4, Late: 0, Early: 0, Misses: 0
59f-> Hits: 4, Late: 0, Early: 0, Misses: 0
5a0-> Hits: 716, Late: 29, Early: 0, Misses: 235
5a1-> Hits: 42195, Late: 572, Early: 0, Misses: 21135
5a2-> Hits: 6, Late: 0, Early: 0, Misses: 0
5a3-> Hits: 2, Late: 0, Early: 0, Misses: 0
5a5-> Hits: 393216, Late: 1, Early: 0, Misses: 0
5a6-> Hits: 2600, Late: 63, Early: 0, Misses: 1296
5a7-> Hits: 1, Late: 0, Early: 0, Misses: 0
5a8-> Hits: 686, Late: 4, Early: 0, Misses: 0
5a9-> Hits: 3, Late: 0, Early: 0, Misses: 0
5aa-> Hits: 13, Late: 5, Early: 0, Misses: 0
5ab-> Hits: 0, Late: 1, Early: 0, Misses: 123
5ac-> Hits: 1, Late: 0, Early: 0, Misses: 0
5ae-> Hits: 41049, Late: 518, Early: 0, Misses: 272
5af-> Hits: 11, Late: 0, Early: 0, Misses: 110
5b0-> Hits: 1175, Late: 215, Early: 0, Misses: 50980
5b1-> Hits: 2, Late: 0, Early: 0, Misses: 0
5b2-> Hits: 2, Late: 0, Early: 0, Misses: 0
5b4-> Hits: 31228, Late: 46, Early: 0, Misses: 16450
5b5-> Hits: 1, Late: 0, Early: 0, Misses: 0
5b6-> Hits: 5, Late: 0, Early: 0, Misses: 0
5b8-> Hits: 771, Late: 3, Early: 0, Misses: 4
5b9-> Hits: 2390, Late: 3, Early: 0, Misses: 1789
5bb-> Hits: 1, Late: 0, Early: 0, Misses: 0
5bc-> Hits: 2, Late: 0, Early: 0, Misses: 0
5bd-> Hits: 29, Late: 0, Early: 0, Misses: 0
5be-> Hits: 45639, Late: 553, Early: 0, Misses: 569
5bf-> Hits: 8, Late: 0, Early: 0, Misses: 0
5c0-> Hits: 3110, Late: 0, Early: 0, Misses: 0
5c1-> Hits: 79730, Late: 956, Early: 0, Misses: 585
5c2-> Hits: 5, Late: 0, Early: 0, Misses: 0
5c3-> Hits: 9, Late: 0, Early: 0, Misses: 0
5c4-> Hits: 8, Late: 0, Early: 0, Misses: 0
5c5-> Hits: 1, Late: 0, Early: 0, Misses: 0
5c6-> Hits: 833, Late: 30, Early: 0, Misses: 62
5c7-> Hits: 6, Late: 0, Early: 0, Misses: 0
5c8-> Hits: 7, Late: 0, Early: 0, Misses: 0
5c9-> Hits: 685, Late: 7, Early: 0, Misses: 0
5ca-> Hits: 33, Late: 0, Early: 0, Misses: 0
5cb-> Hits: 2, Late: 0, Early: 0, Misses: 0
5cc-> Hits: 52, Late: 0, Early: 0, Misses: 0
5ce-> Hits: 0, Late: 1, Early: 0, Misses: 0
5cf-> Hits: 38915, Late: 547, Early: 0, Misses: 375
5d0-> Hits: 112, Late: 16, Early: 0, Misses: 20
5d1-> Hits: 430169, Late: 4008, Early: 0, Misses: 10796
5d2-> Hits: 1, Late: 0, Early: 0, Misses: 0
5d5-> Hits: 48921, Late: 163, Early: 0, Misses: 0
5d6-> Hits: 4, Late: 1, Early: 0, Misses: 0
5d7-> Hits: 951, Late: 17, Early: 0, Misses: 62
5d8-> Hits: 3, Late: 4, Early: 0, Misses: 0
5da-> Hits: 24, Late: 0, Early: 0, Misses: 0
5db-> Hits: 371224, Late: 2, Early: 0, Misses: 0
5dc-> Hits: 49, Late: 2, Early: 0, Misses: 0
5dd-> Hits: 30298, Late: 1880, Early: 0, Misses: 0
5de-> Hits: 750, Late: 8, Early: 0, Misses: 0
5df-> Hits: 9, Late: 4, Early: 0, Misses: 1
5e0-> Hits: 63229, Late: 2110, Early: 0, Misses: 3138
5e1-> Hits: 5, Late: 0, Early: 0, Misses: 0
5e2-> Hits: 1, Late: 0, Early: 0, Misses: 0
5e3-> Hits: 6, Late: 0, Early: 0, Misses: 0
5e4-> Hits: 45482, Late: 713, Early: 0, Misses: 540
5e5-> Hits: 3, Late: 0, Early: 0, Misses: 0
5e6-> Hits: 50051, Late: 34, Early: 0, Misses: 0
5e7-> Hits: 36, Late: 25, Early: 0, Misses: 1528
5e9-> Hits: 1, Late: 1, Early: 0, Misses: 0
5ea-> Hits: 2, Late: 0, Early: 0, Misses: 0
5eb-> Hits: 865, Late: 29, Early: 0, Misses: 562
5ec-> Hits: 13, Late: 0, Early: 0, Misses: 107
5ed-> Hits: 2, Late: 0, Early: 0, Misses: 0
5ee-> Hits: 3, Late: 0, Early: 0, Misses: 0
5f0-> Hits: 72, Late: 2, Early: 0, Misses: 63
5f2-> Hits: 62, Late: 0, Early: 0, Misses: 1526
5f3-> Hits: 7, Late: 0, Early: 0, Misses: 0
5f4-> Hits: 43587, Late: 450, Early: 0, Misses: 665
5f5-> Hits: 30725, Late: 1535, Early: 0, Misses: 0
5f6-> Hits: 1, Late: 0, Early: 0, Misses: 0
5f7-> Hits: 49240, Late: 207, Early: 0, Misses: 0
5f8-> Hits: 924, Late: 26, Early: 0, Misses: 1
5f9-> Hits: 7, Late: 0, Early: 0, Misses: 0
5fa-> Hits: 1, Late: 0, Early: 0, Misses: 0
5fb-> Hits: 6, Late: 0, Early: 0, Misses: 0
5fc-> Hits: 1, Late: 0, Early: 0, Misses: 0
5fd-> Hits: 1, Late: 0, Early: 0, Misses: 0
5fe-> Hits: 5, Late: 0, Early: 0, Misses: 245
5ff-> Hits: 3, Late: 0, Early: 0, Misses: 1
600-> Hits: 1, Late: 2, Early: 0, Misses: 0
602-> Hits: 5, Late: 0, Early: 0, Misses: 0
604-> Hits: 5, Late: 0, Early: 0, Misses: 0
605-> Hits: 43628, Late: 584, Early: 0, Misses: 703
606-> Hits: 26, Late: 0, Early: 0, Misses: 0
607-> Hits: 50291, Late: 67, Early: 0, Misses: 0
608-> Hits: 952, Late: 30, Early: 0, Misses: 32
609-> Hits: 16, Late: 0, Early: 0, Misses: 0
60a-> Hits: 3, Late: 0, Early: 0, Misses: 0
60b-> Hits: 20, Late: 0, Early: 0, Misses: 0
60c-> Hits: 3, Late: 0, Early: 0, Misses: 0
60d-> Hits: 1, Late: 0, Early: 0, Misses: 0
60e-> Hits: 5, Late: 0, Early: 0, Misses: 0
60f-> Hits: 0, Late: 0, Early: 0, Misses: 22
610-> Hits: 2, Late: 89, Early: 0, Misses: 0
611-> Hits: 1, Late: 0, Early: 0, Misses: 0
614-> Hits: 2, Late: 0, Early: 0, Misses: 22
615-> Hits: 0, Late: 88, Early: 0, Misses: 0
616-> Hits: 2893, Late: 1600, Early: 0, Misses: 63996
618-> Hits: 49594, Late: 93, Early: 0, Misses: 0
619-> Hits: 721, Late: 25, Early: 0, Misses: 1
61a-> Hits: 41060, Late: 729, Early: 0, Misses: 22065
61b-> Hits: 0, Late: 88, Early: 0, Misses: 0
61c-> Hits: 3, Late: 0, Early: 0, Misses: 0
61d-> Hits: 12, Late: 0, Early: 0, Misses: 0
61e-> Hits: 1, Late: 0, Early: 0, Misses: 0
61f-> Hits: 3132, Late: 60, Early: 0, Misses: 1517
620-> Hits: 8, Late: 1, Early: 0, Misses: 0
621-> Hits: 3, Late: 89, Early: 0, Misses: 0
622-> Hits: 0, Late: 0, Early: 0, Misses: 22
623-> Hits: 3, Late: 0, Early: 0, Misses: 0
625-> Hits: 18, Late: 3, Early: 0, Misses: 0
626-> Hits: 1, Late: 0, Early: 0, Misses: 0
627-> Hits: 48350, Late: 491, Early: 0, Misses: 234
628-> Hits: 4, Late: 1, Early: 0, Misses: 0
629-> Hits: 862, Late: 188, Early: 0, Misses: 50694
62a-> Hits: 1408, Late: 70, Early: 0, Misses: 108
62b-> Hits: 10, Late: 0, Early: 0, Misses: 0
62c-> Hits: 1, Late: 0, Early: 0, Misses: 0
62d-> Hits: 32949, Late: 42, Early: 0, Misses: 15391
62e-> Hits: 657, Late: 17, Early: 0, Misses: 1
62f-> Hits: 3, Late: 1, Early: 0, Misses: 1
630-> Hits: 80, Late: 0, Early: 0, Misses: 1155
631-> Hits: 3, Late: 0, Early: 0, Misses: 0
632-> Hits: 2804, Late: 2, Early: 0, Misses: 598
634-> Hits: 614, Late: 0, Early: 0, Misses: 492
635-> Hits: 2, Late: 0, Early: 0, Misses: 0
636-> Hits: 6, Late: 1, Early: 0, Misses: 0
637-> Hits: 47398, Late: 518, Early: 0, Misses: 514
638-> Hits: 3, Late: 0, Early: 0, Misses: 0
639-> Hits: 68, Late: 0, Early: 0, Misses: 66
63a-> Hits: 23469, Late: 1, Early: 0, Misses: 0
63b-> Hits: 3, Late: 0, Early: 0, Misses: 0
63c-> Hits: 7, Late: 0, Early: 0, Misses: 0
63d-> Hits: 12, Late: 0, Early: 0, Misses: 0
63e-> Hits: 29, Late: 30, Early: 0, Misses: 1527
63f-> Hits: 3, Late: 0, Early: 0, Misses: 0
640-> Hits: 7, Late: 0, Early: 0, Misses: 0
641-> Hits: 1128, Late: 1, Early: 0, Misses: 0
642-> Hits: 830, Late: 30, Early: 0, Misses: 588
643-> Hits: 3, Late: 0, Early: 0, Misses: 0
644-> Hits: 2, Late: 0, Early: 0, Misses: 0
646-> Hits: 5, Late: 0, Early: 0, Misses: 0
647-> Hits: 79, Late: 3, Early: 0, Misses: 64
648-> Hits: 50956, Late: 485, Early: 0, Misses: 379
64a-> Hits: 47105, Late: 1409, Early: 0, Misses: 3230
64b-> Hits: 1, Late: 0, Early: 0, Misses: 0
64c-> Hits: 2, Late: 0, Early: 0, Misses: 0
64f-> Hits: 23076, Late: 50, Early: 0, Misses: 0
651-> Hits: 769, Late: 112, Early: 0, Misses: 351
653-> Hits: 3, Late: 0, Early: 0, Misses: 0
654-> Hits: 4, Late: 2, Early: 0, Misses: 0
655-> Hits: 1128, Late: 8, Early: 0, Misses: 0
656-> Hits: 7, Late: 1, Early: 0, Misses: 0
657-> Hits: 1, Late: 0, Early: 0, Misses: 0
658-> Hits: 35, Late: 0, Early: 0, Misses: 0
659-> Hits: 42657, Late: 490, Early: 0, Misses: 371
65a-> Hits: 2, Late: 0, Early: 0, Misses: 0
65b-> Hits: 2, Late: 0, Early: 0, Misses: 0
65c-> Hits: 3, Late: 0, Early: 0, Misses: 0
65d-> Hits: 56, Late: 0, Early: 0, Misses: 0
65e-> Hits: 5, Late: 0, Early: 0, Misses: 0
65f-> Hits: 851, Late: 11, Early: 0, Misses: 9
660-> Hits: 21388, Late: 6, Early: 0, Misses: 0
662-> Hits: 9, Late: 0, Early: 0, Misses: 0
666-> Hits: 1134, Late: 6, Early: 0, Misses: 0
667-> Hits: 12, Late: 0, Early: 0, Misses: 0
668-> Hits: 20, Late: 1, Early: 0, Misses: 0
669-> Hits: 39563, Late: 9285, Early: 0, Misses: 19595
66a-> Hits: 9, Late: 0, Early: 0, Misses: 0
66c-> Hits: 16, Late: 0, Early: 0, Misses: 0
66d-> Hits: 1, Late: 0, Early: 0, Misses: 0
66e-> Hits: 47317, Late: 699, Early: 0, Misses: 357
66f-> Hits: 1, Late: 0, Early: 0, Misses: 0
670-> Hits: 995, Late: 17, Early: 0, Misses: 22
671-> Hits: 21446, Late: 37, Early: 0, Misses: 0
672-> Hits: 45, Late: 0, Early: 0, Misses: 0
674-> Hits: 45, Late: 0, Early: 0, Misses: 0
677-> Hits: 1102, Late: 17, Early: 0, Misses: 0
678-> Hits: 1, Late: 0, Early: 0, Misses: 0
679-> Hits: 5, Late: 0, Early: 0, Misses: 0
67a-> Hits: 4, Late: 0, Early: 0, Misses: 0
67b-> Hits: 11, Late: 0, Early: 0, Misses: 0
67d-> Hits: 2, Late: 0, Early: 0, Misses: 0
67f-> Hits: 44150, Late: 824, Early: 0, Misses: 398
680-> Hits: 13, Late: 13, Early: 0, Misses: 0
681-> Hits: 21995, Late: 34, Early: 0, Misses: 35
683-> Hits: 268, Late: 1, Early: 0, Misses: 0
685-> Hits: 4, Late: 0, Early: 0, Misses: 0
686-> Hits: 10, Late: 0, Early: 0, Misses: 0
687-> Hits: 86, Late: 0, Early: 0, Misses: 1146
688-> Hits: 1, Late: 0, Early: 0, Misses: 0
689-> Hits: 9, Late: 0, Early: 0, Misses: 0
68a-> Hits: 13, Late: 0, Early: 0, Misses: 0
68b-> Hits: 652, Late: 0, Early: 0, Misses: 487
68c-> Hits: 1, Late: 0, Early: 0, Misses: 0
68d-> Hits: 7, Late: 0, Early: 0, Misses: 0
68e-> Hits: 2, Late: 0, Early: 0, Misses: 0
690-> Hits: 3667, Late: 1570, Early: 0, Misses: 63350
691-> Hits: 22, Late: 28, Early: 0, Misses: 1534
692-> Hits: 20464, Late: 24, Early: 0, Misses: 0
693-> Hits: 1, Late: 0, Early: 0, Misses: 0
694-> Hits: 40754, Late: 744, Early: 0, Misses: 23022
695-> Hits: 786, Late: 37, Early: 0, Misses: 645
698-> Hits: 455, Late: 1, Early: 0, Misses: 0
699-> Hits: 2308, Late: 41, Early: 0, Misses: 1055
69a-> Hits: 97, Late: 2, Early: 0, Misses: 40
69c-> Hits: 3, Late: 0, Early: 0, Misses: 0
69e-> Hits: 2, Late: 0, Early: 0, Misses: 0
69f-> Hits: 1, Late: 0, Early: 0, Misses: 0
6a0-> Hits: 3, Late: 0, Early: 0, Misses: 0
6a1-> Hits: 39762, Late: 428, Early: 0, Misses: 9
6a2-> Hits: 874, Late: 16, Early: 0, Misses: 0
6a3-> Hits: 819, Late: 191, Early: 0, Misses: 50740
6a4-> Hits: 10, Late: 1, Early: 0, Misses: 0
6a5-> Hits: 2, Late: 0, Early: 0, Misses: 0
6a6-> Hits: 1, Late: 0, Early: 0, Misses: 0
6a7-> Hits: 34496, Late: 46, Early: 0, Misses: 14171
6a8-> Hits: 1089, Late: 44, Early: 0, Misses: 99
6ac-> Hits: 2335, Late: 2, Early: 0, Misses: 788
6ad-> Hits: 400, Late: 3, Early: 0, Misses: 0
6ae-> Hits: 1, Late: 0, Early: 0, Misses: 0
6af-> Hits: 2, Late: 0, Early: 0, Misses: 0
6b0-> Hits: 1, Late: 0, Early: 0, Misses: 0
6b1-> Hits: 38984, Late: 388, Early: 0, Misses: 12
6b2-> Hits: 777, Late: 19, Early: 0, Misses: 3
6b3-> Hits: 5, Late: 0, Early: 0, Misses: 0
6b4-> Hits: 39474, Late: 6, Early: 0, Misses: 0
6b5-> Hits: 1, Late: 12, Early: 0, Misses: 0
6b6-> Hits: 3, Late: 0, Early: 0, Misses: 0
6b7-> Hits: 9, Late: 1, Early: 0, Misses: 0
6b9-> Hits: 2, Late: 0, Early: 0, Misses: 0
6ba-> Hits: 6, Late: 0, Early: 0, Misses: 0
6bb-> Hits: 2, Late: 0, Early: 0, Misses: 0
6bc-> Hits: 2, Late: 0, Early: 0, Misses: 0
6bd-> Hits: 1, Late: 0, Early: 0, Misses: 0
6be-> Hits: 388, Late: 0, Early: 0, Misses: 0
6bf-> Hits: 1, Late: 0, Early: 0, Misses: 0
6c0-> Hits: 3, Late: 2, Early: 0, Misses: 0
6c2-> Hits: 36964, Late: 451, Early: 0, Misses: 24
6c3-> Hits: 727, Late: 37, Early: 0, Misses: 3
6c4-> Hits: 36548, Late: 107, Early: 0, Misses: 0
6c5-> Hits: 1, Late: 0, Early: 0, Misses: 0
6c7-> Hits: 1, Late: 0, Early: 0, Misses: 0
6c9-> Hits: 3, Late: 0, Early: 0, Misses: 0
6ca-> Hits: 1, Late: 1, Early: 0, Misses: 0
[...]
d9f-> Hits: 1, Late: 0, Early: 0, Misses: 0
da0-> Hits: 7, Late: 1, Early: 0, Misses: 0
da1-> Hits: 1, Late: 0, Early: 0, Misses: 0
da2-> Hits: 6, Late: 0, Early: 0, Misses: 0
da3-> Hits: 1, Late: 0, Early: 0, Misses: 0
da5-> Hits: 5, Late: 0, Early: 0, Misses: 0
da6-> Hits: 6, Late: 5, Early: 0, Misses: 0
da7-> Hits: 3, Late: 0, Early: 0, Misses: 0
da8-> Hits: 2, Late: 0, Early: 0, Misses: 0
da9-> Hits: 1, Late: 0, Early: 0, Misses: 0
daa-> Hits: 1, Late: 0, Early: 0, Misses: 0
dab-> Hits: 7, Late: 0, Early: 0, Misses: 0
dac-> Hits: 10, Late: 0, Early: 0, Misses: 0
dad-> Hits: 13, Late: 0, Early: 0, Misses: 0
dae-> Hits: 1, Late: 0, Early: 0, Misses: 0
daf-> Hits: 3, Late: 0, Early: 0, Misses: 0
db0-> Hits: 7, Late: 4, Early: 0, Misses: 0
db1-> Hits: 12, Late: 0, Early: 0, Misses: 0
db3-> Hits: 3107, Late: 0, Early: 0, Misses: 591
db5-> Hits: 3, Late: 0, Early: 0, Misses: 0
db7-> Hits: 3, Late: 0, Early: 0, Misses: 0
db8-> Hits: 3, Late: 0, Early: 0, Misses: 0
db9-> Hits: 2, Late: 0, Early: 0, Misses: 0
dba-> Hits: 1, Late: 0, Early: 0, Misses: 0
dbb-> Hits: 2, Late: 0, Early: 0, Misses: 0
dbc-> Hits: 1, Late: 0, Early: 0, Misses: 0
dbd-> Hits: 1, Late: 0, Early: 0, Misses: 0
dbe-> Hits: 5, Late: 0, Early: 0, Misses: 0
dbf-> Hits: 8, Late: 0, Early: 0, Misses: 0
dc0-> Hits: 52, Late: 5, Early: 0, Misses: 0
dc2-> Hits: 3, Late: 2, Early: 0, Misses: 0
dc3-> Hits: 2, Late: 0, Early: 0, Misses: 0
dc5-> Hits: 171, Late: 0, Early: 0, Misses: 16
dc7-> Hits: 23, Late: 1, Early: 0, Misses: 0
dc8-> Hits: 3, Late: 1, Early: 0, Misses: 0
dca-> Hits: 3, Late: 0, Early: 0, Misses: 0
dcb-> Hits: 6, Late: 0, Early: 0, Misses: 0
dcc-> Hits: 18, Late: 2, Early: 0, Misses: 0
dcd-> Hits: 19, Late: 0, Early: 0, Misses: 0
dcf-> Hits: 12, Late: 0, Early: 0, Misses: 0
dd0-> Hits: 7, Late: 0, Early: 0, Misses: 0
dd1-> Hits: 13, Late: 0, Early: 0, Misses: 0
dd2-> Hits: 1, Late: 0, Early: 0, Misses: 0
dd3-> Hits: 16, Late: 0, Early: 0, Misses: 0
dd5-> Hits: 2, Late: 0, Early: 0, Misses: 0
dd6-> Hits: 4, Late: 0, Early: 0, Misses: 0
dd8-> Hits: 19, Late: 0, Early: 0, Misses: 0
dd9-> Hits: 12, Late: 0, Early: 0, Misses: 0
dda-> Hits: 3168, Late: 1, Early: 0, Misses: 523
ddc-> Hits: 5, Late: 0, Early: 0, Misses: 0
dde-> Hits: 4, Late: 0, Early: 0, Misses: 0
ddf-> Hits: 4, Late: 0, Early: 0, Misses: 0
de0-> Hits: 9, Late: 0, Early: 0, Misses: 0
de2-> Hits: 2, Late: 0, Early: 0, Misses: 0
de3-> Hits: 4, Late: 2, Early: 0, Misses: 0
de4-> Hits: 2, Late: 0, Early: 0, Misses: 0
de7-> Hits: 1, Late: 0, Early: 0, Misses: 0
de8-> Hits: 1, Late: 0, Early: 0, Misses: 0
de9-> Hits: 1, Late: 10, Early: 0, Misses: 11
deb-> Hits: 1, Late: 0, Early: 0, Misses: 0
dec-> Hits: 2, Late: 0, Early: 0, Misses: 0
ded-> Hits: 5, Late: 0, Early: 0, Misses: 0
dee-> Hits: 8, Late: 10, Early: 0, Misses: 11
def-> Hits: 79, Late: 0, Early: 0, Misses: 3
df0-> Hits: 1, Late: 0, Early: 0, Misses: 0
df1-> Hits: 17, Late: 0, Early: 0, Misses: 0
df2-> Hits: 3, Late: 0, Early: 0, Misses: 0
df3-> Hits: 6, Late: 0, Early: 0, Misses: 0
df4-> Hits: 1, Late: 0, Early: 0, Misses: 0
df5-> Hits: 6, Late: 0, Early: 0, Misses: 0
df7-> Hits: 7, Late: 0, Early: 0, Misses: 0
df8-> Hits: 1, Late: 0, Early: 0, Misses: 0
df9-> Hits: 2, Late: 0, Early: 0, Misses: 0
dfb-> Hits: 1, Late: 0, Early: 0, Misses: 0
dfd-> Hits: 7, Late: 0, Early: 0, Misses: 0
e00-> Hits: 9, Late: 0, Early: 0, Misses: 0
e01-> Hits: 2, Late: 0, Early: 0, Misses: 0
e02-> Hits: 5, Late: 0, Early: 0, Misses: 0
e03-> Hits: 1, Late: 0, Early: 0, Misses: 0
e04-> Hits: 0, Late: 1, Early: 0, Misses: 123
e05-> Hits: 2, Late: 1, Early: 0, Misses: 0
e06-> Hits: 3092, Late: 10, Early: 0, Misses: 610
e07-> Hits: 0, Late: 23, Early: 0, Misses: 0
e0e-> Hits: 137, Late: 0, Early: 0, Misses: 0
e0f-> Hits: 2, Late: 12, Early: 0, Misses: 11
e10-> Hits: 2, Late: 0, Early: 0, Misses: 0
e12-> Hits: 6, Late: 0, Early: 0, Misses: 0
e13-> Hits: 7, Late: 0, Early: 0, Misses: 0
e14-> Hits: 2, Late: 0, Early: 0, Misses: 0
e15-> Hits: 2, Late: 0, Early: 0, Misses: 0
e16-> Hits: 2, Late: 0, Early: 0, Misses: 0
e17-> Hits: 1, Late: 0, Early: 0, Misses: 0
e18-> Hits: 4, Late: 0, Early: 0, Misses: 0
e19-> Hits: 14, Late: 12, Early: 0, Misses: 0
e1a-> Hits: 2, Late: 0, Early: 0, Misses: 0
e1b-> Hits: 34, Late: 12, Early: 0, Misses: 0
e1c-> Hits: 5, Late: 0, Early: 0, Misses: 0
e1d-> Hits: 0, Late: 3, Early: 0, Misses: 0
e1e-> Hits: 11, Late: 13, Early: 0, Misses: 0
e20-> Hits: 14, Late: 2, Early: 0, Misses: 0
e22-> Hits: 8, Late: 0, Early: 0, Misses: 0
e23-> Hits: 5, Late: 24, Early: 0, Misses: 0
e25-> Hits: 1, Late: 0, Early: 0, Misses: 0
e26-> Hits: 2, Late: 0, Early: 0, Misses: 0
e28-> Hits: 18, Late: 14, Early: 0, Misses: 0
e29-> Hits: 12, Late: 12, Early: 0, Misses: 0
e2a-> Hits: 2, Late: 1, Early: 0, Misses: 0
e2c-> Hits: 12, Late: 13, Early: 0, Misses: 0
e2d-> Hits: 2, Late: 0, Early: 0, Misses: 0
e30-> Hits: 16, Late: 0, Early: 0, Misses: 0
e31-> Hits: 11, Late: 13, Early: 0, Misses: 0
e33-> Hits: 3, Late: 0, Early: 0, Misses: 0
e34-> Hits: 1, Late: 0, Early: 0, Misses: 0
e35-> Hits: 16, Late: 0, Early: 0, Misses: 0
e36-> Hits: 2, Late: 0, Early: 0, Misses: 0
e38-> Hits: 1, Late: 0, Early: 0, Misses: 0
e39-> Hits: 15, Late: 13, Early: 0, Misses: 0
e3a-> Hits: 1, Late: 0, Early: 0, Misses: 0
e3b-> Hits: 0, Late: 1, Early: 0, Misses: 0
e3c-> Hits: 6, Late: 1, Early: 0, Misses: 0
e3d-> Hits: 15, Late: 2, Early: 0, Misses: 0
e3e-> Hits: 2, Late: 0, Early: 0, Misses: 0
e3f-> Hits: 1, Late: 0, Early: 0, Misses: 0
e40-> Hits: 6, Late: 1, Early: 0, Misses: 0
e41-> Hits: 14, Late: 25, Early: 0, Misses: 0
e42-> Hits: 2, Late: 0, Early: 0, Misses: 0
e44-> Hits: 3, Late: 0, Early: 0, Misses: 0
e45-> Hits: 1, Late: 1, Early: 0, Misses: 0
e47-> Hits: 2, Late: 0, Early: 0, Misses: 0
e48-> Hits: 2476, Late: 0, Early: 0, Misses: 1221
e49-> Hits: 11, Late: 12, Early: 0, Misses: 0
e4a-> Hits: 1, Late: 0, Early: 0, Misses: 0
e4c-> Hits: 0, Late: 1, Early: 0, Misses: 0
e4d-> Hits: 3, Late: 0, Early: 0, Misses: 0
e4e-> Hits: 5, Late: 0, Early: 0, Misses: 0
e4f-> Hits: 2, Late: 0, Early: 0, Misses: 0
e50-> Hits: 0, Late: 3, Early: 0, Misses: 0
e51-> Hits: 2, Late: 0, Early: 0, Misses: 0
e54-> Hits: 1, Late: 0, Early: 0, Misses: 0
e55-> Hits: 3, Late: 0, Early: 0, Misses: 0
e57-> Hits: 8, Late: 0, Early: 0, Misses: 0
e58-> Hits: 2, Late: 0, Early: 0, Misses: 0
e59-> Hits: 20, Late: 0, Early: 0, Misses: 0
e5a-> Hits: 22, Late: 0, Early: 0, Misses: 0
e5b-> Hits: 22, Late: 0, Early: 0, Misses: 0
e5c-> Hits: 2, Late: 0, Early: 0, Misses: 0
e5d-> Hits: 20, Late: 0, Early: 0, Misses: 0
e5e-> Hits: 6, Late: 0, Early: 0, Misses: 0
e5f-> Hits: 20, Late: 0, Early: 0, Misses: 0
e60-> Hits: 439, Late: 2, Early: 0, Misses: 0
e61-> Hits: 22, Late: 0, Early: 0, Misses: 0
e62-> Hits: 2, Late: 0, Early: 0, Misses: 0
e63-> Hits: 26, Late: 0, Early: 0, Misses: 0
e64-> Hits: 0, Late: 1, Early: 0, Misses: 0
e65-> Hits: 6, Late: 0, Early: 0, Misses: 0
e68-> Hits: 2, Late: 0, Early: 0, Misses: 0
e6b-> Hits: 1, Late: 0, Early: 0, Misses: 0
e6c-> Hits: 1, Late: 0, Early: 0, Misses: 0
e6f-> Hits: 2, Late: 0, Early: 0, Misses: 0
e70-> Hits: 5, Late: 1, Early: 0, Misses: 0
e71-> Hits: 6, Late: 0, Early: 0, Misses: 0
e72-> Hits: 27, Late: 0, Early: 0, Misses: 0
e73-> Hits: 2, Late: 0, Early: 0, Misses: 0
e74-> Hits: 5, Late: 0, Early: 0, Misses: 0
e75-> Hits: 5, Late: 1, Early: 0, Misses: 0
e76-> Hits: 6, Late: 0, Early: 0, Misses: 0
e77-> Hits: 1, Late: 0, Early: 0, Misses: 0
e79-> Hits: 2, Late: 0, Early: 0, Misses: 0
e7a-> Hits: 1, Late: 0, Early: 0, Misses: 0
e7b-> Hits: 1, Late: 0, Early: 0, Misses: 0
e7d-> Hits: 0, Late: 12, Early: 0, Misses: 11
e7e-> Hits: 0, Late: 12, Early: 0, Misses: 11
e7f-> Hits: 26, Late: 0, Early: 0, Misses: 0
e80-> Hits: 1, Late: 0, Early: 0, Misses: 0
e81-> Hits: 29, Late: 0, Early: 0, Misses: 0
e82-> Hits: 3, Late: 0, Early: 0, Misses: 0
e83-> Hits: 25, Late: 0, Early: 0, Misses: 0
e84-> Hits: 14, Late: 12, Early: 0, Misses: 0
e85-> Hits: 23, Late: 0, Early: 0, Misses: 0
e86-> Hits: 2, Late: 0, Early: 0, Misses: 0
e87-> Hits: 23, Late: 0, Early: 0, Misses: 0
e88-> Hits: 26, Late: 0, Early: 0, Misses: 0
e8a-> Hits: 2, Late: 1, Early: 0, Misses: 0
e8b-> Hits: 2, Late: 0, Early: 0, Misses: 0
e8d-> Hits: 1, Late: 0, Early: 0, Misses: 0
e90-> Hits: 2, Late: 0, Early: 0, Misses: 0
e91-> Hits: 2, Late: 0, Early: 0, Misses: 0
e92-> Hits: 4, Late: 0, Early: 0, Misses: 0
e94-> Hits: 4, Late: 0, Early: 0, Misses: 0
e95-> Hits: 2, Late: 0, Early: 0, Misses: 0
e96-> Hits: 1, Late: 0, Early: 0, Misses: 0
e97-> Hits: 2, Late: 0, Early: 0, Misses: 0
e98-> Hits: 2, Late: 0, Early: 0, Misses: 0
e99-> Hits: 13, Late: 12, Early: 0, Misses: 0
e9a-> Hits: 2, Late: 0, Early: 0, Misses: 0
e9b-> Hits: 1, Late: 0, Early: 0, Misses: 0
e9d-> Hits: 1, Late: 0, Early: 0, Misses: 0
e9f-> Hits: 1, Late: 0, Early: 0, Misses: 0
ea0-> Hits: 2, Late: 1, Early: 0, Misses: 0
ea1-> Hits: 3, Late: 0, Early: 0, Misses: 0
ea2-> Hits: 2, Late: 0, Early: 0, Misses: 0
ea5-> Hits: 1, Late: 0, Early: 0, Misses: 0
ea6-> Hits: 0, Late: 1, Early: 0, Misses: 0
ea7-> Hits: 1, Late: 0, Early: 0, Misses: 0
ea8-> Hits: 1, Late: 0, Early: 0, Misses: 0
ea9-> Hits: 3, Late: 0, Early: 0, Misses: 0
eaa-> Hits: 1, Late: 0, Early: 0, Misses: 0
eab-> Hits: 7, Late: 0, Early: 0, Misses: 0
eac-> Hits: 1, Late: 0, Early: 0, Misses: 0
eae-> Hits: 1, Late: 0, Early: 0, Misses: 0
eaf-> Hits: 0, Late: 1, Early: 0, Misses: 0
eb0-> Hits: 10517, Late: 6758, Early: 0, Misses: 0
eb3-> Hits: 1, Late: 0, Early: 0, Misses: 0
eb4-> Hits: 1, Late: 0, Early: 0, Misses: 0
eb5-> Hits: 10690, Late: 4380, Early: 0, Misses: 0
eb6-> Hits: 3, Late: 2, Early: 0, Misses: 0
eb8-> Hits: 1, Late: 0, Early: 0, Misses: 0
eba-> Hits: 9335, Late: 7700, Early: 0, Misses: 0
ebc-> Hits: 3, Late: 0, Early: 0, Misses: 0
ebd-> Hits: 1, Late: 0, Early: 0, Misses: 0
ebe-> Hits: 2, Late: 0, Early: 0, Misses: 0
ebf-> Hits: 2, Late: 1, Early: 0, Misses: 0
ec0-> Hits: 9875, Late: 5853, Early: 0, Misses: 0
ec1-> Hits: 13, Late: 0, Early: 0, Misses: 0
ec2-> Hits: 2, Late: 0, Early: 0, Misses: 0
ec3-> Hits: 2, Late: 0, Early: 0, Misses: 0
ec4-> Hits: 1, Late: 1, Early: 0, Misses: 0
ec5-> Hits: 7, Late: 0, Early: 0, Misses: 0
ec6-> Hits: 8407, Late: 8468, Early: 0, Misses: 0
ec7-> Hits: 1, Late: 1, Early: 0, Misses: 0
ec8-> Hits: 1, Late: 0, Early: 0, Misses: 0
eca-> Hits: 1, Late: 0, Early: 0, Misses: 0
ecb-> Hits: 0, Late: 1, Early: 0, Misses: 0
ecc-> Hits: 9240, Late: 6344, Early: 0, Misses: 0
ecd-> Hits: 1, Late: 0, Early: 0, Misses: 0
ece-> Hits: 0, Late: 1, Early: 0, Misses: 0
ecf-> Hits: 3, Late: 0, Early: 0, Misses: 0
ed0-> Hits: 3, Late: 0, Early: 0, Misses: 0
ed1-> Hits: 26, Late: 1, Early: 0, Misses: 0
ed2-> Hits: 6233, Late: 10312, Early: 0, Misses: 0
ed3-> Hits: 2, Late: 0, Early: 0, Misses: 0
ed5-> Hits: 5, Late: 1, Early: 0, Misses: 0
ed6-> Hits: 2, Late: 0, Early: 0, Misses: 0
ed7-> Hits: 3, Late: 0, Early: 0, Misses: 0
ed8-> Hits: 8366, Late: 6967, Early: 0, Misses: 13
ed9-> Hits: 6, Late: 0, Early: 0, Misses: 0
edb-> Hits: 2, Late: 0, Early: 0, Misses: 0
edc-> Hits: 3, Late: 0, Early: 0, Misses: 0
edf-> Hits: 0, Late: 1, Early: 0, Misses: 0
ee0-> Hits: 7, Late: 9, Early: 0, Misses: 16
ee1-> Hits: 6, Late: 12, Early: 0, Misses: 0
ee2-> Hits: 3, Late: 0, Early: 0, Misses: 0
ee3-> Hits: 5, Late: 0, Early: 0, Misses: 0
ee4-> Hits: 8, Late: 0, Early: 0, Misses: 0
ee5-> Hits: 5, Late: 0, Early: 0, Misses: 0
ee7-> Hits: 5, Late: 0, Early: 0, Misses: 0
ee8-> Hits: 2, Late: 0, Early: 0, Misses: 0
ee9-> Hits: 6, Late: 0, Early: 0, Misses: 0
eea-> Hits: 5, Late: 0, Early: 0, Misses: 0
eeb-> Hits: 2, Late: 0, Early: 0, Misses: 0
eec-> Hits: 2, Late: 0, Early: 0, Misses: 0
eed-> Hits: 2, Late: 0, Early: 0, Misses: 0
eee-> Hits: 2, Late: 0, Early: 0, Misses: 0
eef-> Hits: 16, Late: 0, Early: 0, Misses: 0
ef0-> Hits: 5, Late: 0, Early: 0, Misses: 0
ef1-> Hits: 2, Late: 0, Early: 0, Misses: 0
ef2-> Hits: 3, Late: 0, Early: 0, Misses: 0
ef3-> Hits: 1, Late: 0, Early: 0, Misses: 0
ef4-> Hits: 13, Late: 0, Early: 0, Misses: 0
ef5-> Hits: 1, Late: 0, Early: 0, Misses: 0
ef6-> Hits: 2, Late: 0, Early: 0, Misses: 0
ef7-> Hits: 2, Late: 0, Early: 0, Misses: 0
ef8-> Hits: 3, Late: 2, Early: 0, Misses: 0
ef9-> Hits: 1, Late: 0, Early: 0, Misses: 0
efa-> Hits: 5, Late: 0, Early: 0, Misses: 0
efb-> Hits: 5, Late: 0, Early: 0, Misses: 0
efc-> Hits: 4, Late: 0, Early: 0, Misses: 0
efd-> Hits: 2, Late: 0, Early: 0, Misses: 0
efe-> Hits: 8125, Late: 15481, Early: 0, Misses: 938
eff-> Hits: 6, Late: 0, Early: 0, Misses: 0
f00-> Hits: 4, Late: 0, Early: 0, Misses: 0
f01-> Hits: 4, Late: 0, Early: 0, Misses: 0
f02-> Hits: 4, Late: 0, Early: 0, Misses: 0
f03-> Hits: 2, Late: 0, Early: 0, Misses: 0
f04-> Hits: 6, Late: 0, Early: 0, Misses: 0
f05-> Hits: 3, Late: 0, Early: 0, Misses: 0
f06-> Hits: 8, Late: 0, Early: 0, Misses: 0
f07-> Hits: 2, Late: 0, Early: 0, Misses: 0
f08-> Hits: 4, Late: 0, Early: 0, Misses: 0
f09-> Hits: 9, Late: 0, Early: 0, Misses: 0
f0b-> Hits: 2, Late: 0, Early: 0, Misses: 0
f0c-> Hits: 4, Late: 4, Early: 0, Misses: 0
f0d-> Hits: 2, Late: 0, Early: 0, Misses: 0
f0e-> Hits: 1, Late: 0, Early: 0, Misses: 0
f10-> Hits: 39, Late: 3, Early: 0, Misses: 0
f13-> Hits: 33, Late: 0, Early: 0, Misses: 0
f15-> Hits: 1, Late: 0, Early: 0, Misses: 0
f16-> Hits: 1, Late: 0, Early: 0, Misses: 0
f17-> Hits: 31, Late: 0, Early: 0, Misses: 0
f18-> Hits: 1, Late: 0, Early: 0, Misses: 0
f19-> Hits: 4, Late: 3, Early: 0, Misses: 0
f1c-> Hits: 1, Late: 0, Early: 0, Misses: 0
f1e-> Hits: 2, Late: 0, Early: 0, Misses: 1
f20-> Hits: 1, Late: 0, Early: 0, Misses: 0
f21-> Hits: 12, Late: 0, Early: 0, Misses: 0
f22-> Hits: 7, Late: 0, Early: 0, Misses: 1
f23-> Hits: 12, Late: 0, Early: 0, Misses: 0
f24-> Hits: 37, Late: 0, Early: 0, Misses: 0
f25-> Hits: 1, Late: 0, Early: 0, Misses: 0
f26-> Hits: 1, Late: 0, Early: 0, Misses: 0
f27-> Hits: 10, Late: 0, Early: 0, Misses: 0
f28-> Hits: 2, Late: 0, Early: 0, Misses: 0
f29-> Hits: 5, Late: 0, Early: 0, Misses: 0
f2a-> Hits: 6, Late: 0, Early: 0, Misses: 0
f2b-> Hits: 12, Late: 1, Early: 0, Misses: 0
f2f-> Hits: 5, Late: 0, Early: 0, Misses: 0
f30-> Hits: 11, Late: 2, Early: 0, Misses: 0
f31-> Hits: 254, Late: 0, Early: 0, Misses: 0
f32-> Hits: 36, Late: 0, Early: 0, Misses: 0
f33-> Hits: 9, Late: 0, Early: 0, Misses: 0
f34-> Hits: 1, Late: 2, Early: 0, Misses: 0
f37-> Hits: 3, Late: 0, Early: 0, Misses: 0
f39-> Hits: 3, Late: 0, Early: 0, Misses: 0
f3b-> Hits: 8, Late: 0, Early: 0, Misses: 0
f3c-> Hits: 8, Late: 0, Early: 0, Misses: 0
f3d-> Hits: 43, Late: 0, Early: 0, Misses: 0
f3e-> Hits: 1, Late: 0, Early: 0, Misses: 0
f3f-> Hits: 15, Late: 0, Early: 0, Misses: 0
f41-> Hits: 8, Late: 0, Early: 0, Misses: 0
f43-> Hits: 10, Late: 0, Early: 0, Misses: 0
f44-> Hits: 5, Late: 0, Early: 0, Misses: 0
f45-> Hits: 8, Late: 0, Early: 0, Misses: 0
f47-> Hits: 12, Late: 0, Early: 0, Misses: 0
f49-> Hits: 2, Late: 0, Early: 0, Misses: 0
f4c-> Hits: 1, Late: 0, Early: 0, Misses: 0
f50-> Hits: 0, Late: 1, Early: 0, Misses: 0
f53-> Hits: 6, Late: 0, Early: 0, Misses: 0
f54-> Hits: 2, Late: 0, Early: 0, Misses: 0
f59-> Hits: 1, Late: 264, Early: 0, Misses: 0
f5a-> Hits: 16, Late: 0, Early: 0, Misses: 0
f5b-> Hits: 1, Late: 0, Early: 0, Misses: 0
f5d-> Hits: 0, Late: 1, Early: 0, Misses: 0
f5e-> Hits: 1, Late: 0, Early: 0, Misses: 0
f5f-> Hits: 2, Late: 0, Early: 0, Misses: 0
f60-> Hits: 12, Late: 2, Early: 0, Misses: 0
f61-> Hits: 1, Late: 0, Early: 0, Misses: 0
f63-> Hits: 2, Late: 0, Early: 0, Misses: 0
f64-> Hits: 0, Late: 252, Early: 0, Misses: 12
f65-> Hits: 4, Late: 1, Early: 0, Misses: 0
f66-> Hits: 2, Late: 0, Early: 0, Misses: 0
f68-> Hits: 2, Late: 0, Early: 0, Misses: 0
f6c-> Hits: 18, Late: 1, Early: 0, Misses: 0
f6d-> Hits: 8, Late: 0, Early: 0, Misses: 0
f6f-> Hits: 10, Late: 2, Early: 0, Misses: 0
f70-> Hits: 0, Late: 14, Early: 0, Misses: 0
f73-> Hits: 1, Late: 1, Early: 0, Misses: 0
f74-> Hits: 246, Late: 8, Early: 0, Misses: 12
f78-> Hits: 0, Late: 252, Early: 0, Misses: 12
f7a-> Hits: 4, Late: 0, Early: 0, Misses: 0
f7d-> Hits: 11, Late: 0, Early: 0, Misses: 1
f7f-> Hits: 3, Late: 1, Early: 0, Misses: 0
f80-> Hits: 4, Late: 1, Early: 0, Misses: 0
f85-> Hits: 3, Late: 0, Early: 0, Misses: 0
f86-> Hits: 3, Late: 1, Early: 0, Misses: 0
f87-> Hits: 14, Late: 0, Early: 0, Misses: 0
f89-> Hits: 1, Late: 0, Early: 0, Misses: 0
f8b-> Hits: 8, Late: 0, Early: 0, Misses: 0
f8c-> Hits: 6, Late: 0, Early: 0, Misses: 0
f8d-> Hits: 4, Late: 0, Early: 0, Misses: 0
f8f-> Hits: 1, Late: 0, Early: 0, Misses: 0
f90-> Hits: 6, Late: 0, Early: 0, Misses: 0
f91-> Hits: 1, Late: 0, Early: 0, Misses: 0
f92-> Hits: 2, Late: 0, Early: 0, Misses: 0
f93-> Hits: 6, Late: 0, Early: 0, Misses: 0
f94-> Hits: 1, Late: 0, Early: 0, Misses: 0
f95-> Hits: 0, Late: 2, Early: 0, Misses: 0
f96-> Hits: 1, Late: 0, Early: 0, Misses: 0
f98-> Hits: 1, Late: 0, Early: 0, Misses: 0
f9a-> Hits: 15, Late: 0, Early: 0, Misses: 0
f9c-> Hits: 3, Late: 0, Early: 0, Misses: 0
f9d-> Hits: 16, Late: 3, Early: 0, Misses: 0
f9e-> Hits: 1, Late: 0, Early: 0, Misses: 0
f9f-> Hits: 4, Late: 0, Early: 0, Misses: 0
fa0-> Hits: 5, Late: 1, Early: 0, Misses: 0
fa1-> Hits: 1, Late: 0, Early: 0, Misses: 0
fa4-> Hits: 1, Late: 0, Early: 0, Misses: 0
faa-> Hits: 3, Late: 0, Early: 0, Misses: 0
fb0-> Hits: 2887, Late: 255, Early: 0, Misses: 949
fb1-> Hits: 3, Late: 3, Early: 0, Misses: 0
fb3-> Hits: 10, Late: 0, Early: 0, Misses: 0
fb6-> Hits: 1, Late: 0, Early: 0, Misses: 0
fb8-> Hits: 4, Late: 1, Early: 0, Misses: 0
fba-> Hits: 23, Late: 2, Early: 0, Misses: 0
fbb-> Hits: 11, Late: 1, Early: 0, Misses: 0
fbd-> Hits: 1, Late: 0, Early: 0, Misses: 0
fbe-> Hits: 1, Late: 0, Early: 0, Misses: 0
fbf-> Hits: 2, Late: 0, Early: 0, Misses: 0
fc0-> Hits: 4, Late: 0, Early: 0, Misses: 0
fc4-> Hits: 9, Late: 0, Early: 0, Misses: 0
fc5-> Hits: 3, Late: 0, Early: 0, Misses: 0
fc6-> Hits: 2, Late: 0, Early: 0, Misses: 0
fc7-> Hits: 2, Late: 0, Early: 0, Misses: 0
fc8-> Hits: 8, Late: 0, Early: 0, Misses: 0
fca-> Hits: 2, Late: 0, Early: 0, Misses: 0
fcb-> Hits: 1, Late: 0, Early: 0, Misses: 0
fcd-> Hits: 1, Late: 1, Early: 0, Misses: 0
fce-> Hits: 1, Late: 0, Early: 0, Misses: 0
fd0-> Hits: 4, Late: 0, Early: 0, Misses: 0
fd2-> Hits: 1, Late: 0, Early: 0, Misses: 0
fd6-> Hits: 6, Late: 0, Early: 0, Misses: 0
fd7-> Hits: 6, Late: 0, Early: 0, Misses: 0
fd8-> Hits: 10, Late: 0, Early: 0, Misses: 0
fda-> Hits: 6, Late: 0, Early: 0, Misses: 0
fdc-> Hits: 7, Late: 1, Early: 0, Misses: 0
fde-> Hits: 8, Late: 0, Early: 0, Misses: 0
fdf-> Hits: 8, Late: 0, Early: 0, Misses: 0
fe0-> Hits: 11, Late: 0, Early: 0, Misses: 0
fe1-> Hits: 4, Late: 0, Early: 0, Misses: 0
fe2-> Hits: 2, Late: 0, Early: 0, Misses: 0
fe3-> Hits: 4, Late: 0, Early: 0, Misses: 0
fe4-> Hits: 12, Late: 1, Early: 0, Misses: 0
fe5-> Hits: 5, Late: 8, Early: 0, Misses: 0
fe6-> Hits: 2, Late: 0, Early: 0, Misses: 0
fe7-> Hits: 1, Late: 1, Early: 0, Misses: 0
feb-> Hits: 1, Late: 2, Early: 0, Misses: 0
fec-> Hits: 5, Late: 1, Early: 0, Misses: 0
fed-> Hits: 6, Late: 0, Early: 0, Misses: 0
fef-> Hits: 0, Late: 1, Early: 0, Misses: 0
ff0-> Hits: 7, Late: 0, Early: 0, Misses: 0
ff2-> Hits: 5, Late: 252, Early: 0, Misses: 12
ff3-> Hits: 14, Late: 0, Early: 0, Misses: 0
ff5-> Hits: 3, Late: 0, Early: 0, Misses: 0
ff7-> Hits: 4, Late: 0, Early: 0, Misses: 0
ff9-> Hits: 18, Late: 8, Early: 0, Misses: 0
ffd-> Hits: 2, Late: 0, Early: 0, Misses: 0
ffe-> Hits: 16, Late: 0, Early: 0, Misses: 0
fff-> Hits: 12, Late: 0, Early: 0, Misses: 0
Total misses (from ip) 3807390
Total accesses (misses) 31581473 3807390
Pref: Addr 0 IP 0 Current 0
CPU 0 L2C berti prefetcher final stats
Channel_0_RQ_row_buffer_hit 552378
Channel_0_RQ_row_buffer_miss 510778
Channel_0_WQ_row_buffer_hit 230846
Channel_0_WQ_row_buffer_miss 382301
Channel_0_WQ_full 370
Channel_0_dbus_congested 830705

avg_congested_cycle 10

EzSearch AVG IPC :0.80991: L2-Pf-HR :0.80721 : L2-HR :0.85702 Uful:0.20437
     > Finished combination: TraceType=770-tot Sim:120000000 Prefetcher=L2berti L1=berti
