TRACE: [597000000][OPT-6_7B]_[h32][s512][d128] Warmup: 2000000 NumTraces: 597000000
L1:next_line:L2:029-SecTOP-L2-MultiMarkovDelta_ip_stride_v4-MK2-P30
*************************************************
   ChampSim Multicore Out-of-Order Simulator
   Last compiled: Oct 27 2024 04:04:50
*************************************************

trace_0 770-tot_memTraces_v3/memTraces[597000000][OPT-6_7B]_[h32][s512][d128].champsim.xz
CPU 0 L1D next line prefetcher
MK1: Size: 128 TMAX: 64 TMIN: 32 MKPTHRESH: 40
MK2: Size: 256 TMAX: 32 TMIN: 16 MK2PTHRESH: 30
MK3: Size: 384 TMAX: 16 TMIN: 8 MK3PTHRESH: 25
MK4: Size: 512 TMAX: 8 TMIN: 0 MK4PTHRESH: 20
Stride Size: 512 Prefetch Degree: 15

CPU 0 L2C prefetcher
MAIN.cc ln 751 stats print skipped
CPU 0 L2C prefetcher initialized


Cache Size: 1280
number of cache lines: 20480
CPU  0 inst:    1000000 cyc:     499106 now IPC :2.00358: AVG IPC :2.00358: L2-Pf-HR :0.91748: L2-HR :0.89253: (Sim:0h0m8s) 
CPU  0 inst:    2000001 cyc:     983934 now IPC :2.06259: AVG IPC :2.03266: L2-Pf-HR :0.95215: L2-HR :0.93524: (Sim:0h0m17s) 

Warmup complete CPU  0 instructions:    2000001 cycles:     983934 (Simulation time: 0 hr 0 min 17 sec) 

CPU  0 inst:    3000000 cyc:    1498415 now IPC :1.94370: AVG IPC :1.94370: L2-Pf-HR :0.95444: L2-HR :0.95152: (Sim:0h0m24s) 
CPU  0 inst:    4000001 cyc:    1995056 now IPC :2.01353: AVG IPC :1.97800: L2-Pf-HR :0.95955: L2-HR :0.95741: (Sim:0h0m31s) 
CPU  0 inst:    5000004 cyc:    2494243 now IPC :2.00326: AVG IPC :1.98635: L2-Pf-HR :0.96353: L2-HR :0.96143: (Sim:0h0m38s) 
CPU  0 inst:    6000003 cyc:    2992370 now IPC :2.00752: AVG IPC :1.99160: L2-Pf-HR :0.96718: L2-HR :0.96471: (Sim:0h0m46s) 
CPU  0 inst:    7000003 cyc:    3523731 now IPC :1.88196: AVG IPC :1.96866: L2-Pf-HR :0.96456: L2-HR :0.96075: (Sim:0h0m54s) 
CPU  0 inst:    8000000 cyc:    4009937 now IPC :2.05674: AVG IPC :1.98281: L2-Pf-HR :0.96718: L2-HR :0.96310: (Sim:0h1m1s) 
CPU  0 inst:    9000002 cyc:    4593999 now IPC :1.71215: AVG IPC :1.93902: L2-Pf-HR :0.96263: L2-HR :0.95716: (Sim:0h1m9s) 
CPU  0 inst:   10000004 cyc:    5077670 now IPC :2.06753: AVG IPC :1.95421: L2-Pf-HR :0.96260: L2-HR :0.95772: (Sim:0h1m16s) 
CPU  0 inst:   11000000 cyc:    5561622 now IPC :2.06631: AVG IPC :1.96606: L2-Pf-HR :0.96311: L2-HR :0.95862: (Sim:0h1m23s) 
CPU  0 inst:   12000005 cyc:    6040966 now IPC :2.08619: AVG IPC :1.97745: L2-Pf-HR :0.96386: L2-HR :0.95965: (Sim:0h1m30s) 
CPU  0 inst:   13000001 cyc:    6523833 now IPC :2.07096: AVG IPC :1.98560: L2-Pf-HR :0.96492: L2-HR :0.96083: (Sim:0h1m37s) 
CPU  0 inst:   14000000 cyc:    7002241 now IPC :2.09026: AVG IPC :1.99392: L2-Pf-HR :0.96609: L2-HR :0.96210: (Sim:0h1m44s) 
CPU  0 inst:   15000003 cyc:    7543853 now IPC :1.84635: AVG IPC :1.98173: L2-Pf-HR :0.96534: L2-HR :0.96101: (Sim:0h1m52s) 
CPU  0 inst:   16000001 cyc:    8044449 now IPC :1.99761: AVG IPC :1.98286: L2-Pf-HR :0.96639: L2-HR :0.96196: (Sim:0h1m59s) 
CPU  0 inst:   17000002 cyc:    8693870 now IPC :1.53983: AVG IPC :1.94554: L2-Pf-HR :0.96442: L2-HR :0.95937: (Sim:0h2m7s) 
CPU  0 inst:   18000001 cyc:    9195017 now IPC :1.99542: AVG IPC :1.94859: L2-Pf-HR :0.96428: L2-HR :0.95948: (Sim:0h2m14s) 
CPU  0 inst:   19000001 cyc:    9687855 now IPC :2.02906: AVG IPC :1.95314: L2-Pf-HR :0.96458: L2-HR :0.95996: (Sim:0h2m21s) 
CPU  0 inst:   20000002 cyc:   10190271 now IPC :1.99038: AVG IPC :1.95518: L2-Pf-HR :0.96492: L2-HR :0.96041: (Sim:0h2m29s) 
CPU  0 inst:   21000004 cyc:   10692032 now IPC :1.99298: AVG IPC :1.95713: L2-Pf-HR :0.96539: L2-HR :0.96095: (Sim:0h2m36s) 
CPU  0 inst:   22000004 cyc:   11183699 now IPC :2.03390: AVG IPC :1.96083: L2-Pf-HR :0.96603: L2-HR :0.96166: (Sim:0h2m43s) 
CPU  0 inst:   23000002 cyc:   11734617 now IPC :1.81515: AVG IPC :1.95336: L2-Pf-HR :0.96557: L2-HR :0.96103: (Sim:0h2m51s) 
CPU  0 inst:   24000002 cyc:   12237893 now IPC :1.98698: AVG IPC :1.95487: L2-Pf-HR :0.96619: L2-HR :0.96160: (Sim:0h2m58s) 
CPU  0 inst:   25000005 cyc:   12890330 now IPC :1.53272: AVG IPC :1.93174: L2-Pf-HR :0.96500: L2-HR :0.95999: (Sim:0h3m6s) 
CPU  0 inst:   26000001 cyc:   13393731 now IPC :1.98648: AVG IPC :1.93396: L2-Pf-HR :0.96496: L2-HR :0.96010: (Sim:0h3m13s) 
CPU  0 inst:   27000002 cyc:   13890265 now IPC :2.01396: AVG IPC :1.93703: L2-Pf-HR :0.96501: L2-HR :0.96031: (Sim:0h3m20s) 
CPU  0 inst:   28000005 cyc:   14392653 now IPC :1.99050: AVG IPC :1.93904: L2-Pf-HR :0.96519: L2-HR :0.96060: (Sim:0h3m27s) 
CPU  0 inst:   29000005 cyc:   14893735 now IPC :1.99568: AVG IPC :1.94108: L2-Pf-HR :0.96546: L2-HR :0.96095: (Sim:0h3m35s) 
CPU  0 inst:   30000005 cyc:   15386264 now IPC :2.03034: AVG IPC :1.94413: L2-Pf-HR :0.96599: L2-HR :0.96153: (Sim:0h3m42s) 
CPU  0 inst:   31000004 cyc:   15932631 now IPC :1.83027: AVG IPC :1.93997: L2-Pf-HR :0.96569: L2-HR :0.96111: (Sim:0h3m49s) 
CPU  0 inst:   32000000 cyc:   16438118 now IPC :1.97828: AVG IPC :1.94122: L2-Pf-HR :0.96607: L2-HR :0.96143: (Sim:0h3m56s) 
CPU  0 inst:   33000001 cyc:   17085713 now IPC :1.54418: AVG IPC :1.92525: L2-Pf-HR :0.96520: L2-HR :0.96024: (Sim:0h4m4s) 
CPU  0 inst:   34000002 cyc:   17588601 now IPC :1.98852: AVG IPC :1.92717: L2-Pf-HR :0.96511: L2-HR :0.96027: (Sim:0h4m11s) 
CPU  0 inst:   35000002 cyc:   18079378 now IPC :2.03759: AVG IPC :1.93034: L2-Pf-HR :0.96517: L2-HR :0.96045: (Sim:0h4m25s) 
CPU  0 inst:   36000002 cyc:   18579899 now IPC :1.99792: AVG IPC :1.93226: L2-Pf-HR :0.96529: L2-HR :0.96065: (Sim:0h4m42s) 
CPU  0 inst:   37000005 cyc:   19071702 now IPC :2.03334: AVG IPC :1.93501: L2-Pf-HR :0.96558: L2-HR :0.96100: (Sim:0h4m52s) 
CPU  0 inst:   38000003 cyc:   19568369 now IPC :2.01342: AVG IPC :1.93711: L2-Pf-HR :0.96595: L2-HR :0.96141: (Sim:0h4m59s) 
CPU  0 inst:   39000004 cyc:   20115059 now IPC :1.82919: AVG IPC :1.93402: L2-Pf-HR :0.96572: L2-HR :0.96106: (Sim:0h5m7s) 
CPU  0 inst:   40000004 cyc:   20618666 now IPC :1.98568: AVG IPC :1.93535: L2-Pf-HR :0.96598: L2-HR :0.96129: (Sim:0h5m14s) 
CPU  0 inst:   41000005 cyc:   21273267 now IPC :1.52765: AVG IPC :1.92219: L2-Pf-HR :0.96535: L2-HR :0.96039: (Sim:0h5m22s) 
CPU  0 inst:   42000004 cyc:   21767175 now IPC :2.02467: AVG IPC :1.92463: L2-Pf-HR :0.96533: L2-HR :0.96048: (Sim:0h5m29s) 
CPU  0 inst:   43000000 cyc:   22272417 now IPC :1.97924: AVG IPC :1.92592: L2-Pf-HR :0.96539: L2-HR :0.96060: (Sim:0h5m37s) 
CPU  0 inst:   44000002 cyc:   22770770 now IPC :2.00661: AVG IPC :1.92777: L2-Pf-HR :0.96547: L2-HR :0.96074: (Sim:0h5m44s) 
CPU  0 inst:   45000001 cyc:   23260880 now IPC :2.04036: AVG IPC :1.93025: L2-Pf-HR :0.96565: L2-HR :0.96099: (Sim:0h5m51s) 
CPU  0 inst:   46000003 cyc:   23748660 now IPC :2.05011: AVG IPC :1.93281: L2-Pf-HR :0.96594: L2-HR :0.96132: (Sim:0h5m58s) 
CPU  0 inst:   47000001 cyc:   24302486 now IPC :1.80562: AVG IPC :1.92979: L2-Pf-HR :0.96575: L2-HR :0.96105: (Sim:0h6m6s) 
CPU  0 inst:   48000000 cyc:   24806835 now IPC :1.98275: AVG IPC :1.93092: L2-Pf-HR :0.96598: L2-HR :0.96127: (Sim:0h6m13s) 
CPU  0 inst:   49000002 cyc:   25451556 now IPC :1.55106: AVG IPC :1.92091: L2-Pf-HR :0.96548: L2-HR :0.96056: (Sim:0h6m21s) 
CPU  0 inst:   50000004 cyc:   25953862 now IPC :1.99082: AVG IPC :1.92231: L2-Pf-HR :0.96544: L2-HR :0.96059: (Sim:0h6m28s) 
CPU  0 inst:   51000003 cyc:   26453144 now IPC :2.00287: AVG IPC :1.92389: L2-Pf-HR :0.96548: L2-HR :0.96071: (Sim:0h6m36s) 
CPU  0 inst:   52000002 cyc:   26950931 now IPC :2.00889: AVG IPC :1.92552: L2-Pf-HR :0.96553: L2-HR :0.96081: (Sim:0h6m43s) 
CPU  0 inst:   53000001 cyc:   27435708 now IPC :2.06280: AVG IPC :1.92804: L2-Pf-HR :0.96572: L2-HR :0.96105: (Sim:0h6m51s) 
CPU  0 inst:   54000003 cyc:   27931926 now IPC :2.01525: AVG IPC :1.92964: L2-Pf-HR :0.96598: L2-HR :0.96134: (Sim:0h6m58s) 
CPU  0 inst:   55000003 cyc:   28488354 now IPC :1.79718: AVG IPC :1.92696: L2-Pf-HR :0.96584: L2-HR :0.96113: (Sim:0h7m6s) 
CPU  0 inst:   56000001 cyc:   28991075 now IPC :1.98917: AVG IPC :1.92808: L2-Pf-HR :0.96603: L2-HR :0.96130: (Sim:0h7m13s) 
CPU  0 inst:   57000005 cyc:   29646074 now IPC :1.52673: AVG IPC :1.91891: L2-Pf-HR :0.96558: L2-HR :0.96068: (Sim:0h7m21s) 
CPU  0 inst:   58000004 cyc:   30146752 now IPC :1.99729: AVG IPC :1.92025: L2-Pf-HR :0.96553: L2-HR :0.96070: (Sim:0h7m28s) 
CPU  0 inst:   59000003 cyc:   30649343 now IPC :1.98969: AVG IPC :1.92143: L2-Pf-HR :0.96559: L2-HR :0.96081: (Sim:0h7m36s) 
CPU  0 inst:   60000002 cyc:   31140878 now IPC :2.03444: AVG IPC :1.92327: L2-Pf-HR :0.96566: L2-HR :0.96093: (Sim:0h7m43s) 
CPU  0 inst:   61000004 cyc:   31635208 now IPC :2.02294: AVG IPC :1.92488: L2-Pf-HR :0.96580: L2-HR :0.96111: (Sim:0h7m50s) 
CPU  0 inst:   62000000 cyc:   32133175 now IPC :2.00816: AVG IPC :1.92621: L2-Pf-HR :0.96597: L2-HR :0.96132: (Sim:0h7m58s) 
CPU  0 inst:   63000005 cyc:   32680277 now IPC :1.82782: AVG IPC :1.92451: L2-Pf-HR :0.96587: L2-HR :0.96115: (Sim:0h8m5s) 
CPU  0 inst:   64000001 cyc:   33183448 now IPC :1.98739: AVG IPC :1.92549: L2-Pf-HR :0.96601: L2-HR :0.96127: (Sim:0h8m13s) 
CPU  0 inst:   65000005 cyc:   33831611 now IPC :1.54283: AVG IPC :1.91794: L2-Pf-HR :0.96565: L2-HR :0.96076: (Sim:0h8m20s) 
CPU  0 inst:   66000001 cyc:   34338311 now IPC :1.97355: AVG IPC :1.91879: L2-Pf-HR :0.96561: L2-HR :0.96077: (Sim:0h8m28s) 
CPU  0 inst:   67000001 cyc:   34843059 now IPC :1.98119: AVG IPC :1.91972: L2-Pf-HR :0.96563: L2-HR :0.96083: (Sim:0h8m35s) 
CPU  0 inst:   68000002 cyc:   35335979 now IPC :2.02873: AVG IPC :1.92128: L2-Pf-HR :0.96569: L2-HR :0.96095: (Sim:0h8m43s) 
CPU  0 inst:   69000000 cyc:   35828958 now IPC :2.02848: AVG IPC :1.92280: L2-Pf-HR :0.96578: L2-HR :0.96108: (Sim:0h8m50s) 
CPU  0 inst:   70000001 cyc:   36319611 now IPC :2.03810: AVG IPC :1.92440: L2-Pf-HR :0.96596: L2-HR :0.96128: (Sim:0h8m58s) 
CPU  0 inst:   71000003 cyc:   36875719 now IPC :1.79822: AVG IPC :1.92245: L2-Pf-HR :0.96588: L2-HR :0.96115: (Sim:0h9m5s) 
CPU  0 inst:   72000001 cyc:   37380556 now IPC :1.98083: AVG IPC :1.92326: L2-Pf-HR :0.96600: L2-HR :0.96126: (Sim:0h9m13s) 
CPU  0 inst:   73000000 cyc:   38015411 now IPC :1.57516: AVG IPC :1.91729: L2-Pf-HR :0.96570: L2-HR :0.96082: (Sim:0h9m21s) 
CPU  0 inst:   74000004 cyc:   38525594 now IPC :1.96009: AVG IPC :1.91787: L2-Pf-HR :0.96565: L2-HR :0.96082: (Sim:0h9m28s) 
CPU  0 inst:   75000000 cyc:   39025650 now IPC :1.99977: AVG IPC :1.91895: L2-Pf-HR :0.96565: L2-HR :0.96087: (Sim:0h9m35s) 
CPU  0 inst:   76000002 cyc:   39516426 now IPC :2.03759: AVG IPC :1.92046: L2-Pf-HR :0.96571: L2-HR :0.96098: (Sim:0h9m43s) 
CPU  0 inst:   77000000 cyc:   40011517 now IPC :2.01983: AVG IPC :1.92172: L2-Pf-HR :0.96583: L2-HR :0.96112: (Sim:0h9m50s) 
CPU  0 inst:   78000003 cyc:   40500939 now IPC :2.04323: AVG IPC :1.92322: L2-Pf-HR :0.96599: L2-HR :0.96131: (Sim:0h9m58s) 
CPU  0 inst:   79000000 cyc:   41057849 now IPC :1.79562: AVG IPC :1.92145: L2-Pf-HR :0.96589: L2-HR :0.96117: (Sim:0h10m5s) 
CPU  0 inst:   80000000 cyc:   41565500 now IPC :1.96986: AVG IPC :1.92205: L2-Pf-HR :0.96598: L2-HR :0.96125: (Sim:0h10m17s) 
CPU  0 inst:   81000005 cyc:   42210549 now IPC :1.55028: AVG IPC :1.91624: L2-Pf-HR :0.96574: L2-HR :0.96087: (Sim:0h10m34s) 
CPU  0 inst:   82000001 cyc:   42713666 now IPC :1.98760: AVG IPC :1.91710: L2-Pf-HR :0.96570: L2-HR :0.96087: (Sim:0h10m50s) 
CPU  0 inst:   83000000 cyc:   43209567 now IPC :2.01653: AVG IPC :1.91827: L2-Pf-HR :0.96573: L2-HR :0.96095: (Sim:0h11m7s) 
CPU  0 inst:   84000002 cyc:   43704837 now IPC :2.01910: AVG IPC :1.91944: L2-Pf-HR :0.96577: L2-HR :0.96102: (Sim:0h11m23s) 
CPU  0 inst:   85000001 cyc:   44201756 now IPC :2.01240: AVG IPC :1.92050: L2-Pf-HR :0.96585: L2-HR :0.96113: (Sim:0h11m39s) 
CPU  0 inst:   86000005 cyc:   44692116 now IPC :2.03933: AVG IPC :1.92184: L2-Pf-HR :0.96599: L2-HR :0.96130: (Sim:0h11m55s) 
CPU  0 inst:   87000002 cyc:   45245251 now IPC :1.80787: AVG IPC :1.92041: L2-Pf-HR :0.96594: L2-HR :0.96120: (Sim:0h12m11s) 
CPU  0 inst:   88000003 cyc:   45749204 now IPC :1.98431: AVG IPC :1.92113: L2-Pf-HR :0.96601: L2-HR :0.96127: (Sim:0h12m27s) 
CPU  0 inst:   89000004 cyc:   46395703 now IPC :1.54679: AVG IPC :1.91580: L2-Pf-HR :0.96580: L2-HR :0.96094: (Sim:0h12m45s) 
CPU  0 inst:   90000003 cyc:   46903249 now IPC :1.97026: AVG IPC :1.91640: L2-Pf-HR :0.96574: L2-HR :0.96092: (Sim:0h13m1s) 
CPU  0 inst:   91000000 cyc:   47401471 now IPC :2.00713: AVG IPC :1.91738: L2-Pf-HR :0.96576: L2-HR :0.96098: (Sim:0h13m17s) 
CPU  0 inst:   92000001 cyc:   47893998 now IPC :2.03035: AVG IPC :1.91856: L2-Pf-HR :0.96579: L2-HR :0.96104: (Sim:0h13m33s) 
CPU  0 inst:   93000004 cyc:   48380803 now IPC :2.05422: AVG IPC :1.91996: L2-Pf-HR :0.96587: L2-HR :0.96114: (Sim:0h13m49s) 
CPU  0 inst:   94000000 cyc:   48870336 now IPC :2.04276: AVG IPC :1.92121: L2-Pf-HR :0.96602: L2-HR :0.96131: (Sim:0h14m5s) 
CPU  0 inst:   95000000 cyc:   49421813 now IPC :1.81331: AVG IPC :1.91998: L2-Pf-HR :0.96596: L2-HR :0.96122: (Sim:0h14m21s) 
CPU  0 inst:   96000002 cyc:   49925583 now IPC :1.98504: AVG IPC :1.92065: L2-Pf-HR :0.96601: L2-HR :0.96126: (Sim:0h14m37s) 
CPU  0 inst:   97000005 cyc:   50578663 now IPC :1.53121: AVG IPC :1.91553: L2-Pf-HR :0.96581: L2-HR :0.96094: (Sim:0h14m55s) 
CPU  0 inst:   98000001 cyc:   51087682 now IPC :1.96456: AVG IPC :1.91602: L2-Pf-HR :0.96574: L2-HR :0.96091: (Sim:0h15m11s) 
CPU  0 inst:   99000002 cyc:   51580947 now IPC :2.02731: AVG IPC :1.91711: L2-Pf-HR :0.96577: L2-HR :0.96098: (Sim:0h15m27s) 
CPU  0 inst:  100000002 cyc:   52080935 now IPC :2.00005: AVG IPC :1.91792: L2-Pf-HR :0.96581: L2-HR :0.96104: (Sim:0h15m43s) 
CPU  0 inst:  101000004 cyc:   52570075 now IPC :2.04441: AVG IPC :1.91912: L2-Pf-HR :0.96589: L2-HR :0.96115: (Sim:0h15m59s) 
CPU  0 inst:  102000005 cyc:   53066331 now IPC :2.01509: AVG IPC :1.92003: L2-Pf-HR :0.96598: L2-HR :0.96127: (Sim:0h16m15s) 
CPU  0 inst:  103000004 cyc:   53614271 now IPC :1.82502: AVG IPC :1.91905: L2-Pf-HR :0.96593: L2-HR :0.96119: (Sim:0h16m32s) 
CPU  0 inst:  104000005 cyc:   54120410 now IPC :1.97574: AVG IPC :1.91959: L2-Pf-HR :0.96597: L2-HR :0.96122: (Sim:0h16m48s) 
CPU  0 inst:  105000000 cyc:   54772291 now IPC :1.53401: AVG IPC :1.91491: L2-Pf-HR :0.96580: L2-HR :0.96094: (Sim:0h17m5s) 
CPU  0 inst:  106000004 cyc:   55275008 now IPC :1.98920: AVG IPC :1.91560: L2-Pf-HR :0.96576: L2-HR :0.96093: (Sim:0h17m21s) 
CPU  0 inst:  107000003 cyc:   55773732 now IPC :2.00512: AVG IPC :1.91642: L2-Pf-HR :0.96576: L2-HR :0.96097: (Sim:0h17m37s) 
CPU  0 inst:  108000002 cyc:   56272063 now IPC :2.00670: AVG IPC :1.91723: L2-Pf-HR :0.96579: L2-HR :0.96102: (Sim:0h17m53s) 
CPU  0 inst:  109000001 cyc:   56761929 now IPC :2.04137: AVG IPC :1.91832: L2-Pf-HR :0.96585: L2-HR :0.96111: (Sim:0h18m9s) 
CPU  0 inst:  110000003 cyc:   57261050 now IPC :2.00353: AVG IPC :1.91907: L2-Pf-HR :0.96595: L2-HR :0.96123: (Sim:0h18m25s) 
CPU  0 inst:  111000004 cyc:   57802029 now IPC :1.84850: AVG IPC :1.91840: L2-Pf-HR :0.96592: L2-HR :0.96118: (Sim:0h18m42s) 
CPU  0 inst:  112000002 cyc:   58306834 now IPC :1.98096: AVG IPC :1.91895: L2-Pf-HR :0.96596: L2-HR :0.96121: (Sim:0h18m58s) 
CPU  0 inst:  113000005 cyc:   58952244 now IPC :1.54941: AVG IPC :1.91484: L2-Pf-HR :0.96579: L2-HR :0.96094: (Sim:0h19m15s) 
CPU  0 inst:  114000001 cyc:   59453886 now IPC :1.99345: AVG IPC :1.91551: L2-Pf-HR :0.96575: L2-HR :0.96094: (Sim:0h19m31s) 
CPU  0 inst:  115000003 cyc:   59949814 now IPC :2.01643: AVG IPC :1.91636: L2-Pf-HR :0.96575: L2-HR :0.96097: (Sim:0h19m47s) 
CPU  0 inst:  116000001 cyc:   60444692 now IPC :2.02070: AVG IPC :1.91723: L2-Pf-HR :0.96578: L2-HR :0.96103: (Sim:0h20m3s) 
CPU  0 inst:  117000004 cyc:   60940453 now IPC :2.01711: AVG IPC :1.91806: L2-Pf-HR :0.96584: L2-HR :0.96112: (Sim:0h20m19s) 
CPU  0 inst:  118000000 cyc:   61442269 now IPC :1.99275: AVG IPC :1.91868: L2-Pf-HR :0.96594: L2-HR :0.96123: (Sim:0h20m35s) 
CPU  0 inst:  119000003 cyc:   61987430 now IPC :1.83433: AVG IPC :1.91792: L2-Pf-HR :0.96592: L2-HR :0.96118: (Sim:0h20m51s) 
CPU  0 inst:  120000004 cyc:   62494161 now IPC :1.97344: AVG IPC :1.91838: L2-Pf-HR :0.96595: L2-HR :0.96121: (Sim:0h21m8s) 
CPU  0 inst:  121000003 cyc:   63145567 now IPC :1.53514: AVG IPC :1.91436: L2-Pf-HR :0.96581: L2-HR :0.96097: (Sim:0h21m25s) 
CPU  0 inst:  122000001 cyc:   63641729 now IPC :2.01547: AVG IPC :1.91516: L2-Pf-HR :0.96579: L2-HR :0.96098: (Sim:0h21m41s) 
CPU  0 inst:  123000003 cyc:   64139806 now IPC :2.00773: AVG IPC :1.91589: L2-Pf-HR :0.96580: L2-HR :0.96102: (Sim:0h21m57s) 
CPU  0 inst:  124000004 cyc:   64630946 now IPC :2.03608: AVG IPC :1.91682: L2-Pf-HR :0.96582: L2-HR :0.96107: (Sim:0h22m13s) 
CPU  0 inst:  125000001 cyc:   65133435 now IPC :1.99009: AVG IPC :1.91740: L2-Pf-HR :0.96587: L2-HR :0.96113: (Sim:0h22m29s) 
CPU  0 inst:  126000002 cyc:   65630712 now IPC :2.01095: AVG IPC :1.91812: L2-Pf-HR :0.96595: L2-HR :0.96123: (Sim:0h22m45s) 
CPU  0 inst:  127000005 cyc:   66170652 now IPC :1.85206: AVG IPC :1.91757: L2-Pf-HR :0.96593: L2-HR :0.96119: (Sim:0h23m1s) 
CPU  0 inst:  128000001 cyc:   66671085 now IPC :1.99826: AVG IPC :1.91818: L2-Pf-HR :0.96595: L2-HR :0.96121: (Sim:0h23m17s) 
CPU  0 inst:  129000002 cyc:   67318078 now IPC :1.54561: AVG IPC :1.91455: L2-Pf-HR :0.96584: L2-HR :0.96100: (Sim:0h23m34s) 
CPU  0 inst:  130000003 cyc:   67820912 now IPC :1.98873: AVG IPC :1.91511: L2-Pf-HR :0.96578: L2-HR :0.96098: (Sim:0h23m50s) 
CPU  0 inst:  131000003 cyc:   68319152 now IPC :2.00706: AVG IPC :1.91579: L2-Pf-HR :0.96579: L2-HR :0.96101: (Sim:0h24m6s) 
CPU  0 inst:  132000003 cyc:   68812074 now IPC :2.02872: AVG IPC :1.91661: L2-Pf-HR :0.96581: L2-HR :0.96106: (Sim:0h24m23s) 
CPU  0 inst:  133000004 cyc:   69311355 now IPC :2.00288: AVG IPC :1.91724: L2-Pf-HR :0.96585: L2-HR :0.96112: (Sim:0h24m39s) 
CPU  0 inst:  134000000 cyc:   69815175 now IPC :1.98483: AVG IPC :1.91773: L2-Pf-HR :0.96594: L2-HR :0.96121: (Sim:0h24m55s) 
CPU  0 inst:  135000003 cyc:   70362430 now IPC :1.82731: AVG IPC :1.91702: L2-Pf-HR :0.96593: L2-HR :0.96118: (Sim:0h25m11s) 
CPU  0 inst:  136000004 cyc:   70871468 now IPC :1.96449: AVG IPC :1.91737: L2-Pf-HR :0.96595: L2-HR :0.96120: (Sim:0h25m27s) 
CPU  0 inst:  137000005 cyc:   71505091 now IPC :1.57823: AVG IPC :1.91432: L2-Pf-HR :0.96584: L2-HR :0.96101: (Sim:0h25m44s) 
CPU  0 inst:  138000001 cyc:   72008075 now IPC :1.98813: AVG IPC :1.91484: L2-Pf-HR :0.96579: L2-HR :0.96099: (Sim:0h26m0s) 
CPU  0 inst:  139000000 cyc:   72504281 now IPC :2.01529: AVG IPC :1.91554: L2-Pf-HR :0.96579: L2-HR :0.96102: (Sim:0h26m16s) 
CPU  0 inst:  140000002 cyc:   72997108 now IPC :2.02911: AVG IPC :1.91632: L2-Pf-HR :0.96583: L2-HR :0.96107: (Sim:0h26m32s) 
CPU  0 inst:  141000004 cyc:   73497677 now IPC :1.99773: AVG IPC :1.91688: L2-Pf-HR :0.96587: L2-HR :0.96113: (Sim:0h26m49s) 
CPU  0 inst:  142000000 cyc:   73988530 now IPC :2.03726: AVG IPC :1.91769: L2-Pf-HR :0.96594: L2-HR :0.96121: (Sim:0h27m4s) 
CPU  0 inst:  143000005 cyc:   74541063 now IPC :1.80986: AVG IPC :1.91688: L2-Pf-HR :0.96593: L2-HR :0.96119: (Sim:0h27m21s) 
CPU  0 inst:  144000000 cyc:   75045846 now IPC :1.98104: AVG IPC :1.91731: L2-Pf-HR :0.96593: L2-HR :0.96119: (Sim:0h27m37s) 
CPU  0 inst:  145000000 cyc:   75680282 now IPC :1.57620: AVG IPC :1.91442: L2-Pf-HR :0.96584: L2-HR :0.96102: (Sim:0h27m54s) 
CPU  0 inst:  146000001 cyc:   76199011 now IPC :1.92779: AVG IPC :1.91451: L2-Pf-HR :0.96580: L2-HR :0.96099: (Sim:0h28m11s) 
CPU  0 inst:  147000000 cyc:   76692191 now IPC :2.02766: AVG IPC :1.91525: L2-Pf-HR :0.96580: L2-HR :0.96102: (Sim:0h28m25s) 
CPU  0 inst:  148000005 cyc:   77193096 now IPC :1.99640: AVG IPC :1.91578: L2-Pf-HR :0.96581: L2-HR :0.96106: (Sim:0h28m41s) 
CPU  0 inst:  149000004 cyc:   77692271 now IPC :2.00330: AVG IPC :1.91635: L2-Pf-HR :0.96584: L2-HR :0.96111: (Sim:0h28m58s) 
CPU  0 inst:  150000003 cyc:   78182003 now IPC :2.04193: AVG IPC :1.91715: L2-Pf-HR :0.96591: L2-HR :0.96119: (Sim:0h29m14s) 
CPU  0 inst:  151000002 cyc:   78725848 now IPC :1.83876: AVG IPC :1.91660: L2-Pf-HR :0.96593: L2-HR :0.96118: (Sim:0h29m31s) 
CPU  0 inst:  152000001 cyc:   79233183 now IPC :1.97108: AVG IPC :1.91695: L2-Pf-HR :0.96592: L2-HR :0.96117: (Sim:0h29m48s) 
CPU  0 inst:  153000005 cyc:   79859516 now IPC :1.59660: AVG IPC :1.91441: L2-Pf-HR :0.96585: L2-HR :0.96104: (Sim:0h30m5s) 
CPU  0 inst:  154000001 cyc:   80385365 now IPC :1.90168: AVG IPC :1.91432: L2-Pf-HR :0.96579: L2-HR :0.96099: (Sim:0h30m22s) 
CPU  0 inst:  155000000 cyc:   80881301 now IPC :2.01639: AVG IPC :1.91496: L2-Pf-HR :0.96579: L2-HR :0.96102: (Sim:0h30m38s) 
CPU  0 inst:  156000005 cyc:   81381692 now IPC :1.99845: AVG IPC :1.91548: L2-Pf-HR :0.96581: L2-HR :0.96105: (Sim:0h30m55s) 
CPU  0 inst:  157000001 cyc:   81877369 now IPC :2.01743: AVG IPC :1.91610: L2-Pf-HR :0.96584: L2-HR :0.96110: (Sim:0h31m11s) 
CPU  0 inst:  158000000 cyc:   82368052 now IPC :2.03797: AVG IPC :1.91684: L2-Pf-HR :0.96592: L2-HR :0.96119: (Sim:0h31m27s) 
CPU  0 inst:  159000003 cyc:   82909967 now IPC :1.84531: AVG IPC :1.91636: L2-Pf-HR :0.96593: L2-HR :0.96118: (Sim:0h31m44s) 
CPU  0 inst:  160000005 cyc:   83420244 now IPC :1.95972: AVG IPC :1.91663: L2-Pf-HR :0.96592: L2-HR :0.96117: (Sim:0h32m1s) 
CPU  0 inst:  161000005 cyc:   84049285 now IPC :1.58972: AVG IPC :1.91416: L2-Pf-HR :0.96585: L2-HR :0.96104: (Sim:0h32m18s) 
CPU  0 inst:  162000001 cyc:   84570689 now IPC :1.91789: AVG IPC :1.91418: L2-Pf-HR :0.96580: L2-HR :0.96100: (Sim:0h32m35s) 
CPU  0 inst:  163000003 cyc:   85070298 now IPC :2.00157: AVG IPC :1.91470: L2-Pf-HR :0.96581: L2-HR :0.96103: (Sim:0h32m51s) 
CPU  0 inst:  164000004 cyc:   85571432 now IPC :1.99548: AVG IPC :1.91518: L2-Pf-HR :0.96583: L2-HR :0.96106: (Sim:0h33m8s) 
CPU  0 inst:  165000004 cyc:   86060451 now IPC :2.04491: AVG IPC :1.91592: L2-Pf-HR :0.96585: L2-HR :0.96111: (Sim:0h33m24s) 
CPU  0 inst:  166000002 cyc:   86548431 now IPC :2.04926: AVG IPC :1.91668: L2-Pf-HR :0.96591: L2-HR :0.96118: (Sim:0h33m41s) 
CPU  0 inst:  167000000 cyc:   87097364 now IPC :1.82171: AVG IPC :1.91608: L2-Pf-HR :0.96593: L2-HR :0.96118: (Sim:0h33m58s) 
CPU  0 inst:  168000002 cyc:   87599380 now IPC :1.99197: AVG IPC :1.91652: L2-Pf-HR :0.96591: L2-HR :0.96117: (Sim:0h34m14s) 
CPU  0 inst:  169000002 cyc:   88215474 now IPC :1.62313: AVG IPC :1.91445: L2-Pf-HR :0.96586: L2-HR :0.96106: (Sim:0h34m31s) 
CPU  0 inst:  170000003 cyc:   88742961 now IPC :1.89578: AVG IPC :1.91433: L2-Pf-HR :0.96580: L2-HR :0.96101: (Sim:0h34m48s) 
CPU  0 inst:  171000002 cyc:   89250099 now IPC :1.97185: AVG IPC :1.91466: L2-Pf-HR :0.96579: L2-HR :0.96102: (Sim:0h35m4s) 
CPU  0 inst:  172000002 cyc:   89749808 now IPC :2.00116: AVG IPC :1.91515: L2-Pf-HR :0.96580: L2-HR :0.96105: (Sim:0h35m21s) 
CPU  0 inst:  173000004 cyc:   90237155 now IPC :2.05193: AVG IPC :1.91590: L2-Pf-HR :0.96583: L2-HR :0.96110: (Sim:0h35m37s) 
CPU  0 inst:  174000002 cyc:   90729614 now IPC :2.03062: AVG IPC :1.91653: L2-Pf-HR :0.96589: L2-HR :0.96117: (Sim:0h35m54s) 
CPU  0 inst:  175000004 cyc:   91273644 now IPC :1.83814: AVG IPC :1.91605: L2-Pf-HR :0.96591: L2-HR :0.96117: (Sim:0h36m11s) 
CPU  0 inst:  176000005 cyc:   91780271 now IPC :1.97384: AVG IPC :1.91638: L2-Pf-HR :0.96590: L2-HR :0.96116: (Sim:0h36m27s) 
CPU  0 inst:  177000003 cyc:   92391198 now IPC :1.63685: AVG IPC :1.91451: L2-Pf-HR :0.96586: L2-HR :0.96108: (Sim:0h36m45s) 
CPU  0 inst:  178000001 cyc:   92921036 now IPC :1.88737: AVG IPC :1.91435: L2-Pf-HR :0.96579: L2-HR :0.96101: (Sim:0h37m2s) 
CPU  0 inst:  179000003 cyc:   93423164 now IPC :1.99153: AVG IPC :1.91477: L2-Pf-HR :0.96580: L2-HR :0.96103: (Sim:0h37m18s) 
CPU  0 inst:  180000005 cyc:   93924865 now IPC :1.99322: AVG IPC :1.91519: L2-Pf-HR :0.96582: L2-HR :0.96106: (Sim:0h37m35s) 
CPU  0 inst:  181000003 cyc:   94415722 now IPC :2.03725: AVG IPC :1.91584: L2-Pf-HR :0.96585: L2-HR :0.96112: (Sim:0h37m51s) 
CPU  0 inst:  182000003 cyc:   94903575 now IPC :2.04980: AVG IPC :1.91653: L2-Pf-HR :0.96590: L2-HR :0.96118: (Sim:0h38m7s) 
CPU  0 inst:  183000003 cyc:   95447799 now IPC :1.83748: AVG IPC :1.91608: L2-Pf-HR :0.96592: L2-HR :0.96119: (Sim:0h38m24s) 
CPU  0 inst:  184000003 cyc:   95953200 now IPC :1.97863: AVG IPC :1.91641: L2-Pf-HR :0.96590: L2-HR :0.96117: (Sim:0h38m41s) 
CPU  0 inst:  185000005 cyc:   96550343 now IPC :1.67464: AVG IPC :1.91490: L2-Pf-HR :0.96587: L2-HR :0.96109: (Sim:0h38m58s) 
CPU  0 inst:  186000001 cyc:   97092759 now IPC :1.84360: AVG IPC :1.91450: L2-Pf-HR :0.96581: L2-HR :0.96103: (Sim:0h39m14s) 
CPU  0 inst:  187000000 cyc:   97599738 now IPC :1.97247: AVG IPC :1.91480: L2-Pf-HR :0.96580: L2-HR :0.96104: (Sim:0h39m31s) 
CPU  0 inst:  188000002 cyc:   98093924 now IPC :2.02353: AVG IPC :1.91535: L2-Pf-HR :0.96581: L2-HR :0.96107: (Sim:0h39m47s) 
CPU  0 inst:  189000004 cyc:   98588017 now IPC :2.02391: AVG IPC :1.91590: L2-Pf-HR :0.96583: L2-HR :0.96110: (Sim:0h40m3s) 
CPU  0 inst:  190000000 cyc:   99077474 now IPC :2.04307: AVG IPC :1.91654: L2-Pf-HR :0.96588: L2-HR :0.96116: (Sim:0h40m19s) 
CPU  0 inst:  191000005 cyc:   99614247 now IPC :1.86299: AVG IPC :1.91625: L2-Pf-HR :0.96593: L2-HR :0.96120: (Sim:0h40m36s) 
CPU  0 inst:  192000001 cyc:  100126369 now IPC :1.95265: AVG IPC :1.91643: L2-Pf-HR :0.96590: L2-HR :0.96117: (Sim:0h40m52s) 
CPU  0 inst:  193000004 cyc:  100719573 now IPC :1.68577: AVG IPC :1.91506: L2-Pf-HR :0.96587: L2-HR :0.96110: (Sim:0h41m9s) 
CPU  0 inst:  194000004 cyc:  101268139 now IPC :1.82293: AVG IPC :1.91456: L2-Pf-HR :0.96580: L2-HR :0.96102: (Sim:0h41m25s) 
CPU  0 inst:  195000003 cyc:  101773393 now IPC :1.97920: AVG IPC :1.91488: L2-Pf-HR :0.96580: L2-HR :0.96104: (Sim:0h41m42s) 
CPU  0 inst:  196000002 cyc:  102264007 now IPC :2.03826: AVG IPC :1.91548: L2-Pf-HR :0.96581: L2-HR :0.96106: (Sim:0h41m58s) 
CPU  0 inst:  197000004 cyc:  102758277 now IPC :2.02319: AVG IPC :1.91600: L2-Pf-HR :0.96584: L2-HR :0.96111: (Sim:0h42m14s) 
CPU  0 inst:  198000000 cyc:  103250441 now IPC :2.03183: AVG IPC :1.91656: L2-Pf-HR :0.96588: L2-HR :0.96117: (Sim:0h42m30s) 
CPU  0 inst:  199000003 cyc:  103776945 now IPC :1.89933: AVG IPC :1.91647: L2-Pf-HR :0.96592: L2-HR :0.96120: (Sim:0h42m47s) 
CPU  0 inst:  200000001 cyc:  104288498 now IPC :1.95483: AVG IPC :1.91666: L2-Pf-HR :0.96589: L2-HR :0.96116: (Sim:0h43m3s) 
CPU  0 inst:  201000003 cyc:  104842773 now IPC :1.80416: AVG IPC :1.91606: L2-Pf-HR :0.96591: L2-HR :0.96115: (Sim:0h43m20s) 
CPU  0 inst:  202000001 cyc:  105430146 now IPC :1.70249: AVG IPC :1.91486: L2-Pf-HR :0.96580: L2-HR :0.96102: (Sim:0h43m37s) 
CPU  0 inst:  203000003 cyc:  105931769 now IPC :1.99353: AVG IPC :1.91524: L2-Pf-HR :0.96581: L2-HR :0.96104: (Sim:0h43m53s) 
CPU  0 inst:  204000005 cyc:  106423549 now IPC :2.03343: AVG IPC :1.91579: L2-Pf-HR :0.96582: L2-HR :0.96107: (Sim:0h44m9s) 
CPU  0 inst:  205000001 cyc:  106918005 now IPC :2.02242: AVG IPC :1.91629: L2-Pf-HR :0.96584: L2-HR :0.96111: (Sim:0h44m25s) 
CPU  0 inst:  206000000 cyc:  107408112 now IPC :2.04037: AVG IPC :1.91686: L2-Pf-HR :0.96588: L2-HR :0.96116: (Sim:0h44m42s) 
CPU  0 inst:  207000000 cyc:  107917287 now IPC :1.96396: AVG IPC :1.91708: L2-Pf-HR :0.96596: L2-HR :0.96124: (Sim:0h44m58s) 
CPU  0 inst:  208000000 cyc:  108452150 now IPC :1.86964: AVG IPC :1.91685: L2-Pf-HR :0.96589: L2-HR :0.96116: (Sim:0h45m14s) 
CPU  0 inst:  209000005 cyc:  108969551 now IPC :1.93275: AVG IPC :1.91692: L2-Pf-HR :0.96594: L2-HR :0.96120: (Sim:0h45m31s) 
CPU  0 inst:  210000002 cyc:  109609962 now IPC :1.56149: AVG IPC :1.91483: L2-Pf-HR :0.96580: L2-HR :0.96102: (Sim:0h45m48s) 
CPU  0 inst:  211000003 cyc:  110106776 now IPC :2.01283: AVG IPC :1.91527: L2-Pf-HR :0.96580: L2-HR :0.96104: (Sim:0h46m4s) 
CPU  0 inst:  212000001 cyc:  110607602 now IPC :1.99670: AVG IPC :1.91564: L2-Pf-HR :0.96581: L2-HR :0.96107: (Sim:0h46m21s) 
CPU  0 inst:  213000002 cyc:  111097973 now IPC :2.03927: AVG IPC :1.91620: L2-Pf-HR :0.96582: L2-HR :0.96110: (Sim:0h46m37s) 
CPU  0 inst:  214000000 cyc:  111587342 now IPC :2.04344: AVG IPC :1.91676: L2-Pf-HR :0.96588: L2-HR :0.96116: (Sim:0h46m53s) 
CPU  0 inst:  215000005 cyc:  112095076 now IPC :1.96955: AVG IPC :1.91700: L2-Pf-HR :0.96595: L2-HR :0.96124: (Sim:0h47m9s) 
CPU  0 inst:  216000000 cyc:  112644747 now IPC :1.81926: AVG IPC :1.91652: L2-Pf-HR :0.96589: L2-HR :0.96116: (Sim:0h47m26s) 
CPU  0 inst:  217000005 cyc:  113150531 now IPC :1.97714: AVG IPC :1.91679: L2-Pf-HR :0.96597: L2-HR :0.96124: (Sim:0h47m42s) 
CPU  0 inst:  218000005 cyc:  113792724 now IPC :1.55716: AVG IPC :1.91474: L2-Pf-HR :0.96581: L2-HR :0.96103: (Sim:0h47m59s) 
CPU  0 inst:  219000000 cyc:  114289385 now IPC :2.01344: AVG IPC :1.91518: L2-Pf-HR :0.96581: L2-HR :0.96105: (Sim:0h48m16s) 
CPU  0 inst:  220000005 cyc:  114788512 now IPC :2.00351: AVG IPC :1.91556: L2-Pf-HR :0.96583: L2-HR :0.96108: (Sim:0h48m32s) 
CPU  0 inst:  221000000 cyc:  115286591 now IPC :2.00770: AVG IPC :1.91597: L2-Pf-HR :0.96584: L2-HR :0.96111: (Sim:0h48m48s) 
CPU  0 inst:  222000003 cyc:  115777923 now IPC :2.03529: AVG IPC :1.91648: L2-Pf-HR :0.96589: L2-HR :0.96117: (Sim:0h49m4s) 
CPU  0 inst:  223000001 cyc:  116283883 now IPC :1.97644: AVG IPC :1.91674: L2-Pf-HR :0.96595: L2-HR :0.96124: (Sim:0h49m20s) 
CPU  0 inst:  224000002 cyc:  116834100 now IPC :1.81747: AVG IPC :1.91627: L2-Pf-HR :0.96589: L2-HR :0.96116: (Sim:0h49m37s) 
CPU  0 inst:  225000000 cyc:  117334300 now IPC :1.99920: AVG IPC :1.91662: L2-Pf-HR :0.96596: L2-HR :0.96123: (Sim:0h49m53s) 
CPU  0 inst:  226000000 cyc:  117983396 now IPC :1.54060: AVG IPC :1.91454: L2-Pf-HR :0.96582: L2-HR :0.96105: (Sim:0h50m10s) 
CPU  0 inst:  227000005 cyc:  118484714 now IPC :1.99475: AVG IPC :1.91488: L2-Pf-HR :0.96582: L2-HR :0.96106: (Sim:0h50m27s) 
CPU  0 inst:  228000005 cyc:  118987767 now IPC :1.98786: AVG IPC :1.91519: L2-Pf-HR :0.96583: L2-HR :0.96109: (Sim:0h50m43s) 
CPU  0 inst:  229000000 cyc:  119473309 now IPC :2.05954: AVG IPC :1.91578: L2-Pf-HR :0.96585: L2-HR :0.96112: (Sim:0h50m59s) 
CPU  0 inst:  230000000 cyc:  119975060 now IPC :1.99302: AVG IPC :1.91611: L2-Pf-HR :0.96588: L2-HR :0.96117: (Sim:0h51m15s) 
CPU  0 inst:  231000002 cyc:  120479414 now IPC :1.98274: AVG IPC :1.91639: L2-Pf-HR :0.96594: L2-HR :0.96123: (Sim:0h51m32s) 
CPU  0 inst:  232000002 cyc:  121022016 now IPC :1.84297: AVG IPC :1.91606: L2-Pf-HR :0.96590: L2-HR :0.96117: (Sim:0h51m48s) 
CPU  0 inst:  233000003 cyc:  121526932 now IPC :1.98053: AVG IPC :1.91633: L2-Pf-HR :0.96596: L2-HR :0.96123: (Sim:0h52m4s) 
CPU  0 inst:  234000001 cyc:  122168488 now IPC :1.55871: AVG IPC :1.91444: L2-Pf-HR :0.96582: L2-HR :0.96106: (Sim:0h52m21s) 
CPU  0 inst:  235000003 cyc:  122672568 now IPC :1.98382: AVG IPC :1.91472: L2-Pf-HR :0.96581: L2-HR :0.96106: (Sim:0h52m38s) 
CPU  0 inst:  236000002 cyc:  123165679 now IPC :2.02794: AVG IPC :1.91518: L2-Pf-HR :0.96582: L2-HR :0.96108: (Sim:0h52m54s) 
CPU  0 inst:  237000000 cyc:  123654108 now IPC :2.04738: AVG IPC :1.91571: L2-Pf-HR :0.96584: L2-HR :0.96112: (Sim:0h53m10s) 
CPU  0 inst:  238000000 cyc:  124155227 now IPC :1.99553: AVG IPC :1.91603: L2-Pf-HR :0.96588: L2-HR :0.96117: (Sim:0h53m26s) 
CPU  0 inst:  239000000 cyc:  124648742 now IPC :2.02628: AVG IPC :1.91647: L2-Pf-HR :0.96593: L2-HR :0.96122: (Sim:0h53m42s) 
CPU  0 inst:  240000002 cyc:  125197325 now IPC :1.82288: AVG IPC :1.91606: L2-Pf-HR :0.96589: L2-HR :0.96117: (Sim:0h53m59s) 
CPU  0 inst:  241000004 cyc:  125700875 now IPC :1.98590: AVG IPC :1.91634: L2-Pf-HR :0.96595: L2-HR :0.96123: (Sim:0h54m15s) 
CPU  0 inst:  242000004 cyc:  126350508 now IPC :1.53933: AVG IPC :1.91439: L2-Pf-HR :0.96582: L2-HR :0.96106: (Sim:0h54m33s) 
CPU  0 inst:  243000003 cyc:  126851595 now IPC :1.99566: AVG IPC :1.91471: L2-Pf-HR :0.96583: L2-HR :0.96108: (Sim:0h54m49s) 
CPU  0 inst:  244000002 cyc:  127347777 now IPC :2.01539: AVG IPC :1.91510: L2-Pf-HR :0.96583: L2-HR :0.96109: (Sim:0h55m5s) 
CPU  0 inst:  245000001 cyc:  127841821 now IPC :2.02411: AVG IPC :1.91553: L2-Pf-HR :0.96585: L2-HR :0.96112: (Sim:0h55m13s) 
CPU  0 inst:  246000000 cyc:  128337043 now IPC :2.01929: AVG IPC :1.91593: L2-Pf-HR :0.96588: L2-HR :0.96117: (Sim:0h55m25s) 
CPU  0 inst:  247000005 cyc:  128829594 now IPC :2.03026: AVG IPC :1.91637: L2-Pf-HR :0.96593: L2-HR :0.96122: (Sim:0h55m42s) 
CPU  0 inst:  248000001 cyc:  129377588 now IPC :1.82483: AVG IPC :1.91598: L2-Pf-HR :0.96590: L2-HR :0.96117: (Sim:0h55m59s) 
CPU  0 inst:  249000005 cyc:  129879432 now IPC :1.99266: AVG IPC :1.91628: L2-Pf-HR :0.96595: L2-HR :0.96122: (Sim:0h56m15s) 
CPU  0 inst:  250000004 cyc:  130520904 now IPC :1.55891: AVG IPC :1.91451: L2-Pf-HR :0.96584: L2-HR :0.96107: (Sim:0h56m32s) 
CPU  0 inst:  251000003 cyc:  131023997 now IPC :1.98770: AVG IPC :1.91479: L2-Pf-HR :0.96582: L2-HR :0.96108: (Sim:0h56m49s) 
CPU  0 inst:  252000000 cyc:  131513351 now IPC :2.04350: AVG IPC :1.91528: L2-Pf-HR :0.96583: L2-HR :0.96110: (Sim:0h57m6s) 
CPU  0 inst:  253000001 cyc:  132011402 now IPC :2.00783: AVG IPC :1.91563: L2-Pf-HR :0.96584: L2-HR :0.96112: (Sim:0h57m22s) 
CPU  0 inst:  254000003 cyc:  132512867 now IPC :1.99416: AVG IPC :1.91593: L2-Pf-HR :0.96588: L2-HR :0.96117: (Sim:0h57m39s) 
CPU  0 inst:  255000000 cyc:  133001920 now IPC :2.04476: AVG IPC :1.91641: L2-Pf-HR :0.96594: L2-HR :0.96123: (Sim:0h57m55s) 
CPU  0 inst:  256000003 cyc:  133557686 now IPC :1.79932: AVG IPC :1.91591: L2-Pf-HR :0.96590: L2-HR :0.96118: (Sim:0h58m12s) 
CPU  0 inst:  257000002 cyc:  134062083 now IPC :1.98256: AVG IPC :1.91617: L2-Pf-HR :0.96595: L2-HR :0.96122: (Sim:0h58m28s) 
CPU  0 inst:  258000003 cyc:  138123111 now IPC :0.24624: AVG IPC :1.86672: L2-Pf-HR :0.96459: L2-HR :0.95811: (Sim:0h59m11s) 
CPU  0 inst:  259000005 cyc:  143538942 now IPC :0.18464: AVG IPC :1.80281: L2-Pf-HR :0.96287: L2-HR :0.95427: (Sim:0h59m48s) 
CPU  0 inst:  260000004 cyc:  148956248 now IPC :0.18459: AVG IPC :1.74357: L2-Pf-HR :0.96116: L2-HR :0.95049: (Sim:1h0m14s) 
CPU  0 inst:  261000000 cyc:  154380061 now IPC :0.18437: AVG IPC :1.68844: L2-Pf-HR :0.95945: L2-HR :0.94678: (Sim:1h0m40s) 
CPU  0 inst:  262000001 cyc:  159712451 now IPC :0.18753: AVG IPC :1.63802: L2-Pf-HR :0.95779: L2-HR :0.94320: (Sim:1h1m5s) 
CPU  0 inst:  263000003 cyc:  163304988 now IPC :0.27836: AVG IPC :1.60792: L2-Pf-HR :0.95742: L2-HR :0.94275: (Sim:1h1m21s) 
CPU  0 inst:  264000001 cyc:  166886720 now IPC :0.27919: AVG IPC :1.57924: L2-Pf-HR :0.95706: L2-HR :0.94230: (Sim:1h1m37s) 
CPU  0 inst:  265000003 cyc:  170469751 now IPC :0.27909: AVG IPC :1.55175: L2-Pf-HR :0.95670: L2-HR :0.94186: (Sim:1h1m52s) 
CPU  0 inst:  266000003 cyc:  174051429 now IPC :0.27920: AVG IPC :1.52542: L2-Pf-HR :0.95635: L2-HR :0.94142: (Sim:1h2m8s) 
CPU  0 inst:  267000002 cyc:  177631682 now IPC :0.27931: AVG IPC :1.50016: L2-Pf-HR :0.95600: L2-HR :0.94099: (Sim:1h2m24s) 
CPU  0 inst:  268000002 cyc:  181211929 now IPC :0.27931: AVG IPC :1.47591: L2-Pf-HR :0.95565: L2-HR :0.94056: (Sim:1h2m40s) 
CPU  0 inst:  269000001 cyc:  184793728 now IPC :0.27919: AVG IPC :1.45259: L2-Pf-HR :0.95530: L2-HR :0.94013: (Sim:1h2m56s) 
CPU  0 inst:  270000000 cyc:  188373874 now IPC :0.27932: AVG IPC :1.43017: L2-Pf-HR :0.95496: L2-HR :0.93971: (Sim:1h3m11s) 
CPU  0 inst:  271000001 cyc:  191954605 now IPC :0.27927: AVG IPC :1.40859: L2-Pf-HR :0.95461: L2-HR :0.93928: (Sim:1h3m27s) 
CPU  0 inst:  272000000 cyc:  195534508 now IPC :0.27934: AVG IPC :1.38781: L2-Pf-HR :0.95427: L2-HR :0.93886: (Sim:1h3m42s) 
CPU  0 inst:  273000003 cyc:  199114016 now IPC :0.27937: AVG IPC :1.36779: L2-Pf-HR :0.95393: L2-HR :0.93844: (Sim:1h3m58s) 
CPU  0 inst:  274000003 cyc:  202695716 now IPC :0.27920: AVG IPC :1.34846: L2-Pf-HR :0.95359: L2-HR :0.93803: (Sim:1h4m14s) 
CPU  0 inst:  275000002 cyc:  206277228 now IPC :0.27921: AVG IPC :1.32980: L2-Pf-HR :0.95326: L2-HR :0.93761: (Sim:1h4m30s) 
CPU  0 inst:  276000002 cyc:  209857491 now IPC :0.27931: AVG IPC :1.31180: L2-Pf-HR :0.95292: L2-HR :0.93720: (Sim:1h4m46s) 
CPU  0 inst:  277000001 cyc:  213438875 now IPC :0.27922: AVG IPC :1.29439: L2-Pf-HR :0.95259: L2-HR :0.93679: (Sim:1h5m2s) 
CPU  0 inst:  278000000 cyc:  217020409 now IPC :0.27921: AVG IPC :1.27756: L2-Pf-HR :0.95226: L2-HR :0.93639: (Sim:1h5m17s) 
CPU  0 inst:  279000000 cyc:  220601142 now IPC :0.27927: AVG IPC :1.26129: L2-Pf-HR :0.95193: L2-HR :0.93598: (Sim:1h5m33s) 
CPU  0 inst:  280000003 cyc:  224182906 now IPC :0.27919: AVG IPC :1.24553: L2-Pf-HR :0.95161: L2-HR :0.93558: (Sim:1h5m49s) 
CPU  0 inst:  281000003 cyc:  227762733 now IPC :0.27934: AVG IPC :1.23027: L2-Pf-HR :0.95128: L2-HR :0.93518: (Sim:1h6m5s) 
CPU  0 inst:  282000001 cyc:  231342485 now IPC :0.27935: AVG IPC :1.21550: L2-Pf-HR :0.95096: L2-HR :0.93478: (Sim:1h6m20s) 
CPU  0 inst:  283000002 cyc:  234923035 now IPC :0.27929: AVG IPC :1.20117: L2-Pf-HR :0.95064: L2-HR :0.93439: (Sim:1h6m36s) 
CPU  0 inst:  284000002 cyc:  238503940 now IPC :0.27926: AVG IPC :1.18727: L2-Pf-HR :0.95032: L2-HR :0.93399: (Sim:1h6m52s) 
CPU  0 inst:  285000001 cyc:  242084413 now IPC :0.27929: AVG IPC :1.17378: L2-Pf-HR :0.95000: L2-HR :0.93360: (Sim:1h7m8s) 
CPU  0 inst:  286000000 cyc:  245665316 now IPC :0.27926: AVG IPC :1.16069: L2-Pf-HR :0.94968: L2-HR :0.93321: (Sim:1h7m23s) 
CPU  0 inst:  287000000 cyc:  249246675 now IPC :0.27922: AVG IPC :1.14798: L2-Pf-HR :0.94937: L2-HR :0.93282: (Sim:1h7m39s) 
CPU  0 inst:  288000000 cyc:  252826967 now IPC :0.27931: AVG IPC :1.13563: L2-Pf-HR :0.94905: L2-HR :0.93244: (Sim:1h7m55s) 
CPU  0 inst:  289000001 cyc:  256408536 now IPC :0.27921: AVG IPC :1.12362: L2-Pf-HR :0.94874: L2-HR :0.93205: (Sim:1h8m11s) 
CPU  0 inst:  290000003 cyc:  259989817 now IPC :0.27923: AVG IPC :1.11194: L2-Pf-HR :0.94843: L2-HR :0.93167: (Sim:1h8m26s) 
CPU  0 inst:  291000003 cyc:  263569425 now IPC :0.27936: AVG IPC :1.10059: L2-Pf-HR :0.94812: L2-HR :0.93129: (Sim:1h8m42s) 
CPU  0 inst:  292000002 cyc:  267149507 now IPC :0.27932: AVG IPC :1.08955: L2-Pf-HR :0.94781: L2-HR :0.93091: (Sim:1h8m57s) 
CPU  0 inst:  293000001 cyc:  270730387 now IPC :0.27926: AVG IPC :1.07879: L2-Pf-HR :0.94751: L2-HR :0.93054: (Sim:1h9m13s) 
CPU  0 inst:  294000000 cyc:  274310552 now IPC :0.27932: AVG IPC :1.06832: L2-Pf-HR :0.94720: L2-HR :0.93016: (Sim:1h9m29s) 
CPU  0 inst:  295000000 cyc:  277891181 now IPC :0.27928: AVG IPC :1.05812: L2-Pf-HR :0.94690: L2-HR :0.92979: (Sim:1h9m44s) 
CPU  0 inst:  296000000 cyc:  281472160 now IPC :0.27925: AVG IPC :1.04817: L2-Pf-HR :0.94660: L2-HR :0.92942: (Sim:1h10m0s) 
CPU  0 inst:  297000001 cyc:  285052685 now IPC :0.27929: AVG IPC :1.03848: L2-Pf-HR :0.94630: L2-HR :0.92905: (Sim:1h10m16s) 
CPU  0 inst:  298000003 cyc:  288634115 now IPC :0.27922: AVG IPC :1.02903: L2-Pf-HR :0.94600: L2-HR :0.92869: (Sim:1h10m32s) 
CPU  0 inst:  299000003 cyc:  292214590 now IPC :0.27929: AVG IPC :1.01981: L2-Pf-HR :0.94570: L2-HR :0.92832: (Sim:1h10m47s) 
CPU  0 inst:  300000003 cyc:  295795530 now IPC :0.27926: AVG IPC :1.01082: L2-Pf-HR :0.94541: L2-HR :0.92796: (Sim:1h11m3s) 
CPU  0 inst:  301000002 cyc:  299375168 now IPC :0.27936: AVG IPC :1.00204: L2-Pf-HR :0.94512: L2-HR :0.92760: (Sim:1h11m19s) 
CPU  0 inst:  302000000 cyc:  302955746 now IPC :0.27928: AVG IPC :0.99347: L2-Pf-HR :0.94482: L2-HR :0.92724: (Sim:1h11m35s) 
CPU  0 inst:  303000000 cyc:  306535148 now IPC :0.27938: AVG IPC :0.98510: L2-Pf-HR :0.94453: L2-HR :0.92689: (Sim:1h11m51s) 
CPU  0 inst:  304000000 cyc:  310116484 now IPC :0.27923: AVG IPC :0.97693: L2-Pf-HR :0.94424: L2-HR :0.92653: (Sim:1h12m7s) 
CPU  0 inst:  305000001 cyc:  313698064 now IPC :0.27921: AVG IPC :0.96894: L2-Pf-HR :0.94395: L2-HR :0.92618: (Sim:1h12m22s) 
CPU  0 inst:  306000003 cyc:  317277730 now IPC :0.27936: AVG IPC :0.96113: L2-Pf-HR :0.94367: L2-HR :0.92583: (Sim:1h12m38s) 
CPU  0 inst:  307000003 cyc:  320859110 now IPC :0.27922: AVG IPC :0.95350: L2-Pf-HR :0.94338: L2-HR :0.92548: (Sim:1h12m53s) 
CPU  0 inst:  308000002 cyc:  324439618 now IPC :0.27929: AVG IPC :0.94603: L2-Pf-HR :0.94310: L2-HR :0.92513: (Sim:1h13m9s) 
CPU  0 inst:  309000002 cyc:  328020735 now IPC :0.27924: AVG IPC :0.93873: L2-Pf-HR :0.94281: L2-HR :0.92478: (Sim:1h13m25s) 
CPU  0 inst:  310000003 cyc:  331600994 now IPC :0.27931: AVG IPC :0.93159: L2-Pf-HR :0.94253: L2-HR :0.92444: (Sim:1h13m40s) 
CPU  0 inst:  311000002 cyc:  335180532 now IPC :0.27937: AVG IPC :0.92461: L2-Pf-HR :0.94225: L2-HR :0.92410: (Sim:1h13m56s) 
CPU  0 inst:  312000003 cyc:  338760416 now IPC :0.27934: AVG IPC :0.91777: L2-Pf-HR :0.94197: L2-HR :0.92375: (Sim:1h14m11s) 
CPU  0 inst:  313000001 cyc:  342340653 now IPC :0.27931: AVG IPC :0.91107: L2-Pf-HR :0.94170: L2-HR :0.92342: (Sim:1h14m27s) 
CPU  0 inst:  314000003 cyc:  345921602 now IPC :0.27926: AVG IPC :0.90451: L2-Pf-HR :0.94142: L2-HR :0.92308: (Sim:1h14m43s) 
CPU  0 inst:  315000003 cyc:  349501285 now IPC :0.27935: AVG IPC :0.89809: L2-Pf-HR :0.94115: L2-HR :0.92274: (Sim:1h14m59s) 
CPU  0 inst:  316000000 cyc:  353082986 now IPC :0.27920: AVG IPC :0.89179: L2-Pf-HR :0.94087: L2-HR :0.92241: (Sim:1h15m15s) 
CPU  0 inst:  317000002 cyc:  356664934 now IPC :0.27918: AVG IPC :0.88563: L2-Pf-HR :0.94060: L2-HR :0.92208: (Sim:1h15m31s) 
CPU  0 inst:  318000001 cyc:  360245960 now IPC :0.27925: AVG IPC :0.87958: L2-Pf-HR :0.94033: L2-HR :0.92174: (Sim:1h15m46s) 
CPU  0 inst:  319000000 cyc:  363826950 now IPC :0.27925: AVG IPC :0.87366: L2-Pf-HR :0.94006: L2-HR :0.92142: (Sim:1h16m2s) 
CPU  0 inst:  320000003 cyc:  367406821 now IPC :0.27934: AVG IPC :0.86785: L2-Pf-HR :0.93979: L2-HR :0.92109: (Sim:1h16m17s) 
CPU  0 inst:  321000000 cyc:  370985938 now IPC :0.27940: AVG IPC :0.86216: L2-Pf-HR :0.93953: L2-HR :0.92076: (Sim:1h16m33s) 
CPU  0 inst:  322000001 cyc:  374566594 now IPC :0.27928: AVG IPC :0.85657: L2-Pf-HR :0.93926: L2-HR :0.92044: (Sim:1h16m49s) 
CPU  0 inst:  323000003 cyc:  378147231 now IPC :0.27928: AVG IPC :0.85109: L2-Pf-HR :0.93900: L2-HR :0.92011: (Sim:1h17m4s) 
CPU  0 inst:  324000002 cyc:  381727262 now IPC :0.27933: AVG IPC :0.84571: L2-Pf-HR :0.93873: L2-HR :0.91979: (Sim:1h17m20s) 
CPU  0 inst:  325000002 cyc:  385308244 now IPC :0.27925: AVG IPC :0.84044: L2-Pf-HR :0.93847: L2-HR :0.91947: (Sim:1h17m35s) 
CPU  0 inst:  326000001 cyc:  388889767 now IPC :0.27921: AVG IPC :0.83525: L2-Pf-HR :0.93821: L2-HR :0.91915: (Sim:1h17m51s) 
CPU  0 inst:  327000005 cyc:  390718114 now IPC :0.54694: AVG IPC :0.83390: L2-Pf-HR :0.93787: L2-HR :0.91871: (Sim:1h18m20s) 
CPU  0 inst:  328000004 cyc:  391212755 now IPC :2.02167: AVG IPC :0.83541: L2-Pf-HR :0.93801: L2-HR :0.91887: (Sim:1h18m29s) 
CPU  0 inst:  329000000 cyc:  391796376 now IPC :1.71343: AVG IPC :0.83672: L2-Pf-HR :0.93811: L2-HR :0.91903: (Sim:1h18m37s) 
CPU  0 inst:  330000002 cyc:  392350928 now IPC :1.80326: AVG IPC :0.83809: L2-Pf-HR :0.93803: L2-HR :0.91900: (Sim:1h18m46s) 
CPU  0 inst:  331000004 cyc:  392814187 now IPC :2.15862: AVG IPC :0.83965: L2-Pf-HR :0.93817: L2-HR :0.91918: (Sim:1h18m55s) 
CPU  0 inst:  332000003 cyc:  393309654 now IPC :2.01830: AVG IPC :0.84114: L2-Pf-HR :0.93829: L2-HR :0.91935: (Sim:1h19m3s) 
CPU  0 inst:  333000000 cyc:  393812353 now IPC :1.98926: AVG IPC :0.84261: L2-Pf-HR :0.93826: L2-HR :0.91935: (Sim:1h19m12s) 
CPU  0 inst:  334000002 cyc:  394272234 now IPC :2.17448: AVG IPC :0.84416: L2-Pf-HR :0.93843: L2-HR :0.91956: (Sim:1h19m20s) 
CPU  0 inst:  335000005 cyc:  395000910 now IPC :1.37236: AVG IPC :0.84514: L2-Pf-HR :0.93831: L2-HR :0.91948: (Sim:1h19m30s) 
CPU  0 inst:  336000000 cyc:  395499712 now IPC :2.00479: AVG IPC :0.84661: L2-Pf-HR :0.93841: L2-HR :0.91962: (Sim:1h19m39s) 
CPU  0 inst:  337000002 cyc:  395976770 now IPC :2.09619: AVG IPC :0.84812: L2-Pf-HR :0.93858: L2-HR :0.91983: (Sim:1h19m47s) 
CPU  0 inst:  338000000 cyc:  396577171 now IPC :1.66555: AVG IPC :0.84936: L2-Pf-HR :0.93846: L2-HR :0.91978: (Sim:1h19m55s) 
CPU  0 inst:  339000003 cyc:  397039416 now IPC :2.16336: AVG IPC :0.85089: L2-Pf-HR :0.93859: L2-HR :0.91994: (Sim:1h20m4s) 
CPU  0 inst:  340000004 cyc:  397492156 now IPC :2.20878: AVG IPC :0.85244: L2-Pf-HR :0.93874: L2-HR :0.92013: (Sim:1h20m11s) 
CPU  0 inst:  341000002 cyc:  397978830 now IPC :2.05476: AVG IPC :0.85392: L2-Pf-HR :0.93887: L2-HR :0.92031: (Sim:1h20m19s) 
CPU  0 inst:  342000003 cyc:  398476141 now IPC :2.01082: AVG IPC :0.85536: L2-Pf-HR :0.93884: L2-HR :0.92031: (Sim:1h20m28s) 
CPU  0 inst:  343000005 cyc:  398947637 now IPC :2.12091: AVG IPC :0.85686: L2-Pf-HR :0.93899: L2-HR :0.92050: (Sim:1h20m36s) 
CPU  0 inst:  344000001 cyc:  399592673 now IPC :1.55029: AVG IPC :0.85798: L2-Pf-HR :0.93888: L2-HR :0.92041: (Sim:1h20m45s) 
CPU  0 inst:  345000001 cyc:  400060803 now IPC :2.13616: AVG IPC :0.85948: L2-Pf-HR :0.93900: L2-HR :0.92057: (Sim:1h20m53s) 
CPU  0 inst:  346000004 cyc:  400597766 now IPC :1.86233: AVG IPC :0.86083: L2-Pf-HR :0.93911: L2-HR :0.92071: (Sim:1h21m1s) 
CPU  0 inst:  347000000 cyc:  401141748 now IPC :1.83829: AVG IPC :0.86216: L2-Pf-HR :0.93904: L2-HR :0.92069: (Sim:1h21m10s) 
CPU  0 inst:  348000004 cyc:  401598780 now IPC :2.18804: AVG IPC :0.86367: L2-Pf-HR :0.93919: L2-HR :0.92088: (Sim:1h21m20s) 
CPU  0 inst:  349000004 cyc:  402085980 now IPC :2.05255: AVG IPC :0.86512: L2-Pf-HR :0.93933: L2-HR :0.92106: (Sim:1h21m37s) 
CPU  0 inst:  350000000 cyc:  402574208 now IPC :2.04822: AVG IPC :0.86655: L2-Pf-HR :0.93934: L2-HR :0.92110: (Sim:1h21m55s) 
CPU  0 inst:  351000001 cyc:  403033762 now IPC :2.17602: AVG IPC :0.86805: L2-Pf-HR :0.93952: L2-HR :0.92132: (Sim:1h22m11s) 
CPU  0 inst:  352000002 cyc:  403675812 now IPC :1.55751: AVG IPC :0.86915: L2-Pf-HR :0.93942: L2-HR :0.92123: (Sim:1h22m31s) 
CPU  0 inst:  353000005 cyc:  404165505 now IPC :2.04210: AVG IPC :0.87058: L2-Pf-HR :0.93951: L2-HR :0.92135: (Sim:1h22m49s) 
CPU  0 inst:  354000002 cyc:  404641399 now IPC :2.10130: AVG IPC :0.87203: L2-Pf-HR :0.93967: L2-HR :0.92155: (Sim:1h23m6s) 
CPU  0 inst:  355000001 cyc:  405243572 now IPC :1.66065: AVG IPC :0.87320: L2-Pf-HR :0.93956: L2-HR :0.92148: (Sim:1h23m25s) 
CPU  0 inst:  356000005 cyc:  405706768 now IPC :2.15892: AVG IPC :0.87467: L2-Pf-HR :0.93969: L2-HR :0.92163: (Sim:1h23m43s) 
CPU  0 inst:  357000002 cyc:  406159546 now IPC :2.20858: AVG IPC :0.87616: L2-Pf-HR :0.93986: L2-HR :0.92184: (Sim:1h24m0s) 
CPU  0 inst:  358000003 cyc:  406659663 now IPC :1.99953: AVG IPC :0.87755: L2-Pf-HR :0.93994: L2-HR :0.92197: (Sim:1h24m17s) 
CPU  0 inst:  359000000 cyc:  407147511 now IPC :2.04981: AVG IPC :0.87896: L2-Pf-HR :0.93999: L2-HR :0.92204: (Sim:1h24m35s) 
CPU  0 inst:  360000000 cyc:  407619241 now IPC :2.11986: AVG IPC :0.88040: L2-Pf-HR :0.94013: L2-HR :0.92222: (Sim:1h24m52s) 
CPU  0 inst:  361000004 cyc:  408263528 now IPC :1.55211: AVG IPC :0.88146: L2-Pf-HR :0.94000: L2-HR :0.92212: (Sim:1h25m11s) 
CPU  0 inst:  362000001 cyc:  408733840 now IPC :2.12624: AVG IPC :0.88289: L2-Pf-HR :0.94012: L2-HR :0.92226: (Sim:1h25m28s) 
CPU  0 inst:  363000002 cyc:  409269313 now IPC :1.86751: AVG IPC :0.88419: L2-Pf-HR :0.94020: L2-HR :0.92239: (Sim:1h25m46s) 
CPU  0 inst:  364000004 cyc:  409814971 now IPC :1.83265: AVG IPC :0.88545: L2-Pf-HR :0.94015: L2-HR :0.92236: (Sim:1h26m5s) 
CPU  0 inst:  365000000 cyc:  410271022 now IPC :2.19273: AVG IPC :0.88691: L2-Pf-HR :0.94028: L2-HR :0.92253: (Sim:1h26m22s) 
CPU  0 inst:  366000003 cyc:  410757396 now IPC :2.05604: AVG IPC :0.88830: L2-Pf-HR :0.94039: L2-HR :0.92268: (Sim:1h26m39s) 
CPU  0 inst:  367000005 cyc:  411243741 now IPC :2.05616: AVG IPC :0.88968: L2-Pf-HR :0.94039: L2-HR :0.92271: (Sim:1h26m57s) 
CPU  0 inst:  368000003 cyc:  411713651 now IPC :2.12806: AVG IPC :0.89110: L2-Pf-HR :0.94056: L2-HR :0.92291: (Sim:1h27m14s) 
CPU  0 inst:  369000000 cyc:  412364261 now IPC :1.53701: AVG IPC :0.89212: L2-Pf-HR :0.94043: L2-HR :0.92279: (Sim:1h27m33s) 
CPU  0 inst:  370000002 cyc:  412847809 now IPC :2.06805: AVG IPC :0.89350: L2-Pf-HR :0.94052: L2-HR :0.92292: (Sim:1h27m51s) 
CPU  0 inst:  371000004 cyc:  413368718 now IPC :1.91972: AVG IPC :0.89480: L2-Pf-HR :0.94062: L2-HR :0.92305: (Sim:1h28m8s) 
CPU  0 inst:  372000005 cyc:  413923352 now IPC :1.80299: AVG IPC :0.89602: L2-Pf-HR :0.94056: L2-HR :0.92301: (Sim:1h28m27s) 
CPU  0 inst:  373000001 cyc:  414382774 now IPC :2.17664: AVG IPC :0.89744: L2-Pf-HR :0.94066: L2-HR :0.92314: (Sim:1h28m44s) 
CPU  0 inst:  374000000 cyc:  414844128 now IPC :2.16753: AVG IPC :0.89885: L2-Pf-HR :0.94081: L2-HR :0.92333: (Sim:1h29m1s) 
CPU  0 inst:  375000001 cyc:  415350549 now IPC :1.97464: AVG IPC :0.90017: L2-Pf-HR :0.94077: L2-HR :0.92332: (Sim:1h29m19s) 
CPU  0 inst:  376000003 cyc:  415810560 now IPC :2.17387: AVG IPC :0.90158: L2-Pf-HR :0.94090: L2-HR :0.92347: (Sim:1h29m36s) 
CPU  0 inst:  377000003 cyc:  416281795 now IPC :2.12208: AVG IPC :0.90297: L2-Pf-HR :0.94102: L2-HR :0.92363: (Sim:1h29m53s) 
CPU  0 inst:  378000003 cyc:  416945015 now IPC :1.50780: AVG IPC :0.90393: L2-Pf-HR :0.94088: L2-HR :0.92350: (Sim:1h30m13s) 
CPU  0 inst:  379000001 cyc:  417404620 now IPC :2.17578: AVG IPC :0.90533: L2-Pf-HR :0.94100: L2-HR :0.92364: (Sim:1h30m30s) 
CPU  0 inst:  380000003 cyc:  417930919 now IPC :1.90006: AVG IPC :0.90659: L2-Pf-HR :0.94109: L2-HR :0.92377: (Sim:1h30m47s) 
CPU  0 inst:  381000003 cyc:  418473242 now IPC :1.84392: AVG IPC :0.90781: L2-Pf-HR :0.94104: L2-HR :0.92373: (Sim:1h31m6s) 
CPU  0 inst:  382000004 cyc:  418930582 now IPC :2.18656: AVG IPC :0.90921: L2-Pf-HR :0.94116: L2-HR :0.92389: (Sim:1h31m23s) 
CPU  0 inst:  383000003 cyc:  419418801 now IPC :2.04826: AVG IPC :0.91054: L2-Pf-HR :0.94126: L2-HR :0.92402: (Sim:1h31m40s) 
CPU  0 inst:  384000005 cyc:  419912184 now IPC :2.02683: AVG IPC :0.91185: L2-Pf-HR :0.94125: L2-HR :0.92403: (Sim:1h31m58s) 
CPU  0 inst:  385000002 cyc:  420386914 now IPC :2.10645: AVG IPC :0.91320: L2-Pf-HR :0.94138: L2-HR :0.92419: (Sim:1h32m15s) 
CPU  0 inst:  386000001 cyc:  421015664 now IPC :1.59046: AVG IPC :0.91422: L2-Pf-HR :0.94127: L2-HR :0.92410: (Sim:1h32m33s) 
CPU  0 inst:  387000005 cyc:  421486534 now IPC :2.12374: AVG IPC :0.91557: L2-Pf-HR :0.94137: L2-HR :0.92422: (Sim:1h32m51s) 
CPU  0 inst:  388000000 cyc:  422013225 now IPC :1.89864: AVG IPC :0.91680: L2-Pf-HR :0.94145: L2-HR :0.92434: (Sim:1h33m8s) 
CPU  0 inst:  389000004 cyc:  422548736 now IPC :1.86738: AVG IPC :0.91801: L2-Pf-HR :0.94140: L2-HR :0.92433: (Sim:1h33m26s) 
CPU  0 inst:  390000004 cyc:  423005740 now IPC :2.18816: AVG IPC :0.91938: L2-Pf-HR :0.94151: L2-HR :0.92446: (Sim:1h33m44s) 
CPU  0 inst:  391000003 cyc:  423473180 now IPC :2.13931: AVG IPC :0.92073: L2-Pf-HR :0.94167: L2-HR :0.92465: (Sim:1h34m0s) 
CPU  0 inst:  392000001 cyc:  423987136 now IPC :1.94569: AVG IPC :0.92198: L2-Pf-HR :0.94161: L2-HR :0.92462: (Sim:1h34m18s) 
CPU  0 inst:  393000003 cyc:  424447897 now IPC :2.17033: AVG IPC :0.92334: L2-Pf-HR :0.94174: L2-HR :0.92477: (Sim:1h34m36s) 
CPU  0 inst:  394000000 cyc:  424961803 now IPC :1.94588: AVG IPC :0.92458: L2-Pf-HR :0.94181: L2-HR :0.92487: (Sim:1h34m52s) 
CPU  0 inst:  395000000 cyc:  425573693 now IPC :1.63428: AVG IPC :0.92560: L2-Pf-HR :0.94175: L2-HR :0.92480: (Sim:1h35m13s) 
CPU  0 inst:  396000000 cyc:  426034676 now IPC :2.16928: AVG IPC :0.92695: L2-Pf-HR :0.94186: L2-HR :0.92494: (Sim:1h35m30s) 
CPU  0 inst:  397000003 cyc:  426562385 now IPC :1.89499: AVG IPC :0.92815: L2-Pf-HR :0.94193: L2-HR :0.92505: (Sim:1h35m47s) 
CPU  0 inst:  398000002 cyc:  427108992 now IPC :1.82947: AVG IPC :0.92930: L2-Pf-HR :0.94185: L2-HR :0.92500: (Sim:1h36m6s) 
CPU  0 inst:  399000002 cyc:  427568708 now IPC :2.17526: AVG IPC :0.93065: L2-Pf-HR :0.94197: L2-HR :0.92515: (Sim:1h36m24s) 
CPU  0 inst:  400000000 cyc:  428057516 now IPC :2.04579: AVG IPC :0.93192: L2-Pf-HR :0.94206: L2-HR :0.92528: (Sim:1h36m41s) 
CPU  0 inst:  401000001 cyc:  428559139 now IPC :1.99353: AVG IPC :0.93317: L2-Pf-HR :0.94205: L2-HR :0.92528: (Sim:1h36m59s) 
CPU  0 inst:  402000002 cyc:  429035897 now IPC :2.09750: AVG IPC :0.93447: L2-Pf-HR :0.94216: L2-HR :0.92543: (Sim:1h37m16s) 
CPU  0 inst:  403000000 cyc:  429663165 now IPC :1.59421: AVG IPC :0.93543: L2-Pf-HR :0.94206: L2-HR :0.92535: (Sim:1h37m26s) 
CPU  0 inst:  404000004 cyc:  430128568 now IPC :2.14868: AVG IPC :0.93675: L2-Pf-HR :0.94215: L2-HR :0.92547: (Sim:1h37m34s) 
CPU  0 inst:  405000001 cyc:  430658489 now IPC :1.88707: AVG IPC :0.93792: L2-Pf-HR :0.94223: L2-HR :0.92558: (Sim:1h37m42s) 
CPU  0 inst:  406000004 cyc:  431200326 now IPC :1.84558: AVG IPC :0.93906: L2-Pf-HR :0.94217: L2-HR :0.92556: (Sim:1h37m51s) 
CPU  0 inst:  407000002 cyc:  431665181 now IPC :2.15120: AVG IPC :0.94037: L2-Pf-HR :0.94228: L2-HR :0.92570: (Sim:1h38m6s) 
CPU  0 inst:  408000004 cyc:  432153413 now IPC :2.04821: AVG IPC :0.94163: L2-Pf-HR :0.94240: L2-HR :0.92584: (Sim:1h38m23s) 
CPU  0 inst:  409000005 cyc:  432645710 now IPC :2.03130: AVG IPC :0.94287: L2-Pf-HR :0.94239: L2-HR :0.92585: (Sim:1h38m41s) 
CPU  0 inst:  410000004 cyc:  433105980 now IPC :2.17264: AVG IPC :0.94418: L2-Pf-HR :0.94252: L2-HR :0.92601: (Sim:1h38m53s) 
CPU  0 inst:  411000002 cyc:  433695108 now IPC :1.69742: AVG IPC :0.94520: L2-Pf-HR :0.94248: L2-HR :0.92601: (Sim:1h39m1s) 
CPU  0 inst:  412000005 cyc:  434230114 now IPC :1.86914: AVG IPC :0.94634: L2-Pf-HR :0.94251: L2-HR :0.92604: (Sim:1h39m11s) 
CPU  0 inst:  413000001 cyc:  434689833 now IPC :2.17523: AVG IPC :0.94765: L2-Pf-HR :0.94261: L2-HR :0.92617: (Sim:1h39m19s) 
CPU  0 inst:  414000004 cyc:  435215891 now IPC :1.90094: AVG IPC :0.94880: L2-Pf-HR :0.94269: L2-HR :0.92628: (Sim:1h39m27s) 
CPU  0 inst:  415000000 cyc:  435763417 now IPC :1.82639: AVG IPC :0.94991: L2-Pf-HR :0.94263: L2-HR :0.92625: (Sim:1h39m39s) 
CPU  0 inst:  416000001 cyc:  436213109 now IPC :2.22375: AVG IPC :0.95122: L2-Pf-HR :0.94275: L2-HR :0.92641: (Sim:1h39m47s) 
CPU  0 inst:  417000005 cyc:  436697743 now IPC :2.06342: AVG IPC :0.95246: L2-Pf-HR :0.94284: L2-HR :0.92653: (Sim:1h39m55s) 
CPU  0 inst:  418000004 cyc:  437194423 now IPC :2.01337: AVG IPC :0.95367: L2-Pf-HR :0.94284: L2-HR :0.92654: (Sim:1h40m3s) 
CPU  0 inst:  419000005 cyc:  437669977 now IPC :2.10281: AVG IPC :0.95492: L2-Pf-HR :0.94294: L2-HR :0.92667: (Sim:1h40m11s) 
CPU  0 inst:  420000005 cyc:  438299213 now IPC :1.58923: AVG IPC :0.95583: L2-Pf-HR :0.94285: L2-HR :0.92659: (Sim:1h40m20s) 
CPU  0 inst:  421000000 cyc:  438763113 now IPC :2.15563: AVG IPC :0.95710: L2-Pf-HR :0.94294: L2-HR :0.92671: (Sim:1h40m28s) 
CPU  0 inst:  422000004 cyc:  439303010 now IPC :1.85221: AVG IPC :0.95821: L2-Pf-HR :0.94301: L2-HR :0.92680: (Sim:1h40m36s) 
CPU  0 inst:  423000000 cyc:  439845102 now IPC :1.84470: AVG IPC :0.95930: L2-Pf-HR :0.94296: L2-HR :0.92678: (Sim:1h40m45s) 
CPU  0 inst:  424000001 cyc:  440308859 now IPC :2.15630: AVG IPC :0.96056: L2-Pf-HR :0.94307: L2-HR :0.92691: (Sim:1h40m54s) 
CPU  0 inst:  425000002 cyc:  440796517 now IPC :2.05062: AVG IPC :0.96177: L2-Pf-HR :0.94315: L2-HR :0.92703: (Sim:1h41m1s) 
CPU  0 inst:  426000004 cyc:  441280190 now IPC :2.06752: AVG IPC :0.96299: L2-Pf-HR :0.94315: L2-HR :0.92704: (Sim:1h41m10s) 
CPU  0 inst:  427000001 cyc:  441739449 now IPC :2.17741: AVG IPC :0.96425: L2-Pf-HR :0.94327: L2-HR :0.92719: (Sim:1h41m18s) 
CPU  0 inst:  428000001 cyc:  442369211 now IPC :1.58790: AVG IPC :0.96514: L2-Pf-HR :0.94318: L2-HR :0.92712: (Sim:1h41m27s) 
CPU  0 inst:  429000000 cyc:  442863545 now IPC :2.02292: AVG IPC :0.96633: L2-Pf-HR :0.94324: L2-HR :0.92719: (Sim:1h41m35s) 
CPU  0 inst:  430000003 cyc:  443323630 now IPC :2.17352: AVG IPC :0.96758: L2-Pf-HR :0.94334: L2-HR :0.92732: (Sim:1h41m42s) 
CPU  0 inst:  431000000 cyc:  443878507 now IPC :1.80220: AVG IPC :0.96863: L2-Pf-HR :0.94339: L2-HR :0.92740: (Sim:1h41m50s) 
CPU  0 inst:  432000002 cyc:  444409156 now IPC :1.88449: AVG IPC :0.96972: L2-Pf-HR :0.94335: L2-HR :0.92738: (Sim:1h41m59s) 
CPU  0 inst:  433000003 cyc:  444860871 now IPC :2.21379: AVG IPC :0.97099: L2-Pf-HR :0.94347: L2-HR :0.92753: (Sim:1h42m7s) 
CPU  0 inst:  434000000 cyc:  445344169 now IPC :2.06911: AVG IPC :0.97218: L2-Pf-HR :0.94356: L2-HR :0.92764: (Sim:1h42m15s) 
CPU  0 inst:  435000004 cyc:  445843613 now IPC :2.00223: AVG IPC :0.97334: L2-Pf-HR :0.94355: L2-HR :0.92765: (Sim:1h42m23s) 
CPU  0 inst:  436000002 cyc:  446320046 now IPC :2.09893: AVG IPC :0.97454: L2-Pf-HR :0.94365: L2-HR :0.92777: (Sim:1h42m31s) 
CPU  0 inst:  437000001 cyc:  446961420 now IPC :1.55915: AVG IPC :0.97539: L2-Pf-HR :0.94355: L2-HR :0.92768: (Sim:1h42m40s) 
CPU  0 inst:  438000005 cyc:  447426493 now IPC :2.15021: AVG IPC :0.97661: L2-Pf-HR :0.94364: L2-HR :0.92779: (Sim:1h42m48s) 
CPU  0 inst:  439000005 cyc:  447963460 now IPC :1.86231: AVG IPC :0.97767: L2-Pf-HR :0.94370: L2-HR :0.92787: (Sim:1h42m56s) 
CPU  0 inst:  440000000 cyc:  448511727 now IPC :1.82392: AVG IPC :0.97871: L2-Pf-HR :0.94364: L2-HR :0.92783: (Sim:1h43m5s) 
CPU  0 inst:  441000000 cyc:  448968732 now IPC :2.18816: AVG IPC :0.97994: L2-Pf-HR :0.94374: L2-HR :0.92796: (Sim:1h43m13s) 
CPU  0 inst:  442000002 cyc:  449457082 now IPC :2.04772: AVG IPC :0.98111: L2-Pf-HR :0.94383: L2-HR :0.92808: (Sim:1h43m21s) 
CPU  0 inst:  443000002 cyc:  449947595 now IPC :2.03868: AVG IPC :0.98226: L2-Pf-HR :0.94382: L2-HR :0.92808: (Sim:1h43m29s) 
CPU  0 inst:  444000001 cyc:  450404422 now IPC :2.18901: AVG IPC :0.98349: L2-Pf-HR :0.94394: L2-HR :0.92822: (Sim:1h43m37s) 
CPU  0 inst:  445000005 cyc:  451048336 now IPC :1.55301: AVG IPC :0.98430: L2-Pf-HR :0.94385: L2-HR :0.92813: (Sim:1h43m45s) 
CPU  0 inst:  446000003 cyc:  451544029 now IPC :2.01737: AVG IPC :0.98544: L2-Pf-HR :0.94390: L2-HR :0.92821: (Sim:1h43m54s) 
CPU  0 inst:  447000003 cyc:  452013067 now IPC :2.13202: AVG IPC :0.98663: L2-Pf-HR :0.94400: L2-HR :0.92834: (Sim:1h44m1s) 
CPU  0 inst:  448000005 cyc:  452586410 now IPC :1.74416: AVG IPC :0.98759: L2-Pf-HR :0.94396: L2-HR :0.92832: (Sim:1h44m9s) 
CPU  0 inst:  449000004 cyc:  453078218 now IPC :2.03331: AVG IPC :0.98873: L2-Pf-HR :0.94398: L2-HR :0.92835: (Sim:1h44m18s) 
CPU  0 inst:  450000003 cyc:  453527544 now IPC :2.22555: AVG IPC :0.98996: L2-Pf-HR :0.94409: L2-HR :0.92849: (Sim:1h44m26s) 
CPU  0 inst:  451000003 cyc:  454012371 now IPC :2.06259: AVG IPC :0.99111: L2-Pf-HR :0.94417: L2-HR :0.92860: (Sim:1h44m33s) 
CPU  0 inst:  452000005 cyc:  454507398 now IPC :2.02010: AVG IPC :0.99223: L2-Pf-HR :0.94415: L2-HR :0.92859: (Sim:1h44m42s) 
CPU  0 inst:  453000005 cyc:  454978990 now IPC :2.12048: AVG IPC :0.99340: L2-Pf-HR :0.94425: L2-HR :0.92871: (Sim:1h44m50s) 
CPU  0 inst:  454000004 cyc:  455616436 now IPC :1.56876: AVG IPC :0.99421: L2-Pf-HR :0.94414: L2-HR :0.92861: (Sim:1h44m59s) 
CPU  0 inst:  455000005 cyc:  456084094 now IPC :2.13832: AVG IPC :0.99539: L2-Pf-HR :0.94422: L2-HR :0.92872: (Sim:1h45m7s) 
CPU  0 inst:  456000000 cyc:  456612481 now IPC :1.89254: AVG IPC :0.99643: L2-Pf-HR :0.94428: L2-HR :0.92880: (Sim:1h45m15s) 
CPU  0 inst:  457000002 cyc:  457158336 now IPC :1.83199: AVG IPC :0.99743: L2-Pf-HR :0.94422: L2-HR :0.92877: (Sim:1h45m24s) 
CPU  0 inst:  458000004 cyc:  457611056 now IPC :2.20888: AVG IPC :0.99863: L2-Pf-HR :0.94432: L2-HR :0.92889: (Sim:1h45m32s) 
CPU  0 inst:  459000005 cyc:  458109882 now IPC :2.00471: AVG IPC :0.99972: L2-Pf-HR :0.94440: L2-HR :0.92900: (Sim:1h45m39s) 
CPU  0 inst:  460000002 cyc:  458605892 now IPC :2.01608: AVG IPC :1.00083: L2-Pf-HR :0.94441: L2-HR :0.92901: (Sim:1h45m48s) 
CPU  0 inst:  461000000 cyc:  459062302 now IPC :2.19101: AVG IPC :1.00201: L2-Pf-HR :0.94452: L2-HR :0.92915: (Sim:1h45m56s) 
CPU  0 inst:  462000004 cyc:  459709760 now IPC :1.54451: AVG IPC :1.00278: L2-Pf-HR :0.94445: L2-HR :0.92907: (Sim:1h46m5s) 
CPU  0 inst:  463000000 cyc:  460196613 now IPC :2.05400: AVG IPC :1.00389: L2-Pf-HR :0.94450: L2-HR :0.92915: (Sim:1h46m13s) 
CPU  0 inst:  464000000 cyc:  460674440 now IPC :2.09281: AVG IPC :1.00502: L2-Pf-HR :0.94460: L2-HR :0.92927: (Sim:1h46m21s) 
CPU  0 inst:  465000000 cyc:  461265650 now IPC :1.69145: AVG IPC :1.00591: L2-Pf-HR :0.94451: L2-HR :0.92921: (Sim:1h46m29s) 
CPU  0 inst:  466000000 cyc:  461723171 now IPC :2.18569: AVG IPC :1.00708: L2-Pf-HR :0.94459: L2-HR :0.92930: (Sim:1h46m37s) 
CPU  0 inst:  467000002 cyc:  462170613 now IPC :2.23493: AVG IPC :1.00827: L2-Pf-HR :0.94469: L2-HR :0.92943: (Sim:1h46m52s) 
CPU  0 inst:  468000000 cyc:  462669654 now IPC :2.00384: AVG IPC :1.00934: L2-Pf-HR :0.94478: L2-HR :0.92954: (Sim:1h47m9s) 
CPU  0 inst:  469000000 cyc:  463165159 now IPC :2.01814: AVG IPC :1.01043: L2-Pf-HR :0.94476: L2-HR :0.92953: (Sim:1h47m28s) 
CPU  0 inst:  470000002 cyc:  463636368 now IPC :2.12220: AVG IPC :1.01156: L2-Pf-HR :0.94485: L2-HR :0.92965: (Sim:1h47m45s) 
CPU  0 inst:  471000004 cyc:  464260784 now IPC :1.60150: AVG IPC :1.01235: L2-Pf-HR :0.94476: L2-HR :0.92956: (Sim:1h48m5s) 
CPU  0 inst:  472000002 cyc:  464733141 now IPC :2.11704: AVG IPC :1.01348: L2-Pf-HR :0.94483: L2-HR :0.92966: (Sim:1h48m23s) 
CPU  0 inst:  473000001 cyc:  465260744 now IPC :1.89536: AVG IPC :1.01448: L2-Pf-HR :0.94489: L2-HR :0.92974: (Sim:1h48m40s) 
CPU  0 inst:  474000000 cyc:  465808408 now IPC :1.82594: AVG IPC :1.01544: L2-Pf-HR :0.94484: L2-HR :0.92971: (Sim:1h49m0s) 
CPU  0 inst:  475000003 cyc:  466264395 now IPC :2.19305: AVG IPC :1.01659: L2-Pf-HR :0.94493: L2-HR :0.92982: (Sim:1h49m17s) 
CPU  0 inst:  476000002 cyc:  466758389 now IPC :2.02431: AVG IPC :1.01766: L2-Pf-HR :0.94500: L2-HR :0.92992: (Sim:1h49m35s) 
CPU  0 inst:  477000002 cyc:  467253957 now IPC :2.01789: AVG IPC :1.01872: L2-Pf-HR :0.94499: L2-HR :0.92992: (Sim:1h49m53s) 
CPU  0 inst:  478000001 cyc:  467717574 now IPC :2.15695: AVG IPC :1.01985: L2-Pf-HR :0.94510: L2-HR :0.93005: (Sim:1h50m10s) 
CPU  0 inst:  479000002 cyc:  468352199 now IPC :1.57574: AVG IPC :1.02061: L2-Pf-HR :0.94499: L2-HR :0.92996: (Sim:1h50m30s) 
CPU  0 inst:  480000002 cyc:  468838343 now IPC :2.05700: AVG IPC :1.02169: L2-Pf-HR :0.94505: L2-HR :0.93003: (Sim:1h50m48s) 
CPU  0 inst:  481000000 cyc:  469340459 now IPC :1.99157: AVG IPC :1.02273: L2-Pf-HR :0.94512: L2-HR :0.93013: (Sim:1h51m6s) 
CPU  0 inst:  482000003 cyc:  469905157 now IPC :1.77086: AVG IPC :1.02363: L2-Pf-HR :0.94506: L2-HR :0.93009: (Sim:1h51m25s) 
CPU  0 inst:  483000003 cyc:  470366940 now IPC :2.16552: AVG IPC :1.02475: L2-Pf-HR :0.94513: L2-HR :0.93018: (Sim:1h51m43s) 
CPU  0 inst:  484000004 cyc:  470823081 now IPC :2.19231: AVG IPC :1.02588: L2-Pf-HR :0.94524: L2-HR :0.93031: (Sim:1h52m0s) 
CPU  0 inst:  485000000 cyc:  471334261 now IPC :1.95625: AVG IPC :1.02689: L2-Pf-HR :0.94523: L2-HR :0.93033: (Sim:1h52m18s) 
CPU  0 inst:  486000005 cyc:  471810066 now IPC :2.10171: AVG IPC :1.02798: L2-Pf-HR :0.94529: L2-HR :0.93040: (Sim:1h52m36s) 
CPU  0 inst:  487000002 cyc:  472281983 now IPC :2.11901: AVG IPC :1.02907: L2-Pf-HR :0.94539: L2-HR :0.93052: (Sim:1h52m53s) 
CPU  0 inst:  488000004 cyc:  472925482 now IPC :1.55401: AVG IPC :1.02979: L2-Pf-HR :0.94530: L2-HR :0.93043: (Sim:1h53m13s) 
CPU  0 inst:  489000001 cyc:  473399907 now IPC :2.10781: AVG IPC :1.03087: L2-Pf-HR :0.94537: L2-HR :0.93052: (Sim:1h53m31s) 
CPU  0 inst:  490000000 cyc:  473931678 now IPC :1.88051: AVG IPC :1.03183: L2-Pf-HR :0.94542: L2-HR :0.93059: (Sim:1h53m49s) 
CPU  0 inst:  491000003 cyc:  474482673 now IPC :1.81490: AVG IPC :1.03274: L2-Pf-HR :0.94536: L2-HR :0.93056: (Sim:1h54m8s) 
CPU  0 inst:  492000002 cyc:  474944447 now IPC :2.16556: AVG IPC :1.03384: L2-Pf-HR :0.94546: L2-HR :0.93067: (Sim:1h54m26s) 
CPU  0 inst:  493000000 cyc:  475431254 now IPC :2.05420: AVG IPC :1.03489: L2-Pf-HR :0.94553: L2-HR :0.93077: (Sim:1h54m44s) 
CPU  0 inst:  494000001 cyc:  475920074 now IPC :2.04574: AVG IPC :1.03593: L2-Pf-HR :0.94552: L2-HR :0.93077: (Sim:1h55m1s) 
CPU  0 inst:  495000004 cyc:  476394637 now IPC :2.10721: AVG IPC :1.03700: L2-Pf-HR :0.94564: L2-HR :0.93091: (Sim:1h55m19s) 
CPU  0 inst:  496000005 cyc:  477016137 now IPC :1.60901: AVG IPC :1.03774: L2-Pf-HR :0.94553: L2-HR :0.93081: (Sim:1h55m38s) 
CPU  0 inst:  497000000 cyc:  477496258 now IPC :2.08280: AVG IPC :1.03880: L2-Pf-HR :0.94558: L2-HR :0.93088: (Sim:1h55m56s) 
CPU  0 inst:  498000000 cyc:  478029584 now IPC :1.87503: AVG IPC :1.03973: L2-Pf-HR :0.94564: L2-HR :0.93095: (Sim:1h56m14s) 
CPU  0 inst:  499000000 cyc:  478572452 now IPC :1.84207: AVG IPC :1.04064: L2-Pf-HR :0.94559: L2-HR :0.93093: (Sim:1h56m33s) 
CPU  0 inst:  500000000 cyc:  479034750 now IPC :2.16311: AVG IPC :1.04173: L2-Pf-HR :0.94567: L2-HR :0.93102: (Sim:1h56m51s) 
CPU  0 inst:  501000002 cyc:  479501734 now IPC :2.14141: AVG IPC :1.04280: L2-Pf-HR :0.94578: L2-HR :0.93115: (Sim:1h57m8s) 
CPU  0 inst:  502000003 cyc:  480009500 now IPC :1.96941: AVG IPC :1.04379: L2-Pf-HR :0.94574: L2-HR :0.93113: (Sim:1h57m26s) 
CPU  0 inst:  503000005 cyc:  480470090 now IPC :2.17113: AVG IPC :1.04487: L2-Pf-HR :0.94583: L2-HR :0.93123: (Sim:1h57m44s) 
CPU  0 inst:  504000000 cyc:  480948329 now IPC :2.09099: AVG IPC :1.04591: L2-Pf-HR :0.94591: L2-HR :0.93133: (Sim:1h58m0s) 
CPU  0 inst:  505000002 cyc:  481600587 now IPC :1.53314: AVG IPC :1.04657: L2-Pf-HR :0.94580: L2-HR :0.93123: (Sim:1h58m21s) 
CPU  0 inst:  506000003 cyc:  482064715 now IPC :2.15458: AVG IPC :1.04764: L2-Pf-HR :0.94587: L2-HR :0.93132: (Sim:1h58m38s) 
CPU  0 inst:  507000001 cyc:  482598034 now IPC :1.87505: AVG IPC :1.04856: L2-Pf-HR :0.94592: L2-HR :0.93139: (Sim:1h58m55s) 
CPU  0 inst:  508000002 cyc:  483135130 now IPC :1.86187: AVG IPC :1.04946: L2-Pf-HR :0.94588: L2-HR :0.93136: (Sim:1h59m14s) 
CPU  0 inst:  509000002 cyc:  483600420 now IPC :2.14920: AVG IPC :1.05052: L2-Pf-HR :0.94597: L2-HR :0.93146: (Sim:1h59m32s) 
CPU  0 inst:  510000001 cyc:  484090070 now IPC :2.04227: AVG IPC :1.05153: L2-Pf-HR :0.94603: L2-HR :0.93156: (Sim:1h59m47s) 
CPU  0 inst:  511000003 cyc:  484582276 now IPC :2.03167: AVG IPC :1.05253: L2-Pf-HR :0.94602: L2-HR :0.93155: (Sim:1h59m56s) 
CPU  0 inst:  512000004 cyc:  485058415 now IPC :2.10023: AVG IPC :1.05356: L2-Pf-HR :0.94610: L2-HR :0.93165: (Sim:2h0m4s) 
CPU  0 inst:  513000003 cyc:  485709214 now IPC :1.53657: AVG IPC :1.05421: L2-Pf-HR :0.94601: L2-HR :0.93156: (Sim:2h0m13s) 
CPU  0 inst:  514000001 cyc:  486177315 now IPC :2.13629: AVG IPC :1.05525: L2-Pf-HR :0.94608: L2-HR :0.93164: (Sim:2h0m21s) 
CPU  0 inst:  515000003 cyc:  486714387 now IPC :1.86195: AVG IPC :1.05614: L2-Pf-HR :0.94613: L2-HR :0.93171: (Sim:2h0m29s) 
CPU  0 inst:  516000001 cyc:  487257030 now IPC :1.84283: AVG IPC :1.05702: L2-Pf-HR :0.94608: L2-HR :0.93167: (Sim:2h0m38s) 
CPU  0 inst:  517000002 cyc:  487725308 now IPC :2.13549: AVG IPC :1.05806: L2-Pf-HR :0.94615: L2-HR :0.93176: (Sim:2h0m46s) 
CPU  0 inst:  518000003 cyc:  488194038 now IPC :2.13343: AVG IPC :1.05909: L2-Pf-HR :0.94626: L2-HR :0.93189: (Sim:2h0m54s) 
CPU  0 inst:  519000003 cyc:  488693641 now IPC :2.00159: AVG IPC :1.06006: L2-Pf-HR :0.94620: L2-HR :0.93185: (Sim:2h1m2s) 
CPU  0 inst:  520000003 cyc:  489155642 now IPC :2.16450: AVG IPC :1.06110: L2-Pf-HR :0.94629: L2-HR :0.93195: (Sim:2h1m10s) 
CPU  0 inst:  521000002 cyc:  489706922 now IPC :1.81396: AVG IPC :1.06195: L2-Pf-HR :0.94630: L2-HR :0.93198: (Sim:2h1m18s) 
CPU  0 inst:  522000002 cyc:  490274440 now IPC :1.76206: AVG IPC :1.06276: L2-Pf-HR :0.94627: L2-HR :0.93195: (Sim:2h1m27s) 
CPU  0 inst:  523000002 cyc:  490737499 now IPC :2.15955: AVG IPC :1.06380: L2-Pf-HR :0.94634: L2-HR :0.93204: (Sim:2h1m35s) 
CPU  0 inst:  524000005 cyc:  491256788 now IPC :1.92572: AVG IPC :1.06471: L2-Pf-HR :0.94640: L2-HR :0.93211: (Sim:2h1m43s) 
CPU  0 inst:  525000000 cyc:  491806744 now IPC :1.81832: AVG IPC :1.06556: L2-Pf-HR :0.94635: L2-HR :0.93207: (Sim:2h1m52s) 
CPU  0 inst:  526000000 cyc:  492265741 now IPC :2.17866: AVG IPC :1.06660: L2-Pf-HR :0.94643: L2-HR :0.93217: (Sim:2h2m0s) 
CPU  0 inst:  527000002 cyc:  492756764 now IPC :2.03657: AVG IPC :1.06757: L2-Pf-HR :0.94650: L2-HR :0.93226: (Sim:2h2m8s) 
CPU  0 inst:  528000003 cyc:  493249693 now IPC :2.02869: AVG IPC :1.06853: L2-Pf-HR :0.94649: L2-HR :0.93225: (Sim:2h2m16s) 
CPU  0 inst:  529000004 cyc:  493726408 now IPC :2.09769: AVG IPC :1.06952: L2-Pf-HR :0.94656: L2-HR :0.93234: (Sim:2h2m24s) 
CPU  0 inst:  530000002 cyc:  494371135 now IPC :1.55104: AVG IPC :1.07015: L2-Pf-HR :0.94649: L2-HR :0.93226: (Sim:2h2m33s) 
CPU  0 inst:  531000001 cyc:  494835179 now IPC :2.15497: AVG IPC :1.07117: L2-Pf-HR :0.94655: L2-HR :0.93233: (Sim:2h2m42s) 
CPU  0 inst:  532000004 cyc:  495369012 now IPC :1.87325: AVG IPC :1.07204: L2-Pf-HR :0.94659: L2-HR :0.93240: (Sim:2h2m49s) 
CPU  0 inst:  533000000 cyc:  495903199 now IPC :1.87200: AVG IPC :1.07290: L2-Pf-HR :0.94654: L2-HR :0.93237: (Sim:2h2m58s) 
CPU  0 inst:  534000004 cyc:  496366386 now IPC :2.15896: AVG IPC :1.07392: L2-Pf-HR :0.94660: L2-HR :0.93245: (Sim:2h3m6s) 
CPU  0 inst:  535000001 cyc:  496860591 now IPC :2.02345: AVG IPC :1.07486: L2-Pf-HR :0.94667: L2-HR :0.93253: (Sim:2h3m14s) 
CPU  0 inst:  536000003 cyc:  497346999 now IPC :2.05589: AVG IPC :1.07583: L2-Pf-HR :0.94665: L2-HR :0.93252: (Sim:2h3m22s) 
CPU  0 inst:  537000005 cyc:  497809099 now IPC :2.16404: AVG IPC :1.07684: L2-Pf-HR :0.94673: L2-HR :0.93262: (Sim:2h3m30s) 
CPU  0 inst:  538000004 cyc:  498416294 now IPC :1.64692: AVG IPC :1.07753: L2-Pf-HR :0.94668: L2-HR :0.93257: (Sim:2h3m39s) 
CPU  0 inst:  539000002 cyc:  498912684 now IPC :2.01454: AVG IPC :1.07847: L2-Pf-HR :0.94672: L2-HR :0.93262: (Sim:2h3m47s) 
CPU  0 inst:  540000000 cyc:  499375989 now IPC :2.15840: AVG IPC :1.07947: L2-Pf-HR :0.94678: L2-HR :0.93270: (Sim:2h3m55s) 
CPU  0 inst:  541000002 cyc:  499910836 now IPC :1.86970: AVG IPC :1.08032: L2-Pf-HR :0.94683: L2-HR :0.93277: (Sim:2h4m3s) 
CPU  0 inst:  542000002 cyc:  500468478 now IPC :1.79327: AVG IPC :1.08111: L2-Pf-HR :0.94677: L2-HR :0.93272: (Sim:2h4m13s) 
CPU  0 inst:  543000003 cyc:  500918297 now IPC :2.22312: AVG IPC :1.08214: L2-Pf-HR :0.94685: L2-HR :0.93282: (Sim:2h4m21s) 
CPU  0 inst:  544000002 cyc:  501409267 now IPC :2.03678: AVG IPC :1.08308: L2-Pf-HR :0.94691: L2-HR :0.93290: (Sim:2h4m28s) 
CPU  0 inst:  545000003 cyc:  501906303 now IPC :2.01193: AVG IPC :1.08400: L2-Pf-HR :0.94689: L2-HR :0.93288: (Sim:2h4m37s) 
CPU  0 inst:  546000005 cyc:  502381026 now IPC :2.10650: AVG IPC :1.08497: L2-Pf-HR :0.94696: L2-HR :0.93297: (Sim:2h4m45s) 
CPU  0 inst:  547000000 cyc:  503001682 now IPC :1.61119: AVG IPC :1.08562: L2-Pf-HR :0.94687: L2-HR :0.93290: (Sim:2h4m54s) 
CPU  0 inst:  548000004 cyc:  503466403 now IPC :2.15184: AVG IPC :1.08661: L2-Pf-HR :0.94693: L2-HR :0.93297: (Sim:2h5m2s) 
CPU  0 inst:  549000001 cyc:  504001128 now IPC :1.87011: AVG IPC :1.08744: L2-Pf-HR :0.94697: L2-HR :0.93302: (Sim:2h5m9s) 
CPU  0 inst:  550000000 cyc:  504548224 now IPC :1.82783: AVG IPC :1.08824: L2-Pf-HR :0.94692: L2-HR :0.93300: (Sim:2h5m18s) 
CPU  0 inst:  551000000 cyc:  505012760 now IPC :2.15269: AVG IPC :1.08922: L2-Pf-HR :0.94699: L2-HR :0.93308: (Sim:2h5m27s) 
CPU  0 inst:  552000001 cyc:  505502423 now IPC :2.04222: AVG IPC :1.09015: L2-Pf-HR :0.94705: L2-HR :0.93317: (Sim:2h5m34s) 
CPU  0 inst:  553000000 cyc:  505985343 now IPC :2.07073: AVG IPC :1.09109: L2-Pf-HR :0.94704: L2-HR :0.93316: (Sim:2h5m42s) 
CPU  0 inst:  554000000 cyc:  506448298 now IPC :2.16004: AVG IPC :1.09207: L2-Pf-HR :0.94712: L2-HR :0.93326: (Sim:2h5m51s) 
CPU  0 inst:  555000001 cyc:  507078945 now IPC :1.58567: AVG IPC :1.09268: L2-Pf-HR :0.94706: L2-HR :0.93321: (Sim:2h6m0s) 
CPU  0 inst:  556000005 cyc:  507567576 now IPC :2.04654: AVG IPC :1.09360: L2-Pf-HR :0.94710: L2-HR :0.93326: (Sim:2h6m8s) 
CPU  0 inst:  557000000 cyc:  508035272 now IPC :2.13813: AVG IPC :1.09456: L2-Pf-HR :0.94717: L2-HR :0.93334: (Sim:2h6m16s) 
CPU  0 inst:  558000000 cyc:  508601576 now IPC :1.76584: AVG IPC :1.09531: L2-Pf-HR :0.94716: L2-HR :0.93336: (Sim:2h6m24s) 
CPU  0 inst:  559000002 cyc:  509119116 now IPC :1.93222: AVG IPC :1.09616: L2-Pf-HR :0.94715: L2-HR :0.93336: (Sim:2h6m33s) 
CPU  0 inst:  560000004 cyc:  509566429 now IPC :2.23558: AVG IPC :1.09717: L2-Pf-HR :0.94723: L2-HR :0.93346: (Sim:2h6m41s) 
CPU  0 inst:  561000004 cyc:  510050389 now IPC :2.06629: AVG IPC :1.09809: L2-Pf-HR :0.94729: L2-HR :0.93354: (Sim:2h6m49s) 
CPU  0 inst:  562000004 cyc:  510543546 now IPC :2.02775: AVG IPC :1.09899: L2-Pf-HR :0.94728: L2-HR :0.93353: (Sim:2h6m57s) 
CPU  0 inst:  563000003 cyc:  511020104 now IPC :2.09838: AVG IPC :1.09992: L2-Pf-HR :0.94735: L2-HR :0.93362: (Sim:2h7m5s) 
CPU  0 inst:  564000001 cyc:  511648230 now IPC :1.59203: AVG IPC :1.10053: L2-Pf-HR :0.94727: L2-HR :0.93353: (Sim:2h7m14s) 
CPU  0 inst:  565000003 cyc:  512113744 now IPC :2.14817: AVG IPC :1.10148: L2-Pf-HR :0.94732: L2-HR :0.93360: (Sim:2h7m22s) 
CPU  0 inst:  566000001 cyc:  512656050 now IPC :1.84397: AVG IPC :1.10227: L2-Pf-HR :0.94736: L2-HR :0.93366: (Sim:2h7m31s) 
CPU  0 inst:  567000002 cyc:  513198151 now IPC :1.84468: AVG IPC :1.10305: L2-Pf-HR :0.94731: L2-HR :0.93362: (Sim:2h7m50s) 
CPU  0 inst:  568000002 cyc:  513655921 now IPC :2.18450: AVG IPC :1.10402: L2-Pf-HR :0.94738: L2-HR :0.93371: (Sim:2h8m7s) 
CPU  0 inst:  569000002 cyc:  514143296 now IPC :2.05181: AVG IPC :1.10492: L2-Pf-HR :0.94743: L2-HR :0.93378: (Sim:2h8m24s) 
CPU  0 inst:  570000001 cyc:  514635610 now IPC :2.03122: AVG IPC :1.10581: L2-Pf-HR :0.94743: L2-HR :0.93378: (Sim:2h8m42s) 
CPU  0 inst:  571000000 cyc:  515093398 now IPC :2.18442: AVG IPC :1.10677: L2-Pf-HR :0.94751: L2-HR :0.93388: (Sim:2h8m59s) 
CPU  0 inst:  572000003 cyc:  515731820 now IPC :1.56637: AVG IPC :1.10734: L2-Pf-HR :0.94744: L2-HR :0.93381: (Sim:2h9m17s) 
CPU  0 inst:  573000000 cyc:  516219281 now IPC :2.05144: AVG IPC :1.10823: L2-Pf-HR :0.94747: L2-HR :0.93386: (Sim:2h9m35s) 
CPU  0 inst:  574000001 cyc:  516694417 now IPC :2.10466: AVG IPC :1.10915: L2-Pf-HR :0.94755: L2-HR :0.93395: (Sim:2h9m52s) 
CPU  0 inst:  575000000 cyc:  517295189 now IPC :1.66452: AVG IPC :1.10980: L2-Pf-HR :0.94748: L2-HR :0.93389: (Sim:2h10m11s) 
CPU  0 inst:  576000001 cyc:  517755799 now IPC :2.17104: AVG IPC :1.11074: L2-Pf-HR :0.94753: L2-HR :0.93396: (Sim:2h10m29s) 
CPU  0 inst:  577000005 cyc:  518208697 now IPC :2.20801: AVG IPC :1.11170: L2-Pf-HR :0.94761: L2-HR :0.93405: (Sim:2h10m46s) 
CPU  0 inst:  578000004 cyc:  518699069 now IPC :2.03927: AVG IPC :1.11258: L2-Pf-HR :0.94767: L2-HR :0.93413: (Sim:2h11m2s) 
CPU  0 inst:  579000004 cyc:  519196629 now IPC :2.00981: AVG IPC :1.11344: L2-Pf-HR :0.94765: L2-HR :0.93411: (Sim:2h11m20s) 
CPU  0 inst:  580000001 cyc:  519668558 now IPC :2.11896: AVG IPC :1.11436: L2-Pf-HR :0.94772: L2-HR :0.93420: (Sim:2h11m37s) 
CPU  0 inst:  581000005 cyc:  520313685 now IPC :1.55009: AVG IPC :1.11490: L2-Pf-HR :0.94764: L2-HR :0.93411: (Sim:2h11m56s) 
CPU  0 inst:  582000000 cyc:  520785207 now IPC :2.12078: AVG IPC :1.11581: L2-Pf-HR :0.94769: L2-HR :0.93418: (Sim:2h12m14s) 
CPU  0 inst:  583000001 cyc:  521321577 now IPC :1.86439: AVG IPC :1.11658: L2-Pf-HR :0.94773: L2-HR :0.93424: (Sim:2h12m31s) 
CPU  0 inst:  584000005 cyc:  521868104 now IPC :1.82974: AVG IPC :1.11733: L2-Pf-HR :0.94768: L2-HR :0.93419: (Sim:2h12m50s) 
CPU  0 inst:  585000005 cyc:  522326880 now IPC :2.17971: AVG IPC :1.11827: L2-Pf-HR :0.94775: L2-HR :0.93427: (Sim:2h13m7s) 
CPU  0 inst:  586000002 cyc:  522816056 now IPC :2.04425: AVG IPC :1.11913: L2-Pf-HR :0.94780: L2-HR :0.93434: (Sim:2h13m24s) 
CPU  0 inst:  587000004 cyc:  523296346 now IPC :2.08208: AVG IPC :1.12002: L2-Pf-HR :0.94778: L2-HR :0.93433: (Sim:2h13m42s) 
CPU  0 inst:  588000001 cyc:  523759247 now IPC :2.16028: AVG IPC :1.12094: L2-Pf-HR :0.94786: L2-HR :0.93442: (Sim:2h13m59s) 
CPU  0 inst:  589000003 cyc:  524405098 now IPC :1.54835: AVG IPC :1.12147: L2-Pf-HR :0.94777: L2-HR :0.93433: (Sim:2h14m18s) 
CPU  0 inst:  590000003 cyc:  524896099 now IPC :2.03666: AVG IPC :1.12233: L2-Pf-HR :0.94781: L2-HR :0.93438: (Sim:2h14m36s) 
CPU  0 inst:  591000005 cyc:  525372400 now IPC :2.09952: AVG IPC :1.12321: L2-Pf-HR :0.94789: L2-HR :0.93447: (Sim:2h14m53s) 
CPU  0 inst:  592000001 cyc:  525965580 now IPC :1.68582: AVG IPC :1.12385: L2-Pf-HR :0.94781: L2-HR :0.93440: (Sim:2h15m11s) 
CPU  0 inst:  593000004 cyc:  526427924 now IPC :2.16290: AVG IPC :1.12476: L2-Pf-HR :0.94786: L2-HR :0.93446: (Sim:2h15m29s) 
CPU  0 inst:  594000000 cyc:  526881276 now IPC :2.20578: AVG IPC :1.12569: L2-Pf-HR :0.94794: L2-HR :0.93456: (Sim:2h15m46s) 
Finished CPU 0 instr: 592000005 cyc: 525897344 AVG IPC: 1.12569 (Sim time: 2h15m46s)

ChampSim completed all CPUs

[ROI Statistics]
Core_0_instructions 592000005
Core_0_cycles 525897344
Core_0_IPC 1.12569

Core_0_branch_prediction_accuracy 98.24511
Core_0_branch_MPKI 0.42508
Core_0_average_ROB_occupancy_at_mispredict 576.55578

Core_0_L1D_total_access 319395694
Core_0_L1D_total_hit 306914433 L1D_total_Hit Ratio: 0.96092
Core_0_L1D_total_miss 12481261
Core_0_L1D_loads 124910667
Core_0_L1D_load_hit 117788844 L1D_load_Hit Ratio: 0.94298
Core_0_L1D_load_miss 7121823
Core_0_L1D_RFOs 11976453
Core_0_L1D_RFO_hit 11383891 L1D_RFO_Hit Ratio: 0.95052
Core_0_L1D_RFO_miss 592562
Core_0_L1D_prefetches 182508574
Core_0_L1D_prefetch_hit 177741698 L1D_prefetch_Hit Ratio: 0.97388
Core_0_L1D_prefetch_miss 4766876
Core_0_L1D_writebacks 0
Core_0_L1D_writeback_hit 0 L1D_writeback_Hit Ratio: -nan
Core_0_L1D_writeback_miss 0
Core_0_L1D_prefetch_requested 379342758
Core_0_L1D_prefetch_issued 222035601
Core_0_L1D_prefetch_useful 3734436 L1D_Useful Ratio: 0.01682
Core_0_L1D_prefetch_useless 1048591
Core_0_L1D_prefetch_late 915342
Core_0_L1D_average_miss_latency 21733215.59810

Core_0_L1I_total_access 75404634
Core_0_L1I_total_hit 75399759 L1I_total_Hit Ratio: 0.99994
Core_0_L1I_total_miss 4875
Core_0_L1I_loads 75404634
Core_0_L1I_load_hit 75399759 L1I_load_Hit Ratio: 0.99994
Core_0_L1I_load_miss 4875
Core_0_L1I_RFOs 0
Core_0_L1I_RFO_hit 0 L1I_RFO_Hit Ratio: -nan
Core_0_L1I_RFO_miss 0
Core_0_L1I_prefetches 0
Core_0_L1I_prefetch_hit 0 L1I_prefetch_Hit Ratio: -nan
Core_0_L1I_prefetch_miss 0
Core_0_L1I_writebacks 0
Core_0_L1I_writeback_hit 0 L1I_writeback_Hit Ratio: -nan
Core_0_L1I_writeback_miss 0
Core_0_L1I_prefetch_requested 0
Core_0_L1I_prefetch_issued 0
Core_0_L1I_prefetch_useful 0 L1I_Useful Ratio: -nan
Core_0_L1I_prefetch_useless 0
Core_0_L1I_prefetch_late 0
Core_0_L1I_average_miss_latency 337.77641

Core_0_L2C_total_access 60820039
Core_0_L2C_total_hit 56839978 L2C_total_Hit Ratio: 0.93456
Core_0_L2C_total_miss 3980061
Core_0_L2C_loads 6212767
Core_0_L2C_load_hit 5240647 L2C_load_Hit Ratio: 0.84353
Core_0_L2C_load_miss 972120
Core_0_L2C_RFOs 592430
Core_0_L2C_RFO_hit 229639 L2C_RFO_Hit Ratio: 0.38762
Core_0_L2C_RFO_miss 362791
Core_0_L2C_prefetches 50809977
Core_0_L2C_prefetch_hit 48164844 L2C_prefetch_Hit Ratio: 0.94794
Core_0_L2C_prefetch_miss 2645133
Core_0_L2C_writebacks 3204865
Core_0_L2C_writeback_hit 3204848 L2C_writeback_Hit Ratio: 0.99999
Core_0_L2C_writeback_miss 17
Core_0_L2C_prefetch_requested 115235236
Core_0_L2C_prefetch_issued 66134886
Core_0_L2C_prefetch_useful 1041597 L2C_Useful Ratio: 0.01575
Core_0_L2C_prefetch_useless 1611233
Core_0_L2C_prefetch_late 461586
Core_0_L2C_average_miss_latency 300.05238

Core_0_LLC_total_access 6119970
Core_0_LLC_total_hit 2948099 LLC_total_Hit Ratio: 0.48172
Core_0_LLC_total_miss 3171871
Core_0_LLC_loads 510540
Core_0_LLC_load_hit 176821 LLC_load_Hit Ratio: 0.34634
Core_0_LLC_load_miss 333719
Core_0_LLC_RFOs 362784
Core_0_LLC_RFO_hit 3096 LLC_RFO_Hit Ratio: 0.00853
Core_0_LLC_RFO_miss 359688
Core_0_LLC_prefetches 3173536
Core_0_LLC_prefetch_hit 709964 LLC_prefetch_Hit Ratio: 0.22371
Core_0_LLC_prefetch_miss 2463572
Core_0_LLC_writebacks 2073110
Core_0_LLC_writeback_hit 2058218 LLC_writeback_Hit Ratio: 0.99282
Core_0_LLC_writeback_miss 14892
Core_0_LLC_prefetch_requested 0
Core_0_LLC_prefetch_issued 0
Core_0_LLC_prefetch_useful 106260 LLC_Useful Ratio: inf
Core_0_LLC_prefetch_useless 2336161
Core_0_LLC_prefetch_late 19848
Core_0_LLC_average_miss_latency 373.52810

Core_0_major_page_fault 0
Core_0_minor_page_fault 25625

CPU 0 L1D next line prefetcher final stats
CPU 0 L2C PC-based stride prefetcher final stats
Stride Degree: 15
MK1  MARKOV_LRU_SIZE: 128
MK1  MARKOV_PREDICTION_PERCENTTHRESHOLD: 40.00000
MK1  OUTLIERS_THRESHOLD_Max: 64
MK1  OUTLIERS_THRESHOLD_Min: 32
MK2  MARKOV_LRU_SIZE: 256
MK2  MARKOV_PREDICTION_PERCENTTHRESHOLD: 30.00000
MK2  OUTLIERS_THRESHOLD_Max: 32
MK2  OUTLIERS_THRESHOLD_Min: 16
MK3  MARKOV_LRU_SIZE: 384
MK3  MARKOV_PREDICTION_PERCENTTHRESHOLD: 25.00000
MK3  OUTLIERS_THRESHOLD_Max: 16
MK3  OUTLIERS_THRESHOLD_Min: 8
MK4  MARKOV_LRU_SIZE: 512
MK4  MARKOV_PREDICTION_PERCENTTHRESHOLD: 20.00000
MK4  OUTLIERS_THRESHOLD_Max: 8
MK4  OUTLIERS_THRESHOLD_Min: 0
IPStride Degree/Access Ratio: 7.38307
MK1 IPDEltaMarkov  Degree/Access Ratio: 0.19604
MK2 IPDEltaMarkov  Degree/Access Ratio: 0.34381
MK3 IPDEltaMarkov  Degree/Access Ratio: 0.61973
MK4 IPDEltaMarkov  Degree/Access Ratio: 1.60566
Channel_0_RQ_row_buffer_hit 1731893
Channel_0_RQ_row_buffer_miss 1425071
Channel_0_WQ_row_buffer_hit 554081
Channel_0_WQ_row_buffer_miss 1161466
Channel_0_WQ_full 896
Channel_0_dbus_congested 3217608

avg_congested_cycle 11

EzSearch AVG IPC :1.12569: L2-Pf-HR :0.94794 : L2-HR :0.93456 Uful:0.01575
     > Finished combination: TraceType=770-tot Sim:592000000 Prefetcher=L2029-SecTOP-L2-MultiMarkovDelta_ip_stride_v4-MK2-P30 L1=next_line
