TRACE: [298000000][GPT-Neo_1_3B]_[h16][s512][d128] Warmup: 2000000 NumTraces: 298000000
L1:isb_ideal:L2:isb_ideal
*************************************************
   ChampSim Multicore Out-of-Order Simulator
   Last compiled: Oct 20 2024 05:12:04
*************************************************

trace_0 770-tot_memTraces_v3/memTraces[298000000][GPT-Neo_1_3B]_[h16][s512][d128].champsim.xz
L1D: Ideal ISB Prefetching
Ideal ISB Prefetching
MAIN.cc ln 751 stats print skipped
CPU  0 inst:    1000003 cyc:     503320 now IPC :1.98681: AVG IPC :1.98681: L2-Pf-HR :0.98824: L2-HR :0.85936: (Sim:0h0m5s) 
CPU  0 inst:    2000001 cyc:     981599 now IPC :2.09083: AVG IPC :2.03749: L2-Pf-HR :0.98745: L2-HR :0.90442: (Sim:0h0m10s) 

Warmup complete CPU  0 instructions:    2000001 cycles:     981599 (Simulation time: 0 hr 0 min 10 sec) 

CPU  0 inst:    3000003 cyc:    1667420 now IPC :1.45811: AVG IPC :1.45811: L2-Pf-HR :0.98755: L2-HR :0.94888: (Sim:0h0m14s) 
CPU  0 inst:    4000000 cyc:    2344793 now IPC :1.47629: AVG IPC :1.46714: L2-Pf-HR :0.98712: L2-HR :0.94929: (Sim:0h0m19s) 
CPU  0 inst:    5000003 cyc:    3030649 now IPC :1.45804: AVG IPC :1.46409: L2-Pf-HR :0.98711: L2-HR :0.94923: (Sim:0h0m23s) 
CPU  0 inst:    6000003 cyc:    3712859 now IPC :1.46582: AVG IPC :1.46453: L2-Pf-HR :0.98716: L2-HR :0.94942: (Sim:0h0m28s) 
CPU  0 inst:    7000000 cyc:    4397856 now IPC :1.45986: AVG IPC :1.46359: L2-Pf-HR :0.98635: L2-HR :0.95044: (Sim:0h0m32s) 
CPU  0 inst:    8000000 cyc:    5023217 now IPC :1.59908: AVG IPC :1.48455: L2-Pf-HR :0.98586: L2-HR :0.95252: (Sim:0h0m37s) 
CPU  0 inst:    9000003 cyc:    5874637 now IPC :1.17451: AVG IPC :1.43060: L2-Pf-HR :0.98058: L2-HR :0.94540: (Sim:0h0m42s) 
CPU  0 inst:   10000001 cyc:    6574823 now IPC :1.42819: AVG IPC :1.43030: L2-Pf-HR :0.98028: L2-HR :0.94545: (Sim:0h0m46s) 
CPU  0 inst:   11000003 cyc:    7278721 now IPC :1.42066: AVG IPC :1.42922: L2-Pf-HR :0.98042: L2-HR :0.94576: (Sim:0h0m51s) 
CPU  0 inst:   12000000 cyc:    7970569 now IPC :1.44540: AVG IPC :1.43083: L2-Pf-HR :0.98004: L2-HR :0.94579: (Sim:0h0m55s) 
CPU  0 inst:   13000003 cyc:    8677495 now IPC :1.41458: AVG IPC :1.42933: L2-Pf-HR :0.98015: L2-HR :0.94607: (Sim:0h1m0s) 
CPU  0 inst:   14000003 cyc:    9377711 now IPC :1.42813: AVG IPC :1.42923: L2-Pf-HR :0.98025: L2-HR :0.94645: (Sim:0h1m4s) 
CPU  0 inst:   15000001 cyc:   10097757 now IPC :1.38880: AVG IPC :1.42604: L2-Pf-HR :0.98066: L2-HR :0.94712: (Sim:0h1m9s) 
CPU  0 inst:   16000000 cyc:   10754096 now IPC :1.52360: AVG IPC :1.43259: L2-Pf-HR :0.98102: L2-HR :0.94821: (Sim:0h1m14s) 
CPU  0 inst:   17000002 cyc:   11630696 now IPC :1.14077: AVG IPC :1.40857: L2-Pf-HR :0.97910: L2-HR :0.94537: (Sim:0h1m19s) 
CPU  0 inst:   18000001 cyc:   12328266 now IPC :1.43355: AVG IPC :1.41011: L2-Pf-HR :0.97929: L2-HR :0.94562: (Sim:0h1m24s) 
CPU  0 inst:   19000003 cyc:   13020297 now IPC :1.44502: AVG IPC :1.41211: L2-Pf-HR :0.97937: L2-HR :0.94580: (Sim:0h1m28s) 
CPU  0 inst:   20000000 cyc:   13725472 now IPC :1.41808: AVG IPC :1.41244: L2-Pf-HR :0.97919: L2-HR :0.94566: (Sim:0h1m33s) 
CPU  0 inst:   21000003 cyc:   14427978 now IPC :1.42348: AVG IPC :1.41302: L2-Pf-HR :0.97927: L2-HR :0.94579: (Sim:0h1m37s) 
CPU  0 inst:   22000003 cyc:   15124808 now IPC :1.43507: AVG IPC :1.41411: L2-Pf-HR :0.97911: L2-HR :0.94578: (Sim:0h1m42s) 
CPU  0 inst:   23000001 cyc:   15853000 now IPC :1.37326: AVG IPC :1.41211: L2-Pf-HR :0.97944: L2-HR :0.94620: (Sim:0h1m47s) 
CPU  0 inst:   24000000 cyc:   16507271 now IPC :1.52842: AVG IPC :1.41701: L2-Pf-HR :0.97976: L2-HR :0.94691: (Sim:0h1m51s) 
CPU  0 inst:   25000000 cyc:   17381864 now IPC :1.14339: AVG IPC :1.40242: L2-Pf-HR :0.97842: L2-HR :0.94500: (Sim:0h1m57s) 
CPU  0 inst:   26000001 cyc:   18078542 now IPC :1.43538: AVG IPC :1.40376: L2-Pf-HR :0.97857: L2-HR :0.94517: (Sim:0h2m1s) 
CPU  0 inst:   27000003 cyc:   18769989 now IPC :1.44625: AVG IPC :1.40541: L2-Pf-HR :0.97867: L2-HR :0.94532: (Sim:0h2m6s) 
CPU  0 inst:   28000000 cyc:   19470220 now IPC :1.42810: AVG IPC :1.40627: L2-Pf-HR :0.97859: L2-HR :0.94525: (Sim:0h2m11s) 
CPU  0 inst:   29000003 cyc:   20170747 now IPC :1.42750: AVG IPC :1.40705: L2-Pf-HR :0.97869: L2-HR :0.94535: (Sim:0h2m16s) 
CPU  0 inst:   30000002 cyc:   20863216 now IPC :1.44411: AVG IPC :1.40834: L2-Pf-HR :0.97861: L2-HR :0.94536: (Sim:0h2m21s) 
CPU  0 inst:   31000002 cyc:   21587625 now IPC :1.38044: AVG IPC :1.40736: L2-Pf-HR :0.97889: L2-HR :0.94568: (Sim:0h2m26s) 
CPU  0 inst:   32000000 cyc:   22242148 now IPC :1.52783: AVG IPC :1.41106: L2-Pf-HR :0.97916: L2-HR :0.94619: (Sim:0h2m30s) 
CPU  0 inst:   33000002 cyc:   23118115 now IPC :1.14160: AVG IPC :1.40040: L2-Pf-HR :0.97836: L2-HR :0.94494: (Sim:0h2m36s) 
CPU  0 inst:   34000000 cyc:   23823061 now IPC :1.41855: AVG IPC :1.40096: L2-Pf-HR :0.97838: L2-HR :0.94496: (Sim:0h2m41s) 
CPU  0 inst:   35000003 cyc:   24520130 now IPC :1.43458: AVG IPC :1.40196: L2-Pf-HR :0.97846: L2-HR :0.94509: (Sim:0h2m45s) 
CPU  0 inst:   36000000 cyc:   25226496 now IPC :1.41569: AVG IPC :1.40236: L2-Pf-HR :0.97855: L2-HR :0.94517: (Sim:0h2m50s) 
CPU  0 inst:   37000000 cyc:   25919398 now IPC :1.44321: AVG IPC :1.40349: L2-Pf-HR :0.97861: L2-HR :0.94527: (Sim:0h2m55s) 
CPU  0 inst:   38000002 cyc:   26626226 now IPC :1.41477: AVG IPC :1.40380: L2-Pf-HR :0.97856: L2-HR :0.94524: (Sim:0h3m0s) 
CPU  0 inst:   39000000 cyc:   27356291 now IPC :1.36974: AVG IPC :1.40286: L2-Pf-HR :0.97878: L2-HR :0.94547: (Sim:0h3m5s) 
CPU  0 inst:   40000000 cyc:   28010742 now IPC :1.52800: AVG IPC :1.40589: L2-Pf-HR :0.97900: L2-HR :0.94588: (Sim:0h3m9s) 
CPU  0 inst:   41000002 cyc:   28888461 now IPC :1.13932: AVG IPC :1.39751: L2-Pf-HR :0.97829: L2-HR :0.94481: (Sim:0h3m15s) 
CPU  0 inst:   42000001 cyc:   29578055 now IPC :1.45013: AVG IPC :1.39877: L2-Pf-HR :0.97832: L2-HR :0.94488: (Sim:0h3m19s) 
CPU  0 inst:   43000003 cyc:   30278016 now IPC :1.42865: AVG IPC :1.39949: L2-Pf-HR :0.97840: L2-HR :0.94495: (Sim:0h3m24s) 
CPU  0 inst:   44000000 cyc:   30978376 now IPC :1.42783: AVG IPC :1.40015: L2-Pf-HR :0.97837: L2-HR :0.94492: (Sim:0h3m29s) 
CPU  0 inst:   45000000 cyc:   31671377 now IPC :1.44300: AVG IPC :1.40112: L2-Pf-HR :0.97844: L2-HR :0.94501: (Sim:0h3m34s) 
CPU  0 inst:   46000002 cyc:   32376388 now IPC :1.41842: AVG IPC :1.40151: L2-Pf-HR :0.97843: L2-HR :0.94501: (Sim:0h3m38s) 
CPU  0 inst:   47000002 cyc:   33098922 now IPC :1.38402: AVG IPC :1.40111: L2-Pf-HR :0.97861: L2-HR :0.94518: (Sim:0h3m43s) 
CPU  0 inst:   48000000 cyc:   33756834 now IPC :1.51996: AVG IPC :1.40350: L2-Pf-HR :0.97881: L2-HR :0.94553: (Sim:0h3m48s) 
CPU  0 inst:   49000002 cyc:   34626344 now IPC :1.15008: AVG IPC :1.39695: L2-Pf-HR :0.97831: L2-HR :0.94472: (Sim:0h3m54s) 
CPU  0 inst:   50000001 cyc:   35319283 now IPC :1.44313: AVG IPC :1.39788: L2-Pf-HR :0.97831: L2-HR :0.94476: (Sim:0h3m58s) 
CPU  0 inst:   51000003 cyc:   36020566 now IPC :1.42596: AVG IPC :1.39844: L2-Pf-HR :0.97837: L2-HR :0.94481: (Sim:0h4m3s) 
CPU  0 inst:   52000000 cyc:   36731555 now IPC :1.40649: AVG IPC :1.39860: L2-Pf-HR :0.97844: L2-HR :0.94487: (Sim:0h4m8s) 
CPU  0 inst:   53000003 cyc:   37423758 now IPC :1.44467: AVG IPC :1.39948: L2-Pf-HR :0.97849: L2-HR :0.94495: (Sim:0h4m13s) 
CPU  0 inst:   54000002 cyc:   38132040 now IPC :1.41187: AVG IPC :1.39971: L2-Pf-HR :0.97847: L2-HR :0.94492: (Sim:0h4m17s) 
CPU  0 inst:   55000000 cyc:   38862452 now IPC :1.36909: AVG IPC :1.39912: L2-Pf-HR :0.97861: L2-HR :0.94507: (Sim:0h4m23s) 
CPU  0 inst:   56000000 cyc:   39518288 now IPC :1.52477: AVG IPC :1.40126: L2-Pf-HR :0.97880: L2-HR :0.94537: (Sim:0h4m27s) 
CPU  0 inst:   57000002 cyc:   40390072 now IPC :1.14708: AVG IPC :1.39564: L2-Pf-HR :0.97833: L2-HR :0.94464: (Sim:0h4m33s) 
CPU  0 inst:   58000001 cyc:   41075231 now IPC :1.45951: AVG IPC :1.39673: L2-Pf-HR :0.97835: L2-HR :0.94469: (Sim:0h4m38s) 
CPU  0 inst:   59000000 cyc:   41776465 now IPC :1.42606: AVG IPC :1.39723: L2-Pf-HR :0.97840: L2-HR :0.94474: (Sim:0h4m42s) 
CPU  0 inst:   60000000 cyc:   42467315 now IPC :1.44749: AVG IPC :1.39807: L2-Pf-HR :0.97840: L2-HR :0.94475: (Sim:0h4m47s) 
CPU  0 inst:   61000003 cyc:   43165084 now IPC :1.43314: AVG IPC :1.39865: L2-Pf-HR :0.97844: L2-HR :0.94479: (Sim:0h4m52s) 
CPU  0 inst:   62000001 cyc:   43866365 now IPC :1.42596: AVG IPC :1.39910: L2-Pf-HR :0.97843: L2-HR :0.94478: (Sim:0h4m57s) 
CPU  0 inst:   63000000 cyc:   44597213 now IPC :1.36827: AVG IPC :1.39858: L2-Pf-HR :0.97857: L2-HR :0.94491: (Sim:0h5m2s) 
CPU  0 inst:   64000000 cyc:   45254517 now IPC :1.52137: AVG IPC :1.40040: L2-Pf-HR :0.97874: L2-HR :0.94517: (Sim:0h5m7s) 
CPU  0 inst:   65000002 cyc:   46119418 now IPC :1.15620: AVG IPC :1.39573: L2-Pf-HR :0.97830: L2-HR :0.94454: (Sim:0h5m12s) 
CPU  0 inst:   66000000 cyc:   46818349 now IPC :1.43075: AVG IPC :1.39626: L2-Pf-HR :0.97824: L2-HR :0.94447: (Sim:0h5m17s) 
CPU  0 inst:   67000003 cyc:   47517023 now IPC :1.43129: AVG IPC :1.39679: L2-Pf-HR :0.97829: L2-HR :0.94452: (Sim:0h5m22s) 
CPU  0 inst:   68000000 cyc:   48208338 now IPC :1.44651: AVG IPC :1.39751: L2-Pf-HR :0.97828: L2-HR :0.94452: (Sim:0h5m26s) 
CPU  0 inst:   69000003 cyc:   48910131 now IPC :1.42493: AVG IPC :1.39791: L2-Pf-HR :0.97834: L2-HR :0.94457: (Sim:0h5m31s) 
CPU  0 inst:   70000000 cyc:   49603449 now IPC :1.44234: AVG IPC :1.39855: L2-Pf-HR :0.97840: L2-HR :0.94464: (Sim:0h5m36s) 
CPU  0 inst:   71000000 cyc:   50337500 now IPC :1.36230: AVG IPC :1.39801: L2-Pf-HR :0.97845: L2-HR :0.94469: (Sim:0h5m41s) 
CPU  0 inst:   72000000 cyc:   50995092 now IPC :1.52070: AVG IPC :1.39962: L2-Pf-HR :0.97861: L2-HR :0.94491: (Sim:0h5m46s) 
CPU  0 inst:   73000003 cyc:   51855901 now IPC :1.16170: AVG IPC :1.39560: L2-Pf-HR :0.97825: L2-HR :0.94438: (Sim:0h5m51s) 
CPU  0 inst:   74000002 cyc:   52555622 now IPC :1.42914: AVG IPC :1.39605: L2-Pf-HR :0.97827: L2-HR :0.94440: (Sim:0h5m56s) 
CPU  0 inst:   75000002 cyc:   53258166 now IPC :1.42340: AVG IPC :1.39642: L2-Pf-HR :0.97832: L2-HR :0.94444: (Sim:0h6m1s) 
CPU  0 inst:   76000000 cyc:   53950690 now IPC :1.44399: AVG IPC :1.39704: L2-Pf-HR :0.97833: L2-HR :0.94447: (Sim:0h6m4s) 
CPU  0 inst:   77000003 cyc:   54654596 now IPC :1.42065: AVG IPC :1.39735: L2-Pf-HR :0.97836: L2-HR :0.94449: (Sim:0h6m9s) 
CPU  0 inst:   78000002 cyc:   55346450 now IPC :1.44539: AVG IPC :1.39796: L2-Pf-HR :0.97835: L2-HR :0.94450: (Sim:0h6m14s) 
CPU  0 inst:   79000001 cyc:   56084363 now IPC :1.35517: AVG IPC :1.39739: L2-Pf-HR :0.97846: L2-HR :0.94459: (Sim:0h6m19s) 
CPU  0 inst:   80000000 cyc:   56739451 now IPC :1.52651: AVG IPC :1.39891: L2-Pf-HR :0.97859: L2-HR :0.94478: (Sim:0h6m23s) 
CPU  0 inst:   81000002 cyc:   57607505 now IPC :1.15200: AVG IPC :1.39512: L2-Pf-HR :0.97830: L2-HR :0.94433: (Sim:0h6m29s) 
CPU  0 inst:   82000001 cyc:   58306600 now IPC :1.43042: AVG IPC :1.39555: L2-Pf-HR :0.97831: L2-HR :0.94436: (Sim:0h6m34s) 
CPU  0 inst:   83000003 cyc:   58993946 now IPC :1.45487: AVG IPC :1.39625: L2-Pf-HR :0.97836: L2-HR :0.94441: (Sim:0h6m38s) 
CPU  0 inst:   84000000 cyc:   59693091 now IPC :1.43031: AVG IPC :1.39666: L2-Pf-HR :0.97834: L2-HR :0.94440: (Sim:0h6m43s) 
CPU  0 inst:   85000003 cyc:   60398203 now IPC :1.41822: AVG IPC :1.39692: L2-Pf-HR :0.97839: L2-HR :0.94444: (Sim:0h6m48s) 
CPU  0 inst:   86000002 cyc:   61088721 now IPC :1.44819: AVG IPC :1.39750: L2-Pf-HR :0.97839: L2-HR :0.94447: (Sim:0h6m52s) 
CPU  0 inst:   87000001 cyc:   61828010 now IPC :1.35265: AVG IPC :1.39696: L2-Pf-HR :0.97848: L2-HR :0.94455: (Sim:0h6m57s) 
CPU  0 inst:   88000000 cyc:   62476490 now IPC :1.54207: AVG IPC :1.39849: L2-Pf-HR :0.97861: L2-HR :0.94473: (Sim:0h7m2s) 
CPU  0 inst:   89000002 cyc:   63339204 now IPC :1.15913: AVG IPC :1.39518: L2-Pf-HR :0.97833: L2-HR :0.94430: (Sim:0h7m7s) 
CPU  0 inst:   90000001 cyc:   64047269 now IPC :1.41230: AVG IPC :1.39537: L2-Pf-HR :0.97837: L2-HR :0.94434: (Sim:0h7m12s) 
CPU  0 inst:   91000003 cyc:   64739983 now IPC :1.44360: AVG IPC :1.39589: L2-Pf-HR :0.97841: L2-HR :0.94439: (Sim:0h7m17s) 
CPU  0 inst:   92000000 cyc:   65441810 now IPC :1.42485: AVG IPC :1.39621: L2-Pf-HR :0.97838: L2-HR :0.94437: (Sim:0h7m22s) 
CPU  0 inst:   93000003 cyc:   66143022 now IPC :1.42611: AVG IPC :1.39653: L2-Pf-HR :0.97839: L2-HR :0.94437: (Sim:0h7m27s) 
CPU  0 inst:   94000002 cyc:   66837760 now IPC :1.43939: AVG IPC :1.39698: L2-Pf-HR :0.97838: L2-HR :0.94438: (Sim:0h7m31s) 
CPU  0 inst:   95000002 cyc:   67586094 now IPC :1.33630: AVG IPC :1.39630: L2-Pf-HR :0.97847: L2-HR :0.94445: (Sim:0h7m36s) 
CPU  0 inst:   96000000 cyc:   68241953 now IPC :1.52471: AVG IPC :1.39755: L2-Pf-HR :0.97858: L2-HR :0.94462: (Sim:0h7m41s) 
CPU  0 inst:   97000002 cyc:   69109124 now IPC :1.15318: AVG IPC :1.39444: L2-Pf-HR :0.97835: L2-HR :0.94425: (Sim:0h7m45s) 
CPU  0 inst:   98000001 cyc:   69813025 now IPC :1.42065: AVG IPC :1.39471: L2-Pf-HR :0.97831: L2-HR :0.94421: (Sim:0h7m49s) 
CPU  0 inst:   99000003 cyc:   70506808 now IPC :1.44138: AVG IPC :1.39518: L2-Pf-HR :0.97834: L2-HR :0.94425: (Sim:0h7m54s) 
CPU  0 inst:  100000000 cyc:   71208863 now IPC :1.42439: AVG IPC :1.39547: L2-Pf-HR :0.97833: L2-HR :0.94425: (Sim:0h7m59s) 
CPU  0 inst:  101000003 cyc:   71902505 now IPC :1.44167: AVG IPC :1.39592: L2-Pf-HR :0.97833: L2-HR :0.94426: (Sim:0h8m4s) 
CPU  0 inst:  102000002 cyc:   72606281 now IPC :1.42091: AVG IPC :1.39617: L2-Pf-HR :0.97836: L2-HR :0.94430: (Sim:0h8m8s) 
CPU  0 inst:  103000003 cyc:   73346040 now IPC :1.35179: AVG IPC :1.39571: L2-Pf-HR :0.97839: L2-HR :0.94432: (Sim:0h8m13s) 
CPU  0 inst:  104000000 cyc:   74002353 now IPC :1.52366: AVG IPC :1.39686: L2-Pf-HR :0.97850: L2-HR :0.94447: (Sim:0h8m18s) 
CPU  0 inst:  105000002 cyc:   74869215 now IPC :1.15359: AVG IPC :1.39401: L2-Pf-HR :0.97828: L2-HR :0.94413: (Sim:0h8m24s) 
CPU  0 inst:  106000001 cyc:   75565580 now IPC :1.43603: AVG IPC :1.39440: L2-Pf-HR :0.97828: L2-HR :0.94414: (Sim:0h8m29s) 
CPU  0 inst:  107000003 cyc:   76267764 now IPC :1.42413: AVG IPC :1.39468: L2-Pf-HR :0.97830: L2-HR :0.94417: (Sim:0h8m33s) 
CPU  0 inst:  108000000 cyc:   76969935 now IPC :1.42415: AVG IPC :1.39495: L2-Pf-HR :0.97829: L2-HR :0.94416: (Sim:0h8m38s) 
CPU  0 inst:  109000003 cyc:   77664553 now IPC :1.43964: AVG IPC :1.39536: L2-Pf-HR :0.97832: L2-HR :0.94419: (Sim:0h8m43s) 
CPU  0 inst:  110000001 cyc:   78372424 now IPC :1.41268: AVG IPC :1.39551: L2-Pf-HR :0.97835: L2-HR :0.94423: (Sim:0h8m48s) 
CPU  0 inst:  111000000 cyc:   79117946 now IPC :1.34134: AVG IPC :1.39500: L2-Pf-HR :0.97837: L2-HR :0.94424: (Sim:0h8m53s) 
CPU  0 inst:  112000000 cyc:   79776105 now IPC :1.51939: AVG IPC :1.39604: L2-Pf-HR :0.97847: L2-HR :0.94437: (Sim:0h8m58s) 
CPU  0 inst:  113000001 cyc:   80637831 now IPC :1.16046: AVG IPC :1.39349: L2-Pf-HR :0.97827: L2-HR :0.94407: (Sim:0h9m3s) 
CPU  0 inst:  114000000 cyc:   81329356 now IPC :1.44608: AVG IPC :1.39394: L2-Pf-HR :0.97830: L2-HR :0.94411: (Sim:0h9m7s) 
CPU  0 inst:  115000000 cyc:   82028875 now IPC :1.42955: AVG IPC :1.39425: L2-Pf-HR :0.97833: L2-HR :0.94414: (Sim:0h9m12s) 
CPU  0 inst:  116000000 cyc:   82730764 now IPC :1.42473: AVG IPC :1.39451: L2-Pf-HR :0.97833: L2-HR :0.94413: (Sim:0h9m17s) 
CPU  0 inst:  117000000 cyc:   83421259 now IPC :1.44824: AVG IPC :1.39496: L2-Pf-HR :0.97836: L2-HR :0.94417: (Sim:0h9m22s) 
CPU  0 inst:  118000002 cyc:   84126094 now IPC :1.41877: AVG IPC :1.39516: L2-Pf-HR :0.97839: L2-HR :0.94421: (Sim:0h9m26s) 
CPU  0 inst:  119000000 cyc:   84863215 now IPC :1.35663: AVG IPC :1.39482: L2-Pf-HR :0.97841: L2-HR :0.94423: (Sim:0h9m31s) 
CPU  0 inst:  120000000 cyc:   85518698 now IPC :1.52559: AVG IPC :1.39584: L2-Pf-HR :0.97850: L2-HR :0.94436: (Sim:0h9m36s) 
CPU  0 inst:  121000001 cyc:   86379021 now IPC :1.16236: AVG IPC :1.39348: L2-Pf-HR :0.97831: L2-HR :0.94406: (Sim:0h9m42s) 
CPU  0 inst:  122000001 cyc:   87072110 now IPC :1.44282: AVG IPC :1.39388: L2-Pf-HR :0.97829: L2-HR :0.94406: (Sim:0h9m46s) 
CPU  0 inst:  123000002 cyc:   87773378 now IPC :1.42599: AVG IPC :1.39414: L2-Pf-HR :0.97832: L2-HR :0.94409: (Sim:0h9m51s) 
CPU  0 inst:  124000000 cyc:   88465290 now IPC :1.44527: AVG IPC :1.39455: L2-Pf-HR :0.97831: L2-HR :0.94408: (Sim:0h9m56s) 
CPU  0 inst:  125000000 cyc:   89166366 now IPC :1.42638: AVG IPC :1.39480: L2-Pf-HR :0.97835: L2-HR :0.94412: (Sim:0h10m0s) 
CPU  0 inst:  126000002 cyc:   89870920 now IPC :1.41934: AVG IPC :1.39499: L2-Pf-HR :0.97837: L2-HR :0.94415: (Sim:0h10m3s) 
CPU  0 inst:  127000002 cyc:   90611320 now IPC :1.35062: AVG IPC :1.39463: L2-Pf-HR :0.97843: L2-HR :0.94419: (Sim:0h10m6s) 
CPU  0 inst:  128000000 cyc:   91262327 now IPC :1.53608: AVG IPC :1.39565: L2-Pf-HR :0.97852: L2-HR :0.94432: (Sim:0h10m11s) 
CPU  0 inst:  129000000 cyc:   93693940 now IPC :0.41125: AVG IPC :1.36983: L2-Pf-HR :0.97858: L2-HR :0.94206: (Sim:0h10m20s) 
CPU  0 inst:  130000001 cyc:  100106579 now IPC :0.15594: AVG IPC :1.29130: L2-Pf-HR :0.97858: L2-HR :0.93500: (Sim:0h10m43s) 
CPU  0 inst:  131000000 cyc:  106521513 now IPC :0.15589: AVG IPC :1.22229: L2-Pf-HR :0.97858: L2-HR :0.92816: (Sim:0h11m6s) 
CPU  0 inst:  132000000 cyc:  111879135 now IPC :0.18665: AVG IPC :1.17225: L2-Pf-HR :0.97858: L2-HR :0.92680: (Sim:0h11m18s) 
CPU  0 inst:  133000000 cyc:  117267452 now IPC :0.18559: AVG IPC :1.12653: L2-Pf-HR :0.97858: L2-HR :0.92578: (Sim:0h11m30s) 
CPU  0 inst:  134000000 cyc:  122299960 now IPC :0.19871: AVG IPC :1.08805: L2-Pf-HR :0.97858: L2-HR :0.92476: (Sim:0h11m41s) 
CPU  0 inst:  135000002 cyc:  127219650 now IPC :0.20327: AVG IPC :1.05357: L2-Pf-HR :0.97858: L2-HR :0.92374: (Sim:0h11m52s) 
CPU  0 inst:  136000000 cyc:  132190566 now IPC :0.20117: AVG IPC :1.02127: L2-Pf-HR :0.97858: L2-HR :0.92273: (Sim:0h12m3s) 
CPU  0 inst:  137000000 cyc:  137255115 now IPC :0.19745: AVG IPC :0.99065: L2-Pf-HR :0.97858: L2-HR :0.92172: (Sim:0h12m14s) 
CPU  0 inst:  138000000 cyc:  142306829 now IPC :0.19795: AVG IPC :0.96232: L2-Pf-HR :0.97858: L2-HR :0.92071: (Sim:0h12m25s) 
CPU  0 inst:  139000000 cyc:  147318646 now IPC :0.19953: AVG IPC :0.93619: L2-Pf-HR :0.97858: L2-HR :0.91971: (Sim:0h12m36s) 
CPU  0 inst:  140000000 cyc:  152295757 now IPC :0.20092: AVG IPC :0.91201: L2-Pf-HR :0.97858: L2-HR :0.91871: (Sim:0h12m47s) 
CPU  0 inst:  141000002 cyc:  157365867 now IPC :0.19723: AVG IPC :0.88884: L2-Pf-HR :0.97858: L2-HR :0.91771: (Sim:0h12m58s) 
CPU  0 inst:  142000002 cyc:  162394362 now IPC :0.19887: AVG IPC :0.86734: L2-Pf-HR :0.97858: L2-HR :0.91672: (Sim:0h13m5s) 
CPU  0 inst:  143000001 cyc:  167306080 now IPC :0.20359: AVG IPC :0.84774: L2-Pf-HR :0.97858: L2-HR :0.91573: (Sim:0h13m12s) 
CPU  0 inst:  144000000 cyc:  172224365 now IPC :0.20332: AVG IPC :0.82923: L2-Pf-HR :0.97858: L2-HR :0.91474: (Sim:0h13m21s) 
CPU  0 inst:  145000000 cyc:  177253182 now IPC :0.19885: AVG IPC :0.81125: L2-Pf-HR :0.97858: L2-HR :0.91376: (Sim:0h13m32s) 
CPU  0 inst:  146000000 cyc:  182206577 now IPC :0.20188: AVG IPC :0.79459: L2-Pf-HR :0.97858: L2-HR :0.91278: (Sim:0h13m43s) 
CPU  0 inst:  147000000 cyc:  187221217 now IPC :0.19942: AVG IPC :0.77857: L2-Pf-HR :0.97858: L2-HR :0.91181: (Sim:0h13m55s) 
CPU  0 inst:  148000000 cyc:  192149013 now IPC :0.20293: AVG IPC :0.76373: L2-Pf-HR :0.97858: L2-HR :0.91083: (Sim:0h14m2s) 
CPU  0 inst:  149000000 cyc:  196999016 now IPC :0.20619: AVG IPC :0.74993: L2-Pf-HR :0.97858: L2-HR :0.90986: (Sim:0h14m9s) 
CPU  0 inst:  150000000 cyc:  202057058 now IPC :0.19770: AVG IPC :0.73604: L2-Pf-HR :0.97858: L2-HR :0.90890: (Sim:0h14m16s) 
CPU  0 inst:  151000002 cyc:  207060407 now IPC :0.19987: AVG IPC :0.72302: L2-Pf-HR :0.97858: L2-HR :0.90793: (Sim:0h14m23s) 
CPU  0 inst:  152000000 cyc:  212205580 now IPC :0.19436: AVG IPC :0.71015: L2-Pf-HR :0.97858: L2-HR :0.90697: (Sim:0h14m31s) 
CPU  0 inst:  153000002 cyc:  217239680 now IPC :0.19865: AVG IPC :0.69824: L2-Pf-HR :0.97858: L2-HR :0.90602: (Sim:0h14m38s) 
CPU  0 inst:  154000000 cyc:  222145441 now IPC :0.20384: AVG IPC :0.68727: L2-Pf-HR :0.97858: L2-HR :0.90506: (Sim:0h14m45s) 
CPU  0 inst:  155000000 cyc:  227092162 now IPC :0.20215: AVG IPC :0.67666: L2-Pf-HR :0.97858: L2-HR :0.90411: (Sim:0h14m52s) 
CPU  0 inst:  156000000 cyc:  232099078 now IPC :0.19972: AVG IPC :0.66633: L2-Pf-HR :0.97858: L2-HR :0.90317: (Sim:0h14m59s) 
CPU  0 inst:  157000000 cyc:  237158097 now IPC :0.19767: AVG IPC :0.65629: L2-Pf-HR :0.97858: L2-HR :0.90222: (Sim:0h15m7s) 
CPU  0 inst:  158000000 cyc:  242109541 now IPC :0.20196: AVG IPC :0.64696: L2-Pf-HR :0.97858: L2-HR :0.90128: (Sim:0h15m18s) 
CPU  0 inst:  159000000 cyc:  247101261 now IPC :0.20033: AVG IPC :0.63790: L2-Pf-HR :0.97858: L2-HR :0.90034: (Sim:0h15m27s) 
CPU  0 inst:  160000000 cyc:  252135927 now IPC :0.19862: AVG IPC :0.62910: L2-Pf-HR :0.97858: L2-HR :0.89941: (Sim:0h15m34s) 
CPU  0 inst:  161000002 cyc:  257193406 now IPC :0.19773: AVG IPC :0.62058: L2-Pf-HR :0.97858: L2-HR :0.89848: (Sim:0h15m42s) 
CPU  0 inst:  162000001 cyc:  262206835 now IPC :0.19946: AVG IPC :0.61250: L2-Pf-HR :0.97858: L2-HR :0.89755: (Sim:0h15m53s) 
CPU  0 inst:  163000000 cyc:  267211196 now IPC :0.19983: AVG IPC :0.60474: L2-Pf-HR :0.97858: L2-HR :0.89662: (Sim:0h16m4s) 
CPU  0 inst:  164000000 cyc:  269443695 now IPC :0.44793: AVG IPC :0.60344: L2-Pf-HR :0.97802: L2-HR :0.89582: (Sim:0h16m12s) 
CPU  0 inst:  165000003 cyc:  270156077 now IPC :1.40375: AVG IPC :0.60556: L2-Pf-HR :0.97758: L2-HR :0.89584: (Sim:0h16m17s) 
CPU  0 inst:  166000001 cyc:  270921479 now IPC :1.30650: AVG IPC :0.60754: L2-Pf-HR :0.97718: L2-HR :0.89588: (Sim:0h16m22s) 
CPU  0 inst:  167000002 cyc:  271793561 now IPC :1.14668: AVG IPC :0.60928: L2-Pf-HR :0.97674: L2-HR :0.89568: (Sim:0h16m28s) 
CPU  0 inst:  168000000 cyc:  272356259 now IPC :1.77715: AVG IPC :0.61170: L2-Pf-HR :0.97623: L2-HR :0.89562: (Sim:0h16m32s) 
CPU  0 inst:  169000002 cyc:  273017987 now IPC :1.51120: AVG IPC :0.61389: L2-Pf-HR :0.97573: L2-HR :0.89552: (Sim:0h16m37s) 
CPU  0 inst:  170000001 cyc:  273743335 now IPC :1.37865: AVG IPC :0.61592: L2-Pf-HR :0.97557: L2-HR :0.89560: (Sim:0h16m43s) 
CPU  0 inst:  171000002 cyc:  274299364 now IPC :1.79847: AVG IPC :0.61833: L2-Pf-HR :0.97537: L2-HR :0.89575: (Sim:0h16m47s) 
CPU  0 inst:  172000000 cyc:  275186577 now IPC :1.12712: AVG IPC :0.61997: L2-Pf-HR :0.97506: L2-HR :0.89560: (Sim:0h16m53s) 
CPU  0 inst:  173000002 cyc:  275842208 now IPC :1.52525: AVG IPC :0.62213: L2-Pf-HR :0.97464: L2-HR :0.89553: (Sim:0h16m58s) 
CPU  0 inst:  174000000 cyc:  276502943 now IPC :1.51346: AVG IPC :0.62427: L2-Pf-HR :0.97416: L2-HR :0.89540: (Sim:0h17m3s) 
CPU  0 inst:  175000003 cyc:  277411088 now IPC :1.10115: AVG IPC :0.62584: L2-Pf-HR :0.97395: L2-HR :0.89521: (Sim:0h17m8s) 
CPU  0 inst:  176000000 cyc:  277969720 now IPC :1.79008: AVG IPC :0.62819: L2-Pf-HR :0.97349: L2-HR :0.89510: (Sim:0h17m13s) 
CPU  0 inst:  177000001 cyc:  278529762 now IPC :1.78558: AVG IPC :0.63052: L2-Pf-HR :0.97306: L2-HR :0.89502: (Sim:0h17m18s) 
CPU  0 inst:  178000001 cyc:  279170414 now IPC :1.56091: AVG IPC :0.63266: L2-Pf-HR :0.97287: L2-HR :0.89510: (Sim:0h17m23s) 
CPU  0 inst:  179000003 cyc:  279871676 now IPC :1.42600: AVG IPC :0.63466: L2-Pf-HR :0.97262: L2-HR :0.89499: (Sim:0h17m28s) 
CPU  0 inst:  180000000 cyc:  280484837 now IPC :1.63089: AVG IPC :0.63684: L2-Pf-HR :0.97251: L2-HR :0.89515: (Sim:0h17m33s) 
CPU  0 inst:  181000003 cyc:  281375052 now IPC :1.12333: AVG IPC :0.63839: L2-Pf-HR :0.97204: L2-HR :0.89477: (Sim:0h17m39s) 
CPU  0 inst:  182000001 cyc:  282046781 now IPC :1.48869: AVG IPC :0.64042: L2-Pf-HR :0.97168: L2-HR :0.89465: (Sim:0h17m43s) 
CPU  0 inst:  183000003 cyc:  282787394 now IPC :1.35024: AVG IPC :0.64229: L2-Pf-HR :0.97140: L2-HR :0.89459: (Sim:0h17m48s) 
CPU  0 inst:  184000000 cyc:  283581205 now IPC :1.25974: AVG IPC :0.64402: L2-Pf-HR :0.97102: L2-HR :0.89427: (Sim:0h17m54s) 
CPU  0 inst:  185000000 cyc:  284143093 now IPC :1.77971: AVG IPC :0.64627: L2-Pf-HR :0.97063: L2-HR :0.89418: (Sim:0h17m59s) 
CPU  0 inst:  186000001 cyc:  284802378 now IPC :1.51680: AVG IPC :0.64830: L2-Pf-HR :0.97026: L2-HR :0.89405: (Sim:0h18m3s) 
CPU  0 inst:  187000003 cyc:  285494633 now IPC :1.44456: AVG IPC :0.65023: L2-Pf-HR :0.97010: L2-HR :0.89399: (Sim:0h18m6s) 
CPU  0 inst:  188000000 cyc:  286060833 now IPC :1.76616: AVG IPC :0.65245: L2-Pf-HR :0.96994: L2-HR :0.89408: (Sim:0h18m10s) 
CPU  0 inst:  189000000 cyc:  286957943 now IPC :1.11469: AVG IPC :0.65390: L2-Pf-HR :0.96965: L2-HR :0.89379: (Sim:0h18m14s) 
CPU  0 inst:  190000002 cyc:  287635446 now IPC :1.47601: AVG IPC :0.65584: L2-Pf-HR :0.96932: L2-HR :0.89368: (Sim:0h18m18s) 
CPU  0 inst:  191000001 cyc:  288318665 now IPC :1.46366: AVG IPC :0.65776: L2-Pf-HR :0.96891: L2-HR :0.89353: (Sim:0h18m22s) 
CPU  0 inst:  192000000 cyc:  289206269 now IPC :1.12663: AVG IPC :0.65921: L2-Pf-HR :0.96872: L2-HR :0.89324: (Sim:0h18m28s) 
CPU  0 inst:  193000003 cyc:  289772927 now IPC :1.76474: AVG IPC :0.66138: L2-Pf-HR :0.96834: L2-HR :0.89309: (Sim:0h18m33s) 
CPU  0 inst:  194000002 cyc:  290346652 now IPC :1.74299: AVG IPC :0.66352: L2-Pf-HR :0.96797: L2-HR :0.89296: (Sim:0h18m38s) 
CPU  0 inst:  195000002 cyc:  291068364 now IPC :1.38559: AVG IPC :0.66532: L2-Pf-HR :0.96784: L2-HR :0.89291: (Sim:0h18m43s) 
CPU  0 inst:  196000000 cyc:  291689295 now IPC :1.61048: AVG IPC :0.66734: L2-Pf-HR :0.96762: L2-HR :0.89283: (Sim:0h18m48s) 
CPU  0 inst:  197000003 cyc:  292300257 now IPC :1.63677: AVG IPC :0.66937: L2-Pf-HR :0.96755: L2-HR :0.89294: (Sim:0h18m53s) 
CPU  0 inst:  198000002 cyc:  293194332 now IPC :1.11847: AVG IPC :0.67074: L2-Pf-HR :0.96714: L2-HR :0.89254: (Sim:0h18m59s) 
CPU  0 inst:  199000003 cyc:  293878922 now IPC :1.46073: AVG IPC :0.67259: L2-Pf-HR :0.96682: L2-HR :0.89236: (Sim:0h19m4s) 
CPU  0 inst:  200000000 cyc:  294616449 now IPC :1.35588: AVG IPC :0.67431: L2-Pf-HR :0.96663: L2-HR :0.89229: (Sim:0h19m9s) 
CPU  0 inst:  201000001 cyc:  295403274 now IPC :1.27093: AVG IPC :0.67590: L2-Pf-HR :0.96628: L2-HR :0.89194: (Sim:0h19m14s) 
CPU  0 inst:  202000000 cyc:  295971826 now IPC :1.75885: AVG IPC :0.67799: L2-Pf-HR :0.96596: L2-HR :0.89184: (Sim:0h19m18s) 
CPU  0 inst:  203000000 cyc:  296635386 now IPC :1.50702: AVG IPC :0.67985: L2-Pf-HR :0.96566: L2-HR :0.89169: (Sim:0h19m23s) 
CPU  0 inst:  204000000 cyc:  297327667 now IPC :1.44450: AVG IPC :0.68164: L2-Pf-HR :0.96553: L2-HR :0.89161: (Sim:0h19m29s) 
CPU  0 inst:  205000002 cyc:  297904497 now IPC :1.73362: AVG IPC :0.68368: L2-Pf-HR :0.96540: L2-HR :0.89168: (Sim:0h19m33s) 
CPU  0 inst:  206000001 cyc:  298803822 now IPC :1.11194: AVG IPC :0.68497: L2-Pf-HR :0.96516: L2-HR :0.89138: (Sim:0h19m38s) 
CPU  0 inst:  207000003 cyc:  299476785 now IPC :1.48597: AVG IPC :0.68678: L2-Pf-HR :0.96489: L2-HR :0.89126: (Sim:0h19m41s) 
CPU  0 inst:  208000000 cyc:  300225816 now IPC :1.33505: AVG IPC :0.68840: L2-Pf-HR :0.96455: L2-HR :0.89104: (Sim:0h19m44s) 
CPU  0 inst:  209000002 cyc:  301051251 now IPC :1.21148: AVG IPC :0.68984: L2-Pf-HR :0.96440: L2-HR :0.89086: (Sim:0h19m48s) 
CPU  0 inst:  210000000 cyc:  301620312 now IPC :1.75728: AVG IPC :0.69186: L2-Pf-HR :0.96408: L2-HR :0.89074: (Sim:0h19m51s) 
CPU  0 inst:  211000002 cyc:  302207647 now IPC :1.70261: AVG IPC :0.69383: L2-Pf-HR :0.96375: L2-HR :0.89060: (Sim:0h19m55s) 
CPU  0 inst:  212000000 cyc:  302977478 now IPC :1.29898: AVG IPC :0.69537: L2-Pf-HR :0.96365: L2-HR :0.89054: (Sim:0h19m59s) 
CPU  0 inst:  213000001 cyc:  303537112 now IPC :1.78688: AVG IPC :0.69739: L2-Pf-HR :0.96352: L2-HR :0.89062: (Sim:0h20m2s) 
CPU  0 inst:  214000002 cyc:  304153787 now IPC :1.62160: AVG IPC :0.69927: L2-Pf-HR :0.96350: L2-HR :0.89081: (Sim:0h20m5s) 
CPU  0 inst:  215000000 cyc:  305065154 now IPC :1.09725: AVG IPC :0.70047: L2-Pf-HR :0.96313: L2-HR :0.89041: (Sim:0h20m9s) 
CPU  0 inst:  216000000 cyc:  305736641 now IPC :1.48923: AVG IPC :0.70220: L2-Pf-HR :0.96284: L2-HR :0.89027: (Sim:0h20m13s) 
CPU  0 inst:  217000000 cyc:  306470553 now IPC :1.36256: AVG IPC :0.70379: L2-Pf-HR :0.96271: L2-HR :0.89027: (Sim:0h20m16s) 
CPU  0 inst:  218000001 cyc:  307251570 now IPC :1.28038: AVG IPC :0.70526: L2-Pf-HR :0.96238: L2-HR :0.88994: (Sim:0h20m20s) 
CPU  0 inst:  219000003 cyc:  307832841 now IPC :1.72037: AVG IPC :0.70718: L2-Pf-HR :0.96209: L2-HR :0.88982: (Sim:0h20m23s) 
CPU  0 inst:  220000000 cyc:  308481733 now IPC :1.54108: AVG IPC :0.70894: L2-Pf-HR :0.96187: L2-HR :0.88975: (Sim:0h20m27s) 
CPU  0 inst:  221000002 cyc:  309186113 now IPC :1.41969: AVG IPC :0.71057: L2-Pf-HR :0.96176: L2-HR :0.88967: (Sim:0h20m31s) 
CPU  0 inst:  222000002 cyc:  309812199 now IPC :1.59722: AVG IPC :0.71236: L2-Pf-HR :0.96165: L2-HR :0.88970: (Sim:0h20m34s) 
CPU  0 inst:  223000000 cyc:  310661656 now IPC :1.17722: AVG IPC :0.71364: L2-Pf-HR :0.96145: L2-HR :0.88948: (Sim:0h20m38s) 
CPU  0 inst:  224000000 cyc:  311336561 now IPC :1.48169: AVG IPC :0.71531: L2-Pf-HR :0.96119: L2-HR :0.88934: (Sim:0h20m42s) 
CPU  0 inst:  225000000 cyc:  312092747 now IPC :1.32243: AVG IPC :0.71679: L2-Pf-HR :0.96091: L2-HR :0.88915: (Sim:0h20m45s) 
CPU  0 inst:  226000003 cyc:  312907981 now IPC :1.22665: AVG IPC :0.71812: L2-Pf-HR :0.96076: L2-HR :0.88894: (Sim:0h20m49s) 
CPU  0 inst:  227000001 cyc:  313498347 now IPC :1.69386: AVG IPC :0.71996: L2-Pf-HR :0.96048: L2-HR :0.88881: (Sim:0h20m53s) 
CPU  0 inst:  228000000 cyc:  314091510 now IPC :1.68588: AVG IPC :0.72179: L2-Pf-HR :0.96015: L2-HR :0.88865: (Sim:0h20m58s) 
CPU  0 inst:  229000003 cyc:  314861385 now IPC :1.29892: AVG IPC :0.72321: L2-Pf-HR :0.96007: L2-HR :0.88853: (Sim:0h21m4s) 
CPU  0 inst:  230000001 cyc:  315434677 now IPC :1.74431: AVG IPC :0.72507: L2-Pf-HR :0.95994: L2-HR :0.88851: (Sim:0h21m8s) 
CPU  0 inst:  231000003 cyc:  316164783 now IPC :1.36967: AVG IPC :0.72656: L2-Pf-HR :0.95989: L2-HR :0.88850: (Sim:0h21m14s) 
CPU  0 inst:  232000000 cyc:  316970466 now IPC :1.24118: AVG IPC :0.72787: L2-Pf-HR :0.95956: L2-HR :0.88816: (Sim:0h21m19s) 
CPU  0 inst:  233000002 cyc:  317651077 now IPC :1.46927: AVG IPC :0.72947: L2-Pf-HR :0.95930: L2-HR :0.88798: (Sim:0h21m24s) 
CPU  0 inst:  234000003 cyc:  318375769 now IPC :1.37990: AVG IPC :0.73095: L2-Pf-HR :0.95921: L2-HR :0.88795: (Sim:0h21m30s) 
CPU  0 inst:  235000002 cyc:  319168409 now IPC :1.26161: AVG IPC :0.73227: L2-Pf-HR :0.95891: L2-HR :0.88760: (Sim:0h21m35s) 
CPU  0 inst:  236000000 cyc:  319759647 now IPC :1.69136: AVG IPC :0.73405: L2-Pf-HR :0.95863: L2-HR :0.88743: (Sim:0h21m40s) 
CPU  0 inst:  237000001 cyc:  320412147 now IPC :1.53257: AVG IPC :0.73568: L2-Pf-HR :0.95846: L2-HR :0.88736: (Sim:0h21m45s) 
CPU  0 inst:  238000001 cyc:  321129347 now IPC :1.39431: AVG IPC :0.73716: L2-Pf-HR :0.95834: L2-HR :0.88723: (Sim:0h21m51s) 
CPU  0 inst:  239000002 cyc:  321758706 now IPC :1.58892: AVG IPC :0.73883: L2-Pf-HR :0.95824: L2-HR :0.88722: (Sim:0h21m56s) 
CPU  0 inst:  240000000 cyc:  322627364 now IPC :1.15120: AVG IPC :0.73994: L2-Pf-HR :0.95804: L2-HR :0.88694: (Sim:0h22m2s) 
CPU  0 inst:  241000003 cyc:  323292965 now IPC :1.50241: AVG IPC :0.74152: L2-Pf-HR :0.95782: L2-HR :0.88679: (Sim:0h22m7s) 
CPU  0 inst:  242000001 cyc:  324049852 now IPC :1.32120: AVG IPC :0.74288: L2-Pf-HR :0.95761: L2-HR :0.88662: (Sim:0h22m12s) 
CPU  0 inst:  243000000 cyc:  324878011 now IPC :1.20750: AVG IPC :0.74407: L2-Pf-HR :0.95745: L2-HR :0.88638: (Sim:0h22m18s) 
CPU  0 inst:  244000000 cyc:  325469082 now IPC :1.69184: AVG IPC :0.74579: L2-Pf-HR :0.95722: L2-HR :0.88625: (Sim:0h22m23s) 
CPU  0 inst:  245000003 cyc:  326150828 now IPC :1.46683: AVG IPC :0.74730: L2-Pf-HR :0.95695: L2-HR :0.88604: (Sim:0h22m28s) 
CPU  0 inst:  246000003 cyc:  326843655 now IPC :1.44336: AVG IPC :0.74878: L2-Pf-HR :0.95690: L2-HR :0.88598: (Sim:0h22m33s) 
CPU  0 inst:  247000000 cyc:  327421437 now IPC :1.73075: AVG IPC :0.75052: L2-Pf-HR :0.95679: L2-HR :0.88596: (Sim:0h22m38s) 
CPU  0 inst:  248000000 cyc:  328301200 now IPC :1.13667: AVG IPC :0.75156: L2-Pf-HR :0.95667: L2-HR :0.88576: (Sim:0h22m45s) 
CPU  0 inst:  249000000 cyc:  328989518 now IPC :1.45282: AVG IPC :0.75303: L2-Pf-HR :0.95645: L2-HR :0.88560: (Sim:0h22m49s) 
CPU  0 inst:  250000001 cyc:  329673572 now IPC :1.46187: AVG IPC :0.75451: L2-Pf-HR :0.95623: L2-HR :0.88545: (Sim:0h22m54s) 
CPU  0 inst:  251000001 cyc:  330404313 now IPC :1.36847: AVG IPC :0.75587: L2-Pf-HR :0.95618: L2-HR :0.88544: (Sim:0h23m0s) 
CPU  0 inst:  252000000 cyc:  331205943 now IPC :1.24746: AVG IPC :0.75706: L2-Pf-HR :0.95590: L2-HR :0.88507: (Sim:0h23m5s) 
CPU  0 inst:  253000001 cyc:  331786042 now IPC :1.72385: AVG IPC :0.75876: L2-Pf-HR :0.95563: L2-HR :0.88491: (Sim:0h23m10s) 
CPU  0 inst:  254000001 cyc:  332433898 now IPC :1.54355: AVG IPC :0.76029: L2-Pf-HR :0.95551: L2-HR :0.88486: (Sim:0h23m15s) 
CPU  0 inst:  255000001 cyc:  333142050 now IPC :1.41213: AVG IPC :0.76168: L2-Pf-HR :0.95540: L2-HR :0.88472: (Sim:0h23m21s) 
CPU  0 inst:  256000000 cyc:  333771619 now IPC :1.58839: AVG IPC :0.76324: L2-Pf-HR :0.95533: L2-HR :0.88472: (Sim:0h23m26s) 
CPU  0 inst:  257000001 cyc:  334656789 now IPC :1.12973: AVG IPC :0.76422: L2-Pf-HR :0.95513: L2-HR :0.88442: (Sim:0h23m32s) 
CPU  0 inst:  258000002 cyc:  335323059 now IPC :1.50089: AVG IPC :0.76568: L2-Pf-HR :0.95491: L2-HR :0.88426: (Sim:0h23m37s) 
CPU  0 inst:  259000001 cyc:  336078489 now IPC :1.32375: AVG IPC :0.76694: L2-Pf-HR :0.95473: L2-HR :0.88409: (Sim:0h23m42s) 
CPU  0 inst:  260000000 cyc:  336885096 now IPC :1.23976: AVG IPC :0.76808: L2-Pf-HR :0.95457: L2-HR :0.88385: (Sim:0h23m48s) 
CPU  0 inst:  261000002 cyc:  337481259 now IPC :1.67740: AVG IPC :0.76969: L2-Pf-HR :0.95434: L2-HR :0.88370: (Sim:0h23m53s) 
CPU  0 inst:  262000003 cyc:  338160303 now IPC :1.47266: AVG IPC :0.77110: L2-Pf-HR :0.95410: L2-HR :0.88350: (Sim:0h23m58s) 
CPU  0 inst:  263000001 cyc:  338842015 now IPC :1.46689: AVG IPC :0.77251: L2-Pf-HR :0.95404: L2-HR :0.88344: (Sim:0h24m3s) 
CPU  0 inst:  264000000 cyc:  339413963 now IPC :1.74841: AVG IPC :0.77416: L2-Pf-HR :0.95393: L2-HR :0.88343: (Sim:0h24m8s) 
CPU  0 inst:  265000001 cyc:  340299300 now IPC :1.12951: AVG IPC :0.77508: L2-Pf-HR :0.95382: L2-HR :0.88323: (Sim:0h24m14s) 
CPU  0 inst:  266000002 cyc:  340989647 now IPC :1.44855: AVG IPC :0.77645: L2-Pf-HR :0.95363: L2-HR :0.88308: (Sim:0h24m19s) 
CPU  0 inst:  267000001 cyc:  341670925 now IPC :1.46783: AVG IPC :0.77783: L2-Pf-HR :0.95343: L2-HR :0.88294: (Sim:0h24m24s) 
CPU  0 inst:  268000000 cyc:  342467915 now IPC :1.25472: AVG IPC :0.77895: L2-Pf-HR :0.95340: L2-HR :0.88290: (Sim:0h24m30s) 
CPU  0 inst:  269000002 cyc:  343194283 now IPC :1.37672: AVG IPC :0.78022: L2-Pf-HR :0.95311: L2-HR :0.88257: (Sim:0h24m35s) 
CPU  0 inst:  270000000 cyc:  343778734 now IPC :1.71100: AVG IPC :0.78180: L2-Pf-HR :0.95286: L2-HR :0.88241: (Sim:0h24m40s) 
CPU  0 inst:  271000003 cyc:  344435413 now IPC :1.52282: AVG IPC :0.78322: L2-Pf-HR :0.95277: L2-HR :0.88239: (Sim:0h24m46s) 
CPU  0 inst:  272000000 cyc:  345147928 now IPC :1.40348: AVG IPC :0.78450: L2-Pf-HR :0.95266: L2-HR :0.88225: (Sim:0h24m51s) 
CPU  0 inst:  273000002 cyc:  345776930 now IPC :1.58982: AVG IPC :0.78597: L2-Pf-HR :0.95258: L2-HR :0.88225: (Sim:0h24m56s) 
CPU  0 inst:  274000002 cyc:  346670840 now IPC :1.11868: AVG IPC :0.78683: L2-Pf-HR :0.95237: L2-HR :0.88193: (Sim:0h25m2s) 
CPU  0 inst:  275000002 cyc:  347338834 now IPC :1.49702: AVG IPC :0.78820: L2-Pf-HR :0.95220: L2-HR :0.88181: (Sim:0h25m7s) 
CPU  0 inst:  276000000 cyc:  348101830 now IPC :1.31062: AVG IPC :0.78935: L2-Pf-HR :0.95204: L2-HR :0.88166: (Sim:0h25m13s) 
CPU  0 inst:  277000003 cyc:  348922072 now IPC :1.21916: AVG IPC :0.79037: L2-Pf-HR :0.95187: L2-HR :0.88140: (Sim:0h25m19s) 
CPU  0 inst:  278000002 cyc:  349502346 now IPC :1.72332: AVG IPC :0.79192: L2-Pf-HR :0.95164: L2-HR :0.88126: (Sim:0h25m24s) 
CPU  0 inst:  279000001 cyc:  350175852 now IPC :1.48477: AVG IPC :0.79325: L2-Pf-HR :0.95144: L2-HR :0.88109: (Sim:0h25m29s) 
CPU  0 inst:  280000000 cyc:  350872490 now IPC :1.43546: AVG IPC :0.79453: L2-Pf-HR :0.95137: L2-HR :0.88099: (Sim:0h25m35s) 
CPU  0 inst:  281000002 cyc:  351440669 now IPC :1.76001: AVG IPC :0.79610: L2-Pf-HR :0.95127: L2-HR :0.88097: (Sim:0h25m40s) 
CPU  0 inst:  282000000 cyc:  352328622 now IPC :1.12618: AVG IPC :0.79693: L2-Pf-HR :0.95114: L2-HR :0.88074: (Sim:0h25m46s) 
CPU  0 inst:  283000001 cyc:  353013261 now IPC :1.46063: AVG IPC :0.79822: L2-Pf-HR :0.95097: L2-HR :0.88060: (Sim:0h25m51s) 
CPU  0 inst:  284000000 cyc:  353694927 now IPC :1.46699: AVG IPC :0.79952: L2-Pf-HR :0.95079: L2-HR :0.88045: (Sim:0h25m56s) 
CPU  0 inst:  285000000 cyc:  354597412 now IPC :1.10805: AVG IPC :0.80030: L2-Pf-HR :0.95071: L2-HR :0.88025: (Sim:0h26m3s) 
CPU  0 inst:  286000001 cyc:  355209500 now IPC :1.63375: AVG IPC :0.80174: L2-Pf-HR :0.95048: L2-HR :0.88007: (Sim:0h26m8s) 
CPU  0 inst:  287000000 cyc:  355793196 now IPC :1.71322: AVG IPC :0.80324: L2-Pf-HR :0.95027: L2-HR :0.87994: (Sim:0h26m13s) 
CPU  0 inst:  288000000 cyc:  356450627 now IPC :1.52107: AVG IPC :0.80457: L2-Pf-HR :0.95018: L2-HR :0.87989: (Sim:0h26m18s) 
CPU  0 inst:  289000003 cyc:  357166282 now IPC :1.39733: AVG IPC :0.80576: L2-Pf-HR :0.95005: L2-HR :0.87972: (Sim:0h26m24s) 
CPU  0 inst:  290000003 cyc:  357785753 now IPC :1.61428: AVG IPC :0.80717: L2-Pf-HR :0.94998: L2-HR :0.87972: (Sim:0h26m29s) 
CPU  0 inst:  291000000 cyc:  358693855 now IPC :1.10119: AVG IPC :0.80791: L2-Pf-HR :0.94976: L2-HR :0.87939: (Sim:0h26m35s) 
CPU  0 inst:  292000000 cyc:  359382771 now IPC :1.45156: AVG IPC :0.80915: L2-Pf-HR :0.94960: L2-HR :0.87926: (Sim:0h26m40s) 
CPU  0 inst:  293000002 cyc:  360132369 now IPC :1.33405: AVG IPC :0.81024: L2-Pf-HR :0.94947: L2-HR :0.87914: (Sim:0h26m45s) 
CPU  0 inst:  294000002 cyc:  360948019 now IPC :1.22602: AVG IPC :0.81119: L2-Pf-HR :0.94929: L2-HR :0.87887: (Sim:0h26m51s) 
CPU  0 inst:  295000000 cyc:  361534617 now IPC :1.70474: AVG IPC :0.81264: L2-Pf-HR :0.94908: L2-HR :0.87873: (Sim:0h26m56s) 
Finished CPU 0 instr: 293000003 cyc: 360553019 AVG IPC: 0.81264 (Sim time: 0h26m56s)

ChampSim completed all CPUs

[ROI Statistics]
Core_0_instructions 293000003
Core_0_cycles 360553019
Core_0_IPC 0.81264

Core_0_branch_prediction_accuracy 98.23789
Core_0_branch_MPKI 0.42863
Core_0_average_ROB_occupancy_at_mispredict 247.74312

Core_0_L1D_total_access 73583617
Core_0_L1D_total_hit 67835470 L1D_total_Hit Ratio: 0.92188
Core_0_L1D_total_miss 5748147
Core_0_L1D_loads 66505576
Core_0_L1D_load_hit 61088986 L1D_load_Hit Ratio: 0.91855
Core_0_L1D_load_miss 5416590
Core_0_L1D_RFOs 5912176
Core_0_L1D_RFO_hit 5580619 L1D_RFO_Hit Ratio: 0.94392
Core_0_L1D_RFO_miss 331557
Core_0_L1D_prefetches 1165865
Core_0_L1D_prefetch_hit 1165865 L1D_prefetch_Hit Ratio: 1.00000
Core_0_L1D_prefetch_miss 0
Core_0_L1D_writebacks 0
Core_0_L1D_writeback_hit 0 L1D_writeback_Hit Ratio: -nan
Core_0_L1D_writeback_miss 0
Core_0_L1D_prefetch_requested 31546544
Core_0_L1D_prefetch_issued 19512649
Core_0_L1D_prefetch_useful 0 L1D_Useful Ratio: 0.00000
Core_0_L1D_prefetch_useless 0
Core_0_L1D_prefetch_late 0
Core_0_L1D_average_miss_latency 104.34719

Core_0_L1I_total_access 66417734
Core_0_L1I_total_hit 66412886 L1I_total_Hit Ratio: 0.99993
Core_0_L1I_total_miss 4848
Core_0_L1I_loads 66417734
Core_0_L1I_load_hit 66412886 L1I_load_Hit Ratio: 0.99993
Core_0_L1I_load_miss 4848
Core_0_L1I_RFOs 0
Core_0_L1I_RFO_hit 0 L1I_RFO_Hit Ratio: -nan
Core_0_L1I_RFO_miss 0
Core_0_L1I_prefetches 0
Core_0_L1I_prefetch_hit 0 L1I_prefetch_Hit Ratio: -nan
Core_0_L1I_prefetch_miss 0
Core_0_L1I_writebacks 0
Core_0_L1I_writeback_hit 0 L1I_writeback_Hit Ratio: -nan
Core_0_L1I_writeback_miss 0
Core_0_L1I_prefetch_requested 0
Core_0_L1I_prefetch_issued 0
Core_0_L1I_prefetch_useful 0 L1I_Useful Ratio: -nan
Core_0_L1I_prefetch_useless 0
Core_0_L1I_prefetch_late 0
Core_0_L1I_average_miss_latency 262.06580

Core_0_L2C_total_access 24465417
Core_0_L2C_total_hit 21498414 L2C_total_Hit Ratio: 0.87873
Core_0_L2C_total_miss 2967003
Core_0_L2C_loads 5421415
Core_0_L2C_load_hit 3619094 L2C_load_Hit Ratio: 0.66756
Core_0_L2C_load_miss 1802321
Core_0_L2C_RFOs 331557
Core_0_L2C_RFO_hit 58382 L2C_RFO_Hit Ratio: 0.17608
Core_0_L2C_RFO_miss 273175
Core_0_L2C_prefetches 17123257
Core_0_L2C_prefetch_hit 16251372 L2C_prefetch_Hit Ratio: 0.94908
Core_0_L2C_prefetch_miss 871885
Core_0_L2C_writebacks 1589188
Core_0_L2C_writeback_hit 1569566 L2C_writeback_Hit Ratio: 0.98765
Core_0_L2C_writeback_miss 19622
Core_0_L2C_prefetch_requested 6259657
Core_0_L2C_prefetch_issued 598896
Core_0_L2C_prefetch_useful 873296 L2C_Useful Ratio: 1.45818
Core_0_L2C_prefetch_useless 424
Core_0_L2C_prefetch_late 70045
Core_0_L2C_average_miss_latency 184.18967

Core_0_LLC_total_access 4575009
Core_0_LLC_total_hit 2988046 LLC_total_Hit Ratio: 0.65312
Core_0_LLC_total_miss 1586963
Core_0_LLC_loads 1732276
Core_0_LLC_load_hit 419481 LLC_load_Hit Ratio: 0.24216
Core_0_LLC_load_miss 1312795
Core_0_LLC_RFOs 273175
Core_0_LLC_RFO_hit 10250 LLC_RFO_Hit Ratio: 0.03752
Core_0_LLC_RFO_miss 262925
Core_0_LLC_prefetches 1164241
Core_0_LLC_prefetch_hit 1153141 LLC_prefetch_Hit Ratio: 0.99047
Core_0_LLC_prefetch_miss 11100
Core_0_LLC_writebacks 1405317
Core_0_LLC_writeback_hit 1405174 LLC_writeback_Hit Ratio: 0.99990
Core_0_LLC_writeback_miss 143
Core_0_LLC_prefetch_requested 0
Core_0_LLC_prefetch_issued 0
Core_0_LLC_prefetch_useful 6786 LLC_Useful Ratio: inf
Core_0_LLC_prefetch_useless 3986
Core_0_LLC_prefetch_late 27
Core_0_LLC_average_miss_latency 288.57268

Core_0_major_page_fault 0
Core_0_minor_page_fault 13331

CPU 0 L1D next line prefetcher final stats
Prefetcher final stats
Training Unit Size: 4676
Addr table size: 787053 787054


Triggers: 1819220
No Prediction: 825041 45.35136
Stream end: 263416
No translation: 260025957 14293.26618
Predictions: 598896 32.92048


Stream divergence: 103588 5.69409
Stream divergence -- new stream: 0
Channel_0_RQ_row_buffer_hit 895302
Channel_0_RQ_row_buffer_miss 691501
Channel_0_WQ_row_buffer_hit 375504
Channel_0_WQ_row_buffer_miss 484376
Channel_0_WQ_full 0
Channel_0_dbus_congested 722221

avg_congested_cycle 11

EzSearch AVG IPC :0.81264: L2-Pf-HR :0.94908 : L2-HR :0.87873 Uful:1.45818
     > Finished combination: TraceType=770-tot Sim:293000000 Prefetcher=L2isb_ideal L1=isb_ideal
