TRACE: [2366000000][OPT-6_7B]_[h32][s1024][d128] Warmup: 2000000 NumTraces: 2366000000
L1:isb_ideal:L2:isb_ideal
*************************************************
   ChampSim Multicore Out-of-Order Simulator
   Last compiled: Oct 27 2024 03:57:27
*************************************************

trace_0 770-tot_memTraces_v3/memTraces[2366000000][OPT-6_7B]_[h32][s1024][d128].champsim.xz
L1D: Ideal ISB Prefetching
Ideal ISB Prefetching
MAIN.cc ln 751 stats print skipped
CPU  0 inst:    1000000 cyc:     499511 now IPC :2.00196: AVG IPC :2.00196: L2-Pf-HR :0.99648: L2-HR :0.85576: (Sim:0h0m7s) 
CPU  0 inst:    2000002 cyc:     985226 now IPC :2.05882: AVG IPC :2.02999: L2-Pf-HR :0.99611: L2-HR :0.90516: (Sim:0h0m15s) 

Warmup complete CPU  0 instructions:    2000002 cycles:     985226 (Simulation time: 0 hr 0 min 15 sec) 

CPU  0 inst:    3000004 cyc:    1593865 now IPC :1.64301: AVG IPC :1.64301: L2-Pf-HR :0.99610: L2-HR :0.95530: (Sim:0h0m22s) 
CPU  0 inst:    4000003 cyc:    2193963 now IPC :1.66639: AVG IPC :1.65462: L2-Pf-HR :0.99621: L2-HR :0.95618: (Sim:0h0m29s) 
CPU  0 inst:    5000000 cyc:    2802737 now IPC :1.64264: AVG IPC :1.65061: L2-Pf-HR :0.99624: L2-HR :0.95609: (Sim:0h0m36s) 
CPU  0 inst:    6000001 cyc:    3407726 now IPC :1.65292: AVG IPC :1.65119: L2-Pf-HR :0.99629: L2-HR :0.95628: (Sim:0h0m43s) 
CPU  0 inst:    7000005 cyc:    4009406 now IPC :1.66202: AVG IPC :1.65334: L2-Pf-HR :0.99630: L2-HR :0.95635: (Sim:0h0m50s) 
CPU  0 inst:    8000002 cyc:    4615990 now IPC :1.64857: AVG IPC :1.65254: L2-Pf-HR :0.99627: L2-HR :0.95619: (Sim:0h0m57s) 
CPU  0 inst:    9000004 cyc:    5219577 now IPC :1.65677: AVG IPC :1.65315: L2-Pf-HR :0.99630: L2-HR :0.95633: (Sim:0h1m4s) 
CPU  0 inst:   10000000 cyc:    5826636 now IPC :1.64728: AVG IPC :1.65241: L2-Pf-HR :0.99630: L2-HR :0.95630: (Sim:0h1m11s) 
CPU  0 inst:   11000000 cyc:    6438487 now IPC :1.63438: AVG IPC :1.65039: L2-Pf-HR :0.99631: L2-HR :0.95626: (Sim:0h1m18s) 
CPU  0 inst:   12000002 cyc:    7052228 now IPC :1.62936: AVG IPC :1.64826: L2-Pf-HR :0.99635: L2-HR :0.95673: (Sim:0h1m25s) 
CPU  0 inst:   13000003 cyc:    7749987 now IPC :1.43316: AVG IPC :1.62607: L2-Pf-HR :0.99597: L2-HR :0.95491: (Sim:0h1m33s) 
CPU  0 inst:   14000005 cyc:    8340291 now IPC :1.69405: AVG IPC :1.63153: L2-Pf-HR :0.99550: L2-HR :0.95553: (Sim:0h1m40s) 
CPU  0 inst:   15000002 cyc:    8927605 now IPC :1.70266: AVG IPC :1.63679: L2-Pf-HR :0.99514: L2-HR :0.95610: (Sim:0h1m48s) 
CPU  0 inst:   16000000 cyc:    9514344 now IPC :1.70433: AVG IPC :1.64144: L2-Pf-HR :0.99478: L2-HR :0.95657: (Sim:0h1m55s) 
CPU  0 inst:   17000000 cyc:   10105502 now IPC :1.69160: AVG IPC :1.64469: L2-Pf-HR :0.99446: L2-HR :0.95696: (Sim:0h2m2s) 
CPU  0 inst:   18000001 cyc:   10693372 now IPC :1.70106: AVG IPC :1.64810: L2-Pf-HR :0.99422: L2-HR :0.95737: (Sim:0h2m9s) 
CPU  0 inst:   19000004 cyc:   11279935 now IPC :1.70485: AVG IPC :1.65133: L2-Pf-HR :0.99398: L2-HR :0.95772: (Sim:0h2m17s) 
CPU  0 inst:   20000000 cyc:   11865446 now IPC :1.70790: AVG IPC :1.65438: L2-Pf-HR :0.99375: L2-HR :0.95798: (Sim:0h2m24s) 
CPU  0 inst:   21000000 cyc:   12449197 now IPC :1.71306: AVG IPC :1.65737: L2-Pf-HR :0.99360: L2-HR :0.95826: (Sim:0h2m31s) 
CPU  0 inst:   22000004 cyc:   13032183 now IPC :1.71531: AVG IPC :1.66017: L2-Pf-HR :0.99345: L2-HR :0.95848: (Sim:0h2m38s) 
CPU  0 inst:   23000004 cyc:   13615604 now IPC :1.71403: AVG IPC :1.66266: L2-Pf-HR :0.99333: L2-HR :0.95870: (Sim:0h2m45s) 
CPU  0 inst:   24000000 cyc:   14305895 now IPC :1.44866: AVG IPC :1.65157: L2-Pf-HR :0.99321: L2-HR :0.95824: (Sim:0h2m53s) 
CPU  0 inst:   25000002 cyc:   14892848 now IPC :1.70372: AVG IPC :1.65377: L2-Pf-HR :0.99309: L2-HR :0.95864: (Sim:0h3m0s) 
CPU  0 inst:   26000000 cyc:   15476869 now IPC :1.71226: AVG IPC :1.65613: L2-Pf-HR :0.99297: L2-HR :0.95896: (Sim:0h3m8s) 
CPU  0 inst:   27000001 cyc:   16062523 now IPC :1.70749: AVG IPC :1.65812: L2-Pf-HR :0.99287: L2-HR :0.95926: (Sim:0h3m15s) 
CPU  0 inst:   28000003 cyc:   16646987 now IPC :1.71097: AVG IPC :1.66009: L2-Pf-HR :0.99279: L2-HR :0.95958: (Sim:0h3m22s) 
CPU  0 inst:   29000005 cyc:   17231903 now IPC :1.70965: AVG IPC :1.66188: L2-Pf-HR :0.99272: L2-HR :0.95988: (Sim:0h3m30s) 
CPU  0 inst:   30000000 cyc:   17816957 now IPC :1.70924: AVG IPC :1.66352: L2-Pf-HR :0.99264: L2-HR :0.96014: (Sim:0h3m37s) 
CPU  0 inst:   31000004 cyc:   18402204 now IPC :1.70869: AVG IPC :1.66504: L2-Pf-HR :0.99259: L2-HR :0.96039: (Sim:0h3m44s) 
CPU  0 inst:   32000005 cyc:   19167090 now IPC :1.30739: AVG IPC :1.65000: L2-Pf-HR :0.99234: L2-HR :0.95934: (Sim:0h3m52s) 
CPU  0 inst:   33000004 cyc:   19801925 now IPC :1.57521: AVG IPC :1.64747: L2-Pf-HR :0.99232: L2-HR :0.95925: (Sim:0h4m0s) 
CPU  0 inst:   34000003 cyc:   20434227 now IPC :1.58152: AVG IPC :1.64533: L2-Pf-HR :0.99225: L2-HR :0.95913: (Sim:0h4m7s) 
CPU  0 inst:   35000000 cyc:   21052375 now IPC :1.61773: AVG IPC :1.64448: L2-Pf-HR :0.99220: L2-HR :0.95908: (Sim:0h4m15s) 
CPU  0 inst:   36000004 cyc:   21682254 now IPC :1.58761: AVG IPC :1.64275: L2-Pf-HR :0.99216: L2-HR :0.95900: (Sim:0h4m22s) 
CPU  0 inst:   37000005 cyc:   22303446 now IPC :1.60981: AVG IPC :1.64179: L2-Pf-HR :0.99211: L2-HR :0.95894: (Sim:0h4m30s) 
CPU  0 inst:   38000005 cyc:   22931255 now IPC :1.59284: AVG IPC :1.64039: L2-Pf-HR :0.99208: L2-HR :0.95888: (Sim:0h4m38s) 
CPU  0 inst:   39000000 cyc:   23558090 now IPC :1.59531: AVG IPC :1.63914: L2-Pf-HR :0.99203: L2-HR :0.95880: (Sim:0h4m45s) 
CPU  0 inst:   40000001 cyc:   24180719 now IPC :1.60609: AVG IPC :1.63825: L2-Pf-HR :0.99200: L2-HR :0.95876: (Sim:0h4m53s) 
CPU  0 inst:   41000002 cyc:   24806126 now IPC :1.59896: AVG IPC :1.63722: L2-Pf-HR :0.99197: L2-HR :0.95870: (Sim:0h5m1s) 
CPU  0 inst:   42000003 cyc:   25423570 now IPC :1.61958: AVG IPC :1.63677: L2-Pf-HR :0.99193: L2-HR :0.95865: (Sim:0h5m8s) 
CPU  0 inst:   43000003 cyc:   26046525 now IPC :1.60525: AVG IPC :1.63599: L2-Pf-HR :0.99191: L2-HR :0.95859: (Sim:0h5m16s) 
CPU  0 inst:   44000003 cyc:   26805018 now IPC :1.31840: AVG IPC :1.62666: L2-Pf-HR :0.99190: L2-HR :0.95808: (Sim:0h5m24s) 
CPU  0 inst:   45000000 cyc:   27390186 now IPC :1.70891: AVG IPC :1.62848: L2-Pf-HR :0.99191: L2-HR :0.95818: (Sim:0h5m32s) 
CPU  0 inst:   46000002 cyc:   27967726 now IPC :1.73149: AVG IPC :1.63069: L2-Pf-HR :0.99188: L2-HR :0.95829: (Sim:0h5m40s) 
CPU  0 inst:   47000002 cyc:   28542557 now IPC :1.73964: AVG IPC :1.63296: L2-Pf-HR :0.99185: L2-HR :0.95838: (Sim:0h5m48s) 
CPU  0 inst:   48000004 cyc:   29119407 now IPC :1.73356: AVG IPC :1.63502: L2-Pf-HR :0.99183: L2-HR :0.95847: (Sim:0h5m55s) 
CPU  0 inst:   49000002 cyc:   29698783 now IPC :1.72599: AVG IPC :1.63686: L2-Pf-HR :0.99181: L2-HR :0.95857: (Sim:0h6m3s) 
CPU  0 inst:   50000003 cyc:   30275109 now IPC :1.73513: AVG IPC :1.63879: L2-Pf-HR :0.99178: L2-HR :0.95867: (Sim:0h6m11s) 
CPU  0 inst:   51000003 cyc:   30849019 now IPC :1.74243: AVG IPC :1.64078: L2-Pf-HR :0.99176: L2-HR :0.95875: (Sim:0h6m18s) 
CPU  0 inst:   52000003 cyc:   31423707 now IPC :1.74007: AVG IPC :1.64266: L2-Pf-HR :0.99174: L2-HR :0.95883: (Sim:0h6m26s) 
CPU  0 inst:   53000003 cyc:   31997899 now IPC :1.74158: AVG IPC :1.64449: L2-Pf-HR :0.99172: L2-HR :0.95891: (Sim:0h6m34s) 
CPU  0 inst:   54000002 cyc:   32571930 now IPC :1.74206: AVG IPC :1.64626: L2-Pf-HR :0.99170: L2-HR :0.95898: (Sim:0h6m41s) 
CPU  0 inst:   55000002 cyc:   33142587 now IPC :1.75237: AVG IPC :1.64815: L2-Pf-HR :0.99168: L2-HR :0.95906: (Sim:0h6m49s) 
CPU  0 inst:   56000004 cyc:   33829344 now IPC :1.45612: AVG IPC :1.64413: L2-Pf-HR :0.99168: L2-HR :0.95890: (Sim:0h6m57s) 
CPU  0 inst:   57000002 cyc:   34409043 now IPC :1.72503: AVG IPC :1.64553: L2-Pf-HR :0.99167: L2-HR :0.95906: (Sim:0h7m4s) 
CPU  0 inst:   58000001 cyc:   34986993 now IPC :1.73025: AVG IPC :1.64697: L2-Pf-HR :0.99165: L2-HR :0.95921: (Sim:0h7m12s) 
CPU  0 inst:   59000002 cyc:   35566449 now IPC :1.72576: AVG IPC :1.64829: L2-Pf-HR :0.99165: L2-HR :0.95935: (Sim:0h7m19s) 
CPU  0 inst:   60000001 cyc:   36145561 now IPC :1.72678: AVG IPC :1.64959: L2-Pf-HR :0.99165: L2-HR :0.95949: (Sim:0h7m27s) 
CPU  0 inst:   61000005 cyc:   36725245 now IPC :1.72508: AVG IPC :1.65081: L2-Pf-HR :0.99164: L2-HR :0.95963: (Sim:0h7m35s) 
CPU  0 inst:   62000001 cyc:   37304610 now IPC :1.72602: AVG IPC :1.65201: L2-Pf-HR :0.99164: L2-HR :0.95978: (Sim:0h7m42s) 
CPU  0 inst:   63000004 cyc:   37885080 now IPC :1.72275: AVG IPC :1.65312: L2-Pf-HR :0.99164: L2-HR :0.95990: (Sim:0h7m50s) 
CPU  0 inst:   64000003 cyc:   38666526 now IPC :1.27968: AVG IPC :1.64538: L2-Pf-HR :0.99157: L2-HR :0.95932: (Sim:0h7m58s) 
CPU  0 inst:   65000005 cyc:   39299621 now IPC :1.57954: AVG IPC :1.64429: L2-Pf-HR :0.99156: L2-HR :0.95926: (Sim:0h8m6s) 
CPU  0 inst:   66000004 cyc:   39917664 now IPC :1.61801: AVG IPC :1.64387: L2-Pf-HR :0.99154: L2-HR :0.95923: (Sim:0h8m14s) 
CPU  0 inst:   67000000 cyc:   40550712 now IPC :1.57965: AVG IPC :1.64285: L2-Pf-HR :0.99153: L2-HR :0.95919: (Sim:0h8m22s) 
CPU  0 inst:   68000005 cyc:   41172533 now IPC :1.60819: AVG IPC :1.64231: L2-Pf-HR :0.99152: L2-HR :0.95915: (Sim:0h8m30s) 
CPU  0 inst:   69000001 cyc:   41800549 now IPC :1.59231: AVG IPC :1.64154: L2-Pf-HR :0.99152: L2-HR :0.95912: (Sim:0h8m38s) 
CPU  0 inst:   70000003 cyc:   42425659 now IPC :1.59972: AVG IPC :1.64091: L2-Pf-HR :0.99150: L2-HR :0.95907: (Sim:0h8m46s) 
CPU  0 inst:   71000002 cyc:   43045009 now IPC :1.61459: AVG IPC :1.64052: L2-Pf-HR :0.99149: L2-HR :0.95904: (Sim:0h8m54s) 
CPU  0 inst:   72000004 cyc:   43677207 now IPC :1.58179: AVG IPC :1.63965: L2-Pf-HR :0.99149: L2-HR :0.95900: (Sim:0h9m1s) 
CPU  0 inst:   73000000 cyc:   44298504 now IPC :1.60953: AVG IPC :1.63922: L2-Pf-HR :0.99147: L2-HR :0.95897: (Sim:0h9m9s) 
CPU  0 inst:   74000004 cyc:   44921079 now IPC :1.60624: AVG IPC :1.63875: L2-Pf-HR :0.99147: L2-HR :0.95894: (Sim:0h9m17s) 
CPU  0 inst:   75000002 cyc:   45537563 now IPC :1.62210: AVG IPC :1.63852: L2-Pf-HR :0.99146: L2-HR :0.95891: (Sim:0h9m24s) 
CPU  0 inst:   76000001 cyc:   46276174 now IPC :1.35389: AVG IPC :1.63388: L2-Pf-HR :0.99148: L2-HR :0.95864: (Sim:0h9m33s) 
CPU  0 inst:   77000002 cyc:   46865499 now IPC :1.69686: AVG IPC :1.63469: L2-Pf-HR :0.99148: L2-HR :0.95870: (Sim:0h9m40s) 
CPU  0 inst:   78000002 cyc:   47450390 now IPC :1.70972: AVG IPC :1.63563: L2-Pf-HR :0.99146: L2-HR :0.95874: (Sim:0h9m48s) 
CPU  0 inst:   79000000 cyc:   48036614 now IPC :1.70583: AVG IPC :1.63651: L2-Pf-HR :0.99146: L2-HR :0.95879: (Sim:0h9m56s) 
CPU  0 inst:   80000000 cyc:   48624433 now IPC :1.70120: AVG IPC :1.63731: L2-Pf-HR :0.99145: L2-HR :0.95885: (Sim:0h10m4s) 
CPU  0 inst:   81000001 cyc:   49212570 now IPC :1.70029: AVG IPC :1.63807: L2-Pf-HR :0.99144: L2-HR :0.95890: (Sim:0h10m12s) 
CPU  0 inst:   82000005 cyc:   49799369 now IPC :1.70417: AVG IPC :1.63887: L2-Pf-HR :0.99144: L2-HR :0.95895: (Sim:0h10m19s) 
CPU  0 inst:   83000002 cyc:   50385269 now IPC :1.70677: AVG IPC :1.63967: L2-Pf-HR :0.99144: L2-HR :0.95900: (Sim:0h10m27s) 
CPU  0 inst:   84000004 cyc:   50971047 now IPC :1.70713: AVG IPC :1.64047: L2-Pf-HR :0.99143: L2-HR :0.95904: (Sim:0h10m35s) 
CPU  0 inst:   85000002 cyc:   51556660 now IPC :1.70761: AVG IPC :1.64124: L2-Pf-HR :0.99143: L2-HR :0.95908: (Sim:0h10m42s) 
CPU  0 inst:   86000002 cyc:   52142154 now IPC :1.70796: AVG IPC :1.64201: L2-Pf-HR :0.99143: L2-HR :0.95913: (Sim:0h10m50s) 
CPU  0 inst:   87000003 cyc:   52815090 now IPC :1.48603: AVG IPC :1.63998: L2-Pf-HR :0.99142: L2-HR :0.95900: (Sim:0h10m58s) 
CPU  0 inst:   88000004 cyc:   53421075 now IPC :1.65021: AVG IPC :1.64010: L2-Pf-HR :0.99142: L2-HR :0.95909: (Sim:0h11m6s) 
CPU  0 inst:   89000000 cyc:   54002794 now IPC :1.71904: AVG IPC :1.64097: L2-Pf-HR :0.99142: L2-HR :0.95917: (Sim:0h11m14s) 
CPU  0 inst:   90000001 cyc:   54584913 now IPC :1.71786: AVG IPC :1.64180: L2-Pf-HR :0.99142: L2-HR :0.95927: (Sim:0h11m21s) 
CPU  0 inst:   91000005 cyc:   55166865 now IPC :1.71836: AVG IPC :1.64262: L2-Pf-HR :0.99142: L2-HR :0.95936: (Sim:0h11m29s) 
CPU  0 inst:   92000004 cyc:   55749378 now IPC :1.71670: AVG IPC :1.64341: L2-Pf-HR :0.99143: L2-HR :0.95944: (Sim:0h11m37s) 
CPU  0 inst:   93000002 cyc:   56330893 now IPC :1.71964: AVG IPC :1.64421: L2-Pf-HR :0.99143: L2-HR :0.95952: (Sim:0h11m44s) 
CPU  0 inst:   94000001 cyc:   56914523 now IPC :1.71341: AVG IPC :1.64493: L2-Pf-HR :0.99144: L2-HR :0.95961: (Sim:0h11m52s) 
CPU  0 inst:   95000005 cyc:   57645185 now IPC :1.36863: AVG IPC :1.64137: L2-Pf-HR :0.99138: L2-HR :0.95929: (Sim:0h12m0s) 
CPU  0 inst:   96000001 cyc:   58298695 now IPC :1.53019: AVG IPC :1.64010: L2-Pf-HR :0.99138: L2-HR :0.95925: (Sim:0h12m8s) 
CPU  0 inst:   97000000 cyc:   58918539 now IPC :1.61331: AVG IPC :1.63982: L2-Pf-HR :0.99138: L2-HR :0.95923: (Sim:0h12m16s) 
CPU  0 inst:   98000002 cyc:   59544308 now IPC :1.59804: AVG IPC :1.63937: L2-Pf-HR :0.99137: L2-HR :0.95920: (Sim:0h12m23s) 
CPU  0 inst:   99000004 cyc:   60166213 now IPC :1.60797: AVG IPC :1.63904: L2-Pf-HR :0.99137: L2-HR :0.95918: (Sim:0h12m31s) 
CPU  0 inst:  100000003 cyc:   60799225 now IPC :1.57975: AVG IPC :1.63841: L2-Pf-HR :0.99137: L2-HR :0.95915: (Sim:0h12m39s) 
CPU  0 inst:  101000002 cyc:   61434306 now IPC :1.57460: AVG IPC :1.63774: L2-Pf-HR :0.99136: L2-HR :0.95911: (Sim:0h12m47s) 
CPU  0 inst:  102000003 cyc:   62052034 now IPC :1.61884: AVG IPC :1.63755: L2-Pf-HR :0.99136: L2-HR :0.95910: (Sim:0h12m55s) 
CPU  0 inst:  103000003 cyc:   62680983 now IPC :1.58995: AVG IPC :1.63707: L2-Pf-HR :0.99136: L2-HR :0.95907: (Sim:0h13m3s) 
CPU  0 inst:  104000002 cyc:   63298103 now IPC :1.62043: AVG IPC :1.63690: L2-Pf-HR :0.99135: L2-HR :0.95905: (Sim:0h13m11s) 
CPU  0 inst:  105000004 cyc:   63928746 now IPC :1.58569: AVG IPC :1.63639: L2-Pf-HR :0.99136: L2-HR :0.95902: (Sim:0h13m18s) 
CPU  0 inst:  106000005 cyc:   64562707 now IPC :1.57739: AVG IPC :1.63580: L2-Pf-HR :0.99135: L2-HR :0.95899: (Sim:0h13m26s) 
CPU  0 inst:  107000002 cyc:   65302012 now IPC :1.35262: AVG IPC :1.63254: L2-Pf-HR :0.99136: L2-HR :0.95878: (Sim:0h13m35s) 
CPU  0 inst:  108000002 cyc:   65905741 now IPC :1.65637: AVG IPC :1.63277: L2-Pf-HR :0.99137: L2-HR :0.95882: (Sim:0h13m42s) 
CPU  0 inst:  109000004 cyc:   66494324 now IPC :1.69900: AVG IPC :1.63336: L2-Pf-HR :0.99137: L2-HR :0.95884: (Sim:0h13m50s) 
CPU  0 inst:  110000000 cyc:   67078132 now IPC :1.71289: AVG IPC :1.63406: L2-Pf-HR :0.99137: L2-HR :0.95888: (Sim:0h14m6s) 
CPU  0 inst:  111000001 cyc:   67666119 now IPC :1.70072: AVG IPC :1.63465: L2-Pf-HR :0.99137: L2-HR :0.95891: (Sim:0h14m24s) 
CPU  0 inst:  112000003 cyc:   68253249 now IPC :1.70320: AVG IPC :1.63525: L2-Pf-HR :0.99136: L2-HR :0.95894: (Sim:0h14m42s) 
CPU  0 inst:  113000003 cyc:   68837517 now IPC :1.71154: AVG IPC :1.63591: L2-Pf-HR :0.99136: L2-HR :0.95898: (Sim:0h14m59s) 
CPU  0 inst:  114000003 cyc:   69422302 now IPC :1.71003: AVG IPC :1.63654: L2-Pf-HR :0.99136: L2-HR :0.95902: (Sim:0h15m16s) 
CPU  0 inst:  115000003 cyc:   70008525 now IPC :1.70584: AVG IPC :1.63713: L2-Pf-HR :0.99136: L2-HR :0.95904: (Sim:0h15m33s) 
CPU  0 inst:  116000004 cyc:   70593758 now IPC :1.70872: AVG IPC :1.63773: L2-Pf-HR :0.99136: L2-HR :0.95908: (Sim:0h15m50s) 
CPU  0 inst:  117000002 cyc:   71178106 now IPC :1.71131: AVG IPC :1.63834: L2-Pf-HR :0.99137: L2-HR :0.95911: (Sim:0h16m7s) 
CPU  0 inst:  118000004 cyc:   71761891 now IPC :1.71296: AVG IPC :1.63896: L2-Pf-HR :0.99136: L2-HR :0.95914: (Sim:0h16m25s) 
CPU  0 inst:  119000003 cyc:   72456827 now IPC :1.43898: AVG IPC :1.63701: L2-Pf-HR :0.99137: L2-HR :0.95906: (Sim:0h16m43s) 
CPU  0 inst:  120000004 cyc:   73040485 now IPC :1.71333: AVG IPC :1.63763: L2-Pf-HR :0.99137: L2-HR :0.95913: (Sim:0h17m1s) 
CPU  0 inst:  121000003 cyc:   73624450 now IPC :1.71243: AVG IPC :1.63823: L2-Pf-HR :0.99137: L2-HR :0.95920: (Sim:0h17m19s) 
CPU  0 inst:  122000004 cyc:   74209461 now IPC :1.70937: AVG IPC :1.63880: L2-Pf-HR :0.99138: L2-HR :0.95926: (Sim:0h17m36s) 
CPU  0 inst:  123000003 cyc:   74794593 now IPC :1.70901: AVG IPC :1.63936: L2-Pf-HR :0.99138: L2-HR :0.95934: (Sim:0h17m54s) 
CPU  0 inst:  124000004 cyc:   75381448 now IPC :1.70400: AVG IPC :1.63987: L2-Pf-HR :0.99139: L2-HR :0.95940: (Sim:0h18m11s) 
CPU  0 inst:  125000000 cyc:   75968178 now IPC :1.70435: AVG IPC :1.64037: L2-Pf-HR :0.99140: L2-HR :0.95947: (Sim:0h18m29s) 
CPU  0 inst:  126000001 cyc:   76553942 now IPC :1.70717: AVG IPC :1.64089: L2-Pf-HR :0.99140: L2-HR :0.95953: (Sim:0h18m46s) 
CPU  0 inst:  127000002 cyc:   77328074 now IPC :1.29177: AVG IPC :1.63735: L2-Pf-HR :0.99137: L2-HR :0.95925: (Sim:0h19m6s) 
CPU  0 inst:  128000005 cyc:   77942215 now IPC :1.62830: AVG IPC :1.63728: L2-Pf-HR :0.99137: L2-HR :0.95924: (Sim:0h19m24s) 
CPU  0 inst:  129000000 cyc:   78569694 now IPC :1.59367: AVG IPC :1.63693: L2-Pf-HR :0.99137: L2-HR :0.95921: (Sim:0h19m42s) 
CPU  0 inst:  130000001 cyc:   79183829 now IPC :1.62831: AVG IPC :1.63686: L2-Pf-HR :0.99137: L2-HR :0.95919: (Sim:0h20m0s) 
CPU  0 inst:  131000002 cyc:   79805344 now IPC :1.60897: AVG IPC :1.63664: L2-Pf-HR :0.99137: L2-HR :0.95916: (Sim:0h20m18s) 
CPU  0 inst:  132000004 cyc:   80426840 now IPC :1.60902: AVG IPC :1.63642: L2-Pf-HR :0.99137: L2-HR :0.95914: (Sim:0h20m36s) 
CPU  0 inst:  133000002 cyc:   81036041 now IPC :1.64149: AVG IPC :1.63646: L2-Pf-HR :0.99137: L2-HR :0.95913: (Sim:0h20m54s) 
CPU  0 inst:  134000004 cyc:   81660792 now IPC :1.60064: AVG IPC :1.63618: L2-Pf-HR :0.99137: L2-HR :0.95910: (Sim:0h21m11s) 
CPU  0 inst:  135000004 cyc:   82274436 now IPC :1.62961: AVG IPC :1.63613: L2-Pf-HR :0.99137: L2-HR :0.95909: (Sim:0h21m29s) 
CPU  0 inst:  136000000 cyc:   82900419 now IPC :1.59748: AVG IPC :1.63584: L2-Pf-HR :0.99137: L2-HR :0.95906: (Sim:0h21m46s) 
CPU  0 inst:  137000005 cyc:   83521218 now IPC :1.61084: AVG IPC :1.63565: L2-Pf-HR :0.99137: L2-HR :0.95904: (Sim:0h22m4s) 
CPU  0 inst:  138000001 cyc:   84132505 now IPC :1.63589: AVG IPC :1.63565: L2-Pf-HR :0.99137: L2-HR :0.95903: (Sim:0h22m22s) 
CPU  0 inst:  139000002 cyc:   84882163 now IPC :1.33394: AVG IPC :1.63296: L2-Pf-HR :0.99139: L2-HR :0.95888: (Sim:0h22m41s) 
CPU  0 inst:  140000001 cyc:   85468426 now IPC :1.70572: AVG IPC :1.63346: L2-Pf-HR :0.99139: L2-HR :0.95890: (Sim:0h22m58s) 
CPU  0 inst:  141000001 cyc:   86049827 now IPC :1.71998: AVG IPC :1.63405: L2-Pf-HR :0.99139: L2-HR :0.95893: (Sim:0h23m15s) 
CPU  0 inst:  142000001 cyc:   86631117 now IPC :1.72031: AVG IPC :1.63464: L2-Pf-HR :0.99139: L2-HR :0.95895: (Sim:0h23m33s) 
CPU  0 inst:  143000003 cyc:   87211367 now IPC :1.72340: AVG IPC :1.63523: L2-Pf-HR :0.99138: L2-HR :0.95897: (Sim:0h23m50s) 
CPU  0 inst:  144000000 cyc:   87789740 now IPC :1.72898: AVG IPC :1.63586: L2-Pf-HR :0.99138: L2-HR :0.95900: (Sim:0h24m8s) 
CPU  0 inst:  145000000 cyc:   88368340 now IPC :1.72831: AVG IPC :1.63647: L2-Pf-HR :0.99138: L2-HR :0.95903: (Sim:0h24m25s) 
CPU  0 inst:  146000002 cyc:   88946076 now IPC :1.73090: AVG IPC :1.63709: L2-Pf-HR :0.99138: L2-HR :0.95905: (Sim:0h24m37s) 
CPU  0 inst:  147000004 cyc:   89525295 now IPC :1.72647: AVG IPC :1.63768: L2-Pf-HR :0.99138: L2-HR :0.95907: (Sim:0h24m46s) 
CPU  0 inst:  148000002 cyc:   90103672 now IPC :1.72897: AVG IPC :1.63827: L2-Pf-HR :0.99138: L2-HR :0.95910: (Sim:0h24m54s) 
CPU  0 inst:  149000001 cyc:   90682355 now IPC :1.72806: AVG IPC :1.63885: L2-Pf-HR :0.99138: L2-HR :0.95912: (Sim:0h25m2s) 
CPU  0 inst:  150000005 cyc:   91272887 now IPC :1.69340: AVG IPC :1.63921: L2-Pf-HR :0.99138: L2-HR :0.95916: (Sim:0h25m10s) 
CPU  0 inst:  151000000 cyc:   91949550 now IPC :1.47783: AVG IPC :1.63800: L2-Pf-HR :0.99139: L2-HR :0.95909: (Sim:0h25m19s) 
CPU  0 inst:  152000005 cyc:   92525716 now IPC :1.73562: AVG IPC :1.63862: L2-Pf-HR :0.99139: L2-HR :0.95914: (Sim:0h25m27s) 
CPU  0 inst:  153000003 cyc:   93101806 now IPC :1.73584: AVG IPC :1.63923: L2-Pf-HR :0.99139: L2-HR :0.95919: (Sim:0h25m40s) 
CPU  0 inst:  154000005 cyc:   93678061 now IPC :1.73535: AVG IPC :1.63982: L2-Pf-HR :0.99140: L2-HR :0.95924: (Sim:0h25m58s) 
CPU  0 inst:  155000000 cyc:   94253867 now IPC :1.73669: AVG IPC :1.64042: L2-Pf-HR :0.99140: L2-HR :0.95929: (Sim:0h26m15s) 
CPU  0 inst:  156000004 cyc:   94830496 now IPC :1.73422: AVG IPC :1.64100: L2-Pf-HR :0.99141: L2-HR :0.95935: (Sim:0h26m32s) 
CPU  0 inst:  157000000 cyc:   95407052 now IPC :1.73443: AVG IPC :1.64157: L2-Pf-HR :0.99141: L2-HR :0.95940: (Sim:0h26m50s) 
CPU  0 inst:  158000000 cyc:   96118388 now IPC :1.40581: AVG IPC :1.63981: L2-Pf-HR :0.99138: L2-HR :0.95922: (Sim:0h27m9s) 
CPU  0 inst:  159000001 cyc:   96773420 now IPC :1.52664: AVG IPC :1.63903: L2-Pf-HR :0.99139: L2-HR :0.95921: (Sim:0h27m27s) 
CPU  0 inst:  160000003 cyc:   97403161 now IPC :1.58796: AVG IPC :1.63870: L2-Pf-HR :0.99139: L2-HR :0.95919: (Sim:0h27m45s) 
CPU  0 inst:  161000004 cyc:   98023936 now IPC :1.61089: AVG IPC :1.63852: L2-Pf-HR :0.99139: L2-HR :0.95917: (Sim:0h28m2s) 
CPU  0 inst:  162000004 cyc:   98652469 now IPC :1.59101: AVG IPC :1.63822: L2-Pf-HR :0.99139: L2-HR :0.95915: (Sim:0h28m20s) 
CPU  0 inst:  163000000 cyc:   99286904 now IPC :1.57620: AVG IPC :1.63782: L2-Pf-HR :0.99139: L2-HR :0.95913: (Sim:0h28m38s) 
CPU  0 inst:  164000002 cyc:   99904518 now IPC :1.61914: AVG IPC :1.63770: L2-Pf-HR :0.99139: L2-HR :0.95912: (Sim:0h28m56s) 
CPU  0 inst:  165000001 cyc:  100529128 now IPC :1.60100: AVG IPC :1.63747: L2-Pf-HR :0.99139: L2-HR :0.95910: (Sim:0h29m14s) 
CPU  0 inst:  166000003 cyc:  101146497 now IPC :1.61978: AVG IPC :1.63736: L2-Pf-HR :0.99139: L2-HR :0.95908: (Sim:0h29m32s) 
CPU  0 inst:  167000002 cyc:  101773727 now IPC :1.59431: AVG IPC :1.63709: L2-Pf-HR :0.99139: L2-HR :0.95907: (Sim:0h29m50s) 
CPU  0 inst:  168000001 cyc:  102403073 now IPC :1.58895: AVG IPC :1.63679: L2-Pf-HR :0.99139: L2-HR :0.95904: (Sim:0h30m8s) 
CPU  0 inst:  169000000 cyc:  103025946 now IPC :1.60546: AVG IPC :1.63660: L2-Pf-HR :0.99139: L2-HR :0.95903: (Sim:0h30m26s) 
CPU  0 inst:  170000005 cyc:  103757255 now IPC :1.36742: AVG IPC :1.63469: L2-Pf-HR :0.99140: L2-HR :0.95889: (Sim:0h30m45s) 
CPU  0 inst:  171000001 cyc:  104379226 now IPC :1.60779: AVG IPC :1.63452: L2-Pf-HR :0.99141: L2-HR :0.95891: (Sim:0h31m3s) 
CPU  0 inst:  172000001 cyc:  104967923 now IPC :1.69867: AVG IPC :1.63489: L2-Pf-HR :0.99141: L2-HR :0.95893: (Sim:0h31m20s) 
CPU  0 inst:  173000002 cyc:  105553130 now IPC :1.70880: AVG IPC :1.63530: L2-Pf-HR :0.99141: L2-HR :0.95895: (Sim:0h31m38s) 
CPU  0 inst:  174000000 cyc:  106138029 now IPC :1.70969: AVG IPC :1.63571: L2-Pf-HR :0.99141: L2-HR :0.95897: (Sim:0h31m56s) 
CPU  0 inst:  175000005 cyc:  106722852 now IPC :1.70993: AVG IPC :1.63613: L2-Pf-HR :0.99141: L2-HR :0.95899: (Sim:0h32m13s) 
CPU  0 inst:  176000002 cyc:  107306731 now IPC :1.71268: AVG IPC :1.63655: L2-Pf-HR :0.99141: L2-HR :0.95901: (Sim:0h32m31s) 
CPU  0 inst:  177000000 cyc:  107889949 now IPC :1.71462: AVG IPC :1.63697: L2-Pf-HR :0.99141: L2-HR :0.95903: (Sim:0h32m48s) 
CPU  0 inst:  178000002 cyc:  108472809 now IPC :1.71568: AVG IPC :1.63740: L2-Pf-HR :0.99141: L2-HR :0.95905: (Sim:0h33m6s) 
CPU  0 inst:  179000002 cyc:  109053240 now IPC :1.72286: AVG IPC :1.63786: L2-Pf-HR :0.99141: L2-HR :0.95907: (Sim:0h33m23s) 
CPU  0 inst:  180000000 cyc:  109635078 now IPC :1.71869: AVG IPC :1.63829: L2-Pf-HR :0.99141: L2-HR :0.95909: (Sim:0h33m40s) 
CPU  0 inst:  181000003 cyc:  110215324 now IPC :1.72341: AVG IPC :1.63874: L2-Pf-HR :0.99142: L2-HR :0.95911: (Sim:0h33m58s) 
CPU  0 inst:  182000002 cyc:  110904352 now IPC :1.45132: AVG IPC :1.63757: L2-Pf-HR :0.99142: L2-HR :0.95906: (Sim:0h34m16s) 
CPU  0 inst:  183000004 cyc:  111488493 now IPC :1.71192: AVG IPC :1.63796: L2-Pf-HR :0.99142: L2-HR :0.95910: (Sim:0h34m33s) 
CPU  0 inst:  184000002 cyc:  112072938 now IPC :1.71102: AVG IPC :1.63835: L2-Pf-HR :0.99143: L2-HR :0.95914: (Sim:0h34m51s) 
CPU  0 inst:  185000001 cyc:  112657534 now IPC :1.71058: AVG IPC :1.63872: L2-Pf-HR :0.99143: L2-HR :0.95919: (Sim:0h35m8s) 
CPU  0 inst:  186000005 cyc:  113240771 now IPC :1.71458: AVG IPC :1.63912: L2-Pf-HR :0.99143: L2-HR :0.95923: (Sim:0h35m26s) 
CPU  0 inst:  187000001 cyc:  113826119 now IPC :1.70838: AVG IPC :1.63948: L2-Pf-HR :0.99144: L2-HR :0.95927: (Sim:0h35m43s) 
CPU  0 inst:  188000002 cyc:  114410462 now IPC :1.71133: AVG IPC :1.63985: L2-Pf-HR :0.99145: L2-HR :0.95932: (Sim:0h36m0s) 
CPU  0 inst:  189000004 cyc:  114995067 now IPC :1.71056: AVG IPC :1.64021: L2-Pf-HR :0.99145: L2-HR :0.95936: (Sim:0h36m18s) 
CPU  0 inst:  190000003 cyc:  115760789 now IPC :1.30596: AVG IPC :1.63798: L2-Pf-HR :0.99143: L2-HR :0.95919: (Sim:0h36m37s) 
CPU  0 inst:  191000005 cyc:  116396342 now IPC :1.57344: AVG IPC :1.63762: L2-Pf-HR :0.99143: L2-HR :0.95917: (Sim:0h36m55s) 
CPU  0 inst:  192000001 cyc:  117017973 now IPC :1.60866: AVG IPC :1.63747: L2-Pf-HR :0.99143: L2-HR :0.95916: (Sim:0h37m13s) 
CPU  0 inst:  193000003 cyc:  117644876 now IPC :1.59515: AVG IPC :1.63724: L2-Pf-HR :0.99143: L2-HR :0.95914: (Sim:0h37m30s) 
CPU  0 inst:  194000000 cyc:  118274052 now IPC :1.58938: AVG IPC :1.63698: L2-Pf-HR :0.99143: L2-HR :0.95912: (Sim:0h37m48s) 
CPU  0 inst:  195000004 cyc:  118898864 now IPC :1.60049: AVG IPC :1.63679: L2-Pf-HR :0.99143: L2-HR :0.95911: (Sim:0h38m6s) 
CPU  0 inst:  196000000 cyc:  119532972 now IPC :1.57701: AVG IPC :1.63647: L2-Pf-HR :0.99143: L2-HR :0.95909: (Sim:0h38m24s) 
CPU  0 inst:  197000001 cyc:  120154655 now IPC :1.60854: AVG IPC :1.63633: L2-Pf-HR :0.99143: L2-HR :0.95908: (Sim:0h38m42s) 
CPU  0 inst:  198000001 cyc:  120786641 now IPC :1.58231: AVG IPC :1.63604: L2-Pf-HR :0.99143: L2-HR :0.95907: (Sim:0h39m0s) 
CPU  0 inst:  199000003 cyc:  121410071 now IPC :1.60403: AVG IPC :1.63588: L2-Pf-HR :0.99143: L2-HR :0.95905: (Sim:0h39m18s) 
CPU  0 inst:  200000002 cyc:  122031753 now IPC :1.60854: AVG IPC :1.63573: L2-Pf-HR :0.99143: L2-HR :0.95904: (Sim:0h39m36s) 
CPU  0 inst:  201000003 cyc:  122657240 now IPC :1.59876: AVG IPC :1.63554: L2-Pf-HR :0.99144: L2-HR :0.95902: (Sim:0h39m53s) 
CPU  0 inst:  202000003 cyc:  123409371 now IPC :1.32956: AVG IPC :1.63366: L2-Pf-HR :0.99144: L2-HR :0.95892: (Sim:0h40m13s) 
CPU  0 inst:  203000000 cyc:  124004609 now IPC :1.68000: AVG IPC :1.63389: L2-Pf-HR :0.99144: L2-HR :0.95893: (Sim:0h40m30s) 
CPU  0 inst:  204000004 cyc:  124594206 now IPC :1.69608: AVG IPC :1.63419: L2-Pf-HR :0.99144: L2-HR :0.95895: (Sim:0h40m48s) 
CPU  0 inst:  205000000 cyc:  125180685 now IPC :1.70508: AVG IPC :1.63452: L2-Pf-HR :0.99145: L2-HR :0.95896: (Sim:0h41m5s) 
CPU  0 inst:  206000000 cyc:  125766843 now IPC :1.70602: AVG IPC :1.63486: L2-Pf-HR :0.99145: L2-HR :0.95898: (Sim:0h41m23s) 
CPU  0 inst:  207000000 cyc:  126356817 now IPC :1.69499: AVG IPC :1.63514: L2-Pf-HR :0.99145: L2-HR :0.95900: (Sim:0h41m40s) 
CPU  0 inst:  208000004 cyc:  126944317 now IPC :1.70213: AVG IPC :1.63545: L2-Pf-HR :0.99145: L2-HR :0.95902: (Sim:0h41m58s) 
CPU  0 inst:  209000005 cyc:  127530765 now IPC :1.70518: AVG IPC :1.63577: L2-Pf-HR :0.99145: L2-HR :0.95903: (Sim:0h42m15s) 
CPU  0 inst:  210000005 cyc:  128116462 now IPC :1.70737: AVG IPC :1.63610: L2-Pf-HR :0.99145: L2-HR :0.95905: (Sim:0h42m33s) 
CPU  0 inst:  211000001 cyc:  128700499 now IPC :1.71221: AVG IPC :1.63645: L2-Pf-HR :0.99145: L2-HR :0.95907: (Sim:0h42m50s) 
CPU  0 inst:  212000004 cyc:  129287690 now IPC :1.70303: AVG IPC :1.63676: L2-Pf-HR :0.99145: L2-HR :0.95908: (Sim:0h43m7s) 
CPU  0 inst:  213000002 cyc:  129872670 now IPC :1.70946: AVG IPC :1.63709: L2-Pf-HR :0.99144: L2-HR :0.95910: (Sim:0h43m25s) 
CPU  0 inst:  214000000 cyc:  130564919 now IPC :1.44456: AVG IPC :1.63606: L2-Pf-HR :0.99145: L2-HR :0.95906: (Sim:0h43m43s) 
CPU  0 inst:  215000004 cyc:  131153725 now IPC :1.69836: AVG IPC :1.63634: L2-Pf-HR :0.99146: L2-HR :0.95909: (Sim:0h44m1s) 
CPU  0 inst:  216000005 cyc:  131740035 now IPC :1.70558: AVG IPC :1.63665: L2-Pf-HR :0.99146: L2-HR :0.95912: (Sim:0h44m18s) 
CPU  0 inst:  217000004 cyc:  132326876 now IPC :1.70404: AVG IPC :1.63695: L2-Pf-HR :0.99146: L2-HR :0.95916: (Sim:0h44m36s) 
CPU  0 inst:  218000003 cyc:  132914131 now IPC :1.70284: AVG IPC :1.63725: L2-Pf-HR :0.99146: L2-HR :0.95919: (Sim:0h44m53s) 
CPU  0 inst:  219000001 cyc:  133501869 now IPC :1.70143: AVG IPC :1.63753: L2-Pf-HR :0.99147: L2-HR :0.95922: (Sim:0h45m11s) 
CPU  0 inst:  220000003 cyc:  134089299 now IPC :1.70233: AVG IPC :1.63782: L2-Pf-HR :0.99147: L2-HR :0.95926: (Sim:0h45m29s) 
CPU  0 inst:  221000002 cyc:  134687086 now IPC :1.67283: AVG IPC :1.63797: L2-Pf-HR :0.99148: L2-HR :0.95931: (Sim:0h45m47s) 
CPU  0 inst:  222000004 cyc:  135473473 now IPC :1.27164: AVG IPC :1.63583: L2-Pf-HR :0.99146: L2-HR :0.95912: (Sim:0h46m6s) 
CPU  0 inst:  223000003 cyc:  136088509 now IPC :1.62592: AVG IPC :1.63579: L2-Pf-HR :0.99146: L2-HR :0.95911: (Sim:0h46m25s) 
CPU  0 inst:  224000005 cyc:  136717789 now IPC :1.58912: AVG IPC :1.63557: L2-Pf-HR :0.99146: L2-HR :0.95909: (Sim:0h46m43s) 
CPU  0 inst:  225000001 cyc:  137347396 now IPC :1.58829: AVG IPC :1.63535: L2-Pf-HR :0.99146: L2-HR :0.95907: (Sim:0h47m1s) 
CPU  0 inst:  226000000 cyc:  137969427 now IPC :1.60764: AVG IPC :1.63523: L2-Pf-HR :0.99146: L2-HR :0.95907: (Sim:0h47m19s) 
CPU  0 inst:  227000004 cyc:  138595079 now IPC :1.59834: AVG IPC :1.63506: L2-Pf-HR :0.99146: L2-HR :0.95906: (Sim:0h47m38s) 
CPU  0 inst:  228000001 cyc:  139215255 now IPC :1.61244: AVG IPC :1.63496: L2-Pf-HR :0.99146: L2-HR :0.95905: (Sim:0h47m56s) 
CPU  0 inst:  229000002 cyc:  139847385 now IPC :1.58195: AVG IPC :1.63471: L2-Pf-HR :0.99146: L2-HR :0.95903: (Sim:0h48m14s) 
CPU  0 inst:  230000005 cyc:  140477050 now IPC :1.58815: AVG IPC :1.63450: L2-Pf-HR :0.99146: L2-HR :0.95901: (Sim:0h48m32s) 
CPU  0 inst:  231000001 cyc:  141096417 now IPC :1.61455: AVG IPC :1.63442: L2-Pf-HR :0.99147: L2-HR :0.95901: (Sim:0h48m50s) 
CPU  0 inst:  232000000 cyc:  141728231 now IPC :1.58274: AVG IPC :1.63418: L2-Pf-HR :0.99147: L2-HR :0.95899: (Sim:0h49m8s) 
CPU  0 inst:  233000004 cyc:  142388068 now IPC :1.51553: AVG IPC :1.63363: L2-Pf-HR :0.99147: L2-HR :0.95897: (Sim:0h49m27s) 
CPU  0 inst:  234000004 cyc:  143075639 now IPC :1.45440: AVG IPC :1.63276: L2-Pf-HR :0.99147: L2-HR :0.95890: (Sim:0h49m46s) 
CPU  0 inst:  235000001 cyc:  143655605 now IPC :1.72423: AVG IPC :1.63314: L2-Pf-HR :0.99147: L2-HR :0.95892: (Sim:0h50m4s) 
CPU  0 inst:  236000000 cyc:  144232134 now IPC :1.73452: AVG IPC :1.63354: L2-Pf-HR :0.99147: L2-HR :0.95893: (Sim:0h50m21s) 
CPU  0 inst:  237000000 cyc:  144808286 now IPC :1.73565: AVG IPC :1.63395: L2-Pf-HR :0.99147: L2-HR :0.95895: (Sim:0h50m39s) 
CPU  0 inst:  238000002 cyc:  145386441 now IPC :1.72964: AVG IPC :1.63434: L2-Pf-HR :0.99147: L2-HR :0.95896: (Sim:0h50m57s) 
CPU  0 inst:  239000005 cyc:  145965653 now IPC :1.72649: AVG IPC :1.63470: L2-Pf-HR :0.99147: L2-HR :0.95898: (Sim:0h51m14s) 
CPU  0 inst:  240000004 cyc:  146542580 now IPC :1.73332: AVG IPC :1.63509: L2-Pf-HR :0.99147: L2-HR :0.95899: (Sim:0h51m32s) 
CPU  0 inst:  241000005 cyc:  147120260 now IPC :1.73106: AVG IPC :1.63547: L2-Pf-HR :0.99148: L2-HR :0.95900: (Sim:0h51m50s) 
CPU  0 inst:  242000004 cyc:  147695905 now IPC :1.73718: AVG IPC :1.63587: L2-Pf-HR :0.99148: L2-HR :0.95902: (Sim:0h52m8s) 
CPU  0 inst:  243000001 cyc:  148270057 now IPC :1.74169: AVG IPC :1.63629: L2-Pf-HR :0.99148: L2-HR :0.95903: (Sim:0h52m25s) 
CPU  0 inst:  244000004 cyc:  148846066 now IPC :1.73609: AVG IPC :1.63667: L2-Pf-HR :0.99148: L2-HR :0.95905: (Sim:0h52m43s) 
CPU  0 inst:  245000005 cyc:  149539699 now IPC :1.44169: AVG IPC :1.63576: L2-Pf-HR :0.99148: L2-HR :0.95900: (Sim:0h53m2s) 
CPU  0 inst:  246000003 cyc:  150125657 now IPC :1.70660: AVG IPC :1.63604: L2-Pf-HR :0.99148: L2-HR :0.95903: (Sim:0h53m20s) 
CPU  0 inst:  247000002 cyc:  150711512 now IPC :1.70691: AVG IPC :1.63632: L2-Pf-HR :0.99148: L2-HR :0.95907: (Sim:0h53m38s) 
CPU  0 inst:  248000000 cyc:  151298172 now IPC :1.70456: AVG IPC :1.63659: L2-Pf-HR :0.99149: L2-HR :0.95910: (Sim:0h53m56s) 
CPU  0 inst:  249000002 cyc:  151884312 now IPC :1.70608: AVG IPC :1.63686: L2-Pf-HR :0.99149: L2-HR :0.95913: (Sim:0h54m14s) 
CPU  0 inst:  250000000 cyc:  152469882 now IPC :1.70773: AVG IPC :1.63713: L2-Pf-HR :0.99150: L2-HR :0.95916: (Sim:0h54m32s) 
CPU  0 inst:  251000005 cyc:  153057232 now IPC :1.70257: AVG IPC :1.63738: L2-Pf-HR :0.99150: L2-HR :0.95920: (Sim:0h54m50s) 
CPU  0 inst:  252000003 cyc:  153644327 now IPC :1.70330: AVG IPC :1.63764: L2-Pf-HR :0.99151: L2-HR :0.95923: (Sim:0h55m8s) 
CPU  0 inst:  253000000 cyc:  154420683 now IPC :1.28806: AVG IPC :1.63587: L2-Pf-HR :0.99149: L2-HR :0.95910: (Sim:0h55m28s) 
CPU  0 inst:  254000005 cyc:  155043519 now IPC :1.60557: AVG IPC :1.63574: L2-Pf-HR :0.99149: L2-HR :0.95909: (Sim:0h55m47s) 
CPU  0 inst:  255000000 cyc:  155667932 now IPC :1.60150: AVG IPC :1.63561: L2-Pf-HR :0.99149: L2-HR :0.95908: (Sim:0h56m5s) 
CPU  0 inst:  256000002 cyc:  156289142 now IPC :1.60976: AVG IPC :1.63550: L2-Pf-HR :0.99149: L2-HR :0.95907: (Sim:0h56m24s) 
CPU  0 inst:  257000002 cyc:  156922741 now IPC :1.57829: AVG IPC :1.63527: L2-Pf-HR :0.99149: L2-HR :0.95906: (Sim:0h56m43s) 
CPU  0 inst:  258000004 cyc:  157560143 now IPC :1.56887: AVG IPC :1.63500: L2-Pf-HR :0.99149: L2-HR :0.95904: (Sim:0h57m1s) 
CPU  0 inst:  259000000 cyc:  158183098 now IPC :1.60525: AVG IPC :1.63488: L2-Pf-HR :0.99149: L2-HR :0.95904: (Sim:0h57m20s) 
CPU  0 inst:  260000002 cyc:  158816551 now IPC :1.57865: AVG IPC :1.63466: L2-Pf-HR :0.99149: L2-HR :0.95903: (Sim:0h57m38s) 
CPU  0 inst:  261000003 cyc:  159445678 now IPC :1.58951: AVG IPC :1.63448: L2-Pf-HR :0.99149: L2-HR :0.95901: (Sim:0h57m49s) 
CPU  0 inst:  262000003 cyc:  160069122 now IPC :1.60399: AVG IPC :1.63436: L2-Pf-HR :0.99150: L2-HR :0.95901: (Sim:0h58m1s) 
CPU  0 inst:  263000005 cyc:  160702666 now IPC :1.57843: AVG IPC :1.63414: L2-Pf-HR :0.99150: L2-HR :0.95899: (Sim:0h58m20s) 
CPU  0 inst:  264000000 cyc:  161317096 now IPC :1.62752: AVG IPC :1.63411: L2-Pf-HR :0.99150: L2-HR :0.95898: (Sim:0h58m38s) 
CPU  0 inst:  265000004 cyc:  162076317 now IPC :1.31714: AVG IPC :1.63262: L2-Pf-HR :0.99150: L2-HR :0.95890: (Sim:0h58m58s) 
CPU  0 inst:  266000003 cyc:  162671136 now IPC :1.68118: AVG IPC :1.63280: L2-Pf-HR :0.99150: L2-HR :0.95891: (Sim:0h59m16s) 
CPU  0 inst:  267000005 cyc:  163256883 now IPC :1.70723: AVG IPC :1.63306: L2-Pf-HR :0.99150: L2-HR :0.95892: (Sim:0h59m33s) 
CPU  0 inst:  268000005 cyc:  163840711 now IPC :1.71283: AVG IPC :1.63335: L2-Pf-HR :0.99151: L2-HR :0.95894: (Sim:0h59m51s) 
CPU  0 inst:  269000003 cyc:  164427324 now IPC :1.70470: AVG IPC :1.63361: L2-Pf-HR :0.99151: L2-HR :0.95895: (Sim:1h0m8s) 
CPU  0 inst:  270000005 cyc:  165016077 now IPC :1.69851: AVG IPC :1.63384: L2-Pf-HR :0.99151: L2-HR :0.95896: (Sim:1h0m26s) 
CPU  0 inst:  271000005 cyc:  165601049 now IPC :1.70948: AVG IPC :1.63411: L2-Pf-HR :0.99151: L2-HR :0.95898: (Sim:1h0m44s) 
CPU  0 inst:  272000002 cyc:  166186277 now IPC :1.70873: AVG IPC :1.63437: L2-Pf-HR :0.99151: L2-HR :0.95899: (Sim:1h1m1s) 
CPU  0 inst:  273000005 cyc:  166771929 now IPC :1.70750: AVG IPC :1.63463: L2-Pf-HR :0.99151: L2-HR :0.95900: (Sim:1h1m19s) 
CPU  0 inst:  274000004 cyc:  167355145 now IPC :1.71463: AVG IPC :1.63491: L2-Pf-HR :0.99151: L2-HR :0.95902: (Sim:1h1m36s) 
CPU  0 inst:  275000000 cyc:  167940964 now IPC :1.70701: AVG IPC :1.63516: L2-Pf-HR :0.99151: L2-HR :0.95903: (Sim:1h1m54s) 
CPU  0 inst:  276000000 cyc:  168525364 now IPC :1.71116: AVG IPC :1.63543: L2-Pf-HR :0.99151: L2-HR :0.95904: (Sim:1h2m11s) 
CPU  0 inst:  277000001 cyc:  169211408 now IPC :1.45763: AVG IPC :1.63470: L2-Pf-HR :0.99152: L2-HR :0.95901: (Sim:1h2m30s) 
CPU  0 inst:  278000003 cyc:  169789595 now IPC :1.72955: AVG IPC :1.63503: L2-Pf-HR :0.99152: L2-HR :0.95903: (Sim:1h2m47s) 
CPU  0 inst:  279000005 cyc:  170368318 now IPC :1.72795: AVG IPC :1.63535: L2-Pf-HR :0.99152: L2-HR :0.95906: (Sim:1h3m5s) 
CPU  0 inst:  280000000 cyc:  170946769 now IPC :1.72875: AVG IPC :1.63566: L2-Pf-HR :0.99153: L2-HR :0.95909: (Sim:1h3m22s) 
CPU  0 inst:  281000005 cyc:  171526861 now IPC :1.72387: AVG IPC :1.63596: L2-Pf-HR :0.99153: L2-HR :0.95912: (Sim:1h3m40s) 
CPU  0 inst:  282000000 cyc:  172106911 now IPC :1.72398: AVG IPC :1.63626: L2-Pf-HR :0.99154: L2-HR :0.95915: (Sim:1h3m57s) 
CPU  0 inst:  283000002 cyc:  172684695 now IPC :1.73075: AVG IPC :1.63658: L2-Pf-HR :0.99154: L2-HR :0.95918: (Sim:1h4m14s) 
CPU  0 inst:  284000003 cyc:  173264019 now IPC :1.72615: AVG IPC :1.63688: L2-Pf-HR :0.99155: L2-HR :0.95921: (Sim:1h4m32s) 
CPU  0 inst:  285000004 cyc:  174043219 now IPC :1.28337: AVG IPC :1.63529: L2-Pf-HR :0.99153: L2-HR :0.95909: (Sim:1h4m52s) 
CPU  0 inst:  286000000 cyc:  174676187 now IPC :1.57985: AVG IPC :1.63509: L2-Pf-HR :0.99153: L2-HR :0.95907: (Sim:1h5m10s) 
CPU  0 inst:  287000001 cyc:  175300459 now IPC :1.60187: AVG IPC :1.63497: L2-Pf-HR :0.99153: L2-HR :0.95906: (Sim:1h5m28s) 
CPU  0 inst:  288000001 cyc:  175931618 now IPC :1.58439: AVG IPC :1.63479: L2-Pf-HR :0.99154: L2-HR :0.95905: (Sim:1h5m47s) 
CPU  0 inst:  289000003 cyc:  176559565 now IPC :1.59249: AVG IPC :1.63464: L2-Pf-HR :0.99154: L2-HR :0.95904: (Sim:1h6m5s) 
CPU  0 inst:  290000002 cyc:  177179805 now IPC :1.61228: AVG IPC :1.63456: L2-Pf-HR :0.99154: L2-HR :0.95904: (Sim:1h6m23s) 
CPU  0 inst:  291000003 cyc:  177812804 now IPC :1.57978: AVG IPC :1.63436: L2-Pf-HR :0.99154: L2-HR :0.95903: (Sim:1h6m41s) 
CPU  0 inst:  292000005 cyc:  178430088 now IPC :1.62000: AVG IPC :1.63431: L2-Pf-HR :0.99154: L2-HR :0.95902: (Sim:1h6m59s) 
CPU  0 inst:  293000005 cyc:  179065029 now IPC :1.57495: AVG IPC :1.63410: L2-Pf-HR :0.99154: L2-HR :0.95901: (Sim:1h7m17s) 
CPU  0 inst:  294000001 cyc:  179697324 now IPC :1.58153: AVG IPC :1.63391: L2-Pf-HR :0.99154: L2-HR :0.95900: (Sim:1h7m36s) 
CPU  0 inst:  295000000 cyc:  180314248 now IPC :1.62094: AVG IPC :1.63387: L2-Pf-HR :0.99154: L2-HR :0.95899: (Sim:1h7m53s) 
CPU  0 inst:  296000003 cyc:  180947681 now IPC :1.57870: AVG IPC :1.63367: L2-Pf-HR :0.99154: L2-HR :0.95899: (Sim:1h8m12s) 
CPU  0 inst:  297000002 cyc:  181682489 now IPC :1.36090: AVG IPC :1.63256: L2-Pf-HR :0.99155: L2-HR :0.95891: (Sim:1h8m31s) 
CPU  0 inst:  298000003 cyc:  182262923 now IPC :1.72285: AVG IPC :1.63285: L2-Pf-HR :0.99155: L2-HR :0.95893: (Sim:1h8m49s) 
CPU  0 inst:  299000003 cyc:  182841299 now IPC :1.72898: AVG IPC :1.63316: L2-Pf-HR :0.99155: L2-HR :0.95894: (Sim:1h9m1s) 
CPU  0 inst:  300000000 cyc:  183422118 now IPC :1.72170: AVG IPC :1.63344: L2-Pf-HR :0.99155: L2-HR :0.95894: (Sim:1h9m9s) 
CPU  0 inst:  301000005 cyc:  184001764 now IPC :1.72520: AVG IPC :1.63373: L2-Pf-HR :0.99155: L2-HR :0.95896: (Sim:1h9m18s) 
CPU  0 inst:  302000000 cyc:  184578381 now IPC :1.73424: AVG IPC :1.63405: L2-Pf-HR :0.99155: L2-HR :0.95897: (Sim:1h9m26s) 
CPU  0 inst:  303000004 cyc:  185154770 now IPC :1.73495: AVG IPC :1.63436: L2-Pf-HR :0.99155: L2-HR :0.95898: (Sim:1h9m34s) 
CPU  0 inst:  304000004 cyc:  185730202 now IPC :1.73782: AVG IPC :1.63469: L2-Pf-HR :0.99155: L2-HR :0.95899: (Sim:1h9m42s) 
CPU  0 inst:  305000003 cyc:  186305715 now IPC :1.73758: AVG IPC :1.63501: L2-Pf-HR :0.99155: L2-HR :0.95900: (Sim:1h9m50s) 
CPU  0 inst:  306000000 cyc:  186878892 now IPC :1.74466: AVG IPC :1.63534: L2-Pf-HR :0.99155: L2-HR :0.95901: (Sim:1h9m58s) 
CPU  0 inst:  307000003 cyc:  187454318 now IPC :1.73785: AVG IPC :1.63566: L2-Pf-HR :0.99156: L2-HR :0.95903: (Sim:1h10m7s) 
CPU  0 inst:  308000001 cyc:  188131617 now IPC :1.47645: AVG IPC :1.63508: L2-Pf-HR :0.99156: L2-HR :0.95899: (Sim:1h10m16s) 
CPU  0 inst:  309000002 cyc:  188733862 now IPC :1.66046: AVG IPC :1.63516: L2-Pf-HR :0.99156: L2-HR :0.95901: (Sim:1h10m24s) 
CPU  0 inst:  310000003 cyc:  189318012 now IPC :1.71189: AVG IPC :1.63540: L2-Pf-HR :0.99156: L2-HR :0.95903: (Sim:1h10m32s) 
CPU  0 inst:  311000002 cyc:  189901495 now IPC :1.71384: AVG IPC :1.63565: L2-Pf-HR :0.99156: L2-HR :0.95906: (Sim:1h10m40s) 
CPU  0 inst:  312000000 cyc:  190485233 now IPC :1.71309: AVG IPC :1.63588: L2-Pf-HR :0.99157: L2-HR :0.95908: (Sim:1h10m49s) 
CPU  0 inst:  313000002 cyc:  191069750 now IPC :1.71082: AVG IPC :1.63611: L2-Pf-HR :0.99157: L2-HR :0.95911: (Sim:1h10m57s) 
CPU  0 inst:  314000003 cyc:  191654938 now IPC :1.70885: AVG IPC :1.63634: L2-Pf-HR :0.99157: L2-HR :0.95913: (Sim:1h11m5s) 
CPU  0 inst:  315000002 cyc:  192239200 now IPC :1.71156: AVG IPC :1.63657: L2-Pf-HR :0.99158: L2-HR :0.95915: (Sim:1h11m14s) 
CPU  0 inst:  316000000 cyc:  192988129 now IPC :1.33524: AVG IPC :1.63539: L2-Pf-HR :0.99156: L2-HR :0.95906: (Sim:1h11m23s) 
CPU  0 inst:  317000002 cyc:  193624983 now IPC :1.57022: AVG IPC :1.63518: L2-Pf-HR :0.99156: L2-HR :0.95905: (Sim:1h11m31s) 
CPU  0 inst:  318000001 cyc:  194242456 now IPC :1.61950: AVG IPC :1.63513: L2-Pf-HR :0.99156: L2-HR :0.95904: (Sim:1h11m40s) 
CPU  0 inst:  319000002 cyc:  194870446 now IPC :1.59238: AVG IPC :1.63499: L2-Pf-HR :0.99156: L2-HR :0.95903: (Sim:1h11m48s) 
CPU  0 inst:  320000005 cyc:  195500348 now IPC :1.58755: AVG IPC :1.63483: L2-Pf-HR :0.99156: L2-HR :0.95902: (Sim:1h11m57s) 
CPU  0 inst:  321000004 cyc:  196120444 now IPC :1.61265: AVG IPC :1.63476: L2-Pf-HR :0.99156: L2-HR :0.95901: (Sim:1h12m5s) 
CPU  0 inst:  322000000 cyc:  196749793 now IPC :1.58894: AVG IPC :1.63462: L2-Pf-HR :0.99157: L2-HR :0.95900: (Sim:1h12m14s) 
CPU  0 inst:  323000002 cyc:  197365318 now IPC :1.62463: AVG IPC :1.63459: L2-Pf-HR :0.99156: L2-HR :0.95900: (Sim:1h12m22s) 
CPU  0 inst:  324000000 cyc:  197995211 now IPC :1.58757: AVG IPC :1.63443: L2-Pf-HR :0.99157: L2-HR :0.95899: (Sim:1h12m31s) 
CPU  0 inst:  325000003 cyc:  198624538 now IPC :1.58900: AVG IPC :1.63429: L2-Pf-HR :0.99157: L2-HR :0.95898: (Sim:1h12m39s) 
CPU  0 inst:  326000005 cyc:  199238855 now IPC :1.62783: AVG IPC :1.63427: L2-Pf-HR :0.99157: L2-HR :0.95897: (Sim:1h12m48s) 
CPU  0 inst:  327000001 cyc:  199866899 now IPC :1.59224: AVG IPC :1.63414: L2-Pf-HR :0.99157: L2-HR :0.95896: (Sim:1h12m56s) 
CPU  0 inst:  328000002 cyc:  200620249 now IPC :1.32741: AVG IPC :1.63298: L2-Pf-HR :0.99157: L2-HR :0.95889: (Sim:1h13m6s) 
CPU  0 inst:  329000003 cyc:  201212592 now IPC :1.68821: AVG IPC :1.63314: L2-Pf-HR :0.99158: L2-HR :0.95890: (Sim:1h13m14s) 
CPU  0 inst:  330000003 cyc:  201796054 now IPC :1.71391: AVG IPC :1.63338: L2-Pf-HR :0.99158: L2-HR :0.95891: (Sim:1h13m22s) 
CPU  0 inst:  331000005 cyc:  202378502 now IPC :1.71689: AVG IPC :1.63362: L2-Pf-HR :0.99157: L2-HR :0.95892: (Sim:1h13m31s) 
CPU  0 inst:  332000002 cyc:  202962481 now IPC :1.71239: AVG IPC :1.63385: L2-Pf-HR :0.99157: L2-HR :0.95893: (Sim:1h13m40s) 
CPU  0 inst:  333000004 cyc:  203549016 now IPC :1.70493: AVG IPC :1.63405: L2-Pf-HR :0.99157: L2-HR :0.95894: (Sim:1h13m58s) 
CPU  0 inst:  334000004 cyc:  204131494 now IPC :1.71680: AVG IPC :1.63429: L2-Pf-HR :0.99157: L2-HR :0.95895: (Sim:1h14m16s) 
CPU  0 inst:  335000003 cyc:  204712696 now IPC :1.72057: AVG IPC :1.63454: L2-Pf-HR :0.99157: L2-HR :0.95896: (Sim:1h14m33s) 
CPU  0 inst:  336000004 cyc:  205294633 now IPC :1.71840: AVG IPC :1.63478: L2-Pf-HR :0.99157: L2-HR :0.95897: (Sim:1h14m51s) 
CPU  0 inst:  337000000 cyc:  205873787 now IPC :1.72665: AVG IPC :1.63504: L2-Pf-HR :0.99157: L2-HR :0.95898: (Sim:1h15m8s) 
CPU  0 inst:  338000004 cyc:  206453813 now IPC :1.72407: AVG IPC :1.63529: L2-Pf-HR :0.99157: L2-HR :0.95899: (Sim:1h15m26s) 
CPU  0 inst:  339000000 cyc:  207034207 now IPC :1.72296: AVG IPC :1.63553: L2-Pf-HR :0.99158: L2-HR :0.95900: (Sim:1h15m44s) 
CPU  0 inst:  340000004 cyc:  207731613 now IPC :1.43389: AVG IPC :1.63485: L2-Pf-HR :0.99158: L2-HR :0.95898: (Sim:1h16m2s) 
CPU  0 inst:  341000003 cyc:  208318936 now IPC :1.70264: AVG IPC :1.63505: L2-Pf-HR :0.99158: L2-HR :0.95900: (Sim:1h16m20s) 
CPU  0 inst:  342000004 cyc:  208905885 now IPC :1.70373: AVG IPC :1.63524: L2-Pf-HR :0.99158: L2-HR :0.95902: (Sim:1h16m37s) 
CPU  0 inst:  343000003 cyc:  209493494 now IPC :1.70181: AVG IPC :1.63543: L2-Pf-HR :0.99159: L2-HR :0.95905: (Sim:1h16m55s) 
CPU  0 inst:  344000001 cyc:  210080300 now IPC :1.70414: AVG IPC :1.63562: L2-Pf-HR :0.99159: L2-HR :0.95907: (Sim:1h17m13s) 
CPU  0 inst:  345000000 cyc:  210666439 now IPC :1.70608: AVG IPC :1.63582: L2-Pf-HR :0.99159: L2-HR :0.95910: (Sim:1h17m30s) 
CPU  0 inst:  346000004 cyc:  211252756 now IPC :1.70557: AVG IPC :1.63601: L2-Pf-HR :0.99160: L2-HR :0.95912: (Sim:1h17m48s) 
CPU  0 inst:  347000000 cyc:  211840604 now IPC :1.70111: AVG IPC :1.63619: L2-Pf-HR :0.99160: L2-HR :0.95914: (Sim:1h18m6s) 
CPU  0 inst:  348000004 cyc:  212628460 now IPC :1.26927: AVG IPC :1.63483: L2-Pf-HR :0.99159: L2-HR :0.95904: (Sim:1h18m25s) 
CPU  0 inst:  349000000 cyc:  213252894 now IPC :1.60144: AVG IPC :1.63473: L2-Pf-HR :0.99159: L2-HR :0.95904: (Sim:1h18m43s) 
CPU  0 inst:  350000005 cyc:  213887723 now IPC :1.57524: AVG IPC :1.63455: L2-Pf-HR :0.99159: L2-HR :0.95903: (Sim:1h19m2s) 
CPU  0 inst:  351000003 cyc:  214520137 now IPC :1.58124: AVG IPC :1.63439: L2-Pf-HR :0.99159: L2-HR :0.95902: (Sim:1h19m20s) 
CPU  0 inst:  352000000 cyc:  215141442 now IPC :1.60951: AVG IPC :1.63432: L2-Pf-HR :0.99159: L2-HR :0.95901: (Sim:1h19m38s) 
CPU  0 inst:  353000005 cyc:  215779706 now IPC :1.56676: AVG IPC :1.63412: L2-Pf-HR :0.99159: L2-HR :0.95900: (Sim:1h19m56s) 
CPU  0 inst:  354000004 cyc:  216401792 now IPC :1.60749: AVG IPC :1.63404: L2-Pf-HR :0.99159: L2-HR :0.95900: (Sim:1h20m15s) 
CPU  0 inst:  355000000 cyc:  217034393 now IPC :1.58077: AVG IPC :1.63389: L2-Pf-HR :0.99159: L2-HR :0.95899: (Sim:1h20m33s) 
CPU  0 inst:  356000001 cyc:  217668714 now IPC :1.57649: AVG IPC :1.63372: L2-Pf-HR :0.99159: L2-HR :0.95898: (Sim:1h20m51s) 
CPU  0 inst:  357000001 cyc:  218286685 now IPC :1.61820: AVG IPC :1.63368: L2-Pf-HR :0.99159: L2-HR :0.95897: (Sim:1h21m9s) 
CPU  0 inst:  358000003 cyc:  218924019 now IPC :1.56904: AVG IPC :1.63349: L2-Pf-HR :0.99159: L2-HR :0.95896: (Sim:1h21m27s) 
CPU  0 inst:  359000004 cyc:  219537423 now IPC :1.63025: AVG IPC :1.63348: L2-Pf-HR :0.99159: L2-HR :0.95896: (Sim:1h21m45s) 
CPU  0 inst:  360000005 cyc:  220290070 now IPC :1.32865: AVG IPC :1.63243: L2-Pf-HR :0.99160: L2-HR :0.95890: (Sim:1h22m5s) 
CPU  0 inst:  361000003 cyc:  220879368 now IPC :1.69693: AVG IPC :1.63260: L2-Pf-HR :0.99160: L2-HR :0.95891: (Sim:1h22m22s) 
CPU  0 inst:  362000002 cyc:  221467384 now IPC :1.70063: AVG IPC :1.63279: L2-Pf-HR :0.99160: L2-HR :0.95892: (Sim:1h22m40s) 
CPU  0 inst:  363000002 cyc:  222053068 now IPC :1.70741: AVG IPC :1.63298: L2-Pf-HR :0.99160: L2-HR :0.95893: (Sim:1h22m58s) 
CPU  0 inst:  364000002 cyc:  222641003 now IPC :1.70087: AVG IPC :1.63316: L2-Pf-HR :0.99160: L2-HR :0.95894: (Sim:1h23m16s) 
CPU  0 inst:  365000000 cyc:  223230110 now IPC :1.69748: AVG IPC :1.63333: L2-Pf-HR :0.99160: L2-HR :0.95895: (Sim:1h23m34s) 
CPU  0 inst:  366000001 cyc:  223814196 now IPC :1.71208: AVG IPC :1.63354: L2-Pf-HR :0.99160: L2-HR :0.95896: (Sim:1h23m51s) 
CPU  0 inst:  367000001 cyc:  224400092 now IPC :1.70679: AVG IPC :1.63373: L2-Pf-HR :0.99160: L2-HR :0.95897: (Sim:1h24m8s) 
CPU  0 inst:  368000005 cyc:  224984216 now IPC :1.71197: AVG IPC :1.63394: L2-Pf-HR :0.99160: L2-HR :0.95898: (Sim:1h24m25s) 
CPU  0 inst:  369000003 cyc:  225569226 now IPC :1.70937: AVG IPC :1.63413: L2-Pf-HR :0.99160: L2-HR :0.95899: (Sim:1h24m42s) 
CPU  0 inst:  370000003 cyc:  226154328 now IPC :1.70910: AVG IPC :1.63433: L2-Pf-HR :0.99160: L2-HR :0.95899: (Sim:1h24m59s) 
CPU  0 inst:  371000002 cyc:  226766159 now IPC :1.63444: AVG IPC :1.63433: L2-Pf-HR :0.99160: L2-HR :0.95901: (Sim:1h25m17s) 
CPU  0 inst:  372000002 cyc:  227430729 now IPC :1.50473: AVG IPC :1.63395: L2-Pf-HR :0.99160: L2-HR :0.95898: (Sim:1h25m34s) 
CPU  0 inst:  373000000 cyc:  228015138 now IPC :1.71113: AVG IPC :1.63415: L2-Pf-HR :0.99161: L2-HR :0.95900: (Sim:1h25m51s) 
CPU  0 inst:  374000002 cyc:  228600224 now IPC :1.70915: AVG IPC :1.63434: L2-Pf-HR :0.99161: L2-HR :0.95903: (Sim:1h26m8s) 
CPU  0 inst:  375000000 cyc:  229187246 now IPC :1.70351: AVG IPC :1.63452: L2-Pf-HR :0.99161: L2-HR :0.95905: (Sim:1h26m25s) 
CPU  0 inst:  376000005 cyc:  229774335 now IPC :1.70333: AVG IPC :1.63469: L2-Pf-HR :0.99161: L2-HR :0.95907: (Sim:1h26m42s) 
CPU  0 inst:  377000003 cyc:  230360925 now IPC :1.70476: AVG IPC :1.63487: L2-Pf-HR :0.99161: L2-HR :0.95909: (Sim:1h26m59s) 
CPU  0 inst:  378000002 cyc:  230946168 now IPC :1.70869: AVG IPC :1.63506: L2-Pf-HR :0.99162: L2-HR :0.95911: (Sim:1h27m16s) 
CPU  0 inst:  379000002 cyc:  231673628 now IPC :1.37465: AVG IPC :1.63424: L2-Pf-HR :0.99160: L2-HR :0.95904: (Sim:1h27m35s) 
CPU  0 inst:  380000002 cyc:  232319635 now IPC :1.54797: AVG IPC :1.63400: L2-Pf-HR :0.99161: L2-HR :0.95903: (Sim:1h27m53s) 
CPU  0 inst:  381000004 cyc:  232948664 now IPC :1.58976: AVG IPC :1.63388: L2-Pf-HR :0.99161: L2-HR :0.95902: (Sim:1h28m10s) 
CPU  0 inst:  382000000 cyc:  233580402 now IPC :1.58293: AVG IPC :1.63374: L2-Pf-HR :0.99161: L2-HR :0.95901: (Sim:1h28m28s) 
CPU  0 inst:  383000005 cyc:  234200923 now IPC :1.61156: AVG IPC :1.63368: L2-Pf-HR :0.99161: L2-HR :0.95900: (Sim:1h28m45s) 
CPU  0 inst:  384000001 cyc:  234830022 now IPC :1.58957: AVG IPC :1.63356: L2-Pf-HR :0.99161: L2-HR :0.95900: (Sim:1h29m3s) 
CPU  0 inst:  385000003 cyc:  235446127 now IPC :1.62310: AVG IPC :1.63353: L2-Pf-HR :0.99161: L2-HR :0.95899: (Sim:1h29m20s) 
CPU  0 inst:  386000002 cyc:  236076608 now IPC :1.58609: AVG IPC :1.63341: L2-Pf-HR :0.99161: L2-HR :0.95898: (Sim:1h29m38s) 
CPU  0 inst:  387000004 cyc:  236705014 now IPC :1.59133: AVG IPC :1.63330: L2-Pf-HR :0.99161: L2-HR :0.95897: (Sim:1h29m55s) 
CPU  0 inst:  388000004 cyc:  237322662 now IPC :1.61905: AVG IPC :1.63326: L2-Pf-HR :0.99161: L2-HR :0.95897: (Sim:1h30m13s) 
CPU  0 inst:  389000002 cyc:  237948415 now IPC :1.59807: AVG IPC :1.63317: L2-Pf-HR :0.99161: L2-HR :0.95896: (Sim:1h30m31s) 
CPU  0 inst:  390000001 cyc:  238563215 now IPC :1.62654: AVG IPC :1.63315: L2-Pf-HR :0.99161: L2-HR :0.95895: (Sim:1h30m49s) 
CPU  0 inst:  391000003 cyc:  239301561 now IPC :1.35438: AVG IPC :1.63228: L2-Pf-HR :0.99161: L2-HR :0.95889: (Sim:1h31m9s) 
CPU  0 inst:  392000003 cyc:  239907780 now IPC :1.64957: AVG IPC :1.63233: L2-Pf-HR :0.99161: L2-HR :0.95890: (Sim:1h31m27s) 
CPU  0 inst:  393000001 cyc:  240489902 now IPC :1.71785: AVG IPC :1.63254: L2-Pf-HR :0.99161: L2-HR :0.95891: (Sim:1h31m45s) 
CPU  0 inst:  394000002 cyc:  241070815 now IPC :1.72143: AVG IPC :1.63275: L2-Pf-HR :0.99161: L2-HR :0.95892: (Sim:1h32m2s) 
CPU  0 inst:  395000000 cyc:  241650931 now IPC :1.72379: AVG IPC :1.63297: L2-Pf-HR :0.99161: L2-HR :0.95893: (Sim:1h32m20s) 
CPU  0 inst:  396000001 cyc:  242234530 now IPC :1.71351: AVG IPC :1.63317: L2-Pf-HR :0.99161: L2-HR :0.95894: (Sim:1h32m38s) 
CPU  0 inst:  397000001 cyc:  242814728 now IPC :1.72355: AVG IPC :1.63338: L2-Pf-HR :0.99161: L2-HR :0.95895: (Sim:1h32m56s) 
CPU  0 inst:  398000003 cyc:  243393553 now IPC :1.72764: AVG IPC :1.63361: L2-Pf-HR :0.99161: L2-HR :0.95895: (Sim:1h33m13s) 
CPU  0 inst:  399000004 cyc:  243973669 now IPC :1.72379: AVG IPC :1.63382: L2-Pf-HR :0.99161: L2-HR :0.95896: (Sim:1h33m31s) 
CPU  0 inst:  400000003 cyc:  244554329 now IPC :1.72218: AVG IPC :1.63403: L2-Pf-HR :0.99161: L2-HR :0.95897: (Sim:1h33m49s) 
CPU  0 inst:  401000003 cyc:  245133552 now IPC :1.72645: AVG IPC :1.63425: L2-Pf-HR :0.99161: L2-HR :0.95898: (Sim:1h34m7s) 
CPU  0 inst:  402000003 cyc:  245711961 now IPC :1.72888: AVG IPC :1.63448: L2-Pf-HR :0.99161: L2-HR :0.95899: (Sim:1h34m24s) 
CPU  0 inst:  403000001 cyc:  246401647 now IPC :1.44993: AVG IPC :1.63396: L2-Pf-HR :0.99162: L2-HR :0.95897: (Sim:1h34m43s) 
CPU  0 inst:  404000002 cyc:  246977572 now IPC :1.73634: AVG IPC :1.63420: L2-Pf-HR :0.99162: L2-HR :0.95899: (Sim:1h35m1s) 
CPU  0 inst:  405000004 cyc:  247553051 now IPC :1.73769: AVG IPC :1.63444: L2-Pf-HR :0.99162: L2-HR :0.95900: (Sim:1h35m18s) 
CPU  0 inst:  406000004 cyc:  248128474 now IPC :1.73785: AVG IPC :1.63468: L2-Pf-HR :0.99162: L2-HR :0.95902: (Sim:1h35m36s) 
CPU  0 inst:  407000004 cyc:  248704224 now IPC :1.73686: AVG IPC :1.63492: L2-Pf-HR :0.99162: L2-HR :0.95904: (Sim:1h35m54s) 
CPU  0 inst:  408000002 cyc:  249280622 now IPC :1.73491: AVG IPC :1.63515: L2-Pf-HR :0.99163: L2-HR :0.95906: (Sim:1h36m11s) 
CPU  0 inst:  409000004 cyc:  249857783 now IPC :1.73262: AVG IPC :1.63538: L2-Pf-HR :0.99163: L2-HR :0.95908: (Sim:1h36m29s) 
CPU  0 inst:  410000005 cyc:  250434047 now IPC :1.73532: AVG IPC :1.63561: L2-Pf-HR :0.99163: L2-HR :0.95911: (Sim:1h36m47s) 
CPU  0 inst:  411000004 cyc:  251202076 now IPC :1.30203: AVG IPC :1.63458: L2-Pf-HR :0.99162: L2-HR :0.95903: (Sim:1h37m6s) 
CPU  0 inst:  412000000 cyc:  251836912 now IPC :1.57520: AVG IPC :1.63443: L2-Pf-HR :0.99162: L2-HR :0.95902: (Sim:1h37m25s) 
CPU  0 inst:  413000001 cyc:  252468311 now IPC :1.58379: AVG IPC :1.63430: L2-Pf-HR :0.99162: L2-HR :0.95901: (Sim:1h37m43s) 
CPU  0 inst:  414000001 cyc:  253091159 now IPC :1.60553: AVG IPC :1.63423: L2-Pf-HR :0.99162: L2-HR :0.95900: (Sim:1h38m1s) 
CPU  0 inst:  415000003 cyc:  253727633 now IPC :1.57116: AVG IPC :1.63407: L2-Pf-HR :0.99162: L2-HR :0.95899: (Sim:1h38m19s) 
CPU  0 inst:  416000005 cyc:  254348127 now IPC :1.61162: AVG IPC :1.63402: L2-Pf-HR :0.99162: L2-HR :0.95899: (Sim:1h38m37s) 
CPU  0 inst:  417000001 cyc:  254988681 now IPC :1.56114: AVG IPC :1.63384: L2-Pf-HR :0.99162: L2-HR :0.95898: (Sim:1h38m56s) 
CPU  0 inst:  418000003 cyc:  255622942 now IPC :1.57664: AVG IPC :1.63369: L2-Pf-HR :0.99162: L2-HR :0.95897: (Sim:1h39m14s) 
CPU  0 inst:  419000004 cyc:  256246208 now IPC :1.60445: AVG IPC :1.63362: L2-Pf-HR :0.99162: L2-HR :0.95897: (Sim:1h39m32s) 
CPU  0 inst:  420000004 cyc:  256879925 now IPC :1.57799: AVG IPC :1.63348: L2-Pf-HR :0.99162: L2-HR :0.95896: (Sim:1h39m51s) 
CPU  0 inst:  421000005 cyc:  257501761 now IPC :1.60814: AVG IPC :1.63342: L2-Pf-HR :0.99162: L2-HR :0.95896: (Sim:1h40m9s) 
CPU  0 inst:  422000005 cyc:  258133522 now IPC :1.58288: AVG IPC :1.63330: L2-Pf-HR :0.99162: L2-HR :0.95895: (Sim:1h40m27s) 
CPU  0 inst:  423000003 cyc:  258891689 now IPC :1.31897: AVG IPC :1.63237: L2-Pf-HR :0.99163: L2-HR :0.95890: (Sim:1h40m47s) 
CPU  0 inst:  424000005 cyc:  259479793 now IPC :1.70038: AVG IPC :1.63253: L2-Pf-HR :0.99163: L2-HR :0.95891: (Sim:1h41m4s) 
CPU  0 inst:  425000001 cyc:  260067237 now IPC :1.70228: AVG IPC :1.63269: L2-Pf-HR :0.99163: L2-HR :0.95892: (Sim:1h41m22s) 
CPU  0 inst:  426000004 cyc:  260653142 now IPC :1.70677: AVG IPC :1.63285: L2-Pf-HR :0.99163: L2-HR :0.95892: (Sim:1h41m40s) 
CPU  0 inst:  427000001 cyc:  261240803 now IPC :1.70166: AVG IPC :1.63301: L2-Pf-HR :0.99163: L2-HR :0.95893: (Sim:1h41m57s) 
CPU  0 inst:  428000001 cyc:  261827374 now IPC :1.70482: AVG IPC :1.63317: L2-Pf-HR :0.99163: L2-HR :0.95894: (Sim:1h42m15s) 
CPU  0 inst:  429000001 cyc:  262411312 now IPC :1.71251: AVG IPC :1.63335: L2-Pf-HR :0.99163: L2-HR :0.95895: (Sim:1h42m33s) 
CPU  0 inst:  430000005 cyc:  262997104 now IPC :1.70710: AVG IPC :1.63351: L2-Pf-HR :0.99163: L2-HR :0.95895: (Sim:1h42m50s) 
CPU  0 inst:  431000000 cyc:  263581910 now IPC :1.70996: AVG IPC :1.63368: L2-Pf-HR :0.99163: L2-HR :0.95896: (Sim:1h43m1s) 
CPU  0 inst:  432000000 cyc:  264165554 now IPC :1.71337: AVG IPC :1.63386: L2-Pf-HR :0.99163: L2-HR :0.95897: (Sim:1h43m9s) 
CPU  0 inst:  433000002 cyc:  264749610 now IPC :1.71217: AVG IPC :1.63403: L2-Pf-HR :0.99163: L2-HR :0.95898: (Sim:1h43m18s) 
CPU  0 inst:  434000003 cyc:  265338819 now IPC :1.69719: AVG IPC :1.63417: L2-Pf-HR :0.99163: L2-HR :0.95899: (Sim:1h43m26s) 
CPU  0 inst:  435000002 cyc:  266011630 now IPC :1.48630: AVG IPC :1.63380: L2-Pf-HR :0.99163: L2-HR :0.95897: (Sim:1h43m35s) 
CPU  0 inst:  436000003 cyc:  266586429 now IPC :1.73974: AVG IPC :1.63403: L2-Pf-HR :0.99163: L2-HR :0.95899: (Sim:1h43m43s) 
CPU  0 inst:  437000004 cyc:  267160974 now IPC :1.74051: AVG IPC :1.63426: L2-Pf-HR :0.99163: L2-HR :0.95900: (Sim:1h43m51s) 
CPU  0 inst:  438000000 cyc:  267737150 now IPC :1.73557: AVG IPC :1.63448: L2-Pf-HR :0.99164: L2-HR :0.95902: (Sim:1h43m59s) 
CPU  0 inst:  439000003 cyc:  268312006 now IPC :1.73957: AVG IPC :1.63470: L2-Pf-HR :0.99164: L2-HR :0.95904: (Sim:1h44m7s) 
CPU  0 inst:  440000005 cyc:  268886108 now IPC :1.74185: AVG IPC :1.63493: L2-Pf-HR :0.99164: L2-HR :0.95906: (Sim:1h44m15s) 
CPU  0 inst:  441000004 cyc:  269461973 now IPC :1.73652: AVG IPC :1.63515: L2-Pf-HR :0.99164: L2-HR :0.95908: (Sim:1h44m24s) 
CPU  0 inst:  442000000 cyc:  270106522 now IPC :1.55147: AVG IPC :1.63495: L2-Pf-HR :0.99164: L2-HR :0.95908: (Sim:1h44m32s) 
CPU  0 inst:  443000005 cyc:  270837768 now IPC :1.36754: AVG IPC :1.63423: L2-Pf-HR :0.99164: L2-HR :0.95901: (Sim:1h44m41s) 
CPU  0 inst:  444000004 cyc:  271472326 now IPC :1.57590: AVG IPC :1.63409: L2-Pf-HR :0.99164: L2-HR :0.95900: (Sim:1h44m50s) 
CPU  0 inst:  445000000 cyc:  272091924 now IPC :1.61394: AVG IPC :1.63404: L2-Pf-HR :0.99164: L2-HR :0.95900: (Sim:1h44m58s) 
CPU  0 inst:  446000002 cyc:  272721070 now IPC :1.58946: AVG IPC :1.63394: L2-Pf-HR :0.99164: L2-HR :0.95899: (Sim:1h45m7s) 
CPU  0 inst:  447000004 cyc:  273337956 now IPC :1.62105: AVG IPC :1.63391: L2-Pf-HR :0.99164: L2-HR :0.95899: (Sim:1h45m25s) 
CPU  0 inst:  448000003 cyc:  273973074 now IPC :1.57451: AVG IPC :1.63377: L2-Pf-HR :0.99164: L2-HR :0.95898: (Sim:1h45m44s) 
CPU  0 inst:  449000005 cyc:  274605991 now IPC :1.57999: AVG IPC :1.63365: L2-Pf-HR :0.99164: L2-HR :0.95897: (Sim:1h46m2s) 
CPU  0 inst:  450000000 cyc:  275229134 now IPC :1.60476: AVG IPC :1.63358: L2-Pf-HR :0.99164: L2-HR :0.95897: (Sim:1h46m20s) 
CPU  0 inst:  451000005 cyc:  275862543 now IPC :1.57877: AVG IPC :1.63346: L2-Pf-HR :0.99164: L2-HR :0.95896: (Sim:1h46m38s) 
CPU  0 inst:  452000005 cyc:  276483090 now IPC :1.61148: AVG IPC :1.63341: L2-Pf-HR :0.99164: L2-HR :0.95896: (Sim:1h46m56s) 
CPU  0 inst:  453000002 cyc:  277113697 now IPC :1.58577: AVG IPC :1.63330: L2-Pf-HR :0.99164: L2-HR :0.95895: (Sim:1h47m13s) 
CPU  0 inst:  454000005 cyc:  277843428 now IPC :1.37037: AVG IPC :1.63260: L2-Pf-HR :0.99164: L2-HR :0.95890: (Sim:1h47m33s) 
CPU  0 inst:  455000002 cyc:  278481184 now IPC :1.56799: AVG IPC :1.63246: L2-Pf-HR :0.99164: L2-HR :0.95890: (Sim:1h47m50s) 
CPU  0 inst:  456000005 cyc:  279073624 now IPC :1.68794: AVG IPC :1.63257: L2-Pf-HR :0.99164: L2-HR :0.95891: (Sim:1h48m7s) 
CPU  0 inst:  457000005 cyc:  279663429 now IPC :1.69548: AVG IPC :1.63271: L2-Pf-HR :0.99164: L2-HR :0.95892: (Sim:1h48m24s) 
CPU  0 inst:  458000000 cyc:  280249173 now IPC :1.70722: AVG IPC :1.63286: L2-Pf-HR :0.99164: L2-HR :0.95892: (Sim:1h48m41s) 
CPU  0 inst:  459000001 cyc:  280838576 now IPC :1.69663: AVG IPC :1.63300: L2-Pf-HR :0.99164: L2-HR :0.95893: (Sim:1h48m58s) 
CPU  0 inst:  460000000 cyc:  281427354 now IPC :1.69843: AVG IPC :1.63314: L2-Pf-HR :0.99164: L2-HR :0.95894: (Sim:1h49m15s) 
CPU  0 inst:  461000000 cyc:  282010691 now IPC :1.71427: AVG IPC :1.63330: L2-Pf-HR :0.99164: L2-HR :0.95895: (Sim:1h49m32s) 
CPU  0 inst:  462000000 cyc:  282596248 now IPC :1.70778: AVG IPC :1.63346: L2-Pf-HR :0.99164: L2-HR :0.95896: (Sim:1h49m49s) 
CPU  0 inst:  463000004 cyc:  283180539 now IPC :1.71148: AVG IPC :1.63362: L2-Pf-HR :0.99164: L2-HR :0.95896: (Sim:1h50m6s) 
CPU  0 inst:  464000002 cyc:  283764698 now IPC :1.71186: AVG IPC :1.63378: L2-Pf-HR :0.99164: L2-HR :0.95897: (Sim:1h50m23s) 
CPU  0 inst:  465000002 cyc:  284349317 now IPC :1.71052: AVG IPC :1.63394: L2-Pf-HR :0.99164: L2-HR :0.95898: (Sim:1h50m39s) 
CPU  0 inst:  466000003 cyc:  285042588 now IPC :1.44244: AVG IPC :1.63347: L2-Pf-HR :0.99164: L2-HR :0.95895: (Sim:1h50m58s) 
CPU  0 inst:  467000001 cyc:  285628077 now IPC :1.70797: AVG IPC :1.63363: L2-Pf-HR :0.99164: L2-HR :0.95897: (Sim:1h51m15s) 
CPU  0 inst:  468000003 cyc:  286212160 now IPC :1.71209: AVG IPC :1.63379: L2-Pf-HR :0.99165: L2-HR :0.95899: (Sim:1h51m31s) 
CPU  0 inst:  469000001 cyc:  286797479 now IPC :1.70847: AVG IPC :1.63394: L2-Pf-HR :0.99165: L2-HR :0.95901: (Sim:1h51m48s) 
CPU  0 inst:  470000000 cyc:  287384867 now IPC :1.70245: AVG IPC :1.63408: L2-Pf-HR :0.99165: L2-HR :0.95902: (Sim:1h52m5s) 
CPU  0 inst:  471000004 cyc:  287971736 now IPC :1.70396: AVG IPC :1.63422: L2-Pf-HR :0.99165: L2-HR :0.95904: (Sim:1h52m22s) 
CPU  0 inst:  472000000 cyc:  288557338 now IPC :1.70764: AVG IPC :1.63437: L2-Pf-HR :0.99165: L2-HR :0.95906: (Sim:1h52m40s) 
CPU  0 inst:  473000004 cyc:  289143270 now IPC :1.70669: AVG IPC :1.63452: L2-Pf-HR :0.99166: L2-HR :0.95908: (Sim:1h52m57s) 
CPU  0 inst:  474000000 cyc:  289908893 now IPC :1.30612: AVG IPC :1.63365: L2-Pf-HR :0.99165: L2-HR :0.95901: (Sim:1h53m16s) 
CPU  0 inst:  475000003 cyc:  290539743 now IPC :1.58517: AVG IPC :1.63354: L2-Pf-HR :0.99165: L2-HR :0.95900: (Sim:1h53m34s) 
CPU  0 inst:  476000002 cyc:  291159558 now IPC :1.61338: AVG IPC :1.63350: L2-Pf-HR :0.99165: L2-HR :0.95900: (Sim:1h53m51s) 
CPU  0 inst:  477000004 cyc:  291792721 now IPC :1.57938: AVG IPC :1.63338: L2-Pf-HR :0.99165: L2-HR :0.95899: (Sim:1h54m9s) 
CPU  0 inst:  478000004 cyc:  292412638 now IPC :1.61312: AVG IPC :1.63334: L2-Pf-HR :0.99165: L2-HR :0.95898: (Sim:1h54m26s) 
CPU  0 inst:  479000005 cyc:  293050042 now IPC :1.56887: AVG IPC :1.63320: L2-Pf-HR :0.99165: L2-HR :0.95898: (Sim:1h54m44s) 
CPU  0 inst:  480000001 cyc:  293681606 now IPC :1.58336: AVG IPC :1.63309: L2-Pf-HR :0.99165: L2-HR :0.95897: (Sim:1h55m1s) 
CPU  0 inst:  481000000 cyc:  294300665 now IPC :1.61535: AVG IPC :1.63305: L2-Pf-HR :0.99165: L2-HR :0.95897: (Sim:1h55m19s) 
CPU  0 inst:  482000002 cyc:  294933317 now IPC :1.58065: AVG IPC :1.63294: L2-Pf-HR :0.99165: L2-HR :0.95896: (Sim:1h55m36s) 
CPU  0 inst:  483000004 cyc:  295555250 now IPC :1.60789: AVG IPC :1.63289: L2-Pf-HR :0.99165: L2-HR :0.95896: (Sim:1h55m54s) 
CPU  0 inst:  484000003 cyc:  296191186 now IPC :1.57248: AVG IPC :1.63276: L2-Pf-HR :0.99165: L2-HR :0.95895: (Sim:1h56m11s) 
CPU  0 inst:  485000002 cyc:  296824264 now IPC :1.57958: AVG IPC :1.63264: L2-Pf-HR :0.99165: L2-HR :0.95894: (Sim:1h56m29s) 
CPU  0 inst:  486000001 cyc:  297576366 now IPC :1.32961: AVG IPC :1.63188: L2-Pf-HR :0.99165: L2-HR :0.95890: (Sim:1h56m49s) 
CPU  0 inst:  487000005 cyc:  298169659 now IPC :1.68551: AVG IPC :1.63198: L2-Pf-HR :0.99166: L2-HR :0.95891: (Sim:1h57m7s) 
CPU  0 inst:  488000001 cyc:  298759040 now IPC :1.69669: AVG IPC :1.63211: L2-Pf-HR :0.99166: L2-HR :0.95891: (Sim:1h57m25s) 
CPU  0 inst:  489000002 cyc:  299347294 now IPC :1.69995: AVG IPC :1.63225: L2-Pf-HR :0.99166: L2-HR :0.95892: (Sim:1h57m43s) 
CPU  0 inst:  490000001 cyc:  299935522 now IPC :1.70002: AVG IPC :1.63238: L2-Pf-HR :0.99166: L2-HR :0.95893: (Sim:1h58m1s) 
CPU  0 inst:  491000005 cyc:  300529877 now IPC :1.68250: AVG IPC :1.63248: L2-Pf-HR :0.99166: L2-HR :0.95893: (Sim:1h58m20s) 
CPU  0 inst:  492000003 cyc:  301117888 now IPC :1.70065: AVG IPC :1.63261: L2-Pf-HR :0.99166: L2-HR :0.95894: (Sim:1h58m38s) 
CPU  0 inst:  493000000 cyc:  301706076 now IPC :1.70013: AVG IPC :1.63274: L2-Pf-HR :0.99166: L2-HR :0.95895: (Sim:1h58m56s) 
CPU  0 inst:  494000002 cyc:  302292470 now IPC :1.70534: AVG IPC :1.63288: L2-Pf-HR :0.99166: L2-HR :0.95895: (Sim:1h59m7s) 
CPU  0 inst:  495000004 cyc:  302878325 now IPC :1.70691: AVG IPC :1.63303: L2-Pf-HR :0.99166: L2-HR :0.95896: (Sim:1h59m16s) 
CPU  0 inst:  496000000 cyc:  303465247 now IPC :1.70380: AVG IPC :1.63317: L2-Pf-HR :0.99166: L2-HR :0.95897: (Sim:1h59m24s) 
CPU  0 inst:  497000001 cyc:  304049535 now IPC :1.71149: AVG IPC :1.63332: L2-Pf-HR :0.99166: L2-HR :0.95898: (Sim:1h59m32s) 
CPU  0 inst:  498000000 cyc:  304744941 now IPC :1.43801: AVG IPC :1.63287: L2-Pf-HR :0.99166: L2-HR :0.95896: (Sim:1h59m41s) 
CPU  0 inst:  499000005 cyc:  305323894 now IPC :1.72726: AVG IPC :1.63305: L2-Pf-HR :0.99166: L2-HR :0.95898: (Sim:1h59m49s) 
CPU  0 inst:  500000003 cyc:  305899672 now IPC :1.73678: AVG IPC :1.63324: L2-Pf-HR :0.99166: L2-HR :0.95899: (Sim:1h59m57s) 
CPU  0 inst:  501000005 cyc:  306476988 now IPC :1.73216: AVG IPC :1.63343: L2-Pf-HR :0.99166: L2-HR :0.95901: (Sim:2h0m5s) 
CPU  0 inst:  502000003 cyc:  307051366 now IPC :1.74101: AVG IPC :1.63363: L2-Pf-HR :0.99167: L2-HR :0.95902: (Sim:2h0m14s) 
CPU  0 inst:  503000002 cyc:  307626944 now IPC :1.73738: AVG IPC :1.63383: L2-Pf-HR :0.99167: L2-HR :0.95904: (Sim:2h0m22s) 
CPU  0 inst:  504000002 cyc:  308203551 now IPC :1.73428: AVG IPC :1.63402: L2-Pf-HR :0.99167: L2-HR :0.95906: (Sim:2h0m30s) 
CPU  0 inst:  505000000 cyc:  308785439 now IPC :1.71854: AVG IPC :1.63418: L2-Pf-HR :0.99167: L2-HR :0.95908: (Sim:2h0m38s) 
CPU  0 inst:  506000000 cyc:  309562295 now IPC :1.28724: AVG IPC :1.63330: L2-Pf-HR :0.99166: L2-HR :0.95900: (Sim:2h0m48s) 
CPU  0 inst:  507000004 cyc:  310185548 now IPC :1.60449: AVG IPC :1.63325: L2-Pf-HR :0.99167: L2-HR :0.95900: (Sim:2h0m56s) 
CPU  0 inst:  508000001 cyc:  310816282 now IPC :1.58545: AVG IPC :1.63315: L2-Pf-HR :0.99167: L2-HR :0.95899: (Sim:2h1m5s) 
CPU  0 inst:  509000004 cyc:  311432970 now IPC :1.62157: AVG IPC :1.63313: L2-Pf-HR :0.99167: L2-HR :0.95898: (Sim:2h1m13s) 
CPU  0 inst:  510000004 cyc:  312065002 now IPC :1.58220: AVG IPC :1.63302: L2-Pf-HR :0.99167: L2-HR :0.95898: (Sim:2h1m21s) 
CPU  0 inst:  511000001 cyc:  312696639 now IPC :1.58318: AVG IPC :1.63292: L2-Pf-HR :0.99167: L2-HR :0.95897: (Sim:2h1m30s) 
CPU  0 inst:  512000005 cyc:  313318860 now IPC :1.60715: AVG IPC :1.63287: L2-Pf-HR :0.99167: L2-HR :0.95897: (Sim:2h1m38s) 
CPU  0 inst:  513000001 cyc:  313952586 now IPC :1.57796: AVG IPC :1.63276: L2-Pf-HR :0.99167: L2-HR :0.95896: (Sim:2h1m47s) 
CPU  0 inst:  514000002 cyc:  314571422 now IPC :1.61594: AVG IPC :1.63272: L2-Pf-HR :0.99167: L2-HR :0.95896: (Sim:2h1m55s) 
CPU  0 inst:  515000002 cyc:  315198615 now IPC :1.59441: AVG IPC :1.63265: L2-Pf-HR :0.99167: L2-HR :0.95895: (Sim:2h2m3s) 
CPU  0 inst:  516000004 cyc:  315834781 now IPC :1.57192: AVG IPC :1.63253: L2-Pf-HR :0.99167: L2-HR :0.95894: (Sim:2h2m12s) 
CPU  0 inst:  517000001 cyc:  316459302 now IPC :1.60122: AVG IPC :1.63246: L2-Pf-HR :0.99167: L2-HR :0.95895: (Sim:2h2m20s) 
CPU  0 inst:  518000005 cyc:  317193906 now IPC :1.36128: AVG IPC :1.63183: L2-Pf-HR :0.99167: L2-HR :0.95891: (Sim:2h2m29s) 
CPU  0 inst:  519000004 cyc:  317785125 now IPC :1.69142: AVG IPC :1.63195: L2-Pf-HR :0.99167: L2-HR :0.95891: (Sim:2h2m37s) 
CPU  0 inst:  520000004 cyc:  318373370 now IPC :1.69997: AVG IPC :1.63207: L2-Pf-HR :0.99167: L2-HR :0.95892: (Sim:2h2m45s) 
CPU  0 inst:  521000004 cyc:  318960184 now IPC :1.70412: AVG IPC :1.63220: L2-Pf-HR :0.99167: L2-HR :0.95892: (Sim:2h2m53s) 
CPU  0 inst:  522000000 cyc:  319549384 now IPC :1.69721: AVG IPC :1.63232: L2-Pf-HR :0.99167: L2-HR :0.95893: (Sim:2h3m2s) 
CPU  0 inst:  523000005 cyc:  320139155 now IPC :1.69558: AVG IPC :1.63244: L2-Pf-HR :0.99167: L2-HR :0.95894: (Sim:2h3m10s) 
CPU  0 inst:  524000000 cyc:  320725667 now IPC :1.70499: AVG IPC :1.63257: L2-Pf-HR :0.99167: L2-HR :0.95895: (Sim:2h3m18s) 
CPU  0 inst:  525000005 cyc:  321312651 now IPC :1.70363: AVG IPC :1.63270: L2-Pf-HR :0.99167: L2-HR :0.95895: (Sim:2h3m26s) 
CPU  0 inst:  526000005 cyc:  321897264 now IPC :1.71053: AVG IPC :1.63285: L2-Pf-HR :0.99167: L2-HR :0.95896: (Sim:2h3m34s) 
CPU  0 inst:  527000005 cyc:  322483156 now IPC :1.70680: AVG IPC :1.63298: L2-Pf-HR :0.99167: L2-HR :0.95897: (Sim:2h3m43s) 
CPU  0 inst:  528000001 cyc:  323068740 now IPC :1.70769: AVG IPC :1.63312: L2-Pf-HR :0.99167: L2-HR :0.95897: (Sim:2h3m51s) 
CPU  0 inst:  529000002 cyc:  323750364 now IPC :1.46709: AVG IPC :1.63277: L2-Pf-HR :0.99168: L2-HR :0.95895: (Sim:2h3m59s) 
CPU  0 inst:  530000004 cyc:  324337829 now IPC :1.70223: AVG IPC :1.63289: L2-Pf-HR :0.99168: L2-HR :0.95897: (Sim:2h4m8s) 
CPU  0 inst:  531000002 cyc:  324922470 now IPC :1.71045: AVG IPC :1.63303: L2-Pf-HR :0.99168: L2-HR :0.95898: (Sim:2h4m16s) 
CPU  0 inst:  532000004 cyc:  325509441 now IPC :1.70367: AVG IPC :1.63316: L2-Pf-HR :0.99168: L2-HR :0.95900: (Sim:2h4m24s) 
CPU  0 inst:  533000005 cyc:  326095325 now IPC :1.70682: AVG IPC :1.63329: L2-Pf-HR :0.99168: L2-HR :0.95901: (Sim:2h4m32s) 
CPU  0 inst:  534000004 cyc:  326681959 now IPC :1.70464: AVG IPC :1.63342: L2-Pf-HR :0.99169: L2-HR :0.95903: (Sim:2h4m40s) 
CPU  0 inst:  535000005 cyc:  327266233 now IPC :1.71153: AVG IPC :1.63356: L2-Pf-HR :0.99169: L2-HR :0.95904: (Sim:2h4m48s) 
CPU  0 inst:  536000000 cyc:  327851624 now IPC :1.70825: AVG IPC :1.63370: L2-Pf-HR :0.99169: L2-HR :0.95906: (Sim:2h4m57s) 
CPU  0 inst:  537000003 cyc:  328608037 now IPC :1.32203: AVG IPC :1.63298: L2-Pf-HR :0.99168: L2-HR :0.95900: (Sim:2h5m15s) 
CPU  0 inst:  538000003 cyc:  329242321 now IPC :1.57658: AVG IPC :1.63287: L2-Pf-HR :0.99168: L2-HR :0.95899: (Sim:2h5m32s) 
CPU  0 inst:  539000005 cyc:  329876860 now IPC :1.57595: AVG IPC :1.63276: L2-Pf-HR :0.99168: L2-HR :0.95899: (Sim:2h5m49s) 
CPU  0 inst:  540000004 cyc:  330496974 now IPC :1.61261: AVG IPC :1.63272: L2-Pf-HR :0.99168: L2-HR :0.95898: (Sim:2h6m5s) 
CPU  0 inst:  541000005 cyc:  331129702 now IPC :1.58046: AVG IPC :1.63262: L2-Pf-HR :0.99168: L2-HR :0.95898: (Sim:2h6m22s) 
CPU  0 inst:  542000000 cyc:  331748623 now IPC :1.61571: AVG IPC :1.63259: L2-Pf-HR :0.99168: L2-HR :0.95897: (Sim:2h6m40s) 
CPU  0 inst:  543000004 cyc:  332376153 now IPC :1.59356: AVG IPC :1.63251: L2-Pf-HR :0.99168: L2-HR :0.95897: (Sim:2h6m57s) 
CPU  0 inst:  544000003 cyc:  333010024 now IPC :1.57761: AVG IPC :1.63241: L2-Pf-HR :0.99168: L2-HR :0.95896: (Sim:2h7m14s) 
CPU  0 inst:  545000002 cyc:  333634299 now IPC :1.60186: AVG IPC :1.63235: L2-Pf-HR :0.99168: L2-HR :0.95896: (Sim:2h7m30s) 
CPU  0 inst:  546000005 cyc:  334273116 now IPC :1.56540: AVG IPC :1.63222: L2-Pf-HR :0.99168: L2-HR :0.95895: (Sim:2h7m38s) 
CPU  0 inst:  547000000 cyc:  334904593 now IPC :1.58358: AVG IPC :1.63213: L2-Pf-HR :0.99168: L2-HR :0.95895: (Sim:2h7m53s) 
CPU  0 inst:  548000002 cyc:  335521481 now IPC :1.62104: AVG IPC :1.63211: L2-Pf-HR :0.99168: L2-HR :0.95894: (Sim:2h8m11s) 
CPU  0 inst:  549000005 cyc:  336276539 now IPC :1.32441: AVG IPC :1.63142: L2-Pf-HR :0.99169: L2-HR :0.95890: (Sim:2h8m31s) 
CPU  0 inst:  550000000 cyc:  336869380 now IPC :1.68678: AVG IPC :1.63151: L2-Pf-HR :0.99169: L2-HR :0.95891: (Sim:2h8m48s) 
CPU  0 inst:  551000000 cyc:  337457514 now IPC :1.70029: AVG IPC :1.63164: L2-Pf-HR :0.99169: L2-HR :0.95892: (Sim:2h9m7s) 
CPU  0 inst:  552000004 cyc:  338045050 now IPC :1.70203: AVG IPC :1.63176: L2-Pf-HR :0.99169: L2-HR :0.95892: (Sim:2h9m25s) 
CPU  0 inst:  553000000 cyc:  338633959 now IPC :1.69805: AVG IPC :1.63187: L2-Pf-HR :0.99169: L2-HR :0.95893: (Sim:2h9m43s) 
CPU  0 inst:  554000002 cyc:  339224142 now IPC :1.69439: AVG IPC :1.63198: L2-Pf-HR :0.99169: L2-HR :0.95893: (Sim:2h10m1s) 
CPU  0 inst:  555000000 cyc:  339811648 now IPC :1.70211: AVG IPC :1.63210: L2-Pf-HR :0.99169: L2-HR :0.95894: (Sim:2h10m20s) 
CPU  0 inst:  556000004 cyc:  340400161 now IPC :1.69920: AVG IPC :1.63222: L2-Pf-HR :0.99169: L2-HR :0.95895: (Sim:2h10m38s) 
CPU  0 inst:  557000004 cyc:  340986743 now IPC :1.70479: AVG IPC :1.63235: L2-Pf-HR :0.99169: L2-HR :0.95895: (Sim:2h10m56s) 
CPU  0 inst:  558000000 cyc:  341573536 now IPC :1.70417: AVG IPC :1.63247: L2-Pf-HR :0.99169: L2-HR :0.95896: (Sim:2h11m14s) 
CPU  0 inst:  559000004 cyc:  342160621 now IPC :1.70334: AVG IPC :1.63259: L2-Pf-HR :0.99169: L2-HR :0.95897: (Sim:2h11m33s) 
CPU  0 inst:  560000003 cyc:  342747296 now IPC :1.70452: AVG IPC :1.63271: L2-Pf-HR :0.99169: L2-HR :0.95897: (Sim:2h11m51s) 
CPU  0 inst:  561000003 cyc:  343439014 now IPC :1.44568: AVG IPC :1.63234: L2-Pf-HR :0.99169: L2-HR :0.95896: (Sim:2h12m10s) 
CPU  0 inst:  562000004 cyc:  344024390 now IPC :1.70831: AVG IPC :1.63247: L2-Pf-HR :0.99169: L2-HR :0.95897: (Sim:2h12m28s) 
CPU  0 inst:  563000000 cyc:  344606787 now IPC :1.71703: AVG IPC :1.63261: L2-Pf-HR :0.99169: L2-HR :0.95898: (Sim:2h12m46s) 
CPU  0 inst:  564000004 cyc:  345192239 now IPC :1.70809: AVG IPC :1.63274: L2-Pf-HR :0.99169: L2-HR :0.95900: (Sim:2h13m4s) 
CPU  0 inst:  565000000 cyc:  345779714 now IPC :1.70219: AVG IPC :1.63286: L2-Pf-HR :0.99170: L2-HR :0.95901: (Sim:2h13m22s) 
CPU  0 inst:  566000001 cyc:  346364811 now IPC :1.70912: AVG IPC :1.63299: L2-Pf-HR :0.99170: L2-HR :0.95902: (Sim:2h13m39s) 
CPU  0 inst:  567000003 cyc:  346950450 now IPC :1.70754: AVG IPC :1.63311: L2-Pf-HR :0.99170: L2-HR :0.95904: (Sim:2h13m57s) 
CPU  0 inst:  568000001 cyc:  347537440 now IPC :1.70360: AVG IPC :1.63323: L2-Pf-HR :0.99170: L2-HR :0.95905: (Sim:2h14m15s) 
CPU  0 inst:  569000004 cyc:  348317364 now IPC :1.28218: AVG IPC :1.63244: L2-Pf-HR :0.99169: L2-HR :0.95899: (Sim:2h14m35s) 
CPU  0 inst:  570000001 cyc:  348945008 now IPC :1.59326: AVG IPC :1.63237: L2-Pf-HR :0.99169: L2-HR :0.95898: (Sim:2h14m53s) 
CPU  0 inst:  571000003 cyc:  349554352 now IPC :1.64111: AVG IPC :1.63239: L2-Pf-HR :0.99169: L2-HR :0.95898: (Sim:2h15m11s) 
CPU  0 inst:  572000001 cyc:  350181241 now IPC :1.59518: AVG IPC :1.63232: L2-Pf-HR :0.99169: L2-HR :0.95898: (Sim:2h15m29s) 
CPU  0 inst:  573000001 cyc:  350801679 now IPC :1.61176: AVG IPC :1.63228: L2-Pf-HR :0.99169: L2-HR :0.95897: (Sim:2h15m47s) 
CPU  0 inst:  574000002 cyc:  351434536 now IPC :1.58014: AVG IPC :1.63219: L2-Pf-HR :0.99169: L2-HR :0.95897: (Sim:2h16m6s) 
CPU  0 inst:  575000002 cyc:  352060516 now IPC :1.59750: AVG IPC :1.63213: L2-Pf-HR :0.99169: L2-HR :0.95896: (Sim:2h16m24s) 
CPU  0 inst:  576000001 cyc:  352678326 now IPC :1.61862: AVG IPC :1.63210: L2-Pf-HR :0.99169: L2-HR :0.95896: (Sim:2h16m43s) 
CPU  0 inst:  577000003 cyc:  353308643 now IPC :1.58651: AVG IPC :1.63202: L2-Pf-HR :0.99169: L2-HR :0.95895: (Sim:2h17m1s) 
CPU  0 inst:  578000005 cyc:  353926812 now IPC :1.61768: AVG IPC :1.63200: L2-Pf-HR :0.99169: L2-HR :0.95895: (Sim:2h17m19s) 
CPU  0 inst:  579000004 cyc:  354556289 now IPC :1.58862: AVG IPC :1.63192: L2-Pf-HR :0.99169: L2-HR :0.95894: (Sim:2h17m38s) 
CPU  0 inst:  580000001 cyc:  355187001 now IPC :1.58551: AVG IPC :1.63184: L2-Pf-HR :0.99169: L2-HR :0.95894: (Sim:2h17m56s) 
CPU  0 inst:  581000004 cyc:  355925951 now IPC :1.35328: AVG IPC :1.63126: L2-Pf-HR :0.99170: L2-HR :0.95890: (Sim:2h18m15s) 
CPU  0 inst:  582000004 cyc:  356520192 now IPC :1.68282: AVG IPC :1.63134: L2-Pf-HR :0.99170: L2-HR :0.95891: (Sim:2h18m33s) 
CPU  0 inst:  583000004 cyc:  357109100 now IPC :1.69806: AVG IPC :1.63145: L2-Pf-HR :0.99170: L2-HR :0.95891: (Sim:2h18m51s) 
CPU  0 inst:  584000003 cyc:  357697782 now IPC :1.69871: AVG IPC :1.63157: L2-Pf-HR :0.99170: L2-HR :0.95892: (Sim:2h19m9s) 
CPU  0 inst:  585000003 cyc:  358286616 now IPC :1.69827: AVG IPC :1.63168: L2-Pf-HR :0.99170: L2-HR :0.95893: (Sim:2h19m27s) 
CPU  0 inst:  586000003 cyc:  358875320 now IPC :1.69865: AVG IPC :1.63179: L2-Pf-HR :0.99170: L2-HR :0.95893: (Sim:2h19m45s) 
CPU  0 inst:  587000005 cyc:  359460438 now IPC :1.70906: AVG IPC :1.63191: L2-Pf-HR :0.99170: L2-HR :0.95894: (Sim:2h20m3s) 
CPU  0 inst:  588000004 cyc:  360048317 now IPC :1.70103: AVG IPC :1.63203: L2-Pf-HR :0.99170: L2-HR :0.95895: (Sim:2h20m21s) 
CPU  0 inst:  589000002 cyc:  360632673 now IPC :1.71128: AVG IPC :1.63215: L2-Pf-HR :0.99170: L2-HR :0.95895: (Sim:2h20m38s) 
CPU  0 inst:  590000004 cyc:  361220511 now IPC :1.70115: AVG IPC :1.63227: L2-Pf-HR :0.99170: L2-HR :0.95896: (Sim:2h20m56s) 
CPU  0 inst:  591000004 cyc:  361807233 now IPC :1.70438: AVG IPC :1.63238: L2-Pf-HR :0.99170: L2-HR :0.95897: (Sim:2h21m14s) 
CPU  0 inst:  592000004 cyc:  362477180 now IPC :1.49266: AVG IPC :1.63212: L2-Pf-HR :0.99170: L2-HR :0.95895: (Sim:2h21m33s) 
CPU  0 inst:  593000004 cyc:  363084788 now IPC :1.64580: AVG IPC :1.63215: L2-Pf-HR :0.99170: L2-HR :0.95896: (Sim:2h21m51s) 
CPU  0 inst:  594000005 cyc:  363669477 now IPC :1.71031: AVG IPC :1.63227: L2-Pf-HR :0.99170: L2-HR :0.95897: (Sim:2h22m8s) 
CPU  0 inst:  595000000 cyc:  364254354 now IPC :1.70975: AVG IPC :1.63240: L2-Pf-HR :0.99170: L2-HR :0.95898: (Sim:2h22m26s) 
CPU  0 inst:  596000002 cyc:  364840774 now IPC :1.70527: AVG IPC :1.63252: L2-Pf-HR :0.99170: L2-HR :0.95900: (Sim:2h22m44s) 
CPU  0 inst:  597000002 cyc:  365425132 now IPC :1.71128: AVG IPC :1.63264: L2-Pf-HR :0.99170: L2-HR :0.95901: (Sim:2h23m2s) 
CPU  0 inst:  598000002 cyc:  366008969 now IPC :1.71281: AVG IPC :1.63277: L2-Pf-HR :0.99171: L2-HR :0.95902: (Sim:2h23m19s) 
CPU  0 inst:  599000003 cyc:  366594543 now IPC :1.70773: AVG IPC :1.63289: L2-Pf-HR :0.99171: L2-HR :0.95904: (Sim:2h23m37s) 
CPU  0 inst:  600000001 cyc:  367328569 now IPC :1.36235: AVG IPC :1.63235: L2-Pf-HR :0.99170: L2-HR :0.95899: (Sim:2h23m57s) 
CPU  0 inst:  601000005 cyc:  367982490 now IPC :1.52924: AVG IPC :1.63216: L2-Pf-HR :0.99170: L2-HR :0.95898: (Sim:2h24m15s) 
CPU  0 inst:  602000005 cyc:  368604134 now IPC :1.60864: AVG IPC :1.63213: L2-Pf-HR :0.99170: L2-HR :0.95898: (Sim:2h24m33s) 
CPU  0 inst:  603000001 cyc:  369235270 now IPC :1.58444: AVG IPC :1.63204: L2-Pf-HR :0.99170: L2-HR :0.95897: (Sim:2h24m52s) 
CPU  0 inst:  604000000 cyc:  369853939 now IPC :1.61637: AVG IPC :1.63202: L2-Pf-HR :0.99170: L2-HR :0.95897: (Sim:2h25m10s) 
CPU  0 inst:  605000002 cyc:  370479420 now IPC :1.59877: AVG IPC :1.63196: L2-Pf-HR :0.99170: L2-HR :0.95897: (Sim:2h25m22s) 
CPU  0 inst:  606000004 cyc:  371111737 now IPC :1.58149: AVG IPC :1.63187: L2-Pf-HR :0.99170: L2-HR :0.95896: (Sim:2h25m31s) 
CPU  0 inst:  607000005 cyc:  371732651 now IPC :1.61053: AVG IPC :1.63184: L2-Pf-HR :0.99170: L2-HR :0.95896: (Sim:2h25m39s) 
CPU  0 inst:  608000001 cyc:  372365785 now IPC :1.57944: AVG IPC :1.63175: L2-Pf-HR :0.99170: L2-HR :0.95895: (Sim:2h25m47s) 
CPU  0 inst:  609000000 cyc:  372986429 now IPC :1.61123: AVG IPC :1.63172: L2-Pf-HR :0.99170: L2-HR :0.95895: (Sim:2h25m56s) 
CPU  0 inst:  610000000 cyc:  373611776 now IPC :1.59911: AVG IPC :1.63166: L2-Pf-HR :0.99170: L2-HR :0.95894: (Sim:2h26m4s) 
CPU  0 inst:  611000005 cyc:  374238992 now IPC :1.59436: AVG IPC :1.63160: L2-Pf-HR :0.99170: L2-HR :0.95894: (Sim:2h26m13s) 
CPU  0 inst:  612000004 cyc:  374985068 now IPC :1.34034: AVG IPC :1.63102: L2-Pf-HR :0.99170: L2-HR :0.95890: (Sim:2h26m22s) 
CPU  0 inst:  613000004 cyc:  375590063 now IPC :1.65291: AVG IPC :1.63105: L2-Pf-HR :0.99170: L2-HR :0.95891: (Sim:2h26m30s) 
CPU  0 inst:  614000004 cyc:  376182222 now IPC :1.68874: AVG IPC :1.63114: L2-Pf-HR :0.99170: L2-HR :0.95891: (Sim:2h26m38s) 
CPU  0 inst:  615000003 cyc:  376769803 now IPC :1.70189: AVG IPC :1.63125: L2-Pf-HR :0.99170: L2-HR :0.95892: (Sim:2h26m46s) 
CPU  0 inst:  616000005 cyc:  377360693 now IPC :1.69237: AVG IPC :1.63135: L2-Pf-HR :0.99170: L2-HR :0.95892: (Sim:2h26m54s) 
CPU  0 inst:  617000003 cyc:  377953807 now IPC :1.68601: AVG IPC :1.63144: L2-Pf-HR :0.99170: L2-HR :0.95893: (Sim:2h27m3s) 
CPU  0 inst:  618000002 cyc:  378538945 now IPC :1.70900: AVG IPC :1.63156: L2-Pf-HR :0.99170: L2-HR :0.95894: (Sim:2h27m11s) 
CPU  0 inst:  619000002 cyc:  379123635 now IPC :1.71031: AVG IPC :1.63168: L2-Pf-HR :0.99170: L2-HR :0.95894: (Sim:2h27m19s) 
CPU  0 inst:  620000004 cyc:  379707541 now IPC :1.71261: AVG IPC :1.63180: L2-Pf-HR :0.99170: L2-HR :0.95895: (Sim:2h27m27s) 
CPU  0 inst:  621000003 cyc:  380292581 now IPC :1.70928: AVG IPC :1.63192: L2-Pf-HR :0.99170: L2-HR :0.95895: (Sim:2h27m35s) 
CPU  0 inst:  622000004 cyc:  380877532 now IPC :1.70955: AVG IPC :1.63204: L2-Pf-HR :0.99170: L2-HR :0.95896: (Sim:2h27m52s) 
CPU  0 inst:  623000003 cyc:  381462105 now IPC :1.71065: AVG IPC :1.63216: L2-Pf-HR :0.99170: L2-HR :0.95896: (Sim:2h28m9s) 
CPU  0 inst:  624000005 cyc:  382151662 now IPC :1.45021: AVG IPC :1.63183: L2-Pf-HR :0.99171: L2-HR :0.95895: (Sim:2h28m27s) 
CPU  0 inst:  625000000 cyc:  382735816 now IPC :1.71187: AVG IPC :1.63196: L2-Pf-HR :0.99171: L2-HR :0.95896: (Sim:2h28m44s) 
CPU  0 inst:  626000005 cyc:  383320027 now IPC :1.71172: AVG IPC :1.63208: L2-Pf-HR :0.99171: L2-HR :0.95897: (Sim:2h29m1s) 
CPU  0 inst:  627000003 cyc:  383907769 now IPC :1.70142: AVG IPC :1.63218: L2-Pf-HR :0.99171: L2-HR :0.95899: (Sim:2h29m18s) 
[...]
CPU  0 inst: 2241000005 cyc: 2605163312 now IPC :2.17890: AVG IPC :0.85977: L2-Pf-HR :0.98992: L2-HR :0.91229: (Sim:9h59m40s) 
CPU  0 inst: 2242000001 cyc: 2605655118 now IPC :2.03331: AVG IPC :0.85999: L2-Pf-HR :0.98992: L2-HR :0.91230: (Sim:9h59m47s) 
CPU  0 inst: 2243000002 cyc: 2606180922 now IPC :1.90185: AVG IPC :0.86020: L2-Pf-HR :0.98991: L2-HR :0.91229: (Sim:9h59m55s) 
CPU  0 inst: 2244000002 cyc: 2606812383 now IPC :1.58363: AVG IPC :0.86038: L2-Pf-HR :0.98991: L2-HR :0.91227: (Sim:10h0m5s) 
CPU  0 inst: 2245000000 cyc: 2607309033 now IPC :2.01349: AVG IPC :0.86060: L2-Pf-HR :0.98991: L2-HR :0.91228: (Sim:10h0m14s) 
CPU  0 inst: 2246000000 cyc: 2607861116 now IPC :1.81132: AVG IPC :0.86080: L2-Pf-HR :0.98991: L2-HR :0.91228: (Sim:10h0m23s) 
CPU  0 inst: 2247000005 cyc: 2608399544 now IPC :1.85727: AVG IPC :0.86101: L2-Pf-HR :0.98991: L2-HR :0.91227: (Sim:10h0m31s) 
CPU  0 inst: 2248000005 cyc: 2608857211 now IPC :2.18499: AVG IPC :0.86124: L2-Pf-HR :0.98991: L2-HR :0.91228: (Sim:10h0m38s) 
CPU  0 inst: 2249000001 cyc: 2609410812 now IPC :1.80635: AVG IPC :0.86144: L2-Pf-HR :0.98991: L2-HR :0.91228: (Sim:10h0m47s) 
CPU  0 inst: 2250000000 cyc: 2609974699 now IPC :1.77340: AVG IPC :0.86164: L2-Pf-HR :0.98991: L2-HR :0.91227: (Sim:10h0m56s) 
CPU  0 inst: 2251000000 cyc: 2610521382 now IPC :1.82921: AVG IPC :0.86184: L2-Pf-HR :0.98990: L2-HR :0.91226: (Sim:10h1m5s) 
CPU  0 inst: 2252000000 cyc: 2611000467 now IPC :2.08731: AVG IPC :0.86206: L2-Pf-HR :0.98990: L2-HR :0.91227: (Sim:10h1m14s) 
CPU  0 inst: 2253000004 cyc: 2611607007 now IPC :1.64870: AVG IPC :0.86225: L2-Pf-HR :0.98989: L2-HR :0.91225: (Sim:10h1m23s) 
CPU  0 inst: 2254000002 cyc: 2612051971 now IPC :2.24737: AVG IPC :0.86248: L2-Pf-HR :0.98989: L2-HR :0.91226: (Sim:10h1m31s) 
CPU  0 inst: 2255000002 cyc: 2612592434 now IPC :1.85027: AVG IPC :0.86269: L2-Pf-HR :0.98989: L2-HR :0.91226: (Sim:10h1m39s) 
CPU  0 inst: 2256000004 cyc: 2613037640 now IPC :2.24616: AVG IPC :0.86292: L2-Pf-HR :0.98989: L2-HR :0.91227: (Sim:10h1m47s) 
CPU  0 inst: 2257000005 cyc: 2613659748 now IPC :1.60744: AVG IPC :0.86310: L2-Pf-HR :0.98988: L2-HR :0.91225: (Sim:10h1m57s) 
CPU  0 inst: 2258000005 cyc: 2614126151 now IPC :2.14407: AVG IPC :0.86333: L2-Pf-HR :0.98988: L2-HR :0.91225: (Sim:10h2m6s) 
CPU  0 inst: 2259000001 cyc: 2614740585 now IPC :1.62751: AVG IPC :0.86351: L2-Pf-HR :0.98987: L2-HR :0.91224: (Sim:10h2m16s) 
CPU  0 inst: 2260000004 cyc: 2615186148 now IPC :2.24436: AVG IPC :0.86374: L2-Pf-HR :0.98986: L2-HR :0.91225: (Sim:10h2m23s) 
CPU  0 inst: 2261000004 cyc: 2615656752 now IPC :2.12493: AVG IPC :0.86397: L2-Pf-HR :0.98986: L2-HR :0.91226: (Sim:10h2m31s) 
CPU  0 inst: 2262000005 cyc: 2616170512 now IPC :1.94644: AVG IPC :0.86418: L2-Pf-HR :0.98986: L2-HR :0.91225: (Sim:10h2m39s) 
CPU  0 inst: 2263000004 cyc: 2616694483 now IPC :1.90850: AVG IPC :0.86439: L2-Pf-HR :0.98985: L2-HR :0.91225: (Sim:10h2m48s) 
CPU  0 inst: 2264000003 cyc: 2617216437 now IPC :1.91588: AVG IPC :0.86460: L2-Pf-HR :0.98985: L2-HR :0.91226: (Sim:10h2m56s) 
CPU  0 inst: 2265000002 cyc: 2617903920 now IPC :1.45458: AVG IPC :0.86476: L2-Pf-HR :0.98984: L2-HR :0.91223: (Sim:10h3m6s) 
CPU  0 inst: 2266000000 cyc: 2618466490 now IPC :1.77755: AVG IPC :0.86495: L2-Pf-HR :0.98984: L2-HR :0.91223: (Sim:10h3m15s) 
CPU  0 inst: 2267000000 cyc: 2619031358 now IPC :1.77033: AVG IPC :0.86515: L2-Pf-HR :0.98984: L2-HR :0.91223: (Sim:10h3m24s) 
CPU  0 inst: 2268000003 cyc: 2619704704 now IPC :1.48513: AVG IPC :0.86531: L2-Pf-HR :0.98984: L2-HR :0.91221: (Sim:10h3m33s) 
CPU  0 inst: 2269000003 cyc: 2620227968 now IPC :1.91108: AVG IPC :0.86552: L2-Pf-HR :0.98984: L2-HR :0.91222: (Sim:10h3m40s) 
CPU  0 inst: 2270000003 cyc: 2620874923 now IPC :1.54570: AVG IPC :0.86569: L2-Pf-HR :0.98984: L2-HR :0.91221: (Sim:10h3m49s) 
CPU  0 inst: 2271000000 cyc: 2621414201 now IPC :1.85433: AVG IPC :0.86589: L2-Pf-HR :0.98984: L2-HR :0.91221: (Sim:10h3m57s) 
CPU  0 inst: 2272000004 cyc: 2622038108 now IPC :1.60281: AVG IPC :0.86606: L2-Pf-HR :0.98984: L2-HR :0.91219: (Sim:10h4m7s) 
CPU  0 inst: 2273000000 cyc: 2622541252 now IPC :1.98749: AVG IPC :0.86628: L2-Pf-HR :0.98984: L2-HR :0.91219: (Sim:10h4m16s) 
CPU  0 inst: 2274000004 cyc: 2623166682 now IPC :1.59891: AVG IPC :0.86645: L2-Pf-HR :0.98984: L2-HR :0.91218: (Sim:10h4m25s) 
CPU  0 inst: 2275000003 cyc: 2623623895 now IPC :2.18716: AVG IPC :0.86668: L2-Pf-HR :0.98984: L2-HR :0.91219: (Sim:10h4m33s) 
CPU  0 inst: 2276000002 cyc: 2624183768 now IPC :1.78612: AVG IPC :0.86688: L2-Pf-HR :0.98984: L2-HR :0.91218: (Sim:10h4m41s) 
CPU  0 inst: 2277000004 cyc: 2624646735 now IPC :2.15999: AVG IPC :0.86711: L2-Pf-HR :0.98984: L2-HR :0.91219: (Sim:10h4m49s) 
CPU  0 inst: 2278000005 cyc: 2625284130 now IPC :1.56889: AVG IPC :0.86728: L2-Pf-HR :0.98983: L2-HR :0.91217: (Sim:10h4m58s) 
CPU  0 inst: 2279000001 cyc: 2625765719 now IPC :2.07645: AVG IPC :0.86750: L2-Pf-HR :0.98983: L2-HR :0.91218: (Sim:10h5m7s) 
CPU  0 inst: 2280000005 cyc: 2626395902 now IPC :1.58685: AVG IPC :0.86767: L2-Pf-HR :0.98983: L2-HR :0.91216: (Sim:10h5m17s) 
CPU  0 inst: 2281000004 cyc: 2626856844 now IPC :2.16947: AVG IPC :0.86790: L2-Pf-HR :0.98983: L2-HR :0.91217: (Sim:10h5m24s) 
CPU  0 inst: 2282000001 cyc: 2627314070 now IPC :2.18710: AVG IPC :0.86813: L2-Pf-HR :0.98983: L2-HR :0.91218: (Sim:10h5m31s) 
CPU  0 inst: 2283000002 cyc: 2627868548 now IPC :1.80350: AVG IPC :0.86833: L2-Pf-HR :0.98983: L2-HR :0.91217: (Sim:10h5m40s) 
CPU  0 inst: 2284000000 cyc: 2628479612 now IPC :1.63649: AVG IPC :0.86851: L2-Pf-HR :0.98982: L2-HR :0.91215: (Sim:10h5m49s) 
CPU  0 inst: 2285000004 cyc: 2628967977 now IPC :2.04766: AVG IPC :0.86873: L2-Pf-HR :0.98982: L2-HR :0.91216: (Sim:10h5m58s) 
CPU  0 inst: 2286000001 cyc: 2629459037 now IPC :2.03640: AVG IPC :0.86895: L2-Pf-HR :0.98982: L2-HR :0.91217: (Sim:10h6m7s) 
CPU  0 inst: 2287000002 cyc: 2630054255 now IPC :1.68006: AVG IPC :0.86913: L2-Pf-HR :0.98981: L2-HR :0.91215: (Sim:10h6m15s) 
CPU  0 inst: 2288000003 cyc: 2630498057 now IPC :2.25326: AVG IPC :0.86936: L2-Pf-HR :0.98981: L2-HR :0.91216: (Sim:10h6m23s) 
CPU  0 inst: 2289000003 cyc: 2631042755 now IPC :1.83588: AVG IPC :0.86956: L2-Pf-HR :0.98980: L2-HR :0.91215: (Sim:10h6m31s) 
CPU  0 inst: 2290000000 cyc: 2631492507 now IPC :2.22344: AVG IPC :0.86979: L2-Pf-HR :0.98980: L2-HR :0.91216: (Sim:10h6m39s) 
CPU  0 inst: 2291000000 cyc: 2632102793 now IPC :1.63858: AVG IPC :0.86997: L2-Pf-HR :0.98980: L2-HR :0.91214: (Sim:10h6m49s) 
CPU  0 inst: 2292000002 cyc: 2632582703 now IPC :2.08373: AVG IPC :0.87019: L2-Pf-HR :0.98979: L2-HR :0.91215: (Sim:10h6m58s) 
CPU  0 inst: 2293000001 cyc: 2633187253 now IPC :1.65412: AVG IPC :0.87037: L2-Pf-HR :0.98979: L2-HR :0.91213: (Sim:10h7m7s) 
CPU  0 inst: 2294000002 cyc: 2633631296 now IPC :2.25204: AVG IPC :0.87061: L2-Pf-HR :0.98978: L2-HR :0.91214: (Sim:10h7m14s) 
CPU  0 inst: 2295000000 cyc: 2634178224 now IPC :1.82839: AVG IPC :0.87081: L2-Pf-HR :0.98978: L2-HR :0.91213: (Sim:10h7m23s) 
CPU  0 inst: 2296000003 cyc: 2634624093 now IPC :2.24282: AVG IPC :0.87104: L2-Pf-HR :0.98977: L2-HR :0.91214: (Sim:10h7m30s) 
CPU  0 inst: 2297000003 cyc: 2635151556 now IPC :1.89587: AVG IPC :0.87124: L2-Pf-HR :0.98977: L2-HR :0.91215: (Sim:10h7m39s) 
CPU  0 inst: 2298000003 cyc: 2635675803 now IPC :1.90750: AVG IPC :0.87145: L2-Pf-HR :0.98976: L2-HR :0.91215: (Sim:10h7m48s) 
CPU  0 inst: 2299000005 cyc: 2636384002 now IPC :1.41204: AVG IPC :0.87159: L2-Pf-HR :0.98976: L2-HR :0.91212: (Sim:10h7m58s) 
CPU  0 inst: 2300000005 cyc: 2636951043 now IPC :1.76354: AVG IPC :0.87179: L2-Pf-HR :0.98976: L2-HR :0.91212: (Sim:10h8m7s) 
CPU  0 inst: 2301000001 cyc: 2637515387 now IPC :1.77196: AVG IPC :0.87198: L2-Pf-HR :0.98976: L2-HR :0.91212: (Sim:10h8m15s) 
CPU  0 inst: 2302000002 cyc: 2638175517 now IPC :1.51485: AVG IPC :0.87214: L2-Pf-HR :0.98976: L2-HR :0.91210: (Sim:10h8m24s) 
CPU  0 inst: 2303000002 cyc: 2638703526 now IPC :1.89391: AVG IPC :0.87234: L2-Pf-HR :0.98976: L2-HR :0.91211: (Sim:10h8m32s) 
CPU  0 inst: 2304000002 cyc: 2639340573 now IPC :1.56974: AVG IPC :0.87251: L2-Pf-HR :0.98976: L2-HR :0.91210: (Sim:10h8m40s) 
CPU  0 inst: 2305000002 cyc: 2639944938 now IPC :1.65463: AVG IPC :0.87269: L2-Pf-HR :0.98976: L2-HR :0.91209: (Sim:10h8m49s) 
CPU  0 inst: 2306000004 cyc: 2640510019 now IPC :1.76966: AVG IPC :0.87288: L2-Pf-HR :0.98976: L2-HR :0.91208: (Sim:10h8m58s) 
CPU  0 inst: 2307000000 cyc: 2640993398 now IPC :2.06876: AVG IPC :0.87310: L2-Pf-HR :0.98976: L2-HR :0.91209: (Sim:10h9m7s) 
CPU  0 inst: 2308000000 cyc: 2641608885 now IPC :1.62473: AVG IPC :0.87328: L2-Pf-HR :0.98976: L2-HR :0.91207: (Sim:10h9m16s) 
CPU  0 inst: 2309000002 cyc: 2642068580 now IPC :2.17536: AVG IPC :0.87351: L2-Pf-HR :0.98976: L2-HR :0.91208: (Sim:10h9m23s) 
CPU  0 inst: 2310000000 cyc: 2642629602 now IPC :1.78246: AVG IPC :0.87370: L2-Pf-HR :0.98976: L2-HR :0.91207: (Sim:10h9m32s) 
CPU  0 inst: 2311000005 cyc: 2643093738 now IPC :2.15455: AVG IPC :0.87392: L2-Pf-HR :0.98976: L2-HR :0.91209: (Sim:10h9m39s) 
CPU  0 inst: 2312000001 cyc: 2643729711 now IPC :1.57239: AVG IPC :0.87409: L2-Pf-HR :0.98975: L2-HR :0.91206: (Sim:10h9m49s) 
CPU  0 inst: 2313000000 cyc: 2644215518 now IPC :2.05843: AVG IPC :0.87431: L2-Pf-HR :0.98975: L2-HR :0.91207: (Sim:10h9m57s) 
CPU  0 inst: 2314000000 cyc: 2644854241 now IPC :1.56562: AVG IPC :0.87448: L2-Pf-HR :0.98975: L2-HR :0.91205: (Sim:10h10m6s) 
CPU  0 inst: 2315000004 cyc: 2645312883 now IPC :2.18036: AVG IPC :0.87470: L2-Pf-HR :0.98975: L2-HR :0.91206: (Sim:10h10m14s) 
CPU  0 inst: 2316000000 cyc: 2645789305 now IPC :2.09897: AVG IPC :0.87492: L2-Pf-HR :0.98975: L2-HR :0.91207: (Sim:10h10m21s) 
CPU  0 inst: 2317000002 cyc: 2646323605 now IPC :1.87161: AVG IPC :0.87512: L2-Pf-HR :0.98975: L2-HR :0.91207: (Sim:10h10m29s) 
CPU  0 inst: 2318000000 cyc: 2646942587 now IPC :1.61555: AVG IPC :0.87530: L2-Pf-HR :0.98974: L2-HR :0.91205: (Sim:10h10m38s) 
CPU  0 inst: 2319000001 cyc: 2647434978 now IPC :2.03091: AVG IPC :0.87551: L2-Pf-HR :0.98974: L2-HR :0.91205: (Sim:10h10m47s) 
CPU  0 inst: 2320000000 cyc: 2647959884 now IPC :1.90510: AVG IPC :0.87572: L2-Pf-HR :0.98974: L2-HR :0.91206: (Sim:10h10m56s) 
CPU  0 inst: 2321000003 cyc: 2648511450 now IPC :1.81303: AVG IPC :0.87591: L2-Pf-HR :0.98973: L2-HR :0.91205: (Sim:10h11m4s) 
CPU  0 inst: 2322000005 cyc: 2648958912 now IPC :2.23483: AVG IPC :0.87614: L2-Pf-HR :0.98973: L2-HR :0.91206: (Sim:10h11m11s) 
CPU  0 inst: 2323000004 cyc: 2649506280 now IPC :1.82692: AVG IPC :0.87634: L2-Pf-HR :0.98973: L2-HR :0.91205: (Sim:10h11m19s) 
CPU  0 inst: 2324000003 cyc: 2650030108 now IPC :1.90902: AVG IPC :0.87654: L2-Pf-HR :0.98973: L2-HR :0.91205: (Sim:10h11m27s) 
CPU  0 inst: 2325000002 cyc: 2650580582 now IPC :1.81661: AVG IPC :0.87674: L2-Pf-HR :0.98972: L2-HR :0.91204: (Sim:10h11m37s) 
CPU  0 inst: 2326000000 cyc: 2651048483 now IPC :2.13720: AVG IPC :0.87696: L2-Pf-HR :0.98971: L2-HR :0.91205: (Sim:10h11m45s) 
CPU  0 inst: 2327000000 cyc: 2651653436 now IPC :1.65302: AVG IPC :0.87714: L2-Pf-HR :0.98971: L2-HR :0.91203: (Sim:10h11m53s) 
CPU  0 inst: 2328000003 cyc: 2652098230 now IPC :2.24824: AVG IPC :0.87737: L2-Pf-HR :0.98970: L2-HR :0.91204: (Sim:10h12m0s) 
CPU  0 inst: 2329000004 cyc: 2652644923 now IPC :1.82918: AVG IPC :0.87756: L2-Pf-HR :0.98970: L2-HR :0.91203: (Sim:10h12m9s) 
CPU  0 inst: 2330000004 cyc: 2653089832 now IPC :2.24765: AVG IPC :0.87779: L2-Pf-HR :0.98970: L2-HR :0.91205: (Sim:10h12m16s) 
CPU  0 inst: 2331000001 cyc: 2653621637 now IPC :1.88038: AVG IPC :0.87799: L2-Pf-HR :0.98969: L2-HR :0.91205: (Sim:10h12m24s) 
CPU  0 inst: 2332000001 cyc: 2654175892 now IPC :1.80422: AVG IPC :0.87819: L2-Pf-HR :0.98969: L2-HR :0.91205: (Sim:10h12m33s) 
CPU  0 inst: 2333000002 cyc: 2654875006 now IPC :1.43038: AVG IPC :0.87833: L2-Pf-HR :0.98969: L2-HR :0.91202: (Sim:10h12m43s) 
CPU  0 inst: 2334000000 cyc: 2655422909 now IPC :1.82514: AVG IPC :0.87853: L2-Pf-HR :0.98968: L2-HR :0.91202: (Sim:10h12m51s) 
CPU  0 inst: 2335000000 cyc: 2656126128 now IPC :1.42203: AVG IPC :0.87867: L2-Pf-HR :0.98968: L2-HR :0.91200: (Sim:10h13m0s) 
CPU  0 inst: 2336000001 cyc: 2656662442 now IPC :1.86458: AVG IPC :0.87887: L2-Pf-HR :0.98968: L2-HR :0.91200: (Sim:10h13m8s) 
CPU  0 inst: 2337000005 cyc: 2657190634 now IPC :1.89326: AVG IPC :0.87907: L2-Pf-HR :0.98968: L2-HR :0.91201: (Sim:10h13m15s) 
CPU  0 inst: 2338000003 cyc: 2657827095 now IPC :1.57118: AVG IPC :0.87924: L2-Pf-HR :0.98968: L2-HR :0.91200: (Sim:10h13m23s) 
CPU  0 inst: 2339000002 cyc: 2658498371 now IPC :1.48970: AVG IPC :0.87939: L2-Pf-HR :0.98968: L2-HR :0.91198: (Sim:10h13m33s) 
CPU  0 inst: 2340000002 cyc: 2658990781 now IPC :2.03083: AVG IPC :0.87961: L2-Pf-HR :0.98968: L2-HR :0.91198: (Sim:10h13m41s) 
CPU  0 inst: 2341000003 cyc: 2659479331 now IPC :2.04688: AVG IPC :0.87982: L2-Pf-HR :0.98968: L2-HR :0.91199: (Sim:10h13m50s) 
CPU  0 inst: 2342000002 cyc: 2660104245 now IPC :1.60022: AVG IPC :0.87999: L2-Pf-HR :0.98968: L2-HR :0.91197: (Sim:10h13m59s) 
CPU  0 inst: 2343000005 cyc: 2660567351 now IPC :2.15934: AVG IPC :0.88021: L2-Pf-HR :0.98968: L2-HR :0.91198: (Sim:10h14m6s) 
CPU  0 inst: 2344000001 cyc: 2661131676 now IPC :1.77202: AVG IPC :0.88040: L2-Pf-HR :0.98968: L2-HR :0.91198: (Sim:10h14m15s) 
CPU  0 inst: 2345000003 cyc: 2661602630 now IPC :2.12335: AVG IPC :0.88062: L2-Pf-HR :0.98968: L2-HR :0.91199: (Sim:10h14m22s) 
CPU  0 inst: 2346000003 cyc: 2662242132 now IPC :1.56372: AVG IPC :0.88079: L2-Pf-HR :0.98968: L2-HR :0.91197: (Sim:10h14m32s) 
CPU  0 inst: 2347000000 cyc: 2662740310 now IPC :2.00731: AVG IPC :0.88100: L2-Pf-HR :0.98968: L2-HR :0.91197: (Sim:10h14m41s) 
CPU  0 inst: 2348000001 cyc: 2663376750 now IPC :1.57124: AVG IPC :0.88116: L2-Pf-HR :0.98967: L2-HR :0.91196: (Sim:10h14m50s) 
CPU  0 inst: 2349000002 cyc: 2663835521 now IPC :2.17974: AVG IPC :0.88139: L2-Pf-HR :0.98967: L2-HR :0.91197: (Sim:10h14m57s) 
CPU  0 inst: 2350000002 cyc: 2664392427 now IPC :1.79564: AVG IPC :0.88158: L2-Pf-HR :0.98967: L2-HR :0.91196: (Sim:10h15m5s) 
CPU  0 inst: 2351000003 cyc: 2664853770 now IPC :2.16759: AVG IPC :0.88180: L2-Pf-HR :0.98967: L2-HR :0.91197: (Sim:10h15m13s) 
CPU  0 inst: 2352000002 cyc: 2665498407 now IPC :1.55126: AVG IPC :0.88196: L2-Pf-HR :0.98967: L2-HR :0.91195: (Sim:10h15m22s) 
CPU  0 inst: 2353000004 cyc: 2665978274 now IPC :2.08391: AVG IPC :0.88218: L2-Pf-HR :0.98966: L2-HR :0.91196: (Sim:10h15m30s) 
CPU  0 inst: 2354000003 cyc: 2666606952 now IPC :1.59064: AVG IPC :0.88235: L2-Pf-HR :0.98966: L2-HR :0.91194: (Sim:10h15m39s) 
CPU  0 inst: 2355000004 cyc: 2667056418 now IPC :2.22486: AVG IPC :0.88257: L2-Pf-HR :0.98966: L2-HR :0.91195: (Sim:10h15m47s) 
CPU  0 inst: 2356000002 cyc: 2667505284 now IPC :2.22783: AVG IPC :0.88280: L2-Pf-HR :0.98965: L2-HR :0.91196: (Sim:10h15m54s) 
CPU  0 inst: 2357000004 cyc: 2668047176 now IPC :1.84539: AVG IPC :0.88299: L2-Pf-HR :0.98965: L2-HR :0.91195: (Sim:10h16m2s) 
CPU  0 inst: 2358000001 cyc: 2668656846 now IPC :1.64023: AVG IPC :0.88317: L2-Pf-HR :0.98965: L2-HR :0.91194: (Sim:10h16m11s) 
CPU  0 inst: 2359000003 cyc: 2669127914 now IPC :2.12284: AVG IPC :0.88339: L2-Pf-HR :0.98964: L2-HR :0.91194: (Sim:10h16m19s) 
CPU  0 inst: 2360000000 cyc: 2669603685 now IPC :2.10185: AVG IPC :0.88360: L2-Pf-HR :0.98964: L2-HR :0.91195: (Sim:10h16m27s) 
CPU  0 inst: 2361000005 cyc: 2670208838 now IPC :1.65248: AVG IPC :0.88378: L2-Pf-HR :0.98963: L2-HR :0.91193: (Sim:10h16m36s) 
CPU  0 inst: 2362000003 cyc: 2670652966 now IPC :2.25160: AVG IPC :0.88401: L2-Pf-HR :0.98963: L2-HR :0.91194: (Sim:10h16m44s) 
CPU  0 inst: 2363000000 cyc: 2671199698 now IPC :1.82904: AVG IPC :0.88420: L2-Pf-HR :0.98962: L2-HR :0.91194: (Sim:10h16m52s) 
Finished CPU 0 instr: 2361000005 cyc: 2670214474 AVG IPC: 0.88420 (Sim time: 10h16m52s)

ChampSim completed all CPUs

[ROI Statistics]
Core_0_instructions 2361000005
Core_0_cycles 2670214474
Core_0_IPC 0.88420

Core_0_branch_prediction_accuracy 98.59504
Core_0_branch_MPKI 0.33667
Core_0_average_ROB_occupancy_at_mispredict 618.19814

Core_0_L1D_total_access 539678436
Core_0_L1D_total_hit 495286480 L1D_total_Hit Ratio: 0.91774
Core_0_L1D_total_miss 44391956
Core_0_L1D_loads 492695811
Core_0_L1D_load_hit 450694950 L1D_load_Hit Ratio: 0.91475
Core_0_L1D_load_miss 42000861
Core_0_L1D_RFOs 45864582
Core_0_L1D_RFO_hit 43473487 L1D_RFO_Hit Ratio: 0.94787
Core_0_L1D_RFO_miss 2391095
Core_0_L1D_prefetches 1118043
Core_0_L1D_prefetch_hit 1118043 L1D_prefetch_Hit Ratio: 1.00000
Core_0_L1D_prefetch_miss 0
Core_0_L1D_writebacks 0
Core_0_L1D_writeback_hit 0 L1D_writeback_Hit Ratio: -nan
Core_0_L1D_writeback_miss 0
Core_0_L1D_prefetch_requested 193642828
Core_0_L1D_prefetch_issued 114601848
Core_0_L1D_prefetch_useful 0 L1D_Useful Ratio: 0.00000
Core_0_L1D_prefetch_useless 0
Core_0_L1D_prefetch_late 0
Core_0_L1D_average_miss_latency 110.71615

Core_0_L1I_total_access 306789897
Core_0_L1I_total_hit 306784986 L1I_total_Hit Ratio: 0.99998
Core_0_L1I_total_miss 4911
Core_0_L1I_loads 306789897
Core_0_L1I_load_hit 306784986 L1I_load_Hit Ratio: 0.99998
Core_0_L1I_load_miss 4911
Core_0_L1I_RFOs 0
Core_0_L1I_RFO_hit 0 L1I_RFO_Hit Ratio: -nan
Core_0_L1I_RFO_miss 0
Core_0_L1I_prefetches 0
Core_0_L1I_prefetch_hit 0 L1I_prefetch_Hit Ratio: -nan
Core_0_L1I_prefetch_miss 0
Core_0_L1I_writebacks 0
Core_0_L1I_writeback_hit 0 L1I_writeback_Hit Ratio: -nan
Core_0_L1I_writeback_miss 0
Core_0_L1I_prefetch_requested 0
Core_0_L1I_prefetch_issued 0
Core_0_L1I_prefetch_useful 0 L1I_Useful Ratio: -nan
Core_0_L1I_prefetch_useless 0
Core_0_L1I_prefetch_late 0
Core_0_L1I_average_miss_latency 290.14681

Core_0_L2C_total_access 163493123
Core_0_L2C_total_hit 149095302 L2C_total_Hit Ratio: 0.91194
Core_0_L2C_total_miss 14397821
Core_0_L2C_loads 42005704
Core_0_L2C_load_hit 30828456 L2C_load_Hit Ratio: 0.73391
Core_0_L2C_load_miss 11177248
Core_0_L2C_RFOs 2391095
Core_0_L2C_RFO_hit 282083 L2C_RFO_Hit Ratio: 0.11797
Core_0_L2C_RFO_miss 2109012
Core_0_L2C_prefetches 107060788
Core_0_L2C_prefetch_hit 105949769 L2C_prefetch_Hit Ratio: 0.98962
Core_0_L2C_prefetch_miss 1111019
Core_0_L2C_writebacks 12035536
Core_0_L2C_writeback_hit 12034994 L2C_writeback_Hit Ratio: 0.99995
Core_0_L2C_writeback_miss 542
Core_0_L2C_prefetch_requested 43333157
Core_0_L2C_prefetch_issued 2084468
Core_0_L2C_prefetch_useful 1110991 L2C_Useful Ratio: 0.53299
Core_0_L2C_prefetch_useless 542
Core_0_L2C_prefetch_late 101443
Core_0_L2C_average_miss_latency 300.09770

Core_0_LLC_total_access 23630786
Core_0_LLC_total_hit 11338323 LLC_total_Hit Ratio: 0.47981
Core_0_LLC_total_miss 12292463
Core_0_LLC_loads 11075731
Core_0_LLC_load_hit 1283754 LLC_load_Hit Ratio: 0.11591
Core_0_LLC_load_miss 9791977
Core_0_LLC_RFOs 2109012
Core_0_LLC_RFO_hit 5629 LLC_RFO_Hit Ratio: 0.00267
Core_0_LLC_RFO_miss 2103383
Core_0_LLC_prefetches 1963039
Core_0_LLC_prefetch_hit 1721838 LLC_prefetch_Hit Ratio: 0.87713
Core_0_LLC_prefetch_miss 241201
Core_0_LLC_writebacks 8483004
Core_0_LLC_writeback_hit 8327102 LLC_writeback_Hit Ratio: 0.98162
Core_0_LLC_writeback_miss 155902
Core_0_LLC_prefetch_requested 0
Core_0_LLC_prefetch_issued 0
Core_0_LLC_prefetch_useful 63528 LLC_Useful Ratio: inf
Core_0_LLC_prefetch_useless 174194
Core_0_LLC_prefetch_late 6823
Core_0_LLC_average_miss_latency 293.52222

Core_0_major_page_fault 0
Core_0_minor_page_fault 83038

CPU 0 L1D next line prefetcher final stats
Prefetcher final stats
Training Unit Size: 4724
Addr table size: 5220379 5220380


Triggers: 11194158
No Prediction: 5310575 47.44059
Stream end: 620178
No translation: 588421567 5256.50582
Predictions: 2084468 18.62103


Stream divergence: 270490 2.41635
Stream divergence -- new stream: 0
Channel_0_RQ_row_buffer_hit 6930346
Channel_0_RQ_row_buffer_miss 5205362
Channel_0_WQ_row_buffer_hit 2613218
Channel_0_WQ_row_buffer_miss 4462749
Channel_0_WQ_full 175
Channel_0_dbus_congested 6209133

avg_congested_cycle 10

EzSearch AVG IPC :0.88420: L2-Pf-HR :0.98962 : L2-HR :0.91194 Uful:0.53299
     > Finished combination: TraceType=770-tot Sim:2361000000 Prefetcher=L2isb_ideal L1=isb_ideal
