TRACE: [2366000000][OPT-6_7B]_[h32][s1024][d128] Warmup: 2000000 NumTraces: 2366000000
L1:no:L2:no
*************************************************
   ChampSim Multicore Out-of-Order Simulator
   Last compiled: Oct 27 2024 04:01:21
*************************************************

trace_0 770-tot_memTraces_v3/memTraces[2366000000][OPT-6_7B]_[h32][s1024][d128].champsim.xz
MAIN.cc ln 751 stats print skipped
CPU  0 inst:    1000000 cyc:     499511 now IPC :2.00196: AVG IPC :2.00196: L2-Pf-HR :-nan: L2-HR :0.57885: (Sim:0h0m8s) 
CPU  0 inst:    2000002 cyc:     985226 now IPC :2.05882: AVG IPC :2.02999: L2-Pf-HR :-nan: L2-HR :0.66740: (Sim:0h0m16s) 

Warmup complete CPU  0 instructions:    2000002 cycles:     985226 (Simulation time: 0 hr 0 min 16 sec) 

CPU  0 inst:    3000004 cyc:    1598937 now IPC :1.62943: AVG IPC :1.62943: L2-Pf-HR :-nan: L2-HR :0.77576: (Sim:0h0m23s) 
CPU  0 inst:    4000003 cyc:    2201325 now IPC :1.66006: AVG IPC :1.64460: L2-Pf-HR :-nan: L2-HR :0.77788: (Sim:0h0m30s) 
CPU  0 inst:    5000000 cyc:    2811645 now IPC :1.63848: AVG IPC :1.64256: L2-Pf-HR :-nan: L2-HR :0.77935: (Sim:0h0m37s) 
CPU  0 inst:    6000001 cyc:    3422268 now IPC :1.63767: AVG IPC :1.64133: L2-Pf-HR :-nan: L2-HR :0.78222: (Sim:0h0m44s) 
CPU  0 inst:    7000005 cyc:    4029216 now IPC :1.64759: AVG IPC :1.64258: L2-Pf-HR :-nan: L2-HR :0.78421: (Sim:0h0m51s) 
CPU  0 inst:    8000002 cyc:    4641726 now IPC :1.63262: AVG IPC :1.64091: L2-Pf-HR :-nan: L2-HR :0.78300: (Sim:0h0m58s) 
CPU  0 inst:    9000004 cyc:    5250364 now IPC :1.64302: AVG IPC :1.64121: L2-Pf-HR :-nan: L2-HR :0.78266: (Sim:0h1m5s) 
CPU  0 inst:   10000000 cyc:    5858105 now IPC :1.64543: AVG IPC :1.64174: L2-Pf-HR :-nan: L2-HR :0.78239: (Sim:0h1m12s) 
CPU  0 inst:   11000000 cyc:    6474234 now IPC :1.62304: AVG IPC :1.63964: L2-Pf-HR :-nan: L2-HR :0.78168: (Sim:0h1m19s) 
CPU  0 inst:   12000002 cyc:    7093381 now IPC :1.61513: AVG IPC :1.63716: L2-Pf-HR :-nan: L2-HR :0.78302: (Sim:0h1m26s) 
CPU  0 inst:   13000003 cyc:    7798751 now IPC :1.41770: AVG IPC :1.61444: L2-Pf-HR :-nan: L2-HR :0.77865: (Sim:0h1m34s) 
CPU  0 inst:   14000005 cyc:    8406465 now IPC :1.64551: AVG IPC :1.61698: L2-Pf-HR :-nan: L2-HR :0.77979: (Sim:0h1m41s) 
CPU  0 inst:   15000002 cyc:    9008774 now IPC :1.66027: AVG IPC :1.62023: L2-Pf-HR :-nan: L2-HR :0.78107: (Sim:0h1m48s) 
CPU  0 inst:   16000000 cyc:    9601727 now IPC :1.68647: AVG IPC :1.62479: L2-Pf-HR :-nan: L2-HR :0.78196: (Sim:0h1m55s) 
CPU  0 inst:   17000000 cyc:   10205368 now IPC :1.65661: AVG IPC :1.62687: L2-Pf-HR :-nan: L2-HR :0.78307: (Sim:0h2m2s) 
CPU  0 inst:   18000001 cyc:   10810609 now IPC :1.65224: AVG IPC :1.62844: L2-Pf-HR :-nan: L2-HR :0.78468: (Sim:0h2m10s) 
CPU  0 inst:   19000004 cyc:   11411435 now IPC :1.66438: AVG IPC :1.63051: L2-Pf-HR :-nan: L2-HR :0.78587: (Sim:0h2m17s) 
CPU  0 inst:   20000000 cyc:   12011647 now IPC :1.66607: AVG IPC :1.63244: L2-Pf-HR :-nan: L2-HR :0.78634: (Sim:0h2m24s) 
CPU  0 inst:   21000000 cyc:   12605121 now IPC :1.68499: AVG IPC :1.63513: L2-Pf-HR :-nan: L2-HR :0.78694: (Sim:0h2m31s) 
CPU  0 inst:   22000003 cyc:   13191503 now IPC :1.70538: AVG IPC :1.63850: L2-Pf-HR :-nan: L2-HR :0.78731: (Sim:0h2m38s) 
CPU  0 inst:   23000004 cyc:   13781103 now IPC :1.69607: AVG IPC :1.64115: L2-Pf-HR :-nan: L2-HR :0.78767: (Sim:0h2m45s) 
CPU  0 inst:   24000000 cyc:   14477436 now IPC :1.43609: AVG IPC :1.63057: L2-Pf-HR :-nan: L2-HR :0.78647: (Sim:0h2m53s) 
CPU  0 inst:   25000002 cyc:   15065463 now IPC :1.70061: AVG IPC :1.63350: L2-Pf-HR :-nan: L2-HR :0.78797: (Sim:0h3m0s) 
CPU  0 inst:   26000000 cyc:   15650622 now IPC :1.70893: AVG IPC :1.63651: L2-Pf-HR :-nan: L2-HR :0.78908: (Sim:0h3m7s) 
CPU  0 inst:   27000001 cyc:   16238910 now IPC :1.69985: AVG IPC :1.63895: L2-Pf-HR :-nan: L2-HR :0.79024: (Sim:0h3m14s) 
CPU  0 inst:   28000003 cyc:   16825444 now IPC :1.70493: AVG IPC :1.64139: L2-Pf-HR :-nan: L2-HR :0.79179: (Sim:0h3m21s) 
CPU  0 inst:   29000005 cyc:   17411800 now IPC :1.70545: AVG IPC :1.64368: L2-Pf-HR :-nan: L2-HR :0.79306: (Sim:0h3m28s) 
CPU  0 inst:   30000000 cyc:   17998022 now IPC :1.70583: AVG IPC :1.64582: L2-Pf-HR :-nan: L2-HR :0.79402: (Sim:0h3m35s) 
CPU  0 inst:   31000004 cyc:   18584078 now IPC :1.70633: AVG IPC :1.64783: L2-Pf-HR :-nan: L2-HR :0.79491: (Sim:0h3m42s) 
CPU  0 inst:   32000005 cyc:   19350611 now IPC :1.30458: AVG IPC :1.63351: L2-Pf-HR :-nan: L2-HR :0.79142: (Sim:0h3m50s) 
CPU  0 inst:   33000004 cyc:   19990813 now IPC :1.56201: AVG IPC :1.63110: L2-Pf-HR :-nan: L2-HR :0.79092: (Sim:0h3m57s) 
CPU  0 inst:   34000003 cyc:   20631005 now IPC :1.56203: AVG IPC :1.62885: L2-Pf-HR :-nan: L2-HR :0.79035: (Sim:0h4m4s) 
CPU  0 inst:   35000000 cyc:   21253713 now IPC :1.60588: AVG IPC :1.62814: L2-Pf-HR :-nan: L2-HR :0.78995: (Sim:0h4m11s) 
CPU  0 inst:   36000004 cyc:   21886316 now IPC :1.58078: AVG IPC :1.62671: L2-Pf-HR :-nan: L2-HR :0.78952: (Sim:0h4m19s) 
CPU  0 inst:   37000005 cyc:   22512970 now IPC :1.59578: AVG IPC :1.62581: L2-Pf-HR :-nan: L2-HR :0.78936: (Sim:0h4m26s) 
CPU  0 inst:   38000005 cyc:   23146589 now IPC :1.57824: AVG IPC :1.62445: L2-Pf-HR :-nan: L2-HR :0.78933: (Sim:0h4m33s) 
CPU  0 inst:   39000000 cyc:   23783174 now IPC :1.57087: AVG IPC :1.62295: L2-Pf-HR :-nan: L2-HR :0.78909: (Sim:0h4m41s) 
CPU  0 inst:   40000001 cyc:   24412817 now IPC :1.58820: AVG IPC :1.62202: L2-Pf-HR :-nan: L2-HR :0.78881: (Sim:0h4m48s) 
CPU  0 inst:   41000002 cyc:   25045122 now IPC :1.58152: AVG IPC :1.62095: L2-Pf-HR :-nan: L2-HR :0.78848: (Sim:0h4m55s) 
CPU  0 inst:   42000003 cyc:   25666152 now IPC :1.61023: AVG IPC :1.62068: L2-Pf-HR :-nan: L2-HR :0.78815: (Sim:0h5m2s) 
CPU  0 inst:   43000003 cyc:   26297919 now IPC :1.58286: AVG IPC :1.61974: L2-Pf-HR :-nan: L2-HR :0.78789: (Sim:0h5m10s) 
CPU  0 inst:   44000003 cyc:   27064798 now IPC :1.30399: AVG IPC :1.61046: L2-Pf-HR :-nan: L2-HR :0.78662: (Sim:0h5m17s) 
CPU  0 inst:   45000001 cyc:   27667625 now IPC :1.65885: AVG IPC :1.61155: L2-Pf-HR :-nan: L2-HR :0.78679: (Sim:0h5m24s) 
CPU  0 inst:   46000002 cyc:   28266642 now IPC :1.66940: AVG IPC :1.61282: L2-Pf-HR :-nan: L2-HR :0.78702: (Sim:0h5m31s) 
CPU  0 inst:   47000002 cyc:   28852686 now IPC :1.70636: AVG IPC :1.61479: L2-Pf-HR :-nan: L2-HR :0.78715: (Sim:0h5m38s) 
CPU  0 inst:   48000004 cyc:   29434276 now IPC :1.71943: AVG IPC :1.61693: L2-Pf-HR :-nan: L2-HR :0.78729: (Sim:0h5m45s) 
CPU  0 inst:   49000002 cyc:   30031299 now IPC :1.67497: AVG IPC :1.61812: L2-Pf-HR :-nan: L2-HR :0.78775: (Sim:0h5m52s) 
CPU  0 inst:   50000003 cyc:   30617719 now IPC :1.70526: AVG IPC :1.61984: L2-Pf-HR :-nan: L2-HR :0.78816: (Sim:0h5m59s) 
CPU  0 inst:   51000003 cyc:   31201373 now IPC :1.71334: AVG IPC :1.62165: L2-Pf-HR :-nan: L2-HR :0.78836: (Sim:0h6m6s) 
CPU  0 inst:   52000003 cyc:   31784693 now IPC :1.71432: AVG IPC :1.62340: L2-Pf-HR :-nan: L2-HR :0.78854: (Sim:0h6m14s) 
CPU  0 inst:   53000003 cyc:   32361759 now IPC :1.73290: AVG IPC :1.62542: L2-Pf-HR :-nan: L2-HR :0.78865: (Sim:0h6m21s) 
CPU  0 inst:   54000002 cyc:   32939290 now IPC :1.73151: AVG IPC :1.62734: L2-Pf-HR :-nan: L2-HR :0.78878: (Sim:0h6m28s) 
CPU  0 inst:   55000002 cyc:   33514774 now IPC :1.73767: AVG IPC :1.62929: L2-Pf-HR :-nan: L2-HR :0.78895: (Sim:0h6m35s) 
CPU  0 inst:   56000004 cyc:   34205828 now IPC :1.44707: AVG IPC :1.62550: L2-Pf-HR :-nan: L2-HR :0.78862: (Sim:0h6m42s) 
CPU  0 inst:   57000002 cyc:   34789413 now IPC :1.71354: AVG IPC :1.62702: L2-Pf-HR :-nan: L2-HR :0.78924: (Sim:0h6m49s) 
CPU  0 inst:   58000001 cyc:   35368798 now IPC :1.72597: AVG IPC :1.62868: L2-Pf-HR :-nan: L2-HR :0.78981: (Sim:0h6m56s) 
CPU  0 inst:   59000002 cyc:   35950827 now IPC :1.71813: AVG IPC :1.63017: L2-Pf-HR :-nan: L2-HR :0.79049: (Sim:0h7m3s) 
CPU  0 inst:   60000001 cyc:   36532268 now IPC :1.71986: AVG IPC :1.63164: L2-Pf-HR :-nan: L2-HR :0.79116: (Sim:0h7m11s) 
CPU  0 inst:   61000005 cyc:   37113518 now IPC :1.72044: AVG IPC :1.63307: L2-Pf-HR :-nan: L2-HR :0.79172: (Sim:0h7m18s) 
CPU  0 inst:   62000001 cyc:   37693579 now IPC :1.72395: AVG IPC :1.63451: L2-Pf-HR :-nan: L2-HR :0.79232: (Sim:0h7m25s) 
CPU  0 inst:   63000004 cyc:   38275580 now IPC :1.71822: AVG IPC :1.63581: L2-Pf-HR :-nan: L2-HR :0.79279: (Sim:0h7m32s) 
CPU  0 inst:   64000003 cyc:   39062782 now IPC :1.27032: AVG IPC :1.62826: L2-Pf-HR :-nan: L2-HR :0.79082: (Sim:0h7m39s) 
CPU  0 inst:   65000005 cyc:   39703115 now IPC :1.56169: AVG IPC :1.62715: L2-Pf-HR :-nan: L2-HR :0.79053: (Sim:0h7m47s) 
CPU  0 inst:   66000004 cyc:   40327723 now IPC :1.60100: AVG IPC :1.62674: L2-Pf-HR :-nan: L2-HR :0.79033: (Sim:0h7m54s) 
CPU  0 inst:   67000000 cyc:   40965119 now IPC :1.56888: AVG IPC :1.62582: L2-Pf-HR :-nan: L2-HR :0.79010: (Sim:0h8m1s) 
CPU  0 inst:   68000005 cyc:   41590562 now IPC :1.59887: AVG IPC :1.62540: L2-Pf-HR :-nan: L2-HR :0.78991: (Sim:0h8m8s) 
CPU  0 inst:   69000001 cyc:   42225749 now IPC :1.57433: AVG IPC :1.62462: L2-Pf-HR :-nan: L2-HR :0.78988: (Sim:0h8m15s) 
CPU  0 inst:   70000000 cyc:   42859026 now IPC :1.57909: AVG IPC :1.62393: L2-Pf-HR :-nan: L2-HR :0.78984: (Sim:0h8m23s) 
CPU  0 inst:   71000002 cyc:   43486953 now IPC :1.59255: AVG IPC :1.62346: L2-Pf-HR :-nan: L2-HR :0.78967: (Sim:0h8m30s) 
CPU  0 inst:   72000004 cyc:   44126058 now IPC :1.56469: AVG IPC :1.62259: L2-Pf-HR :-nan: L2-HR :0.78948: (Sim:0h8m37s) 
CPU  0 inst:   73000000 cyc:   44749383 now IPC :1.60429: AVG IPC :1.62233: L2-Pf-HR :-nan: L2-HR :0.78928: (Sim:0h8m44s) 
CPU  0 inst:   74000004 cyc:   45377285 now IPC :1.59261: AVG IPC :1.62191: L2-Pf-HR :-nan: L2-HR :0.78911: (Sim:0h8m51s) 
CPU  0 inst:   75000002 cyc:   46001892 now IPC :1.60100: AVG IPC :1.62162: L2-Pf-HR :-nan: L2-HR :0.78897: (Sim:0h8m59s) 
CPU  0 inst:   76000001 cyc:   46749516 now IPC :1.33757: AVG IPC :1.61698: L2-Pf-HR :-nan: L2-HR :0.78829: (Sim:0h9m6s) 
CPU  0 inst:   77000002 cyc:   47354249 now IPC :1.65362: AVG IPC :1.61746: L2-Pf-HR :-nan: L2-HR :0.78840: (Sim:0h9m13s) 
CPU  0 inst:   78000002 cyc:   47950301 now IPC :1.67771: AVG IPC :1.61822: L2-Pf-HR :-nan: L2-HR :0.78846: (Sim:0h9m20s) 
CPU  0 inst:   79000000 cyc:   48542779 now IPC :1.68782: AVG IPC :1.61909: L2-Pf-HR :-nan: L2-HR :0.78853: (Sim:0h9m29s) 
CPU  0 inst:   80000000 cyc:   49138930 now IPC :1.67743: AVG IPC :1.61981: L2-Pf-HR :-nan: L2-HR :0.78869: (Sim:0h9m36s) 
CPU  0 inst:   81000001 cyc:   49738770 now IPC :1.66711: AVG IPC :1.62039: L2-Pf-HR :-nan: L2-HR :0.78890: (Sim:0h9m43s) 
CPU  0 inst:   82000005 cyc:   50335144 now IPC :1.67681: AVG IPC :1.62108: L2-Pf-HR :-nan: L2-HR :0.78912: (Sim:0h9m51s) 
CPU  0 inst:   83000002 cyc:   50931814 now IPC :1.67596: AVG IPC :1.62173: L2-Pf-HR :-nan: L2-HR :0.78922: (Sim:0h9m58s) 
CPU  0 inst:   84000004 cyc:   51525294 now IPC :1.68498: AVG IPC :1.62248: L2-Pf-HR :-nan: L2-HR :0.78928: (Sim:0h10m5s) 
CPU  0 inst:   85000002 cyc:   52114712 now IPC :1.69659: AVG IPC :1.62333: L2-Pf-HR :-nan: L2-HR :0.78935: (Sim:0h10m12s) 
CPU  0 inst:   86000002 cyc:   52706322 now IPC :1.69030: AVG IPC :1.62410: L2-Pf-HR :-nan: L2-HR :0.78946: (Sim:0h10m19s) 
CPU  0 inst:   87000003 cyc:   53385036 now IPC :1.47338: AVG IPC :1.62214: L2-Pf-HR :-nan: L2-HR :0.78908: (Sim:0h10m26s) 
CPU  0 inst:   88000004 cyc:   53993380 now IPC :1.64381: AVG IPC :1.62239: L2-Pf-HR :-nan: L2-HR :0.78942: (Sim:0h10m33s) 
CPU  0 inst:   89000000 cyc:   54578668 now IPC :1.70855: AVG IPC :1.62333: L2-Pf-HR :-nan: L2-HR :0.78973: (Sim:0h10m40s) 
CPU  0 inst:   90000001 cyc:   55162176 now IPC :1.71377: AVG IPC :1.62431: L2-Pf-HR :-nan: L2-HR :0.79009: (Sim:0h10m47s) 
CPU  0 inst:   91000005 cyc:   55745218 now IPC :1.71515: AVG IPC :1.62527: L2-Pf-HR :-nan: L2-HR :0.79059: (Sim:0h10m54s) 
CPU  0 inst:   92000004 cyc:   56329416 now IPC :1.71175: AVG IPC :1.62619: L2-Pf-HR :-nan: L2-HR :0.79095: (Sim:0h11m2s) 
CPU  0 inst:   93000002 cyc:   56912973 now IPC :1.71363: AVG IPC :1.62710: L2-Pf-HR :-nan: L2-HR :0.79124: (Sim:0h11m18s) 
CPU  0 inst:   94000001 cyc:   57497167 now IPC :1.71176: AVG IPC :1.62797: L2-Pf-HR :-nan: L2-HR :0.79159: (Sim:0h11m34s) 
CPU  0 inst:   95000005 cyc:   58229461 now IPC :1.36558: AVG IPC :1.62462: L2-Pf-HR :-nan: L2-HR :0.79057: (Sim:0h11m51s) 
CPU  0 inst:   96000001 cyc:   58888272 now IPC :1.51788: AVG IPC :1.62340: L2-Pf-HR :-nan: L2-HR :0.79037: (Sim:0h12m8s) 
CPU  0 inst:   97000000 cyc:   59513872 now IPC :1.59846: AVG IPC :1.62314: L2-Pf-HR :-nan: L2-HR :0.79025: (Sim:0h12m24s) 
CPU  0 inst:   98000002 cyc:   60143080 now IPC :1.58930: AVG IPC :1.62278: L2-Pf-HR :-nan: L2-HR :0.79009: (Sim:0h12m41s) 
CPU  0 inst:   99000004 cyc:   60766909 now IPC :1.60301: AVG IPC :1.62257: L2-Pf-HR :-nan: L2-HR :0.78994: (Sim:0h12m57s) 
CPU  0 inst:  100000003 cyc:   61404152 now IPC :1.56926: AVG IPC :1.62201: L2-Pf-HR :-nan: L2-HR :0.78988: (Sim:0h13m14s) 
CPU  0 inst:  101000002 cyc:   62046807 now IPC :1.55604: AVG IPC :1.62131: L2-Pf-HR :-nan: L2-HR :0.78983: (Sim:0h13m31s) 
CPU  0 inst:  102000003 cyc:   62672418 now IPC :1.59844: AVG IPC :1.62108: L2-Pf-HR :-nan: L2-HR :0.78981: (Sim:0h13m47s) 
CPU  0 inst:  103000003 cyc:   63308763 now IPC :1.57147: AVG IPC :1.62058: L2-Pf-HR :-nan: L2-HR :0.78967: (Sim:0h14m4s) 
CPU  0 inst:  104000002 cyc:   63933179 now IPC :1.60149: AVG IPC :1.62039: L2-Pf-HR :-nan: L2-HR :0.78954: (Sim:0h14m21s) 
CPU  0 inst:  105000004 cyc:   64567044 now IPC :1.57763: AVG IPC :1.61996: L2-Pf-HR :-nan: L2-HR :0.78942: (Sim:0h14m37s) 
CPU  0 inst:  106000005 cyc:   65209993 now IPC :1.55533: AVG IPC :1.61931: L2-Pf-HR :-nan: L2-HR :0.78928: (Sim:0h14m54s) 
CPU  0 inst:  107000002 cyc:   65955944 now IPC :1.34057: AVG IPC :1.61611: L2-Pf-HR :-nan: L2-HR :0.78874: (Sim:0h15m11s) 
CPU  0 inst:  108000002 cyc:   66575915 now IPC :1.61298: AVG IPC :1.61608: L2-Pf-HR :-nan: L2-HR :0.78882: (Sim:0h15m28s) 
CPU  0 inst:  109000005 cyc:   67181193 now IPC :1.65214: AVG IPC :1.61641: L2-Pf-HR :-nan: L2-HR :0.78886: (Sim:0h15m44s) 
CPU  0 inst:  110000000 cyc:   67772977 now IPC :1.68980: AVG IPC :1.61706: L2-Pf-HR :-nan: L2-HR :0.78891: (Sim:0h16m0s) 
CPU  0 inst:  111000001 cyc:   68370134 now IPC :1.67460: AVG IPC :1.61757: L2-Pf-HR :-nan: L2-HR :0.78899: (Sim:0h16m16s) 
CPU  0 inst:  112000003 cyc:   68968850 now IPC :1.67024: AVG IPC :1.61804: L2-Pf-HR :-nan: L2-HR :0.78909: (Sim:0h16m32s) 
CPU  0 inst:  113000003 cyc:   69565448 now IPC :1.67617: AVG IPC :1.61854: L2-Pf-HR :-nan: L2-HR :0.78928: (Sim:0h16m49s) 
CPU  0 inst:  114000003 cyc:   70162984 now IPC :1.67354: AVG IPC :1.61902: L2-Pf-HR :-nan: L2-HR :0.78939: (Sim:0h17m5s) 
CPU  0 inst:  115000003 cyc:   70759964 now IPC :1.67510: AVG IPC :1.61950: L2-Pf-HR :-nan: L2-HR :0.78941: (Sim:0h17m21s) 
CPU  0 inst:  116000004 cyc:   71350186 now IPC :1.69428: AVG IPC :1.62012: L2-Pf-HR :-nan: L2-HR :0.78948: (Sim:0h17m37s) 
CPU  0 inst:  117000002 cyc:   71939584 now IPC :1.69664: AVG IPC :1.62076: L2-Pf-HR :-nan: L2-HR :0.78955: (Sim:0h17m53s) 
CPU  0 inst:  118000004 cyc:   72532128 now IPC :1.68764: AVG IPC :1.62131: L2-Pf-HR :-nan: L2-HR :0.78957: (Sim:0h18m8s) 
CPU  0 inst:  119000003 cyc:   73233558 now IPC :1.42566: AVG IPC :1.61941: L2-Pf-HR :-nan: L2-HR :0.78942: (Sim:0h18m16s) 
CPU  0 inst:  120000004 cyc:   73819723 now IPC :1.70601: AVG IPC :1.62011: L2-Pf-HR :-nan: L2-HR :0.78970: (Sim:0h18m23s) 
CPU  0 inst:  121000003 cyc:   74404626 now IPC :1.70968: AVG IPC :1.62083: L2-Pf-HR :-nan: L2-HR :0.78995: (Sim:0h18m31s) 
CPU  0 inst:  122000004 cyc:   74991485 now IPC :1.70399: AVG IPC :1.62148: L2-Pf-HR :-nan: L2-HR :0.79025: (Sim:0h18m39s) 
CPU  0 inst:  123000003 cyc:   75579887 now IPC :1.69952: AVG IPC :1.62210: L2-Pf-HR :-nan: L2-HR :0.79064: (Sim:0h18m46s) 
CPU  0 inst:  124000004 cyc:   76167636 now IPC :1.70141: AVG IPC :1.62272: L2-Pf-HR :-nan: L2-HR :0.79090: (Sim:0h18m54s) 
CPU  0 inst:  125000000 cyc:   76754995 now IPC :1.70253: AVG IPC :1.62334: L2-Pf-HR :-nan: L2-HR :0.79116: (Sim:0h19m1s) 
CPU  0 inst:  126000001 cyc:   77342399 now IPC :1.70241: AVG IPC :1.62395: L2-Pf-HR :-nan: L2-HR :0.79140: (Sim:0h19m8s) 
CPU  0 inst:  127000002 cyc:   78119456 now IPC :1.28691: AVG IPC :1.62055: L2-Pf-HR :-nan: L2-HR :0.79048: (Sim:0h19m17s) 
CPU  0 inst:  128000005 cyc:   78739851 now IPC :1.61188: AVG IPC :1.62048: L2-Pf-HR :-nan: L2-HR :0.79040: (Sim:0h19m24s) 
CPU  0 inst:  129000000 cyc:   79373986 now IPC :1.57694: AVG IPC :1.62013: L2-Pf-HR :-nan: L2-HR :0.79027: (Sim:0h19m32s) 
CPU  0 inst:  130000001 cyc:   79991414 now IPC :1.61962: AVG IPC :1.62013: L2-Pf-HR :-nan: L2-HR :0.79016: (Sim:0h19m39s) 
CPU  0 inst:  131000002 cyc:   80616976 now IPC :1.59856: AVG IPC :1.61996: L2-Pf-HR :-nan: L2-HR :0.79006: (Sim:0h19m47s) 
CPU  0 inst:  132000004 cyc:   81246941 now IPC :1.58739: AVG IPC :1.61970: L2-Pf-HR :-nan: L2-HR :0.79002: (Sim:0h19m55s) 
CPU  0 inst:  133000002 cyc:   81863825 now IPC :1.62105: AVG IPC :1.61971: L2-Pf-HR :-nan: L2-HR :0.79004: (Sim:0h20m2s) 
CPU  0 inst:  134000004 cyc:   82496018 now IPC :1.58180: AVG IPC :1.61942: L2-Pf-HR :-nan: L2-HR :0.78994: (Sim:0h20m10s) 
CPU  0 inst:  135000004 cyc:   83116487 now IPC :1.61168: AVG IPC :1.61936: L2-Pf-HR :-nan: L2-HR :0.78984: (Sim:0h20m18s) 
CPU  0 inst:  136000000 cyc:   83745762 now IPC :1.58912: AVG IPC :1.61913: L2-Pf-HR :-nan: L2-HR :0.78975: (Sim:0h20m26s) 
CPU  0 inst:  137000005 cyc:   84370174 now IPC :1.60151: AVG IPC :1.61900: L2-Pf-HR :-nan: L2-HR :0.78963: (Sim:0h20m33s) 
CPU  0 inst:  138000001 cyc:   84988934 now IPC :1.61613: AVG IPC :1.61898: L2-Pf-HR :-nan: L2-HR :0.78955: (Sim:0h20m41s) 
CPU  0 inst:  139000002 cyc:   85747797 now IPC :1.31776: AVG IPC :1.61628: L2-Pf-HR :-nan: L2-HR :0.78920: (Sim:0h20m49s) 
CPU  0 inst:  140000001 cyc:   86354719 now IPC :1.64766: AVG IPC :1.61650: L2-Pf-HR :-nan: L2-HR :0.78921: (Sim:0h20m56s) 
CPU  0 inst:  141000001 cyc:   86953325 now IPC :1.67055: AVG IPC :1.61688: L2-Pf-HR :-nan: L2-HR :0.78927: (Sim:0h21m4s) 
CPU  0 inst:  142000001 cyc:   87540633 now IPC :1.70268: AVG IPC :1.61746: L2-Pf-HR :-nan: L2-HR :0.78931: (Sim:0h21m11s) 
CPU  0 inst:  143000003 cyc:   88126885 now IPC :1.70575: AVG IPC :1.61805: L2-Pf-HR :-nan: L2-HR :0.78934: (Sim:0h21m19s) 
CPU  0 inst:  144000000 cyc:   88718049 now IPC :1.69157: AVG IPC :1.61855: L2-Pf-HR :-nan: L2-HR :0.78948: (Sim:0h21m26s) 
CPU  0 inst:  145000000 cyc:   89306245 now IPC :1.70011: AVG IPC :1.61909: L2-Pf-HR :-nan: L2-HR :0.78962: (Sim:0h21m34s) 
CPU  0 inst:  146000002 cyc:   89892369 now IPC :1.70613: AVG IPC :1.61967: L2-Pf-HR :-nan: L2-HR :0.78963: (Sim:0h21m41s) 
CPU  0 inst:  147000004 cyc:   90478831 now IPC :1.70514: AVG IPC :1.62023: L2-Pf-HR :-nan: L2-HR :0.78968: (Sim:0h21m49s) 
CPU  0 inst:  148000002 cyc:   91058207 now IPC :1.72599: AVG IPC :1.62091: L2-Pf-HR :-nan: L2-HR :0.78972: (Sim:0h21m56s) 
CPU  0 inst:  149000001 cyc:   91642055 now IPC :1.71277: AVG IPC :1.62150: L2-Pf-HR :-nan: L2-HR :0.78974: (Sim:0h22m3s) 
CPU  0 inst:  150000005 cyc:   92238359 now IPC :1.67700: AVG IPC :1.62186: L2-Pf-HR :-nan: L2-HR :0.78986: (Sim:0h22m11s) 
CPU  0 inst:  151000000 cyc:   92915565 now IPC :1.47665: AVG IPC :1.62079: L2-Pf-HR :-nan: L2-HR :0.78972: (Sim:0h22m18s) 
CPU  0 inst:  152000005 cyc:   93494635 now IPC :1.72692: AVG IPC :1.62146: L2-Pf-HR :-nan: L2-HR :0.78993: (Sim:0h22m26s) 
CPU  0 inst:  153000003 cyc:   94071759 now IPC :1.73273: AVG IPC :1.62215: L2-Pf-HR :-nan: L2-HR :0.79013: (Sim:0h22m33s) 
CPU  0 inst:  154000005 cyc:   94649733 now IPC :1.73019: AVG IPC :1.62281: L2-Pf-HR :-nan: L2-HR :0.79038: (Sim:0h22m40s) 
CPU  0 inst:  155000000 cyc:   95228018 now IPC :1.72924: AVG IPC :1.62347: L2-Pf-HR :-nan: L2-HR :0.79061: (Sim:0h22m48s) 
CPU  0 inst:  156000004 cyc:   95806623 now IPC :1.72830: AVG IPC :1.62411: L2-Pf-HR :-nan: L2-HR :0.79085: (Sim:0h22m55s) 
CPU  0 inst:  157000000 cyc:   96383518 now IPC :1.73341: AVG IPC :1.62477: L2-Pf-HR :-nan: L2-HR :0.79107: (Sim:0h23m2s) 
CPU  0 inst:  158000000 cyc:   97097772 now IPC :1.40006: AVG IPC :1.62310: L2-Pf-HR :-nan: L2-HR :0.79051: (Sim:0h23m10s) 
CPU  0 inst:  159000001 cyc:   97758295 now IPC :1.51395: AVG IPC :1.62235: L2-Pf-HR :-nan: L2-HR :0.79043: (Sim:0h23m18s) 
CPU  0 inst:  160000003 cyc:   98394852 now IPC :1.57095: AVG IPC :1.62202: L2-Pf-HR :-nan: L2-HR :0.79033: (Sim:0h23m25s) 
CPU  0 inst:  161000004 cyc:   99020276 now IPC :1.59892: AVG IPC :1.62187: L2-Pf-HR :-nan: L2-HR :0.79024: (Sim:0h23m33s) 
CPU  0 inst:  162000004 cyc:   99650536 now IPC :1.58665: AVG IPC :1.62164: L2-Pf-HR :-nan: L2-HR :0.79015: (Sim:0h23m40s) 
CPU  0 inst:  163000000 cyc:  100290739 now IPC :1.56200: AVG IPC :1.62126: L2-Pf-HR :-nan: L2-HR :0.79007: (Sim:0h23m48s) 
CPU  0 inst:  164000002 cyc:  100916710 now IPC :1.59752: AVG IPC :1.62111: L2-Pf-HR :-nan: L2-HR :0.79009: (Sim:0h23m56s) 
CPU  0 inst:  165000001 cyc:  101547358 now IPC :1.58567: AVG IPC :1.62089: L2-Pf-HR :-nan: L2-HR :0.79006: (Sim:0h24m3s) 
CPU  0 inst:  166000003 cyc:  102172657 now IPC :1.59924: AVG IPC :1.62075: L2-Pf-HR :-nan: L2-HR :0.78997: (Sim:0h24m11s) 
CPU  0 inst:  167000002 cyc:  102805322 now IPC :1.58061: AVG IPC :1.62051: L2-Pf-HR :-nan: L2-HR :0.78990: (Sim:0h24m18s) 
CPU  0 inst:  168000001 cyc:  103440894 now IPC :1.57338: AVG IPC :1.62021: L2-Pf-HR :-nan: L2-HR :0.78980: (Sim:0h24m26s) 
CPU  0 inst:  169000000 cyc:  104072062 now IPC :1.58436: AVG IPC :1.61999: L2-Pf-HR :-nan: L2-HR :0.78975: (Sim:0h24m33s) 
CPU  0 inst:  170000005 cyc:  104810237 now IPC :1.35470: AVG IPC :1.61811: L2-Pf-HR :-nan: L2-HR :0.78940: (Sim:0h24m41s) 
CPU  0 inst:  171000001 cyc:  105442991 now IPC :1.58039: AVG IPC :1.61788: L2-Pf-HR :-nan: L2-HR :0.78941: (Sim:0h24m49s) 
CPU  0 inst:  172000001 cyc:  106049621 now IPC :1.64845: AVG IPC :1.61806: L2-Pf-HR :-nan: L2-HR :0.78946: (Sim:0h24m57s) 
CPU  0 inst:  173000002 cyc:  106643858 now IPC :1.68283: AVG IPC :1.61842: L2-Pf-HR :-nan: L2-HR :0.78950: (Sim:0h25m4s) 
CPU  0 inst:  174000000 cyc:  107231271 now IPC :1.70238: AVG IPC :1.61888: L2-Pf-HR :-nan: L2-HR :0.78951: (Sim:0h25m12s) 
CPU  0 inst:  175000005 cyc:  107829012 now IPC :1.67297: AVG IPC :1.61919: L2-Pf-HR :-nan: L2-HR :0.78961: (Sim:0h25m19s) 
CPU  0 inst:  176000002 cyc:  108425212 now IPC :1.67728: AVG IPC :1.61951: L2-Pf-HR :-nan: L2-HR :0.78971: (Sim:0h25m27s) 
CPU  0 inst:  177000000 cyc:  109017204 now IPC :1.68921: AVG IPC :1.61989: L2-Pf-HR :-nan: L2-HR :0.78977: (Sim:0h25m34s) 
CPU  0 inst:  178000002 cyc:  109608882 now IPC :1.69011: AVG IPC :1.62027: L2-Pf-HR :-nan: L2-HR :0.78982: (Sim:0h25m41s) 
CPU  0 inst:  179000002 cyc:  110194294 now IPC :1.70820: AVG IPC :1.62074: L2-Pf-HR :-nan: L2-HR :0.78985: (Sim:0h25m48s) 
CPU  0 inst:  180000000 cyc:  110777710 now IPC :1.71404: AVG IPC :1.62124: L2-Pf-HR :-nan: L2-HR :0.78987: (Sim:0h25m56s) 
CPU  0 inst:  181000003 cyc:  111362932 now IPC :1.70876: AVG IPC :1.62170: L2-Pf-HR :-nan: L2-HR :0.78991: (Sim:0h26m3s) 
CPU  0 inst:  182000002 cyc:  112054959 now IPC :1.44503: AVG IPC :1.62060: L2-Pf-HR :-nan: L2-HR :0.78979: (Sim:0h26m11s) 
CPU  0 inst:  183000001 cyc:  112639851 now IPC :1.70972: AVG IPC :1.62107: L2-Pf-HR :-nan: L2-HR :0.78995: (Sim:0h26m18s) 
CPU  0 inst:  184000002 cyc:  113224991 now IPC :1.70899: AVG IPC :1.62153: L2-Pf-HR :-nan: L2-HR :0.79011: (Sim:0h26m25s) 
CPU  0 inst:  185000001 cyc:  113810718 now IPC :1.70728: AVG IPC :1.62197: L2-Pf-HR :-nan: L2-HR :0.79033: (Sim:0h26m33s) 
CPU  0 inst:  186000005 cyc:  114395647 now IPC :1.70962: AVG IPC :1.62243: L2-Pf-HR :-nan: L2-HR :0.79056: (Sim:0h26m40s) 
CPU  0 inst:  187000001 cyc:  114982116 now IPC :1.70511: AVG IPC :1.62285: L2-Pf-HR :-nan: L2-HR :0.79072: (Sim:0h26m47s) 
CPU  0 inst:  188000002 cyc:  115567166 now IPC :1.70926: AVG IPC :1.62329: L2-Pf-HR :-nan: L2-HR :0.79091: (Sim:0h26m55s) 
CPU  0 inst:  189000004 cyc:  116152593 now IPC :1.70816: AVG IPC :1.62372: L2-Pf-HR :-nan: L2-HR :0.79111: (Sim:0h27m2s) 
CPU  0 inst:  190000003 cyc:  116920854 now IPC :1.30164: AVG IPC :1.62159: L2-Pf-HR :-nan: L2-HR :0.79054: (Sim:0h27m10s) 
CPU  0 inst:  191000005 cyc:  117562250 now IPC :1.55910: AVG IPC :1.62125: L2-Pf-HR :-nan: L2-HR :0.79045: (Sim:0h27m18s) 
CPU  0 inst:  192000001 cyc:  118190849 now IPC :1.59083: AVG IPC :1.62108: L2-Pf-HR :-nan: L2-HR :0.79037: (Sim:0h27m25s) 
CPU  0 inst:  193000003 cyc:  118820059 now IPC :1.58930: AVG IPC :1.62091: L2-Pf-HR :-nan: L2-HR :0.79029: (Sim:0h27m33s) 
CPU  0 inst:  194000000 cyc:  119452130 now IPC :1.58210: AVG IPC :1.62071: L2-Pf-HR :-nan: L2-HR :0.79019: (Sim:0h27m40s) 
CPU  0 inst:  195000004 cyc:  120084879 now IPC :1.58041: AVG IPC :1.62049: L2-Pf-HR :-nan: L2-HR :0.79020: (Sim:0h27m49s) 
CPU  0 inst:  196000000 cyc:  120724232 now IPC :1.56407: AVG IPC :1.62019: L2-Pf-HR :-nan: L2-HR :0.79019: (Sim:0h28m5s) 
CPU  0 inst:  197000001 cyc:  121352630 now IPC :1.59135: AVG IPC :1.62004: L2-Pf-HR :-nan: L2-HR :0.79014: (Sim:0h28m22s) 
CPU  0 inst:  198000001 cyc:  121992250 now IPC :1.56343: AVG IPC :1.61974: L2-Pf-HR :-nan: L2-HR :0.79007: (Sim:0h28m38s) 
CPU  0 inst:  199000003 cyc:  122622038 now IPC :1.58784: AVG IPC :1.61958: L2-Pf-HR :-nan: L2-HR :0.78997: (Sim:0h28m55s) 
CPU  0 inst:  200000002 cyc:  123250227 now IPC :1.59188: AVG IPC :1.61943: L2-Pf-HR :-nan: L2-HR :0.78993: (Sim:0h29m11s) 
CPU  0 inst:  201000003 cyc:  123883915 now IPC :1.57807: AVG IPC :1.61922: L2-Pf-HR :-nan: L2-HR :0.78986: (Sim:0h29m28s) 
CPU  0 inst:  202000003 cyc:  124642618 now IPC :1.31804: AVG IPC :1.61737: L2-Pf-HR :-nan: L2-HR :0.78959: (Sim:0h29m45s) 
CPU  0 inst:  203000000 cyc:  125253454 now IPC :1.63710: AVG IPC :1.61747: L2-Pf-HR :-nan: L2-HR :0.78962: (Sim:0h30m1s) 
CPU  0 inst:  204000004 cyc:  125857020 now IPC :1.65683: AVG IPC :1.61766: L2-Pf-HR :-nan: L2-HR :0.78965: (Sim:0h30m17s) 
CPU  0 inst:  205000000 cyc:  126447426 now IPC :1.69374: AVG IPC :1.61802: L2-Pf-HR :-nan: L2-HR :0.78966: (Sim:0h30m34s) 
CPU  0 inst:  206000000 cyc:  127038048 now IPC :1.69313: AVG IPC :1.61837: L2-Pf-HR :-nan: L2-HR :0.78970: (Sim:0h30m50s) 
CPU  0 inst:  207000000 cyc:  127639039 now IPC :1.66392: AVG IPC :1.61859: L2-Pf-HR :-nan: L2-HR :0.78979: (Sim:0h31m6s) 
CPU  0 inst:  208000004 cyc:  128234512 now IPC :1.67934: AVG IPC :1.61887: L2-Pf-HR :-nan: L2-HR :0.78988: (Sim:0h31m22s) 
CPU  0 inst:  209000005 cyc:  128828940 now IPC :1.68229: AVG IPC :1.61916: L2-Pf-HR :-nan: L2-HR :0.78991: (Sim:0h31m39s) 
CPU  0 inst:  210000005 cyc:  129422031 now IPC :1.68608: AVG IPC :1.61947: L2-Pf-HR :-nan: L2-HR :0.78994: (Sim:0h31m55s) 
CPU  0 inst:  211000001 cyc:  130007890 now IPC :1.70689: AVG IPC :1.61987: L2-Pf-HR :-nan: L2-HR :0.78996: (Sim:0h32m11s) 
CPU  0 inst:  212000004 cyc:  130599000 now IPC :1.69174: AVG IPC :1.62020: L2-Pf-HR :-nan: L2-HR :0.79000: (Sim:0h32m27s) 
CPU  0 inst:  213000002 cyc:  131189501 now IPC :1.69347: AVG IPC :1.62053: L2-Pf-HR :-nan: L2-HR :0.79002: (Sim:0h32m43s) 
CPU  0 inst:  214000000 cyc:  131886328 now IPC :1.43507: AVG IPC :1.61954: L2-Pf-HR :-nan: L2-HR :0.78996: (Sim:0h33m0s) 
CPU  0 inst:  215000004 cyc:  132479523 now IPC :1.68579: AVG IPC :1.61984: L2-Pf-HR :-nan: L2-HR :0.79009: (Sim:0h33m16s) 
CPU  0 inst:  216000005 cyc:  133066477 now IPC :1.70371: AVG IPC :1.62021: L2-Pf-HR :-nan: L2-HR :0.79020: (Sim:0h33m32s) 
CPU  0 inst:  217000004 cyc:  133658375 now IPC :1.68948: AVG IPC :1.62052: L2-Pf-HR :-nan: L2-HR :0.79037: (Sim:0h33m48s) 
CPU  0 inst:  218000003 cyc:  134249320 now IPC :1.69220: AVG IPC :1.62084: L2-Pf-HR :-nan: L2-HR :0.79054: (Sim:0h34m4s) 
CPU  0 inst:  219000001 cyc:  134838736 now IPC :1.69659: AVG IPC :1.62118: L2-Pf-HR :-nan: L2-HR :0.79067: (Sim:0h34m20s) 
CPU  0 inst:  220000003 cyc:  135426610 now IPC :1.70105: AVG IPC :1.62152: L2-Pf-HR :-nan: L2-HR :0.79081: (Sim:0h34m37s) 
CPU  0 inst:  221000002 cyc:  136026471 now IPC :1.66705: AVG IPC :1.62173: L2-Pf-HR :-nan: L2-HR :0.79098: (Sim:0h34m53s) 
CPU  0 inst:  222000004 cyc:  136818617 now IPC :1.26240: AVG IPC :1.61963: L2-Pf-HR :-nan: L2-HR :0.79036: (Sim:0h35m11s) 
CPU  0 inst:  223000003 cyc:  137440440 now IPC :1.60817: AVG IPC :1.61958: L2-Pf-HR :-nan: L2-HR :0.79030: (Sim:0h35m27s) 
CPU  0 inst:  224000005 cyc:  138077268 now IPC :1.57029: AVG IPC :1.61935: L2-Pf-HR :-nan: L2-HR :0.79023: (Sim:0h35m44s) 
CPU  0 inst:  225000001 cyc:  138709814 now IPC :1.58091: AVG IPC :1.61917: L2-Pf-HR :-nan: L2-HR :0.79013: (Sim:0h36m0s) 
CPU  0 inst:  226000000 cyc:  139337623 now IPC :1.59284: AVG IPC :1.61905: L2-Pf-HR :-nan: L2-HR :0.79012: (Sim:0h36m17s) 
CPU  0 inst:  227000004 cyc:  139969904 now IPC :1.58158: AVG IPC :1.61888: L2-Pf-HR :-nan: L2-HR :0.79010: (Sim:0h36m33s) 
CPU  0 inst:  228000001 cyc:  140596288 now IPC :1.59646: AVG IPC :1.61878: L2-Pf-HR :-nan: L2-HR :0.79010: (Sim:0h36m50s) 
CPU  0 inst:  229000002 cyc:  141237657 now IPC :1.55917: AVG IPC :1.61851: L2-Pf-HR :-nan: L2-HR :0.79003: (Sim:0h37m7s) 
CPU  0 inst:  230000005 cyc:  141872582 now IPC :1.57499: AVG IPC :1.61831: L2-Pf-HR :-nan: L2-HR :0.78995: (Sim:0h37m23s) 
CPU  0 inst:  231000001 cyc:  142495955 now IPC :1.60417: AVG IPC :1.61825: L2-Pf-HR :-nan: L2-HR :0.78992: (Sim:0h37m40s) 
CPU  0 inst:  232000000 cyc:  143133199 now IPC :1.56926: AVG IPC :1.61803: L2-Pf-HR :-nan: L2-HR :0.78986: (Sim:0h37m56s) 
CPU  0 inst:  233000004 cyc:  143799528 now IPC :1.50077: AVG IPC :1.61749: L2-Pf-HR :-nan: L2-HR :0.78978: (Sim:0h38m13s) 
CPU  0 inst:  234000004 cyc:  144494968 now IPC :1.43794: AVG IPC :1.61662: L2-Pf-HR :-nan: L2-HR :0.78961: (Sim:0h38m30s) 
CPU  0 inst:  235000001 cyc:  145089362 now IPC :1.68238: AVG IPC :1.61689: L2-Pf-HR :-nan: L2-HR :0.78963: (Sim:0h38m46s) 
CPU  0 inst:  236000000 cyc:  145676754 now IPC :1.70244: AVG IPC :1.61723: L2-Pf-HR :-nan: L2-HR :0.78965: (Sim:0h39m2s) 
CPU  0 inst:  237000000 cyc:  146258171 now IPC :1.71994: AVG IPC :1.61764: L2-Pf-HR :-nan: L2-HR :0.78968: (Sim:0h39m19s) 
CPU  0 inst:  238000002 cyc:  146846619 now IPC :1.69939: AVG IPC :1.61797: L2-Pf-HR :-nan: L2-HR :0.78972: (Sim:0h39m35s) 
CPU  0 inst:  239000005 cyc:  147438655 now IPC :1.68909: AVG IPC :1.61826: L2-Pf-HR :-nan: L2-HR :0.78980: (Sim:0h39m51s) 
CPU  0 inst:  240000004 cyc:  148025709 now IPC :1.70342: AVG IPC :1.61860: L2-Pf-HR :-nan: L2-HR :0.78987: (Sim:0h40m7s) 
CPU  0 inst:  241000005 cyc:  148612705 now IPC :1.70359: AVG IPC :1.61894: L2-Pf-HR :-nan: L2-HR :0.78988: (Sim:0h40m23s) 
CPU  0 inst:  242000004 cyc:  149193904 now IPC :1.72058: AVG IPC :1.61934: L2-Pf-HR :-nan: L2-HR :0.78990: (Sim:0h40m39s) 
CPU  0 inst:  243000001 cyc:  149770326 now IPC :1.73483: AVG IPC :1.61979: L2-Pf-HR :-nan: L2-HR :0.78993: (Sim:0h40m55s) 
CPU  0 inst:  244000004 cyc:  150351664 now IPC :1.72017: AVG IPC :1.62018: L2-Pf-HR :-nan: L2-HR :0.78995: (Sim:0h41m10s) 
CPU  0 inst:  245000005 cyc:  151047565 now IPC :1.43699: AVG IPC :1.61933: L2-Pf-HR :-nan: L2-HR :0.78983: (Sim:0h41m18s) 
CPU  0 inst:  246000003 cyc:  151634937 now IPC :1.70250: AVG IPC :1.61965: L2-Pf-HR :-nan: L2-HR :0.78997: (Sim:0h41m25s) 
CPU  0 inst:  247000002 cyc:  152222592 now IPC :1.70168: AVG IPC :1.61997: L2-Pf-HR :-nan: L2-HR :0.79011: (Sim:0h41m33s) 
CPU  0 inst:  248000000 cyc:  152809996 now IPC :1.70240: AVG IPC :1.62029: L2-Pf-HR :-nan: L2-HR :0.79024: (Sim:0h41m40s) 
CPU  0 inst:  249000002 cyc:  153397238 now IPC :1.70288: AVG IPC :1.62061: L2-Pf-HR :-nan: L2-HR :0.79041: (Sim:0h41m47s) 
CPU  0 inst:  250000000 cyc:  153984671 now IPC :1.70232: AVG IPC :1.62092: L2-Pf-HR :-nan: L2-HR :0.79055: (Sim:0h41m55s) 
CPU  0 inst:  251000005 cyc:  154573068 now IPC :1.69954: AVG IPC :1.62122: L2-Pf-HR :-nan: L2-HR :0.79070: (Sim:0h42m2s) 
CPU  0 inst:  252000003 cyc:  155160355 now IPC :1.70274: AVG IPC :1.62153: L2-Pf-HR :-nan: L2-HR :0.79082: (Sim:0h42m10s) 
CPU  0 inst:  253000000 cyc:  155938071 now IPC :1.28581: AVG IPC :1.61985: L2-Pf-HR :-nan: L2-HR :0.79041: (Sim:0h42m18s) 
CPU  0 inst:  254000005 cyc:  156566639 now IPC :1.59093: AVG IPC :1.61973: L2-Pf-HR :-nan: L2-HR :0.79036: (Sim:0h42m25s) 
CPU  0 inst:  255000000 cyc:  157197380 now IPC :1.58543: AVG IPC :1.61959: L2-Pf-HR :-nan: L2-HR :0.79030: (Sim:0h42m32s) 
CPU  0 inst:  256000002 cyc:  157820224 now IPC :1.60554: AVG IPC :1.61954: L2-Pf-HR :-nan: L2-HR :0.79024: (Sim:0h42m41s) 
CPU  0 inst:  257000002 cyc:  158455346 now IPC :1.57450: AVG IPC :1.61935: L2-Pf-HR :-nan: L2-HR :0.79018: (Sim:0h42m57s) 
CPU  0 inst:  258000004 cyc:  159097873 now IPC :1.55636: AVG IPC :1.61910: L2-Pf-HR :-nan: L2-HR :0.79016: (Sim:0h43m14s) 
CPU  0 inst:  259000000 cyc:  159726427 now IPC :1.59095: AVG IPC :1.61899: L2-Pf-HR :-nan: L2-HR :0.79016: (Sim:0h43m30s) 
CPU  0 inst:  260000002 cyc:  160366521 now IPC :1.56227: AVG IPC :1.61876: L2-Pf-HR :-nan: L2-HR :0.79012: (Sim:0h43m47s) 
CPU  0 inst:  261000003 cyc:  161002516 now IPC :1.57234: AVG IPC :1.61858: L2-Pf-HR :-nan: L2-HR :0.79004: (Sim:0h44m3s) 
CPU  0 inst:  262000003 cyc:  161632516 now IPC :1.58730: AVG IPC :1.61845: L2-Pf-HR :-nan: L2-HR :0.79001: (Sim:0h44m20s) 
CPU  0 inst:  263000005 cyc:  162269072 now IPC :1.57096: AVG IPC :1.61827: L2-Pf-HR :-nan: L2-HR :0.78996: (Sim:0h44m37s) 
CPU  0 inst:  264000000 cyc:  162888919 now IPC :1.61329: AVG IPC :1.61825: L2-Pf-HR :-nan: L2-HR :0.78992: (Sim:0h44m53s) 
CPU  0 inst:  265000004 cyc:  163653531 now IPC :1.30786: AVG IPC :1.61679: L2-Pf-HR :-nan: L2-HR :0.78971: (Sim:0h45m10s) 
CPU  0 inst:  266000004 cyc:  164265413 now IPC :1.63430: AVG IPC :1.61685: L2-Pf-HR :-nan: L2-HR :0.78972: (Sim:0h45m27s) 
CPU  0 inst:  267000005 cyc:  164862491 now IPC :1.67482: AVG IPC :1.61706: L2-Pf-HR :-nan: L2-HR :0.78974: (Sim:0h45m43s) 
CPU  0 inst:  268000005 cyc:  165453410 now IPC :1.69228: AVG IPC :1.61733: L2-Pf-HR :-nan: L2-HR :0.78976: (Sim:0h45m59s) 
CPU  0 inst:  269000003 cyc:  166047559 now IPC :1.68308: AVG IPC :1.61757: L2-Pf-HR :-nan: L2-HR :0.78978: (Sim:0h46m15s) 
CPU  0 inst:  270000005 cyc:  166647023 now IPC :1.66816: AVG IPC :1.61775: L2-Pf-HR :-nan: L2-HR :0.78984: (Sim:0h46m31s) 
CPU  0 inst:  271000005 cyc:  167242443 now IPC :1.67949: AVG IPC :1.61797: L2-Pf-HR :-nan: L2-HR :0.78992: (Sim:0h46m47s) 
CPU  0 inst:  272000002 cyc:  167839685 now IPC :1.67436: AVG IPC :1.61818: L2-Pf-HR :-nan: L2-HR :0.78994: (Sim:0h47m4s) 
CPU  0 inst:  273000005 cyc:  168435717 now IPC :1.67777: AVG IPC :1.61839: L2-Pf-HR :-nan: L2-HR :0.78996: (Sim:0h47m20s) 
CPU  0 inst:  274000004 cyc:  169024524 now IPC :1.69835: AVG IPC :1.61867: L2-Pf-HR :-nan: L2-HR :0.78998: (Sim:0h47m36s) 
CPU  0 inst:  275000000 cyc:  169616130 now IPC :1.69031: AVG IPC :1.61892: L2-Pf-HR :-nan: L2-HR :0.78999: (Sim:0h47m52s) 
CPU  0 inst:  276000000 cyc:  170207429 now IPC :1.69119: AVG IPC :1.61917: L2-Pf-HR :-nan: L2-HR :0.79002: (Sim:0h48m8s) 
CPU  0 inst:  277000001 cyc:  170896572 now IPC :1.45108: AVG IPC :1.61849: L2-Pf-HR :-nan: L2-HR :0.78997: (Sim:0h48m25s) 
CPU  0 inst:  278000003 cyc:  171475825 now IPC :1.72636: AVG IPC :1.61886: L2-Pf-HR :-nan: L2-HR :0.79006: (Sim:0h48m41s) 
CPU  0 inst:  279000005 cyc:  172055139 now IPC :1.72618: AVG IPC :1.61922: L2-Pf-HR :-nan: L2-HR :0.79018: (Sim:0h48m57s) 
CPU  0 inst:  280000000 cyc:  172636349 now IPC :1.72054: AVG IPC :1.61956: L2-Pf-HR :-nan: L2-HR :0.79033: (Sim:0h49m13s) 
CPU  0 inst:  281000005 cyc:  173217882 now IPC :1.71960: AVG IPC :1.61990: L2-Pf-HR :-nan: L2-HR :0.79047: (Sim:0h49m29s) 
CPU  0 inst:  282000000 cyc:  173798471 now IPC :1.72238: AVG IPC :1.62025: L2-Pf-HR :-nan: L2-HR :0.79058: (Sim:0h49m45s) 
CPU  0 inst:  283000002 cyc:  174376407 now IPC :1.73030: AVG IPC :1.62061: L2-Pf-HR :-nan: L2-HR :0.79072: (Sim:0h50m1s) 
CPU  0 inst:  284000003 cyc:  174957064 now IPC :1.72219: AVG IPC :1.62095: L2-Pf-HR :-nan: L2-HR :0.79085: (Sim:0h50m17s) 
CPU  0 inst:  285000004 cyc:  175740578 now IPC :1.27630: AVG IPC :1.61941: L2-Pf-HR :-nan: L2-HR :0.79041: (Sim:0h50m35s) 
CPU  0 inst:  286000000 cyc:  176379730 now IPC :1.56457: AVG IPC :1.61921: L2-Pf-HR :-nan: L2-HR :0.79036: (Sim:0h50m51s) 
CPU  0 inst:  287000001 cyc:  177009695 now IPC :1.58739: AVG IPC :1.61909: L2-Pf-HR :-nan: L2-HR :0.79030: (Sim:0h51m8s) 
CPU  0 inst:  288000001 cyc:  177642336 now IPC :1.58068: AVG IPC :1.61896: L2-Pf-HR :-nan: L2-HR :0.79026: (Sim:0h51m24s) 
CPU  0 inst:  289000003 cyc:  178275473 now IPC :1.57944: AVG IPC :1.61881: L2-Pf-HR :-nan: L2-HR :0.79021: (Sim:0h51m41s) 
CPU  0 inst:  290000002 cyc:  178903495 now IPC :1.59230: AVG IPC :1.61872: L2-Pf-HR :-nan: L2-HR :0.79021: (Sim:0h51m57s) 
CPU  0 inst:  291000003 cyc:  179542662 now IPC :1.56454: AVG IPC :1.61853: L2-Pf-HR :-nan: L2-HR :0.79021: (Sim:0h52m14s) 
CPU  0 inst:  292000005 cyc:  180166599 now IPC :1.60273: AVG IPC :1.61847: L2-Pf-HR :-nan: L2-HR :0.79016: (Sim:0h52m30s) 
CPU  0 inst:  293000005 cyc:  180807507 now IPC :1.56029: AVG IPC :1.61826: L2-Pf-HR :-nan: L2-HR :0.79011: (Sim:0h52m47s) 
CPU  0 inst:  294000001 cyc:  181441451 now IPC :1.57742: AVG IPC :1.61812: L2-Pf-HR :-nan: L2-HR :0.79006: (Sim:0h53m4s) 
CPU  0 inst:  295000000 cyc:  182062020 now IPC :1.61142: AVG IPC :1.61810: L2-Pf-HR :-nan: L2-HR :0.79003: (Sim:0h53m20s) 
CPU  0 inst:  296000003 cyc:  182701581 now IPC :1.56358: AVG IPC :1.61791: L2-Pf-HR :-nan: L2-HR :0.79001: (Sim:0h53m37s) 
CPU  0 inst:  297000002 cyc:  183444655 now IPC :1.34576: AVG IPC :1.61680: L2-Pf-HR :-nan: L2-HR :0.78981: (Sim:0h53m54s) 
CPU  0 inst:  298000003 cyc:  184043337 now IPC :1.67034: AVG IPC :1.61697: L2-Pf-HR :-nan: L2-HR :0.78984: (Sim:0h54m10s) 
CPU  0 inst:  299000003 cyc:  184637800 now IPC :1.68219: AVG IPC :1.61718: L2-Pf-HR :-nan: L2-HR :0.78986: (Sim:0h54m26s) 
CPU  0 inst:  300000000 cyc:  185226871 now IPC :1.69758: AVG IPC :1.61744: L2-Pf-HR :-nan: L2-HR :0.78986: (Sim:0h54m42s) 
CPU  0 inst:  301000005 cyc:  185817974 now IPC :1.69176: AVG IPC :1.61768: L2-Pf-HR :-nan: L2-HR :0.78990: (Sim:0h54m59s) 
CPU  0 inst:  302000000 cyc:  186410600 now IPC :1.68740: AVG IPC :1.61790: L2-Pf-HR :-nan: L2-HR :0.78996: (Sim:0h55m15s) 
CPU  0 inst:  303000004 cyc:  186999384 now IPC :1.69842: AVG IPC :1.61816: L2-Pf-HR :-nan: L2-HR :0.79000: (Sim:0h55m31s) 
CPU  0 inst:  304000004 cyc:  187586149 now IPC :1.70426: AVG IPC :1.61843: L2-Pf-HR :-nan: L2-HR :0.79003: (Sim:0h55m47s) 
CPU  0 inst:  305000003 cyc:  188168406 now IPC :1.71745: AVG IPC :1.61874: L2-Pf-HR :-nan: L2-HR :0.79005: (Sim:0h56m3s) 
CPU  0 inst:  306000000 cyc:  188744041 now IPC :1.73721: AVG IPC :1.61910: L2-Pf-HR :-nan: L2-HR :0.79005: (Sim:0h56m19s) 
CPU  0 inst:  307000003 cyc:  189326510 now IPC :1.71683: AVG IPC :1.61940: L2-Pf-HR :-nan: L2-HR :0.79008: (Sim:0h56m35s) 
CPU  0 inst:  308000001 cyc:  190011309 now IPC :1.46028: AVG IPC :1.61882: L2-Pf-HR :-nan: L2-HR :0.78998: (Sim:0h56m52s) 
CPU  0 inst:  309000002 cyc:  190619076 now IPC :1.64537: AVG IPC :1.61891: L2-Pf-HR :-nan: L2-HR :0.79007: (Sim:0h57m8s) 
CPU  0 inst:  310000003 cyc:  191206238 now IPC :1.70311: AVG IPC :1.61917: L2-Pf-HR :-nan: L2-HR :0.79015: (Sim:0h57m24s) 
CPU  0 inst:  311000002 cyc:  191790710 now IPC :1.71094: AVG IPC :1.61945: L2-Pf-HR :-nan: L2-HR :0.79024: (Sim:0h57m40s) 
CPU  0 inst:  312000000 cyc:  192376962 now IPC :1.70575: AVG IPC :1.61971: L2-Pf-HR :-nan: L2-HR :0.79038: (Sim:0h57m56s) 
CPU  0 inst:  313000002 cyc:  192964378 now IPC :1.70237: AVG IPC :1.61997: L2-Pf-HR :-nan: L2-HR :0.79048: (Sim:0h58m12s) 
CPU  0 inst:  314000003 cyc:  193551496 now IPC :1.70324: AVG IPC :1.62022: L2-Pf-HR :-nan: L2-HR :0.79057: (Sim:0h58m29s) 
CPU  0 inst:  315000002 cyc:  194136716 now IPC :1.70876: AVG IPC :1.62049: L2-Pf-HR :-nan: L2-HR :0.79066: (Sim:0h58m45s) 
CPU  0 inst:  316000000 cyc:  194888167 now IPC :1.33076: AVG IPC :1.61937: L2-Pf-HR :-nan: L2-HR :0.79035: (Sim:0h59m2s) 
CPU  0 inst:  317000002 cyc:  195532229 now IPC :1.55265: AVG IPC :1.61915: L2-Pf-HR :-nan: L2-HR :0.79031: (Sim:0h59m18s) 
CPU  0 inst:  318000001 cyc:  196157164 now IPC :1.60016: AVG IPC :1.61909: L2-Pf-HR :-nan: L2-HR :0.79026: (Sim:0h59m35s) 
CPU  0 inst:  319000002 cyc:  196790106 now IPC :1.57993: AVG IPC :1.61896: L2-Pf-HR :-nan: L2-HR :0.79021: (Sim:0h59m52s) 
CPU  0 inst:  320000005 cyc:  197421692 now IPC :1.58332: AVG IPC :1.61884: L2-Pf-HR :-nan: L2-HR :0.79016: (Sim:1h0m8s) 
CPU  0 inst:  321000001 cyc:  198048585 now IPC :1.59516: AVG IPC :1.61877: L2-Pf-HR :-nan: L2-HR :0.79015: (Sim:1h0m25s) 
CPU  0 inst:  322000000 cyc:  198685110 now IPC :1.57103: AVG IPC :1.61862: L2-Pf-HR :-nan: L2-HR :0.79014: (Sim:1h0m33s) 
CPU  0 inst:  323000002 cyc:  199306640 now IPC :1.60894: AVG IPC :1.61858: L2-Pf-HR :-nan: L2-HR :0.79012: (Sim:1h0m41s) 
CPU  0 inst:  324000000 cyc:  199945291 now IPC :1.56580: AVG IPC :1.61842: L2-Pf-HR :-nan: L2-HR :0.79008: (Sim:1h0m48s) 
CPU  0 inst:  325000003 cyc:  200578176 now IPC :1.58007: AVG IPC :1.61829: L2-Pf-HR :-nan: L2-HR :0.79003: (Sim:1h0m56s) 
CPU  0 inst:  326000005 cyc:  201196311 now IPC :1.61777: AVG IPC :1.61829: L2-Pf-HR :-nan: L2-HR :0.78999: (Sim:1h1m4s) 
CPU  0 inst:  327000001 cyc:  201831726 now IPC :1.57377: AVG IPC :1.61815: L2-Pf-HR :-nan: L2-HR :0.78995: (Sim:1h1m12s) 
CPU  0 inst:  328000002 cyc:  202591997 now IPC :1.31532: AVG IPC :1.61701: L2-Pf-HR :-nan: L2-HR :0.78976: (Sim:1h1m20s) 
CPU  0 inst:  329000003 cyc:  203197332 now IPC :1.65198: AVG IPC :1.61711: L2-Pf-HR :-nan: L2-HR :0.78979: (Sim:1h1m27s) 
CPU  0 inst:  330000003 cyc:  203799728 now IPC :1.66004: AVG IPC :1.61724: L2-Pf-HR :-nan: L2-HR :0.78981: (Sim:1h1m35s) 
CPU  0 inst:  331000005 cyc:  204391487 now IPC :1.68988: AVG IPC :1.61745: L2-Pf-HR :-nan: L2-HR :0.78981: (Sim:1h1m42s) 
CPU  0 inst:  332000002 cyc:  204980909 now IPC :1.69657: AVG IPC :1.61768: L2-Pf-HR :-nan: L2-HR :0.78984: (Sim:1h1m49s) 
CPU  0 inst:  333000004 cyc:  205577983 now IPC :1.67484: AVG IPC :1.61785: L2-Pf-HR :-nan: L2-HR :0.78988: (Sim:1h1m57s) 
CPU  0 inst:  334000004 cyc:  206171234 now IPC :1.68563: AVG IPC :1.61804: L2-Pf-HR :-nan: L2-HR :0.78993: (Sim:1h2m4s) 
CPU  0 inst:  335000003 cyc:  206764650 now IPC :1.68516: AVG IPC :1.61824: L2-Pf-HR :-nan: L2-HR :0.78997: (Sim:1h2m11s) 
CPU  0 inst:  336000004 cyc:  207355711 now IPC :1.69187: AVG IPC :1.61845: L2-Pf-HR :-nan: L2-HR :0.78998: (Sim:1h2m19s) 
CPU  0 inst:  337000000 cyc:  207940611 now IPC :1.70969: AVG IPC :1.61871: L2-Pf-HR :-nan: L2-HR :0.78999: (Sim:1h2m26s) 
CPU  0 inst:  338000003 cyc:  208523080 now IPC :1.71683: AVG IPC :1.61898: L2-Pf-HR :-nan: L2-HR :0.79002: (Sim:1h2m33s) 
CPU  0 inst:  339000000 cyc:  209110150 now IPC :1.70337: AVG IPC :1.61922: L2-Pf-HR :-nan: L2-HR :0.79003: (Sim:1h2m40s) 
CPU  0 inst:  340000004 cyc:  209811316 now IPC :1.42620: AVG IPC :1.61857: L2-Pf-HR :-nan: L2-HR :0.78997: (Sim:1h2m48s) 
CPU  0 inst:  341000003 cyc:  210400507 now IPC :1.69724: AVG IPC :1.61879: L2-Pf-HR :-nan: L2-HR :0.79008: (Sim:1h2m55s) 
CPU  0 inst:  342000004 cyc:  210988729 now IPC :1.70004: AVG IPC :1.61902: L2-Pf-HR :-nan: L2-HR :0.79017: (Sim:1h3m2s) 
CPU  0 inst:  343000003 cyc:  211578235 now IPC :1.69633: AVG IPC :1.61924: L2-Pf-HR :-nan: L2-HR :0.79028: (Sim:1h3m9s) 
CPU  0 inst:  344000001 cyc:  212166242 now IPC :1.70066: AVG IPC :1.61946: L2-Pf-HR :-nan: L2-HR :0.79040: (Sim:1h3m16s) 
CPU  0 inst:  345000000 cyc:  212753715 now IPC :1.70220: AVG IPC :1.61969: L2-Pf-HR :-nan: L2-HR :0.79051: (Sim:1h3m24s) 
CPU  0 inst:  346000004 cyc:  213340419 now IPC :1.70444: AVG IPC :1.61993: L2-Pf-HR :-nan: L2-HR :0.79061: (Sim:1h3m31s) 
CPU  0 inst:  347000000 cyc:  213929334 now IPC :1.69803: AVG IPC :1.62014: L2-Pf-HR :-nan: L2-HR :0.79070: (Sim:1h3m38s) 
CPU  0 inst:  348000004 cyc:  214719992 now IPC :1.26477: AVG IPC :1.61883: L2-Pf-HR :-nan: L2-HR :0.79037: (Sim:1h3m46s) 
CPU  0 inst:  349000000 cyc:  215351114 now IPC :1.58447: AVG IPC :1.61873: L2-Pf-HR :-nan: L2-HR :0.79032: (Sim:1h3m53s) 
CPU  0 inst:  350000005 cyc:  215993372 now IPC :1.55701: AVG IPC :1.61854: L2-Pf-HR :-nan: L2-HR :0.79028: (Sim:1h4m0s) 
CPU  0 inst:  351000003 cyc:  216626406 now IPC :1.57969: AVG IPC :1.61843: L2-Pf-HR :-nan: L2-HR :0.79023: (Sim:1h4m8s) 
CPU  0 inst:  352000000 cyc:  217250998 now IPC :1.60104: AVG IPC :1.61838: L2-Pf-HR :-nan: L2-HR :0.79020: (Sim:1h4m15s) 
CPU  0 inst:  353000005 cyc:  217897013 now IPC :1.54796: AVG IPC :1.61817: L2-Pf-HR :-nan: L2-HR :0.79020: (Sim:1h4m22s) 
CPU  0 inst:  354000004 cyc:  218524832 now IPC :1.59281: AVG IPC :1.61810: L2-Pf-HR :-nan: L2-HR :0.79019: (Sim:1h4m30s) 
CPU  0 inst:  355000000 cyc:  219164055 now IPC :1.56439: AVG IPC :1.61794: L2-Pf-HR :-nan: L2-HR :0.79016: (Sim:1h4m37s) 
CPU  0 inst:  356000001 cyc:  219804094 now IPC :1.56241: AVG IPC :1.61778: L2-Pf-HR :-nan: L2-HR :0.79011: (Sim:1h4m45s) 
CPU  0 inst:  357000001 cyc:  220426594 now IPC :1.60643: AVG IPC :1.61774: L2-Pf-HR :-nan: L2-HR :0.79008: (Sim:1h4m52s) 
CPU  0 inst:  358000000 cyc:  221069808 now IPC :1.55469: AVG IPC :1.61756: L2-Pf-HR :-nan: L2-HR :0.79004: (Sim:1h4m59s) 
CPU  0 inst:  359000004 cyc:  221690611 now IPC :1.61082: AVG IPC :1.61754: L2-Pf-HR :-nan: L2-HR :0.79000: (Sim:1h5m7s) 
CPU  0 inst:  360000005 cyc:  222451157 now IPC :1.31485: AVG IPC :1.61650: L2-Pf-HR :-nan: L2-HR :0.78987: (Sim:1h5m14s) 
CPU  0 inst:  361000003 cyc:  223062940 now IPC :1.63456: AVG IPC :1.61655: L2-Pf-HR :-nan: L2-HR :0.78988: (Sim:1h5m22s) 
CPU  0 inst:  362000002 cyc:  223666545 now IPC :1.65671: AVG IPC :1.61666: L2-Pf-HR :-nan: L2-HR :0.78989: (Sim:1h5m29s) 
CPU  0 inst:  363000002 cyc:  224255291 now IPC :1.69853: AVG IPC :1.61688: L2-Pf-HR :-nan: L2-HR :0.78991: (Sim:1h5m36s) 
CPU  0 inst:  364000002 cyc:  224850433 now IPC :1.68027: AVG IPC :1.61704: L2-Pf-HR :-nan: L2-HR :0.78993: (Sim:1h5m43s) 
CPU  0 inst:  365000000 cyc:  225452427 now IPC :1.66114: AVG IPC :1.61716: L2-Pf-HR :-nan: L2-HR :0.78997: (Sim:1h5m51s) 
CPU  0 inst:  366000001 cyc:  226047176 now IPC :1.68138: AVG IPC :1.61733: L2-Pf-HR :-nan: L2-HR :0.79003: (Sim:1h6m7s) 
CPU  0 inst:  367000001 cyc:  226644624 now IPC :1.67379: AVG IPC :1.61748: L2-Pf-HR :-nan: L2-HR :0.79004: (Sim:1h6m24s) 
CPU  0 inst:  368000005 cyc:  227236168 now IPC :1.69050: AVG IPC :1.61767: L2-Pf-HR :-nan: L2-HR :0.79005: (Sim:1h6m41s) 
CPU  0 inst:  369000003 cyc:  227824539 now IPC :1.69960: AVG IPC :1.61789: L2-Pf-HR :-nan: L2-HR :0.79008: (Sim:1h6m57s) 
CPU  0 inst:  370000003 cyc:  228415113 now IPC :1.69327: AVG IPC :1.61808: L2-Pf-HR :-nan: L2-HR :0.79009: (Sim:1h7m14s) 
CPU  0 inst:  371000002 cyc:  229032713 now IPC :1.61917: AVG IPC :1.61808: L2-Pf-HR :-nan: L2-HR :0.79010: (Sim:1h7m31s) 
CPU  0 inst:  372000002 cyc:  229699414 now IPC :1.49992: AVG IPC :1.61774: L2-Pf-HR :-nan: L2-HR :0.79008: (Sim:1h7m48s) 
CPU  0 inst:  373000000 cyc:  230285114 now IPC :1.70736: AVG IPC :1.61797: L2-Pf-HR :-nan: L2-HR :0.79016: (Sim:1h8m5s) 
CPU  0 inst:  374000002 cyc:  230871111 now IPC :1.70650: AVG IPC :1.61819: L2-Pf-HR :-nan: L2-HR :0.79025: (Sim:1h8m21s) 
CPU  0 inst:  375000000 cyc:  231460519 now IPC :1.69661: AVG IPC :1.61839: L2-Pf-HR :-nan: L2-HR :0.79036: (Sim:1h8m38s) 
CPU  0 inst:  376000005 cyc:  232050272 now IPC :1.69563: AVG IPC :1.61859: L2-Pf-HR :-nan: L2-HR :0.79045: (Sim:1h8m54s) 
CPU  0 inst:  377000003 cyc:  232637652 now IPC :1.70247: AVG IPC :1.61880: L2-Pf-HR :-nan: L2-HR :0.79054: (Sim:1h9m11s) 
CPU  0 inst:  378000002 cyc:  233223926 now IPC :1.70569: AVG IPC :1.61902: L2-Pf-HR :-nan: L2-HR :0.79063: (Sim:1h9m28s) 
CPU  0 inst:  379000002 cyc:  233953593 now IPC :1.37049: AVG IPC :1.61825: L2-Pf-HR :-nan: L2-HR :0.79039: (Sim:1h9m45s) 
CPU  0 inst:  380000002 cyc:  234604312 now IPC :1.53676: AVG IPC :1.61802: L2-Pf-HR :-nan: L2-HR :0.79035: (Sim:1h10m2s) 
CPU  0 inst:  381000004 cyc:  235242025 now IPC :1.56811: AVG IPC :1.61788: L2-Pf-HR :-nan: L2-HR :0.79031: (Sim:1h10m19s) 
CPU  0 inst:  382000000 cyc:  235880823 now IPC :1.56543: AVG IPC :1.61774: L2-Pf-HR :-nan: L2-HR :0.79026: (Sim:1h10m36s) 
CPU  0 inst:  383000005 cyc:  236502803 now IPC :1.60778: AVG IPC :1.61771: L2-Pf-HR :-nan: L2-HR :0.79023: (Sim:1h10m52s) 
CPU  0 inst:  384000001 cyc:  237139128 now IPC :1.57152: AVG IPC :1.61759: L2-Pf-HR :-nan: L2-HR :0.79021: (Sim:1h11m9s) 
CPU  0 inst:  385000003 cyc:  237763021 now IPC :1.60284: AVG IPC :1.61755: L2-Pf-HR :-nan: L2-HR :0.79021: (Sim:1h11m26s) 
CPU  0 inst:  386000002 cyc:  238400666 now IPC :1.56827: AVG IPC :1.61742: L2-Pf-HR :-nan: L2-HR :0.79019: (Sim:1h11m43s) 
CPU  0 inst:  387000004 cyc:  239037554 now IPC :1.57014: AVG IPC :1.61729: L2-Pf-HR :-nan: L2-HR :0.79015: (Sim:1h12m0s) 
CPU  0 inst:  388000004 cyc:  239658493 now IPC :1.61046: AVG IPC :1.61727: L2-Pf-HR :-nan: L2-HR :0.79012: (Sim:1h12m16s) 
CPU  0 inst:  389000002 cyc:  240286871 now IPC :1.59140: AVG IPC :1.61721: L2-Pf-HR :-nan: L2-HR :0.79008: (Sim:1h12m33s) 
CPU  0 inst:  390000001 cyc:  240906903 now IPC :1.61282: AVG IPC :1.61719: L2-Pf-HR :-nan: L2-HR :0.79005: (Sim:1h12m50s) 
CPU  0 inst:  391000003 cyc:  241651009 now IPC :1.34390: AVG IPC :1.61635: L2-Pf-HR :-nan: L2-HR :0.78990: (Sim:1h13m7s) 
CPU  0 inst:  392000003 cyc:  242268503 now IPC :1.61945: AVG IPC :1.61636: L2-Pf-HR :-nan: L2-HR :0.78991: (Sim:1h13m24s) 
CPU  0 inst:  393000001 cyc:  242863770 now IPC :1.67992: AVG IPC :1.61651: L2-Pf-HR :-nan: L2-HR :0.78992: (Sim:1h13m40s) 
CPU  0 inst:  394000002 cyc:  243454964 now IPC :1.69149: AVG IPC :1.61670: L2-Pf-HR :-nan: L2-HR :0.78994: (Sim:1h13m56s) 
CPU  0 inst:  395000000 cyc:  244038234 now IPC :1.71447: AVG IPC :1.61693: L2-Pf-HR :-nan: L2-HR :0.78995: (Sim:1h14m13s) 
CPU  0 inst:  396000001 cyc:  244630913 now IPC :1.68726: AVG IPC :1.61710: L2-Pf-HR :-nan: L2-HR :0.78998: (Sim:1h14m29s) 
CPU  0 inst:  397000001 cyc:  245220502 now IPC :1.69610: AVG IPC :1.61729: L2-Pf-HR :-nan: L2-HR :0.79003: (Sim:1h14m45s) 
CPU  0 inst:  398000003 cyc:  245807190 now IPC :1.70449: AVG IPC :1.61750: L2-Pf-HR :-nan: L2-HR :0.79006: (Sim:1h15m2s) 
CPU  0 inst:  399000004 cyc:  246394098 now IPC :1.70385: AVG IPC :1.61771: L2-Pf-HR :-nan: L2-HR :0.79007: (Sim:1h15m18s) 
CPU  0 inst:  400000003 cyc:  246979974 now IPC :1.70684: AVG IPC :1.61792: L2-Pf-HR :-nan: L2-HR :0.79009: (Sim:1h15m34s) 
CPU  0 inst:  401000003 cyc:  247560748 now IPC :1.72184: AVG IPC :1.61817: L2-Pf-HR :-nan: L2-HR :0.79010: (Sim:1h15m50s) 
CPU  0 inst:  402000003 cyc:  248145675 now IPC :1.70961: AVG IPC :1.61838: L2-Pf-HR :-nan: L2-HR :0.79011: (Sim:1h16m6s) 
CPU  0 inst:  403000001 cyc:  248838673 now IPC :1.44300: AVG IPC :1.61789: L2-Pf-HR :-nan: L2-HR :0.79007: (Sim:1h16m24s) 
CPU  0 inst:  404000002 cyc:  249416687 now IPC :1.73006: AVG IPC :1.61815: L2-Pf-HR :-nan: L2-HR :0.79014: (Sim:1h16m40s) 
CPU  0 inst:  405000004 cyc:  249994038 now IPC :1.73205: AVG IPC :1.61842: L2-Pf-HR :-nan: L2-HR :0.79021: (Sim:1h16m56s) 
CPU  0 inst:  406000004 cyc:  250570611 now IPC :1.73439: AVG IPC :1.61868: L2-Pf-HR :-nan: L2-HR :0.79029: (Sim:1h17m12s) 
CPU  0 inst:  407000004 cyc:  251147817 now IPC :1.73248: AVG IPC :1.61895: L2-Pf-HR :-nan: L2-HR :0.79041: (Sim:1h17m28s) 
CPU  0 inst:  408000002 cyc:  251726342 now IPC :1.72853: AVG IPC :1.61920: L2-Pf-HR :-nan: L2-HR :0.79048: (Sim:1h17m44s) 
CPU  0 inst:  409000004 cyc:  252304226 now IPC :1.73045: AVG IPC :1.61946: L2-Pf-HR :-nan: L2-HR :0.79056: (Sim:1h18m0s) 
CPU  0 inst:  410000005 cyc:  252881359 now IPC :1.73270: AVG IPC :1.61972: L2-Pf-HR :-nan: L2-HR :0.79065: (Sim:1h18m17s) 
CPU  0 inst:  411000004 cyc:  253652360 now IPC :1.29701: AVG IPC :1.61873: L2-Pf-HR :-nan: L2-HR :0.79038: (Sim:1h18m34s) 
CPU  0 inst:  412000000 cyc:  254294140 now IPC :1.55816: AVG IPC :1.61858: L2-Pf-HR :-nan: L2-HR :0.79035: (Sim:1h18m51s) 
CPU  0 inst:  413000001 cyc:  254931894 now IPC :1.56800: AVG IPC :1.61845: L2-Pf-HR :-nan: L2-HR :0.79030: (Sim:1h19m8s) 
CPU  0 inst:  414000001 cyc:  255557327 now IPC :1.59889: AVG IPC :1.61840: L2-Pf-HR :-nan: L2-HR :0.79027: (Sim:1h19m25s) 
CPU  0 inst:  415000003 cyc:  256196878 now IPC :1.56360: AVG IPC :1.61826: L2-Pf-HR :-nan: L2-HR :0.79024: (Sim:1h19m41s) 
CPU  0 inst:  416000005 cyc:  256824332 now IPC :1.59375: AVG IPC :1.61820: L2-Pf-HR :-nan: L2-HR :0.79023: (Sim:1h19m58s) 
CPU  0 inst:  417000001 cyc:  257472599 now IPC :1.54257: AVG IPC :1.61801: L2-Pf-HR :-nan: L2-HR :0.79023: (Sim:1h20m15s) 
CPU  0 inst:  418000003 cyc:  258114188 now IPC :1.55863: AVG IPC :1.61787: L2-Pf-HR :-nan: L2-HR :0.79019: (Sim:1h20m32s) 
CPU  0 inst:  419000004 cyc:  258746573 now IPC :1.58132: AVG IPC :1.61778: L2-Pf-HR :-nan: L2-HR :0.79017: (Sim:1h20m48s) 
CPU  0 inst:  420000004 cyc:  259383973 now IPC :1.56887: AVG IPC :1.61765: L2-Pf-HR :-nan: L2-HR :0.79013: (Sim:1h21m5s) 
CPU  0 inst:  421000005 cyc:  260009745 now IPC :1.59803: AVG IPC :1.61761: L2-Pf-HR :-nan: L2-HR :0.79010: (Sim:1h21m22s) 
CPU  0 inst:  422000005 cyc:  260648130 now IPC :1.56645: AVG IPC :1.61748: L2-Pf-HR :-nan: L2-HR :0.79007: (Sim:1h21m39s) 
CPU  0 inst:  423000003 cyc:  261415439 now IPC :1.30325: AVG IPC :1.61656: L2-Pf-HR :-nan: L2-HR :0.78994: (Sim:1h21m56s) 
CPU  0 inst:  424000005 cyc:  262016994 now IPC :1.66236: AVG IPC :1.61666: L2-Pf-HR :-nan: L2-HR :0.78995: (Sim:1h22m13s) 
CPU  0 inst:  425000005 cyc:  262619241 now IPC :1.66045: AVG IPC :1.61676: L2-Pf-HR :-nan: L2-HR :0.78997: (Sim:1h22m29s) 
CPU  0 inst:  426000004 cyc:  263213524 now IPC :1.68270: AVG IPC :1.61691: L2-Pf-HR :-nan: L2-HR :0.78997: (Sim:1h22m45s) 
CPU  0 inst:  427000004 cyc:  263809753 now IPC :1.67721: AVG IPC :1.61705: L2-Pf-HR :-nan: L2-HR :0.78999: (Sim:1h23m2s) 
CPU  0 inst:  428000001 cyc:  264406535 now IPC :1.67565: AVG IPC :1.61718: L2-Pf-HR :-nan: L2-HR :0.79004: (Sim:1h23m18s) 
CPU  0 inst:  429000001 cyc:  264999348 now IPC :1.68687: AVG IPC :1.61734: L2-Pf-HR :-nan: L2-HR :0.79008: (Sim:1h23m34s) 
CPU  0 inst:  430000005 cyc:  265593493 now IPC :1.68310: AVG IPC :1.61749: L2-Pf-HR :-nan: L2-HR :0.79009: (Sim:1h23m51s) 
CPU  0 inst:  431000000 cyc:  266184979 now IPC :1.69065: AVG IPC :1.61765: L2-Pf-HR :-nan: L2-HR :0.79010: (Sim:1h24m7s) 
CPU  0 inst:  432000000 cyc:  266773350 now IPC :1.69961: AVG IPC :1.61783: L2-Pf-HR :-nan: L2-HR :0.79011: (Sim:1h24m23s) 
CPU  0 inst:  433000002 cyc:  267361666 now IPC :1.69977: AVG IPC :1.61801: L2-Pf-HR :-nan: L2-HR :0.79012: (Sim:1h24m40s) 
CPU  0 inst:  434000003 cyc:  267958995 now IPC :1.67412: AVG IPC :1.61814: L2-Pf-HR :-nan: L2-HR :0.79015: (Sim:1h24m56s) 
CPU  0 inst:  435000002 cyc:  268632944 now IPC :1.48379: AVG IPC :1.61780: L2-Pf-HR :-nan: L2-HR :0.79011: (Sim:1h25m13s) 
CPU  0 inst:  436000003 cyc:  269208770 now IPC :1.73664: AVG IPC :1.61805: L2-Pf-HR :-nan: L2-HR :0.79019: (Sim:1h25m29s) 
CPU  0 inst:  437000004 cyc:  269784354 now IPC :1.73737: AVG IPC :1.61831: L2-Pf-HR :-nan: L2-HR :0.79024: (Sim:1h25m45s) 
CPU  0 inst:  438000000 cyc:  270363020 now IPC :1.72811: AVG IPC :1.61854: L2-Pf-HR :-nan: L2-HR :0.79033: (Sim:1h26m1s) 
CPU  0 inst:  439000003 cyc:  270939637 now IPC :1.73426: AVG IPC :1.61879: L2-Pf-HR :-nan: L2-HR :0.79042: (Sim:1h26m18s) 
CPU  0 inst:  440000005 cyc:  271514325 now IPC :1.74008: AVG IPC :1.61905: L2-Pf-HR :-nan: L2-HR :0.79050: (Sim:1h26m34s) 
CPU  0 inst:  441000004 cyc:  272090735 now IPC :1.73487: AVG IPC :1.61930: L2-Pf-HR :-nan: L2-HR :0.79058: (Sim:1h26m50s) 
CPU  0 inst:  442000000 cyc:  272736315 now IPC :1.54899: AVG IPC :1.61913: L2-Pf-HR :-nan: L2-HR :0.79060: (Sim:1h27m7s) 
CPU  0 inst:  443000005 cyc:  273471518 now IPC :1.36018: AVG IPC :1.61843: L2-Pf-HR :-nan: L2-HR :0.79036: (Sim:1h27m24s) 
CPU  0 inst:  444000001 cyc:  274113337 now IPC :1.55807: AVG IPC :1.61829: L2-Pf-HR :-nan: L2-HR :0.79031: (Sim:1h27m41s) 
CPU  0 inst:  445000000 cyc:  274740847 now IPC :1.59360: AVG IPC :1.61823: L2-Pf-HR :-nan: L2-HR :0.79029: (Sim:1h27m57s) 
CPU  0 inst:  446000005 cyc:  275370466 now IPC :1.58827: AVG IPC :1.61816: L2-Pf-HR :-nan: L2-HR :0.79026: (Sim:1h28m14s) 
CPU  0 inst:  447000002 cyc:  275994446 now IPC :1.60261: AVG IPC :1.61813: L2-Pf-HR :-nan: L2-HR :0.79024: (Sim:1h28m31s) 
CPU  0 inst:  448000003 cyc:  276638857 now IPC :1.55181: AVG IPC :1.61797: L2-Pf-HR :-nan: L2-HR :0.79023: (Sim:1h28m48s) 
CPU  0 inst:  449000005 cyc:  277277482 now IPC :1.56587: AVG IPC :1.61785: L2-Pf-HR :-nan: L2-HR :0.79021: (Sim:1h29m5s) 
CPU  0 inst:  450000000 cyc:  277908820 now IPC :1.58393: AVG IPC :1.61777: L2-Pf-HR :-nan: L2-HR :0.79019: (Sim:1h29m21s) 
CPU  0 inst:  451000005 cyc:  278547437 now IPC :1.56589: AVG IPC :1.61766: L2-Pf-HR :-nan: L2-HR :0.79016: (Sim:1h29m38s) 
CPU  0 inst:  452000005 cyc:  279169791 now IPC :1.60680: AVG IPC :1.61763: L2-Pf-HR :-nan: L2-HR :0.79013: (Sim:1h29m55s) 
CPU  0 inst:  453000002 cyc:  279805517 now IPC :1.57300: AVG IPC :1.61753: L2-Pf-HR :-nan: L2-HR :0.79011: (Sim:1h30m12s) 
CPU  0 inst:  454000005 cyc:  280542484 now IPC :1.35692: AVG IPC :1.61684: L2-Pf-HR :-nan: L2-HR :0.78997: (Sim:1h30m29s) 
CPU  0 inst:  455000002 cyc:  281190501 now IPC :1.54316: AVG IPC :1.61667: L2-Pf-HR :-nan: L2-HR :0.78998: (Sim:1h30m46s) 
CPU  0 inst:  456000005 cyc:  281798855 now IPC :1.64378: AVG IPC :1.61673: L2-Pf-HR :-nan: L2-HR :0.78999: (Sim:1h31m2s) 
CPU  0 inst:  457000005 cyc:  282401492 now IPC :1.65937: AVG IPC :1.61682: L2-Pf-HR :-nan: L2-HR :0.79000: (Sim:1h31m19s) 
CPU  0 inst:  458000000 cyc:  282993346 now IPC :1.68960: AVG IPC :1.61697: L2-Pf-HR :-nan: L2-HR :0.79001: (Sim:1h31m35s) 
CPU  0 inst:  459000001 cyc:  283594220 now IPC :1.66424: AVG IPC :1.61708: L2-Pf-HR :-nan: L2-HR :0.79004: (Sim:1h31m51s) 
CPU  0 inst:  460000000 cyc:  284197997 now IPC :1.65624: AVG IPC :1.61716: L2-Pf-HR :-nan: L2-HR :0.79007: (Sim:1h32m8s) 
CPU  0 inst:  461000003 cyc:  284790315 now IPC :1.68829: AVG IPC :1.61731: L2-Pf-HR :-nan: L2-HR :0.79010: (Sim:1h32m24s) 
CPU  0 inst:  462000000 cyc:  285383737 now IPC :1.68514: AVG IPC :1.61745: L2-Pf-HR :-nan: L2-HR :0.79012: (Sim:1h32m41s) 
CPU  0 inst:  463000004 cyc:  285972673 now IPC :1.69798: AVG IPC :1.61762: L2-Pf-HR :-nan: L2-HR :0.79012: (Sim:1h32m57s) 
CPU  0 inst:  464000002 cyc:  286558126 now IPC :1.70808: AVG IPC :1.61780: L2-Pf-HR :-nan: L2-HR :0.79014: (Sim:1h33m12s) 
CPU  0 inst:  465000002 cyc:  287149658 now IPC :1.69053: AVG IPC :1.61795: L2-Pf-HR :-nan: L2-HR :0.79015: (Sim:1h33m27s) 
CPU  0 inst:  466000003 cyc:  287846756 now IPC :1.43452: AVG IPC :1.61751: L2-Pf-HR :-nan: L2-HR :0.79009: (Sim:1h33m43s) 
CPU  0 inst:  467000001 cyc:  288434466 now IPC :1.70152: AVG IPC :1.61768: L2-Pf-HR :-nan: L2-HR :0.79016: (Sim:1h33m58s) 
CPU  0 inst:  468000003 cyc:  289020778 now IPC :1.70558: AVG IPC :1.61786: L2-Pf-HR :-nan: L2-HR :0.79023: (Sim:1h34m13s) 
CPU  0 inst:  469000001 cyc:  289607724 now IPC :1.70373: AVG IPC :1.61803: L2-Pf-HR :-nan: L2-HR :0.79031: (Sim:1h34m28s) 
CPU  0 inst:  470000000 cyc:  290197358 now IPC :1.69597: AVG IPC :1.61819: L2-Pf-HR :-nan: L2-HR :0.79039: (Sim:1h34m43s) 
CPU  0 inst:  471000004 cyc:  290786826 now IPC :1.69645: AVG IPC :1.61835: L2-Pf-HR :-nan: L2-HR :0.79046: (Sim:1h34m58s) 
CPU  0 inst:  472000000 cyc:  291373866 now IPC :1.70345: AVG IPC :1.61852: L2-Pf-HR :-nan: L2-HR :0.79054: (Sim:1h35m14s) 
CPU  0 inst:  473000004 cyc:  291960526 now IPC :1.70457: AVG IPC :1.61869: L2-Pf-HR :-nan: L2-HR :0.79062: (Sim:1h35m29s) 
CPU  0 inst:  474000000 cyc:  292729109 now IPC :1.30109: AVG IPC :1.61786: L2-Pf-HR :-nan: L2-HR :0.79040: (Sim:1h35m45s) 
CPU  0 inst:  475000003 cyc:  293366449 now IPC :1.56903: AVG IPC :1.61775: L2-Pf-HR :-nan: L2-HR :0.79035: (Sim:1h36m0s) 
CPU  0 inst:  476000002 cyc:  293993800 now IPC :1.59400: AVG IPC :1.61770: L2-Pf-HR :-nan: L2-HR :0.79033: (Sim:1h36m15s) 
CPU  0 inst:  477000004 cyc:  294631939 now IPC :1.56706: AVG IPC :1.61759: L2-Pf-HR :-nan: L2-HR :0.79030: (Sim:1h36m31s) 
CPU  0 inst:  478000004 cyc:  295252948 now IPC :1.61028: AVG IPC :1.61757: L2-Pf-HR :-nan: L2-HR :0.79027: (Sim:1h36m47s) 
CPU  0 inst:  479000005 cyc:  295898464 now IPC :1.54915: AVG IPC :1.61742: L2-Pf-HR :-nan: L2-HR :0.79026: (Sim:1h37m3s) 
CPU  0 inst:  480000001 cyc:  296537460 now IPC :1.56495: AVG IPC :1.61731: L2-Pf-HR :-nan: L2-HR :0.79025: (Sim:1h37m18s) 
CPU  0 inst:  481000000 cyc:  297162868 now IPC :1.59895: AVG IPC :1.61727: L2-Pf-HR :-nan: L2-HR :0.79024: (Sim:1h37m34s) 
CPU  0 inst:  482000002 cyc:  297803358 now IPC :1.56131: AVG IPC :1.61715: L2-Pf-HR :-nan: L2-HR :0.79021: (Sim:1h37m50s) 
CPU  0 inst:  483000004 cyc:  298428023 now IPC :1.60086: AVG IPC :1.61712: L2-Pf-HR :-nan: L2-HR :0.79018: (Sim:1h38m6s) 
CPU  0 inst:  484000003 cyc:  299067728 now IPC :1.56322: AVG IPC :1.61700: L2-Pf-HR :-nan: L2-HR :0.79015: (Sim:1h38m22s) 
CPU  0 inst:  485000002 cyc:  299710706 now IPC :1.55526: AVG IPC :1.61687: L2-Pf-HR :-nan: L2-HR :0.79011: (Sim:1h38m37s) 
CPU  0 inst:  486000001 cyc:  300467969 now IPC :1.32054: AVG IPC :1.61612: L2-Pf-HR :-nan: L2-HR :0.79001: (Sim:1h38m54s) 
CPU  0 inst:  487000005 cyc:  301074152 now IPC :1.64967: AVG IPC :1.61619: L2-Pf-HR :-nan: L2-HR :0.79002: (Sim:1h39m10s) 
CPU  0 inst:  488000001 cyc:  301675112 now IPC :1.66400: AVG IPC :1.61628: L2-Pf-HR :-nan: L2-HR :0.79002: (Sim:1h39m25s) 
CPU  0 inst:  489000002 cyc:  302268975 now IPC :1.68389: AVG IPC :1.61642: L2-Pf-HR :-nan: L2-HR :0.79004: (Sim:1h39m40s) 
CPU  0 inst:  490000001 cyc:  302864329 now IPC :1.67967: AVG IPC :1.61654: L2-Pf-HR :-nan: L2-HR :0.79006: (Sim:1h39m56s) 
CPU  0 inst:  491000005 cyc:  303470063 now IPC :1.65090: AVG IPC :1.61661: L2-Pf-HR :-nan: L2-HR :0.79008: (Sim:1h40m12s) 
CPU  0 inst:  492000003 cyc:  304068974 now IPC :1.66969: AVG IPC :1.61671: L2-Pf-HR :-nan: L2-HR :0.79013: (Sim:1h40m27s) 
CPU  0 inst:  493000000 cyc:  304666440 now IPC :1.67373: AVG IPC :1.61683: L2-Pf-HR :-nan: L2-HR :0.79014: (Sim:1h40m42s) 
CPU  0 inst:  494000002 cyc:  305259252 now IPC :1.68688: AVG IPC :1.61696: L2-Pf-HR :-nan: L2-HR :0.79015: (Sim:1h40m58s) 
CPU  0 inst:  495000004 cyc:  305849330 now IPC :1.69469: AVG IPC :1.61711: L2-Pf-HR :-nan: L2-HR :0.79016: (Sim:1h41m13s) 
CPU  0 inst:  496000000 cyc:  306439976 now IPC :1.69305: AVG IPC :1.61726: L2-Pf-HR :-nan: L2-HR :0.79018: (Sim:1h41m28s) 
CPU  0 inst:  497000004 cyc:  307031486 now IPC :1.69060: AVG IPC :1.61740: L2-Pf-HR :-nan: L2-HR :0.79018: (Sim:1h41m44s) 
CPU  0 inst:  498000000 cyc:  307729536 now IPC :1.43256: AVG IPC :1.61698: L2-Pf-HR :-nan: L2-HR :0.79017: (Sim:1h42m0s) 
CPU  0 inst:  499000002 cyc:  308311927 now IPC :1.71706: AVG IPC :1.61717: L2-Pf-HR :-nan: L2-HR :0.79022: (Sim:1h42m15s) 
CPU  0 inst:  500000003 cyc:  308888549 now IPC :1.73424: AVG IPC :1.61739: L2-Pf-HR :-nan: L2-HR :0.79027: (Sim:1h42m30s) 
CPU  0 inst:  501000005 cyc:  309468411 now IPC :1.72455: AVG IPC :1.61759: L2-Pf-HR :-nan: L2-HR :0.79036: (Sim:1h42m46s) 
CPU  0 inst:  502000003 cyc:  310043772 now IPC :1.73804: AVG IPC :1.61782: L2-Pf-HR :-nan: L2-HR :0.79044: (Sim:1h43m1s) 
CPU  0 inst:  503000002 cyc:  310620577 now IPC :1.73369: AVG IPC :1.61803: L2-Pf-HR :-nan: L2-HR :0.79050: (Sim:1h43m16s) 
CPU  0 inst:  504000002 cyc:  311197588 now IPC :1.73307: AVG IPC :1.61825: L2-Pf-HR :-nan: L2-HR :0.79056: (Sim:1h43m31s) 
CPU  0 inst:  505000000 cyc:  311780658 now IPC :1.71506: AVG IPC :1.61843: L2-Pf-HR :-nan: L2-HR :0.79065: (Sim:1h43m46s) 
CPU  0 inst:  506000000 cyc:  312560648 now IPC :1.28207: AVG IPC :1.61759: L2-Pf-HR :-nan: L2-HR :0.79038: (Sim:1h44m3s) 
CPU  0 inst:  507000004 cyc:  313190476 now IPC :1.58774: AVG IPC :1.61753: L2-Pf-HR :-nan: L2-HR :0.79036: (Sim:1h44m19s) 
CPU  0 inst:  508000001 cyc:  313826909 now IPC :1.57125: AVG IPC :1.61743: L2-Pf-HR :-nan: L2-HR :0.79033: (Sim:1h44m35s) 
CPU  0 inst:  509000004 cyc:  314445046 now IPC :1.61777: AVG IPC :1.61743: L2-Pf-HR :-nan: L2-HR :0.79030: (Sim:1h44m50s) 
CPU  0 inst:  510000004 cyc:  315080677 now IPC :1.57324: AVG IPC :1.61734: L2-Pf-HR :-nan: L2-HR :0.79028: (Sim:1h45m6s) 
CPU  0 inst:  511000001 cyc:  315718467 now IPC :1.56791: AVG IPC :1.61724: L2-Pf-HR :-nan: L2-HR :0.79026: (Sim:1h45m22s) 
CPU  0 inst:  512000005 cyc:  316347297 now IPC :1.59026: AVG IPC :1.61719: L2-Pf-HR :-nan: L2-HR :0.79027: (Sim:1h45m38s) 
CPU  0 inst:  513000001 cyc:  316988417 now IPC :1.55976: AVG IPC :1.61707: L2-Pf-HR :-nan: L2-HR :0.79024: (Sim:1h45m54s) 
CPU  0 inst:  514000002 cyc:  317613119 now IPC :1.60076: AVG IPC :1.61704: L2-Pf-HR :-nan: L2-HR :0.79021: (Sim:1h46m9s) 
CPU  0 inst:  515000002 cyc:  318242984 now IPC :1.58764: AVG IPC :1.61698: L2-Pf-HR :-nan: L2-HR :0.79019: (Sim:1h46m24s) 
CPU  0 inst:  516000004 cyc:  318886239 now IPC :1.55460: AVG IPC :1.61686: L2-Pf-HR :-nan: L2-HR :0.79015: (Sim:1h46m41s) 
CPU  0 inst:  517000001 cyc:  319517552 now IPC :1.58400: AVG IPC :1.61679: L2-Pf-HR :-nan: L2-HR :0.79016: (Sim:1h46m57s) 
CPU  0 inst:  518000005 cyc:  320262800 now IPC :1.34184: AVG IPC :1.61615: L2-Pf-HR :-nan: L2-HR :0.79005: (Sim:1h47m13s) 
CPU  0 inst:  519000004 cyc:  320869724 now IPC :1.64765: AVG IPC :1.61621: L2-Pf-HR :-nan: L2-HR :0.79005: (Sim:1h47m28s) 
CPU  0 inst:  520000004 cyc:  321468502 now IPC :1.67007: AVG IPC :1.61631: L2-Pf-HR :-nan: L2-HR :0.79007: (Sim:1h47m44s) 
CPU  0 inst:  521000004 cyc:  322060896 now IPC :1.68807: AVG IPC :1.61644: L2-Pf-HR :-nan: L2-HR :0.79008: (Sim:1h47m59s) 
CPU  0 inst:  522000000 cyc:  322660706 now IPC :1.66719: AVG IPC :1.61654: L2-Pf-HR :-nan: L2-HR :0.79009: (Sim:1h48m15s) 
CPU  0 inst:  523000005 cyc:  323263546 now IPC :1.65882: AVG IPC :1.61662: L2-Pf-HR :-nan: L2-HR :0.79013: (Sim:1h48m30s) 
CPU  0 inst:  524000000 cyc:  323859722 now IPC :1.67735: AVG IPC :1.61673: L2-Pf-HR :-nan: L2-HR :0.79016: (Sim:1h48m45s) 
CPU  0 inst:  525000005 cyc:  324454297 now IPC :1.68188: AVG IPC :1.61685: L2-Pf-HR :-nan: L2-HR :0.79017: (Sim:1h49m1s) 
CPU  0 inst:  526000005 cyc:  325044019 now IPC :1.69571: AVG IPC :1.61699: L2-Pf-HR :-nan: L2-HR :0.79018: (Sim:1h49m17s) 
CPU  0 inst:  527000005 cyc:  325630938 now IPC :1.70381: AVG IPC :1.61715: L2-Pf-HR :-nan: L2-HR :0.79019: (Sim:1h49m32s) 
CPU  0 inst:  528000001 cyc:  326221677 now IPC :1.69279: AVG IPC :1.61728: L2-Pf-HR :-nan: L2-HR :0.79020: (Sim:1h49m47s) 
CPU  0 inst:  529000002 cyc:  326907577 now IPC :1.45794: AVG IPC :1.61695: L2-Pf-HR :-nan: L2-HR :0.79014: (Sim:1h50m3s) 
CPU  0 inst:  530000004 cyc:  327497292 now IPC :1.69574: AVG IPC :1.61709: L2-Pf-HR :-nan: L2-HR :0.79021: (Sim:1h50m15s) 
CPU  0 inst:  531000002 cyc:  328082642 now IPC :1.70838: AVG IPC :1.61726: L2-Pf-HR :-nan: L2-HR :0.79026: (Sim:1h50m23s) 
CPU  0 inst:  532000004 cyc:  328670449 now IPC :1.70124: AVG IPC :1.61741: L2-Pf-HR :-nan: L2-HR :0.79032: (Sim:1h50m30s) 
CPU  0 inst:  533000005 cyc:  329259573 now IPC :1.69744: AVG IPC :1.61755: L2-Pf-HR :-nan: L2-HR :0.79039: (Sim:1h50m37s) 
CPU  0 inst:  534000004 cyc:  329848667 now IPC :1.69752: AVG IPC :1.61769: L2-Pf-HR :-nan: L2-HR :0.79046: (Sim:1h50m44s) 
CPU  0 inst:  535000005 cyc:  330433494 now IPC :1.70991: AVG IPC :1.61786: L2-Pf-HR :-nan: L2-HR :0.79052: (Sim:1h50m51s) 
CPU  0 inst:  536000000 cyc:  331020306 now IPC :1.70411: AVG IPC :1.61801: L2-Pf-HR :-nan: L2-HR :0.79057: (Sim:1h50m59s) 
CPU  0 inst:  537000003 cyc:  331779807 now IPC :1.31666: AVG IPC :1.61732: L2-Pf-HR :-nan: L2-HR :0.79039: (Sim:1h51m6s) 
CPU  0 inst:  538000003 cyc:  332419005 now IPC :1.56446: AVG IPC :1.61722: L2-Pf-HR :-nan: L2-HR :0.79036: (Sim:1h51m14s) 
CPU  0 inst:  539000005 cyc:  333060363 now IPC :1.55919: AVG IPC :1.61710: L2-Pf-HR :-nan: L2-HR :0.79033: (Sim:1h51m21s) 
CPU  0 inst:  540000004 cyc:  333686008 now IPC :1.59835: AVG IPC :1.61707: L2-Pf-HR :-nan: L2-HR :0.79031: (Sim:1h51m29s) 
CPU  0 inst:  541000005 cyc:  334319920 now IPC :1.57751: AVG IPC :1.61699: L2-Pf-HR :-nan: L2-HR :0.79028: (Sim:1h51m36s) 
CPU  0 inst:  542000000 cyc:  334945721 now IPC :1.59794: AVG IPC :1.61696: L2-Pf-HR :-nan: L2-HR :0.79027: (Sim:1h51m43s) 
CPU  0 inst:  543000004 cyc:  335579576 now IPC :1.57765: AVG IPC :1.61688: L2-Pf-HR :-nan: L2-HR :0.79027: (Sim:1h51m51s) 
CPU  0 inst:  544000003 cyc:  336221932 now IPC :1.55677: AVG IPC :1.61677: L2-Pf-HR :-nan: L2-HR :0.79025: (Sim:1h51m58s) 
CPU  0 inst:  545000002 cyc:  336853856 now IPC :1.58247: AVG IPC :1.61670: L2-Pf-HR :-nan: L2-HR :0.79023: (Sim:1h52m5s) 
CPU  0 inst:  546000005 cyc:  337495522 now IPC :1.55845: AVG IPC :1.61659: L2-Pf-HR :-nan: L2-HR :0.79020: (Sim:1h52m13s) 
CPU  0 inst:  547000000 cyc:  338130011 now IPC :1.57606: AVG IPC :1.61652: L2-Pf-HR :-nan: L2-HR :0.79017: (Sim:1h52m20s) 
CPU  0 inst:  548000002 cyc:  338752530 now IPC :1.60638: AVG IPC :1.61650: L2-Pf-HR :-nan: L2-HR :0.79015: (Sim:1h52m28s) 
CPU  0 inst:  549000005 cyc:  339513962 now IPC :1.31332: AVG IPC :1.61582: L2-Pf-HR :-nan: L2-HR :0.79005: (Sim:1h52m35s) 
CPU  0 inst:  550000000 cyc:  340119776 now IPC :1.65066: AVG IPC :1.61588: L2-Pf-HR :-nan: L2-HR :0.79006: (Sim:1h52m47s) 
CPU  0 inst:  551000000 cyc:  340725420 now IPC :1.65113: AVG IPC :1.61594: L2-Pf-HR :-nan: L2-HR :0.79007: (Sim:1h53m3s) 
CPU  0 inst:  552000004 cyc:  341321653 now IPC :1.67720: AVG IPC :1.61605: L2-Pf-HR :-nan: L2-HR :0.79008: (Sim:1h53m18s) 
CPU  0 inst:  553000000 cyc:  341917679 now IPC :1.67777: AVG IPC :1.61616: L2-Pf-HR :-nan: L2-HR :0.79009: (Sim:1h53m33s) 
CPU  0 inst:  554000002 cyc:  342521219 now IPC :1.65689: AVG IPC :1.61623: L2-Pf-HR :-nan: L2-HR :0.79012: (Sim:1h53m48s) 
CPU  0 inst:  555000000 cyc:  343119563 now IPC :1.67128: AVG IPC :1.61632: L2-Pf-HR :-nan: L2-HR :0.79015: (Sim:1h54m3s) 
CPU  0 inst:  556000004 cyc:  343717887 now IPC :1.67134: AVG IPC :1.61642: L2-Pf-HR :-nan: L2-HR :0.79017: (Sim:1h54m18s) 
CPU  0 inst:  557000004 cyc:  344312322 now IPC :1.68227: AVG IPC :1.61653: L2-Pf-HR :-nan: L2-HR :0.79018: (Sim:1h54m33s) 
CPU  0 inst:  558000000 cyc:  344903047 now IPC :1.69283: AVG IPC :1.61667: L2-Pf-HR :-nan: L2-HR :0.79019: (Sim:1h54m49s) 
CPU  0 inst:  559000004 cyc:  345493260 now IPC :1.69431: AVG IPC :1.61680: L2-Pf-HR :-nan: L2-HR :0.79020: (Sim:1h55m4s) 
CPU  0 inst:  560000003 cyc:  346088197 now IPC :1.68085: AVG IPC :1.61691: L2-Pf-HR :-nan: L2-HR :0.79021: (Sim:1h55m18s) 
CPU  0 inst:  561000003 cyc:  346782340 now IPC :1.44063: AVG IPC :1.61655: L2-Pf-HR :-nan: L2-HR :0.79017: (Sim:1h55m34s) 
CPU  0 inst:  562000004 cyc:  347370158 now IPC :1.70121: AVG IPC :1.61670: L2-Pf-HR :-nan: L2-HR :0.79022: (Sim:1h55m49s) 
CPU  0 inst:  563000000 cyc:  347954244 now IPC :1.71207: AVG IPC :1.61686: L2-Pf-HR :-nan: L2-HR :0.79028: (Sim:1h56m4s) 
CPU  0 inst:  564000004 cyc:  348540580 now IPC :1.70551: AVG IPC :1.61701: L2-Pf-HR :-nan: L2-HR :0.79034: (Sim:1h56m19s) 
CPU  0 inst:  565000000 cyc:  349129610 now IPC :1.69770: AVG IPC :1.61715: L2-Pf-HR :-nan: L2-HR :0.79041: (Sim:1h56m35s) 
CPU  0 inst:  566000001 cyc:  349717435 now IPC :1.70119: AVG IPC :1.61729: L2-Pf-HR :-nan: L2-HR :0.79046: (Sim:1h56m49s) 
CPU  0 inst:  567000003 cyc:  350304381 now IPC :1.70374: AVG IPC :1.61743: L2-Pf-HR :-nan: L2-HR :0.79052: (Sim:1h57m4s) 
CPU  0 inst:  568000001 cyc:  350892708 now IPC :1.69973: AVG IPC :1.61757: L2-Pf-HR :-nan: L2-HR :0.79057: (Sim:1h57m19s) 
CPU  0 inst:  569000004 cyc:  351678352 now IPC :1.27284: AVG IPC :1.61680: L2-Pf-HR :-nan: L2-HR :0.79036: (Sim:1h57m36s) 
CPU  0 inst:  570000001 cyc:  352316169 now IPC :1.56784: AVG IPC :1.61671: L2-Pf-HR :-nan: L2-HR :0.79033: (Sim:1h57m52s) 
CPU  0 inst:  571000003 cyc:  352935066 now IPC :1.61578: AVG IPC :1.61671: L2-Pf-HR :-nan: L2-HR :0.79030: (Sim:1h58m7s) 
CPU  0 inst:  572000001 cyc:  353565094 now IPC :1.58723: AVG IPC :1.61665: L2-Pf-HR :-nan: L2-HR :0.79028: (Sim:1h58m23s) 
CPU  0 inst:  573000001 cyc:  354188008 now IPC :1.60536: AVG IPC :1.61664: L2-Pf-HR :-nan: L2-HR :0.79025: (Sim:1h58m38s) 
CPU  0 inst:  574000002 cyc:  354831856 now IPC :1.55316: AVG IPC :1.61652: L2-Pf-HR :-nan: L2-HR :0.79025: (Sim:1h58m54s) 
CPU  0 inst:  575000002 cyc:  355466346 now IPC :1.57607: AVG IPC :1.61645: L2-Pf-HR :-nan: L2-HR :0.79025: (Sim:1h59m9s) 
CPU  0 inst:  576000001 cyc:  356092653 now IPC :1.59666: AVG IPC :1.61641: L2-Pf-HR :-nan: L2-HR :0.79022: (Sim:1h59m25s) 
CPU  0 inst:  577000003 cyc:  356730856 now IPC :1.56690: AVG IPC :1.61632: L2-Pf-HR :-nan: L2-HR :0.79020: (Sim:1h59m40s) 
CPU  0 inst:  578000005 cyc:  357352254 now IPC :1.60928: AVG IPC :1.61631: L2-Pf-HR :-nan: L2-HR :0.79018: (Sim:1h59m56s) 
CPU  0 inst:  579000004 cyc:  357987869 now IPC :1.57328: AVG IPC :1.61623: L2-Pf-HR :-nan: L2-HR :0.79015: (Sim:2h0m11s) 
CPU  0 inst:  580000001 cyc:  358626121 now IPC :1.56677: AVG IPC :1.61615: L2-Pf-HR :-nan: L2-HR :0.79014: (Sim:2h0m27s) 
CPU  0 inst:  581000004 cyc:  359374277 now IPC :1.33662: AVG IPC :1.61556: L2-Pf-HR :-nan: L2-HR :0.79004: (Sim:2h0m43s) 
CPU  0 inst:  582000004 cyc:  359985873 now IPC :1.63507: AVG IPC :1.61560: L2-Pf-HR :-nan: L2-HR :0.79006: (Sim:2h0m58s) 
CPU  0 inst:  583000004 cyc:  360588281 now IPC :1.66000: AVG IPC :1.61567: L2-Pf-HR :-nan: L2-HR :0.79006: (Sim:2h1m13s) 
CPU  0 inst:  584000003 cyc:  361183184 now IPC :1.68094: AVG IPC :1.61578: L2-Pf-HR :-nan: L2-HR :0.79007: (Sim:2h1m29s) 
CPU  0 inst:  585000003 cyc:  361780427 now IPC :1.67436: AVG IPC :1.61588: L2-Pf-HR :-nan: L2-HR :0.79009: (Sim:2h1m44s) 
CPU  0 inst:  586000003 cyc:  362380581 now IPC :1.66624: AVG IPC :1.61596: L2-Pf-HR :-nan: L2-HR :0.79012: (Sim:2h1m59s) 
CPU  0 inst:  587000005 cyc:  362975298 now IPC :1.68148: AVG IPC :1.61607: L2-Pf-HR :-nan: L2-HR :0.79015: (Sim:2h2m14s) 
CPU  0 inst:  588000004 cyc:  363572143 now IPC :1.67548: AVG IPC :1.61616: L2-Pf-HR :-nan: L2-HR :0.79016: (Sim:2h2m29s) 
CPU  0 inst:  589000002 cyc:  364163927 now IPC :1.68980: AVG IPC :1.61628: L2-Pf-HR :-nan: L2-HR :0.79016: (Sim:2h2m44s) 
CPU  0 inst:  590000004 cyc:  364754818 now IPC :1.69236: AVG IPC :1.61641: L2-Pf-HR :-nan: L2-HR :0.79017: (Sim:2h3m0s) 
CPU  0 inst:  591000004 cyc:  365348261 now IPC :1.68508: AVG IPC :1.61652: L2-Pf-HR :-nan: L2-HR :0.79019: (Sim:2h3m15s) 
CPU  0 inst:  592000004 cyc:  366025187 now IPC :1.47727: AVG IPC :1.61626: L2-Pf-HR :-nan: L2-HR :0.79013: (Sim:2h3m30s) 
CPU  0 inst:  593000004 cyc:  366636995 now IPC :1.63450: AVG IPC :1.61629: L2-Pf-HR :-nan: L2-HR :0.79018: (Sim:2h3m46s) 
CPU  0 inst:  594000005 cyc:  367223532 now IPC :1.70492: AVG IPC :1.61643: L2-Pf-HR :-nan: L2-HR :0.79023: (Sim:2h4m1s) 
CPU  0 inst:  595000000 cyc:  367809254 now IPC :1.70729: AVG IPC :1.61658: L2-Pf-HR :-nan: L2-HR :0.79027: (Sim:2h4m17s) 
CPU  0 inst:  596000002 cyc:  368399203 now IPC :1.69507: AVG IPC :1.61670: L2-Pf-HR :-nan: L2-HR :0.79034: (Sim:2h4m32s) 
CPU  0 inst:  597000002 cyc:  368984554 now IPC :1.70838: AVG IPC :1.61685: L2-Pf-HR :-nan: L2-HR :0.79040: (Sim:2h4m46s) 
CPU  0 inst:  598000002 cyc:  369569079 now IPC :1.71079: AVG IPC :1.61700: L2-Pf-HR :-nan: L2-HR :0.79045: (Sim:2h5m2s) 
CPU  0 inst:  599000003 cyc:  370155757 now IPC :1.70451: AVG IPC :1.61714: L2-Pf-HR :-nan: L2-HR :0.79050: (Sim:2h5m16s) 
CPU  0 inst:  600000001 cyc:  370892101 now IPC :1.35806: AVG IPC :1.61662: L2-Pf-HR :-nan: L2-HR :0.79035: (Sim:2h5m32s) 
CPU  0 inst:  601000005 cyc:  371550764 now IPC :1.51823: AVG IPC :1.61645: L2-Pf-HR :-nan: L2-HR :0.79032: (Sim:2h5m48s) 
CPU  0 inst:  602000005 cyc:  372180472 now IPC :1.58804: AVG IPC :1.61640: L2-Pf-HR :-nan: L2-HR :0.79030: (Sim:2h6m4s) 
CPU  0 inst:  603000001 cyc:  372818702 now IPC :1.56683: AVG IPC :1.61631: L2-Pf-HR :-nan: L2-HR :0.79027: (Sim:2h6m19s) 
CPU  0 inst:  604000000 cyc:  373438583 now IPC :1.61321: AVG IPC :1.61631: L2-Pf-HR :-nan: L2-HR :0.79024: (Sim:2h6m35s) 
CPU  0 inst:  605000002 cyc:  374072207 now IPC :1.57823: AVG IPC :1.61625: L2-Pf-HR :-nan: L2-HR :0.79024: (Sim:2h6m50s) 
CPU  0 inst:  606000004 cyc:  374713054 now IPC :1.56044: AVG IPC :1.61615: L2-Pf-HR :-nan: L2-HR :0.79023: (Sim:2h7m6s) 
CPU  0 inst:  607000005 cyc:  375340353 now IPC :1.59414: AVG IPC :1.61611: L2-Pf-HR :-nan: L2-HR :0.79022: (Sim:2h7m22s) 
CPU  0 inst:  608000001 cyc:  375980070 now IPC :1.56318: AVG IPC :1.61602: L2-Pf-HR :-nan: L2-HR :0.79019: (Sim:2h7m37s) 
CPU  0 inst:  609000000 cyc:  376604802 now IPC :1.60068: AVG IPC :1.61600: L2-Pf-HR :-nan: L2-HR :0.79017: (Sim:2h7m53s) 
CPU  0 inst:  610000000 cyc:  377232211 now IPC :1.59386: AVG IPC :1.61596: L2-Pf-HR :-nan: L2-HR :0.79015: (Sim:2h8m8s) 
CPU  0 inst:  611000005 cyc:  377867032 now IPC :1.57526: AVG IPC :1.61589: L2-Pf-HR :-nan: L2-HR :0.79012: (Sim:2h8m24s) 
CPU  0 inst:  612000004 cyc:  378619339 now IPC :1.32924: AVG IPC :1.61532: L2-Pf-HR :-nan: L2-HR :0.79003: (Sim:2h8m40s) 
CPU  0 inst:  613000004 cyc:  379236300 now IPC :1.62085: AVG IPC :1.61533: L2-Pf-HR :-nan: L2-HR :0.79004: (Sim:2h8m56s) 
CPU  0 inst:  614000004 cyc:  379845080 now IPC :1.64263: AVG IPC :1.61537: L2-Pf-HR :-nan: L2-HR :0.79005: (Sim:2h9m10s) 
CPU  0 inst:  615000003 cyc:  380443001 now IPC :1.67246: AVG IPC :1.61546: L2-Pf-HR :-nan: L2-HR :0.79005: (Sim:2h9m26s) 
CPU  0 inst:  616000005 cyc:  381038536 now IPC :1.67917: AVG IPC :1.61556: L2-Pf-HR :-nan: L2-HR :0.79007: (Sim:2h9m42s) 
CPU  0 inst:  617000003 cyc:  381646908 now IPC :1.64373: AVG IPC :1.61561: L2-Pf-HR :-nan: L2-HR :0.79009: (Sim:2h9m57s) 
CPU  0 inst:  618000002 cyc:  382241795 now IPC :1.68099: AVG IPC :1.61571: L2-Pf-HR :-nan: L2-HR :0.79012: (Sim:2h10m12s) 
CPU  0 inst:  619000002 cyc:  382836759 now IPC :1.68077: AVG IPC :1.61581: L2-Pf-HR :-nan: L2-HR :0.79014: (Sim:2h10m27s) 
CPU  0 inst:  620000005 cyc:  383429646 now IPC :1.68667: AVG IPC :1.61592: L2-Pf-HR :-nan: L2-HR :0.79014: (Sim:2h10m42s) 
CPU  0 inst:  621000003 cyc:  384018401 now IPC :1.69850: AVG IPC :1.61605: L2-Pf-HR :-nan: L2-HR :0.79015: (Sim:2h10m57s) 
CPU  0 inst:  622000004 cyc:  384606447 now IPC :1.70055: AVG IPC :1.61618: L2-Pf-HR :-nan: L2-HR :0.79016: (Sim:2h11m12s) 
CPU  0 inst:  623000003 cyc:  385199000 now IPC :1.68761: AVG IPC :1.61629: L2-Pf-HR :-nan: L2-HR :0.79017: (Sim:2h11m27s) 
CPU  0 inst:  624000005 cyc:  385891430 now IPC :1.44419: AVG IPC :1.61598: L2-Pf-HR :-nan: L2-HR :0.79014: (Sim:2h11m44s) 
CPU  0 inst:  625000000 cyc:  386478034 now IPC :1.70472: AVG IPC :1.61611: L2-Pf-HR :-nan: L2-HR :0.79019: (Sim:2h11m58s) 
CPU  0 inst:  626000005 cyc:  387063956 now IPC :1.70672: AVG IPC :1.61625: L2-Pf-HR :-nan: L2-HR :0.79023: (Sim:2h12m13s) 
CPU  0 inst:  627000003 cyc:  387653645 now IPC :1.69581: AVG IPC :1.61637: L2-Pf-HR :-nan: L2-HR :0.79029: (Sim:2h12m27s) 
CPU  0 inst:  628000002 cyc:  388243197 now IPC :1.69620: AVG IPC :1.61649: L2-Pf-HR :-nan: L2-HR :0.79036: (Sim:2h12m34s) 
CPU  0 inst:  629000005 cyc:  388831769 now IPC :1.69903: AVG IPC :1.61662: L2-Pf-HR :-nan: L2-HR :0.79041: (Sim:2h12m41s) 
CPU  0 inst:  630000005 cyc:  389420493 now IPC :1.69859: AVG IPC :1.61674: L2-Pf-HR :-nan: L2-HR :0.79046: (Sim:2h12m49s) 
CPU  0 inst:  631000000 cyc:  390008575 now IPC :1.70043: AVG IPC :1.61687: L2-Pf-HR :-nan: L2-HR :0.79051: (Sim:2h12m56s) 
CPU  0 inst:  632000000 cyc:  390790551 now IPC :1.27881: AVG IPC :1.61619: L2-Pf-HR :-nan: L2-HR :0.79033: (Sim:2h13m9s) 
CPU  0 inst:  633000001 cyc:  391413841 now IPC :1.60439: AVG IPC :1.61617: L2-Pf-HR :-nan: L2-HR :0.79031: (Sim:2h13m25s) 
CPU  0 inst:  634000000 cyc:  392051086 now IPC :1.56925: AVG IPC :1.61610: L2-Pf-HR :-nan: L2-HR :0.79028: (Sim:2h13m42s) 
CPU  0 inst:  635000002 cyc:  392675076 now IPC :1.60259: AVG IPC :1.61607: L2-Pf-HR :-nan: L2-HR :0.79026: (Sim:2h13m58s) 
CPU  0 inst:  636000004 cyc:  393307463 now IPC :1.58131: AVG IPC :1.61602: L2-Pf-HR :-nan: L2-HR :0.79024: (Sim:2h14m14s) 
CPU  0 inst:  637000000 cyc:  393947477 now IPC :1.56246: AVG IPC :1.61593: L2-Pf-HR :-nan: L2-HR :0.79023: (Sim:2h14m27s) 
CPU  0 inst:  638000005 cyc:  394569526 now IPC :1.60760: AVG IPC :1.61592: L2-Pf-HR :-nan: L2-HR :0.79023: (Sim:2h14m34s) 
CPU  0 inst:  639000001 cyc:  395205565 now IPC :1.57222: AVG IPC :1.61585: L2-Pf-HR :-nan: L2-HR :0.79021: (Sim:2h14m42s) 
CPU  0 inst:  640000000 cyc:  395829799 now IPC :1.60196: AVG IPC :1.61583: L2-Pf-HR :-nan: L2-HR :0.79019: (Sim:2h14m49s) 
CPU  0 inst:  641000001 cyc:  396457862 now IPC :1.59220: AVG IPC :1.61579: L2-Pf-HR :-nan: L2-HR :0.79017: (Sim:2h14m56s) 
CPU  0 inst:  642000004 cyc:  397092632 now IPC :1.57538: AVG IPC :1.61572: L2-Pf-HR :-nan: L2-HR :0.79014: (Sim:2h15m4s) 
CPU  0 inst:  643000000 cyc:  397712745 now IPC :1.61260: AVG IPC :1.61572: L2-Pf-HR :-nan: L2-HR :0.79012: (Sim:2h15m11s) 
[...]
CPU  0 inst: 2234000004 cyc: 2616010100 now IPC :1.44715: AVG IPC :0.85353: L2-Pf-HR :-nan: L2-HR :0.73902: (Sim:8h49m37s) 
CPU  0 inst: 2235000004 cyc: 2616524104 now IPC :1.94551: AVG IPC :0.85374: L2-Pf-HR :-nan: L2-HR :0.73907: (Sim:8h49m45s) 
CPU  0 inst: 2236000001 cyc: 2617168506 now IPC :1.55182: AVG IPC :0.85392: L2-Pf-HR :-nan: L2-HR :0.73911: (Sim:8h49m52s) 
CPU  0 inst: 2237000003 cyc: 2617691496 now IPC :1.91209: AVG IPC :0.85413: L2-Pf-HR :-nan: L2-HR :0.73917: (Sim:8h49m59s) 
CPU  0 inst: 2238000004 cyc: 2618345086 now IPC :1.53001: AVG IPC :0.85430: L2-Pf-HR :-nan: L2-HR :0.73918: (Sim:8h50m8s) 
CPU  0 inst: 2239000000 cyc: 2618828874 now IPC :2.06701: AVG IPC :0.85452: L2-Pf-HR :-nan: L2-HR :0.73924: (Sim:8h50m16s) 
CPU  0 inst: 2240000003 cyc: 2619468791 now IPC :1.56271: AVG IPC :0.85469: L2-Pf-HR :-nan: L2-HR :0.73927: (Sim:8h50m24s) 
CPU  0 inst: 2241000005 cyc: 2619928658 now IPC :2.17455: AVG IPC :0.85492: L2-Pf-HR :-nan: L2-HR :0.73934: (Sim:8h50m31s) 
CPU  0 inst: 2242000001 cyc: 2620420977 now IPC :2.03120: AVG IPC :0.85515: L2-Pf-HR :-nan: L2-HR :0.73941: (Sim:8h50m38s) 
CPU  0 inst: 2243000002 cyc: 2620947336 now IPC :1.89985: AVG IPC :0.85536: L2-Pf-HR :-nan: L2-HR :0.73946: (Sim:8h50m45s) 
CPU  0 inst: 2244000002 cyc: 2621581712 now IPC :1.57635: AVG IPC :0.85553: L2-Pf-HR :-nan: L2-HR :0.73948: (Sim:8h50m54s) 
CPU  0 inst: 2245000000 cyc: 2622085526 now IPC :1.98486: AVG IPC :0.85575: L2-Pf-HR :-nan: L2-HR :0.73954: (Sim:8h51m2s) 
CPU  0 inst: 2246000000 cyc: 2622638714 now IPC :1.80770: AVG IPC :0.85595: L2-Pf-HR :-nan: L2-HR :0.73961: (Sim:8h51m10s) 
CPU  0 inst: 2247000005 cyc: 2623187500 now IPC :1.82221: AVG IPC :0.85615: L2-Pf-HR :-nan: L2-HR :0.73964: (Sim:8h51m17s) 
CPU  0 inst: 2248000005 cyc: 2623651832 now IPC :2.15363: AVG IPC :0.85638: L2-Pf-HR :-nan: L2-HR :0.73970: (Sim:8h51m24s) 
CPU  0 inst: 2249000001 cyc: 2624212895 now IPC :1.78232: AVG IPC :0.85658: L2-Pf-HR :-nan: L2-HR :0.73976: (Sim:8h51m32s) 
CPU  0 inst: 2250000000 cyc: 2624784510 now IPC :1.74943: AVG IPC :0.85677: L2-Pf-HR :-nan: L2-HR :0.73981: (Sim:8h51m39s) 
CPU  0 inst: 2251000000 cyc: 2625342560 now IPC :1.79195: AVG IPC :0.85697: L2-Pf-HR :-nan: L2-HR :0.73984: (Sim:8h51m48s) 
CPU  0 inst: 2252000000 cyc: 2625829457 now IPC :2.05382: AVG IPC :0.85719: L2-Pf-HR :-nan: L2-HR :0.73990: (Sim:8h51m58s) 
CPU  0 inst: 2253000004 cyc: 2626449203 now IPC :1.61357: AVG IPC :0.85737: L2-Pf-HR :-nan: L2-HR :0.73994: (Sim:8h52m16s) 
CPU  0 inst: 2254000002 cyc: 2626908535 now IPC :2.17707: AVG IPC :0.85760: L2-Pf-HR :-nan: L2-HR :0.74000: (Sim:8h52m32s) 
CPU  0 inst: 2255000002 cyc: 2627467057 now IPC :1.79044: AVG IPC :0.85780: L2-Pf-HR :-nan: L2-HR :0.74006: (Sim:8h52m49s) 
CPU  0 inst: 2256000004 cyc: 2627929160 now IPC :2.16402: AVG IPC :0.85803: L2-Pf-HR :-nan: L2-HR :0.74013: (Sim:8h53m5s) 
CPU  0 inst: 2257000005 cyc: 2628569509 now IPC :1.56165: AVG IPC :0.85820: L2-Pf-HR :-nan: L2-HR :0.74014: (Sim:8h53m25s) 
CPU  0 inst: 2258000005 cyc: 2629051485 now IPC :2.07479: AVG IPC :0.85843: L2-Pf-HR :-nan: L2-HR :0.74021: (Sim:8h53m43s) 
CPU  0 inst: 2259000001 cyc: 2629683634 now IPC :1.58190: AVG IPC :0.85860: L2-Pf-HR :-nan: L2-HR :0.74023: (Sim:8h54m1s) 
CPU  0 inst: 2260000004 cyc: 2630147706 now IPC :2.15484: AVG IPC :0.85883: L2-Pf-HR :-nan: L2-HR :0.74030: (Sim:8h54m17s) 
CPU  0 inst: 2261000004 cyc: 2630629195 now IPC :2.07689: AVG IPC :0.85905: L2-Pf-HR :-nan: L2-HR :0.74038: (Sim:8h54m31s) 
CPU  0 inst: 2262000005 cyc: 2631162343 now IPC :1.87565: AVG IPC :0.85926: L2-Pf-HR :-nan: L2-HR :0.74042: (Sim:8h54m46s) 
CPU  0 inst: 2263000004 cyc: 2631708336 now IPC :1.83152: AVG IPC :0.85946: L2-Pf-HR :-nan: L2-HR :0.74049: (Sim:8h55m2s) 
CPU  0 inst: 2264000003 cyc: 2632248551 now IPC :1.85111: AVG IPC :0.85966: L2-Pf-HR :-nan: L2-HR :0.74057: (Sim:8h55m19s) 
CPU  0 inst: 2265000002 cyc: 2632946398 now IPC :1.43298: AVG IPC :0.85982: L2-Pf-HR :-nan: L2-HR :0.74060: (Sim:8h55m37s) 
CPU  0 inst: 2266000000 cyc: 2633511235 now IPC :1.77042: AVG IPC :0.86001: L2-Pf-HR :-nan: L2-HR :0.74064: (Sim:8h55m55s) 
CPU  0 inst: 2267000000 cyc: 2634079671 now IPC :1.75921: AVG IPC :0.86020: L2-Pf-HR :-nan: L2-HR :0.74069: (Sim:8h56m13s) 
CPU  0 inst: 2268000003 cyc: 2634754067 now IPC :1.48281: AVG IPC :0.86036: L2-Pf-HR :-nan: L2-HR :0.74070: (Sim:8h56m29s) 
CPU  0 inst: 2269000003 cyc: 2635277415 now IPC :1.91077: AVG IPC :0.86057: L2-Pf-HR :-nan: L2-HR :0.74075: (Sim:8h56m44s) 
CPU  0 inst: 2270000003 cyc: 2635924383 now IPC :1.54567: AVG IPC :0.86074: L2-Pf-HR :-nan: L2-HR :0.74079: (Sim:8h57m0s) 
CPU  0 inst: 2271000000 cyc: 2636463767 now IPC :1.85396: AVG IPC :0.86094: L2-Pf-HR :-nan: L2-HR :0.74084: (Sim:8h57m14s) 
CPU  0 inst: 2272000004 cyc: 2637090770 now IPC :1.59490: AVG IPC :0.86112: L2-Pf-HR :-nan: L2-HR :0.74085: (Sim:8h57m34s) 
CPU  0 inst: 2273000000 cyc: 2637596770 now IPC :1.97628: AVG IPC :0.86133: L2-Pf-HR :-nan: L2-HR :0.74091: (Sim:8h57m53s) 
CPU  0 inst: 2274000004 cyc: 2638223319 now IPC :1.59605: AVG IPC :0.86151: L2-Pf-HR :-nan: L2-HR :0.74094: (Sim:8h58m10s) 
CPU  0 inst: 2275000003 cyc: 2638680955 now IPC :2.18514: AVG IPC :0.86174: L2-Pf-HR :-nan: L2-HR :0.74100: (Sim:8h58m25s) 
CPU  0 inst: 2276000002 cyc: 2639241156 now IPC :1.78507: AVG IPC :0.86193: L2-Pf-HR :-nan: L2-HR :0.74105: (Sim:8h58m42s) 
CPU  0 inst: 2277000004 cyc: 2639704484 now IPC :2.15830: AVG IPC :0.86216: L2-Pf-HR :-nan: L2-HR :0.74112: (Sim:8h58m57s) 
CPU  0 inst: 2278000005 cyc: 2640346949 now IPC :1.55651: AVG IPC :0.86233: L2-Pf-HR :-nan: L2-HR :0.74114: (Sim:8h59m16s) 
CPU  0 inst: 2279000001 cyc: 2640832227 now IPC :2.06067: AVG IPC :0.86255: L2-Pf-HR :-nan: L2-HR :0.74120: (Sim:8h59m33s) 
CPU  0 inst: 2280000005 cyc: 2641465684 now IPC :1.57865: AVG IPC :0.86272: L2-Pf-HR :-nan: L2-HR :0.74123: (Sim:8h59m52s) 
CPU  0 inst: 2281000005 cyc: 2641937959 now IPC :2.11741: AVG IPC :0.86295: L2-Pf-HR :-nan: L2-HR :0.74128: (Sim:9h0m8s) 
CPU  0 inst: 2282000001 cyc: 2642399216 now IPC :2.16798: AVG IPC :0.86317: L2-Pf-HR :-nan: L2-HR :0.74135: (Sim:9h0m24s) 
CPU  0 inst: 2283000004 cyc: 2642966373 now IPC :1.76319: AVG IPC :0.86337: L2-Pf-HR :-nan: L2-HR :0.74140: (Sim:9h0m41s) 
CPU  0 inst: 2284000000 cyc: 2643581341 now IPC :1.62609: AVG IPC :0.86354: L2-Pf-HR :-nan: L2-HR :0.74142: (Sim:9h1m0s) 
CPU  0 inst: 2285000004 cyc: 2644084108 now IPC :1.98900: AVG IPC :0.86376: L2-Pf-HR :-nan: L2-HR :0.74148: (Sim:9h1m18s) 
CPU  0 inst: 2286000001 cyc: 2644585271 now IPC :1.99535: AVG IPC :0.86397: L2-Pf-HR :-nan: L2-HR :0.74154: (Sim:9h1m36s) 
CPU  0 inst: 2287000002 cyc: 2645192765 now IPC :1.64611: AVG IPC :0.86415: L2-Pf-HR :-nan: L2-HR :0.74156: (Sim:9h1m54s) 
CPU  0 inst: 2288000003 cyc: 2645655300 now IPC :2.16200: AVG IPC :0.86438: L2-Pf-HR :-nan: L2-HR :0.74163: (Sim:9h2m10s) 
CPU  0 inst: 2289000003 cyc: 2646218823 now IPC :1.77455: AVG IPC :0.86457: L2-Pf-HR :-nan: L2-HR :0.74168: (Sim:9h2m28s) 
CPU  0 inst: 2290000000 cyc: 2646691904 now IPC :2.11380: AVG IPC :0.86480: L2-Pf-HR :-nan: L2-HR :0.74175: (Sim:9h2m44s) 
CPU  0 inst: 2291000000 cyc: 2647321533 now IPC :1.58824: AVG IPC :0.86497: L2-Pf-HR :-nan: L2-HR :0.74176: (Sim:9h3m3s) 
CPU  0 inst: 2292000002 cyc: 2647824892 now IPC :1.98666: AVG IPC :0.86518: L2-Pf-HR :-nan: L2-HR :0.74182: (Sim:9h3m23s) 
CPU  0 inst: 2293000001 cyc: 2648450785 now IPC :1.59772: AVG IPC :0.86536: L2-Pf-HR :-nan: L2-HR :0.74184: (Sim:9h3m40s) 
CPU  0 inst: 2294000002 cyc: 2648913251 now IPC :2.16232: AVG IPC :0.86558: L2-Pf-HR :-nan: L2-HR :0.74191: (Sim:9h3m55s) 
CPU  0 inst: 2295000000 cyc: 2649471354 now IPC :1.79178: AVG IPC :0.86578: L2-Pf-HR :-nan: L2-HR :0.74196: (Sim:9h4m12s) 
CPU  0 inst: 2296000003 cyc: 2649938461 now IPC :2.14084: AVG IPC :0.86600: L2-Pf-HR :-nan: L2-HR :0.74202: (Sim:9h4m27s) 
CPU  0 inst: 2297000003 cyc: 2650493189 now IPC :1.80269: AVG IPC :0.86620: L2-Pf-HR :-nan: L2-HR :0.74209: (Sim:9h4m43s) 
CPU  0 inst: 2298000003 cyc: 2651031363 now IPC :1.85814: AVG IPC :0.86640: L2-Pf-HR :-nan: L2-HR :0.74217: (Sim:9h4m59s) 
CPU  0 inst: 2299000005 cyc: 2651751991 now IPC :1.38768: AVG IPC :0.86654: L2-Pf-HR :-nan: L2-HR :0.74219: (Sim:9h5m18s) 
CPU  0 inst: 2300000005 cyc: 2652320522 now IPC :1.75892: AVG IPC :0.86673: L2-Pf-HR :-nan: L2-HR :0.74223: (Sim:9h5m36s) 
CPU  0 inst: 2301000003 cyc: 2652887989 now IPC :1.76221: AVG IPC :0.86692: L2-Pf-HR :-nan: L2-HR :0.74228: (Sim:9h5m54s) 
CPU  0 inst: 2302000002 cyc: 2653548622 now IPC :1.51370: AVG IPC :0.86709: L2-Pf-HR :-nan: L2-HR :0.74229: (Sim:9h6m10s) 
CPU  0 inst: 2303000002 cyc: 2654076822 now IPC :1.89322: AVG IPC :0.86729: L2-Pf-HR :-nan: L2-HR :0.74234: (Sim:9h6m25s) 
CPU  0 inst: 2304000002 cyc: 2654713836 now IPC :1.56982: AVG IPC :0.86746: L2-Pf-HR :-nan: L2-HR :0.74238: (Sim:9h6m41s) 
CPU  0 inst: 2305000002 cyc: 2655318453 now IPC :1.65394: AVG IPC :0.86764: L2-Pf-HR :-nan: L2-HR :0.74241: (Sim:9h6m57s) 
CPU  0 inst: 2306000004 cyc: 2655886714 now IPC :1.75976: AVG IPC :0.86783: L2-Pf-HR :-nan: L2-HR :0.74244: (Sim:9h7m16s) 
CPU  0 inst: 2307000000 cyc: 2656373408 now IPC :2.05467: AVG IPC :0.86805: L2-Pf-HR :-nan: L2-HR :0.74250: (Sim:9h7m34s) 
CPU  0 inst: 2308000000 cyc: 2656990109 now IPC :1.62153: AVG IPC :0.86822: L2-Pf-HR :-nan: L2-HR :0.74253: (Sim:9h7m51s) 
CPU  0 inst: 2309000002 cyc: 2657450295 now IPC :2.17304: AVG IPC :0.86845: L2-Pf-HR :-nan: L2-HR :0.74259: (Sim:9h8m7s) 
CPU  0 inst: 2310000000 cyc: 2658012054 now IPC :1.78012: AVG IPC :0.86864: L2-Pf-HR :-nan: L2-HR :0.74264: (Sim:9h8m23s) 
CPU  0 inst: 2311000005 cyc: 2658476834 now IPC :2.15157: AVG IPC :0.86886: L2-Pf-HR :-nan: L2-HR :0.74271: (Sim:9h8m38s) 
CPU  0 inst: 2312000001 cyc: 2659115820 now IPC :1.56497: AVG IPC :0.86903: L2-Pf-HR :-nan: L2-HR :0.74272: (Sim:9h8m57s) 
CPU  0 inst: 2313000000 cyc: 2659605299 now IPC :2.04299: AVG IPC :0.86925: L2-Pf-HR :-nan: L2-HR :0.74278: (Sim:9h9m15s) 
CPU  0 inst: 2314000000 cyc: 2660247986 now IPC :1.55597: AVG IPC :0.86941: L2-Pf-HR :-nan: L2-HR :0.74281: (Sim:9h9m33s) 
CPU  0 inst: 2315000004 cyc: 2660715745 now IPC :2.13786: AVG IPC :0.86964: L2-Pf-HR :-nan: L2-HR :0.74287: (Sim:9h9m49s) 
CPU  0 inst: 2316000000 cyc: 2661193866 now IPC :2.09151: AVG IPC :0.86986: L2-Pf-HR :-nan: L2-HR :0.74295: (Sim:9h10m4s) 
CPU  0 inst: 2317000002 cyc: 2661739257 now IPC :1.83355: AVG IPC :0.87005: L2-Pf-HR :-nan: L2-HR :0.74299: (Sim:9h10m20s) 
CPU  0 inst: 2318000000 cyc: 2662365828 now IPC :1.59599: AVG IPC :0.87023: L2-Pf-HR :-nan: L2-HR :0.74300: (Sim:9h10m39s) 
CPU  0 inst: 2319000001 cyc: 2662871596 now IPC :1.97719: AVG IPC :0.87044: L2-Pf-HR :-nan: L2-HR :0.74306: (Sim:9h10m57s) 
CPU  0 inst: 2320000000 cyc: 2663402945 now IPC :1.88200: AVG IPC :0.87064: L2-Pf-HR :-nan: L2-HR :0.74313: (Sim:9h11m14s) 
CPU  0 inst: 2321000003 cyc: 2663969386 now IPC :1.76541: AVG IPC :0.87083: L2-Pf-HR :-nan: L2-HR :0.74315: (Sim:9h11m31s) 
CPU  0 inst: 2322000005 cyc: 2664437525 now IPC :2.13612: AVG IPC :0.87105: L2-Pf-HR :-nan: L2-HR :0.74321: (Sim:9h11m46s) 
CPU  0 inst: 2323000004 cyc: 2665001053 now IPC :1.77453: AVG IPC :0.87124: L2-Pf-HR :-nan: L2-HR :0.74327: (Sim:9h12m1s) 
CPU  0 inst: 2324000003 cyc: 2665544950 now IPC :1.83858: AVG IPC :0.87144: L2-Pf-HR :-nan: L2-HR :0.74332: (Sim:9h12m17s) 
CPU  0 inst: 2325000002 cyc: 2666117261 now IPC :1.74730: AVG IPC :0.87163: L2-Pf-HR :-nan: L2-HR :0.74335: (Sim:9h12m36s) 
CPU  0 inst: 2326000000 cyc: 2666606885 now IPC :2.04238: AVG IPC :0.87184: L2-Pf-HR :-nan: L2-HR :0.74340: (Sim:9h12m53s) 
CPU  0 inst: 2327000000 cyc: 2667230150 now IPC :1.60445: AVG IPC :0.87201: L2-Pf-HR :-nan: L2-HR :0.74343: (Sim:9h13m10s) 
CPU  0 inst: 2328000003 cyc: 2667692957 now IPC :2.16073: AVG IPC :0.87224: L2-Pf-HR :-nan: L2-HR :0.74349: (Sim:9h13m25s) 
CPU  0 inst: 2329000004 cyc: 2668256281 now IPC :1.77518: AVG IPC :0.87243: L2-Pf-HR :-nan: L2-HR :0.74354: (Sim:9h13m42s) 
CPU  0 inst: 2330000004 cyc: 2668722049 now IPC :2.14699: AVG IPC :0.87265: L2-Pf-HR :-nan: L2-HR :0.74361: (Sim:9h13m56s) 
CPU  0 inst: 2331000001 cyc: 2669283331 now IPC :1.78163: AVG IPC :0.87284: L2-Pf-HR :-nan: L2-HR :0.74368: (Sim:9h14m12s) 
CPU  0 inst: 2332000001 cyc: 2669847273 now IPC :1.77323: AVG IPC :0.87303: L2-Pf-HR :-nan: L2-HR :0.74376: (Sim:9h14m29s) 
CPU  0 inst: 2333000002 cyc: 2670556315 now IPC :1.41036: AVG IPC :0.87317: L2-Pf-HR :-nan: L2-HR :0.74377: (Sim:9h14m48s) 
CPU  0 inst: 2334000000 cyc: 2671107021 now IPC :1.81585: AVG IPC :0.87337: L2-Pf-HR :-nan: L2-HR :0.74381: (Sim:9h15m6s) 
CPU  0 inst: 2335000000 cyc: 2671812047 now IPC :1.41839: AVG IPC :0.87351: L2-Pf-HR :-nan: L2-HR :0.74383: (Sim:9h15m24s) 
CPU  0 inst: 2336000001 cyc: 2672349609 now IPC :1.86025: AVG IPC :0.87371: L2-Pf-HR :-nan: L2-HR :0.74387: (Sim:9h15m40s) 
CPU  0 inst: 2337000005 cyc: 2672878341 now IPC :1.89132: AVG IPC :0.87391: L2-Pf-HR :-nan: L2-HR :0.74392: (Sim:9h15m54s) 
CPU  0 inst: 2338000003 cyc: 2673515459 now IPC :1.56956: AVG IPC :0.87408: L2-Pf-HR :-nan: L2-HR :0.74395: (Sim:9h16m10s) 
CPU  0 inst: 2339000002 cyc: 2674189131 now IPC :1.48440: AVG IPC :0.87423: L2-Pf-HR :-nan: L2-HR :0.74396: (Sim:9h16m27s) 
CPU  0 inst: 2340000002 cyc: 2674684580 now IPC :2.01837: AVG IPC :0.87444: L2-Pf-HR :-nan: L2-HR :0.74401: (Sim:9h16m45s) 
CPU  0 inst: 2341000003 cyc: 2675174577 now IPC :2.04083: AVG IPC :0.87466: L2-Pf-HR :-nan: L2-HR :0.74408: (Sim:9h17m2s) 
CPU  0 inst: 2342000002 cyc: 2675801727 now IPC :1.59451: AVG IPC :0.87483: L2-Pf-HR :-nan: L2-HR :0.74410: (Sim:9h17m19s) 
CPU  0 inst: 2343000005 cyc: 2676266029 now IPC :2.15378: AVG IPC :0.87505: L2-Pf-HR :-nan: L2-HR :0.74416: (Sim:9h17m34s) 
CPU  0 inst: 2344000001 cyc: 2676831020 now IPC :1.76993: AVG IPC :0.87524: L2-Pf-HR :-nan: L2-HR :0.74421: (Sim:9h17m50s) 
CPU  0 inst: 2345000003 cyc: 2677302454 now IPC :2.12119: AVG IPC :0.87546: L2-Pf-HR :-nan: L2-HR :0.74428: (Sim:9h18m5s) 
CPU  0 inst: 2346000003 cyc: 2677944077 now IPC :1.55855: AVG IPC :0.87562: L2-Pf-HR :-nan: L2-HR :0.74429: (Sim:9h18m22s) 
CPU  0 inst: 2347000000 cyc: 2678445625 now IPC :1.99382: AVG IPC :0.87583: L2-Pf-HR :-nan: L2-HR :0.74435: (Sim:9h18m41s) 
CPU  0 inst: 2348000001 cyc: 2679091398 now IPC :1.54853: AVG IPC :0.87599: L2-Pf-HR :-nan: L2-HR :0.74437: (Sim:9h18m57s) 
CPU  0 inst: 2349000002 cyc: 2679558520 now IPC :2.14077: AVG IPC :0.87621: L2-Pf-HR :-nan: L2-HR :0.74444: (Sim:9h19m13s) 
CPU  0 inst: 2350000002 cyc: 2680120082 now IPC :1.78075: AVG IPC :0.87640: L2-Pf-HR :-nan: L2-HR :0.74448: (Sim:9h19m29s) 
CPU  0 inst: 2351000003 cyc: 2680593387 now IPC :2.11280: AVG IPC :0.87662: L2-Pf-HR :-nan: L2-HR :0.74455: (Sim:9h19m40s) 
CPU  0 inst: 2352000002 cyc: 2681247091 now IPC :1.52974: AVG IPC :0.87678: L2-Pf-HR :-nan: L2-HR :0.74456: (Sim:9h19m49s) 
CPU  0 inst: 2353000004 cyc: 2681736218 now IPC :2.04446: AVG IPC :0.87699: L2-Pf-HR :-nan: L2-HR :0.74462: (Sim:9h19m57s) 
CPU  0 inst: 2354000003 cyc: 2682373366 now IPC :1.56949: AVG IPC :0.87716: L2-Pf-HR :-nan: L2-HR :0.74465: (Sim:9h20m6s) 
CPU  0 inst: 2355000004 cyc: 2682841404 now IPC :2.13658: AVG IPC :0.87738: L2-Pf-HR :-nan: L2-HR :0.74471: (Sim:9h20m17s) 
CPU  0 inst: 2356000002 cyc: 2683309637 now IPC :2.13568: AVG IPC :0.87760: L2-Pf-HR :-nan: L2-HR :0.74477: (Sim:9h20m33s) 
CPU  0 inst: 2357000004 cyc: 2683865844 now IPC :1.79790: AVG IPC :0.87779: L2-Pf-HR :-nan: L2-HR :0.74482: (Sim:9h20m49s) 
CPU  0 inst: 2358000001 cyc: 2684495783 now IPC :1.58745: AVG IPC :0.87795: L2-Pf-HR :-nan: L2-HR :0.74484: (Sim:9h21m7s) 
CPU  0 inst: 2359000003 cyc: 2684991587 now IPC :2.01693: AVG IPC :0.87816: L2-Pf-HR :-nan: L2-HR :0.74489: (Sim:9h21m25s) 
CPU  0 inst: 2360000000 cyc: 2685487145 now IPC :2.01792: AVG IPC :0.87838: L2-Pf-HR :-nan: L2-HR :0.74495: (Sim:9h21m39s) 
CPU  0 inst: 2361000005 cyc: 2686109585 now IPC :1.60659: AVG IPC :0.87854: L2-Pf-HR :-nan: L2-HR :0.74498: (Sim:9h21m47s) 
CPU  0 inst: 2362000003 cyc: 2686572786 now IPC :2.15889: AVG IPC :0.87876: L2-Pf-HR :-nan: L2-HR :0.74504: (Sim:9h21m54s) 
CPU  0 inst: 2363000000 cyc: 2687136476 now IPC :1.77402: AVG IPC :0.87895: L2-Pf-HR :-nan: L2-HR :0.74509: (Sim:9h22m1s) 
Finished CPU 0 instr: 2361000005 cyc: 2686151252 AVG IPC: 0.87895 (Sim time: 9h22m1s)

ChampSim completed all CPUs

[ROI Statistics]
Core_0_instructions 2361000005
Core_0_cycles 2686151252
Core_0_IPC 0.87895

Core_0_branch_prediction_accuracy 98.59504
Core_0_branch_MPKI 0.33667
Core_0_average_ROB_occupancy_at_mispredict 618.13816

Core_0_L1D_total_access 538538720
Core_0_L1D_total_hit 494093234 L1D_total_Hit Ratio: 0.91747
Core_0_L1D_total_miss 44445486
Core_0_L1D_loads 492674314
Core_0_L1D_load_hit 450668600 L1D_load_Hit Ratio: 0.91474
Core_0_L1D_load_miss 42005714
Core_0_L1D_RFOs 45864406
Core_0_L1D_RFO_hit 43424634 L1D_RFO_Hit Ratio: 0.94680
Core_0_L1D_RFO_miss 2439772
Core_0_L1D_prefetches 0
Core_0_L1D_prefetch_hit 0 L1D_prefetch_Hit Ratio: -nan
Core_0_L1D_prefetch_miss 0
Core_0_L1D_writebacks 0
Core_0_L1D_writeback_hit 0 L1D_writeback_Hit Ratio: -nan
Core_0_L1D_writeback_miss 0
Core_0_L1D_prefetch_requested 0
Core_0_L1D_prefetch_issued 0
Core_0_L1D_prefetch_useful 0 L1D_Useful Ratio: -nan
Core_0_L1D_prefetch_useless 0
Core_0_L1D_prefetch_late 0
Core_0_L1D_average_miss_latency 112.78248

Core_0_L1I_total_access 306646460
Core_0_L1I_total_hit 306641549 L1I_total_Hit Ratio: 0.99998
Core_0_L1I_total_miss 4911
Core_0_L1I_loads 306646460
Core_0_L1I_load_hit 306641549 L1I_load_Hit Ratio: 0.99998
Core_0_L1I_load_miss 4911
Core_0_L1I_RFOs 0
Core_0_L1I_RFO_hit 0 L1I_RFO_Hit Ratio: -nan
Core_0_L1I_RFO_miss 0
Core_0_L1I_prefetches 0
Core_0_L1I_prefetch_hit 0 L1I_prefetch_Hit Ratio: -nan
Core_0_L1I_prefetch_miss 0
Core_0_L1I_writebacks 0
Core_0_L1I_writeback_hit 0 L1I_writeback_Hit Ratio: -nan
Core_0_L1I_writeback_miss 0
Core_0_L1I_prefetch_requested 0
Core_0_L1I_prefetch_issued 0
Core_0_L1I_prefetch_useful 0 L1I_Useful Ratio: -nan
Core_0_L1I_prefetch_useless 0
Core_0_L1I_prefetch_late 0
Core_0_L1I_average_miss_latency 290.32682

Core_0_L2C_total_access 56485843
Core_0_L2C_total_hit 42086783 L2C_total_Hit Ratio: 0.74509
Core_0_L2C_total_miss 14399060
Core_0_L2C_loads 42010555
Core_0_L2C_load_hit 29720989 L2C_load_Hit Ratio: 0.70746
Core_0_L2C_load_miss 12289566
Core_0_L2C_RFOs 2439772
Core_0_L2C_RFO_hit 330796 L2C_RFO_Hit Ratio: 0.13558
Core_0_L2C_RFO_miss 2108976
Core_0_L2C_prefetches 0
Core_0_L2C_prefetch_hit 0 L2C_prefetch_Hit Ratio: -nan
Core_0_L2C_prefetch_miss 0
Core_0_L2C_writebacks 12035516
Core_0_L2C_writeback_hit 12034998 L2C_writeback_Hit Ratio: 0.99996
Core_0_L2C_writeback_miss 518
Core_0_L2C_prefetch_requested 0
Core_0_L2C_prefetch_issued 0
Core_0_L2C_prefetch_useful 0 L2C_Useful Ratio: -nan
Core_0_L2C_prefetch_useless 0
Core_0_L2C_prefetch_late 0
Core_0_L2C_average_miss_latency 300.75043

Core_0_LLC_total_access 22882465
Core_0_LLC_total_hit 10590275 LLC_total_Hit Ratio: 0.46281
Core_0_LLC_total_miss 12292190
Core_0_LLC_loads 12289380
Core_0_LLC_load_hit 2256215 LLC_load_Hit Ratio: 0.18359
Core_0_LLC_load_miss 10033165
Core_0_LLC_RFOs 2108976
Core_0_LLC_RFO_hit 5591 LLC_RFO_Hit Ratio: 0.00265
Core_0_LLC_RFO_miss 2103385
Core_0_LLC_prefetches 0
Core_0_LLC_prefetch_hit 0 LLC_prefetch_Hit Ratio: -nan
Core_0_LLC_prefetch_miss 0
Core_0_LLC_writebacks 8484109
Core_0_LLC_writeback_hit 8328469 LLC_writeback_Hit Ratio: 0.98166
Core_0_LLC_writeback_miss 155640
Core_0_LLC_prefetch_requested 0
Core_0_LLC_prefetch_issued 0
Core_0_LLC_prefetch_useful 0 LLC_Useful Ratio: -nan
Core_0_LLC_prefetch_useless 0
Core_0_LLC_prefetch_late 0
Core_0_LLC_average_miss_latency 293.33605

Core_0_major_page_fault 0
Core_0_minor_page_fault 83038

Channel_0_RQ_row_buffer_hit 6920000
Channel_0_RQ_row_buffer_miss 5215737
Channel_0_WQ_row_buffer_hit 2607742
Channel_0_WQ_row_buffer_miss 4468200
Channel_0_WQ_full 62
Channel_0_dbus_congested 6184747

avg_congested_cycle 10

EzSearch AVG IPC :0.87895: L2-Pf-HR :-nan : L2-HR :0.74509 Uful:-nan
     > Finished combination: TraceType=770-tot Sim:2361000000 Prefetcher=L2no L1=no
