TRACE: [1183000000][GPT-Neo-1_3B]_[h16][s1024][d128] Warmup: 2000000 NumTraces: 1183000000
L1:next_line:L2:029-SecTOP-L2-MultiMarkovDelta_ip_stride_v4
*************************************************
   ChampSim Multicore Out-of-Order Simulator
   Last compiled: Oct 27 2024 09:34:03
*************************************************

trace_0 770-tot_memTraces_v3/memTraces[1183000000][GPT-Neo-1_3B]_[h16][s1024][d128].champsim.xz
CPU 0 L1D next line prefetcher
MK1: Size: 128 TMAX: 64 TMIN: 32 MKPTHRESH: 40
MK2: Size: 256 TMAX: 32 TMIN: 16 MK2PTHRESH: 20
MK3: Size: 384 TMAX: 16 TMIN: 8 MK3PTHRESH: 25
MK4: Size: 512 TMAX: 8 TMIN: 0 MK4PTHRESH: 20
Stride Size: 512 Prefetch Degree: 15

CPU 0 L2C prefetcher
MAIN.cc ln 751 stats print skipped
CPU 0 L2C prefetcher initialized


Cache Size: 1280
number of cache lines: 20480
CPU  0 inst:    1000001 cyc:     499798 now IPC :2.00081: AVG IPC :2.00081: L2-Pf-HR :0.91291: L2-HR :0.88396: (Sim:0h0m17s) 
CPU  0 inst:    2000002 cyc:     985631 now IPC :2.05832: AVG IPC :2.02916: L2-Pf-HR :0.94462: L2-HR :0.92176: (Sim:0h0m36s) 

Warmup complete CPU  0 instructions:    2000002 cycles:     985631 (Simulation time: 0 hr 0 min 36 sec) 

CPU  0 inst:    3000001 cyc:    1518730 now IPC :1.87582: AVG IPC :1.87582: L2-Pf-HR :0.94275: L2-HR :0.92089: (Sim:0h0m50s) 
CPU  0 inst:    4000000 cyc:    2037290 now IPC :1.92842: AVG IPC :1.90176: L2-Pf-HR :0.94371: L2-HR :0.92208: (Sim:0h1m5s) 
CPU  0 inst:    5000005 cyc:    2558796 now IPC :1.91753: AVG IPC :1.90699: L2-Pf-HR :0.94391: L2-HR :0.92274: (Sim:0h1m20s) 
CPU  0 inst:    6000001 cyc:    3078482 now IPC :1.92423: AVG IPC :1.91127: L2-Pf-HR :0.94507: L2-HR :0.92413: (Sim:0h1m36s) 
CPU  0 inst:    7000000 cyc:    3595562 now IPC :1.93393: AVG IPC :1.91576: L2-Pf-HR :0.94585: L2-HR :0.92509: (Sim:0h1m50s) 
CPU  0 inst:    8000005 cyc:    4113615 now IPC :1.93031: AVG IPC :1.91817: L2-Pf-HR :0.94649: L2-HR :0.92569: (Sim:0h2m2s) 
CPU  0 inst:    9000000 cyc:    4633662 now IPC :1.92289: AVG IPC :1.91884: L2-Pf-HR :0.94689: L2-HR :0.92611: (Sim:0h2m10s) 
CPU  0 inst:   10000003 cyc:    5154820 now IPC :1.91881: AVG IPC :1.91884: L2-Pf-HR :0.94727: L2-HR :0.92649: (Sim:0h2m18s) 
CPU  0 inst:   11000005 cyc:    5682526 now IPC :1.89500: AVG IPC :1.91616: L2-Pf-HR :0.94797: L2-HR :0.92702: (Sim:0h2m25s) 
CPU  0 inst:   12000004 cyc:    6210535 now IPC :1.89391: AVG IPC :1.91391: L2-Pf-HR :0.94848: L2-HR :0.92739: (Sim:0h2m33s) 
CPU  0 inst:   13000000 cyc:    6859611 now IPC :1.54065: AVG IPC :1.87267: L2-Pf-HR :0.94623: L2-HR :0.92486: (Sim:0h2m43s) 
CPU  0 inst:   14000002 cyc:    7378183 now IPC :1.92838: AVG IPC :1.87718: L2-Pf-HR :0.94641: L2-HR :0.92521: (Sim:0h2m51s) 
CPU  0 inst:   15000002 cyc:    7888982 now IPC :1.95772: AVG IPC :1.88314: L2-Pf-HR :0.94691: L2-HR :0.92588: (Sim:0h2m59s) 
CPU  0 inst:   16000000 cyc:    8398132 now IPC :1.96405: AVG IPC :1.88870: L2-Pf-HR :0.94739: L2-HR :0.92641: (Sim:0h3m7s) 
CPU  0 inst:   17000001 cyc:    8903481 now IPC :1.97883: AVG IPC :1.89445: L2-Pf-HR :0.94776: L2-HR :0.92688: (Sim:0h3m14s) 
CPU  0 inst:   18000001 cyc:    9414210 now IPC :1.95799: AVG IPC :1.89830: L2-Pf-HR :0.94821: L2-HR :0.92746: (Sim:0h3m22s) 
CPU  0 inst:   19000000 cyc:    9925770 now IPC :1.95480: AVG IPC :1.90154: L2-Pf-HR :0.94847: L2-HR :0.92777: (Sim:0h3m30s) 
CPU  0 inst:   20000005 cyc:   10430333 now IPC :1.98192: AVG IPC :1.90583: L2-Pf-HR :0.94864: L2-HR :0.92795: (Sim:0h3m37s) 
CPU  0 inst:   21000005 cyc:   10940023 now IPC :1.96198: AVG IPC :1.90871: L2-Pf-HR :0.94872: L2-HR :0.92805: (Sim:0h3m51s) 
CPU  0 inst:   22000000 cyc:   11445812 now IPC :1.97710: AVG IPC :1.91201: L2-Pf-HR :0.94894: L2-HR :0.92826: (Sim:0h4m7s) 
CPU  0 inst:   23000002 cyc:   11951006 now IPC :1.97944: AVG IPC :1.91512: L2-Pf-HR :0.94942: L2-HR :0.92869: (Sim:0h4m23s) 
CPU  0 inst:   24000003 cyc:   12565167 now IPC :1.62824: AVG IPC :1.89990: L2-Pf-HR :0.94910: L2-HR :0.92822: (Sim:0h4m35s) 
CPU  0 inst:   25000001 cyc:   13092172 now IPC :1.89751: AVG IPC :1.89980: L2-Pf-HR :0.94946: L2-HR :0.92927: (Sim:0h4m42s) 
CPU  0 inst:   26000003 cyc:   13596363 now IPC :1.98338: AVG IPC :1.90314: L2-Pf-HR :0.95016: L2-HR :0.93063: (Sim:0h4m50s) 
CPU  0 inst:   27000002 cyc:   14101209 now IPC :1.98080: AVG IPC :1.90613: L2-Pf-HR :0.95081: L2-HR :0.93189: (Sim:0h4m59s) 
CPU  0 inst:   28000000 cyc:   14605129 now IPC :1.98444: AVG IPC :1.90903: L2-Pf-HR :0.95145: L2-HR :0.93313: (Sim:0h5m7s) 
CPU  0 inst:   29000003 cyc:   15105492 now IPC :1.99856: AVG IPC :1.91220: L2-Pf-HR :0.95207: L2-HR :0.93432: (Sim:0h5m16s) 
CPU  0 inst:   30000001 cyc:   15603161 now IPC :2.00936: AVG IPC :1.91551: L2-Pf-HR :0.95269: L2-HR :0.93545: (Sim:0h5m24s) 
CPU  0 inst:   31000005 cyc:   16098074 now IPC :2.02057: AVG IPC :1.91895: L2-Pf-HR :0.95350: L2-HR :0.93670: (Sim:0h5m32s) 
CPU  0 inst:   32000002 cyc:   16805406 now IPC :1.41376: AVG IPC :1.89636: L2-Pf-HR :0.95279: L2-HR :0.93587: (Sim:0h5m40s) 
CPU  0 inst:   33000004 cyc:   17366247 now IPC :1.78304: AVG IPC :1.89248: L2-Pf-HR :0.95260: L2-HR :0.93550: (Sim:0h5m48s) 
CPU  0 inst:   34000003 cyc:   17911803 now IPC :1.83299: AVG IPC :1.89056: L2-Pf-HR :0.95246: L2-HR :0.93520: (Sim:0h5m56s) 
CPU  0 inst:   35000005 cyc:   18443660 now IPC :1.88021: AVG IPC :1.89025: L2-Pf-HR :0.95233: L2-HR :0.93495: (Sim:0h6m4s) 
CPU  0 inst:   36000003 cyc:   18988394 now IPC :1.83575: AVG IPC :1.88860: L2-Pf-HR :0.95225: L2-HR :0.93475: (Sim:0h6m11s) 
CPU  0 inst:   37000003 cyc:   19524342 now IPC :1.86585: AVG IPC :1.88794: L2-Pf-HR :0.95221: L2-HR :0.93461: (Sim:0h6m19s) 
CPU  0 inst:   38000005 cyc:   20065378 now IPC :1.84831: AVG IPC :1.88682: L2-Pf-HR :0.95213: L2-HR :0.93447: (Sim:0h6m27s) 
CPU  0 inst:   39000004 cyc:   20602086 now IPC :1.86321: AVG IPC :1.88617: L2-Pf-HR :0.95209: L2-HR :0.93433: (Sim:0h6m34s) 
CPU  0 inst:   40000003 cyc:   21133594 now IPC :1.88144: AVG IPC :1.88605: L2-Pf-HR :0.95203: L2-HR :0.93417: (Sim:0h6m42s) 
CPU  0 inst:   41000001 cyc:   21673044 now IPC :1.85374: AVG IPC :1.88520: L2-Pf-HR :0.95201: L2-HR :0.93407: (Sim:0h6m50s) 
CPU  0 inst:   42000004 cyc:   22213798 now IPC :1.84928: AVG IPC :1.88429: L2-Pf-HR :0.95203: L2-HR :0.93402: (Sim:0h6m57s) 
CPU  0 inst:   43000003 cyc:   22757455 now IPC :1.83939: AVG IPC :1.88317: L2-Pf-HR :0.95224: L2-HR :0.93411: (Sim:0h7m5s) 
CPU  0 inst:   44000000 cyc:   23435921 now IPC :1.47391: AVG IPC :1.87080: L2-Pf-HR :0.95166: L2-HR :0.93332: (Sim:0h7m13s) 
CPU  0 inst:   45000002 cyc:   23968516 now IPC :1.87760: AVG IPC :1.87096: L2-Pf-HR :0.95153: L2-HR :0.93314: (Sim:0h7m21s) 
CPU  0 inst:   46000005 cyc:   24484531 now IPC :1.93793: AVG IPC :1.87243: L2-Pf-HR :0.95149: L2-HR :0.93308: (Sim:0h7m29s) 
CPU  0 inst:   47000005 cyc:   24998465 now IPC :1.94578: AVG IPC :1.87400: L2-Pf-HR :0.95150: L2-HR :0.93306: (Sim:0h7m37s) 
CPU  0 inst:   48000001 cyc:   25515628 now IPC :1.93362: AVG IPC :1.87525: L2-Pf-HR :0.95148: L2-HR :0.93302: (Sim:0h7m44s) 
CPU  0 inst:   49000001 cyc:   26027312 now IPC :1.95433: AVG IPC :1.87687: L2-Pf-HR :0.95155: L2-HR :0.93308: (Sim:0h7m52s) 
CPU  0 inst:   50000004 cyc:   26538974 now IPC :1.95442: AVG IPC :1.87842: L2-Pf-HR :0.95160: L2-HR :0.93312: (Sim:0h7m59s) 
CPU  0 inst:   51000002 cyc:   27046896 now IPC :1.96880: AVG IPC :1.88019: L2-Pf-HR :0.95163: L2-HR :0.93315: (Sim:0h8m7s) 
CPU  0 inst:   52000002 cyc:   27553621 now IPC :1.97346: AVG IPC :1.88196: L2-Pf-HR :0.95162: L2-HR :0.93312: (Sim:0h8m15s) 
CPU  0 inst:   53000005 cyc:   28060301 now IPC :1.97364: AVG IPC :1.88368: L2-Pf-HR :0.95165: L2-HR :0.93311: (Sim:0h8m22s) 
CPU  0 inst:   54000005 cyc:   28567575 now IPC :1.97132: AVG IPC :1.88529: L2-Pf-HR :0.95174: L2-HR :0.93317: (Sim:0h8m30s) 
CPU  0 inst:   55000004 cyc:   29073088 now IPC :1.97819: AVG IPC :1.88696: L2-Pf-HR :0.95196: L2-HR :0.93331: (Sim:0h8m38s) 
CPU  0 inst:   56000001 cyc:   29712034 now IPC :1.56507: AVG IPC :1.87980: L2-Pf-HR :0.95168: L2-HR :0.93304: (Sim:0h8m46s) 
CPU  0 inst:   57000000 cyc:   30220563 now IPC :1.96645: AVG IPC :1.88131: L2-Pf-HR :0.95186: L2-HR :0.93347: (Sim:0h8m53s) 
CPU  0 inst:   58000002 cyc:   30719200 now IPC :2.00547: AVG IPC :1.88339: L2-Pf-HR :0.95209: L2-HR :0.93395: (Sim:0h9m1s) 
CPU  0 inst:   59000005 cyc:   31218510 now IPC :2.00277: AVG IPC :1.88536: L2-Pf-HR :0.95235: L2-HR :0.93447: (Sim:0h9m8s) 
CPU  0 inst:   60000001 cyc:   31721158 now IPC :1.98946: AVG IPC :1.88707: L2-Pf-HR :0.95262: L2-HR :0.93499: (Sim:0h9m16s) 
CPU  0 inst:   61000002 cyc:   32222096 now IPC :1.99626: AVG IPC :1.88882: L2-Pf-HR :0.95285: L2-HR :0.93545: (Sim:0h9m24s) 
CPU  0 inst:   62000003 cyc:   32721485 now IPC :2.00245: AVG IPC :1.89061: L2-Pf-HR :0.95315: L2-HR :0.93596: (Sim:0h9m31s) 
CPU  0 inst:   63000000 cyc:   33217104 now IPC :2.01767: AVG IPC :1.89256: L2-Pf-HR :0.95359: L2-HR :0.93659: (Sim:0h9m39s) 
CPU  0 inst:   64000000 cyc:   33951119 now IPC :1.36237: AVG IPC :1.88075: L2-Pf-HR :0.95303: L2-HR :0.93585: (Sim:0h9m47s) 
CPU  0 inst:   65000002 cyc:   34501894 now IPC :1.81563: AVG IPC :1.87968: L2-Pf-HR :0.95288: L2-HR :0.93563: (Sim:0h9m55s) 
CPU  0 inst:   66000001 cyc:   35036254 now IPC :1.87140: AVG IPC :1.87955: L2-Pf-HR :0.95277: L2-HR :0.93546: (Sim:0h10m2s) 
CPU  0 inst:   67000000 cyc:   35584061 now IPC :1.82546: AVG IPC :1.87870: L2-Pf-HR :0.95265: L2-HR :0.93530: (Sim:0h10m10s) 
CPU  0 inst:   68000001 cyc:   36118809 now IPC :1.87004: AVG IPC :1.87857: L2-Pf-HR :0.95253: L2-HR :0.93512: (Sim:0h10m18s) 
CPU  0 inst:   69000004 cyc:   36651380 now IPC :1.87769: AVG IPC :1.87855: L2-Pf-HR :0.95246: L2-HR :0.93501: (Sim:0h10m26s) 
CPU  0 inst:   70000000 cyc:   37191311 now IPC :1.85208: AVG IPC :1.87816: L2-Pf-HR :0.95236: L2-HR :0.93487: (Sim:0h10m34s) 
CPU  0 inst:   71000002 cyc:   37718718 now IPC :1.89607: AVG IPC :1.87842: L2-Pf-HR :0.95229: L2-HR :0.93475: (Sim:0h10m41s) 
CPU  0 inst:   72000001 cyc:   38261407 now IPC :1.84267: AVG IPC :1.87790: L2-Pf-HR :0.95220: L2-HR :0.93460: (Sim:0h10m49s) 
CPU  0 inst:   73000000 cyc:   38796346 now IPC :1.86937: AVG IPC :1.87777: L2-Pf-HR :0.95209: L2-HR :0.93445: (Sim:0h10m57s) 
CPU  0 inst:   74000002 cyc:   39335352 now IPC :1.85527: AVG IPC :1.87746: L2-Pf-HR :0.95210: L2-HR :0.93440: (Sim:0h11m5s) 
CPU  0 inst:   75000002 cyc:   39858519 now IPC :1.91144: AVG IPC :1.87792: L2-Pf-HR :0.95217: L2-HR :0.93439: (Sim:0h11m12s) 
CPU  0 inst:   76000005 cyc:   40547086 now IPC :1.45230: AVG IPC :1.87051: L2-Pf-HR :0.95175: L2-HR :0.93387: (Sim:0h11m21s) 
CPU  0 inst:   77000002 cyc:   41066267 now IPC :1.92610: AVG IPC :1.87123: L2-Pf-HR :0.95171: L2-HR :0.93381: (Sim:0h11m28s) 
CPU  0 inst:   78000002 cyc:   41574849 now IPC :1.96625: AVG IPC :1.87242: L2-Pf-HR :0.95175: L2-HR :0.93381: (Sim:0h11m36s) 
CPU  0 inst:   79000000 cyc:   42093795 now IPC :1.92698: AVG IPC :1.87311: L2-Pf-HR :0.95178: L2-HR :0.93380: (Sim:0h11m44s) 
CPU  0 inst:   80000001 cyc:   42607279 now IPC :1.94748: AVG IPC :1.87402: L2-Pf-HR :0.95180: L2-HR :0.93379: (Sim:0h11m51s) 
CPU  0 inst:   81000005 cyc:   43120279 now IPC :1.94933: AVG IPC :1.87494: L2-Pf-HR :0.95184: L2-HR :0.93380: (Sim:0h11m59s) 
CPU  0 inst:   82000000 cyc:   43631080 now IPC :1.95770: AVG IPC :1.87593: L2-Pf-HR :0.95186: L2-HR :0.93380: (Sim:0h12m6s) 
CPU  0 inst:   83000000 cyc:   44134071 now IPC :1.98811: AVG IPC :1.87724: L2-Pf-HR :0.95190: L2-HR :0.93381: (Sim:0h12m14s) 
CPU  0 inst:   84000003 cyc:   44645356 now IPC :1.95586: AVG IPC :1.87816: L2-Pf-HR :0.95192: L2-HR :0.93380: (Sim:0h12m22s) 
CPU  0 inst:   85000002 cyc:   45154701 now IPC :1.96330: AVG IPC :1.87914: L2-Pf-HR :0.95198: L2-HR :0.93382: (Sim:0h12m29s) 
CPU  0 inst:   86000003 cyc:   45661403 now IPC :1.97355: AVG IPC :1.88021: L2-Pf-HR :0.95210: L2-HR :0.93392: (Sim:0h12m37s) 
CPU  0 inst:   87000002 cyc:   46230794 now IPC :1.75626: AVG IPC :1.87865: L2-Pf-HR :0.95203: L2-HR :0.93376: (Sim:0h12m45s) 
CPU  0 inst:   88000004 cyc:   46783982 now IPC :1.80771: AVG IPC :1.87780: L2-Pf-HR :0.95205: L2-HR :0.93390: (Sim:0h12m53s) 
CPU  0 inst:   89000003 cyc:   47288183 now IPC :1.98333: AVG IPC :1.87895: L2-Pf-HR :0.95218: L2-HR :0.93419: (Sim:0h13m0s) 
CPU  0 inst:   90000003 cyc:   47791159 now IPC :1.98817: AVG IPC :1.88012: L2-Pf-HR :0.95234: L2-HR :0.93451: (Sim:0h13m8s) 
CPU  0 inst:   91000005 cyc:   48290964 now IPC :2.00078: AVG IPC :1.88139: L2-Pf-HR :0.95252: L2-HR :0.93485: (Sim:0h13m16s) 
CPU  0 inst:   92000003 cyc:   48789441 now IPC :2.00611: AVG IPC :1.88270: L2-Pf-HR :0.95269: L2-HR :0.93518: (Sim:0h13m23s) 
CPU  0 inst:   93000005 cyc:   49290760 now IPC :1.99474: AVG IPC :1.88386: L2-Pf-HR :0.95287: L2-HR :0.93551: (Sim:0h13m31s) 
CPU  0 inst:   94000000 cyc:   49789861 now IPC :2.00359: AVG IPC :1.88508: L2-Pf-HR :0.95310: L2-HR :0.93588: (Sim:0h13m39s) 
CPU  0 inst:   95000002 cyc:   50468414 now IPC :1.47373: AVG IPC :1.87944: L2-Pf-HR :0.95296: L2-HR :0.93572: (Sim:0h13m47s) 
CPU  0 inst:   96000004 cyc:   51057119 now IPC :1.69865: AVG IPC :1.87732: L2-Pf-HR :0.95285: L2-HR :0.93556: (Sim:0h13m55s) 
CPU  0 inst:   97000000 cyc:   51599932 now IPC :1.84225: AVG IPC :1.87694: L2-Pf-HR :0.95282: L2-HR :0.93548: (Sim:0h14m2s) 
CPU  0 inst:   98000005 cyc:   52147435 now IPC :1.82648: AVG IPC :1.87640: L2-Pf-HR :0.95276: L2-HR :0.93539: (Sim:0h14m10s) 
CPU  0 inst:   99000003 cyc:   52683398 now IPC :1.86580: AVG IPC :1.87629: L2-Pf-HR :0.95273: L2-HR :0.93531: (Sim:0h14m18s) 
CPU  0 inst:  100000002 cyc:   53215846 now IPC :1.87812: AVG IPC :1.87631: L2-Pf-HR :0.95269: L2-HR :0.93524: (Sim:0h14m26s) 
CPU  0 inst:  101000005 cyc:   53758592 now IPC :1.84249: AVG IPC :1.87596: L2-Pf-HR :0.95266: L2-HR :0.93516: (Sim:0h14m34s) 
CPU  0 inst:  102000000 cyc:   54288522 now IPC :1.88703: AVG IPC :1.87607: L2-Pf-HR :0.95265: L2-HR :0.93512: (Sim:0h14m42s) 
CPU  0 inst:  103000003 cyc:   54819662 now IPC :1.88275: AVG IPC :1.87614: L2-Pf-HR :0.95261: L2-HR :0.93505: (Sim:0h14m50s) 
CPU  0 inst:  104000005 cyc:   55359034 now IPC :1.85401: AVG IPC :1.87592: L2-Pf-HR :0.95258: L2-HR :0.93498: (Sim:0h14m57s) 
CPU  0 inst:  105000003 cyc:   55904158 now IPC :1.83444: AVG IPC :1.87551: L2-Pf-HR :0.95258: L2-HR :0.93494: (Sim:0h15m5s) 
CPU  0 inst:  106000000 cyc:   56443994 now IPC :1.85241: AVG IPC :1.87528: L2-Pf-HR :0.95262: L2-HR :0.93492: (Sim:0h15m13s) 
CPU  0 inst:  107000005 cyc:   57119299 now IPC :1.48082: AVG IPC :1.87054: L2-Pf-HR :0.95243: L2-HR :0.93464: (Sim:0h15m21s) 
CPU  0 inst:  108000002 cyc:   57675378 now IPC :1.79830: AVG IPC :1.86983: L2-Pf-HR :0.95241: L2-HR :0.93460: (Sim:0h15m29s) 
CPU  0 inst:  109000001 cyc:   58191551 now IPC :1.93733: AVG IPC :1.87044: L2-Pf-HR :0.95242: L2-HR :0.93458: (Sim:0h15m36s) 
CPU  0 inst:  110000001 cyc:   58712534 now IPC :1.91945: AVG IPC :1.87088: L2-Pf-HR :0.95243: L2-HR :0.93458: (Sim:0h15m44s) 
CPU  0 inst:  111000001 cyc:   59226776 now IPC :1.94461: AVG IPC :1.87153: L2-Pf-HR :0.95245: L2-HR :0.93457: (Sim:0h15m52s) 
CPU  0 inst:  112000000 cyc:   59737850 now IPC :1.95666: AVG IPC :1.87227: L2-Pf-HR :0.95247: L2-HR :0.93458: (Sim:0h15m59s) 
CPU  0 inst:  113000004 cyc:   60250438 now IPC :1.95089: AVG IPC :1.87295: L2-Pf-HR :0.95251: L2-HR :0.93459: (Sim:0h16m7s) 
CPU  0 inst:  114000003 cyc:   60763517 now IPC :1.94902: AVG IPC :1.87360: L2-Pf-HR :0.95254: L2-HR :0.93460: (Sim:0h16m15s) 
CPU  0 inst:  115000004 cyc:   61273695 now IPC :1.96010: AVG IPC :1.87433: L2-Pf-HR :0.95254: L2-HR :0.93457: (Sim:0h16m22s) 
CPU  0 inst:  116000005 cyc:   61788494 now IPC :1.94251: AVG IPC :1.87491: L2-Pf-HR :0.95257: L2-HR :0.93458: (Sim:0h16m30s) 
CPU  0 inst:  117000005 cyc:   62301867 now IPC :1.94790: AVG IPC :1.87552: L2-Pf-HR :0.95263: L2-HR :0.93461: (Sim:0h16m38s) 
CPU  0 inst:  118000000 cyc:   62813035 now IPC :1.95629: AVG IPC :1.87619: L2-Pf-HR :0.95273: L2-HR :0.93468: (Sim:0h16m45s) 
CPU  0 inst:  119000000 cyc:   63437936 now IPC :1.60025: AVG IPC :1.87343: L2-Pf-HR :0.95260: L2-HR :0.93453: (Sim:0h16m53s) 
CPU  0 inst:  120000000 cyc:   63952517 now IPC :1.94333: AVG IPC :1.87400: L2-Pf-HR :0.95267: L2-HR :0.93470: (Sim:0h17m1s) 
CPU  0 inst:  121000000 cyc:   64453397 now IPC :1.99649: AVG IPC :1.87497: L2-Pf-HR :0.95279: L2-HR :0.93493: (Sim:0h17m8s) 
CPU  0 inst:  122000001 cyc:   64955137 now IPC :1.99307: AVG IPC :1.87589: L2-Pf-HR :0.95290: L2-HR :0.93516: (Sim:0h17m17s) 
CPU  0 inst:  123000000 cyc:   65451978 now IPC :2.01271: AVG IPC :1.87695: L2-Pf-HR :0.95302: L2-HR :0.93539: (Sim:0h17m25s) 
CPU  0 inst:  124000001 cyc:   65952570 now IPC :1.99764: AVG IPC :1.87788: L2-Pf-HR :0.95314: L2-HR :0.93562: (Sim:0h17m33s) 
CPU  0 inst:  125000003 cyc:   66450495 now IPC :2.00834: AVG IPC :1.87887: L2-Pf-HR :0.95327: L2-HR :0.93586: (Sim:0h17m48s) 
CPU  0 inst:  126000001 cyc:   66947511 now IPC :2.01200: AVG IPC :1.87987: L2-Pf-HR :0.95348: L2-HR :0.93617: (Sim:0h18m5s) 
CPU  0 inst:  127000005 cyc:   67683507 now IPC :1.35871: AVG IPC :1.87412: L2-Pf-HR :0.95322: L2-HR :0.93584: (Sim:0h18m23s) 
CPU  0 inst:  128000002 cyc:   68230473 now IPC :1.82826: AVG IPC :1.87375: L2-Pf-HR :0.95317: L2-HR :0.93575: (Sim:0h18m40s) 
CPU  0 inst:  129000001 cyc:   68777881 now IPC :1.82679: AVG IPC :1.87337: L2-Pf-HR :0.95311: L2-HR :0.93567: (Sim:0h18m57s) 
CPU  0 inst:  130000002 cyc:   69313640 now IPC :1.86651: AVG IPC :1.87332: L2-Pf-HR :0.95306: L2-HR :0.93559: (Sim:0h19m13s) 
CPU  0 inst:  131000004 cyc:   69847462 now IPC :1.87329: AVG IPC :1.87332: L2-Pf-HR :0.95301: L2-HR :0.93552: (Sim:0h19m30s) 
CPU  0 inst:  132000002 cyc:   70387724 now IPC :1.85095: AVG IPC :1.87314: L2-Pf-HR :0.95298: L2-HR :0.93547: (Sim:0h19m46s) 
CPU  0 inst:  133000000 cyc:   70919496 now IPC :1.88050: AVG IPC :1.87320: L2-Pf-HR :0.95296: L2-HR :0.93542: (Sim:0h20m3s) 
CPU  0 inst:  134000002 cyc:   71460221 now IPC :1.84937: AVG IPC :1.87302: L2-Pf-HR :0.95292: L2-HR :0.93536: (Sim:0h20m19s) 
CPU  0 inst:  135000005 cyc:   71999439 now IPC :1.85454: AVG IPC :1.87288: L2-Pf-HR :0.95286: L2-HR :0.93528: (Sim:0h20m36s) 
CPU  0 inst:  136000000 cyc:   72535337 now IPC :1.86602: AVG IPC :1.87282: L2-Pf-HR :0.95283: L2-HR :0.93522: (Sim:0h20m53s) 
CPU  0 inst:  137000002 cyc:   73070896 now IPC :1.86721: AVG IPC :1.87278: L2-Pf-HR :0.95282: L2-HR :0.93518: (Sim:0h21m9s) 
CPU  0 inst:  138000003 cyc:   73593436 now IPC :1.91373: AVG IPC :1.87308: L2-Pf-HR :0.95289: L2-HR :0.93521: (Sim:0h21m26s) 
CPU  0 inst:  139000005 cyc:   74271522 now IPC :1.47474: AVG IPC :1.86939: L2-Pf-HR :0.95267: L2-HR :0.93494: (Sim:0h21m43s) 
CPU  0 inst:  140000004 cyc:   74791332 now IPC :1.92378: AVG IPC :1.86977: L2-Pf-HR :0.95266: L2-HR :0.93492: (Sim:0h22m0s) 
CPU  0 inst:  141000004 cyc:   75302202 now IPC :1.95745: AVG IPC :1.87038: L2-Pf-HR :0.95266: L2-HR :0.93491: (Sim:0h22m16s) 
CPU  0 inst:  142000004 cyc:   75812508 now IPC :1.95961: AVG IPC :1.87099: L2-Pf-HR :0.95267: L2-HR :0.93491: (Sim:0h22m32s) 
CPU  0 inst:  143000003 cyc:   76319551 now IPC :1.97222: AVG IPC :1.87167: L2-Pf-HR :0.95269: L2-HR :0.93491: (Sim:0h22m49s) 
CPU  0 inst:  144000003 cyc:   76829301 now IPC :1.96175: AVG IPC :1.87227: L2-Pf-HR :0.95272: L2-HR :0.93492: (Sim:0h23m5s) 
CPU  0 inst:  145000003 cyc:   77339994 now IPC :1.95812: AVG IPC :1.87285: L2-Pf-HR :0.95273: L2-HR :0.93493: (Sim:0h23m21s) 
CPU  0 inst:  146000001 cyc:   77845685 now IPC :1.97749: AVG IPC :1.87353: L2-Pf-HR :0.95274: L2-HR :0.93492: (Sim:0h23m38s) 
CPU  0 inst:  147000005 cyc:   78362517 now IPC :1.93487: AVG IPC :1.87394: L2-Pf-HR :0.95277: L2-HR :0.93493: (Sim:0h23m54s) 
CPU  0 inst:  148000005 cyc:   78879018 now IPC :1.93610: AVG IPC :1.87436: L2-Pf-HR :0.95280: L2-HR :0.93494: (Sim:0h24m10s) 
CPU  0 inst:  149000005 cyc:   79392888 now IPC :1.94602: AVG IPC :1.87483: L2-Pf-HR :0.95285: L2-HR :0.93497: (Sim:0h24m27s) 
CPU  0 inst:  150000005 cyc:   79901739 now IPC :1.96521: AVG IPC :1.87541: L2-Pf-HR :0.95291: L2-HR :0.93500: (Sim:0h24m43s) 
CPU  0 inst:  151000005 cyc:   80536170 now IPC :1.57622: AVG IPC :1.87302: L2-Pf-HR :0.95282: L2-HR :0.93494: (Sim:0h25m0s) 
CPU  0 inst:  152000002 cyc:   81041481 now IPC :1.97897: AVG IPC :1.87369: L2-Pf-HR :0.95288: L2-HR :0.93510: (Sim:0h25m16s) 
CPU  0 inst:  153000000 cyc:   81544270 now IPC :1.98890: AVG IPC :1.87441: L2-Pf-HR :0.95297: L2-HR :0.93528: (Sim:0h25m32s) 
CPU  0 inst:  154000005 cyc:   82045944 now IPC :1.99334: AVG IPC :1.87515: L2-Pf-HR :0.95307: L2-HR :0.93548: (Sim:0h25m49s) 
CPU  0 inst:  155000000 cyc:   82546617 now IPC :1.99730: AVG IPC :1.87590: L2-Pf-HR :0.95317: L2-HR :0.93567: (Sim:0h26m5s) 
CPU  0 inst:  156000002 cyc:   83046651 now IPC :1.99987: AVG IPC :1.87665: L2-Pf-HR :0.95326: L2-HR :0.93585: (Sim:0h26m21s) 
CPU  0 inst:  157000000 cyc:   83552442 now IPC :1.97710: AVG IPC :1.87727: L2-Pf-HR :0.95340: L2-HR :0.93607: (Sim:0h26m37s) 
CPU  0 inst:  158000000 cyc:   84178625 now IPC :1.59698: AVG IPC :1.87516: L2-Pf-HR :0.95335: L2-HR :0.93602: (Sim:0h26m54s) 
CPU  0 inst:  159000004 cyc:   84785957 now IPC :1.64655: AVG IPC :1.87350: L2-Pf-HR :0.95327: L2-HR :0.93590: (Sim:0h27m11s) 
CPU  0 inst:  160000005 cyc:   85337049 now IPC :1.81458: AVG IPC :1.87312: L2-Pf-HR :0.95322: L2-HR :0.93583: (Sim:0h27m28s) 
CPU  0 inst:  161000005 cyc:   85874432 now IPC :1.86087: AVG IPC :1.87304: L2-Pf-HR :0.95316: L2-HR :0.93575: (Sim:0h27m45s) 
CPU  0 inst:  162000001 cyc:   86410534 now IPC :1.86531: AVG IPC :1.87299: L2-Pf-HR :0.95312: L2-HR :0.93569: (Sim:0h28m2s) 
CPU  0 inst:  163000003 cyc:   86949323 now IPC :1.85602: AVG IPC :1.87288: L2-Pf-HR :0.95306: L2-HR :0.93562: (Sim:0h28m18s) 
CPU  0 inst:  164000005 cyc:   87478196 now IPC :1.89082: AVG IPC :1.87299: L2-Pf-HR :0.95304: L2-HR :0.93558: (Sim:0h28m35s) 
CPU  0 inst:  165000004 cyc:   88021132 now IPC :1.84184: AVG IPC :1.87280: L2-Pf-HR :0.95301: L2-HR :0.93553: (Sim:0h28m51s) 
CPU  0 inst:  166000000 cyc:   88554086 now IPC :1.87633: AVG IPC :1.87282: L2-Pf-HR :0.95296: L2-HR :0.93546: (Sim:0h29m9s) 
CPU  0 inst:  167000001 cyc:   89094484 now IPC :1.85049: AVG IPC :1.87268: L2-Pf-HR :0.95292: L2-HR :0.93540: (Sim:0h29m25s) 
CPU  0 inst:  168000001 cyc:   89630728 now IPC :1.86482: AVG IPC :1.87264: L2-Pf-HR :0.95289: L2-HR :0.93534: (Sim:0h29m41s) 
CPU  0 inst:  169000003 cyc:   90163967 now IPC :1.87534: AVG IPC :1.87265: L2-Pf-HR :0.95290: L2-HR :0.93532: (Sim:0h29m56s) 
CPU  0 inst:  170000003 cyc:   90806430 now IPC :1.55651: AVG IPC :1.87039: L2-Pf-HR :0.95279: L2-HR :0.93516: (Sim:0h30m12s) 
CPU  0 inst:  171000001 cyc:   91382744 now IPC :1.73516: AVG IPC :1.86953: L2-Pf-HR :0.95273: L2-HR :0.93508: (Sim:0h30m27s) 
CPU  0 inst:  172000004 cyc:   91901387 now IPC :1.92811: AVG IPC :1.86986: L2-Pf-HR :0.95271: L2-HR :0.93506: (Sim:0h30m42s) 
CPU  0 inst:  173000001 cyc:   92413697 now IPC :1.95194: AVG IPC :1.87032: L2-Pf-HR :0.95271: L2-HR :0.93505: (Sim:0h30m50s) 
CPU  0 inst:  174000002 cyc:   92926534 now IPC :1.94994: AVG IPC :1.87077: L2-Pf-HR :0.95271: L2-HR :0.93504: (Sim:0h30m57s) 
CPU  0 inst:  175000003 cyc:   93434899 now IPC :1.96709: AVG IPC :1.87130: L2-Pf-HR :0.95273: L2-HR :0.93505: (Sim:0h31m5s) 
CPU  0 inst:  176000000 cyc:   93941985 now IPC :1.97205: AVG IPC :1.87185: L2-Pf-HR :0.95274: L2-HR :0.93505: (Sim:0h31m13s) 
CPU  0 inst:  177000005 cyc:   94447758 now IPC :1.97718: AVG IPC :1.87242: L2-Pf-HR :0.95276: L2-HR :0.93505: (Sim:0h31m20s) 
CPU  0 inst:  178000001 cyc:   94956301 now IPC :1.96639: AVG IPC :1.87292: L2-Pf-HR :0.95276: L2-HR :0.93505: (Sim:0h31m28s) 
CPU  0 inst:  179000003 cyc:   95471132 now IPC :1.94239: AVG IPC :1.87330: L2-Pf-HR :0.95277: L2-HR :0.93505: (Sim:0h31m38s) 
CPU  0 inst:  180000004 cyc:   95985175 now IPC :1.94536: AVG IPC :1.87369: L2-Pf-HR :0.95279: L2-HR :0.93505: (Sim:0h31m55s) 
CPU  0 inst:  181000000 cyc:   96493246 now IPC :1.96822: AVG IPC :1.87420: L2-Pf-HR :0.95285: L2-HR :0.93509: (Sim:0h32m11s) 
CPU  0 inst:  182000005 cyc:   97112602 now IPC :1.61459: AVG IPC :1.87252: L2-Pf-HR :0.95277: L2-HR :0.93499: (Sim:0h32m28s) 
CPU  0 inst:  183000005 cyc:   97631612 now IPC :1.92675: AVG IPC :1.87281: L2-Pf-HR :0.95282: L2-HR :0.93511: (Sim:0h32m45s) 
CPU  0 inst:  184000005 cyc:   98132394 now IPC :1.99688: AVG IPC :1.87345: L2-Pf-HR :0.95288: L2-HR :0.93524: (Sim:0h33m1s) 
CPU  0 inst:  185000004 cyc:   98633112 now IPC :1.99713: AVG IPC :1.87409: L2-Pf-HR :0.95295: L2-HR :0.93539: (Sim:0h33m17s) 
CPU  0 inst:  186000002 cyc:   99131378 now IPC :2.00696: AVG IPC :1.87476: L2-Pf-HR :0.95303: L2-HR :0.93555: (Sim:0h33m34s) 
CPU  0 inst:  187000004 cyc:   99628502 now IPC :2.01157: AVG IPC :1.87545: L2-Pf-HR :0.95312: L2-HR :0.93571: (Sim:0h33m50s) 
CPU  0 inst:  188000004 cyc:  100122538 now IPC :2.02414: AVG IPC :1.87619: L2-Pf-HR :0.95320: L2-HR :0.93587: (Sim:0h34m7s) 
CPU  0 inst:  189000001 cyc:  100617867 now IPC :2.01885: AVG IPC :1.87690: L2-Pf-HR :0.95334: L2-HR :0.93606: (Sim:0h34m23s) 
CPU  0 inst:  190000001 cyc:  101343319 now IPC :1.37845: AVG IPC :1.87330: L2-Pf-HR :0.95319: L2-HR :0.93588: (Sim:0h34m41s) 
CPU  0 inst:  191000005 cyc:  101903203 now IPC :1.78609: AVG IPC :1.87282: L2-Pf-HR :0.95315: L2-HR :0.93582: (Sim:0h34m57s) 
CPU  0 inst:  192000000 cyc:  102441134 now IPC :1.85897: AVG IPC :1.87274: L2-Pf-HR :0.95313: L2-HR :0.93578: (Sim:0h35m14s) 
CPU  0 inst:  193000000 cyc:  102978133 now IPC :1.86220: AVG IPC :1.87269: L2-Pf-HR :0.95311: L2-HR :0.93574: (Sim:0h35m31s) 
CPU  0 inst:  194000004 cyc:  103518350 now IPC :1.85112: AVG IPC :1.87257: L2-Pf-HR :0.95308: L2-HR :0.93570: (Sim:0h35m48s) 
CPU  0 inst:  195000005 cyc:  104052628 now IPC :1.87169: AVG IPC :1.87257: L2-Pf-HR :0.95308: L2-HR :0.93568: (Sim:0h36m5s) 
CPU  0 inst:  196000000 cyc:  104590278 now IPC :1.85994: AVG IPC :1.87250: L2-Pf-HR :0.95307: L2-HR :0.93565: (Sim:0h36m21s) 
CPU  0 inst:  197000002 cyc:  105126179 now IPC :1.86602: AVG IPC :1.87247: L2-Pf-HR :0.95304: L2-HR :0.93561: (Sim:0h36m38s) 
CPU  0 inst:  198000001 cyc:  105657674 now IPC :1.88148: AVG IPC :1.87252: L2-Pf-HR :0.95302: L2-HR :0.93557: (Sim:0h36m54s) 
CPU  0 inst:  199000001 cyc:  106197143 now IPC :1.85367: AVG IPC :1.87242: L2-Pf-HR :0.95302: L2-HR :0.93554: (Sim:0h37m11s) 
CPU  0 inst:  200000005 cyc:  106738741 now IPC :1.84640: AVG IPC :1.87229: L2-Pf-HR :0.95303: L2-HR :0.93553: (Sim:0h37m27s) 
CPU  0 inst:  201000004 cyc:  107276837 now IPC :1.85840: AVG IPC :1.87222: L2-Pf-HR :0.95306: L2-HR :0.93553: (Sim:0h37m43s) 
CPU  0 inst:  202000001 cyc:  107959224 now IPC :1.46544: AVG IPC :1.86962: L2-Pf-HR :0.95290: L2-HR :0.93534: (Sim:0h38m1s) 
CPU  0 inst:  203000001 cyc:  108485132 now IPC :1.90147: AVG IPC :1.86978: L2-Pf-HR :0.95289: L2-HR :0.93532: (Sim:0h38m17s) 
CPU  0 inst:  204000001 cyc:  108989434 now IPC :1.98294: AVG IPC :1.87030: L2-Pf-HR :0.95289: L2-HR :0.93530: (Sim:0h38m33s) 
CPU  0 inst:  205000003 cyc:  109500351 now IPC :1.95727: AVG IPC :1.87071: L2-Pf-HR :0.95288: L2-HR :0.93528: (Sim:0h38m49s) 
CPU  0 inst:  206000005 cyc:  110003206 now IPC :1.98865: AVG IPC :1.87126: L2-Pf-HR :0.95288: L2-HR :0.93527: (Sim:0h39m5s) 
CPU  0 inst:  207000000 cyc:  110507545 now IPC :1.98278: AVG IPC :1.87177: L2-Pf-HR :0.95289: L2-HR :0.93527: (Sim:0h39m21s) 
CPU  0 inst:  208000002 cyc:  111019129 now IPC :1.95472: AVG IPC :1.87216: L2-Pf-HR :0.95290: L2-HR :0.93527: (Sim:0h39m37s) 
CPU  0 inst:  209000004 cyc:  111526907 now IPC :1.96937: AVG IPC :1.87260: L2-Pf-HR :0.95291: L2-HR :0.93527: (Sim:0h39m54s) 
CPU  0 inst:  210000003 cyc:  112034818 now IPC :1.96885: AVG IPC :1.87304: L2-Pf-HR :0.95292: L2-HR :0.93526: (Sim:0h40m10s) 
CPU  0 inst:  211000000 cyc:  112540233 now IPC :1.97857: AVG IPC :1.87352: L2-Pf-HR :0.95293: L2-HR :0.93526: (Sim:0h40m26s) 
CPU  0 inst:  212000001 cyc:  113047545 now IPC :1.97118: AVG IPC :1.87396: L2-Pf-HR :0.95296: L2-HR :0.93528: (Sim:0h40m42s) 
CPU  0 inst:  213000002 cyc:  113548340 now IPC :1.99683: AVG IPC :1.87451: L2-Pf-HR :0.95302: L2-HR :0.93531: (Sim:0h40m58s) 
CPU  0 inst:  214000003 cyc:  114183665 now IPC :1.57400: AVG IPC :1.87282: L2-Pf-HR :0.95294: L2-HR :0.93524: (Sim:0h41m15s) 
CPU  0 inst:  215000005 cyc:  114690491 now IPC :1.97307: AVG IPC :1.87327: L2-Pf-HR :0.95298: L2-HR :0.93534: (Sim:0h41m31s) 
CPU  0 inst:  216000003 cyc:  115194706 now IPC :1.98328: AVG IPC :1.87376: L2-Pf-HR :0.95304: L2-HR :0.93547: (Sim:0h41m47s) 
CPU  0 inst:  217000001 cyc:  115697148 now IPC :1.99028: AVG IPC :1.87427: L2-Pf-HR :0.95311: L2-HR :0.93560: (Sim:0h42m3s) 
CPU  0 inst:  218000000 cyc:  116199308 now IPC :1.99140: AVG IPC :1.87478: L2-Pf-HR :0.95317: L2-HR :0.93572: (Sim:0h42m19s) 
CPU  0 inst:  219000004 cyc:  116702404 now IPC :1.98770: AVG IPC :1.87527: L2-Pf-HR :0.95323: L2-HR :0.93584: (Sim:0h42m35s) 
CPU  0 inst:  220000001 cyc:  117203010 now IPC :1.99757: AVG IPC :1.87580: L2-Pf-HR :0.95332: L2-HR :0.93598: (Sim:0h42m51s) 
CPU  0 inst:  221000000 cyc:  117703122 now IPC :1.99955: AVG IPC :1.87633: L2-Pf-HR :0.95343: L2-HR :0.93614: (Sim:0h43m7s) 
CPU  0 inst:  222000002 cyc:  118437729 now IPC :1.36127: AVG IPC :1.87310: L2-Pf-HR :0.95324: L2-HR :0.93590: (Sim:0h43m25s) 
CPU  0 inst:  223000000 cyc:  118975351 now IPC :1.86004: AVG IPC :1.87304: L2-Pf-HR :0.95322: L2-HR :0.93586: (Sim:0h43m42s) 
CPU  0 inst:  224000002 cyc:  119516639 now IPC :1.84745: AVG IPC :1.87293: L2-Pf-HR :0.95318: L2-HR :0.93581: (Sim:0h43m58s) 
CPU  0 inst:  225000003 cyc:  120059622 now IPC :1.84168: AVG IPC :1.87279: L2-Pf-HR :0.95315: L2-HR :0.93576: (Sim:0h44m14s) 
CPU  0 inst:  226000003 cyc:  120593947 now IPC :1.87152: AVG IPC :1.87278: L2-Pf-HR :0.95312: L2-HR :0.93571: (Sim:0h44m31s) 
CPU  0 inst:  227000000 cyc:  121131494 now IPC :1.86030: AVG IPC :1.87272: L2-Pf-HR :0.95311: L2-HR :0.93569: (Sim:0h44m47s) 
CPU  0 inst:  228000004 cyc:  121666606 now IPC :1.86878: AVG IPC :1.87271: L2-Pf-HR :0.95309: L2-HR :0.93565: (Sim:0h45m4s) 
CPU  0 inst:  229000000 cyc:  122199180 now IPC :1.87767: AVG IPC :1.87273: L2-Pf-HR :0.95306: L2-HR :0.93561: (Sim:0h45m20s) 
CPU  0 inst:  230000005 cyc:  122739925 now IPC :1.84931: AVG IPC :1.87262: L2-Pf-HR :0.95303: L2-HR :0.93556: (Sim:0h45m37s) 
CPU  0 inst:  231000003 cyc:  123279041 now IPC :1.85488: AVG IPC :1.87255: L2-Pf-HR :0.95301: L2-HR :0.93552: (Sim:0h45m53s) 
CPU  0 inst:  232000003 cyc:  123814850 now IPC :1.86634: AVG IPC :1.87252: L2-Pf-HR :0.95302: L2-HR :0.93551: (Sim:0h46m9s) 
CPU  0 inst:  233000005 cyc:  124378377 now IPC :1.77454: AVG IPC :1.87207: L2-Pf-HR :0.95300: L2-HR :0.93546: (Sim:0h46m26s) 
CPU  0 inst:  234000002 cyc:  125037660 now IPC :1.51679: AVG IPC :1.87018: L2-Pf-HR :0.95290: L2-HR :0.93534: (Sim:0h46m44s) 
CPU  0 inst:  235000003 cyc:  125553169 now IPC :1.93983: AVG IPC :1.87047: L2-Pf-HR :0.95289: L2-HR :0.93532: (Sim:0h47m0s) 
CPU  0 inst:  236000003 cyc:  126058843 now IPC :1.97756: AVG IPC :1.87090: L2-Pf-HR :0.95289: L2-HR :0.93531: (Sim:0h47m17s) 
CPU  0 inst:  237000000 cyc:  126566700 now IPC :1.96905: AVG IPC :1.87130: L2-Pf-HR :0.95289: L2-HR :0.93530: (Sim:0h47m33s) 
CPU  0 inst:  238000005 cyc:  127071060 now IPC :1.98272: AVG IPC :1.87175: L2-Pf-HR :0.95290: L2-HR :0.93531: (Sim:0h47m50s) 
CPU  0 inst:  239000001 cyc:  127578358 now IPC :1.97122: AVG IPC :1.87215: L2-Pf-HR :0.95291: L2-HR :0.93531: (Sim:0h48m6s) 
CPU  0 inst:  240000002 cyc:  128088813 now IPC :1.95904: AVG IPC :1.87249: L2-Pf-HR :0.95293: L2-HR :0.93532: (Sim:0h48m23s) 
CPU  0 inst:  241000001 cyc:  128594157 now IPC :1.97885: AVG IPC :1.87292: L2-Pf-HR :0.95293: L2-HR :0.93532: (Sim:0h48m39s) 
CPU  0 inst:  242000001 cyc:  129103357 now IPC :1.96386: AVG IPC :1.87328: L2-Pf-HR :0.95294: L2-HR :0.93532: (Sim:0h48m56s) 
CPU  0 inst:  243000004 cyc:  129610428 now IPC :1.97212: AVG IPC :1.87367: L2-Pf-HR :0.95297: L2-HR :0.93533: (Sim:0h49m12s) 
CPU  0 inst:  244000001 cyc:  130117589 now IPC :1.97175: AVG IPC :1.87405: L2-Pf-HR :0.95301: L2-HR :0.93535: (Sim:0h49m29s) 
CPU  0 inst:  245000002 cyc:  130738428 now IPC :1.61073: AVG IPC :1.87279: L2-Pf-HR :0.95297: L2-HR :0.93529: (Sim:0h49m46s) 
CPU  0 inst:  246000000 cyc:  131261164 now IPC :1.91301: AVG IPC :1.87295: L2-Pf-HR :0.95299: L2-HR :0.93536: (Sim:0h50m3s) 
CPU  0 inst:  247000005 cyc:  131768506 now IPC :1.97107: AVG IPC :1.87333: L2-Pf-HR :0.95304: L2-HR :0.93546: (Sim:0h50m19s) 
CPU  0 inst:  248000003 cyc:  132269621 now IPC :1.99555: AVG IPC :1.87380: L2-Pf-HR :0.95310: L2-HR :0.93557: (Sim:0h50m36s) 
CPU  0 inst:  249000001 cyc:  132773224 now IPC :1.98569: AVG IPC :1.87423: L2-Pf-HR :0.95316: L2-HR :0.93569: (Sim:0h50m52s) 
CPU  0 inst:  250000000 cyc:  133272798 now IPC :2.00170: AVG IPC :1.87471: L2-Pf-HR :0.95322: L2-HR :0.93581: (Sim:0h51m8s) 
CPU  0 inst:  251000002 cyc:  133774047 now IPC :1.99502: AVG IPC :1.87516: L2-Pf-HR :0.95328: L2-HR :0.93593: (Sim:0h51m25s) 
CPU  0 inst:  252000000 cyc:  134275443 now IPC :1.99443: AVG IPC :1.87561: L2-Pf-HR :0.95338: L2-HR :0.93607: (Sim:0h51m41s) 
CPU  0 inst:  253000002 cyc:  134998836 now IPC :1.38238: AVG IPC :1.87295: L2-Pf-HR :0.95328: L2-HR :0.93596: (Sim:0h51m59s) 
CPU  0 inst:  254000002 cyc:  135547183 now IPC :1.82366: AVG IPC :1.87275: L2-Pf-HR :0.95324: L2-HR :0.93590: (Sim:0h52m16s) 
CPU  0 inst:  255000002 cyc:  136090402 now IPC :1.84088: AVG IPC :1.87262: L2-Pf-HR :0.95322: L2-HR :0.93586: (Sim:0h52m33s) 
CPU  0 inst:  256000000 cyc:  136624096 now IPC :1.87373: AVG IPC :1.87263: L2-Pf-HR :0.95319: L2-HR :0.93582: (Sim:0h52m50s) 
CPU  0 inst:  257000002 cyc:  137164216 now IPC :1.85144: AVG IPC :1.87254: L2-Pf-HR :0.95316: L2-HR :0.93578: (Sim:0h53m7s) 
CPU  0 inst:  258000004 cyc:  137703359 now IPC :1.85480: AVG IPC :1.87247: L2-Pf-HR :0.95315: L2-HR :0.93575: (Sim:0h53m24s) 
CPU  0 inst:  259000003 cyc:  138242177 now IPC :1.85591: AVG IPC :1.87241: L2-Pf-HR :0.95313: L2-HR :0.93572: (Sim:0h53m40s) 
CPU  0 inst:  260000000 cyc:  138778781 now IPC :1.86357: AVG IPC :1.87237: L2-Pf-HR :0.95311: L2-HR :0.93569: (Sim:0h53m57s) 
CPU  0 inst:  261000004 cyc:  139315009 now IPC :1.86489: AVG IPC :1.87234: L2-Pf-HR :0.95309: L2-HR :0.93565: (Sim:0h54m13s) 
CPU  0 inst:  262000004 cyc:  139851717 now IPC :1.86321: AVG IPC :1.87231: L2-Pf-HR :0.95307: L2-HR :0.93562: (Sim:0h54m29s) 
CPU  0 inst:  263000002 cyc:  140388324 now IPC :1.86356: AVG IPC :1.87227: L2-Pf-HR :0.95306: L2-HR :0.93559: (Sim:0h54m46s) 
CPU  0 inst:  264000003 cyc:  140919719 now IPC :1.88184: AVG IPC :1.87231: L2-Pf-HR :0.95307: L2-HR :0.93559: (Sim:0h55m2s) 
CPU  0 inst:  265000001 cyc:  141609315 now IPC :1.45012: AVG IPC :1.87024: L2-Pf-HR :0.95298: L2-HR :0.93546: (Sim:0h55m19s) 
CPU  0 inst:  266000001 cyc:  142142685 now IPC :1.87487: AVG IPC :1.87026: L2-Pf-HR :0.95296: L2-HR :0.93543: (Sim:0h55m36s) 
CPU  0 inst:  267000003 cyc:  142651513 now IPC :1.96530: AVG IPC :1.87060: L2-Pf-HR :0.95296: L2-HR :0.93542: (Sim:0h55m52s) 
CPU  0 inst:  268000000 cyc:  143165100 now IPC :1.94708: AVG IPC :1.87087: L2-Pf-HR :0.95295: L2-HR :0.93540: (Sim:0h56m8s) 
CPU  0 inst:  269000003 cyc:  143669932 now IPC :1.98086: AVG IPC :1.87126: L2-Pf-HR :0.95295: L2-HR :0.93539: (Sim:0h56m24s) 
CPU  0 inst:  270000002 cyc:  144176634 now IPC :1.97354: AVG IPC :1.87163: L2-Pf-HR :0.95295: L2-HR :0.93538: (Sim:0h56m40s) 
CPU  0 inst:  271000001 cyc:  144681897 now IPC :1.97917: AVG IPC :1.87200: L2-Pf-HR :0.95296: L2-HR :0.93538: (Sim:0h56m56s) 
CPU  0 inst:  272000002 cyc:  145189117 now IPC :1.97153: AVG IPC :1.87235: L2-Pf-HR :0.95297: L2-HR :0.93538: (Sim:0h57m12s) 
CPU  0 inst:  273000002 cyc:  145695262 now IPC :1.97572: AVG IPC :1.87272: L2-Pf-HR :0.95297: L2-HR :0.93537: (Sim:0h57m29s) 
CPU  0 inst:  274000003 cyc:  146196455 now IPC :1.99524: AVG IPC :1.87314: L2-Pf-HR :0.95298: L2-HR :0.93537: (Sim:0h57m44s) 
CPU  0 inst:  275000003 cyc:  146703944 now IPC :1.97049: AVG IPC :1.87348: L2-Pf-HR :0.95300: L2-HR :0.93537: (Sim:0h58m0s) 
CPU  0 inst:  276000004 cyc:  147210520 now IPC :1.97404: AVG IPC :1.87383: L2-Pf-HR :0.95304: L2-HR :0.93540: (Sim:0h58m16s) 
CPU  0 inst:  277000002 cyc:  147835371 now IPC :1.60038: AVG IPC :1.87266: L2-Pf-HR :0.95298: L2-HR :0.93534: (Sim:0h58m33s) 
CPU  0 inst:  278000005 cyc:  148346346 now IPC :1.95705: AVG IPC :1.87296: L2-Pf-HR :0.95301: L2-HR :0.93542: (Sim:0h58m49s) 
CPU  0 inst:  279000002 cyc:  148846015 now IPC :2.00132: AVG IPC :1.87339: L2-Pf-HR :0.95306: L2-HR :0.93551: (Sim:0h59m4s) 
CPU  0 inst:  280000005 cyc:  149344008 now IPC :2.00807: AVG IPC :1.87384: L2-Pf-HR :0.95311: L2-HR :0.93561: (Sim:0h59m20s) 
CPU  0 inst:  281000005 cyc:  149844610 now IPC :1.99759: AVG IPC :1.87426: L2-Pf-HR :0.95317: L2-HR :0.93572: (Sim:0h59m36s) 
CPU  0 inst:  282000003 cyc:  150344040 now IPC :2.00228: AVG IPC :1.87469: L2-Pf-HR :0.95322: L2-HR :0.93582: (Sim:0h59m52s) 
CPU  0 inst:  283000005 cyc:  150843062 now IPC :2.00392: AVG IPC :1.87512: L2-Pf-HR :0.95328: L2-HR :0.93593: (Sim:1h0m8s) 
CPU  0 inst:  284000000 cyc:  151337849 now IPC :2.02106: AVG IPC :1.87560: L2-Pf-HR :0.95338: L2-HR :0.93606: (Sim:1h0m23s) 
CPU  0 inst:  285000003 cyc:  152078394 now IPC :1.35036: AVG IPC :1.87302: L2-Pf-HR :0.95324: L2-HR :0.93588: (Sim:1h0m41s) 
CPU  0 inst:  286000003 cyc:  152627405 now IPC :1.82146: AVG IPC :1.87283: L2-Pf-HR :0.95321: L2-HR :0.93584: (Sim:1h0m57s) 
CPU  0 inst:  287000005 cyc:  153165281 now IPC :1.85917: AVG IPC :1.87279: L2-Pf-HR :0.95318: L2-HR :0.93579: (Sim:1h1m13s) 
CPU  0 inst:  288000000 cyc:  153708768 now IPC :1.83996: AVG IPC :1.87267: L2-Pf-HR :0.95315: L2-HR :0.93575: (Sim:1h1m29s) 
CPU  0 inst:  289000005 cyc:  154252140 now IPC :1.84037: AVG IPC :1.87256: L2-Pf-HR :0.95313: L2-HR :0.93572: (Sim:1h1m46s) 
CPU  0 inst:  290000003 cyc:  154785911 now IPC :1.87346: AVG IPC :1.87256: L2-Pf-HR :0.95311: L2-HR :0.93569: (Sim:1h2m2s) 
CPU  0 inst:  291000001 cyc:  155318365 now IPC :1.87809: AVG IPC :1.87258: L2-Pf-HR :0.95309: L2-HR :0.93566: (Sim:1h2m18s) 
CPU  0 inst:  292000000 cyc:  155850669 now IPC :1.87862: AVG IPC :1.87260: L2-Pf-HR :0.95307: L2-HR :0.93563: (Sim:1h2m34s) 
CPU  0 inst:  293000002 cyc:  156398014 now IPC :1.82700: AVG IPC :1.87244: L2-Pf-HR :0.95303: L2-HR :0.93558: (Sim:1h2m50s) 
CPU  0 inst:  294000005 cyc:  156935956 now IPC :1.85894: AVG IPC :1.87239: L2-Pf-HR :0.95302: L2-HR :0.93555: (Sim:1h3m7s) 
CPU  0 inst:  295000003 cyc:  157466664 now IPC :1.88427: AVG IPC :1.87243: L2-Pf-HR :0.95302: L2-HR :0.93554: (Sim:1h3m23s) 
CPU  0 inst:  296000004 cyc:  157998288 now IPC :1.88103: AVG IPC :1.87246: L2-Pf-HR :0.95303: L2-HR :0.93553: (Sim:1h3m39s) 
CPU  0 inst:  297000005 cyc:  158682027 now IPC :1.46255: AVG IPC :1.87068: L2-Pf-HR :0.95293: L2-HR :0.93541: (Sim:1h3m56s) 
CPU  0 inst:  298000000 cyc:  159197662 now IPC :1.93935: AVG IPC :1.87091: L2-Pf-HR :0.95292: L2-HR :0.93539: (Sim:1h4m13s) 
CPU  0 inst:  299000001 cyc:  159702944 now IPC :1.97909: AVG IPC :1.87125: L2-Pf-HR :0.95291: L2-HR :0.93538: (Sim:1h4m30s) 
CPU  0 inst:  300000002 cyc:  160208512 now IPC :1.97798: AVG IPC :1.87159: L2-Pf-HR :0.95291: L2-HR :0.93537: (Sim:1h4m47s) 
CPU  0 inst:  301000002 cyc:  160715757 now IPC :1.97143: AVG IPC :1.87191: L2-Pf-HR :0.95291: L2-HR :0.93536: (Sim:1h5m3s) 
CPU  0 inst:  302000005 cyc:  161227468 now IPC :1.95423: AVG IPC :1.87217: L2-Pf-HR :0.95292: L2-HR :0.93536: (Sim:1h5m20s) 
CPU  0 inst:  303000005 cyc:  161736916 now IPC :1.96291: AVG IPC :1.87246: L2-Pf-HR :0.95291: L2-HR :0.93535: (Sim:1h5m36s) 
CPU  0 inst:  304000000 cyc:  162243039 now IPC :1.97579: AVG IPC :1.87278: L2-Pf-HR :0.95290: L2-HR :0.93534: (Sim:1h5m53s) 
CPU  0 inst:  305000001 cyc:  162744815 now IPC :1.99292: AVG IPC :1.87315: L2-Pf-HR :0.95290: L2-HR :0.93533: (Sim:1h6m10s) 
CPU  0 inst:  306000000 cyc:  163251742 now IPC :1.97267: AVG IPC :1.87347: L2-Pf-HR :0.95291: L2-HR :0.93533: (Sim:1h6m26s) 
CPU  0 inst:  307000001 cyc:  163759024 now IPC :1.97129: AVG IPC :1.87377: L2-Pf-HR :0.95295: L2-HR :0.93535: (Sim:1h6m43s) 
CPU  0 inst:  308000000 cyc:  164357482 now IPC :1.67096: AVG IPC :1.87303: L2-Pf-HR :0.95292: L2-HR :0.93531: (Sim:1h7m0s) 
CPU  0 inst:  309000005 cyc:  164900461 now IPC :1.84170: AVG IPC :1.87292: L2-Pf-HR :0.95293: L2-HR :0.93535: (Sim:1h7m17s) 
CPU  0 inst:  310000005 cyc:  165407149 now IPC :1.97360: AVG IPC :1.87323: L2-Pf-HR :0.95297: L2-HR :0.93542: (Sim:1h7m33s) 
CPU  0 inst:  311000002 cyc:  165903066 now IPC :2.01646: AVG IPC :1.87366: L2-Pf-HR :0.95301: L2-HR :0.93551: (Sim:1h7m50s) 
CPU  0 inst:  312000001 cyc:  166402826 now IPC :2.00096: AVG IPC :1.87405: L2-Pf-HR :0.95306: L2-HR :0.93560: (Sim:1h8m6s) 
CPU  0 inst:  313000004 cyc:  166901094 now IPC :2.00696: AVG IPC :1.87445: L2-Pf-HR :0.95310: L2-HR :0.93569: (Sim:1h8m20s) 
CPU  0 inst:  314000002 cyc:  167406856 now IPC :1.97721: AVG IPC :1.87476: L2-Pf-HR :0.95315: L2-HR :0.93577: (Sim:1h8m28s) 
CPU  0 inst:  315000005 cyc:  167907782 now IPC :1.99631: AVG IPC :1.87513: L2-Pf-HR :0.95322: L2-HR :0.93588: (Sim:1h8m36s) 
CPU  0 inst:  316000000 cyc:  168583406 now IPC :1.48011: AVG IPC :1.87353: L2-Pf-HR :0.95316: L2-HR :0.93582: (Sim:1h8m44s) 
CPU  0 inst:  317000005 cyc:  169155579 now IPC :1.74773: AVG IPC :1.87311: L2-Pf-HR :0.95315: L2-HR :0.93578: (Sim:1h8m52s) 
CPU  0 inst:  318000004 cyc:  169693518 now IPC :1.85895: AVG IPC :1.87306: L2-Pf-HR :0.95312: L2-HR :0.93574: (Sim:1h9m0s) 
CPU  0 inst:  319000000 cyc:  170237864 now IPC :1.83706: AVG IPC :1.87294: L2-Pf-HR :0.95311: L2-HR :0.93572: (Sim:1h9m8s) 
CPU  0 inst:  320000001 cyc:  170781043 now IPC :1.84102: AVG IPC :1.87284: L2-Pf-HR :0.95309: L2-HR :0.93569: (Sim:1h9m16s) 
CPU  0 inst:  321000005 cyc:  171313028 now IPC :1.87976: AVG IPC :1.87286: L2-Pf-HR :0.95308: L2-HR :0.93566: (Sim:1h9m24s) 
CPU  0 inst:  322000004 cyc:  171847263 now IPC :1.87183: AVG IPC :1.87286: L2-Pf-HR :0.95306: L2-HR :0.93564: (Sim:1h9m32s) 
CPU  0 inst:  323000005 cyc:  172377723 now IPC :1.88516: AVG IPC :1.87290: L2-Pf-HR :0.95306: L2-HR :0.93562: (Sim:1h9m40s) 
CPU  0 inst:  324000001 cyc:  172920695 now IPC :1.84171: AVG IPC :1.87280: L2-Pf-HR :0.95304: L2-HR :0.93559: (Sim:1h9m48s) 
CPU  0 inst:  325000003 cyc:  173463687 now IPC :1.84165: AVG IPC :1.87270: L2-Pf-HR :0.95303: L2-HR :0.93557: (Sim:1h9m56s) 
CPU  0 inst:  326000002 cyc:  174000776 now IPC :1.86189: AVG IPC :1.87267: L2-Pf-HR :0.95302: L2-HR :0.93555: (Sim:1h10m4s) 
CPU  0 inst:  327000001 cyc:  174543907 now IPC :1.84117: AVG IPC :1.87257: L2-Pf-HR :0.95303: L2-HR :0.93555: (Sim:1h10m12s) 
CPU  0 inst:  328000003 cyc:  175225707 now IPC :1.46671: AVG IPC :1.87098: L2-Pf-HR :0.95295: L2-HR :0.93544: (Sim:1h10m20s) 
CPU  0 inst:  329000000 cyc:  175762140 now IPC :1.86416: AVG IPC :1.87096: L2-Pf-HR :0.95293: L2-HR :0.93541: (Sim:1h10m28s) 
CPU  0 inst:  330000000 cyc:  176270395 now IPC :1.96752: AVG IPC :1.87124: L2-Pf-HR :0.95293: L2-HR :0.93540: (Sim:1h10m36s) 
CPU  0 inst:  331000002 cyc:  176780244 now IPC :1.96137: AVG IPC :1.87150: L2-Pf-HR :0.95293: L2-HR :0.93539: (Sim:1h10m44s) 
CPU  0 inst:  332000000 cyc:  177289075 now IPC :1.96529: AVG IPC :1.87177: L2-Pf-HR :0.95293: L2-HR :0.93539: (Sim:1h10m55s) 
CPU  0 inst:  333000001 cyc:  177796318 now IPC :1.97144: AVG IPC :1.87206: L2-Pf-HR :0.95294: L2-HR :0.93540: (Sim:1h11m12s) 
CPU  0 inst:  334000000 cyc:  178300924 now IPC :1.98174: AVG IPC :1.87237: L2-Pf-HR :0.95294: L2-HR :0.93539: (Sim:1h11m29s) 
CPU  0 inst:  335000005 cyc:  178802415 now IPC :1.99406: AVG IPC :1.87271: L2-Pf-HR :0.95294: L2-HR :0.93539: (Sim:1h11m45s) 
CPU  0 inst:  336000002 cyc:  179307912 now IPC :1.97825: AVG IPC :1.87301: L2-Pf-HR :0.95294: L2-HR :0.93538: (Sim:1h12m0s) 
CPU  0 inst:  337000000 cyc:  179812514 now IPC :1.98176: AVG IPC :1.87332: L2-Pf-HR :0.95294: L2-HR :0.93538: (Sim:1h12m8s) 
CPU  0 inst:  338000000 cyc:  180323128 now IPC :1.95843: AVG IPC :1.87356: L2-Pf-HR :0.95295: L2-HR :0.93538: (Sim:1h12m16s) 
CPU  0 inst:  339000000 cyc:  180824769 now IPC :1.99346: AVG IPC :1.87390: L2-Pf-HR :0.95299: L2-HR :0.93540: (Sim:1h12m23s) 
CPU  0 inst:  340000001 cyc:  181452509 now IPC :1.59302: AVG IPC :1.87292: L2-Pf-HR :0.95294: L2-HR :0.93535: (Sim:1h12m32s) 
CPU  0 inst:  341000004 cyc:  181963736 now IPC :1.95608: AVG IPC :1.87315: L2-Pf-HR :0.95297: L2-HR :0.93541: (Sim:1h12m39s) 
CPU  0 inst:  342000001 cyc:  182466742 now IPC :1.98804: AVG IPC :1.87347: L2-Pf-HR :0.95300: L2-HR :0.93548: (Sim:1h12m47s) 
CPU  0 inst:  343000002 cyc:  182971263 now IPC :1.98208: AVG IPC :1.87377: L2-Pf-HR :0.95304: L2-HR :0.93556: (Sim:1h12m55s) 
CPU  0 inst:  344000004 cyc:  183471401 now IPC :1.99945: AVG IPC :1.87412: L2-Pf-HR :0.95308: L2-HR :0.93564: (Sim:1h13m3s) 
CPU  0 inst:  345000003 cyc:  183969137 now IPC :2.00910: AVG IPC :1.87449: L2-Pf-HR :0.95312: L2-HR :0.93572: (Sim:1h13m10s) 
CPU  0 inst:  346000004 cyc:  184468543 now IPC :2.00238: AVG IPC :1.87483: L2-Pf-HR :0.95317: L2-HR :0.93580: (Sim:1h13m18s) 
CPU  0 inst:  347000000 cyc:  184965617 now IPC :2.01176: AVG IPC :1.87520: L2-Pf-HR :0.95324: L2-HR :0.93591: (Sim:1h13m26s) 
CPU  0 inst:  348000001 cyc:  185694821 now IPC :1.37136: AVG IPC :1.87321: L2-Pf-HR :0.95314: L2-HR :0.93578: (Sim:1h13m34s) 
CPU  0 inst:  349000000 cyc:  186240259 now IPC :1.83339: AVG IPC :1.87310: L2-Pf-HR :0.95312: L2-HR :0.93574: (Sim:1h13m42s) 
CPU  0 inst:  350000005 cyc:  186780057 now IPC :1.85255: AVG IPC :1.87304: L2-Pf-HR :0.95310: L2-HR :0.93571: (Sim:1h13m50s) 
CPU  0 inst:  351000001 cyc:  187319620 now IPC :1.85334: AVG IPC :1.87298: L2-Pf-HR :0.95308: L2-HR :0.93568: (Sim:1h13m58s) 
CPU  0 inst:  352000005 cyc:  187857093 now IPC :1.86057: AVG IPC :1.87295: L2-Pf-HR :0.95306: L2-HR :0.93566: (Sim:1h14m12s) 
CPU  0 inst:  353000003 cyc:  188389528 now IPC :1.87816: AVG IPC :1.87296: L2-Pf-HR :0.95306: L2-HR :0.93564: (Sim:1h14m29s) 
CPU  0 inst:  354000001 cyc:  188923196 now IPC :1.87382: AVG IPC :1.87296: L2-Pf-HR :0.95305: L2-HR :0.93562: (Sim:1h14m46s) 
CPU  0 inst:  355000003 cyc:  189470142 now IPC :1.82834: AVG IPC :1.87283: L2-Pf-HR :0.95303: L2-HR :0.93560: (Sim:1h15m2s) 
CPU  0 inst:  356000000 cyc:  190007313 now IPC :1.86160: AVG IPC :1.87280: L2-Pf-HR :0.95301: L2-HR :0.93557: (Sim:1h15m19s) 
CPU  0 inst:  357000003 cyc:  190534601 now IPC :1.89650: AVG IPC :1.87287: L2-Pf-HR :0.95301: L2-HR :0.93555: (Sim:1h15m35s) 
CPU  0 inst:  358000003 cyc:  191077834 now IPC :1.84083: AVG IPC :1.87278: L2-Pf-HR :0.95301: L2-HR :0.93554: (Sim:1h15m52s) 
CPU  0 inst:  359000005 cyc:  191599125 now IPC :1.91832: AVG IPC :1.87290: L2-Pf-HR :0.95303: L2-HR :0.93555: (Sim:1h16m8s) 
CPU  0 inst:  360000002 cyc:  192280034 now IPC :1.46862: AVG IPC :1.87146: L2-Pf-HR :0.95293: L2-HR :0.93543: (Sim:1h16m26s) 
CPU  0 inst:  361000005 cyc:  192797490 now IPC :1.93254: AVG IPC :1.87163: L2-Pf-HR :0.95292: L2-HR :0.93541: (Sim:1h16m42s) 
CPU  0 inst:  362000005 cyc:  193305179 now IPC :1.96971: AVG IPC :1.87188: L2-Pf-HR :0.95291: L2-HR :0.93540: (Sim:1h16m59s) 
CPU  0 inst:  363000005 cyc:  193813107 now IPC :1.96878: AVG IPC :1.87214: L2-Pf-HR :0.95290: L2-HR :0.93538: (Sim:1h17m10s) 
CPU  0 inst:  364000000 cyc:  194319636 now IPC :1.97421: AVG IPC :1.87241: L2-Pf-HR :0.95290: L2-HR :0.93537: (Sim:1h17m18s) 
CPU  0 inst:  365000004 cyc:  194824117 now IPC :1.98224: AVG IPC :1.87269: L2-Pf-HR :0.95289: L2-HR :0.93536: (Sim:1h17m26s) 
CPU  0 inst:  366000004 cyc:  195327015 now IPC :1.98847: AVG IPC :1.87299: L2-Pf-HR :0.95289: L2-HR :0.93535: (Sim:1h17m34s) 
CPU  0 inst:  367000001 cyc:  195835765 now IPC :1.96560: AVG IPC :1.87323: L2-Pf-HR :0.95289: L2-HR :0.93535: (Sim:1h17m42s) 
CPU  0 inst:  368000003 cyc:  196343268 now IPC :1.97044: AVG IPC :1.87349: L2-Pf-HR :0.95287: L2-HR :0.93533: (Sim:1h17m49s) 
CPU  0 inst:  369000004 cyc:  196847438 now IPC :1.98346: AVG IPC :1.87377: L2-Pf-HR :0.95287: L2-HR :0.93533: (Sim:1h17m57s) 
CPU  0 inst:  370000003 cyc:  197353021 now IPC :1.97791: AVG IPC :1.87404: L2-Pf-HR :0.95288: L2-HR :0.93533: (Sim:1h18m5s) 
CPU  0 inst:  371000001 cyc:  197874553 now IPC :1.91742: AVG IPC :1.87415: L2-Pf-HR :0.95289: L2-HR :0.93533: (Sim:1h18m13s) 
CPU  0 inst:  372000002 cyc:  198485719 now IPC :1.63622: AVG IPC :1.87342: L2-Pf-HR :0.95286: L2-HR :0.93531: (Sim:1h18m21s) 
CPU  0 inst:  373000003 cyc:  198989981 now IPC :1.98310: AVG IPC :1.87370: L2-Pf-HR :0.95289: L2-HR :0.93537: (Sim:1h18m29s) 
CPU  0 inst:  374000005 cyc:  199490290 now IPC :1.99877: AVG IPC :1.87401: L2-Pf-HR :0.95292: L2-HR :0.93544: (Sim:1h18m36s) 
CPU  0 inst:  375000003 cyc:  199991600 now IPC :1.99477: AVG IPC :1.87432: L2-Pf-HR :0.95296: L2-HR :0.93551: (Sim:1h18m44s) 
CPU  0 inst:  376000002 cyc:  200498310 now IPC :1.97351: AVG IPC :1.87457: L2-Pf-HR :0.95300: L2-HR :0.93558: (Sim:1h18m52s) 
CPU  0 inst:  377000000 cyc:  200999444 now IPC :1.99547: AVG IPC :1.87487: L2-Pf-HR :0.95304: L2-HR :0.93566: (Sim:1h19m0s) 
CPU  0 inst:  378000002 cyc:  201496569 now IPC :2.01157: AVG IPC :1.87521: L2-Pf-HR :0.95309: L2-HR :0.93574: (Sim:1h19m7s) 
CPU  0 inst:  379000000 cyc:  202149879 now IPC :1.53066: AVG IPC :1.87409: L2-Pf-HR :0.95306: L2-HR :0.93571: (Sim:1h19m16s) 
CPU  0 inst:  380000004 cyc:  202745975 now IPC :1.67759: AVG IPC :1.87351: L2-Pf-HR :0.95304: L2-HR :0.93567: (Sim:1h19m24s) 
CPU  0 inst:  381000001 cyc:  203293798 now IPC :1.82540: AVG IPC :1.87338: L2-Pf-HR :0.95303: L2-HR :0.93565: (Sim:1h19m32s) 
CPU  0 inst:  382000001 cyc:  203835872 now IPC :1.84477: AVG IPC :1.87330: L2-Pf-HR :0.95302: L2-HR :0.93563: (Sim:1h19m40s) 
CPU  0 inst:  383000005 cyc:  204370974 now IPC :1.86881: AVG IPC :1.87329: L2-Pf-HR :0.95300: L2-HR :0.93561: (Sim:1h19m48s) 
CPU  0 inst:  384000005 cyc:  204903532 now IPC :1.87773: AVG IPC :1.87330: L2-Pf-HR :0.95300: L2-HR :0.93559: (Sim:1h19m55s) 
CPU  0 inst:  385000002 cyc:  205431162 now IPC :1.89526: AVG IPC :1.87336: L2-Pf-HR :0.95299: L2-HR :0.93558: (Sim:1h20m3s) 
CPU  0 inst:  386000005 cyc:  205974738 now IPC :1.83967: AVG IPC :1.87327: L2-Pf-HR :0.95299: L2-HR :0.93556: (Sim:1h20m11s) 
CPU  0 inst:  387000001 cyc:  206512507 now IPC :1.85953: AVG IPC :1.87323: L2-Pf-HR :0.95297: L2-HR :0.93554: (Sim:1h20m21s) 
CPU  0 inst:  388000000 cyc:  207046548 now IPC :1.87251: AVG IPC :1.87323: L2-Pf-HR :0.95297: L2-HR :0.93552: (Sim:1h20m29s) 
CPU  0 inst:  389000004 cyc:  207585848 now IPC :1.85426: AVG IPC :1.87318: L2-Pf-HR :0.95296: L2-HR :0.93551: (Sim:1h20m37s) 
CPU  0 inst:  390000001 cyc:  208113046 now IPC :1.89681: AVG IPC :1.87324: L2-Pf-HR :0.95297: L2-HR :0.93550: (Sim:1h20m45s) 
CPU  0 inst:  391000003 cyc:  208760114 now IPC :1.54544: AVG IPC :1.87222: L2-Pf-HR :0.95291: L2-HR :0.93542: (Sim:1h20m53s) 
CPU  0 inst:  392000002 cyc:  209326454 now IPC :1.76572: AVG IPC :1.87193: L2-Pf-HR :0.95290: L2-HR :0.93540: (Sim:1h21m1s) 
CPU  0 inst:  393000001 cyc:  209840270 now IPC :1.94622: AVG IPC :1.87212: L2-Pf-HR :0.95289: L2-HR :0.93539: (Sim:1h21m9s) 
CPU  0 inst:  394000005 cyc:  210352576 now IPC :1.95197: AVG IPC :1.87231: L2-Pf-HR :0.95289: L2-HR :0.93538: (Sim:1h21m17s) 
CPU  0 inst:  395000000 cyc:  210858862 now IPC :1.97516: AVG IPC :1.87256: L2-Pf-HR :0.95289: L2-HR :0.93537: (Sim:1h21m25s) 
CPU  0 inst:  396000004 cyc:  211364627 now IPC :1.97721: AVG IPC :1.87281: L2-Pf-HR :0.95289: L2-HR :0.93537: (Sim:1h21m33s) 
CPU  0 inst:  397000005 cyc:  211871194 now IPC :1.97407: AVG IPC :1.87305: L2-Pf-HR :0.95289: L2-HR :0.93537: (Sim:1h21m41s) 
CPU  0 inst:  398000001 cyc:  212374475 now IPC :1.98695: AVG IPC :1.87332: L2-Pf-HR :0.95288: L2-HR :0.93536: (Sim:1h21m49s) 
CPU  0 inst:  399000000 cyc:  212883408 now IPC :1.96489: AVG IPC :1.87354: L2-Pf-HR :0.95288: L2-HR :0.93535: (Sim:1h21m56s) 
CPU  0 inst:  400000003 cyc:  213391237 now IPC :1.96917: AVG IPC :1.87377: L2-Pf-HR :0.95288: L2-HR :0.93534: (Sim:1h22m4s) 
CPU  0 inst:  401000000 cyc:  213901303 now IPC :1.96052: AVG IPC :1.87398: L2-Pf-HR :0.95289: L2-HR :0.93535: (Sim:1h22m12s) 
CPU  0 inst:  402000003 cyc:  214397605 now IPC :2.01491: AVG IPC :1.87431: L2-Pf-HR :0.95292: L2-HR :0.93537: (Sim:1h22m20s) 
CPU  0 inst:  403000004 cyc:  215023463 now IPC :1.59781: AVG IPC :1.87350: L2-Pf-HR :0.95289: L2-HR :0.93533: (Sim:1h22m28s) 
CPU  0 inst:  404000005 cyc:  215535242 now IPC :1.95397: AVG IPC :1.87369: L2-Pf-HR :0.95291: L2-HR :0.93538: (Sim:1h22m40s) 
CPU  0 inst:  405000001 cyc:  216034646 now IPC :2.00238: AVG IPC :1.87399: L2-Pf-HR :0.95294: L2-HR :0.93545: (Sim:1h22m56s) 
CPU  0 inst:  406000005 cyc:  216534234 now IPC :2.00166: AVG IPC :1.87429: L2-Pf-HR :0.95297: L2-HR :0.93552: (Sim:1h23m12s) 
CPU  0 inst:  407000002 cyc:  217033423 now IPC :2.00324: AVG IPC :1.87459: L2-Pf-HR :0.95301: L2-HR :0.93559: (Sim:1h23m28s) 
CPU  0 inst:  408000002 cyc:  217534320 now IPC :1.99642: AVG IPC :1.87487: L2-Pf-HR :0.95305: L2-HR :0.93567: (Sim:1h23m44s) 
CPU  0 inst:  409000001 cyc:  218035255 now IPC :1.99626: AVG IPC :1.87515: L2-Pf-HR :0.95309: L2-HR :0.93574: (Sim:1h24m1s) 
CPU  0 inst:  410000002 cyc:  218532237 now IPC :2.01215: AVG IPC :1.87546: L2-Pf-HR :0.95315: L2-HR :0.93583: (Sim:1h24m17s) 
CPU  0 inst:  411000004 cyc:  219253619 now IPC :1.38623: AVG IPC :1.87384: L2-Pf-HR :0.95308: L2-HR :0.93574: (Sim:1h24m35s) 
CPU  0 inst:  412000004 cyc:  219809136 now IPC :1.80012: AVG IPC :1.87366: L2-Pf-HR :0.95307: L2-HR :0.93572: (Sim:1h24m51s) 
CPU  0 inst:  413000005 cyc:  220353031 now IPC :1.83859: AVG IPC :1.87357: L2-Pf-HR :0.95306: L2-HR :0.93569: (Sim:1h25m8s) 
CPU  0 inst:  414000001 cyc:  220887483 now IPC :1.87107: AVG IPC :1.87356: L2-Pf-HR :0.95304: L2-HR :0.93567: (Sim:1h25m25s) 
CPU  0 inst:  415000002 cyc:  221422850 now IPC :1.86788: AVG IPC :1.87355: L2-Pf-HR :0.95303: L2-HR :0.93565: (Sim:1h25m41s) 
CPU  0 inst:  416000004 cyc:  221953565 now IPC :1.88425: AVG IPC :1.87357: L2-Pf-HR :0.95303: L2-HR :0.93564: (Sim:1h25m58s) 
CPU  0 inst:  417000003 cyc:  222494488 now IPC :1.84869: AVG IPC :1.87351: L2-Pf-HR :0.95302: L2-HR :0.93562: (Sim:1h26m14s) 
CPU  0 inst:  418000001 cyc:  223028327 now IPC :1.87322: AVG IPC :1.87351: L2-Pf-HR :0.95301: L2-HR :0.93560: (Sim:1h26m31s) 
CPU  0 inst:  419000005 cyc:  223564036 now IPC :1.86669: AVG IPC :1.87350: L2-Pf-HR :0.95300: L2-HR :0.93559: (Sim:1h26m48s) 
CPU  0 inst:  420000004 cyc:  224101435 now IPC :1.86081: AVG IPC :1.87347: L2-Pf-HR :0.95300: L2-HR :0.93557: (Sim:1h27m4s) 
CPU  0 inst:  421000000 cyc:  224637143 now IPC :1.86668: AVG IPC :1.87345: L2-Pf-HR :0.95300: L2-HR :0.93556: (Sim:1h27m21s) 
CPU  0 inst:  422000002 cyc:  225172897 now IPC :1.86653: AVG IPC :1.87343: L2-Pf-HR :0.95302: L2-HR :0.93557: (Sim:1h27m37s) 
CPU  0 inst:  423000000 cyc:  225860944 now IPC :1.45339: AVG IPC :1.87215: L2-Pf-HR :0.95295: L2-HR :0.93548: (Sim:1h27m55s) 
CPU  0 inst:  424000005 cyc:  226393293 now IPC :1.87848: AVG IPC :1.87216: L2-Pf-HR :0.95295: L2-HR :0.93547: (Sim:1h28m11s) 
CPU  0 inst:  425000002 cyc:  226908876 now IPC :1.93955: AVG IPC :1.87232: L2-Pf-HR :0.95294: L2-HR :0.93546: (Sim:1h28m27s) 
CPU  0 inst:  426000002 cyc:  227425568 now IPC :1.93539: AVG IPC :1.87246: L2-Pf-HR :0.95294: L2-HR :0.93545: (Sim:1h28m44s) 
CPU  0 inst:  427000001 cyc:  227934746 now IPC :1.96395: AVG IPC :1.87267: L2-Pf-HR :0.95293: L2-HR :0.93544: (Sim:1h29m0s) 
CPU  0 inst:  428000004 cyc:  228437926 now IPC :1.98737: AVG IPC :1.87292: L2-Pf-HR :0.95294: L2-HR :0.93543: (Sim:1h29m16s) 
CPU  0 inst:  429000005 cyc:  228939770 now IPC :1.99265: AVG IPC :1.87318: L2-Pf-HR :0.95293: L2-HR :0.93542: (Sim:1h29m33s) 
CPU  0 inst:  430000003 cyc:  229443228 now IPC :1.98626: AVG IPC :1.87343: L2-Pf-HR :0.95294: L2-HR :0.93542: (Sim:1h29m49s) 
CPU  0 inst:  431000005 cyc:  229949277 now IPC :1.97610: AVG IPC :1.87366: L2-Pf-HR :0.95294: L2-HR :0.93542: (Sim:1h30m5s) 
CPU  0 inst:  432000003 cyc:  230457265 now IPC :1.96855: AVG IPC :1.87387: L2-Pf-HR :0.95294: L2-HR :0.93541: (Sim:1h30m22s) 
CPU  0 inst:  433000005 cyc:  230962348 now IPC :1.97988: AVG IPC :1.87410: L2-Pf-HR :0.95296: L2-HR :0.93542: (Sim:1h30m38s) 
CPU  0 inst:  434000003 cyc:  231465109 now IPC :1.98901: AVG IPC :1.87435: L2-Pf-HR :0.95298: L2-HR :0.93543: (Sim:1h30m54s) 
CPU  0 inst:  435000004 cyc:  232092368 now IPC :1.59424: AVG IPC :1.87359: L2-Pf-HR :0.95295: L2-HR :0.93540: (Sim:1h31m10s) 
CPU  0 inst:  436000002 cyc:  232596128 now IPC :1.98507: AVG IPC :1.87384: L2-Pf-HR :0.95297: L2-HR :0.93546: (Sim:1h31m27s) 
CPU  0 inst:  437000004 cyc:  233100784 now IPC :1.98155: AVG IPC :1.87407: L2-Pf-HR :0.95300: L2-HR :0.93551: (Sim:1h31m43s) 
CPU  0 inst:  438000002 cyc:  233601741 now IPC :1.99618: AVG IPC :1.87433: L2-Pf-HR :0.95303: L2-HR :0.93558: (Sim:1h32m0s) 
CPU  0 inst:  439000001 cyc:  234101491 now IPC :2.00100: AVG IPC :1.87460: L2-Pf-HR :0.95307: L2-HR :0.93564: (Sim:1h32m16s) 
CPU  0 inst:  440000003 cyc:  234600858 now IPC :2.00254: AVG IPC :1.87488: L2-Pf-HR :0.95310: L2-HR :0.93570: (Sim:1h32m33s) 
CPU  0 inst:  441000001 cyc:  235102591 now IPC :1.99309: AVG IPC :1.87513: L2-Pf-HR :0.95314: L2-HR :0.93578: (Sim:1h32m49s) 
CPU  0 inst:  442000003 cyc:  235658220 now IPC :1.79977: AVG IPC :1.87495: L2-Pf-HR :0.95317: L2-HR :0.93582: (Sim:1h33m6s) 
CPU  0 inst:  443000002 cyc:  236338524 now IPC :1.46993: AVG IPC :1.87378: L2-Pf-HR :0.95311: L2-HR :0.93573: (Sim:1h33m24s) 
CPU  0 inst:  444000005 cyc:  236890981 now IPC :1.81010: AVG IPC :1.87363: L2-Pf-HR :0.95310: L2-HR :0.93571: (Sim:1h33m41s) 
CPU  0 inst:  445000003 cyc:  237423767 now IPC :1.87692: AVG IPC :1.87364: L2-Pf-HR :0.95309: L2-HR :0.93570: (Sim:1h33m57s) 
CPU  0 inst:  446000001 cyc:  237960493 now IPC :1.86314: AVG IPC :1.87362: L2-Pf-HR :0.95308: L2-HR :0.93568: (Sim:1h34m13s) 
CPU  0 inst:  447000004 cyc:  238490523 now IPC :1.88669: AVG IPC :1.87365: L2-Pf-HR :0.95308: L2-HR :0.93567: (Sim:1h34m29s) 
CPU  0 inst:  448000000 cyc:  239033936 now IPC :1.84021: AVG IPC :1.87357: L2-Pf-HR :0.95307: L2-HR :0.93565: (Sim:1h34m46s) 
CPU  0 inst:  449000003 cyc:  239569777 now IPC :1.86623: AVG IPC :1.87355: L2-Pf-HR :0.95306: L2-HR :0.93563: (Sim:1h35m2s) 
CPU  0 inst:  450000004 cyc:  240103914 now IPC :1.87218: AVG IPC :1.87355: L2-Pf-HR :0.95305: L2-HR :0.93562: (Sim:1h35m18s) 
CPU  0 inst:  451000003 cyc:  240639097 now IPC :1.86852: AVG IPC :1.87354: L2-Pf-HR :0.95304: L2-HR :0.93560: (Sim:1h35m35s) 
CPU  0 inst:  452000000 cyc:  241167598 now IPC :1.89214: AVG IPC :1.87358: L2-Pf-HR :0.95304: L2-HR :0.93559: (Sim:1h35m51s) 
CPU  0 inst:  453000004 cyc:  241706701 now IPC :1.85494: AVG IPC :1.87354: L2-Pf-HR :0.95305: L2-HR :0.93559: (Sim:1h36m7s) 
CPU  0 inst:  454000005 cyc:  242338742 now IPC :1.58218: AVG IPC :1.87277: L2-Pf-HR :0.95301: L2-HR :0.93553: (Sim:1h36m24s) 
CPU  0 inst:  455000005 cyc:  242933626 now IPC :1.68100: AVG IPC :1.87230: L2-Pf-HR :0.95299: L2-HR :0.93550: (Sim:1h36m40s) 
CPU  0 inst:  456000002 cyc:  243456823 now IPC :1.91132: AVG IPC :1.87239: L2-Pf-HR :0.95299: L2-HR :0.93550: (Sim:1h36m56s) 
CPU  0 inst:  457000000 cyc:  243971741 now IPC :1.94205: AVG IPC :1.87253: L2-Pf-HR :0.95299: L2-HR :0.93549: (Sim:1h37m12s) 
CPU  0 inst:  458000004 cyc:  244477329 now IPC :1.97790: AVG IPC :1.87275: L2-Pf-HR :0.95299: L2-HR :0.93549: (Sim:1h37m28s) 
CPU  0 inst:  459000004 cyc:  244981542 now IPC :1.98329: AVG IPC :1.87298: L2-Pf-HR :0.95300: L2-HR :0.93549: (Sim:1h37m44s) 
CPU  0 inst:  460000003 cyc:  245489292 now IPC :1.96947: AVG IPC :1.87318: L2-Pf-HR :0.95300: L2-HR :0.93549: (Sim:1h38m0s) 
CPU  0 inst:  461000001 cyc:  246002811 now IPC :1.94734: AVG IPC :1.87334: L2-Pf-HR :0.95300: L2-HR :0.93549: (Sim:1h38m16s) 
CPU  0 inst:  462000004 cyc:  246515216 now IPC :1.95159: AVG IPC :1.87350: L2-Pf-HR :0.95300: L2-HR :0.93548: (Sim:1h38m32s) 
CPU  0 inst:  463000005 cyc:  247023619 now IPC :1.96695: AVG IPC :1.87369: L2-Pf-HR :0.95300: L2-HR :0.93548: (Sim:1h38m48s) 
CPU  0 inst:  464000002 cyc:  247530106 now IPC :1.97438: AVG IPC :1.87390: L2-Pf-HR :0.95302: L2-HR :0.93548: (Sim:1h39m5s) 
CPU  0 inst:  465000002 cyc:  248034345 now IPC :1.98319: AVG IPC :1.87412: L2-Pf-HR :0.95304: L2-HR :0.93550: (Sim:1h39m21s) 
CPU  0 inst:  466000005 cyc:  248660486 now IPC :1.59709: AVG IPC :1.87342: L2-Pf-HR :0.95301: L2-HR :0.93546: (Sim:1h39m38s) 
CPU  0 inst:  467000004 cyc:  249179540 now IPC :1.92658: AVG IPC :1.87354: L2-Pf-HR :0.95303: L2-HR :0.93550: (Sim:1h39m55s) 
CPU  0 inst:  468000000 cyc:  249679072 now IPC :2.00187: AVG IPC :1.87379: L2-Pf-HR :0.95305: L2-HR :0.93555: (Sim:1h40m11s) 
CPU  0 inst:  469000004 cyc:  250178940 now IPC :2.00054: AVG IPC :1.87405: L2-Pf-HR :0.95308: L2-HR :0.93562: (Sim:1h40m28s) 
CPU  0 inst:  470000000 cyc:  250681657 now IPC :1.98918: AVG IPC :1.87428: L2-Pf-HR :0.95312: L2-HR :0.93568: (Sim:1h40m44s) 
CPU  0 inst:  471000000 cyc:  251182427 now IPC :1.99692: AVG IPC :1.87452: L2-Pf-HR :0.95315: L2-HR :0.93574: (Sim:1h41m0s) 
CPU  0 inst:  472000005 cyc:  251681908 now IPC :2.00209: AVG IPC :1.87478: L2-Pf-HR :0.95318: L2-HR :0.93580: (Sim:1h41m17s) 
CPU  0 inst:  473000001 cyc:  252177878 now IPC :2.01624: AVG IPC :1.87506: L2-Pf-HR :0.95323: L2-HR :0.93588: (Sim:1h41m33s) 
CPU  0 inst:  474000000 cyc:  252896781 now IPC :1.39101: AVG IPC :1.87368: L2-Pf-HR :0.95318: L2-HR :0.93582: (Sim:1h41m51s) 
CPU  0 inst:  475000000 cyc:  253459541 now IPC :1.77696: AVG IPC :1.87346: L2-Pf-HR :0.95318: L2-HR :0.93580: (Sim:1h42m8s) 
CPU  0 inst:  476000004 cyc:  253996709 now IPC :1.86162: AVG IPC :1.87344: L2-Pf-HR :0.95317: L2-HR :0.93579: (Sim:1h42m25s) 
CPU  0 inst:  477000004 cyc:  254537711 now IPC :1.84842: AVG IPC :1.87338: L2-Pf-HR :0.95316: L2-HR :0.93577: (Sim:1h42m42s) 
CPU  0 inst:  478000000 cyc:  255070188 now IPC :1.87801: AVG IPC :1.87339: L2-Pf-HR :0.95316: L2-HR :0.93575: (Sim:1h42m58s) 
CPU  0 inst:  479000002 cyc:  255610603 now IPC :1.85043: AVG IPC :1.87334: L2-Pf-HR :0.95315: L2-HR :0.93574: (Sim:1h43m15s) 
CPU  0 inst:  480000004 cyc:  256152267 now IPC :1.84617: AVG IPC :1.87329: L2-Pf-HR :0.95314: L2-HR :0.93573: (Sim:1h43m33s) 
CPU  0 inst:  481000000 cyc:  256686594 now IPC :1.87151: AVG IPC :1.87328: L2-Pf-HR :0.95314: L2-HR :0.93572: (Sim:1h43m50s) 
CPU  0 inst:  482000005 cyc:  257226991 now IPC :1.85050: AVG IPC :1.87323: L2-Pf-HR :0.95314: L2-HR :0.93571: (Sim:1h44m7s) 
CPU  0 inst:  483000001 cyc:  257759167 now IPC :1.87907: AVG IPC :1.87325: L2-Pf-HR :0.95313: L2-HR :0.93569: (Sim:1h44m23s) 
CPU  0 inst:  484000001 cyc:  258296098 now IPC :1.86244: AVG IPC :1.87322: L2-Pf-HR :0.95313: L2-HR :0.93568: (Sim:1h44m39s) 
CPU  0 inst:  485000002 cyc:  258832576 now IPC :1.86401: AVG IPC :1.87320: L2-Pf-HR :0.95314: L2-HR :0.93568: (Sim:1h44m56s) 
CPU  0 inst:  486000004 cyc:  259512946 now IPC :1.46979: AVG IPC :1.87214: L2-Pf-HR :0.95309: L2-HR :0.93561: (Sim:1h45m13s) 
CPU  0 inst:  487000005 cyc:  260045114 now IPC :1.87911: AVG IPC :1.87216: L2-Pf-HR :0.95308: L2-HR :0.93560: (Sim:1h45m30s) 
CPU  0 inst:  488000004 cyc:  260559961 now IPC :1.94232: AVG IPC :1.87230: L2-Pf-HR :0.95308: L2-HR :0.93559: (Sim:1h45m47s) 
CPU  0 inst:  489000004 cyc:  261075304 now IPC :1.94046: AVG IPC :1.87243: L2-Pf-HR :0.95308: L2-HR :0.93559: (Sim:1h46m3s) 
CPU  0 inst:  490000002 cyc:  261585098 now IPC :1.96157: AVG IPC :1.87261: L2-Pf-HR :0.95308: L2-HR :0.93558: (Sim:1h46m19s) 
CPU  0 inst:  491000003 cyc:  262094036 now IPC :1.96488: AVG IPC :1.87279: L2-Pf-HR :0.95309: L2-HR :0.93558: (Sim:1h46m35s) 
CPU  0 inst:  492000003 cyc:  262601229 now IPC :1.97164: AVG IPC :1.87298: L2-Pf-HR :0.95309: L2-HR :0.93558: (Sim:1h46m51s) 
CPU  0 inst:  493000001 cyc:  263110938 now IPC :1.96190: AVG IPC :1.87315: L2-Pf-HR :0.95310: L2-HR :0.93558: (Sim:1h47m7s) 
CPU  0 inst:  494000005 cyc:  263621481 now IPC :1.95871: AVG IPC :1.87332: L2-Pf-HR :0.95310: L2-HR :0.93557: (Sim:1h47m23s) 
CPU  0 inst:  495000002 cyc:  264130459 now IPC :1.96472: AVG IPC :1.87349: L2-Pf-HR :0.95310: L2-HR :0.93557: (Sim:1h47m39s) 
CPU  0 inst:  496000003 cyc:  264640659 now IPC :1.96002: AVG IPC :1.87366: L2-Pf-HR :0.95311: L2-HR :0.93557: (Sim:1h47m55s) 
CPU  0 inst:  497000004 cyc:  265139912 now IPC :2.00299: AVG IPC :1.87390: L2-Pf-HR :0.95314: L2-HR :0.93559: (Sim:1h48m11s) 
CPU  0 inst:  498000000 cyc:  265785492 now IPC :1.54899: AVG IPC :1.87311: L2-Pf-HR :0.95310: L2-HR :0.93556: (Sim:1h48m28s) 
CPU  0 inst:  499000005 cyc:  266297380 now IPC :1.95356: AVG IPC :1.87327: L2-Pf-HR :0.95312: L2-HR :0.93560: (Sim:1h48m44s) 
CPU  0 inst:  500000000 cyc:  266801041 now IPC :1.98545: AVG IPC :1.87348: L2-Pf-HR :0.95314: L2-HR :0.93565: (Sim:1h49m0s) 
CPU  0 inst:  501000004 cyc:  267301372 now IPC :1.99868: AVG IPC :1.87372: L2-Pf-HR :0.95317: L2-HR :0.93570: (Sim:1h49m16s) 
CPU  0 inst:  502000000 cyc:  267799254 now IPC :2.00850: AVG IPC :1.87397: L2-Pf-HR :0.95320: L2-HR :0.93576: (Sim:1h49m32s) 
CPU  0 inst:  503000000 cyc:  268299800 now IPC :1.99782: AVG IPC :1.87420: L2-Pf-HR :0.95323: L2-HR :0.93582: (Sim:1h49m48s) 
CPU  0 inst:  504000003 cyc:  268797743 now IPC :2.00827: AVG IPC :1.87445: L2-Pf-HR :0.95327: L2-HR :0.93588: (Sim:1h50m4s) 
CPU  0 inst:  505000004 cyc:  269292043 now IPC :2.02306: AVG IPC :1.87472: L2-Pf-HR :0.95332: L2-HR :0.93595: (Sim:1h50m20s) 
CPU  0 inst:  506000001 cyc:  274116540 now IPC :0.20727: AVG IPC :1.84527: L2-Pf-HR :0.95248: L2-HR :0.93415: (Sim:1h51m8s) 
CPU  0 inst:  507000000 cyc:  279537273 now IPC :0.18448: AVG IPC :1.81295: L2-Pf-HR :0.95157: L2-HR :0.93219: (Sim:1h52m2s) 
CPU  0 inst:  508000002 cyc:  284960303 now IPC :0.18440: AVG IPC :1.78185: L2-Pf-HR :0.95066: L2-HR :0.93024: (Sim:1h52m57s) 
CPU  0 inst:  509000004 cyc:  290381666 now IPC :0.18446: AVG IPC :1.75192: L2-Pf-HR :0.94975: L2-HR :0.92832: (Sim:1h53m29s) 
CPU  0 inst:  510000000 cyc:  295806965 now IPC :0.18432: AVG IPC :1.72308: L2-Pf-HR :0.94884: L2-HR :0.92641: (Sim:1h53m54s) 
CPU  0 inst:  511000004 cyc:  301229354 now IPC :0.18442: AVG IPC :1.69529: L2-Pf-HR :0.94794: L2-HR :0.92452: (Sim:1h54m20s) 
CPU  0 inst:  512000004 cyc:  306652432 now IPC :0.18440: AVG IPC :1.66848: L2-Pf-HR :0.94704: L2-HR :0.92265: (Sim:1h54m45s) 
CPU  0 inst:  513000001 cyc:  312078684 now IPC :0.18429: AVG IPC :1.64260: L2-Pf-HR :0.94614: L2-HR :0.92080: (Sim:1h55m11s) 
CPU  0 inst:  514000002 cyc:  317503909 now IPC :0.18432: AVG IPC :1.61760: L2-Pf-HR :0.94524: L2-HR :0.91896: (Sim:1h55m36s) 
CPU  0 inst:  515000001 cyc:  322181878 now IPC :0.21377: AVG IPC :1.59715: L2-Pf-HR :0.94465: L2-HR :0.91780: (Sim:1h55m58s) 
CPU  0 inst:  516000004 cyc:  325879982 now IPC :0.27041: AVG IPC :1.58205: L2-Pf-HR :0.94454: L2-HR :0.91760: (Sim:1h56m14s) 
CPU  0 inst:  517000004 cyc:  329577263 now IPC :0.27047: AVG IPC :1.56729: L2-Pf-HR :0.94442: L2-HR :0.91741: (Sim:1h56m48s) 
CPU  0 inst:  518000000 cyc:  333273588 now IPC :0.27054: AVG IPC :1.55287: L2-Pf-HR :0.94430: L2-HR :0.91721: (Sim:1h57m24s) 
CPU  0 inst:  519000003 cyc:  336967597 now IPC :0.27071: AVG IPC :1.53877: L2-Pf-HR :0.94419: L2-HR :0.91702: (Sim:1h58m1s) 
CPU  0 inst:  520000002 cyc:  340661143 now IPC :0.27074: AVG IPC :1.52498: L2-Pf-HR :0.94408: L2-HR :0.91684: (Sim:1h58m37s) 
CPU  0 inst:  521000000 cyc:  344354492 now IPC :0.27076: AVG IPC :1.51149: L2-Pf-HR :0.94396: L2-HR :0.91665: (Sim:1h59m13s) 
CPU  0 inst:  522000005 cyc:  348051559 now IPC :0.27049: AVG IPC :1.49827: L2-Pf-HR :0.94385: L2-HR :0.91646: (Sim:1h59m49s) 
CPU  0 inst:  523000005 cyc:  351749521 now IPC :0.27042: AVG IPC :1.48533: L2-Pf-HR :0.94374: L2-HR :0.91627: (Sim:2h0m25s) 
CPU  0 inst:  524000002 cyc:  355444323 now IPC :0.27065: AVG IPC :1.47267: L2-Pf-HR :0.94363: L2-HR :0.91609: (Sim:2h1m2s) 
CPU  0 inst:  525000000 cyc:  359138627 now IPC :0.27069: AVG IPC :1.46027: L2-Pf-HR :0.94351: L2-HR :0.91590: (Sim:2h1m38s) 
CPU  0 inst:  526000000 cyc:  362833148 now IPC :0.27067: AVG IPC :1.44812: L2-Pf-HR :0.94340: L2-HR :0.91572: (Sim:2h2m14s) 
CPU  0 inst:  527000000 cyc:  366526755 now IPC :0.27074: AVG IPC :1.43623: L2-Pf-HR :0.94329: L2-HR :0.91553: (Sim:2h2m50s) 
CPU  0 inst:  528000002 cyc:  370222000 now IPC :0.27062: AVG IPC :1.42456: L2-Pf-HR :0.94318: L2-HR :0.91535: (Sim:2h3m26s) 
CPU  0 inst:  529000000 cyc:  373918014 now IPC :0.27056: AVG IPC :1.41312: L2-Pf-HR :0.94307: L2-HR :0.91516: (Sim:2h4m2s) 
CPU  0 inst:  530000001 cyc:  377616450 now IPC :0.27038: AVG IPC :1.40190: L2-Pf-HR :0.94296: L2-HR :0.91498: (Sim:2h4m38s) 
CPU  0 inst:  531000000 cyc:  381312064 now IPC :0.27059: AVG IPC :1.39091: L2-Pf-HR :0.94285: L2-HR :0.91480: (Sim:2h5m14s) 
CPU  0 inst:  532000002 cyc:  385005866 now IPC :0.27072: AVG IPC :1.38014: L2-Pf-HR :0.94274: L2-HR :0.91462: (Sim:2h5m50s) 
CPU  0 inst:  533000004 cyc:  388699493 now IPC :0.27074: AVG IPC :1.36957: L2-Pf-HR :0.94263: L2-HR :0.91444: (Sim:2h6m11s) 
CPU  0 inst:  534000004 cyc:  392393239 now IPC :0.27073: AVG IPC :1.35920: L2-Pf-HR :0.94252: L2-HR :0.91426: (Sim:2h6m28s) 
CPU  0 inst:  535000000 cyc:  396087853 now IPC :0.27066: AVG IPC :1.34902: L2-Pf-HR :0.94242: L2-HR :0.91408: (Sim:2h6m44s) 
CPU  0 inst:  536000005 cyc:  399781370 now IPC :0.27075: AVG IPC :1.33903: L2-Pf-HR :0.94231: L2-HR :0.91390: (Sim:2h7m1s) 
CPU  0 inst:  537000005 cyc:  403477108 now IPC :0.27058: AVG IPC :1.32922: L2-Pf-HR :0.94220: L2-HR :0.91372: (Sim:2h7m17s) 
CPU  0 inst:  538000004 cyc:  407172763 now IPC :0.27059: AVG IPC :1.31959: L2-Pf-HR :0.94210: L2-HR :0.91355: (Sim:2h7m34s) 
CPU  0 inst:  539000000 cyc:  410866562 now IPC :0.27072: AVG IPC :1.31014: L2-Pf-HR :0.94199: L2-HR :0.91337: (Sim:2h7m50s) 
CPU  0 inst:  540000003 cyc:  414561758 now IPC :0.27062: AVG IPC :1.30085: L2-Pf-HR :0.94188: L2-HR :0.91319: (Sim:2h8m7s) 
CPU  0 inst:  541000002 cyc:  418256224 now IPC :0.27067: AVG IPC :1.29173: L2-Pf-HR :0.94178: L2-HR :0.91302: (Sim:2h8m23s) 
CPU  0 inst:  542000000 cyc:  421950673 now IPC :0.27068: AVG IPC :1.28277: L2-Pf-HR :0.94167: L2-HR :0.91284: (Sim:2h8m40s) 
CPU  0 inst:  543000000 cyc:  425645318 now IPC :0.27066: AVG IPC :1.27396: L2-Pf-HR :0.94157: L2-HR :0.91266: (Sim:2h8m56s) 
CPU  0 inst:  544000002 cyc:  429341423 now IPC :0.27056: AVG IPC :1.26530: L2-Pf-HR :0.94146: L2-HR :0.91249: (Sim:2h9m13s) 
CPU  0 inst:  545000001 cyc:  433039669 now IPC :0.27040: AVG IPC :1.25679: L2-Pf-HR :0.94136: L2-HR :0.91231: (Sim:2h9m29s) 
CPU  0 inst:  546000000 cyc:  436735259 now IPC :0.27059: AVG IPC :1.24842: L2-Pf-HR :0.94125: L2-HR :0.91214: (Sim:2h9m46s) 
CPU  0 inst:  547000000 cyc:  440430145 now IPC :0.27064: AVG IPC :1.24020: L2-Pf-HR :0.94115: L2-HR :0.91197: (Sim:2h10m3s) 
CPU  0 inst:  548000000 cyc:  444122975 now IPC :0.27080: AVG IPC :1.23212: L2-Pf-HR :0.94104: L2-HR :0.91180: (Sim:2h10m19s) 
CPU  0 inst:  549000002 cyc:  447816602 now IPC :0.27074: AVG IPC :1.22418: L2-Pf-HR :0.94094: L2-HR :0.91162: (Sim:2h10m36s) 
CPU  0 inst:  550000004 cyc:  451511255 now IPC :0.27066: AVG IPC :1.21636: L2-Pf-HR :0.94084: L2-HR :0.91145: (Sim:2h10m52s) 
CPU  0 inst:  551000002 cyc:  455205337 now IPC :0.27070: AVG IPC :1.20867: L2-Pf-HR :0.94074: L2-HR :0.91128: (Sim:2h11m8s) 
CPU  0 inst:  552000000 cyc:  458901862 now IPC :0.27052: AVG IPC :1.20109: L2-Pf-HR :0.94063: L2-HR :0.91112: (Sim:2h11m25s) 
CPU  0 inst:  553000000 cyc:  462598312 now IPC :0.27053: AVG IPC :1.19364: L2-Pf-HR :0.94053: L2-HR :0.91094: (Sim:2h11m41s) 
CPU  0 inst:  554000004 cyc:  466292932 now IPC :0.27066: AVG IPC :1.18631: L2-Pf-HR :0.94043: L2-HR :0.91078: (Sim:2h11m58s) 
CPU  0 inst:  555000004 cyc:  469987416 now IPC :0.27067: AVG IPC :1.17910: L2-Pf-HR :0.94033: L2-HR :0.91061: (Sim:2h12m14s) 
CPU  0 inst:  556000000 cyc:  473680910 now IPC :0.27075: AVG IPC :1.17200: L2-Pf-HR :0.94023: L2-HR :0.91044: (Sim:2h12m31s) 
CPU  0 inst:  557000003 cyc:  477375408 now IPC :0.27067: AVG IPC :1.16501: L2-Pf-HR :0.94012: L2-HR :0.91027: (Sim:2h12m47s) 
CPU  0 inst:  558000002 cyc:  481070204 now IPC :0.27065: AVG IPC :1.15813: L2-Pf-HR :0.94002: L2-HR :0.91010: (Sim:2h13m3s) 
CPU  0 inst:  559000001 cyc:  484766966 now IPC :0.27051: AVG IPC :1.15135: L2-Pf-HR :0.93992: L2-HR :0.90993: (Sim:2h13m20s) 
CPU  0 inst:  560000001 cyc:  488465094 now IPC :0.27041: AVG IPC :1.14466: L2-Pf-HR :0.93982: L2-HR :0.90977: (Sim:2h13m36s) 
CPU  0 inst:  561000003 cyc:  492158855 now IPC :0.27073: AVG IPC :1.13809: L2-Pf-HR :0.93972: L2-HR :0.90960: (Sim:2h13m53s) 
CPU  0 inst:  562000002 cyc:  495853222 now IPC :0.27068: AVG IPC :1.13162: L2-Pf-HR :0.93962: L2-HR :0.90944: (Sim:2h14m9s) 
CPU  0 inst:  563000000 cyc:  499547898 now IPC :0.27066: AVG IPC :1.12524: L2-Pf-HR :0.93952: L2-HR :0.90927: (Sim:2h14m26s) 
CPU  0 inst:  564000000 cyc:  503242399 now IPC :0.27067: AVG IPC :1.11895: L2-Pf-HR :0.93943: L2-HR :0.90911: (Sim:2h14m42s) 
CPU  0 inst:  565000000 cyc:  506936250 now IPC :0.27072: AVG IPC :1.11276: L2-Pf-HR :0.93933: L2-HR :0.90895: (Sim:2h14m58s) 
CPU  0 inst:  566000001 cyc:  510631955 now IPC :0.27058: AVG IPC :1.10665: L2-Pf-HR :0.93923: L2-HR :0.90878: (Sim:2h15m15s) 
CPU  0 inst:  567000001 cyc:  514329149 now IPC :0.27048: AVG IPC :1.10063: L2-Pf-HR :0.93913: L2-HR :0.90862: (Sim:2h15m31s) 
CPU  0 inst:  568000000 cyc:  518026329 now IPC :0.27048: AVG IPC :1.09469: L2-Pf-HR :0.93903: L2-HR :0.90846: (Sim:2h15m48s) 
CPU  0 inst:  569000000 cyc:  521722100 now IPC :0.27058: AVG IPC :1.08884: L2-Pf-HR :0.93893: L2-HR :0.90829: (Sim:2h16m4s) 
CPU  0 inst:  570000002 cyc:  525416525 now IPC :0.27068: AVG IPC :1.08308: L2-Pf-HR :0.93883: L2-HR :0.90813: (Sim:2h16m21s) 
CPU  0 inst:  571000004 cyc:  529111210 now IPC :0.27066: AVG IPC :1.07740: L2-Pf-HR :0.93874: L2-HR :0.90797: (Sim:2h16m37s) 
CPU  0 inst:  572000004 cyc:  532805317 now IPC :0.27070: AVG IPC :1.07179: L2-Pf-HR :0.93864: L2-HR :0.90781: (Sim:2h16m53s) 
CPU  0 inst:  573000000 cyc:  536499851 now IPC :0.27067: AVG IPC :1.06626: L2-Pf-HR :0.93854: L2-HR :0.90765: (Sim:2h17m10s) 
CPU  0 inst:  574000000 cyc:  540196172 now IPC :0.27054: AVG IPC :1.06081: L2-Pf-HR :0.93845: L2-HR :0.90749: (Sim:2h17m26s) 
CPU  0 inst:  575000001 cyc:  543893314 now IPC :0.27048: AVG IPC :1.05543: L2-Pf-HR :0.93835: L2-HR :0.90733: (Sim:2h17m43s) 
CPU  0 inst:  576000004 cyc:  547587670 now IPC :0.27068: AVG IPC :1.05012: L2-Pf-HR :0.93826: L2-HR :0.90717: (Sim:2h17m59s) 
CPU  0 inst:  577000000 cyc:  551283811 now IPC :0.27055: AVG IPC :1.04489: L2-Pf-HR :0.93816: L2-HR :0.90701: (Sim:2h18m15s) 
CPU  0 inst:  578000003 cyc:  554977186 now IPC :0.27076: AVG IPC :1.03973: L2-Pf-HR :0.93807: L2-HR :0.90686: (Sim:2h18m31s) 
CPU  0 inst:  579000002 cyc:  558671973 now IPC :0.27065: AVG IPC :1.03463: L2-Pf-HR :0.93797: L2-HR :0.90670: (Sim:2h18m48s) 
CPU  0 inst:  580000000 cyc:  562366794 now IPC :0.27065: AVG IPC :1.02960: L2-Pf-HR :0.93788: L2-HR :0.90654: (Sim:2h19m4s) 
CPU  0 inst:  581000000 cyc:  566062052 now IPC :0.27062: AVG IPC :1.02464: L2-Pf-HR :0.93778: L2-HR :0.90639: (Sim:2h19m21s) 
CPU  0 inst:  582000005 cyc:  569759644 now IPC :0.27045: AVG IPC :1.01974: L2-Pf-HR :0.93769: L2-HR :0.90623: (Sim:2h19m37s) 
CPU  0 inst:  583000002 cyc:  573456172 now IPC :0.27052: AVG IPC :1.01490: L2-Pf-HR :0.93759: L2-HR :0.90608: (Sim:2h19m54s) 
CPU  0 inst:  584000000 cyc:  577150180 now IPC :0.27071: AVG IPC :1.01013: L2-Pf-HR :0.93750: L2-HR :0.90592: (Sim:2h20m11s) 
CPU  0 inst:  585000000 cyc:  580845788 now IPC :0.27059: AVG IPC :1.00541: L2-Pf-HR :0.93741: L2-HR :0.90577: (Sim:2h20m27s) 
CPU  0 inst:  586000000 cyc:  584539593 now IPC :0.27072: AVG IPC :1.00076: L2-Pf-HR :0.93731: L2-HR :0.90561: (Sim:2h20m44s) 
CPU  0 inst:  587000002 cyc:  588233753 now IPC :0.27070: AVG IPC :0.99617: L2-Pf-HR :0.93722: L2-HR :0.90546: (Sim:2h21m0s) 
CPU  0 inst:  588000004 cyc:  591927920 now IPC :0.27070: AVG IPC :0.99164: L2-Pf-HR :0.93713: L2-HR :0.90531: (Sim:2h21m17s) 
CPU  0 inst:  589000002 cyc:  595623122 now IPC :0.27062: AVG IPC :0.98716: L2-Pf-HR :0.93704: L2-HR :0.90516: (Sim:2h21m33s) 
CPU  0 inst:  590000001 cyc:  599320246 now IPC :0.27048: AVG IPC :0.98273: L2-Pf-HR :0.93695: L2-HR :0.90501: (Sim:2h21m50s) 
CPU  0 inst:  591000002 cyc:  603014465 now IPC :0.27069: AVG IPC :0.97836: L2-Pf-HR :0.93686: L2-HR :0.90486: (Sim:2h22m6s) 
CPU  0 inst:  592000004 cyc:  606709226 now IPC :0.27065: AVG IPC :0.97404: L2-Pf-HR :0.93677: L2-HR :0.90470: (Sim:2h22m23s) 
CPU  0 inst:  593000004 cyc:  610403051 now IPC :0.27072: AVG IPC :0.96978: L2-Pf-HR :0.93668: L2-HR :0.90455: (Sim:2h22m39s) 
CPU  0 inst:  594000000 cyc:  614096982 now IPC :0.27071: AVG IPC :0.96557: L2-Pf-HR :0.93659: L2-HR :0.90441: (Sim:2h22m55s) 
CPU  0 inst:  595000003 cyc:  617791510 now IPC :0.27067: AVG IPC :0.96140: L2-Pf-HR :0.93649: L2-HR :0.90426: (Sim:2h23m11s) 
CPU  0 inst:  596000002 cyc:  621487348 now IPC :0.27057: AVG IPC :0.95729: L2-Pf-HR :0.93640: L2-HR :0.90411: (Sim:2h23m28s) 
CPU  0 inst:  597000003 cyc:  625184328 now IPC :0.27049: AVG IPC :0.95322: L2-Pf-HR :0.93631: L2-HR :0.90396: (Sim:2h23m44s) 
CPU  0 inst:  598000000 cyc:  628880151 now IPC :0.27057: AVG IPC :0.94920: L2-Pf-HR :0.93622: L2-HR :0.90381: (Sim:2h24m0s) 
CPU  0 inst:  599000003 cyc:  632575294 now IPC :0.27063: AVG IPC :0.94523: L2-Pf-HR :0.93613: L2-HR :0.90366: (Sim:2h24m17s) 
CPU  0 inst:  600000002 cyc:  636270223 now IPC :0.27064: AVG IPC :0.94131: L2-Pf-HR :0.93604: L2-HR :0.90351: (Sim:2h24m33s) 
CPU  0 inst:  601000000 cyc:  639964809 now IPC :0.27067: AVG IPC :0.93743: L2-Pf-HR :0.93595: L2-HR :0.90336: (Sim:2h24m49s) 
CPU  0 inst:  602000000 cyc:  643659943 now IPC :0.27063: AVG IPC :0.93360: L2-Pf-HR :0.93586: L2-HR :0.90322: (Sim:2h25m26s) 
CPU  0 inst:  603000001 cyc:  647355047 now IPC :0.27063: AVG IPC :0.92981: L2-Pf-HR :0.93578: L2-HR :0.90307: (Sim:2h26m5s) 
CPU  0 inst:  604000005 cyc:  651052408 now IPC :0.27046: AVG IPC :0.92606: L2-Pf-HR :0.93569: L2-HR :0.90292: (Sim:2h26m43s) 
CPU  0 inst:  605000001 cyc:  654748593 now IPC :0.27055: AVG IPC :0.92235: L2-Pf-HR :0.93560: L2-HR :0.90278: (Sim:2h27m21s) 
CPU  0 inst:  606000000 cyc:  658441696 now IPC :0.27077: AVG IPC :0.91869: L2-Pf-HR :0.93551: L2-HR :0.90264: (Sim:2h28m0s) 
CPU  0 inst:  607000000 cyc:  662135197 now IPC :0.27075: AVG IPC :0.91507: L2-Pf-HR :0.93543: L2-HR :0.90249: (Sim:2h28m38s) 
CPU  0 inst:  608000002 cyc:  665831055 now IPC :0.27057: AVG IPC :0.91149: L2-Pf-HR :0.93534: L2-HR :0.90235: (Sim:2h29m16s) 
CPU  0 inst:  609000004 cyc:  669525940 now IPC :0.27064: AVG IPC :0.90795: L2-Pf-HR :0.93525: L2-HR :0.90220: (Sim:2h29m55s) 
CPU  0 inst:  610000004 cyc:  673221516 now IPC :0.27059: AVG IPC :0.90444: L2-Pf-HR :0.93516: L2-HR :0.90206: (Sim:2h30m33s) 
CPU  0 inst:  611000001 cyc:  676916262 now IPC :0.27065: AVG IPC :0.90098: L2-Pf-HR :0.93508: L2-HR :0.90191: (Sim:2h31m11s) 
CPU  0 inst:  612000001 cyc:  680614407 now IPC :0.27041: AVG IPC :0.89755: L2-Pf-HR :0.93499: L2-HR :0.90177: (Sim:2h31m49s) 
CPU  0 inst:  613000004 cyc:  684310920 now IPC :0.27053: AVG IPC :0.89416: L2-Pf-HR :0.93490: L2-HR :0.90163: (Sim:2h32m28s) 
CPU  0 inst:  614000004 cyc:  688005475 now IPC :0.27067: AVG IPC :0.89080: L2-Pf-HR :0.93482: L2-HR :0.90149: (Sim:2h33m6s) 
CPU  0 inst:  615000000 cyc:  691700113 now IPC :0.27066: AVG IPC :0.88749: L2-Pf-HR :0.93473: L2-HR :0.90134: (Sim:2h33m44s) 
CPU  0 inst:  616000003 cyc:  695394058 now IPC :0.27071: AVG IPC :0.88421: L2-Pf-HR :0.93465: L2-HR :0.90120: (Sim:2h34m22s) 
CPU  0 inst:  617000002 cyc:  699087771 now IPC :0.27073: AVG IPC :0.88096: L2-Pf-HR :0.93456: L2-HR :0.90106: (Sim:2h35m0s) 
CPU  0 inst:  618000000 cyc:  702781740 now IPC :0.27071: AVG IPC :0.87775: L2-Pf-HR :0.93448: L2-HR :0.90092: (Sim:2h35m38s) 
CPU  0 inst:  619000005 cyc:  706478124 now IPC :0.27054: AVG IPC :0.87457: L2-Pf-HR :0.93439: L2-HR :0.90078: (Sim:2h36m16s) 
CPU  0 inst:  620000005 cyc:  710175805 now IPC :0.27044: AVG IPC :0.87142: L2-Pf-HR :0.93431: L2-HR :0.90064: (Sim:2h36m54s) 
CPU  0 inst:  621000002 cyc:  713870357 now IPC :0.27067: AVG IPC :0.86830: L2-Pf-HR :0.93422: L2-HR :0.90051: (Sim:2h37m32s) 
CPU  0 inst:  622000000 cyc:  717564790 now IPC :0.27068: AVG IPC :0.86522: L2-Pf-HR :0.93414: L2-HR :0.90037: (Sim:2h38m11s) 
CPU  0 inst:  623000000 cyc:  721260341 now IPC :0.27060: AVG IPC :0.86217: L2-Pf-HR :0.93406: L2-HR :0.90023: (Sim:2h38m49s) 
CPU  0 inst:  624000000 cyc:  724954917 now IPC :0.27067: AVG IPC :0.85915: L2-Pf-HR :0.93397: L2-HR :0.90009: (Sim:2h39m27s) 
[...]
CPU  0 inst: 1063000000 cyc: 1012721481 now IPC :1.75073: AVG IPC :1.04869: L2-Pf-HR :0.94456: L2-HR :0.92142: (Sim:4h11m54s) 
CPU  0 inst: 1064000003 cyc: 1013196725 now IPC :2.10419: AVG IPC :1.04919: L2-Pf-HR :0.94457: L2-HR :0.92146: (Sim:4h12m1s) 
CPU  0 inst: 1065000001 cyc: 1013639663 now IPC :2.25765: AVG IPC :1.04972: L2-Pf-HR :0.94461: L2-HR :0.92152: (Sim:4h12m8s) 
CPU  0 inst: 1066000005 cyc: 1014199490 now IPC :1.78627: AVG IPC :1.05012: L2-Pf-HR :0.94462: L2-HR :0.92154: (Sim:4h12m16s) 
CPU  0 inst: 1067000003 cyc: 1014800642 now IPC :1.66347: AVG IPC :1.05049: L2-Pf-HR :0.94461: L2-HR :0.92155: (Sim:4h12m25s) 
CPU  0 inst: 1068000003 cyc: 1015278446 now IPC :2.09291: AVG IPC :1.05098: L2-Pf-HR :0.94463: L2-HR :0.92159: (Sim:4h12m33s) 
CPU  0 inst: 1069000002 cyc: 1015728343 now IPC :2.22273: AVG IPC :1.05150: L2-Pf-HR :0.94468: L2-HR :0.92165: (Sim:4h12m40s) 
CPU  0 inst: 1070000001 cyc: 1016322473 now IPC :1.68313: AVG IPC :1.05187: L2-Pf-HR :0.94467: L2-HR :0.92166: (Sim:4h12m48s) 
CPU  0 inst: 1071000002 cyc: 1016764784 now IPC :2.26085: AVG IPC :1.05239: L2-Pf-HR :0.94472: L2-HR :0.92172: (Sim:4h12m55s) 
CPU  0 inst: 1072000002 cyc: 1017313404 now IPC :1.82276: AVG IPC :1.05281: L2-Pf-HR :0.94473: L2-HR :0.92175: (Sim:4h13m3s) 
CPU  0 inst: 1073000004 cyc: 1017754803 now IPC :2.26553: AVG IPC :1.05334: L2-Pf-HR :0.94478: L2-HR :0.92182: (Sim:4h13m10s) 
CPU  0 inst: 1074000002 cyc: 1018345070 now IPC :1.69415: AVG IPC :1.05371: L2-Pf-HR :0.94476: L2-HR :0.92181: (Sim:4h13m19s) 
CPU  0 inst: 1075000003 cyc: 1018804656 now IPC :2.17587: AVG IPC :1.05421: L2-Pf-HR :0.94481: L2-HR :0.92187: (Sim:4h13m27s) 
CPU  0 inst: 1076000001 cyc: 1019379774 now IPC :1.73877: AVG IPC :1.05460: L2-Pf-HR :0.94480: L2-HR :0.92189: (Sim:4h13m35s) 
CPU  0 inst: 1077000000 cyc: 1019823664 now IPC :2.25281: AVG IPC :1.05512: L2-Pf-HR :0.94484: L2-HR :0.92194: (Sim:4h13m42s) 
CPU  0 inst: 1078000003 cyc: 1020324934 now IPC :1.99494: AVG IPC :1.05559: L2-Pf-HR :0.94487: L2-HR :0.92200: (Sim:4h13m50s) 
CPU  0 inst: 1079000004 cyc: 1020798108 now IPC :2.11339: AVG IPC :1.05608: L2-Pf-HR :0.94490: L2-HR :0.92204: (Sim:4h13m57s) 
CPU  0 inst: 1080000002 cyc: 1021328926 now IPC :1.88388: AVG IPC :1.05651: L2-Pf-HR :0.94493: L2-HR :0.92208: (Sim:4h14m5s) 
CPU  0 inst: 1081000000 cyc: 1021855228 now IPC :1.90005: AVG IPC :1.05694: L2-Pf-HR :0.94496: L2-HR :0.92212: (Sim:4h14m13s) 
CPU  0 inst: 1082000002 cyc: 1022548664 now IPC :1.44210: AVG IPC :1.05720: L2-Pf-HR :0.94492: L2-HR :0.92209: (Sim:4h14m22s) 
CPU  0 inst: 1083000000 cyc: 1023037764 now IPC :2.04457: AVG IPC :1.05768: L2-Pf-HR :0.94494: L2-HR :0.92212: (Sim:4h14m30s) 
CPU  0 inst: 1084000003 cyc: 1023513225 now IPC :2.10323: AVG IPC :1.05816: L2-Pf-HR :0.94498: L2-HR :0.92218: (Sim:4h14m37s) 
CPU  0 inst: 1085000002 cyc: 1024180243 now IPC :1.49921: AVG IPC :1.05845: L2-Pf-HR :0.94493: L2-HR :0.92215: (Sim:4h14m45s) 
CPU  0 inst: 1086000003 cyc: 1024630646 now IPC :2.22024: AVG IPC :1.05896: L2-Pf-HR :0.94497: L2-HR :0.92220: (Sim:4h14m52s) 
CPU  0 inst: 1087000005 cyc: 1025220941 now IPC :1.69407: AVG IPC :1.05933: L2-Pf-HR :0.94497: L2-HR :0.92222: (Sim:4h15m0s) 
CPU  0 inst: 1088000002 cyc: 1025684613 now IPC :2.15669: AVG IPC :1.05982: L2-Pf-HR :0.94501: L2-HR :0.92228: (Sim:4h15m10s) 
CPU  0 inst: 1089000002 cyc: 1026306562 now IPC :1.60785: AVG IPC :1.06016: L2-Pf-HR :0.94498: L2-HR :0.92226: (Sim:4h15m31s) 
CPU  0 inst: 1090000000 cyc: 1026758022 now IPC :2.21503: AVG IPC :1.06066: L2-Pf-HR :0.94503: L2-HR :0.92232: (Sim:4h15m48s) 
CPU  0 inst: 1091000004 cyc: 1027359681 now IPC :1.66208: AVG IPC :1.06102: L2-Pf-HR :0.94501: L2-HR :0.92232: (Sim:4h16m6s) 
CPU  0 inst: 1092000003 cyc: 1027802289 now IPC :2.25933: AVG IPC :1.06153: L2-Pf-HR :0.94506: L2-HR :0.92238: (Sim:4h16m22s) 
CPU  0 inst: 1093000001 cyc: 1028361235 now IPC :1.78908: AVG IPC :1.06193: L2-Pf-HR :0.94507: L2-HR :0.92241: (Sim:4h16m40s) 
CPU  0 inst: 1094000004 cyc: 1028806156 now IPC :2.24760: AVG IPC :1.06244: L2-Pf-HR :0.94511: L2-HR :0.92247: (Sim:4h16m56s) 
CPU  0 inst: 1095000005 cyc: 1029441050 now IPC :1.57507: AVG IPC :1.06276: L2-Pf-HR :0.94507: L2-HR :0.92246: (Sim:4h17m16s) 
CPU  0 inst: 1096000004 cyc: 1029895201 now IPC :2.20191: AVG IPC :1.06326: L2-Pf-HR :0.94511: L2-HR :0.92251: (Sim:4h17m34s) 
CPU  0 inst: 1097000002 cyc: 1030498632 now IPC :1.65719: AVG IPC :1.06361: L2-Pf-HR :0.94510: L2-HR :0.92252: (Sim:4h17m52s) 
CPU  0 inst: 1098000004 cyc: 1030949604 now IPC :2.21744: AVG IPC :1.06411: L2-Pf-HR :0.94514: L2-HR :0.92257: (Sim:4h18m8s) 
CPU  0 inst: 1099000004 cyc: 1031400229 now IPC :2.21914: AVG IPC :1.06462: L2-Pf-HR :0.94518: L2-HR :0.92263: (Sim:4h18m24s) 
CPU  0 inst: 1100000002 cyc: 1031953503 now IPC :1.80742: AVG IPC :1.06502: L2-Pf-HR :0.94518: L2-HR :0.92265: (Sim:4h18m42s) 
CPU  0 inst: 1101000004 cyc: 1032579196 now IPC :1.59823: AVG IPC :1.06534: L2-Pf-HR :0.94517: L2-HR :0.92264: (Sim:4h19m2s) 
CPU  0 inst: 1102000004 cyc: 1033042959 now IPC :2.15627: AVG IPC :1.06583: L2-Pf-HR :0.94520: L2-HR :0.92270: (Sim:4h19m19s) 
CPU  0 inst: 1103000000 cyc: 1033508895 now IPC :2.14621: AVG IPC :1.06632: L2-Pf-HR :0.94525: L2-HR :0.92276: (Sim:4h19m35s) 
CPU  0 inst: 1104000002 cyc: 1034099640 now IPC :1.69278: AVG IPC :1.06668: L2-Pf-HR :0.94522: L2-HR :0.92275: (Sim:4h19m53s) 
CPU  0 inst: 1105000003 cyc: 1034542726 now IPC :2.25690: AVG IPC :1.06719: L2-Pf-HR :0.94527: L2-HR :0.92281: (Sim:4h20m6s) 
CPU  0 inst: 1106000000 cyc: 1035093113 now IPC :1.81690: AVG IPC :1.06759: L2-Pf-HR :0.94528: L2-HR :0.92283: (Sim:4h20m13s) 
CPU  0 inst: 1107000002 cyc: 1035545404 now IPC :2.21097: AVG IPC :1.06809: L2-Pf-HR :0.94533: L2-HR :0.92290: (Sim:4h20m21s) 
CPU  0 inst: 1108000005 cyc: 1036140210 now IPC :1.68123: AVG IPC :1.06844: L2-Pf-HR :0.94531: L2-HR :0.92290: (Sim:4h20m29s) 
CPU  0 inst: 1109000005 cyc: 1036588444 now IPC :2.23098: AVG IPC :1.06894: L2-Pf-HR :0.94535: L2-HR :0.92295: (Sim:4h20m37s) 
CPU  0 inst: 1110000003 cyc: 1037163443 now IPC :1.73913: AVG IPC :1.06931: L2-Pf-HR :0.94535: L2-HR :0.92296: (Sim:4h20m44s) 
CPU  0 inst: 1111000001 cyc: 1037605488 now IPC :2.26221: AVG IPC :1.06982: L2-Pf-HR :0.94539: L2-HR :0.92302: (Sim:4h20m51s) 
CPU  0 inst: 1112000000 cyc: 1038135699 now IPC :1.88604: AVG IPC :1.07024: L2-Pf-HR :0.94541: L2-HR :0.92306: (Sim:4h20m59s) 
CPU  0 inst: 1113000005 cyc: 1038579138 now IPC :2.25511: AVG IPC :1.07075: L2-Pf-HR :0.94545: L2-HR :0.92311: (Sim:4h21m6s) 
CPU  0 inst: 1114000002 cyc: 1039116373 now IPC :1.86138: AVG IPC :1.07116: L2-Pf-HR :0.94548: L2-HR :0.92315: (Sim:4h21m14s) 
CPU  0 inst: 1115000005 cyc: 1039648318 now IPC :1.87990: AVG IPC :1.07157: L2-Pf-HR :0.94551: L2-HR :0.92319: (Sim:4h21m21s) 
CPU  0 inst: 1116000003 cyc: 1040338748 now IPC :1.44837: AVG IPC :1.07182: L2-Pf-HR :0.94546: L2-HR :0.92315: (Sim:4h21m30s) 
CPU  0 inst: 1117000001 cyc: 1040817324 now IPC :2.08953: AVG IPC :1.07229: L2-Pf-HR :0.94549: L2-HR :0.92319: (Sim:4h21m38s) 
CPU  0 inst: 1118000003 cyc: 1041382375 now IPC :1.76976: AVG IPC :1.07267: L2-Pf-HR :0.94551: L2-HR :0.92323: (Sim:4h21m46s) 
CPU  0 inst: 1119000003 cyc: 1041940317 now IPC :1.79230: AVG IPC :1.07305: L2-Pf-HR :0.94549: L2-HR :0.92322: (Sim:4h21m53s) 
CPU  0 inst: 1120000004 cyc: 1042392002 now IPC :2.21393: AVG IPC :1.07355: L2-Pf-HR :0.94553: L2-HR :0.92328: (Sim:4h22m0s) 
CPU  0 inst: 1121000002 cyc: 1042982394 now IPC :1.69379: AVG IPC :1.07390: L2-Pf-HR :0.94552: L2-HR :0.92329: (Sim:4h22m8s) 
CPU  0 inst: 1122000000 cyc: 1043624834 now IPC :1.55656: AVG IPC :1.07420: L2-Pf-HR :0.94551: L2-HR :0.92328: (Sim:4h22m17s) 
CPU  0 inst: 1123000003 cyc: 1044096473 now IPC :2.12027: AVG IPC :1.07467: L2-Pf-HR :0.94552: L2-HR :0.92331: (Sim:4h22m24s) 
CPU  0 inst: 1124000000 cyc: 1044547693 now IPC :2.21621: AVG IPC :1.07516: L2-Pf-HR :0.94557: L2-HR :0.92337: (Sim:4h22m38s) 
CPU  0 inst: 1125000005 cyc: 1045168671 now IPC :1.61037: AVG IPC :1.07548: L2-Pf-HR :0.94554: L2-HR :0.92336: (Sim:4h22m46s) 
CPU  0 inst: 1126000000 cyc: 1045612765 now IPC :2.25176: AVG IPC :1.07598: L2-Pf-HR :0.94558: L2-HR :0.92341: (Sim:4h22m53s) 
CPU  0 inst: 1127000003 cyc: 1046171598 now IPC :1.78945: AVG IPC :1.07636: L2-Pf-HR :0.94559: L2-HR :0.92343: (Sim:4h23m1s) 
CPU  0 inst: 1128000000 cyc: 1046612905 now IPC :2.26599: AVG IPC :1.07687: L2-Pf-HR :0.94563: L2-HR :0.92349: (Sim:4h23m8s) 
CPU  0 inst: 1129000005 cyc: 1047261814 now IPC :1.54106: AVG IPC :1.07715: L2-Pf-HR :0.94559: L2-HR :0.92346: (Sim:4h23m17s) 
CPU  0 inst: 1130000001 cyc: 1047720969 now IPC :2.17791: AVG IPC :1.07764: L2-Pf-HR :0.94563: L2-HR :0.92352: (Sim:4h23m24s) 
CPU  0 inst: 1131000003 cyc: 1048336317 now IPC :1.62510: AVG IPC :1.07796: L2-Pf-HR :0.94561: L2-HR :0.92351: (Sim:4h23m32s) 
CPU  0 inst: 1132000001 cyc: 1048785733 now IPC :2.22511: AVG IPC :1.07845: L2-Pf-HR :0.94564: L2-HR :0.92357: (Sim:4h23m39s) 
CPU  0 inst: 1133000003 cyc: 1049285309 now IPC :2.00170: AVG IPC :1.07889: L2-Pf-HR :0.94568: L2-HR :0.92362: (Sim:4h23m46s) 
CPU  0 inst: 1134000000 cyc: 1049784153 now IPC :2.00463: AVG IPC :1.07933: L2-Pf-HR :0.94569: L2-HR :0.92365: (Sim:4h23m53s) 
CPU  0 inst: 1135000002 cyc: 1050417955 now IPC :1.57778: AVG IPC :1.07963: L2-Pf-HR :0.94567: L2-HR :0.92363: (Sim:4h24m2s) 
CPU  0 inst: 1136000000 cyc: 1050882071 now IPC :2.15463: AVG IPC :1.08011: L2-Pf-HR :0.94570: L2-HR :0.92368: (Sim:4h24m9s) 
CPU  0 inst: 1137000002 cyc: 1051447007 now IPC :1.77012: AVG IPC :1.08048: L2-Pf-HR :0.94572: L2-HR :0.92372: (Sim:4h24m16s) 
CPU  0 inst: 1138000002 cyc: 1051948064 now IPC :1.99578: AVG IPC :1.08091: L2-Pf-HR :0.94572: L2-HR :0.92374: (Sim:4h24m24s) 
CPU  0 inst: 1139000002 cyc: 1052391065 now IPC :2.25733: AVG IPC :1.08141: L2-Pf-HR :0.94576: L2-HR :0.92380: (Sim:4h24m30s) 
CPU  0 inst: 1140000003 cyc: 1052943040 now IPC :1.81168: AVG IPC :1.08179: L2-Pf-HR :0.94577: L2-HR :0.92382: (Sim:4h24m38s) 
CPU  0 inst: 1141000001 cyc: 1053505520 now IPC :1.77784: AVG IPC :1.08216: L2-Pf-HR :0.94577: L2-HR :0.92383: (Sim:4h24m45s) 
CPU  0 inst: 1142000000 cyc: 1053990571 now IPC :2.06164: AVG IPC :1.08262: L2-Pf-HR :0.94579: L2-HR :0.92387: (Sim:4h24m53s) 
CPU  0 inst: 1143000001 cyc: 1054444559 now IPC :2.20270: AVG IPC :1.08310: L2-Pf-HR :0.94583: L2-HR :0.92392: (Sim:4h25m0s) 
CPU  0 inst: 1144000003 cyc: 1055018199 now IPC :1.74326: AVG IPC :1.08346: L2-Pf-HR :0.94583: L2-HR :0.92393: (Sim:4h25m7s) 
CPU  0 inst: 1145000003 cyc: 1055460965 now IPC :2.25853: AVG IPC :1.08395: L2-Pf-HR :0.94587: L2-HR :0.92399: (Sim:4h25m14s) 
CPU  0 inst: 1146000002 cyc: 1055990434 now IPC :1.88868: AVG IPC :1.08436: L2-Pf-HR :0.94589: L2-HR :0.92402: (Sim:4h25m21s) 
CPU  0 inst: 1147000004 cyc: 1056432163 now IPC :2.26384: AVG IPC :1.08485: L2-Pf-HR :0.94593: L2-HR :0.92408: (Sim:4h25m28s) 
CPU  0 inst: 1148000000 cyc: 1056975414 now IPC :1.84076: AVG IPC :1.08524: L2-Pf-HR :0.94596: L2-HR :0.92412: (Sim:4h25m36s) 
CPU  0 inst: 1149000001 cyc: 1057535610 now IPC :1.78509: AVG IPC :1.08561: L2-Pf-HR :0.94598: L2-HR :0.92414: (Sim:4h25m43s) 
CPU  0 inst: 1150000005 cyc: 1058232795 now IPC :1.43435: AVG IPC :1.08584: L2-Pf-HR :0.94593: L2-HR :0.92410: (Sim:4h25m52s) 
CPU  0 inst: 1151000003 cyc: 1058699067 now IPC :2.14467: AVG IPC :1.08631: L2-Pf-HR :0.94596: L2-HR :0.92414: (Sim:4h25m59s) 
CPU  0 inst: 1152000002 cyc: 1059347599 now IPC :1.54194: AVG IPC :1.08658: L2-Pf-HR :0.94595: L2-HR :0.92414: (Sim:4h26m6s) 
CPU  0 inst: 1153000005 cyc: 1059820708 now IPC :2.11368: AVG IPC :1.08704: L2-Pf-HR :0.94596: L2-HR :0.92417: (Sim:4h26m13s) 
CPU  0 inst: 1154000001 cyc: 1060280186 now IPC :2.17637: AVG IPC :1.08752: L2-Pf-HR :0.94600: L2-HR :0.92423: (Sim:4h26m20s) 
CPU  0 inst: 1155000003 cyc: 1060881760 now IPC :1.66231: AVG IPC :1.08784: L2-Pf-HR :0.94599: L2-HR :0.92422: (Sim:4h26m27s) 
CPU  0 inst: 1156000002 cyc: 1061520279 now IPC :1.56612: AVG IPC :1.08813: L2-Pf-HR :0.94596: L2-HR :0.92421: (Sim:4h26m36s) 
CPU  0 inst: 1157000000 cyc: 1061986073 now IPC :2.14687: AVG IPC :1.08860: L2-Pf-HR :0.94599: L2-HR :0.92425: (Sim:4h26m43s) 
CPU  0 inst: 1158000005 cyc: 1062450338 now IPC :2.15395: AVG IPC :1.08906: L2-Pf-HR :0.94603: L2-HR :0.92431: (Sim:4h26m50s) 
CPU  0 inst: 1159000003 cyc: 1063040178 now IPC :1.69537: AVG IPC :1.08940: L2-Pf-HR :0.94600: L2-HR :0.92430: (Sim:4h26m58s) 
CPU  0 inst: 1160000001 cyc: 1063481478 now IPC :2.26603: AVG IPC :1.08989: L2-Pf-HR :0.94605: L2-HR :0.92436: (Sim:4h27m4s) 
CPU  0 inst: 1161000000 cyc: 1064038027 now IPC :1.79679: AVG IPC :1.09026: L2-Pf-HR :0.94605: L2-HR :0.92438: (Sim:4h27m12s) 
CPU  0 inst: 1162000003 cyc: 1064490499 now IPC :2.21009: AVG IPC :1.09073: L2-Pf-HR :0.94610: L2-HR :0.92444: (Sim:4h27m18s) 
CPU  0 inst: 1163000000 cyc: 1065123162 now IPC :1.58062: AVG IPC :1.09102: L2-Pf-HR :0.94607: L2-HR :0.92442: (Sim:4h27m27s) 
CPU  0 inst: 1164000000 cyc: 1065574037 now IPC :2.21791: AVG IPC :1.09150: L2-Pf-HR :0.94611: L2-HR :0.92447: (Sim:4h27m34s) 
CPU  0 inst: 1165000005 cyc: 1066173391 now IPC :1.66847: AVG IPC :1.09183: L2-Pf-HR :0.94609: L2-HR :0.92447: (Sim:4h27m42s) 
CPU  0 inst: 1166000003 cyc: 1066619647 now IPC :2.24086: AVG IPC :1.09231: L2-Pf-HR :0.94613: L2-HR :0.92452: (Sim:4h27m49s) 
CPU  0 inst: 1167000004 cyc: 1067169764 now IPC :1.81780: AVG IPC :1.09268: L2-Pf-HR :0.94615: L2-HR :0.92456: (Sim:4h27m56s) 
CPU  0 inst: 1168000001 cyc: 1067622381 now IPC :2.20937: AVG IPC :1.09316: L2-Pf-HR :0.94619: L2-HR :0.92461: (Sim:4h28m3s) 
CPU  0 inst: 1169000001 cyc: 1068250987 now IPC :1.59082: AVG IPC :1.09345: L2-Pf-HR :0.94617: L2-HR :0.92460: (Sim:4h28m11s) 
CPU  0 inst: 1170000002 cyc: 1068713269 now IPC :2.16318: AVG IPC :1.09391: L2-Pf-HR :0.94620: L2-HR :0.92465: (Sim:4h28m19s) 
CPU  0 inst: 1171000005 cyc: 1069320721 now IPC :1.64623: AVG IPC :1.09423: L2-Pf-HR :0.94620: L2-HR :0.92466: (Sim:4h28m27s) 
CPU  0 inst: 1172000002 cyc: 1069772690 now IPC :2.21253: AVG IPC :1.09470: L2-Pf-HR :0.94622: L2-HR :0.92470: (Sim:4h28m33s) 
CPU  0 inst: 1173000001 cyc: 1070221389 now IPC :2.22866: AVG IPC :1.09517: L2-Pf-HR :0.94627: L2-HR :0.92476: (Sim:4h28m40s) 
CPU  0 inst: 1174000001 cyc: 1070772144 now IPC :1.81569: AVG IPC :1.09555: L2-Pf-HR :0.94627: L2-HR :0.92478: (Sim:4h28m47s) 
CPU  0 inst: 1175000000 cyc: 1071364895 now IPC :1.68705: AVG IPC :1.09587: L2-Pf-HR :0.94626: L2-HR :0.92478: (Sim:4h28m55s) 
CPU  0 inst: 1176000000 cyc: 1071827532 now IPC :2.16152: AVG IPC :1.09633: L2-Pf-HR :0.94629: L2-HR :0.92483: (Sim:4h29m3s) 
CPU  0 inst: 1177000002 cyc: 1072295434 now IPC :2.13720: AVG IPC :1.09679: L2-Pf-HR :0.94634: L2-HR :0.92488: (Sim:4h29m10s) 
CPU  0 inst: 1178000003 cyc: 1072851867 now IPC :1.79716: AVG IPC :1.09715: L2-Pf-HR :0.94632: L2-HR :0.92488: (Sim:4h29m17s) 
CPU  0 inst: 1179000001 cyc: 1073294478 now IPC :2.25932: AVG IPC :1.09763: L2-Pf-HR :0.94636: L2-HR :0.92493: (Sim:4h29m24s) 
CPU  0 inst: 1180000000 cyc: 1073828531 now IPC :1.87247: AVG IPC :1.09802: L2-Pf-HR :0.94638: L2-HR :0.92496: (Sim:4h29m31s) 
Finished CPU 0 instr: 1178000003 cyc: 1072842901 AVG IPC: 1.09802 (Sim time: 4h29m31s)

ChampSim completed all CPUs

[ROI Statistics]
Core_0_instructions 1178000003
Core_0_cycles 1072842901
Core_0_IPC 1.09802

Core_0_branch_prediction_accuracy 98.59145
Core_0_branch_MPKI 0.33782
Core_0_average_ROB_occupancy_at_mispredict 616.72900

Core_0_L1D_total_access 635380112
Core_0_L1D_total_hit 611252548 L1D_total_Hit Ratio: 0.96203
Core_0_L1D_total_miss 24127564
Core_0_L1D_loads 248244495
Core_0_L1D_load_hit 234497915 L1D_load_Hit Ratio: 0.94462
Core_0_L1D_load_miss 13746580
Core_0_L1D_RFOs 22897925
Core_0_L1D_RFO_hit 21749259 L1D_RFO_Hit Ratio: 0.94984
Core_0_L1D_RFO_miss 1148666
Core_0_L1D_prefetches 364237692
Core_0_L1D_prefetch_hit 355005374 L1D_prefetch_Hit Ratio: 0.97465
Core_0_L1D_prefetch_miss 9232318
Core_0_L1D_writebacks 0
Core_0_L1D_writeback_hit 0 L1D_writeback_Hit Ratio: -nan
Core_0_L1D_writeback_miss 0
Core_0_L1D_prefetch_requested 750911013
Core_0_L1D_prefetch_issued 441870024
Core_0_L1D_prefetch_useful 7286665 L1D_Useful Ratio: 0.01649
Core_0_L1D_prefetch_useless 1961867
Core_0_L1D_prefetch_late 1775225
Core_0_L1D_average_miss_latency 44817781.65806

Core_0_L1I_total_access 153894801
Core_0_L1I_total_hit 153889926 L1I_total_Hit Ratio: 0.99997
Core_0_L1I_total_miss 4875
Core_0_L1I_loads 153894801
Core_0_L1I_load_hit 153889926 L1I_load_Hit Ratio: 0.99997
Core_0_L1I_load_miss 4875
Core_0_L1I_RFOs 0
Core_0_L1I_RFO_hit 0 L1I_RFO_Hit Ratio: -nan
Core_0_L1I_RFO_miss 0
Core_0_L1I_prefetches 0
Core_0_L1I_prefetch_hit 0 L1I_prefetch_Hit Ratio: -nan
Core_0_L1I_prefetch_miss 0
Core_0_L1I_writebacks 0
Core_0_L1I_writeback_hit 0 L1I_writeback_Hit Ratio: -nan
Core_0_L1I_writeback_miss 0
Core_0_L1I_prefetch_requested 0
Core_0_L1I_prefetch_issued 0
Core_0_L1I_prefetch_useful 0 L1I_Useful Ratio: -nan
Core_0_L1I_prefetch_useless 0
Core_0_L1I_prefetch_late 0
Core_0_L1I_average_miss_latency 345.59426

Core_0_L2C_total_access 118020605
Core_0_L2C_total_hit 109164772 L2C_total_Hit Ratio: 0.92496
Core_0_L2C_total_miss 8855833
Core_0_L2C_loads 11977103
Core_0_L2C_load_hit 9431721 L2C_load_Hit Ratio: 0.78748
Core_0_L2C_load_miss 2545382
Core_0_L2C_RFOs 1148650
Core_0_L2C_RFO_hit 141990 L2C_RFO_Hit Ratio: 0.12361
Core_0_L2C_RFO_miss 1006660
Core_0_L2C_prefetches 98890638
Core_0_L2C_prefetch_hit 93588207 L2C_prefetch_Hit Ratio: 0.94638
Core_0_L2C_prefetch_miss 5302431
Core_0_L2C_writebacks 6004214
Core_0_L2C_writeback_hit 6002854 L2C_writeback_Hit Ratio: 0.99977
Core_0_L2C_writeback_miss 1360
Core_0_L2C_prefetch_requested 215286823
Core_0_L2C_prefetch_issued 126597802
Core_0_L2C_prefetch_useful 1554442 L2C_Useful Ratio: 0.01228
Core_0_L2C_prefetch_useless 3759038
Core_0_L2C_prefetch_late 833345
Core_0_L2C_average_miss_latency 286.00084

Core_0_LLC_total_access 13378394
Core_0_LLC_total_hit 6668996 LLC_total_Hit Ratio: 0.49849
Core_0_LLC_total_miss 6709398
Core_0_LLC_loads 1712048
Core_0_LLC_load_hit 845961 LLC_load_Hit Ratio: 0.49412
Core_0_LLC_load_miss 866087
Core_0_LLC_RFOs 1006657
Core_0_LLC_RFO_hit 5234 LLC_RFO_Hit Ratio: 0.00520
Core_0_LLC_RFO_miss 1001423
Core_0_LLC_prefetches 6254911
Core_0_LLC_prefetch_hit 1519897 LLC_prefetch_Hit Ratio: 0.24299
Core_0_LLC_prefetch_miss 4735014
Core_0_LLC_writebacks 4404778
Core_0_LLC_writeback_hit 4297904 LLC_writeback_Hit Ratio: 0.97574
Core_0_LLC_writeback_miss 106874
Core_0_LLC_prefetch_requested 0
Core_0_LLC_prefetch_issued 0
Core_0_LLC_prefetch_useful 568783 LLC_Useful Ratio: inf
Core_0_LLC_prefetch_useless 4145689
Core_0_LLC_prefetch_late 28421
Core_0_LLC_average_miss_latency 368.35832

Core_0_major_page_fault 0
Core_0_minor_page_fault 42073

CPU 0 L1D next line prefetcher final stats
CPU 0 L2C PC-based stride prefetcher final stats
Stride Degree: 15
MK1  MARKOV_LRU_SIZE: 128
MK1  MARKOV_PREDICTION_PERCENTTHRESHOLD: 40.00000
MK1  OUTLIERS_THRESHOLD_Max: 64
MK1  OUTLIERS_THRESHOLD_Min: 32
MK2  MARKOV_LRU_SIZE: 256
MK2  MARKOV_PREDICTION_PERCENTTHRESHOLD: 20.00000
MK2  OUTLIERS_THRESHOLD_Max: 32
MK2  OUTLIERS_THRESHOLD_Min: 16
MK3  MARKOV_LRU_SIZE: 384
MK3  MARKOV_PREDICTION_PERCENTTHRESHOLD: 25.00000
MK3  OUTLIERS_THRESHOLD_Max: 16
MK3  OUTLIERS_THRESHOLD_Min: 8
MK4  MARKOV_LRU_SIZE: 512
MK4  MARKOV_PREDICTION_PERCENTTHRESHOLD: 20.00000
MK4  OUTLIERS_THRESHOLD_Max: 8
MK4  OUTLIERS_THRESHOLD_Min: 0
IPStride Degree/Access Ratio: 7.26446
MK1 IPDEltaMarkov  Degree/Access Ratio: 0.19959
MK2 IPDEltaMarkov  Degree/Access Ratio: 0.21055
MK3 IPDEltaMarkov  Degree/Access Ratio: 0.54656
MK4 IPDEltaMarkov  Degree/Access Ratio: 1.59008
Channel_0_RQ_row_buffer_hit 3652605
Channel_0_RQ_row_buffer_miss 2948873
Channel_0_WQ_row_buffer_hit 972485
Channel_0_WQ_row_buffer_miss 2665094
Channel_0_WQ_full 620
Channel_0_dbus_congested 6386090

avg_congested_cycle 11

EzSearch AVG IPC :1.09802: L2-Pf-HR :0.94638 : L2-HR :0.92496 Uful:0.01228
     > Finished combination: TraceType=770-tot Sim:1178000000 Prefetcher=L2029-SecTOP-L2-MultiMarkovDelta_ip_stride_v4 L1=next_line
