TRACE: [151000000]_FE_[OPT-6_7B]_[h32]_[s256]_[d128] Warmup: 2000000 NumTraces: 151000000
L1:no:L2:no
*************************************************
   ChampSim Multicore Out-of-Order Simulator
   Last compiled: Oct 27 2024 09:02:42
*************************************************

trace_0 770-tot_memTraces_v3/memTraces[151000000]_FE_[OPT-6_7B]_[h32]_[s256]_[d128].champsim.xz
MAIN.cc ln 751 stats print skipped
CPU  0 inst:    1000000 cyc:     500845 now IPC :1.99663: AVG IPC :1.99663: L2-Pf-HR :-nan: L2-HR :0.61485: (Sim:0h0m18s) 
CPU  0 inst:    2000000 cyc:     986251 now IPC :2.06013: AVG IPC :2.02788: L2-Pf-HR :-nan: L2-HR :0.70814: (Sim:0h0m37s) 

Warmup complete CPU  0 instructions:    2000003 cycles:     986252 (Simulation time: 0 hr 0 min 37 sec) 

CPU  0 inst:    3000000 cyc:    1630114 now IPC :1.55313: AVG IPC :1.55312: L2-Pf-HR :-nan: L2-HR :0.79335: (Sim:0h0m54s) 
CPU  0 inst:    4000001 cyc:    2208702 now IPC :1.72835: AVG IPC :1.63606: L2-Pf-HR :-nan: L2-HR :0.81208: (Sim:0h1m9s) 
CPU  0 inst:    5000004 cyc:    2838978 now IPC :1.58661: AVG IPC :1.61924: L2-Pf-HR :-nan: L2-HR :0.80899: (Sim:0h1m26s) 
CPU  0 inst:    6000000 cyc:    3425561 now IPC :1.70478: AVG IPC :1.63981: L2-Pf-HR :-nan: L2-HR :0.81246: (Sim:0h1m42s) 
CPU  0 inst:    7000005 cyc:    4055765 now IPC :1.58680: AVG IPC :1.62892: L2-Pf-HR :-nan: L2-HR :0.81049: (Sim:0h1m58s) 
CPU  0 inst:    8000000 cyc:    4633594 now IPC :1.73061: AVG IPC :1.64503: L2-Pf-HR :-nan: L2-HR :0.81387: (Sim:0h2m14s) 
CPU  0 inst:    9000003 cyc:    5270251 now IPC :1.57071: AVG IPC :1.63399: L2-Pf-HR :-nan: L2-HR :0.81115: (Sim:0h2m30s) 
CPU  0 inst:   10000005 cyc:    5849815 now IPC :1.72544: AVG IPC :1.64489: L2-Pf-HR :-nan: L2-HR :0.81410: (Sim:0h2m46s) 
CPU  0 inst:   11000000 cyc:    6484768 now IPC :1.57491: AVG IPC :1.63680: L2-Pf-HR :-nan: L2-HR :0.81238: (Sim:0h3m2s) 
CPU  0 inst:   12000003 cyc:    7073167 now IPC :1.69953: AVG IPC :1.64287: L2-Pf-HR :-nan: L2-HR :0.81423: (Sim:0h3m19s) 
CPU  0 inst:   13000005 cyc:    7719629 now IPC :1.54688: AVG IPC :1.63365: L2-Pf-HR :-nan: L2-HR :0.81281: (Sim:0h3m36s) 
CPU  0 inst:   14000001 cyc:    8319290 now IPC :1.66760: AVG IPC :1.63643: L2-Pf-HR :-nan: L2-HR :0.81492: (Sim:0h3m53s) 
CPU  0 inst:   15000000 cyc:    8999660 now IPC :1.46979: AVG IPC :1.62228: L2-Pf-HR :-nan: L2-HR :0.81311: (Sim:0h4m11s) 
CPU  0 inst:   16000005 cyc:    9611570 now IPC :1.63424: AVG IPC :1.62313: L2-Pf-HR :-nan: L2-HR :0.81462: (Sim:0h4m27s) 
CPU  0 inst:   17000004 cyc:   10288227 now IPC :1.47785: AVG IPC :1.61256: L2-Pf-HR :-nan: L2-HR :0.81379: (Sim:0h4m45s) 
CPU  0 inst:   18000005 cyc:   10897517 now IPC :1.64126: AVG IPC :1.61432: L2-Pf-HR :-nan: L2-HR :0.81439: (Sim:0h5m2s) 
CPU  0 inst:   19000002 cyc:   11562467 now IPC :1.50387: AVG IPC :1.60738: L2-Pf-HR :-nan: L2-HR :0.81367: (Sim:0h5m19s) 
CPU  0 inst:   20000004 cyc:   12176948 now IPC :1.62739: AVG IPC :1.60848: L2-Pf-HR :-nan: L2-HR :0.81423: (Sim:0h5m36s) 
CPU  0 inst:   21000003 cyc:   12844119 now IPC :1.49886: AVG IPC :1.60231: L2-Pf-HR :-nan: L2-HR :0.81359: (Sim:0h5m54s) 
CPU  0 inst:   22000002 cyc:   13440125 now IPC :1.67783: AVG IPC :1.60593: L2-Pf-HR :-nan: L2-HR :0.81462: (Sim:0h6m10s) 
CPU  0 inst:   23000000 cyc:   14117798 now IPC :1.47564: AVG IPC :1.59920: L2-Pf-HR :-nan: L2-HR :0.81370: (Sim:0h6m28s) 
CPU  0 inst:   24000002 cyc:   14717862 now IPC :1.66649: AVG IPC :1.60214: L2-Pf-HR :-nan: L2-HR :0.81464: (Sim:0h6m45s) 
CPU  0 inst:   25000005 cyc:   15391655 now IPC :1.48414: AVG IPC :1.59662: L2-Pf-HR :-nan: L2-HR :0.81393: (Sim:0h7m2s) 
CPU  0 inst:   26000004 cyc:   15995490 now IPC :1.65608: AVG IPC :1.59902: L2-Pf-HR :-nan: L2-HR :0.81466: (Sim:0h7m19s) 
CPU  0 inst:   27000000 cyc:   16668777 now IPC :1.48524: AVG IPC :1.59413: L2-Pf-HR :-nan: L2-HR :0.81400: (Sim:0h7m37s) 
CPU  0 inst:   28000004 cyc:   17267298 now IPC :1.67079: AVG IPC :1.59695: L2-Pf-HR :-nan: L2-HR :0.81481: (Sim:0h7m53s) 
CPU  0 inst:   29000004 cyc:   17941260 now IPC :1.48376: AVG IPC :1.59245: L2-Pf-HR :-nan: L2-HR :0.81402: (Sim:0h8m11s) 
CPU  0 inst:   30000000 cyc:   18541572 now IPC :1.66579: AVG IPC :1.59496: L2-Pf-HR :-nan: L2-HR :0.81467: (Sim:0h8m28s) 
CPU  0 inst:   31000004 cyc:   19144626 now IPC :1.65823: AVG IPC :1.59706: L2-Pf-HR :-nan: L2-HR :0.81570: (Sim:0h8m45s) 
CPU  0 inst:   32000001 cyc:   19835557 now IPC :1.44732: AVG IPC :1.59157: L2-Pf-HR :-nan: L2-HR :0.81455: (Sim:0h9m2s) 
CPU  0 inst:   33000004 cyc:   20436543 now IPC :1.66394: AVG IPC :1.59381: L2-Pf-HR :-nan: L2-HR :0.81555: (Sim:0h9m19s) 
CPU  0 inst:   34000001 cyc:   21100213 now IPC :1.50677: AVG IPC :1.59093: L2-Pf-HR :-nan: L2-HR :0.81476: (Sim:0h9m36s) 
CPU  0 inst:   35000002 cyc:   21702124 now IPC :1.66138: AVG IPC :1.59298: L2-Pf-HR :-nan: L2-HR :0.81537: (Sim:0h9m53s) 
CPU  0 inst:   36000005 cyc:   22381377 now IPC :1.47221: AVG IPC :1.58915: L2-Pf-HR :-nan: L2-HR :0.81476: (Sim:0h10m11s) 
CPU  0 inst:   37000002 cyc:   22977726 now IPC :1.67687: AVG IPC :1.59153: L2-Pf-HR :-nan: L2-HR :0.81537: (Sim:0h10m28s) 
CPU  0 inst:   38000004 cyc:   23656062 now IPC :1.47420: AVG IPC :1.58802: L2-Pf-HR :-nan: L2-HR :0.81476: (Sim:0h10m45s) 
CPU  0 inst:   39000003 cyc:   24252280 now IPC :1.67724: AVG IPC :1.59030: L2-Pf-HR :-nan: L2-HR :0.81523: (Sim:0h11m2s) 
CPU  0 inst:   40000004 cyc:   24918875 now IPC :1.50016: AVG IPC :1.58779: L2-Pf-HR :-nan: L2-HR :0.81488: (Sim:0h11m19s) 
CPU  0 inst:   41000004 cyc:   25522711 now IPC :1.65608: AVG IPC :1.58947: L2-Pf-HR :-nan: L2-HR :0.81511: (Sim:0h11m36s) 
CPU  0 inst:   42000000 cyc:   26193276 now IPC :1.49127: AVG IPC :1.58686: L2-Pf-HR :-nan: L2-HR :0.81478: (Sim:0h11m54s) 
CPU  0 inst:   43000005 cyc:   26785049 now IPC :1.68985: AVG IPC :1.58922: L2-Pf-HR :-nan: L2-HR :0.81523: (Sim:0h12m11s) 
CPU  0 inst:   44000004 cyc:   27462555 now IPC :1.47600: AVG IPC :1.58632: L2-Pf-HR :-nan: L2-HR :0.81469: (Sim:0h12m28s) 
CPU  0 inst:   45000000 cyc:   28063766 now IPC :1.66330: AVG IPC :1.58803: L2-Pf-HR :-nan: L2-HR :0.81521: (Sim:0h12m45s) 
CPU  0 inst:   46000002 cyc:   28728200 now IPC :1.50504: AVG IPC :1.58605: L2-Pf-HR :-nan: L2-HR :0.81482: (Sim:0h13m2s) 
CPU  0 inst:   47000004 cyc:   29338414 now IPC :1.63877: AVG IPC :1.58718: L2-Pf-HR :-nan: L2-HR :0.81518: (Sim:0h13m19s) 
CPU  0 inst:   48000000 cyc:   30004733 now IPC :1.50078: AVG IPC :1.58520: L2-Pf-HR :-nan: L2-HR :0.81482: (Sim:0h13m37s) 
CPU  0 inst:   49000002 cyc:   30610590 now IPC :1.65056: AVG IPC :1.58653: L2-Pf-HR :-nan: L2-HR :0.81529: (Sim:0h13m54s) 
CPU  0 inst:   50000001 cyc:   31279532 now IPC :1.49490: AVG IPC :1.58451: L2-Pf-HR :-nan: L2-HR :0.81481: (Sim:0h14m11s) 
CPU  0 inst:   51000000 cyc:   31884052 now IPC :1.65420: AVG IPC :1.58587: L2-Pf-HR :-nan: L2-HR :0.81518: (Sim:0h14m28s) 
CPU  0 inst:   52000005 cyc:   32544584 now IPC :1.51394: AVG IPC :1.58437: L2-Pf-HR :-nan: L2-HR :0.81492: (Sim:0h14m45s) 
CPU  0 inst:   53000001 cyc:   33160183 now IPC :1.62443: AVG IPC :1.58513: L2-Pf-HR :-nan: L2-HR :0.81509: (Sim:0h15m2s) 
CPU  0 inst:   54000003 cyc:   33819022 now IPC :1.51782: AVG IPC :1.58378: L2-Pf-HR :-nan: L2-HR :0.81484: (Sim:0h15m20s) 
CPU  0 inst:   55000000 cyc:   34427843 now IPC :1.64251: AVG IPC :1.58485: L2-Pf-HR :-nan: L2-HR :0.81517: (Sim:0h15m37s) 
CPU  0 inst:   56000004 cyc:   35093519 now IPC :1.50224: AVG IPC :1.58324: L2-Pf-HR :-nan: L2-HR :0.81476: (Sim:0h15m54s) 
CPU  0 inst:   57000003 cyc:   35703274 now IPC :1.64000: AVG IPC :1.58424: L2-Pf-HR :-nan: L2-HR :0.81515: (Sim:0h16m11s) 
CPU  0 inst:   58000002 cyc:   36358322 now IPC :1.52660: AVG IPC :1.58317: L2-Pf-HR :-nan: L2-HR :0.81485: (Sim:0h16m29s) 
CPU  0 inst:   59000004 cyc:   36976895 now IPC :1.61663: AVG IPC :1.58375: L2-Pf-HR :-nan: L2-HR :0.81514: (Sim:0h16m45s) 
CPU  0 inst:   60000000 cyc:   37637402 now IPC :1.51398: AVG IPC :1.58249: L2-Pf-HR :-nan: L2-HR :0.81485: (Sim:0h17m3s) 
CPU  0 inst:   61000002 cyc:   38247720 now IPC :1.63849: AVG IPC :1.58341: L2-Pf-HR :-nan: L2-HR :0.81523: (Sim:0h17m20s) 
CPU  0 inst:   62000001 cyc:   38905168 now IPC :1.52103: AVG IPC :1.58232: L2-Pf-HR :-nan: L2-HR :0.81485: (Sim:0h17m37s) 
CPU  0 inst:   63000000 cyc:   39515149 now IPC :1.63939: AVG IPC :1.58323: L2-Pf-HR :-nan: L2-HR :0.81516: (Sim:0h17m54s) 
CPU  0 inst:   64000002 cyc:   40163130 now IPC :1.54326: AVG IPC :1.58257: L2-Pf-HR :-nan: L2-HR :0.81511: (Sim:0h18m11s) 
CPU  0 inst:   65000001 cyc:   40798943 now IPC :1.57279: AVG IPC :1.58241: L2-Pf-HR :-nan: L2-HR :0.81508: (Sim:0h18m29s) 
CPU  0 inst:   66000004 cyc:   41401197 now IPC :1.66043: AVG IPC :1.58357: L2-Pf-HR :-nan: L2-HR :0.81556: (Sim:0h18m45s) 
CPU  0 inst:   67000001 cyc:   46050362 now IPC :0.21509: AVG IPC :1.44239: L2-Pf-HR :-nan: L2-HR :0.77365: (Sim:0h19m34s) 
CPU  0 inst:   68000001 cyc:   51127254 now IPC :0.19697: AVG IPC :1.31629: L2-Pf-HR :-nan: L2-HR :0.75935: (Sim:0h20m16s) 
CPU  0 inst:   69000001 cyc:   56175680 now IPC :0.19808: AVG IPC :1.21400: L2-Pf-HR :-nan: L2-HR :0.75329: (Sim:0h20m54s) 
CPU  0 inst:   70000001 cyc:   61219909 now IPC :0.19825: AVG IPC :1.12894: L2-Pf-HR :-nan: L2-HR :0.74740: (Sim:0h21m32s) 
CPU  0 inst:   71000001 cyc:   66128854 now IPC :0.20371: AVG IPC :1.05921: L2-Pf-HR :-nan: L2-HR :0.74167: (Sim:0h22m9s) 
CPU  0 inst:   72000001 cyc:   70988148 now IPC :0.20579: AVG IPC :0.99997: L2-Pf-HR :-nan: L2-HR :0.73609: (Sim:0h22m46s) 
CPU  0 inst:   73000001 cyc:   75843374 now IPC :0.20596: AVG IPC :0.94847: L2-Pf-HR :-nan: L2-HR :0.73067: (Sim:0h23m23s) 
CPU  0 inst:   74000001 cyc:   80664454 now IPC :0.20742: AVG IPC :0.90363: L2-Pf-HR :-nan: L2-HR :0.72539: (Sim:0h24m0s) 
CPU  0 inst:   75000001 cyc:   85560571 now IPC :0.20424: AVG IPC :0.86315: L2-Pf-HR :-nan: L2-HR :0.72025: (Sim:0h24m37s) 
CPU  0 inst:   76000001 cyc:   90426465 now IPC :0.20551: AVG IPC :0.82737: L2-Pf-HR :-nan: L2-HR :0.71524: (Sim:0h25m14s) 
CPU  0 inst:   77000001 cyc:   95309262 now IPC :0.20480: AVG IPC :0.79514: L2-Pf-HR :-nan: L2-HR :0.71036: (Sim:0h25m51s) 
CPU  0 inst:   78000001 cyc:  100234539 now IPC :0.20303: AVG IPC :0.76576: L2-Pf-HR :-nan: L2-HR :0.70561: (Sim:0h26m28s) 
CPU  0 inst:   79000000 cyc:  105094285 now IPC :0.20577: AVG IPC :0.73962: L2-Pf-HR :-nan: L2-HR :0.70097: (Sim:0h27m5s) 
CPU  0 inst:   80000001 cyc:  109989304 now IPC :0.20429: AVG IPC :0.71558: L2-Pf-HR :-nan: L2-HR :0.69644: (Sim:0h27m42s) 
CPU  0 inst:   81000001 cyc:  114923071 now IPC :0.20268: AVG IPC :0.69337: L2-Pf-HR :-nan: L2-HR :0.69203: (Sim:0h28m20s) 
CPU  0 inst:   82000001 cyc:  119802536 now IPC :0.20494: AVG IPC :0.67331: L2-Pf-HR :-nan: L2-HR :0.68772: (Sim:0h28m56s) 
CPU  0 inst:   83000001 cyc:  124664621 now IPC :0.20567: AVG IPC :0.65492: L2-Pf-HR :-nan: L2-HR :0.68352: (Sim:0h29m33s) 
CPU  0 inst:   84000001 cyc:  128601935 now IPC :0.25398: AVG IPC :0.64255: L2-Pf-HR :-nan: L2-HR :0.67819: (Sim:0h30m9s) 
CPU  0 inst:   85000001 cyc:  129192263 now IPC :1.69397: AVG IPC :0.64740: L2-Pf-HR :-nan: L2-HR :0.67979: (Sim:0h30m30s) 
CPU  0 inst:   86000002 cyc:  129882398 now IPC :1.44899: AVG IPC :0.65169: L2-Pf-HR :-nan: L2-HR :0.68155: (Sim:0h30m47s) 
CPU  0 inst:   87000000 cyc:  130469942 now IPC :1.70200: AVG IPC :0.65645: L2-Pf-HR :-nan: L2-HR :0.68311: (Sim:0h30m57s) 
CPU  0 inst:   88000002 cyc:  131152265 now IPC :1.46558: AVG IPC :0.66069: L2-Pf-HR :-nan: L2-HR :0.68490: (Sim:0h31m7s) 
CPU  0 inst:   89000004 cyc:  131777848 now IPC :1.59851: AVG IPC :0.66518: L2-Pf-HR :-nan: L2-HR :0.68633: (Sim:0h31m17s) 
CPU  0 inst:   90000002 cyc:  132365861 now IPC :1.70064: AVG IPC :0.66981: L2-Pf-HR :-nan: L2-HR :0.68829: (Sim:0h31m27s) 
CPU  0 inst:   91000005 cyc:  133082940 now IPC :1.39455: AVG IPC :0.67375: L2-Pf-HR :-nan: L2-HR :0.68942: (Sim:0h31m44s) 
CPU  0 inst:   92000001 cyc:  133669776 now IPC :1.70405: AVG IPC :0.67831: L2-Pf-HR :-nan: L2-HR :0.69107: (Sim:0h32m5s) 
CPU  0 inst:   93000003 cyc:  134376801 now IPC :1.41438: AVG IPC :0.68221: L2-Pf-HR :-nan: L2-HR :0.69237: (Sim:0h32m27s) 
CPU  0 inst:   94000004 cyc:  134963384 now IPC :1.70479: AVG IPC :0.68668: L2-Pf-HR :-nan: L2-HR :0.69374: (Sim:0h32m47s) 
CPU  0 inst:   95000001 cyc:  135619808 now IPC :1.52340: AVG IPC :0.69076: L2-Pf-HR :-nan: L2-HR :0.69530: (Sim:0h33m6s) 
CPU  0 inst:   96000001 cyc:  136188880 now IPC :1.75725: AVG IPC :0.69525: L2-Pf-HR :-nan: L2-HR :0.69653: (Sim:0h33m26s) 
CPU  0 inst:   97000000 cyc:  136834428 now IPC :1.54907: AVG IPC :0.69931: L2-Pf-HR :-nan: L2-HR :0.69799: (Sim:0h33m41s) 
CPU  0 inst:   98000002 cyc:  137399434 now IPC :1.76990: AVG IPC :0.70374: L2-Pf-HR :-nan: L2-HR :0.69920: (Sim:0h33m50s) 
CPU  0 inst:   99000000 cyc:  138065241 now IPC :1.50193: AVG IPC :0.70762: L2-Pf-HR :-nan: L2-HR :0.70058: (Sim:0h34m0s) 
CPU  0 inst:  100000000 cyc:  138621012 now IPC :1.79930: AVG IPC :0.71203: L2-Pf-HR :-nan: L2-HR :0.70177: (Sim:0h34m11s) 
CPU  0 inst:  101000004 cyc:  139292626 now IPC :1.48896: AVG IPC :0.71580: L2-Pf-HR :-nan: L2-HR :0.70306: (Sim:0h34m22s) 
CPU  0 inst:  102000002 cyc:  139845045 now IPC :1.81022: AVG IPC :0.72016: L2-Pf-HR :-nan: L2-HR :0.70433: (Sim:0h34m31s) 
CPU  0 inst:  103000000 cyc:  140515260 now IPC :1.49206: AVG IPC :0.72386: L2-Pf-HR :-nan: L2-HR :0.70548: (Sim:0h34m49s) 
CPU  0 inst:  104000003 cyc:  141085964 now IPC :1.75223: AVG IPC :0.72805: L2-Pf-HR :-nan: L2-HR :0.70668: (Sim:0h35m9s) 
CPU  0 inst:  105000000 cyc:  141756895 now IPC :1.49046: AVG IPC :0.73169: L2-Pf-HR :-nan: L2-HR :0.70781: (Sim:0h35m26s) 
CPU  0 inst:  106000001 cyc:  142341463 now IPC :1.71067: AVG IPC :0.73574: L2-Pf-HR :-nan: L2-HR :0.70894: (Sim:0h35m35s) 
CPU  0 inst:  107000002 cyc:  143002297 now IPC :1.51324: AVG IPC :0.73935: L2-Pf-HR :-nan: L2-HR :0.71005: (Sim:0h35m46s) 
CPU  0 inst:  108000005 cyc:  143583864 now IPC :1.71950: AVG IPC :0.74335: L2-Pf-HR :-nan: L2-HR :0.71113: (Sim:0h35m56s) 
CPU  0 inst:  109000005 cyc:  144224369 now IPC :1.56127: AVG IPC :0.74701: L2-Pf-HR :-nan: L2-HR :0.71234: (Sim:0h36m14s) 
CPU  0 inst:  110000000 cyc:  144842474 now IPC :1.61784: AVG IPC :0.75075: L2-Pf-HR :-nan: L2-HR :0.71326: (Sim:0h36m39s) 
CPU  0 inst:  111000001 cyc:  145416064 now IPC :1.74341: AVG IPC :0.75469: L2-Pf-HR :-nan: L2-HR :0.71464: (Sim:0h37m1s) 
CPU  0 inst:  112000000 cyc:  146110819 now IPC :1.43935: AVG IPC :0.75797: L2-Pf-HR :-nan: L2-HR :0.71531: (Sim:0h37m24s) 
CPU  0 inst:  113000004 cyc:  146676439 now IPC :1.76798: AVG IPC :0.76189: L2-Pf-HR :-nan: L2-HR :0.71647: (Sim:0h37m44s) 
CPU  0 inst:  114000005 cyc:  147353866 now IPC :1.47618: AVG IPC :0.76520: L2-Pf-HR :-nan: L2-HR :0.71729: (Sim:0h38m7s) 
CPU  0 inst:  115000000 cyc:  147916412 now IPC :1.77762: AVG IPC :0.76907: L2-Pf-HR :-nan: L2-HR :0.71827: (Sim:0h38m26s) 
CPU  0 inst:  116000001 cyc:  148576695 now IPC :1.51450: AVG IPC :0.77241: L2-Pf-HR :-nan: L2-HR :0.71929: (Sim:0h38m46s) 
CPU  0 inst:  117000001 cyc:  149155670 now IPC :1.72719: AVG IPC :0.77614: L2-Pf-HR :-nan: L2-HR :0.72016: (Sim:0h39m7s) 
CPU  0 inst:  118000002 cyc:  149819829 now IPC :1.50567: AVG IPC :0.77939: L2-Pf-HR :-nan: L2-HR :0.72112: (Sim:0h39m27s) 
CPU  0 inst:  119000005 cyc:  150381008 now IPC :1.78197: AVG IPC :0.78316: L2-Pf-HR :-nan: L2-HR :0.72199: (Sim:0h39m47s) 
CPU  0 inst:  120000000 cyc:  151028974 now IPC :1.54328: AVG IPC :0.78644: L2-Pf-HR :-nan: L2-HR :0.72289: (Sim:0h40m7s) 
CPU  0 inst:  121000000 cyc:  151589432 now IPC :1.78426: AVG IPC :0.79016: L2-Pf-HR :-nan: L2-HR :0.72375: (Sim:0h40m27s) 
CPU  0 inst:  122000000 cyc:  152236608 now IPC :1.54517: AVG IPC :0.79339: L2-Pf-HR :-nan: L2-HR :0.72461: (Sim:0h40m45s) 
CPU  0 inst:  123000004 cyc:  152793290 now IPC :1.79636: AVG IPC :0.79706: L2-Pf-HR :-nan: L2-HR :0.72554: (Sim:0h41m5s) 
CPU  0 inst:  124000004 cyc:  153480516 now IPC :1.45513: AVG IPC :0.80003: L2-Pf-HR :-nan: L2-HR :0.72629: (Sim:0h41m27s) 
CPU  0 inst:  125000002 cyc:  154063495 now IPC :1.71532: AVG IPC :0.80352: L2-Pf-HR :-nan: L2-HR :0.72717: (Sim:0h41m48s) 
CPU  0 inst:  126000002 cyc:  154727847 now IPC :1.50523: AVG IPC :0.80655: L2-Pf-HR :-nan: L2-HR :0.72792: (Sim:0h42m9s) 
CPU  0 inst:  127000002 cyc:  155308072 now IPC :1.72347: AVG IPC :0.81000: L2-Pf-HR :-nan: L2-HR :0.72875: (Sim:0h42m29s) 
CPU  0 inst:  128000003 cyc:  155955903 now IPC :1.54361: AVG IPC :0.81306: L2-Pf-HR :-nan: L2-HR :0.72949: (Sim:0h42m50s) 
CPU  0 inst:  129000002 cyc:  156530659 now IPC :1.73987: AVG IPC :0.81649: L2-Pf-HR :-nan: L2-HR :0.73030: (Sim:0h43m8s) 
CPU  0 inst:  130000001 cyc:  157145634 now IPC :1.62608: AVG IPC :0.81968: L2-Pf-HR :-nan: L2-HR :0.73121: (Sim:0h43m27s) 
CPU  0 inst:  131000003 cyc:  157763976 now IPC :1.61723: AVG IPC :0.82282: L2-Pf-HR :-nan: L2-HR :0.73181: (Sim:0h43m47s) 
CPU  0 inst:  132000004 cyc:  158337523 now IPC :1.74354: AVG IPC :0.82618: L2-Pf-HR :-nan: L2-HR :0.73285: (Sim:0h44m6s) 
CPU  0 inst:  133000004 cyc:  159004276 now IPC :1.49981: AVG IPC :0.82902: L2-Pf-HR :-nan: L2-HR :0.73328: (Sim:0h44m27s) 
CPU  0 inst:  134000003 cyc:  159571425 now IPC :1.76320: AVG IPC :0.83236: L2-Pf-HR :-nan: L2-HR :0.73414: (Sim:0h44m47s) 
CPU  0 inst:  135000005 cyc:  160258662 now IPC :1.45511: AVG IPC :0.83505: L2-Pf-HR :-nan: L2-HR :0.73470: (Sim:0h45m10s) 
CPU  0 inst:  136000002 cyc:  160833314 now IPC :1.74018: AVG IPC :0.83830: L2-Pf-HR :-nan: L2-HR :0.73544: (Sim:0h45m30s) 
CPU  0 inst:  137000002 cyc:  161484564 now IPC :1.53551: AVG IPC :0.84113: L2-Pf-HR :-nan: L2-HR :0.73615: (Sim:0h45m49s) 
CPU  0 inst:  138000003 cyc:  162077588 now IPC :1.68627: AVG IPC :0.84424: L2-Pf-HR :-nan: L2-HR :0.73681: (Sim:0h46m10s) 
CPU  0 inst:  139000003 cyc:  162734497 now IPC :1.52228: AVG IPC :0.84700: L2-Pf-HR :-nan: L2-HR :0.73747: (Sim:0h46m29s) 
CPU  0 inst:  140000001 cyc:  163319659 now IPC :1.70893: AVG IPC :0.85010: L2-Pf-HR :-nan: L2-HR :0.73813: (Sim:0h46m49s) 
CPU  0 inst:  141000001 cyc:  163983764 now IPC :1.50579: AVG IPC :0.85277: L2-Pf-HR :-nan: L2-HR :0.73875: (Sim:0h47m9s) 
CPU  0 inst:  142000003 cyc:  164542935 now IPC :1.78837: AVG IPC :0.85597: L2-Pf-HR :-nan: L2-HR :0.73950: (Sim:0h47m28s) 
CPU  0 inst:  143000001 cyc:  165213592 now IPC :1.49107: AVG IPC :0.85857: L2-Pf-HR :-nan: L2-HR :0.74001: (Sim:0h47m40s) 
CPU  0 inst:  144000005 cyc:  165783801 now IPC :1.75375: AVG IPC :0.86166: L2-Pf-HR :-nan: L2-HR :0.74073: (Sim:0h47m50s) 
CPU  0 inst:  145000003 cyc:  166450813 now IPC :1.49922: AVG IPC :0.86423: L2-Pf-HR :-nan: L2-HR :0.74125: (Sim:0h48m0s) 
CPU  0 inst:  146000005 cyc:  167018061 now IPC :1.76290: AVG IPC :0.86730: L2-Pf-HR :-nan: L2-HR :0.74193: (Sim:0h48m10s) 
CPU  0 inst:  147000003 cyc:  167685727 now IPC :1.49775: AVG IPC :0.86983: L2-Pf-HR :-nan: L2-HR :0.74245: (Sim:0h48m20s) 
CPU  0 inst:  148000003 cyc:  168254436 now IPC :1.75837: AVG IPC :0.87285: L2-Pf-HR :-nan: L2-HR :0.74309: (Sim:0h48m30s) 
Finished CPU 0 instr: 146000000 cyc: 167268184 AVG IPC: 0.87285 (Sim time: 0h48m30s)

ChampSim completed all CPUs

[ROI Statistics]
Core_0_instructions 146000000
Core_0_cycles 167268184
Core_0_IPC 0.87285

Core_0_branch_prediction_accuracy 97.68931
Core_0_branch_MPKI 0.56912
Core_0_average_ROB_occupancy_at_mispredict 508.71951

Core_0_L1D_total_access 33447860
Core_0_L1D_total_hit 30661016 L1D_total_Hit Ratio: 0.91668
Core_0_L1D_total_miss 2786844
Core_0_L1D_loads 30302189
Core_0_L1D_load_hit 27672673 L1D_load_Hit Ratio: 0.91322
Core_0_L1D_load_miss 2629516
Core_0_L1D_RFOs 3145671
Core_0_L1D_RFO_hit 2988343 L1D_RFO_Hit Ratio: 0.94999
Core_0_L1D_RFO_miss 157328
Core_0_L1D_prefetches 0
Core_0_L1D_prefetch_hit 0 L1D_prefetch_Hit Ratio: -nan
Core_0_L1D_prefetch_miss 0
Core_0_L1D_writebacks 0
Core_0_L1D_writeback_hit 0 L1D_writeback_Hit Ratio: -nan
Core_0_L1D_writeback_miss 0
Core_0_L1D_prefetch_requested 0
Core_0_L1D_prefetch_issued 0
Core_0_L1D_prefetch_useful 0 L1D_Useful Ratio: -nan
Core_0_L1D_prefetch_useless 0
Core_0_L1D_prefetch_late 0
Core_0_L1D_average_miss_latency 127.74110

Core_0_L1I_total_access 17702408
Core_0_L1I_total_hit 17697591 L1I_total_Hit Ratio: 0.99973
Core_0_L1I_total_miss 4817
Core_0_L1I_loads 17702408
Core_0_L1I_load_hit 17697591 L1I_load_Hit Ratio: 0.99973
Core_0_L1I_load_miss 4817
Core_0_L1I_RFOs 0
Core_0_L1I_RFO_hit 0 L1I_RFO_Hit Ratio: -nan
Core_0_L1I_RFO_miss 0
Core_0_L1I_prefetches 0
Core_0_L1I_prefetch_hit 0 L1I_prefetch_Hit Ratio: -nan
Core_0_L1I_prefetch_miss 0
Core_0_L1I_writebacks 0
Core_0_L1I_writeback_hit 0 L1I_writeback_Hit Ratio: -nan
Core_0_L1I_writeback_miss 0
Core_0_L1I_prefetch_requested 0
Core_0_L1I_prefetch_issued 0
Core_0_L1I_prefetch_useful 0 L1I_Useful Ratio: -nan
Core_0_L1I_prefetch_useless 0
Core_0_L1I_prefetch_late 0
Core_0_L1I_average_miss_latency 273.58065

Core_0_L2C_total_access 3542228
Core_0_L2C_total_hit 2632206 L2C_total_Hit Ratio: 0.74309
Core_0_L2C_total_miss 910022
Core_0_L2C_loads 2634332
Core_0_L2C_load_hit 1855986 L2C_load_Hit Ratio: 0.70454
Core_0_L2C_load_miss 778346
Core_0_L2C_RFOs 157328
Core_0_L2C_RFO_hit 25657 L2C_RFO_Hit Ratio: 0.16308
Core_0_L2C_RFO_miss 131671
Core_0_L2C_prefetches 0
Core_0_L2C_prefetch_hit 0 L2C_prefetch_Hit Ratio: -nan
Core_0_L2C_prefetch_miss 0
Core_0_L2C_writebacks 750568
Core_0_L2C_writeback_hit 750563 L2C_writeback_Hit Ratio: 0.99999
Core_0_L2C_writeback_miss 5
Core_0_L2C_prefetch_requested 0
Core_0_L2C_prefetch_issued 0
Core_0_L2C_prefetch_useful 0 L2C_Useful Ratio: -nan
Core_0_L2C_prefetch_useless 0
Core_0_L2C_prefetch_late 0
Core_0_L2C_average_miss_latency 345.35833

Core_0_LLC_total_access 1364773
Core_0_LLC_total_hit 452456 LLC_total_Hit Ratio: 0.33152
Core_0_LLC_total_miss 912317
Core_0_LLC_loads 778346
Core_0_LLC_load_hit 0 LLC_load_Hit Ratio: 0.00000
Core_0_LLC_load_miss 778346
Core_0_LLC_RFOs 131671
Core_0_LLC_RFO_hit 0 LLC_RFO_Hit Ratio: 0.00000
Core_0_LLC_RFO_miss 131671
Core_0_LLC_prefetches 0
Core_0_LLC_prefetch_hit 0 LLC_prefetch_Hit Ratio: -nan
Core_0_LLC_prefetch_miss 0
Core_0_LLC_writebacks 454756
Core_0_LLC_writeback_hit 452456 LLC_writeback_Hit Ratio: 0.99494
Core_0_LLC_writeback_miss 2300
Core_0_LLC_prefetch_requested 0
Core_0_LLC_prefetch_issued 0
Core_0_LLC_prefetch_useful 0 LLC_Useful Ratio: -nan
Core_0_LLC_prefetch_useless 0
Core_0_LLC_prefetch_late 0
Core_0_LLC_average_miss_latency 294.24106

Core_0_major_page_fault 0
Core_0_minor_page_fault 9156

Channel_0_RQ_row_buffer_hit 562971
Channel_0_RQ_row_buffer_miss 347046
Channel_0_WQ_row_buffer_hit 243170
Channel_0_WQ_row_buffer_miss 202849
Channel_0_WQ_full 162
Channel_0_dbus_congested 412437

avg_congested_cycle 9

EzSearch AVG IPC :0.87285: L2-Pf-HR :-nan : L2-HR :0.74309 Uful:-nan
     > Finished combination: TraceType=770-tot Sim:146000000 Prefetcher=L2no L1=no
