TRACE: _v1[331000000]Pythia-70M_[h8][s1024][d64] Warmup: 2000000 NumTraces: 331000000
L1:next_line:L2:no
*************************************************
   ChampSim Multicore Out-of-Order Simulator
   Last compiled: Oct 22 2024 11:25:28
*************************************************

trace_0 770-tot_memTraces_v3/memTraces_v1[331000000]Pythia-70M_[h8][s1024][d64].champsim.xz
CPU 0 L1D next line prefetcher
MAIN.cc ln 751 stats print skipped
CPU  0 inst:    1000002 cyc:     507197 now IPC :1.97162: AVG IPC :1.97162: L2-Pf-HR :0.50618: L2-HR :0.60442: (Sim:0h0m8s) 
CPU  0 inst:    2000000 cyc:     997002 now IPC :2.04162: AVG IPC :2.00601: L2-Pf-HR :0.56661: L2-HR :0.66291: (Sim:0h0m16s) 

Warmup complete CPU  0 instructions:    2000001 cycles:     997003 (Simulation time: 0 hr 0 min 16 sec) 

CPU  0 inst:    3000005 cyc:    1571916 now IPC :1.73940: AVG IPC :1.73940: L2-Pf-HR :0.59966: L2-HR :0.68366: (Sim:0h0m23s) 
CPU  0 inst:    4000000 cyc:    2149241 now IPC :1.73212: AVG IPC :1.73575: L2-Pf-HR :0.60732: L2-HR :0.68410: (Sim:0h0m31s) 
CPU  0 inst:    5000002 cyc:    2724159 now IPC :1.73938: AVG IPC :1.73696: L2-Pf-HR :0.61144: L2-HR :0.68412: (Sim:0h0m38s) 
CPU  0 inst:    6000000 cyc:    3297648 now IPC :1.74371: AVG IPC :1.73864: L2-Pf-HR :0.61720: L2-HR :0.68545: (Sim:0h0m45s) 
CPU  0 inst:    7000003 cyc:    3960119 now IPC :1.50950: AVG IPC :1.68741: L2-Pf-HR :0.61316: L2-HR :0.68301: (Sim:0h0m53s) 
CPU  0 inst:    8000000 cyc:    4524652 now IPC :1.77137: AVG IPC :1.70085: L2-Pf-HR :0.61402: L2-HR :0.68387: (Sim:0h1m1s) 
CPU  0 inst:    9000003 cyc:    5089092 now IPC :1.77167: AVG IPC :1.71062: L2-Pf-HR :0.61477: L2-HR :0.68439: (Sim:0h1m8s) 
CPU  0 inst:   10000003 cyc:    5654731 now IPC :1.76791: AVG IPC :1.71758: L2-Pf-HR :0.61532: L2-HR :0.68489: (Sim:0h1m15s) 
CPU  0 inst:   11000002 cyc:    6213313 now IPC :1.79025: AVG IPC :1.72536: L2-Pf-HR :0.61591: L2-HR :0.68500: (Sim:0h1m23s) 
CPU  0 inst:   12000002 cyc:    6776856 now IPC :1.77449: AVG IPC :1.73015: L2-Pf-HR :0.61897: L2-HR :0.68659: (Sim:0h1m30s) 
CPU  0 inst:   13000000 cyc:    7427061 now IPC :1.53797: AVG IPC :1.71072: L2-Pf-HR :0.62220: L2-HR :0.69484: (Sim:0h1m38s) 
CPU  0 inst:   14000003 cyc:    7994342 now IPC :1.76280: AVG IPC :1.71494: L2-Pf-HR :0.62538: L2-HR :0.70635: (Sim:0h1m45s) 
CPU  0 inst:   15000004 cyc:    8552140 now IPC :1.79277: AVG IPC :1.72068: L2-Pf-HR :0.62877: L2-HR :0.71667: (Sim:0h1m52s) 
CPU  0 inst:   16000000 cyc:    9113086 now IPC :1.78270: AVG IPC :1.72497: L2-Pf-HR :0.63188: L2-HR :0.72564: (Sim:0h2m0s) 
CPU  0 inst:   17000004 cyc:    9846196 now IPC :1.36406: AVG IPC :1.69507: L2-Pf-HR :0.63026: L2-HR :0.72264: (Sim:0h2m8s) 
CPU  0 inst:   18000002 cyc:   10436302 now IPC :1.69461: AVG IPC :1.69504: L2-Pf-HR :0.62929: L2-HR :0.72013: (Sim:0h2m15s) 
CPU  0 inst:   19000000 cyc:   11029296 now IPC :1.68635: AVG IPC :1.69453: L2-Pf-HR :0.62814: L2-HR :0.71783: (Sim:0h2m23s) 
CPU  0 inst:   20000001 cyc:   11613752 now IPC :1.71099: AVG IPC :1.69543: L2-Pf-HR :0.62715: L2-HR :0.71586: (Sim:0h2m30s) 
CPU  0 inst:   21000005 cyc:   12213361 now IPC :1.66776: AVG IPC :1.69395: L2-Pf-HR :0.62677: L2-HR :0.71409: (Sim:0h2m38s) 
CPU  0 inst:   22000005 cyc:   12805629 now IPC :1.68842: AVG IPC :1.69368: L2-Pf-HR :0.62686: L2-HR :0.71265: (Sim:0h2m45s) 
CPU  0 inst:   23000005 cyc:   13520655 now IPC :1.39855: AVG IPC :1.67683: L2-Pf-HR :0.62599: L2-HR :0.71083: (Sim:0h2m53s) 
CPU  0 inst:   24000000 cyc:   14084984 now IPC :1.77201: AVG IPC :1.68093: L2-Pf-HR :0.62553: L2-HR :0.70967: (Sim:0h3m1s) 
CPU  0 inst:   25000001 cyc:   14650544 now IPC :1.76816: AVG IPC :1.68454: L2-Pf-HR :0.62516: L2-HR :0.70879: (Sim:0h3m8s) 
CPU  0 inst:   26000003 cyc:   15210414 now IPC :1.78613: AVG IPC :1.68855: L2-Pf-HR :0.62499: L2-HR :0.70786: (Sim:0h3m16s) 
CPU  0 inst:   27000002 cyc:   15781576 now IPC :1.75082: AVG IPC :1.69095: L2-Pf-HR :0.62485: L2-HR :0.70717: (Sim:0h3m23s) 
CPU  0 inst:   28000003 cyc:   16343546 now IPC :1.77946: AVG IPC :1.69419: L2-Pf-HR :0.62511: L2-HR :0.70668: (Sim:0h3m30s) 
CPU  0 inst:   29000000 cyc:   17004954 now IPC :1.51192: AVG IPC :1.68666: L2-Pf-HR :0.62653: L2-HR :0.70872: (Sim:0h3m38s) 
CPU  0 inst:   30000001 cyc:   17563392 now IPC :1.79071: AVG IPC :1.69017: L2-Pf-HR :0.62790: L2-HR :0.71319: (Sim:0h3m46s) 
CPU  0 inst:   31000002 cyc:   18118406 now IPC :1.80176: AVG IPC :1.69379: L2-Pf-HR :0.62914: L2-HR :0.71752: (Sim:0h3m53s) 
CPU  0 inst:   32000000 cyc:   18678221 now IPC :1.78630: AVG IPC :1.69672: L2-Pf-HR :0.63041: L2-HR :0.72155: (Sim:0h4m0s) 
CPU  0 inst:   33000004 cyc:   19389350 now IPC :1.40622: AVG IPC :1.68548: L2-Pf-HR :0.62983: L2-HR :0.72091: (Sim:0h4m8s) 
CPU  0 inst:   34000001 cyc:   19994511 now IPC :1.65245: AVG IPC :1.68443: L2-Pf-HR :0.62931: L2-HR :0.71973: (Sim:0h4m16s) 
CPU  0 inst:   35000000 cyc:   20581644 now IPC :1.70319: AVG IPC :1.68499: L2-Pf-HR :0.62865: L2-HR :0.71852: (Sim:0h4m21s) 
CPU  0 inst:   36000004 cyc:   21181782 now IPC :1.66629: AVG IPC :1.68444: L2-Pf-HR :0.62821: L2-HR :0.71754: (Sim:0h4m26s) 
CPU  0 inst:   37000001 cyc:   21772612 now IPC :1.69253: AVG IPC :1.68467: L2-Pf-HR :0.62768: L2-HR :0.71638: (Sim:0h4m31s) 
CPU  0 inst:   38000003 cyc:   22370335 now IPC :1.67302: AVG IPC :1.68434: L2-Pf-HR :0.62735: L2-HR :0.71539: (Sim:0h4m35s) 
CPU  0 inst:   39000000 cyc:   23085582 now IPC :1.39811: AVG IPC :1.67507: L2-Pf-HR :0.62713: L2-HR :0.71434: (Sim:0h4m40s) 
CPU  0 inst:   40000000 cyc:   23655179 now IPC :1.75563: AVG IPC :1.67710: L2-Pf-HR :0.62690: L2-HR :0.71366: (Sim:0h4m44s) 
CPU  0 inst:   41000001 cyc:   24220290 now IPC :1.76957: AVG IPC :1.67935: L2-Pf-HR :0.62670: L2-HR :0.71294: (Sim:0h4m49s) 
CPU  0 inst:   42000001 cyc:   24790841 now IPC :1.75269: AVG IPC :1.68111: L2-Pf-HR :0.62639: L2-HR :0.71230: (Sim:0h4m53s) 
CPU  0 inst:   43000000 cyc:   25352233 now IPC :1.78128: AVG IPC :1.68342: L2-Pf-HR :0.62627: L2-HR :0.71164: (Sim:0h4m58s) 
CPU  0 inst:   44000000 cyc:   25920924 now IPC :1.75842: AVG IPC :1.68513: L2-Pf-HR :0.62632: L2-HR :0.71111: (Sim:0h5m2s) 
CPU  0 inst:   45000004 cyc:   26583111 now IPC :1.51015: AVG IPC :1.68060: L2-Pf-HR :0.62719: L2-HR :0.71188: (Sim:0h5m7s) 
CPU  0 inst:   46000004 cyc:   27139416 now IPC :1.79758: AVG IPC :1.68309: L2-Pf-HR :0.62801: L2-HR :0.71465: (Sim:0h5m11s) 
CPU  0 inst:   47000005 cyc:   27700933 now IPC :1.78089: AVG IPC :1.68515: L2-Pf-HR :0.62882: L2-HR :0.71739: (Sim:0h5m16s) 
CPU  0 inst:   48000000 cyc:   28260766 now IPC :1.78624: AVG IPC :1.68722: L2-Pf-HR :0.62969: L2-HR :0.72003: (Sim:0h5m20s) 
CPU  0 inst:   49000001 cyc:   28971938 now IPC :1.40613: AVG IPC :1.68008: L2-Pf-HR :0.62954: L2-HR :0.72014: (Sim:0h5m25s) 
CPU  0 inst:   50000002 cyc:   29563743 now IPC :1.68975: AVG IPC :1.68028: L2-Pf-HR :0.62920: L2-HR :0.71934: (Sim:0h5m29s) 
CPU  0 inst:   51000004 cyc:   30159142 now IPC :1.67955: AVG IPC :1.68026: L2-Pf-HR :0.62878: L2-HR :0.71855: (Sim:0h5m34s) 
CPU  0 inst:   52000004 cyc:   30747246 now IPC :1.70038: AVG IPC :1.68066: L2-Pf-HR :0.62846: L2-HR :0.71786: (Sim:0h5m38s) 
CPU  0 inst:   53000001 cyc:   31341924 now IPC :1.68158: AVG IPC :1.68068: L2-Pf-HR :0.62822: L2-HR :0.71714: (Sim:0h5m43s) 
CPU  0 inst:   54000003 cyc:   31938416 now IPC :1.67647: AVG IPC :1.68060: L2-Pf-HR :0.62798: L2-HR :0.71646: (Sim:0h5m47s) 
CPU  0 inst:   55000000 cyc:   32658138 now IPC :1.38942: AVG IPC :1.67398: L2-Pf-HR :0.62779: L2-HR :0.71570: (Sim:0h5m52s) 
CPU  0 inst:   56000000 cyc:   33222504 now IPC :1.77190: AVG IPC :1.67569: L2-Pf-HR :0.62758: L2-HR :0.71517: (Sim:0h5m56s) 
CPU  0 inst:   57000003 cyc:   33790485 now IPC :1.76063: AVG IPC :1.67716: L2-Pf-HR :0.62728: L2-HR :0.71462: (Sim:0h6m1s) 
CPU  0 inst:   58000000 cyc:   34352458 now IPC :1.77944: AVG IPC :1.67889: L2-Pf-HR :0.62704: L2-HR :0.71407: (Sim:0h6m5s) 
CPU  0 inst:   59000001 cyc:   34922160 now IPC :1.75531: AVG IPC :1.68017: L2-Pf-HR :0.62692: L2-HR :0.71362: (Sim:0h6m9s) 
CPU  0 inst:   60000001 cyc:   35479506 now IPC :1.79422: AVG IPC :1.68201: L2-Pf-HR :0.62672: L2-HR :0.71309: (Sim:0h6m14s) 
CPU  0 inst:   61000005 cyc:   36134871 now IPC :1.52587: AVG IPC :1.67910: L2-Pf-HR :0.62737: L2-HR :0.71333: (Sim:0h6m18s) 
CPU  0 inst:   62000001 cyc:   36694005 now IPC :1.78847: AVG IPC :1.68081: L2-Pf-HR :0.62803: L2-HR :0.71533: (Sim:0h6m22s) 
CPU  0 inst:   63000001 cyc:   37254941 now IPC :1.78273: AVG IPC :1.68239: L2-Pf-HR :0.62861: L2-HR :0.71734: (Sim:0h6m27s) 
CPU  0 inst:   64000000 cyc:   37809357 now IPC :1.80370: AVG IPC :1.68422: L2-Pf-HR :0.62928: L2-HR :0.71932: (Sim:0h6m31s) 
CPU  0 inst:   65000004 cyc:   38512681 now IPC :1.42183: AVG IPC :1.67930: L2-Pf-HR :0.62944: L2-HR :0.71977: (Sim:0h6m36s) 
CPU  0 inst:   66000002 cyc:   39107891 now IPC :1.68008: AVG IPC :1.67931: L2-Pf-HR :0.62914: L2-HR :0.71917: (Sim:0h6m40s) 
CPU  0 inst:   67000003 cyc:   39699952 now IPC :1.68902: AVG IPC :1.67946: L2-Pf-HR :0.62897: L2-HR :0.71861: (Sim:0h6m44s) 
CPU  0 inst:   68000001 cyc:   40293161 now IPC :1.68574: AVG IPC :1.67955: L2-Pf-HR :0.62877: L2-HR :0.71807: (Sim:0h6m49s) 
CPU  0 inst:   69000002 cyc:   40887876 now IPC :1.68148: AVG IPC :1.67958: L2-Pf-HR :0.62860: L2-HR :0.71754: (Sim:0h6m54s) 
CPU  0 inst:   70000004 cyc:   41481137 now IPC :1.68560: AVG IPC :1.67967: L2-Pf-HR :0.62841: L2-HR :0.71696: (Sim:0h6m58s) 
CPU  0 inst:   71000001 cyc:   42205782 now IPC :1.37998: AVG IPC :1.67440: L2-Pf-HR :0.62833: L2-HR :0.71632: (Sim:0h7m3s) 
CPU  0 inst:   72000000 cyc:   42771034 now IPC :1.76912: AVG IPC :1.67568: L2-Pf-HR :0.62806: L2-HR :0.71592: (Sim:0h7m7s) 
CPU  0 inst:   73000001 cyc:   43330684 now IPC :1.78683: AVG IPC :1.67715: L2-Pf-HR :0.62776: L2-HR :0.71542: (Sim:0h7m12s) 
CPU  0 inst:   74000001 cyc:   43901190 now IPC :1.75283: AVG IPC :1.67816: L2-Pf-HR :0.62755: L2-HR :0.71503: (Sim:0h7m16s) 
CPU  0 inst:   75000003 cyc:   44460869 now IPC :1.78674: AVG IPC :1.67956: L2-Pf-HR :0.62747: L2-HR :0.71469: (Sim:0h7m21s) 
CPU  0 inst:   76000005 cyc:   45031005 now IPC :1.75397: AVG IPC :1.68052: L2-Pf-HR :0.62740: L2-HR :0.71436: (Sim:0h7m25s) 
CPU  0 inst:   77000002 cyc:   45691866 now IPC :1.51317: AVG IPC :1.67805: L2-Pf-HR :0.62775: L2-HR :0.71426: (Sim:0h7m30s) 
CPU  0 inst:   78000002 cyc:   46253688 now IPC :1.77992: AVG IPC :1.67931: L2-Pf-HR :0.62819: L2-HR :0.71580: (Sim:0h7m34s) 
CPU  0 inst:   79000004 cyc:   46811737 now IPC :1.79196: AVG IPC :1.68068: L2-Pf-HR :0.62870: L2-HR :0.71741: (Sim:0h7m38s) 
CPU  0 inst:   80000000 cyc:   47373969 now IPC :1.77862: AVG IPC :1.68187: L2-Pf-HR :0.62921: L2-HR :0.71898: (Sim:0h7m43s) 
CPU  0 inst:   81000001 cyc:   48079100 now IPC :1.41818: AVG IPC :1.67792: L2-Pf-HR :0.62942: L2-HR :0.71962: (Sim:0h7m47s) 
CPU  0 inst:   82000002 cyc:   48668816 now IPC :1.69573: AVG IPC :1.67814: L2-Pf-HR :0.62909: L2-HR :0.71912: (Sim:0h7m52s) 
CPU  0 inst:   83000002 cyc:   49263864 now IPC :1.68054: AVG IPC :1.67817: L2-Pf-HR :0.62895: L2-HR :0.71867: (Sim:0h7m56s) 
CPU  0 inst:   84000004 cyc:   49864031 now IPC :1.66621: AVG IPC :1.67802: L2-Pf-HR :0.62871: L2-HR :0.71820: (Sim:0h8m1s) 
CPU  0 inst:   85000002 cyc:   50457084 now IPC :1.68619: AVG IPC :1.67812: L2-Pf-HR :0.62849: L2-HR :0.71774: (Sim:0h8m5s) 
CPU  0 inst:   86000002 cyc:   51053248 now IPC :1.67739: AVG IPC :1.67811: L2-Pf-HR :0.62832: L2-HR :0.71734: (Sim:0h8m10s) 
CPU  0 inst:   87000002 cyc:   51758120 now IPC :1.41870: AVG IPC :1.67451: L2-Pf-HR :0.62841: L2-HR :0.71689: (Sim:0h8m15s) 
CPU  0 inst:   88000000 cyc:   52352281 now IPC :1.68304: AVG IPC :1.67461: L2-Pf-HR :0.62814: L2-HR :0.71647: (Sim:0h8m19s) 
CPU  0 inst:   89000001 cyc:   52923650 now IPC :1.75018: AVG IPC :1.67544: L2-Pf-HR :0.62796: L2-HR :0.71612: (Sim:0h8m24s) 
CPU  0 inst:   90000003 cyc:   53488084 now IPC :1.77169: AVG IPC :1.67648: L2-Pf-HR :0.62787: L2-HR :0.71577: (Sim:0h8m28s) 
CPU  0 inst:   91000005 cyc:   54056738 now IPC :1.75854: AVG IPC :1.67735: L2-Pf-HR :0.62778: L2-HR :0.71546: (Sim:0h8m32s) 
CPU  0 inst:   92000000 cyc:   54615516 now IPC :1.78961: AVG IPC :1.67852: L2-Pf-HR :0.62766: L2-HR :0.71515: (Sim:0h8m37s) 
CPU  0 inst:   93000005 cyc:   55269367 now IPC :1.52941: AVG IPC :1.67673: L2-Pf-HR :0.62792: L2-HR :0.71483: (Sim:0h8m41s) 
CPU  0 inst:   94000000 cyc:   55836160 now IPC :1.76430: AVG IPC :1.67763: L2-Pf-HR :0.62823: L2-HR :0.71609: (Sim:0h8m46s) 
CPU  0 inst:   95000003 cyc:   56390460 now IPC :1.80408: AVG IPC :1.67890: L2-Pf-HR :0.62859: L2-HR :0.71737: (Sim:0h8m50s) 
CPU  0 inst:   96000000 cyc:   56956965 now IPC :1.76520: AVG IPC :1.67977: L2-Pf-HR :0.62903: L2-HR :0.71865: (Sim:0h8m55s) 
CPU  0 inst:   97000001 cyc:   57608824 now IPC :1.53408: AVG IPC :1.67809: L2-Pf-HR :0.62952: L2-HR :0.71950: (Sim:0h8m59s) 
CPU  0 inst:   98000001 cyc:   58246630 now IPC :1.56787: AVG IPC :1.67687: L2-Pf-HR :0.62907: L2-HR :0.71898: (Sim:0h9m4s) 
CPU  0 inst:   99000003 cyc:   58836043 now IPC :1.69661: AVG IPC :1.67707: L2-Pf-HR :0.62888: L2-HR :0.71856: (Sim:0h9m8s) 
CPU  0 inst:  100000001 cyc:   59432228 now IPC :1.67733: AVG IPC :1.67707: L2-Pf-HR :0.62872: L2-HR :0.71818: (Sim:0h9m13s) 
CPU  0 inst:  101000004 cyc:   60025223 now IPC :1.68636: AVG IPC :1.67716: L2-Pf-HR :0.62855: L2-HR :0.71783: (Sim:0h9m17s) 
CPU  0 inst:  102000000 cyc:   60622509 now IPC :1.67423: AVG IPC :1.67713: L2-Pf-HR :0.62835: L2-HR :0.71743: (Sim:0h9m22s) 
CPU  0 inst:  103000005 cyc:   61233723 now IPC :1.63610: AVG IPC :1.67672: L2-Pf-HR :0.62871: L2-HR :0.71722: (Sim:0h9m26s) 
CPU  0 inst:  104000000 cyc:   61922308 now IPC :1.45225: AVG IPC :1.67418: L2-Pf-HR :0.62803: L2-HR :0.71667: (Sim:0h9m31s) 
CPU  0 inst:  105000003 cyc:   62483774 now IPC :1.78106: AVG IPC :1.67516: L2-Pf-HR :0.62794: L2-HR :0.71635: (Sim:0h9m35s) 
CPU  0 inst:  106000001 cyc:   63056833 now IPC :1.74502: AVG IPC :1.67580: L2-Pf-HR :0.62789: L2-HR :0.71610: (Sim:0h9m40s) 
CPU  0 inst:  107000002 cyc:   63616546 now IPC :1.78663: AVG IPC :1.67679: L2-Pf-HR :0.62781: L2-HR :0.71582: (Sim:0h9m44s) 
CPU  0 inst:  108000001 cyc:   64181770 now IPC :1.76921: AVG IPC :1.67762: L2-Pf-HR :0.62775: L2-HR :0.71555: (Sim:0h9m48s) 
CPU  0 inst:  109000000 cyc:   64755026 now IPC :1.74442: AVG IPC :1.67822: L2-Pf-HR :0.62820: L2-HR :0.71543: (Sim:0h9m53s) 
CPU  0 inst:  110000003 cyc:   65398106 now IPC :1.55502: AVG IPC :1.67699: L2-Pf-HR :0.62820: L2-HR :0.71618: (Sim:0h9m57s) 
CPU  0 inst:  111000001 cyc:   65958840 now IPC :1.78337: AVG IPC :1.67791: L2-Pf-HR :0.62856: L2-HR :0.71728: (Sim:0h10m2s) 
CPU  0 inst:  112000000 cyc:   66521396 now IPC :1.77760: AVG IPC :1.67876: L2-Pf-HR :0.62892: L2-HR :0.71838: (Sim:0h10m6s) 
CPU  0 inst:  113000003 cyc:   67083383 now IPC :1.77941: AVG IPC :1.67962: L2-Pf-HR :0.62962: L2-HR :0.71958: (Sim:0h10m10s) 
CPU  0 inst:  114000001 cyc:   67801660 now IPC :1.39222: AVG IPC :1.67653: L2-Pf-HR :0.62916: L2-HR :0.71891: (Sim:0h10m15s) 
CPU  0 inst:  115000002 cyc:   68390027 now IPC :1.69962: AVG IPC :1.67673: L2-Pf-HR :0.62899: L2-HR :0.71852: (Sim:0h10m19s) 
CPU  0 inst:  116000002 cyc:   68981839 now IPC :1.68973: AVG IPC :1.67684: L2-Pf-HR :0.62889: L2-HR :0.71823: (Sim:0h10m24s) 
CPU  0 inst:  117000002 cyc:   69571894 now IPC :1.69476: AVG IPC :1.67700: L2-Pf-HR :0.62875: L2-HR :0.71790: (Sim:0h10m28s) 
CPU  0 inst:  118000004 cyc:   70168814 now IPC :1.67527: AVG IPC :1.67698: L2-Pf-HR :0.62859: L2-HR :0.71761: (Sim:0h10m33s) 
CPU  0 inst:  119000001 cyc:   70757290 now IPC :1.69930: AVG IPC :1.67717: L2-Pf-HR :0.62878: L2-HR :0.71739: (Sim:0h10m37s) 
CPU  0 inst:  120000000 cyc:   71463237 now IPC :1.41654: AVG IPC :1.67456: L2-Pf-HR :0.62835: L2-HR :0.71689: (Sim:0h10m42s) 
CPU  0 inst:  121000001 cyc:   72029952 now IPC :1.76456: AVG IPC :1.67528: L2-Pf-HR :0.62818: L2-HR :0.71659: (Sim:0h10m46s) 
CPU  0 inst:  122000001 cyc:   72587663 now IPC :1.79304: AVG IPC :1.67620: L2-Pf-HR :0.62807: L2-HR :0.71632: (Sim:0h10m51s) 
CPU  0 inst:  123000004 cyc:   73153466 now IPC :1.76740: AVG IPC :1.67691: L2-Pf-HR :0.62801: L2-HR :0.71609: (Sim:0h10m55s) 
CPU  0 inst:  124000005 cyc:   73717474 now IPC :1.77303: AVG IPC :1.67766: L2-Pf-HR :0.62796: L2-HR :0.71586: (Sim:0h10m59s) 
CPU  0 inst:  125000005 cyc:   74279202 now IPC :1.78022: AVG IPC :1.67844: L2-Pf-HR :0.62820: L2-HR :0.71574: (Sim:0h11m4s) 
CPU  0 inst:  126000001 cyc:   74933484 now IPC :1.52839: AVG IPC :1.67712: L2-Pf-HR :0.62832: L2-HR :0.71624: (Sim:0h11m8s) 
CPU  0 inst:  127000002 cyc:   75496299 now IPC :1.77678: AVG IPC :1.67787: L2-Pf-HR :0.62865: L2-HR :0.71720: (Sim:0h11m13s) 
CPU  0 inst:  128000000 cyc:   76054464 now IPC :1.79158: AVG IPC :1.67871: L2-Pf-HR :0.62896: L2-HR :0.71816: (Sim:0h11m17s) 
CPU  0 inst:  129000001 cyc:   76616546 now IPC :1.77910: AVG IPC :1.67946: L2-Pf-HR :0.62940: L2-HR :0.71914: (Sim:0h11m21s) 
CPU  0 inst:  130000000 cyc:   81095577 now IPC :0.22326: AVG IPC :1.59803: L2-Pf-HR :0.61806: L2-HR :0.70988: (Sim:0h11m34s) 
CPU  0 inst:  131000001 cyc:   86532550 now IPC :0.18393: AVG IPC :1.50814: L2-Pf-HR :0.60380: L2-HR :0.69927: (Sim:0h11m48s) 
CPU  0 inst:  132000003 cyc:   91965681 now IPC :0.18406: AVG IPC :1.42906: L2-Pf-HR :0.59020: L2-HR :0.68968: (Sim:0h12m3s) 
CPU  0 inst:  133000005 cyc:   97401573 now IPC :0.18396: AVG IPC :1.35886: L2-Pf-HR :0.57719: L2-HR :0.68097: (Sim:0h12m18s) 
CPU  0 inst:  134000003 cyc:  102715286 now IPC :0.18819: AVG IPC :1.29770: L2-Pf-HR :0.56519: L2-HR :0.67323: (Sim:0h12m32s) 
CPU  0 inst:  135000002 cyc:  106667940 now IPC :0.25299: AVG IPC :1.25862: L2-Pf-HR :0.56225: L2-HR :0.67156: (Sim:0h12m43s) 
CPU  0 inst:  136000000 cyc:  110620584 now IPC :0.25299: AVG IPC :1.22236: L2-Pf-HR :0.55937: L2-HR :0.66993: (Sim:0h12m53s) 
CPU  0 inst:  137000002 cyc:  114547347 now IPC :0.25466: AVG IPC :1.18890: L2-Pf-HR :0.55649: L2-HR :0.66830: (Sim:0h13m4s) 
CPU  0 inst:  138000003 cyc:  118417115 now IPC :0.25841: AVG IPC :1.15823: L2-Pf-HR :0.55364: L2-HR :0.66669: (Sim:0h13m14s) 
CPU  0 inst:  139000002 cyc:  122282544 now IPC :0.25870: AVG IPC :1.12957: L2-Pf-HR :0.55082: L2-HR :0.66510: (Sim:0h13m24s) 
CPU  0 inst:  140000002 cyc:  126160804 now IPC :0.25785: AVG IPC :1.10256: L2-Pf-HR :0.54803: L2-HR :0.66352: (Sim:0h13m35s) 
CPU  0 inst:  141000001 cyc:  130024222 now IPC :0.25884: AVG IPC :1.07729: L2-Pf-HR :0.54527: L2-HR :0.66196: (Sim:0h13m45s) 
CPU  0 inst:  142000000 cyc:  133901076 now IPC :0.25794: AVG IPC :1.05339: L2-Pf-HR :0.54253: L2-HR :0.66041: (Sim:0h13m55s) 
CPU  0 inst:  143000002 cyc:  137768149 now IPC :0.25859: AVG IPC :1.03092: L2-Pf-HR :0.53983: L2-HR :0.65888: (Sim:0h14m5s) 
CPU  0 inst:  144000000 cyc:  141653763 now IPC :0.25736: AVG IPC :1.00955: L2-Pf-HR :0.53716: L2-HR :0.65736: (Sim:0h14m15s) 
CPU  0 inst:  145000001 cyc:  145503831 now IPC :0.25974: AVG IPC :0.98957: L2-Pf-HR :0.53451: L2-HR :0.65585: (Sim:0h14m25s) 
CPU  0 inst:  146000000 cyc:  149384676 now IPC :0.25768: AVG IPC :0.97043: L2-Pf-HR :0.53188: L2-HR :0.65436: (Sim:0h14m36s) 
CPU  0 inst:  147000000 cyc:  153282316 now IPC :0.25657: AVG IPC :0.95216: L2-Pf-HR :0.52928: L2-HR :0.65288: (Sim:0h14m46s) 
CPU  0 inst:  148000000 cyc:  157162128 now IPC :0.25774: AVG IPC :0.93491: L2-Pf-HR :0.52670: L2-HR :0.65142: (Sim:0h14m56s) 
CPU  0 inst:  149000001 cyc:  161042855 now IPC :0.25768: AVG IPC :0.91849: L2-Pf-HR :0.52415: L2-HR :0.64997: (Sim:0h15m6s) 
CPU  0 inst:  150000004 cyc:  164928486 now IPC :0.25736: AVG IPC :0.90282: L2-Pf-HR :0.52162: L2-HR :0.64853: (Sim:0h15m16s) 
CPU  0 inst:  151000004 cyc:  168788270 now IPC :0.25908: AVG IPC :0.88801: L2-Pf-HR :0.51913: L2-HR :0.64711: (Sim:0h15m27s) 
CPU  0 inst:  152000000 cyc:  172641186 now IPC :0.25954: AVG IPC :0.87390: L2-Pf-HR :0.51666: L2-HR :0.64570: (Sim:0h15m37s) 
CPU  0 inst:  153000001 cyc:  176512649 now IPC :0.25830: AVG IPC :0.86032: L2-Pf-HR :0.51420: L2-HR :0.64430: (Sim:0h15m47s) 
CPU  0 inst:  154000003 cyc:  180399283 now IPC :0.25729: AVG IPC :0.84726: L2-Pf-HR :0.51177: L2-HR :0.64291: (Sim:0h15m57s) 
CPU  0 inst:  155000003 cyc:  184260487 now IPC :0.25899: AVG IPC :0.83486: L2-Pf-HR :0.50936: L2-HR :0.64153: (Sim:0h16m7s) 
CPU  0 inst:  156000002 cyc:  188109580 now IPC :0.25980: AVG IPC :0.82303: L2-Pf-HR :0.50697: L2-HR :0.64017: (Sim:0h16m17s) 
CPU  0 inst:  157000002 cyc:  192006879 now IPC :0.25659: AVG IPC :0.81148: L2-Pf-HR :0.50460: L2-HR :0.63882: (Sim:0h16m28s) 
CPU  0 inst:  158000001 cyc:  195885785 now IPC :0.25780: AVG IPC :0.80046: L2-Pf-HR :0.50227: L2-HR :0.63748: (Sim:0h16m38s) 
CPU  0 inst:  159000004 cyc:  199738694 now IPC :0.25954: AVG IPC :0.78997: L2-Pf-HR :0.49996: L2-HR :0.63616: (Sim:0h16m48s) 
CPU  0 inst:  160000000 cyc:  203597662 now IPC :0.25914: AVG IPC :0.77986: L2-Pf-HR :0.49766: L2-HR :0.63484: (Sim:0h16m59s) 
CPU  0 inst:  161000002 cyc:  207464039 now IPC :0.25864: AVG IPC :0.77010: L2-Pf-HR :0.49538: L2-HR :0.63354: (Sim:0h17m9s) 
CPU  0 inst:  162000001 cyc:  211331055 now IPC :0.25860: AVG IPC :0.76069: L2-Pf-HR :0.49312: L2-HR :0.63225: (Sim:0h17m19s) 
CPU  0 inst:  163000000 cyc:  215207180 now IPC :0.25799: AVG IPC :0.75160: L2-Pf-HR :0.49088: L2-HR :0.63096: (Sim:0h17m30s) 
CPU  0 inst:  164000000 cyc:  219069025 now IPC :0.25894: AVG IPC :0.74287: L2-Pf-HR :0.48866: L2-HR :0.62969: (Sim:0h17m40s) 
CPU  0 inst:  165000000 cyc:  222971436 now IPC :0.25625: AVG IPC :0.73432: L2-Pf-HR :0.48646: L2-HR :0.62843: (Sim:0h17m50s) 
CPU  0 inst:  166000004 cyc:  226874713 now IPC :0.25620: AVG IPC :0.72606: L2-Pf-HR :0.48430: L2-HR :0.62719: (Sim:0h18m1s) 
CPU  0 inst:  167000002 cyc:  230751238 now IPC :0.25796: AVG IPC :0.71816: L2-Pf-HR :0.48214: L2-HR :0.62595: (Sim:0h18m11s) 
CPU  0 inst:  168000000 cyc:  234625278 now IPC :0.25813: AVG IPC :0.71053: L2-Pf-HR :0.48000: L2-HR :0.62472: (Sim:0h18m21s) 
CPU  0 inst:  169000000 cyc:  238516624 now IPC :0.25698: AVG IPC :0.70310: L2-Pf-HR :0.47788: L2-HR :0.62350: (Sim:0h18m32s) 
CPU  0 inst:  170000001 cyc:  242401377 now IPC :0.25742: AVG IPC :0.69593: L2-Pf-HR :0.47578: L2-HR :0.62229: (Sim:0h18m42s) 
CPU  0 inst:  171000003 cyc:  246273650 now IPC :0.25825: AVG IPC :0.68902: L2-Pf-HR :0.47370: L2-HR :0.62109: (Sim:0h18m52s) 
CPU  0 inst:  172000003 cyc:  250163229 now IPC :0.25710: AVG IPC :0.68228: L2-Pf-HR :0.47163: L2-HR :0.61991: (Sim:0h19m2s) 
CPU  0 inst:  173000000 cyc:  254032726 now IPC :0.25843: AVG IPC :0.67579: L2-Pf-HR :0.46959: L2-HR :0.61873: (Sim:0h19m13s) 
CPU  0 inst:  174000002 cyc:  257907812 now IPC :0.25806: AVG IPC :0.66949: L2-Pf-HR :0.46757: L2-HR :0.61756: (Sim:0h19m23s) 
CPU  0 inst:  175000003 cyc:  261774139 now IPC :0.25864: AVG IPC :0.66340: L2-Pf-HR :0.46556: L2-HR :0.61640: (Sim:0h19m33s) 
CPU  0 inst:  176000000 cyc:  265648921 now IPC :0.25808: AVG IPC :0.65747: L2-Pf-HR :0.46356: L2-HR :0.61525: (Sim:0h19m43s) 
CPU  0 inst:  177000002 cyc:  269540248 now IPC :0.25698: AVG IPC :0.65166: L2-Pf-HR :0.46158: L2-HR :0.61411: (Sim:0h19m53s) 
CPU  0 inst:  178000002 cyc:  273392407 now IPC :0.25959: AVG IPC :0.64612: L2-Pf-HR :0.45962: L2-HR :0.61298: (Sim:0h20m3s) 
CPU  0 inst:  179000001 cyc:  277277872 now IPC :0.25737: AVG IPC :0.64065: L2-Pf-HR :0.45768: L2-HR :0.61186: (Sim:0h20m13s) 
CPU  0 inst:  180000002 cyc:  281140666 now IPC :0.25888: AVG IPC :0.63539: L2-Pf-HR :0.45575: L2-HR :0.61074: (Sim:0h20m23s) 
CPU  0 inst:  181000004 cyc:  285004175 now IPC :0.25883: AVG IPC :0.63027: L2-Pf-HR :0.45385: L2-HR :0.60964: (Sim:0h20m34s) 
CPU  0 inst:  182000002 cyc:  288865408 now IPC :0.25898: AVG IPC :0.62529: L2-Pf-HR :0.45195: L2-HR :0.60855: (Sim:0h20m44s) 
CPU  0 inst:  183000001 cyc:  292737692 now IPC :0.25825: AVG IPC :0.62041: L2-Pf-HR :0.45007: L2-HR :0.60746: (Sim:0h20m54s) 
CPU  0 inst:  184000000 cyc:  296612361 now IPC :0.25809: AVG IPC :0.61566: L2-Pf-HR :0.44821: L2-HR :0.60638: (Sim:0h21m4s) 
CPU  0 inst:  185000000 cyc:  300496986 now IPC :0.25743: AVG IPC :0.61102: L2-Pf-HR :0.44636: L2-HR :0.60531: (Sim:0h21m14s) 
CPU  0 inst:  186000000 cyc:  304381393 now IPC :0.25744: AVG IPC :0.60649: L2-Pf-HR :0.44452: L2-HR :0.60425: (Sim:0h21m24s) 
CPU  0 inst:  187000001 cyc:  308256138 now IPC :0.25808: AVG IPC :0.60210: L2-Pf-HR :0.44270: L2-HR :0.60320: (Sim:0h21m34s) 
CPU  0 inst:  188000002 cyc:  312107816 now IPC :0.25963: AVG IPC :0.59786: L2-Pf-HR :0.44091: L2-HR :0.60215: (Sim:0h21m44s) 
CPU  0 inst:  189000002 cyc:  315992501 now IPC :0.25742: AVG IPC :0.59366: L2-Pf-HR :0.43912: L2-HR :0.60112: (Sim:0h21m55s) 
CPU  0 inst:  190000000 cyc:  319878552 now IPC :0.25733: AVG IPC :0.58956: L2-Pf-HR :0.43735: L2-HR :0.60009: (Sim:0h22m5s) 
CPU  0 inst:  191000001 cyc:  323773401 now IPC :0.25675: AVG IPC :0.58554: L2-Pf-HR :0.43559: L2-HR :0.59907: (Sim:0h22m15s) 
CPU  0 inst:  192000000 cyc:  327647096 now IPC :0.25815: AVG IPC :0.58166: L2-Pf-HR :0.43384: L2-HR :0.59805: (Sim:0h22m25s) 
CPU  0 inst:  193000003 cyc:  331543311 now IPC :0.25666: AVG IPC :0.57783: L2-Pf-HR :0.43210: L2-HR :0.59705: (Sim:0h22m35s) 
CPU  0 inst:  194000002 cyc:  335402283 now IPC :0.25914: AVG IPC :0.57415: L2-Pf-HR :0.43039: L2-HR :0.59605: (Sim:0h22m45s) 
CPU  0 inst:  195000002 cyc:  339296279 now IPC :0.25681: AVG IPC :0.57050: L2-Pf-HR :0.42868: L2-HR :0.59506: (Sim:0h22m55s) 
CPU  0 inst:  196000004 cyc:  343191123 now IPC :0.25675: AVG IPC :0.56693: L2-Pf-HR :0.42700: L2-HR :0.59408: (Sim:0h23m5s) 
CPU  0 inst:  197000003 cyc:  347075533 now IPC :0.25744: AVG IPC :0.56346: L2-Pf-HR :0.42532: L2-HR :0.59310: (Sim:0h23m15s) 
CPU  0 inst:  198000005 cyc:  349757603 now IPC :0.37285: AVG IPC :0.56199: L2-Pf-HR :0.42765: L2-HR :0.59413: (Sim:0h23m23s) 
CPU  0 inst:  199000000 cyc:  350409137 now IPC :1.53483: AVG IPC :0.56380: L2-Pf-HR :0.43661: L2-HR :0.59865: (Sim:0h23m29s) 
CPU  0 inst:  200000000 cyc:  351058805 now IPC :1.53925: AVG IPC :0.56561: L2-Pf-HR :0.44546: L2-HR :0.60314: (Sim:0h23m35s) 
CPU  0 inst:  201000004 cyc:  351683765 now IPC :1.60011: AVG IPC :0.56746: L2-Pf-HR :0.45400: L2-HR :0.60751: (Sim:0h23m40s) 
CPU  0 inst:  202000000 cyc:  352340689 now IPC :1.52224: AVG IPC :0.56924: L2-Pf-HR :0.46202: L2-HR :0.61167: (Sim:0h23m46s) 
CPU  0 inst:  203000000 cyc:  352937162 now IPC :1.67652: AVG IPC :0.57112: L2-Pf-HR :0.47025: L2-HR :0.61597: (Sim:0h23m51s) 
CPU  0 inst:  204000004 cyc:  353535378 now IPC :1.67164: AVG IPC :0.57299: L2-Pf-HR :0.47814: L2-HR :0.62014: (Sim:0h23m57s) 
CPU  0 inst:  205000000 cyc:  354114390 now IPC :1.72707: AVG IPC :0.57488: L2-Pf-HR :0.48576: L2-HR :0.62420: (Sim:0h24m3s) 
CPU  0 inst:  206000001 cyc:  354725158 now IPC :1.63728: AVG IPC :0.57671: L2-Pf-HR :0.49289: L2-HR :0.62806: (Sim:0h24m8s) 
CPU  0 inst:  207000005 cyc:  355321522 now IPC :1.67683: AVG IPC :0.57857: L2-Pf-HR :0.50005: L2-HR :0.63196: (Sim:0h24m14s) 
CPU  0 inst:  208000000 cyc:  355922990 now IPC :1.66259: AVG IPC :0.58040: L2-Pf-HR :0.50690: L2-HR :0.63573: (Sim:0h24m20s) 
CPU  0 inst:  209000001 cyc:  356505530 now IPC :1.71662: AVG IPC :0.58226: L2-Pf-HR :0.51358: L2-HR :0.63943: (Sim:0h24m25s) 
CPU  0 inst:  210000005 cyc:  357090978 now IPC :1.70810: AVG IPC :0.58412: L2-Pf-HR :0.51994: L2-HR :0.64300: (Sim:0h24m31s) 
CPU  0 inst:  211000003 cyc:  357702499 now IPC :1.63526: AVG IPC :0.58592: L2-Pf-HR :0.52621: L2-HR :0.64651: (Sim:0h24m36s) 
CPU  0 inst:  212000001 cyc:  358295464 now IPC :1.68644: AVG IPC :0.58774: L2-Pf-HR :0.53235: L2-HR :0.64997: (Sim:0h24m42s) 
CPU  0 inst:  213000001 cyc:  358885605 now IPC :1.69451: AVG IPC :0.58957: L2-Pf-HR :0.53826: L2-HR :0.65335: (Sim:0h24m48s) 
CPU  0 inst:  214000005 cyc:  359470976 now IPC :1.70833: AVG IPC :0.59140: L2-Pf-HR :0.54403: L2-HR :0.65667: (Sim:0h24m53s) 
CPU  0 inst:  215000002 cyc:  360112916 now IPC :1.55777: AVG IPC :0.59312: L2-Pf-HR :0.54910: L2-HR :0.65967: (Sim:0h24m59s) 
CPU  0 inst:  216000000 cyc:  360721533 now IPC :1.64307: AVG IPC :0.59490: L2-Pf-HR :0.55420: L2-HR :0.66270: (Sim:0h25m4s) 
CPU  0 inst:  217000002 cyc:  361337808 now IPC :1.62266: AVG IPC :0.59666: L2-Pf-HR :0.55914: L2-HR :0.66567: (Sim:0h25m10s) 
CPU  0 inst:  218000003 cyc:  361951856 now IPC :1.62854: AVG IPC :0.59841: L2-Pf-HR :0.56389: L2-HR :0.66855: (Sim:0h25m16s) 
CPU  0 inst:  219000002 cyc:  362568426 now IPC :1.62187: AVG IPC :0.60016: L2-Pf-HR :0.56842: L2-HR :0.67133: (Sim:0h25m21s) 
CPU  0 inst:  220000002 cyc:  363135595 now IPC :1.76314: AVG IPC :0.60198: L2-Pf-HR :0.57317: L2-HR :0.67423: (Sim:0h25m27s) 
CPU  0 inst:  221000002 cyc:  363706775 now IPC :1.75076: AVG IPC :0.60379: L2-Pf-HR :0.57772: L2-HR :0.67703: (Sim:0h25m33s) 
CPU  0 inst:  222000005 cyc:  364298024 now IPC :1.69134: AVG IPC :0.60556: L2-Pf-HR :0.58203: L2-HR :0.67973: (Sim:0h25m38s) 
CPU  0 inst:  223000003 cyc:  364898015 now IPC :1.66669: AVG IPC :0.60731: L2-Pf-HR :0.58627: L2-HR :0.68238: (Sim:0h25m44s) 
CPU  0 inst:  224000000 cyc:  365467529 now IPC :1.75588: AVG IPC :0.60910: L2-Pf-HR :0.59054: L2-HR :0.68505: (Sim:0h25m50s) 
CPU  0 inst:  225000000 cyc:  366040188 now IPC :1.74624: AVG IPC :0.61089: L2-Pf-HR :0.59461: L2-HR :0.68762: (Sim:0h25m55s) 
CPU  0 inst:  226000001 cyc:  366628723 now IPC :1.69914: AVG IPC :0.61264: L2-Pf-HR :0.59849: L2-HR :0.69011: (Sim:0h26m1s) 
CPU  0 inst:  227000001 cyc:  367223803 now IPC :1.68045: AVG IPC :0.61437: L2-Pf-HR :0.60246: L2-HR :0.69261: (Sim:0h26m7s) 
CPU  0 inst:  228000000 cyc:  367810383 now IPC :1.70480: AVG IPC :0.61612: L2-Pf-HR :0.60632: L2-HR :0.69507: (Sim:0h26m12s) 
CPU  0 inst:  229000001 cyc:  368396755 now IPC :1.70540: AVG IPC :0.61786: L2-Pf-HR :0.60998: L2-HR :0.69743: (Sim:0h26m18s) 
CPU  0 inst:  230000002 cyc:  368989005 now IPC :1.68848: AVG IPC :0.61958: L2-Pf-HR :0.61355: L2-HR :0.69974: (Sim:0h26m24s) 
CPU  0 inst:  231000005 cyc:  369589926 now IPC :1.66412: AVG IPC :0.62128: L2-Pf-HR :0.61733: L2-HR :0.70213: (Sim:0h26m29s) 
CPU  0 inst:  232000000 cyc:  370219130 now IPC :1.58930: AVG IPC :0.62293: L2-Pf-HR :0.62033: L2-HR :0.70418: (Sim:0h26m35s) 
CPU  0 inst:  233000002 cyc:  370835474 now IPC :1.62247: AVG IPC :0.62460: L2-Pf-HR :0.62339: L2-HR :0.70627: (Sim:0h26m41s) 
CPU  0 inst:  234000004 cyc:  371451281 now IPC :1.62389: AVG IPC :0.62626: L2-Pf-HR :0.62650: L2-HR :0.70835: (Sim:0h26m46s) 
CPU  0 inst:  235000001 cyc:  372073535 now IPC :1.60706: AVG IPC :0.62790: L2-Pf-HR :0.62945: L2-HR :0.71036: (Sim:0h26m52s) 
CPU  0 inst:  236000005 cyc:  372667823 now IPC :1.68269: AVG IPC :0.62959: L2-Pf-HR :0.63243: L2-HR :0.71240: (Sim:0h26m58s) 
CPU  0 inst:  237000004 cyc:  373236364 now IPC :1.75889: AVG IPC :0.63131: L2-Pf-HR :0.63548: L2-HR :0.71446: (Sim:0h27m3s) 
CPU  0 inst:  238000003 cyc:  373816512 now IPC :1.72370: AVG IPC :0.63301: L2-Pf-HR :0.63843: L2-HR :0.71648: (Sim:0h27m9s) 
CPU  0 inst:  239000005 cyc:  374387957 now IPC :1.74995: AVG IPC :0.63472: L2-Pf-HR :0.64136: L2-HR :0.71848: (Sim:0h27m15s) 
CPU  0 inst:  240000000 cyc:  374989199 now IPC :1.66322: AVG IPC :0.63638: L2-Pf-HR :0.64406: L2-HR :0.72035: (Sim:0h27m20s) 
CPU  0 inst:  241000002 cyc:  375560604 now IPC :1.75008: AVG IPC :0.63808: L2-Pf-HR :0.64687: L2-HR :0.72228: (Sim:0h27m26s) 
CPU  0 inst:  242000000 cyc:  376134364 now IPC :1.74289: AVG IPC :0.63977: L2-Pf-HR :0.64964: L2-HR :0.72418: (Sim:0h27m32s) 
CPU  0 inst:  243000005 cyc:  376709590 now IPC :1.73846: AVG IPC :0.64145: L2-Pf-HR :0.65234: L2-HR :0.72606: (Sim:0h27m37s) 
CPU  0 inst:  244000004 cyc:  377320129 now IPC :1.63790: AVG IPC :0.64306: L2-Pf-HR :0.65481: L2-HR :0.72780: (Sim:0h27m43s) 
CPU  0 inst:  245000001 cyc:  377903731 now IPC :1.71349: AVG IPC :0.64472: L2-Pf-HR :0.65744: L2-HR :0.72962: (Sim:0h27m49s) 
CPU  0 inst:  246000002 cyc:  378484398 now IPC :1.72216: AVG IPC :0.64638: L2-Pf-HR :0.66002: L2-HR :0.73140: (Sim:0h27m54s) 
CPU  0 inst:  247000001 cyc:  379071804 now IPC :1.70240: AVG IPC :0.64802: L2-Pf-HR :0.66256: L2-HR :0.73315: (Sim:0h28m0s) 
CPU  0 inst:  248000000 cyc:  379699213 now IPC :1.59386: AVG IPC :0.64959: L2-Pf-HR :0.66480: L2-HR :0.73475: (Sim:0h28m6s) 
CPU  0 inst:  249000005 cyc:  380309458 now IPC :1.63869: AVG IPC :0.65118: L2-Pf-HR :0.66706: L2-HR :0.73637: (Sim:0h28m11s) 
CPU  0 inst:  250000002 cyc:  380921919 now IPC :1.63275: AVG IPC :0.65276: L2-Pf-HR :0.66926: L2-HR :0.73795: (Sim:0h28m17s) 
CPU  0 inst:  251000005 cyc:  381538141 now IPC :1.62280: AVG IPC :0.65433: L2-Pf-HR :0.67142: L2-HR :0.73951: (Sim:0h28m23s) 
CPU  0 inst:  252000003 cyc:  382174098 now IPC :1.57243: AVG IPC :0.65586: L2-Pf-HR :0.67332: L2-HR :0.74095: (Sim:0h28m28s) 
CPU  0 inst:  253000001 cyc:  382745121 now IPC :1.75124: AVG IPC :0.65750: L2-Pf-HR :0.67550: L2-HR :0.74253: (Sim:0h28m34s) 
CPU  0 inst:  254000000 cyc:  383313240 now IPC :1.76019: AVG IPC :0.65914: L2-Pf-HR :0.67764: L2-HR :0.74409: (Sim:0h28m40s) 
CPU  0 inst:  255000004 cyc:  383898494 now IPC :1.70867: AVG IPC :0.66074: L2-Pf-HR :0.67969: L2-HR :0.74560: (Sim:0h28m45s) 
CPU  0 inst:  256000000 cyc:  384489351 now IPC :1.69245: AVG IPC :0.66233: L2-Pf-HR :0.68167: L2-HR :0.74707: (Sim:0h28m51s) 
CPU  0 inst:  257000001 cyc:  385079244 now IPC :1.69522: AVG IPC :0.66392: L2-Pf-HR :0.68366: L2-HR :0.74853: (Sim:0h28m57s) 
CPU  0 inst:  258000003 cyc:  385650590 now IPC :1.75026: AVG IPC :0.66553: L2-Pf-HR :0.68566: L2-HR :0.75000: (Sim:0h29m2s) 
CPU  0 inst:  259000003 cyc:  386230375 now IPC :1.72478: AVG IPC :0.66713: L2-Pf-HR :0.68754: L2-HR :0.75141: (Sim:0h29m8s) 
CPU  0 inst:  260000005 cyc:  386811181 now IPC :1.72175: AVG IPC :0.66872: L2-Pf-HR :0.68939: L2-HR :0.75281: (Sim:0h29m14s) 
CPU  0 inst:  261000000 cyc:  387416869 now IPC :1.65101: AVG IPC :0.67026: L2-Pf-HR :0.69130: L2-HR :0.75420: (Sim:0h29m20s) 
CPU  0 inst:  262000000 cyc:  388004155 now IPC :1.70275: AVG IPC :0.67182: L2-Pf-HR :0.69317: L2-HR :0.75557: (Sim:0h29m25s) 
CPU  0 inst:  263000003 cyc:  388591708 now IPC :1.70198: AVG IPC :0.67338: L2-Pf-HR :0.69495: L2-HR :0.75690: (Sim:0h29m31s) 
CPU  0 inst:  264000000 cyc:  389184413 now IPC :1.68717: AVG IPC :0.67493: L2-Pf-HR :0.69672: L2-HR :0.75822: (Sim:0h29m37s) 
CPU  0 inst:  265000000 cyc:  389814793 now IPC :1.58634: AVG IPC :0.67641: L2-Pf-HR :0.69842: L2-HR :0.75948: (Sim:0h29m42s) 
CPU  0 inst:  266000001 cyc:  390433139 now IPC :1.61722: AVG IPC :0.67790: L2-Pf-HR :0.69996: L2-HR :0.76068: (Sim:0h29m48s) 
CPU  0 inst:  267000002 cyc:  391055231 now IPC :1.60748: AVG IPC :0.67939: L2-Pf-HR :0.70148: L2-HR :0.76187: (Sim:0h29m54s) 
CPU  0 inst:  268000000 cyc:  391669064 now IPC :1.62910: AVG IPC :0.68088: L2-Pf-HR :0.70307: L2-HR :0.76308: (Sim:0h30m0s) 
CPU  0 inst:  269000002 cyc:  392290368 now IPC :1.60952: AVG IPC :0.68235: L2-Pf-HR :0.70455: L2-HR :0.76423: (Sim:0h30m5s) 
CPU  0 inst:  270000005 cyc:  392864718 now IPC :1.74110: AVG IPC :0.68390: L2-Pf-HR :0.70611: L2-HR :0.76544: (Sim:0h30m11s) 
CPU  0 inst:  271000003 cyc:  393442419 now IPC :1.73100: AVG IPC :0.68545: L2-Pf-HR :0.70767: L2-HR :0.76665: (Sim:0h30m17s) 
CPU  0 inst:  272000000 cyc:  394023677 now IPC :1.72040: AVG IPC :0.68698: L2-Pf-HR :0.70920: L2-HR :0.76783: (Sim:0h30m22s) 
CPU  0 inst:  273000005 cyc:  394626951 now IPC :1.65763: AVG IPC :0.68846: L2-Pf-HR :0.71058: L2-HR :0.76894: (Sim:0h30m28s) 
CPU  0 inst:  274000003 cyc:  395200822 now IPC :1.74255: AVG IPC :0.69000: L2-Pf-HR :0.71212: L2-HR :0.77012: (Sim:0h30m34s) 
CPU  0 inst:  275000000 cyc:  395777255 now IPC :1.73480: AVG IPC :0.69152: L2-Pf-HR :0.71362: L2-HR :0.77127: (Sim:0h30m39s) 
CPU  0 inst:  276000005 cyc:  396359242 now IPC :1.71826: AVG IPC :0.69304: L2-Pf-HR :0.71508: L2-HR :0.77240: (Sim:0h30m45s) 
CPU  0 inst:  277000005 cyc:  396962827 now IPC :1.65677: AVG IPC :0.69450: L2-Pf-HR :0.71641: L2-HR :0.77346: (Sim:0h30m51s) 
CPU  0 inst:  278000004 cyc:  397552200 now IPC :1.69672: AVG IPC :0.69599: L2-Pf-HR :0.71789: L2-HR :0.77458: (Sim:0h30m57s) 
CPU  0 inst:  279000000 cyc:  398143057 now IPC :1.69245: AVG IPC :0.69748: L2-Pf-HR :0.71932: L2-HR :0.77568: (Sim:0h31m2s) 
CPU  0 inst:  280000000 cyc:  398728802 now IPC :1.70723: AVG IPC :0.69896: L2-Pf-HR :0.72073: L2-HR :0.77676: (Sim:0h31m8s) 
CPU  0 inst:  281000003 cyc:  399328210 now IPC :1.66832: AVG IPC :0.70042: L2-Pf-HR :0.72206: L2-HR :0.77780: (Sim:0h31m14s) 
CPU  0 inst:  282000003 cyc:  399957563 now IPC :1.58893: AVG IPC :0.70182: L2-Pf-HR :0.72326: L2-HR :0.77875: (Sim:0h31m20s) 
CPU  0 inst:  283000005 cyc:  400571557 now IPC :1.62868: AVG IPC :0.70325: L2-Pf-HR :0.72450: L2-HR :0.77974: (Sim:0h31m25s) 
CPU  0 inst:  284000004 cyc:  401185760 now IPC :1.62812: AVG IPC :0.70467: L2-Pf-HR :0.72572: L2-HR :0.78071: (Sim:0h31m31s) 
CPU  0 inst:  285000005 cyc:  401796807 now IPC :1.63654: AVG IPC :0.70609: L2-Pf-HR :0.72691: L2-HR :0.78167: (Sim:0h31m37s) 
CPU  0 inst:  286000004 cyc:  402407028 now IPC :1.63875: AVG IPC :0.70751: L2-Pf-HR :0.72801: L2-HR :0.78258: (Sim:0h31m42s) 
CPU  0 inst:  287000001 cyc:  402980626 now IPC :1.74338: AVG IPC :0.70898: L2-Pf-HR :0.72924: L2-HR :0.78356: (Sim:0h31m48s) 
CPU  0 inst:  288000000 cyc:  403557425 now IPC :1.73370: AVG IPC :0.71045: L2-Pf-HR :0.73044: L2-HR :0.78453: (Sim:0h31m54s) 
CPU  0 inst:  289000002 cyc:  404138383 now IPC :1.72130: AVG IPC :0.71191: L2-Pf-HR :0.73164: L2-HR :0.78549: (Sim:0h31m59s) 
CPU  0 inst:  290000005 cyc:  404740961 now IPC :1.65954: AVG IPC :0.71332: L2-Pf-HR :0.73271: L2-HR :0.78638: (Sim:0h32m5s) 
CPU  0 inst:  291000000 cyc:  405314140 now IPC :1.74465: AVG IPC :0.71479: L2-Pf-HR :0.73390: L2-HR :0.78733: (Sim:0h32m11s) 
CPU  0 inst:  292000002 cyc:  405886635 now IPC :1.74674: AVG IPC :0.71624: L2-Pf-HR :0.73507: L2-HR :0.78826: (Sim:0h32m17s) 
CPU  0 inst:  293000002 cyc:  406471528 now IPC :1.70971: AVG IPC :0.71768: L2-Pf-HR :0.73616: L2-HR :0.78916: (Sim:0h32m22s) 
CPU  0 inst:  294000000 cyc:  407078850 now IPC :1.64657: AVG IPC :0.71907: L2-Pf-HR :0.73723: L2-HR :0.79003: (Sim:0h32m28s) 
CPU  0 inst:  295000000 cyc:  407664538 now IPC :1.70739: AVG IPC :0.72049: L2-Pf-HR :0.73839: L2-HR :0.79093: (Sim:0h32m34s) 
CPU  0 inst:  296000000 cyc:  408251314 now IPC :1.70423: AVG IPC :0.72191: L2-Pf-HR :0.73948: L2-HR :0.79181: (Sim:0h32m39s) 
CPU  0 inst:  297000002 cyc:  408844128 now IPC :1.68687: AVG IPC :0.72331: L2-Pf-HR :0.74054: L2-HR :0.79266: (Sim:0h32m45s) 
CPU  0 inst:  298000005 cyc:  409462768 now IPC :1.61645: AVG IPC :0.72466: L2-Pf-HR :0.74159: L2-HR :0.79349: (Sim:0h32m51s) 
CPU  0 inst:  299000002 cyc:  410074556 now IPC :1.63455: AVG IPC :0.72602: L2-Pf-HR :0.74255: L2-HR :0.79429: (Sim:0h32m57s) 
CPU  0 inst:  300000005 cyc:  410692573 now IPC :1.61808: AVG IPC :0.72737: L2-Pf-HR :0.74343: L2-HR :0.79505: (Sim:0h33m2s) 
CPU  0 inst:  301000001 cyc:  411312485 now IPC :1.61313: AVG IPC :0.72871: L2-Pf-HR :0.74435: L2-HR :0.79582: (Sim:0h33m8s) 
CPU  0 inst:  302000004 cyc:  411935614 now IPC :1.60481: AVG IPC :0.73004: L2-Pf-HR :0.74531: L2-HR :0.79659: (Sim:0h33m14s) 
CPU  0 inst:  303000003 cyc:  412518721 now IPC :1.71495: AVG IPC :0.73143: L2-Pf-HR :0.74620: L2-HR :0.79737: (Sim:0h33m19s) 
CPU  0 inst:  304000000 cyc:  413087644 now IPC :1.75770: AVG IPC :0.73285: L2-Pf-HR :0.74714: L2-HR :0.79815: (Sim:0h33m25s) 
CPU  0 inst:  305000002 cyc:  413668189 now IPC :1.72252: AVG IPC :0.73424: L2-Pf-HR :0.74809: L2-HR :0.79895: (Sim:0h33m31s) 
CPU  0 inst:  306000001 cyc:  414252571 now IPC :1.71121: AVG IPC :0.73562: L2-Pf-HR :0.74900: L2-HR :0.79972: (Sim:0h33m36s) 
CPU  0 inst:  307000002 cyc:  414845225 now IPC :1.68733: AVG IPC :0.73699: L2-Pf-HR :0.74990: L2-HR :0.80047: (Sim:0h33m42s) 
CPU  0 inst:  308000000 cyc:  415416703 now IPC :1.74985: AVG IPC :0.73838: L2-Pf-HR :0.75085: L2-HR :0.80125: (Sim:0h33m48s) 
CPU  0 inst:  309000005 cyc:  415992241 now IPC :1.73751: AVG IPC :0.73977: L2-Pf-HR :0.75177: L2-HR :0.80201: (Sim:0h33m53s) 
CPU  0 inst:  310000004 cyc:  416567827 now IPC :1.73736: AVG IPC :0.74115: L2-Pf-HR :0.75271: L2-HR :0.80278: (Sim:0h33m59s) 
CPU  0 inst:  311000002 cyc:  417182135 now IPC :1.62784: AVG IPC :0.74246: L2-Pf-HR :0.75353: L2-HR :0.80348: (Sim:0h34m5s) 
CPU  0 inst:  312000000 cyc:  417766034 now IPC :1.71262: AVG IPC :0.74382: L2-Pf-HR :0.75445: L2-HR :0.80422: (Sim:0h34m10s) 
CPU  0 inst:  313000005 cyc:  418347043 now IPC :1.72115: AVG IPC :0.74518: L2-Pf-HR :0.75536: L2-HR :0.80496: (Sim:0h34m16s) 
CPU  0 inst:  314000002 cyc:  418936417 now IPC :1.69671: AVG IPC :0.74652: L2-Pf-HR :0.75628: L2-HR :0.80570: (Sim:0h34m22s) 
CPU  0 inst:  315000005 cyc:  419566503 now IPC :1.58709: AVG IPC :0.74779: L2-Pf-HR :0.75701: L2-HR :0.80633: (Sim:0h34m27s) 
CPU  0 inst:  316000000 cyc:  420178661 now IPC :1.63356: AVG IPC :0.74908: L2-Pf-HR :0.75781: L2-HR :0.80700: (Sim:0h34m33s) 
CPU  0 inst:  317000004 cyc:  420790971 now IPC :1.63317: AVG IPC :0.75037: L2-Pf-HR :0.75858: L2-HR :0.80766: (Sim:0h34m38s) 
CPU  0 inst:  318000001 cyc:  421408549 now IPC :1.61922: AVG IPC :0.75164: L2-Pf-HR :0.75936: L2-HR :0.80831: (Sim:0h34m44s) 
CPU  0 inst:  319000003 cyc:  422034069 now IPC :1.59867: AVG IPC :0.75290: L2-Pf-HR :0.76002: L2-HR :0.80891: (Sim:0h34m50s) 
CPU  0 inst:  320000000 cyc:  422607040 now IPC :1.74528: AVG IPC :0.75425: L2-Pf-HR :0.76083: L2-HR :0.80959: (Sim:0h34m55s) 
CPU  0 inst:  321000005 cyc:  423176820 now IPC :1.75507: AVG IPC :0.75560: L2-Pf-HR :0.76161: L2-HR :0.81026: (Sim:0h35m1s) 
CPU  0 inst:  322000003 cyc:  423760722 now IPC :1.71261: AVG IPC :0.75692: L2-Pf-HR :0.76239: L2-HR :0.81093: (Sim:0h35m7s) 
CPU  0 inst:  323000000 cyc:  424364657 now IPC :1.65580: AVG IPC :0.75821: L2-Pf-HR :0.76306: L2-HR :0.81153: (Sim:0h35m12s) 
CPU  0 inst:  324000004 cyc:  424936947 now IPC :1.74737: AVG IPC :0.75954: L2-Pf-HR :0.76386: L2-HR :0.81219: (Sim:0h35m17s) 
CPU  0 inst:  325000003 cyc:  425506266 now IPC :1.75648: AVG IPC :0.76088: L2-Pf-HR :0.76463: L2-HR :0.81285: (Sim:0h35m23s) 
CPU  0 inst:  326000002 cyc:  426089272 now IPC :1.71525: AVG IPC :0.76219: L2-Pf-HR :0.76538: L2-HR :0.81349: (Sim:0h35m28s) 
CPU  0 inst:  327000003 cyc:  426677881 now IPC :1.69892: AVG IPC :0.76348: L2-Pf-HR :0.76609: L2-HR :0.81410: (Sim:0h35m33s) 
CPU  0 inst:  328000000 cyc:  427280289 now IPC :1.66000: AVG IPC :0.76475: L2-Pf-HR :0.76683: L2-HR :0.81472: (Sim:0h35m39s) 
Finished CPU 0 instr: 326000005 cyc: 426283318 AVG IPC: 0.76475 (Sim time: 0h35m39s)

ChampSim completed all CPUs

[ROI Statistics]
Core_0_instructions 326000005
Core_0_cycles 426283318
Core_0_IPC 0.76475

Core_0_branch_prediction_accuracy 99.57887
Core_0_branch_MPKI 0.12288
Core_0_average_ROB_occupancy_at_mispredict 466.17238

Core_0_L1D_total_access 199423432
Core_0_L1D_total_hit 182601983 L1D_total_Hit Ratio: 0.91565
Core_0_L1D_total_miss 16821449
Core_0_L1D_loads 81216594
Core_0_L1D_load_hit 72639911 L1D_load_Hit Ratio: 0.89440
Core_0_L1D_load_miss 8576683
Core_0_L1D_RFOs 8541427
Core_0_L1D_RFO_hit 7945730 L1D_RFO_Hit Ratio: 0.93026
Core_0_L1D_RFO_miss 595697
Core_0_L1D_prefetches 109665411
Core_0_L1D_prefetch_hit 102016342 L1D_prefetch_Hit Ratio: 0.93025
Core_0_L1D_prefetch_miss 7649069
Core_0_L1D_writebacks 0
Core_0_L1D_writeback_hit 0 L1D_writeback_Hit Ratio: -nan
Core_0_L1D_writeback_miss 0
Core_0_L1D_prefetch_requested 250629951
Core_0_L1D_prefetch_issued 129139718
Core_0_L1D_prefetch_useful 3672357 L1D_Useful Ratio: 0.02844
Core_0_L1D_prefetch_useless 3997327
Core_0_L1D_prefetch_late 493374
Core_0_L1D_average_miss_latency 4764996.20053

Core_0_L1I_total_access 48688067
Core_0_L1I_total_hit 48683113 L1I_total_Hit Ratio: 0.99990
Core_0_L1I_total_miss 4954
Core_0_L1I_loads 48688067
Core_0_L1I_load_hit 48683113 L1I_load_Hit Ratio: 0.99990
Core_0_L1I_load_miss 4954
Core_0_L1I_RFOs 0
Core_0_L1I_RFO_hit 0 L1I_RFO_Hit Ratio: -nan
Core_0_L1I_RFO_miss 0
Core_0_L1I_prefetches 0
Core_0_L1I_prefetch_hit 0 L1I_prefetch_Hit Ratio: -nan
Core_0_L1I_prefetch_miss 0
Core_0_L1I_writebacks 0
Core_0_L1I_writeback_hit 0 L1I_writeback_Hit Ratio: -nan
Core_0_L1I_writeback_miss 0
Core_0_L1I_prefetch_requested 0
Core_0_L1I_prefetch_issued 0
Core_0_L1I_prefetch_useful 0 L1I_Useful Ratio: -nan
Core_0_L1I_prefetch_useless 0
Core_0_L1I_prefetch_late 0
Core_0_L1I_average_miss_latency 295.44227

Core_0_L2C_total_access 18764927
Core_0_L2C_total_hit 15288076 L2C_total_Hit Ratio: 0.81472
Core_0_L2C_total_miss 3476851
Core_0_L2C_loads 8089180
Core_0_L2C_load_hit 7012092 L2C_load_Hit Ratio: 0.86685
Core_0_L2C_load_miss 1077088
Core_0_L2C_RFOs 595685
Core_0_L2C_RFO_hit 95712 L2C_RFO_Hit Ratio: 0.16068
Core_0_L2C_RFO_miss 499973
Core_0_L2C_prefetches 8141513
Core_0_L2C_prefetch_hit 6243121 L2C_prefetch_Hit Ratio: 0.76683
Core_0_L2C_prefetch_miss 1898392
Core_0_L2C_writebacks 1938549
Core_0_L2C_writeback_hit 1937151 L2C_writeback_Hit Ratio: 0.99928
Core_0_L2C_writeback_miss 1398
Core_0_L2C_prefetch_requested 0
Core_0_L2C_prefetch_issued 0
Core_0_L2C_prefetch_useful 286078 L2C_Useful Ratio: inf
Core_0_L2C_prefetch_useless 1609019
Core_0_L2C_prefetch_late 0
Core_0_L2C_average_miss_latency 274.14715

Core_0_LLC_total_access 5305251
Core_0_LLC_total_hit 2377766 LLC_total_Hit Ratio: 0.44819
Core_0_LLC_total_miss 2927485
Core_0_LLC_loads 1077079
Core_0_LLC_load_hit 423393 LLC_load_Hit Ratio: 0.39309
Core_0_LLC_load_miss 653686
Core_0_LLC_RFOs 499973
Core_0_LLC_RFO_hit 52 LLC_RFO_Hit Ratio: 0.00010
Core_0_LLC_RFO_miss 499921
Core_0_LLC_prefetches 1898374
Core_0_LLC_prefetch_hit 134027 LLC_prefetch_Hit Ratio: 0.07060
Core_0_LLC_prefetch_miss 1764347
Core_0_LLC_writebacks 1829825
Core_0_LLC_writeback_hit 1820294 LLC_writeback_Hit Ratio: 0.99479
Core_0_LLC_writeback_miss 9531
Core_0_LLC_prefetch_requested 0
Core_0_LLC_prefetch_issued 0
Core_0_LLC_prefetch_useful 275729 LLC_Useful Ratio: inf
Core_0_LLC_prefetch_useless 1456310
Core_0_LLC_prefetch_late 0
Core_0_LLC_average_miss_latency 265.50570

Core_0_major_page_fault 0
Core_0_minor_page_fault 19453

CPU 0 L1D next line prefetcher final stats
Channel_0_RQ_row_buffer_hit 1439590
Channel_0_RQ_row_buffer_miss 1478310
Channel_0_WQ_row_buffer_hit 535512
Channel_0_WQ_row_buffer_miss 1106741
Channel_0_WQ_full 0
Channel_0_dbus_congested 2112152

avg_congested_cycle 10

EzSearch AVG IPC :0.76475: L2-Pf-HR :0.76683 : L2-HR :0.81472 Uful:inf
     > Finished combination: TraceType=770-tot Sim:326000000 Prefetcher=L2no L1=next_line
