TRACE: [125000000][OPT-125M]_[h12][s512][d64] Warmup: 2000000 NumTraces: 125000000
L1:no:L2:no
*************************************************
   ChampSim Multicore Out-of-Order Simulator
   Last compiled: Oct 27 2024 06:43:44
*************************************************

trace_0 770-tot_memTraces_v3/memTraces[125000000][OPT-125M]_[h12][s512][d64].champsim.xz
MAIN.cc ln 751 stats print skipped
CPU  0 inst:    1000001 cyc:     500102 now IPC :1.99959: AVG IPC :1.99959: L2-Pf-HR :-nan: L2-HR :0.64583: (Sim:0h0m19s) 
CPU  0 inst:    2000000 cyc:     983344 now IPC :2.06935: AVG IPC :2.03388: L2-Pf-HR :-nan: L2-HR :0.70910: (Sim:0h0m39s) 

Warmup complete CPU  0 instructions:    2000003 cycles:     983345 (Simulation time: 0 hr 0 min 39 sec) 

CPU  0 inst:    3000001 cyc:    1627035 now IPC :1.55354: AVG IPC :1.55354: L2-Pf-HR :-nan: L2-HR :0.79660: (Sim:0h0m56s) 
CPU  0 inst:    4000004 cyc:    2251544 now IPC :1.60126: AVG IPC :1.57704: L2-Pf-HR :-nan: L2-HR :0.78167: (Sim:0h1m13s) 
CPU  0 inst:    5000000 cyc:    2916585 now IPC :1.50366: AVG IPC :1.55180: L2-Pf-HR :-nan: L2-HR :0.77977: (Sim:0h1m31s) 
CPU  0 inst:    6000004 cyc:    3540943 now IPC :1.60165: AVG IPC :1.56397: L2-Pf-HR :-nan: L2-HR :0.79009: (Sim:0h1m48s) 
CPU  0 inst:    7000005 cyc:    4166823 now IPC :1.59775: AVG IPC :1.57061: L2-Pf-HR :-nan: L2-HR :0.79516: (Sim:0h2m5s) 
CPU  0 inst:    8000005 cyc:    4787473 now IPC :1.61121: AVG IPC :1.57723: L2-Pf-HR :-nan: L2-HR :0.79151: (Sim:0h2m22s) 
CPU  0 inst:    9000004 cyc:    5473441 now IPC :1.45779: AVG IPC :1.55899: L2-Pf-HR :-nan: L2-HR :0.78848: (Sim:0h2m39s) 
CPU  0 inst:   10000001 cyc:    6136617 now IPC :1.50789: AVG IPC :1.55241: L2-Pf-HR :-nan: L2-HR :0.79237: (Sim:0h2m57s) 
CPU  0 inst:   11000005 cyc:    6800754 now IPC :1.50572: AVG IPC :1.54708: L2-Pf-HR :-nan: L2-HR :0.79506: (Sim:0h3m14s) 
CPU  0 inst:   12000005 cyc:    7476448 now IPC :1.47996: AVG IPC :1.54010: L2-Pf-HR :-nan: L2-HR :0.79336: (Sim:0h3m32s) 
CPU  0 inst:   13000002 cyc:    8210779 now IPC :1.36178: AVG IPC :1.52198: L2-Pf-HR :-nan: L2-HR :0.79082: (Sim:0h3m50s) 
CPU  0 inst:   14000005 cyc:    8895641 now IPC :1.46015: AVG IPC :1.51663: L2-Pf-HR :-nan: L2-HR :0.79274: (Sim:0h4m8s) 
CPU  0 inst:   15000001 cyc:    9578137 now IPC :1.46520: AVG IPC :1.51254: L2-Pf-HR :-nan: L2-HR :0.79512: (Sim:0h4m26s) 
CPU  0 inst:   16000005 cyc:   10270333 now IPC :1.44468: AVG IPC :1.50749: L2-Pf-HR :-nan: L2-HR :0.79421: (Sim:0h4m44s) 
CPU  0 inst:   17000000 cyc:   11007475 now IPC :1.35658: AVG IPC :1.49639: L2-Pf-HR :-nan: L2-HR :0.79139: (Sim:0h5m2s) 
CPU  0 inst:   18000001 cyc:   11692584 now IPC :1.45962: AVG IPC :1.49404: L2-Pf-HR :-nan: L2-HR :0.79340: (Sim:0h5m20s) 
CPU  0 inst:   19000004 cyc:   12375607 now IPC :1.46408: AVG IPC :1.49224: L2-Pf-HR :-nan: L2-HR :0.79445: (Sim:0h5m37s) 
CPU  0 inst:   20000002 cyc:   13065800 now IPC :1.44887: AVG IPC :1.48976: L2-Pf-HR :-nan: L2-HR :0.79449: (Sim:0h5m55s) 
CPU  0 inst:   21000005 cyc:   13802022 now IPC :1.35829: AVG IPC :1.48221: L2-Pf-HR :-nan: L2-HR :0.79215: (Sim:0h6m13s) 
CPU  0 inst:   22000004 cyc:   14490010 now IPC :1.45351: AVG IPC :1.48075: L2-Pf-HR :-nan: L2-HR :0.79328: (Sim:0h6m31s) 
CPU  0 inst:   23000002 cyc:   15172665 now IPC :1.46487: AVG IPC :1.47999: L2-Pf-HR :-nan: L2-HR :0.79464: (Sim:0h6m49s) 
CPU  0 inst:   24000004 cyc:   15862354 now IPC :1.44993: AVG IPC :1.47859: L2-Pf-HR :-nan: L2-HR :0.79486: (Sim:0h7m7s) 
CPU  0 inst:   25000003 cyc:   16584354 now IPC :1.38504: AVG IPC :1.47426: L2-Pf-HR :-nan: L2-HR :0.79252: (Sim:0h7m25s) 
CPU  0 inst:   26000005 cyc:   17271998 now IPC :1.45424: AVG IPC :1.47342: L2-Pf-HR :-nan: L2-HR :0.79362: (Sim:0h7m42s) 
CPU  0 inst:   27000003 cyc:   17958114 now IPC :1.45748: AVG IPC :1.47277: L2-Pf-HR :-nan: L2-HR :0.79458: (Sim:0h8m0s) 
CPU  0 inst:   28000001 cyc:   18649666 now IPC :1.44602: AVG IPC :1.47173: L2-Pf-HR :-nan: L2-HR :0.79514: (Sim:0h8m18s) 
CPU  0 inst:   29000000 cyc:   19377077 now IPC :1.37474: AVG IPC :1.46789: L2-Pf-HR :-nan: L2-HR :0.79295: (Sim:0h8m36s) 
CPU  0 inst:   30000000 cyc:   20066015 now IPC :1.45151: AVG IPC :1.46730: L2-Pf-HR :-nan: L2-HR :0.79396: (Sim:0h8m54s) 
CPU  0 inst:   31000001 cyc:   20750753 now IPC :1.46041: AVG IPC :1.46706: L2-Pf-HR :-nan: L2-HR :0.79466: (Sim:0h9m11s) 
CPU  0 inst:   32000002 cyc:   21443002 now IPC :1.44457: AVG IPC :1.46630: L2-Pf-HR :-nan: L2-HR :0.79551: (Sim:0h9m29s) 
CPU  0 inst:   33000003 cyc:   22134858 now IPC :1.44539: AVG IPC :1.46562: L2-Pf-HR :-nan: L2-HR :0.79358: (Sim:0h9m47s) 
CPU  0 inst:   34000004 cyc:   22847258 now IPC :1.40371: AVG IPC :1.46360: L2-Pf-HR :-nan: L2-HR :0.79393: (Sim:0h10m5s) 
CPU  0 inst:   35000005 cyc:   23530390 now IPC :1.46385: AVG IPC :1.46361: L2-Pf-HR :-nan: L2-HR :0.79489: (Sim:0h10m23s) 
CPU  0 inst:   36000004 cyc:   24218955 now IPC :1.45229: AVG IPC :1.46327: L2-Pf-HR :-nan: L2-HR :0.79512: (Sim:0h10m40s) 
CPU  0 inst:   37000000 cyc:   24897998 now IPC :1.47265: AVG IPC :1.46354: L2-Pf-HR :-nan: L2-HR :0.79446: (Sim:0h10m58s) 
CPU  0 inst:   38000004 cyc:   25643537 now IPC :1.34132: AVG IPC :1.45984: L2-Pf-HR :-nan: L2-HR :0.79416: (Sim:0h11m16s) 
CPU  0 inst:   39000002 cyc:   26327989 now IPC :1.46102: AVG IPC :1.45987: L2-Pf-HR :-nan: L2-HR :0.79469: (Sim:0h11m34s) 
CPU  0 inst:   40000000 cyc:   27010980 now IPC :1.46415: AVG IPC :1.45999: L2-Pf-HR :-nan: L2-HR :0.79528: (Sim:0h11m52s) 
CPU  0 inst:   41000003 cyc:   27691372 now IPC :1.46975: AVG IPC :1.46024: L2-Pf-HR :-nan: L2-HR :0.79456: (Sim:0h12m9s) 
CPU  0 inst:   42000002 cyc:   28423923 now IPC :1.36509: AVG IPC :1.45770: L2-Pf-HR :-nan: L2-HR :0.79410: (Sim:0h12m28s) 
CPU  0 inst:   43000000 cyc:   29115689 now IPC :1.44557: AVG IPC :1.45740: L2-Pf-HR :-nan: L2-HR :0.79471: (Sim:0h12m45s) 
CPU  0 inst:   44000001 cyc:   29803629 now IPC :1.45362: AVG IPC :1.45731: L2-Pf-HR :-nan: L2-HR :0.79522: (Sim:0h13m3s) 
CPU  0 inst:   45000000 cyc:   30489236 now IPC :1.45856: AVG IPC :1.45734: L2-Pf-HR :-nan: L2-HR :0.79467: (Sim:0h13m21s) 
CPU  0 inst:   46000002 cyc:   31235636 now IPC :1.33977: AVG IPC :1.45444: L2-Pf-HR :-nan: L2-HR :0.79413: (Sim:0h13m39s) 
CPU  0 inst:   47000004 cyc:   31920104 now IPC :1.46099: AVG IPC :1.45458: L2-Pf-HR :-nan: L2-HR :0.79471: (Sim:0h13m57s) 
CPU  0 inst:   48000005 cyc:   32605658 now IPC :1.45868: AVG IPC :1.45467: L2-Pf-HR :-nan: L2-HR :0.79516: (Sim:0h14m15s) 
CPU  0 inst:   49000000 cyc:   33290945 now IPC :1.45924: AVG IPC :1.45477: L2-Pf-HR :-nan: L2-HR :0.79488: (Sim:0h14m33s) 
CPU  0 inst:   50000001 cyc:   36551337 now IPC :0.30671: AVG IPC :1.34953: L2-Pf-HR :-nan: L2-HR :0.76613: (Sim:0h15m7s) 
CPU  0 inst:   51000001 cyc:   42031375 now IPC :0.18248: AVG IPC :1.19372: L2-Pf-HR :-nan: L2-HR :0.72712: (Sim:0h16m2s) 
CPU  0 inst:   52000000 cyc:   47412337 now IPC :0.18584: AVG IPC :1.07691: L2-Pf-HR :-nan: L2-HR :0.71484: (Sim:0h16m44s) 
CPU  0 inst:   53000000 cyc:   52891717 now IPC :0.18250: AVG IPC :0.98250: L2-Pf-HR :-nan: L2-HR :0.70904: (Sim:0h17m8s) 
CPU  0 inst:   54000000 cyc:   58362710 now IPC :0.18278: AVG IPC :0.90625: L2-Pf-HR :-nan: L2-HR :0.70342: (Sim:0h17m29s) 
CPU  0 inst:   55000001 cyc:   63645559 now IPC :0.18929: AVG IPC :0.84580: L2-Pf-HR :-nan: L2-HR :0.69796: (Sim:0h18m8s) 
CPU  0 inst:   56000000 cyc:   68836857 now IPC :0.19263: AVG IPC :0.79583: L2-Pf-HR :-nan: L2-HR :0.69266: (Sim:0h18m47s) 
CPU  0 inst:   57000000 cyc:   73962341 now IPC :0.19510: AVG IPC :0.75364: L2-Pf-HR :-nan: L2-HR :0.68751: (Sim:0h19m26s) 
CPU  0 inst:   58000000 cyc:   79186912 now IPC :0.19140: AVG IPC :0.71608: L2-Pf-HR :-nan: L2-HR :0.68251: (Sim:0h20m5s) 
CPU  0 inst:   59000000 cyc:   84331809 now IPC :0.19437: AVG IPC :0.68388: L2-Pf-HR :-nan: L2-HR :0.67765: (Sim:0h20m44s) 
CPU  0 inst:   60000000 cyc:   89498962 now IPC :0.19353: AVG IPC :0.65525: L2-Pf-HR :-nan: L2-HR :0.67292: (Sim:0h21m23s) 
CPU  0 inst:   61000004 cyc:   94740447 now IPC :0.19079: AVG IPC :0.62929: L2-Pf-HR :-nan: L2-HR :0.66832: (Sim:0h22m2s) 
CPU  0 inst:   62000000 cyc:   99821527 now IPC :0.19681: AVG IPC :0.60705: L2-Pf-HR :-nan: L2-HR :0.66385: (Sim:0h22m41s) 
CPU  0 inst:   63000000 cyc:  104922682 now IPC :0.19603: AVG IPC :0.58688: L2-Pf-HR :-nan: L2-HR :0.65949: (Sim:0h23m20s) 
CPU  0 inst:   64000001 cyc:  109955074 now IPC :0.19871: AVG IPC :0.56895: L2-Pf-HR :-nan: L2-HR :0.65524: (Sim:0h23m58s) 
CPU  0 inst:   65000002 cyc:  115181428 now IPC :0.19134: AVG IPC :0.55167: L2-Pf-HR :-nan: L2-HR :0.65110: (Sim:0h24m38s) 
CPU  0 inst:   66000000 cyc:  120427901 now IPC :0.19060: AVG IPC :0.53581: L2-Pf-HR :-nan: L2-HR :0.64707: (Sim:0h25m17s) 
CPU  0 inst:   67000000 cyc:  125657574 now IPC :0.19122: AVG IPC :0.52136: L2-Pf-HR :-nan: L2-HR :0.64314: (Sim:0h25m56s) 
CPU  0 inst:   68000000 cyc:  130803029 now IPC :0.19435: AVG IPC :0.50840: L2-Pf-HR :-nan: L2-HR :0.63931: (Sim:0h26m35s) 
CPU  0 inst:   69000004 cyc:  135925898 now IPC :0.19520: AVG IPC :0.49651: L2-Pf-HR :-nan: L2-HR :0.63557: (Sim:0h27m13s) 
CPU  0 inst:   70000000 cyc:  141105026 now IPC :0.19308: AVG IPC :0.48529: L2-Pf-HR :-nan: L2-HR :0.63192: (Sim:0h27m44s) 
CPU  0 inst:   71000000 cyc:  146176181 now IPC :0.19719: AVG IPC :0.47523: L2-Pf-HR :-nan: L2-HR :0.62836: (Sim:0h28m2s) 
CPU  0 inst:   72000000 cyc:  151238878 now IPC :0.19752: AVG IPC :0.46587: L2-Pf-HR :-nan: L2-HR :0.62488: (Sim:0h28m20s) 
CPU  0 inst:   73000000 cyc:  156390021 now IPC :0.19413: AVG IPC :0.45687: L2-Pf-HR :-nan: L2-HR :0.62148: (Sim:0h28m37s) 
CPU  0 inst:   74000001 cyc:  161644116 now IPC :0.19033: AVG IPC :0.44815: L2-Pf-HR :-nan: L2-HR :0.61816: (Sim:0h28m56s) 
CPU  0 inst:   75000002 cyc:  166938681 now IPC :0.18887: AVG IPC :0.43988: L2-Pf-HR :-nan: L2-HR :0.61492: (Sim:0h29m14s) 
CPU  0 inst:   76000001 cyc:  169376759 now IPC :0.41016: AVG IPC :0.43945: L2-Pf-HR :-nan: L2-HR :0.61867: (Sim:0h29m26s) 
CPU  0 inst:   77000003 cyc:  170095621 now IPC :1.39109: AVG IPC :0.44349: L2-Pf-HR :-nan: L2-HR :0.62765: (Sim:0h29m35s) 
CPU  0 inst:   78000005 cyc:  170810618 now IPC :1.39861: AVG IPC :0.44751: L2-Pf-HR :-nan: L2-HR :0.63624: (Sim:0h29m45s) 
CPU  0 inst:   79000000 cyc:  171473644 now IPC :1.50823: AVG IPC :0.45164: L2-Pf-HR :-nan: L2-HR :0.64484: (Sim:0h29m54s) 
CPU  0 inst:   80000000 cyc:  172221641 now IPC :1.33690: AVG IPC :0.45551: L2-Pf-HR :-nan: L2-HR :0.65216: (Sim:0h30m3s) 
CPU  0 inst:   81000002 cyc:  172932999 now IPC :1.40576: AVG IPC :0.45944: L2-Pf-HR :-nan: L2-HR :0.65940: (Sim:0h30m12s) 
CPU  0 inst:   82000002 cyc:  173656868 now IPC :1.38147: AVG IPC :0.46330: L2-Pf-HR :-nan: L2-HR :0.66620: (Sim:0h30m21s) 
CPU  0 inst:   83000004 cyc:  174322088 now IPC :1.50327: AVG IPC :0.46729: L2-Pf-HR :-nan: L2-HR :0.67319: (Sim:0h30m30s) 
CPU  0 inst:   84000005 cyc:  175064061 now IPC :1.34776: AVG IPC :0.47105: L2-Pf-HR :-nan: L2-HR :0.67919: (Sim:0h30m39s) 
CPU  0 inst:   85000000 cyc:  175754504 now IPC :1.44834: AVG IPC :0.47491: L2-Pf-HR :-nan: L2-HR :0.68508: (Sim:0h30m48s) 
CPU  0 inst:   86000004 cyc:  176456173 now IPC :1.42518: AVG IPC :0.47871: L2-Pf-HR :-nan: L2-HR :0.69057: (Sim:0h30m58s) 
CPU  0 inst:   87000002 cyc:  177106179 now IPC :1.53844: AVG IPC :0.48262: L2-Pf-HR :-nan: L2-HR :0.69634: (Sim:0h31m7s) 
CPU  0 inst:   88000002 cyc:  177780832 now IPC :1.48224: AVG IPC :0.48643: L2-Pf-HR :-nan: L2-HR :0.70146: (Sim:0h31m16s) 
CPU  0 inst:   89000001 cyc:  178474450 now IPC :1.44171: AVG IPC :0.49017: L2-Pf-HR :-nan: L2-HR :0.70624: (Sim:0h31m25s) 
CPU  0 inst:   90000001 cyc:  179145240 now IPC :1.49078: AVG IPC :0.49393: L2-Pf-HR :-nan: L2-HR :0.71105: (Sim:0h31m35s) 
CPU  0 inst:   91000004 cyc:  179824164 now IPC :1.47292: AVG IPC :0.49765: L2-Pf-HR :-nan: L2-HR :0.71552: (Sim:0h31m44s) 
CPU  0 inst:   92000001 cyc:  180465585 now IPC :1.55903: AVG IPC :0.50144: L2-Pf-HR :-nan: L2-HR :0.72018: (Sim:0h31m53s) 
CPU  0 inst:   93000002 cyc:  181171541 now IPC :1.41652: AVG IPC :0.50503: L2-Pf-HR :-nan: L2-HR :0.72401: (Sim:0h32m2s) 
CPU  0 inst:   94000005 cyc:  181846771 now IPC :1.48098: AVG IPC :0.50867: L2-Pf-HR :-nan: L2-HR :0.72803: (Sim:0h32m18s) 
CPU  0 inst:   95000002 cyc:  182537031 now IPC :1.44873: AVG IPC :0.51225: L2-Pf-HR :-nan: L2-HR :0.73172: (Sim:0h32m39s) 
CPU  0 inst:   96000001 cyc:  183173594 now IPC :1.57093: AVG IPC :0.51594: L2-Pf-HR :-nan: L2-HR :0.73574: (Sim:0h33m0s) 
CPU  0 inst:   97000000 cyc:  183868611 now IPC :1.43881: AVG IPC :0.51945: L2-Pf-HR :-nan: L2-HR :0.73912: (Sim:0h33m21s) 
CPU  0 inst:   98000000 cyc:  184553860 now IPC :1.45932: AVG IPC :0.52296: L2-Pf-HR :-nan: L2-HR :0.74252: (Sim:0h33m42s) 
CPU  0 inst:   99000003 cyc:  185251731 now IPC :1.43293: AVG IPC :0.52641: L2-Pf-HR :-nan: L2-HR :0.74565: (Sim:0h34m2s) 
CPU  0 inst:  100000002 cyc:  185889167 now IPC :1.56878: AVG IPC :0.53000: L2-Pf-HR :-nan: L2-HR :0.74917: (Sim:0h34m23s) 
CPU  0 inst:  101000004 cyc:  186571295 now IPC :1.46600: AVG IPC :0.53344: L2-Pf-HR :-nan: L2-HR :0.75218: (Sim:0h34m42s) 
CPU  0 inst:  102000005 cyc:  187255883 now IPC :1.46073: AVG IPC :0.53685: L2-Pf-HR :-nan: L2-HR :0.75512: (Sim:0h34m52s) 
CPU  0 inst:  103000005 cyc:  187970147 now IPC :1.40004: AVG IPC :0.54015: L2-Pf-HR :-nan: L2-HR :0.75774: (Sim:0h35m3s) 
CPU  0 inst:  104000000 cyc:  188614071 now IPC :1.55297: AVG IPC :0.54362: L2-Pf-HR :-nan: L2-HR :0.76079: (Sim:0h35m12s) 
CPU  0 inst:  105000002 cyc:  189286295 now IPC :1.48760: AVG IPC :0.54699: L2-Pf-HR :-nan: L2-HR :0.76346: (Sim:0h35m21s) 
CPU  0 inst:  106000003 cyc:  189969382 now IPC :1.46394: AVG IPC :0.55031: L2-Pf-HR :-nan: L2-HR :0.76600: (Sim:0h35m31s) 
CPU  0 inst:  107000001 cyc:  190684972 now IPC :1.39745: AVG IPC :0.55350: L2-Pf-HR :-nan: L2-HR :0.76830: (Sim:0h35m44s) 
CPU  0 inst:  108000005 cyc:  191326196 now IPC :1.55952: AVG IPC :0.55689: L2-Pf-HR :-nan: L2-HR :0.77103: (Sim:0h35m56s) 
CPU  0 inst:  109000003 cyc:  191992271 now IPC :1.50133: AVG IPC :0.56018: L2-Pf-HR :-nan: L2-HR :0.77346: (Sim:0h36m5s) 
CPU  0 inst:  110000001 cyc:  192683375 now IPC :1.44696: AVG IPC :0.56338: L2-Pf-HR :-nan: L2-HR :0.77564: (Sim:0h36m17s) 
CPU  0 inst:  111000000 cyc:  193380568 now IPC :1.43432: AVG IPC :0.56654: L2-Pf-HR :-nan: L2-HR :0.77770: (Sim:0h36m38s) 
CPU  0 inst:  112000005 cyc:  194033123 now IPC :1.53245: AVG IPC :0.56980: L2-Pf-HR :-nan: L2-HR :0.78010: (Sim:0h36m58s) 
CPU  0 inst:  113000001 cyc:  194677504 now IPC :1.55187: AVG IPC :0.57307: L2-Pf-HR :-nan: L2-HR :0.78240: (Sim:0h37m18s) 
CPU  0 inst:  114000003 cyc:  195388545 now IPC :1.40639: AVG IPC :0.57612: L2-Pf-HR :-nan: L2-HR :0.78418: (Sim:0h37m39s) 
CPU  0 inst:  115000001 cyc:  196064027 now IPC :1.48042: AVG IPC :0.57925: L2-Pf-HR :-nan: L2-HR :0.78619: (Sim:0h38m0s) 
CPU  0 inst:  116000003 cyc:  196731787 now IPC :1.49755: AVG IPC :0.58238: L2-Pf-HR :-nan: L2-HR :0.78814: (Sim:0h38m20s) 
CPU  0 inst:  117000005 cyc:  197369009 now IPC :1.56931: AVG IPC :0.58558: L2-Pf-HR :-nan: L2-HR :0.79026: (Sim:0h38m41s) 
CPU  0 inst:  118000001 cyc:  198088911 now IPC :1.38907: AVG IPC :0.58852: L2-Pf-HR :-nan: L2-HR :0.79179: (Sim:0h39m2s) 
CPU  0 inst:  119000005 cyc:  198764876 now IPC :1.47937: AVG IPC :0.59156: L2-Pf-HR :-nan: L2-HR :0.79358: (Sim:0h39m22s) 
CPU  0 inst:  120000005 cyc:  199437305 now IPC :1.48715: AVG IPC :0.59460: L2-Pf-HR :-nan: L2-HR :0.79532: (Sim:0h39m43s) 
CPU  0 inst:  121000004 cyc:  200077279 now IPC :1.56256: AVG IPC :0.59771: L2-Pf-HR :-nan: L2-HR :0.79722: (Sim:0h40m4s) 
CPU  0 inst:  122000004 cyc:  200790701 now IPC :1.40169: AVG IPC :0.60058: L2-Pf-HR :-nan: L2-HR :0.79864: (Sim:0h40m24s) 
Finished CPU 0 instr: 120000001 cyc: 199807356 AVG IPC: 0.60058 (Sim time: 0h40m24s)

ChampSim completed all CPUs

[ROI Statistics]
Core_0_instructions 120000001
Core_0_cycles 199807356
Core_0_IPC 0.60058

Core_0_branch_prediction_accuracy 99.19469
Core_0_branch_MPKI 0.24154
Core_0_average_ROB_occupancy_at_mispredict 448.21411

Core_0_L1D_total_access 32858364
Core_0_L1D_total_hit 28297814 L1D_total_Hit Ratio: 0.86121
Core_0_L1D_total_miss 4560550
Core_0_L1D_loads 29599354
Core_0_L1D_load_hit 25237311 L1D_load_Hit Ratio: 0.85263
Core_0_L1D_load_miss 4362043
Core_0_L1D_RFOs 3259010
Core_0_L1D_RFO_hit 3060503 L1D_RFO_Hit Ratio: 0.93909
Core_0_L1D_RFO_miss 198507
Core_0_L1D_prefetches 0
Core_0_L1D_prefetch_hit 0 L1D_prefetch_Hit Ratio: -nan
Core_0_L1D_prefetch_miss 0
Core_0_L1D_writebacks 0
Core_0_L1D_writeback_hit 0 L1D_writeback_Hit Ratio: -nan
Core_0_L1D_writeback_miss 0
Core_0_L1D_prefetch_requested 0
Core_0_L1D_prefetch_issued 0
Core_0_L1D_prefetch_useful 0 L1D_Useful Ratio: -nan
Core_0_L1D_prefetch_useless 0
Core_0_L1D_prefetch_late 0
Core_0_L1D_average_miss_latency 92.07744

Core_0_L1I_total_access 17063268
Core_0_L1I_total_hit 17058334 L1I_total_Hit Ratio: 0.99971
Core_0_L1I_total_miss 4934
Core_0_L1I_loads 17063268
Core_0_L1I_load_hit 17058334 L1I_load_Hit Ratio: 0.99971
Core_0_L1I_load_miss 4934
Core_0_L1I_RFOs 0
Core_0_L1I_RFO_hit 0 L1I_RFO_Hit Ratio: -nan
Core_0_L1I_RFO_miss 0
Core_0_L1I_prefetches 0
Core_0_L1I_prefetch_hit 0 L1I_prefetch_Hit Ratio: -nan
Core_0_L1I_prefetch_miss 0
Core_0_L1I_writebacks 0
Core_0_L1I_writeback_hit 0 L1I_writeback_Hit Ratio: -nan
Core_0_L1I_writeback_miss 0
Core_0_L1I_prefetch_requested 0
Core_0_L1I_prefetch_issued 0
Core_0_L1I_prefetch_useful 0 L1I_Useful Ratio: -nan
Core_0_L1I_prefetch_useless 0
Core_0_L1I_prefetch_late 0
Core_0_L1I_average_miss_latency 275.00203

Core_0_L2C_total_access 5311874
Core_0_L2C_total_hit 4242300 L2C_total_Hit Ratio: 0.79864
Core_0_L2C_total_miss 1069574
Core_0_L2C_loads 4366976
Core_0_L2C_load_hit 3494476 L2C_load_Hit Ratio: 0.80020
Core_0_L2C_load_miss 872500
Core_0_L2C_RFOs 198507
Core_0_L2C_RFO_hit 1438 L2C_RFO_Hit Ratio: 0.00724
Core_0_L2C_RFO_miss 197069
Core_0_L2C_prefetches 0
Core_0_L2C_prefetch_hit 0 L2C_prefetch_Hit Ratio: -nan
Core_0_L2C_prefetch_miss 0
Core_0_L2C_writebacks 746391
Core_0_L2C_writeback_hit 746386 L2C_writeback_Hit Ratio: 0.99999
Core_0_L2C_writeback_miss 5
Core_0_L2C_prefetch_requested 0
Core_0_L2C_prefetch_issued 0
Core_0_L2C_prefetch_useful 0 L2C_Useful Ratio: -nan
Core_0_L2C_prefetch_useless 0
Core_0_L2C_prefetch_late 0
Core_0_L2C_average_miss_latency 328.74930

Core_0_LLC_total_access 1687160
Core_0_LLC_total_hit 622171 LLC_total_Hit Ratio: 0.36877
Core_0_LLC_total_miss 1064989
Core_0_LLC_loads 872500
Core_0_LLC_load_hit 8152 LLC_load_Hit Ratio: 0.00934
Core_0_LLC_load_miss 864348
Core_0_LLC_RFOs 197069
Core_0_LLC_RFO_hit 267 LLC_RFO_Hit Ratio: 0.00135
Core_0_LLC_RFO_miss 196802
Core_0_LLC_prefetches 0
Core_0_LLC_prefetch_hit 0 LLC_prefetch_Hit Ratio: -nan
Core_0_LLC_prefetch_miss 0
Core_0_LLC_writebacks 617591
Core_0_LLC_writeback_hit 613752 LLC_writeback_Hit Ratio: 0.99378
Core_0_LLC_writeback_miss 3839
Core_0_LLC_prefetch_requested 0
Core_0_LLC_prefetch_issued 0
Core_0_LLC_prefetch_useful 0 LLC_Useful Ratio: -nan
Core_0_LLC_prefetch_useless 0
Core_0_LLC_prefetch_late 0
Core_0_LLC_average_miss_latency 279.83506

Core_0_major_page_fault 0
Core_0_minor_page_fault 8629

Channel_0_RQ_row_buffer_hit 586105
Channel_0_RQ_row_buffer_miss 475045
Channel_0_WQ_row_buffer_hit 283177
Channel_0_WQ_row_buffer_miss 329442
Channel_0_WQ_full 237
Channel_0_dbus_congested 484179

avg_congested_cycle 11

EzSearch AVG IPC :0.60058: L2-Pf-HR :-nan : L2-HR :0.79864 Uful:-nan
     > Finished combination: TraceType=770-tot Sim:120000000 Prefetcher=L2no L1=no
