TRACE: [1622000000][GPT-Neo-2_7B]_[h32][s1024][d80] Warmup: 2000000 NumTraces: 1622000000
L1:berti:L2:berti
*************************************************
   ChampSim Multicore Out-of-Order Simulator
   Last compiled: Oct 27 2024 04:14:50
*************************************************

trace_0 770-tot_memTraces_v3/memTraces[1622000000][GPT-Neo-2_7B]_[h32][s1024][d80].champsim.xz
CPU 0 L1D Berti prefetcher
CPU 0 L2C Berti prefetcher
MAIN.cc ln 751 stats print skipped
CPU  0 inst:    1000005 cyc:     500546 now IPC :1.99783: AVG IPC :1.99783: L2-Pf-HR :0.64964: L2-HR :0.68900: (Sim:0h0m23s) 
CPU  0 inst:    2000001 cyc:     985570 now IPC :2.06175: AVG IPC :2.02928: L2-Pf-HR :0.71113: L2-HR :0.74651: (Sim:0h0m48s) 

Warmup complete CPU  0 instructions:    2000001 cycles:     985570 (Simulation time: 0 hr 0 min 48 sec) 

CPU  0 inst:    3000005 cyc:    1445185 now IPC :2.17574: AVG IPC :2.17574: L2-Pf-HR :0.78447: L2-HR :0.81696: (Sim:0h1m8s) 
CPU  0 inst:    4000001 cyc:    1912178 now IPC :2.14135: AVG IPC :2.15841: L2-Pf-HR :0.78319: L2-HR :0.81618: (Sim:0h1m27s) 
CPU  0 inst:    5000000 cyc:    2384342 now IPC :2.11791: AVG IPC :2.14474: L2-Pf-HR :0.78506: L2-HR :0.81652: (Sim:0h1m47s) 
CPU  0 inst:    6000000 cyc:    2856700 now IPC :2.11704: AVG IPC :2.13775: L2-Pf-HR :0.78426: L2-HR :0.81622: (Sim:0h2m7s) 
CPU  0 inst:    7000002 cyc:    3319635 now IPC :2.16013: AVG IPC :2.14219: L2-Pf-HR :0.78440: L2-HR :0.81704: (Sim:0h2m27s) 
CPU  0 inst:    8000005 cyc:    3896765 now IPC :1.73272: AVG IPC :2.06101: L2-Pf-HR :0.78684: L2-HR :0.81391: (Sim:0h2m48s) 
CPU  0 inst:    9000004 cyc:    4412999 now IPC :1.93710: AVG IPC :2.04235: L2-Pf-HR :0.78286: L2-HR :0.81237: (Sim:0h3m9s) 
CPU  0 inst:   10000000 cyc:    4875172 now IPC :2.16368: AVG IPC :2.05677: L2-Pf-HR :0.78244: L2-HR :0.81290: (Sim:0h3m29s) 
CPU  0 inst:   11000003 cyc:    5335898 now IPC :2.17049: AVG IPC :2.06881: L2-Pf-HR :0.78236: L2-HR :0.81355: (Sim:0h3m49s) 
CPU  0 inst:   12000000 cyc:    5799165 now IPC :2.15858: AVG IPC :2.07745: L2-Pf-HR :0.78183: L2-HR :0.81398: (Sim:0h4m10s) 
CPU  0 inst:   13000002 cyc:    6260137 now IPC :2.16933: AVG IPC :2.08548: L2-Pf-HR :0.78154: L2-HR :0.81454: (Sim:0h4m31s) 
CPU  0 inst:   14000003 cyc:    6723021 now IPC :2.16037: AVG IPC :2.09152: L2-Pf-HR :0.78141: L2-HR :0.81523: (Sim:0h4m51s) 
CPU  0 inst:   15000001 cyc:    7175315 now IPC :2.21095: AVG IPC :2.10025: L2-Pf-HR :0.78147: L2-HR :0.81613: (Sim:0h5m12s) 
CPU  0 inst:   16000005 cyc:    7779105 now IPC :1.65621: AVG IPC :2.06078: L2-Pf-HR :0.78366: L2-HR :0.81661: (Sim:0h5m34s) 
CPU  0 inst:   17000005 cyc:    8248735 now IPC :2.12934: AVG IPC :2.06522: L2-Pf-HR :0.78861: L2-HR :0.82136: (Sim:0h5m55s) 
CPU  0 inst:   18000002 cyc:    8716714 now IPC :2.13684: AVG IPC :2.06955: L2-Pf-HR :0.79358: L2-HR :0.82603: (Sim:0h6m16s) 
CPU  0 inst:   19000004 cyc:    9186603 now IPC :2.12817: AVG IPC :2.07291: L2-Pf-HR :0.79803: L2-HR :0.83009: (Sim:0h6m36s) 
CPU  0 inst:   20000003 cyc:    9653524 now IPC :2.14169: AVG IPC :2.07661: L2-Pf-HR :0.80224: L2-HR :0.83399: (Sim:0h6m56s) 
CPU  0 inst:   21000003 cyc:   10357024 now IPC :1.42146: AVG IPC :2.02743: L2-Pf-HR :0.79986: L2-HR :0.82983: (Sim:0h7m18s) 
CPU  0 inst:   22000002 cyc:   10871503 now IPC :1.94371: AVG IPC :2.02308: L2-Pf-HR :0.79850: L2-HR :0.82852: (Sim:0h7m39s) 
CPU  0 inst:   23000002 cyc:   11374749 now IPC :1.98710: AVG IPC :2.02133: L2-Pf-HR :0.79738: L2-HR :0.82749: (Sim:0h7m59s) 
CPU  0 inst:   24000002 cyc:   11861507 now IPC :2.05441: AVG IPC :2.02281: L2-Pf-HR :0.79654: L2-HR :0.82682: (Sim:0h8m19s) 
CPU  0 inst:   25000005 cyc:   12357745 now IPC :2.01517: AVG IPC :2.02248: L2-Pf-HR :0.79579: L2-HR :0.82613: (Sim:0h8m40s) 
CPU  0 inst:   26000005 cyc:   12842853 now IPC :2.06140: AVG IPC :2.02407: L2-Pf-HR :0.79511: L2-HR :0.82554: (Sim:0h9m0s) 
CPU  0 inst:   27000004 cyc:   13321659 now IPC :2.08853: AVG IPC :2.02657: L2-Pf-HR :0.79444: L2-HR :0.82498: (Sim:0h9m20s) 
CPU  0 inst:   28000002 cyc:   13950455 now IPC :1.59034: AVG IPC :2.00542: L2-Pf-HR :0.79427: L2-HR :0.82385: (Sim:0h9m41s) 
CPU  0 inst:   29000001 cyc:   14492511 now IPC :1.84483: AVG IPC :1.99897: L2-Pf-HR :0.79330: L2-HR :0.82316: (Sim:0h10m3s) 
CPU  0 inst:   30000003 cyc:   14971978 now IPC :2.08565: AVG IPC :2.00194: L2-Pf-HR :0.79309: L2-HR :0.82311: (Sim:0h10m23s) 
CPU  0 inst:   31000005 cyc:   15443002 now IPC :2.12304: AVG IPC :2.00589: L2-Pf-HR :0.79273: L2-HR :0.82294: (Sim:0h10m43s) 
CPU  0 inst:   32000001 cyc:   15915676 now IPC :2.11561: AVG IPC :2.00936: L2-Pf-HR :0.79247: L2-HR :0.82292: (Sim:0h11m4s) 
CPU  0 inst:   33000002 cyc:   16380085 now IPC :2.15328: AVG IPC :2.01370: L2-Pf-HR :0.79218: L2-HR :0.82293: (Sim:0h11m25s) 
CPU  0 inst:   34000005 cyc:   16845195 now IPC :2.15004: AVG IPC :2.01770: L2-Pf-HR :0.79185: L2-HR :0.82295: (Sim:0h11m46s) 
CPU  0 inst:   35000005 cyc:   17300835 now IPC :2.19472: AVG IPC :2.02265: L2-Pf-HR :0.79161: L2-HR :0.82300: (Sim:0h12m6s) 
CPU  0 inst:   36000004 cyc:   17897996 now IPC :1.67459: AVG IPC :2.01036: L2-Pf-HR :0.79235: L2-HR :0.82308: (Sim:0h12m27s) 
CPU  0 inst:   37000001 cyc:   18365134 now IPC :2.14069: AVG IPC :2.01386: L2-Pf-HR :0.79420: L2-HR :0.82492: (Sim:0h12m48s) 
CPU  0 inst:   38000002 cyc:   18830508 now IPC :2.14881: AVG IPC :2.01738: L2-Pf-HR :0.79619: L2-HR :0.82691: (Sim:0h13m9s) 
CPU  0 inst:   39000001 cyc:   19304672 now IPC :2.10897: AVG IPC :2.01975: L2-Pf-HR :0.79810: L2-HR :0.82870: (Sim:0h13m29s) 
CPU  0 inst:   40000005 cyc:   19774814 now IPC :2.12703: AVG IPC :2.02243: L2-Pf-HR :0.80017: L2-HR :0.83062: (Sim:0h13m50s) 
CPU  0 inst:   41000000 cyc:   20515286 now IPC :1.35048: AVG IPC :1.99696: L2-Pf-HR :0.79911: L2-HR :0.82871: (Sim:0h14m12s) 
CPU  0 inst:   42000000 cyc:   21032928 now IPC :1.93184: AVG IPC :1.99528: L2-Pf-HR :0.79858: L2-HR :0.82819: (Sim:0h14m32s) 
CPU  0 inst:   43000001 cyc:   21535342 now IPC :1.99039: AVG IPC :1.99516: L2-Pf-HR :0.79809: L2-HR :0.82770: (Sim:0h14m52s) 
CPU  0 inst:   44000000 cyc:   22039014 now IPC :1.98542: AVG IPC :1.99492: L2-Pf-HR :0.79757: L2-HR :0.82725: (Sim:0h15m13s) 
CPU  0 inst:   45000002 cyc:   22532853 now IPC :2.02496: AVG IPC :1.99561: L2-Pf-HR :0.79718: L2-HR :0.82692: (Sim:0h15m33s) 
CPU  0 inst:   46000002 cyc:   23023986 now IPC :2.03611: AVG IPC :1.99651: L2-Pf-HR :0.79679: L2-HR :0.82656: (Sim:0h15m53s) 
CPU  0 inst:   47000001 cyc:   23512394 now IPC :2.04747: AVG IPC :1.99762: L2-Pf-HR :0.79643: L2-HR :0.82628: (Sim:0h16m14s) 
CPU  0 inst:   48000004 cyc:   24144784 now IPC :1.58131: AVG IPC :1.98625: L2-Pf-HR :0.79628: L2-HR :0.82557: (Sim:0h16m34s) 
CPU  0 inst:   49000005 cyc:   24686058 now IPC :1.84749: AVG IPC :1.98308: L2-Pf-HR :0.79565: L2-HR :0.82511: (Sim:0h16m56s) 
CPU  0 inst:   50000001 cyc:   25163022 now IPC :2.09659: AVG IPC :1.98532: L2-Pf-HR :0.79531: L2-HR :0.82492: (Sim:0h17m16s) 
CPU  0 inst:   51000001 cyc:   25638387 now IPC :2.10365: AVG IPC :1.98760: L2-Pf-HR :0.79496: L2-HR :0.82475: (Sim:0h17m36s) 
CPU  0 inst:   52000005 cyc:   26106363 now IPC :2.13687: AVG IPC :1.99038: L2-Pf-HR :0.79469: L2-HR :0.82471: (Sim:0h17m57s) 
CPU  0 inst:   53000001 cyc:   26574634 now IPC :2.13551: AVG IPC :1.99304: L2-Pf-HR :0.79446: L2-HR :0.82465: (Sim:0h18m18s) 
CPU  0 inst:   54000004 cyc:   27040158 now IPC :2.14812: AVG IPC :1.99581: L2-Pf-HR :0.79419: L2-HR :0.82452: (Sim:0h18m38s) 
CPU  0 inst:   55000002 cyc:   27494957 now IPC :2.19877: AVG IPC :1.99929: L2-Pf-HR :0.79402: L2-HR :0.82455: (Sim:0h18m57s) 
CPU  0 inst:   56000003 cyc:   28102671 now IPC :1.64551: AVG IPC :1.99136: L2-Pf-HR :0.79431: L2-HR :0.82450: (Sim:0h19m19s) 
CPU  0 inst:   57000004 cyc:   28574723 now IPC :2.11841: AVG IPC :1.99354: L2-Pf-HR :0.79552: L2-HR :0.82569: (Sim:0h19m40s) 
CPU  0 inst:   58000004 cyc:   29041166 now IPC :2.14388: AVG IPC :1.99604: L2-Pf-HR :0.79687: L2-HR :0.82699: (Sim:0h20m1s) 
CPU  0 inst:   59000004 cyc:   29509057 now IPC :2.13725: AVG IPC :1.99835: L2-Pf-HR :0.79822: L2-HR :0.82828: (Sim:0h20m22s) 
CPU  0 inst:   60000003 cyc:   29977569 now IPC :2.13441: AVG IPC :2.00055: L2-Pf-HR :0.79977: L2-HR :0.82968: (Sim:0h20m42s) 
CPU  0 inst:   61000000 cyc:   30698375 now IPC :1.38733: AVG IPC :1.98568: L2-Pf-HR :0.79909: L2-HR :0.82842: (Sim:0h21m4s) 
CPU  0 inst:   62000000 cyc:   31219846 now IPC :1.91765: AVG IPC :1.98450: L2-Pf-HR :0.79877: L2-HR :0.82807: (Sim:0h21m25s) 
CPU  0 inst:   63000003 cyc:   31717459 now IPC :2.00960: AVG IPC :1.98491: L2-Pf-HR :0.79843: L2-HR :0.82779: (Sim:0h21m45s) 
CPU  0 inst:   64000004 cyc:   32216488 now IPC :2.00389: AVG IPC :1.98521: L2-Pf-HR :0.79811: L2-HR :0.82751: (Sim:0h22m5s) 
CPU  0 inst:   65000000 cyc:   32708003 now IPC :2.03452: AVG IPC :1.98598: L2-Pf-HR :0.79783: L2-HR :0.82728: (Sim:0h22m26s) 
CPU  0 inst:   66000000 cyc:   33206557 now IPC :2.00580: AVG IPC :1.98628: L2-Pf-HR :0.79755: L2-HR :0.82703: (Sim:0h22m46s) 
CPU  0 inst:   67000005 cyc:   33699978 now IPC :2.02668: AVG IPC :1.98689: L2-Pf-HR :0.79733: L2-HR :0.82686: (Sim:0h23m6s) 
CPU  0 inst:   68000005 cyc:   34326881 now IPC :1.59514: AVG IPC :1.97953: L2-Pf-HR :0.79723: L2-HR :0.82643: (Sim:0h23m27s) 
CPU  0 inst:   69000003 cyc:   34866585 now IPC :1.85286: AVG IPC :1.97751: L2-Pf-HR :0.79687: L2-HR :0.82614: (Sim:0h23m49s) 
CPU  0 inst:   70000003 cyc:   35339139 now IPC :2.11616: AVG IPC :1.97942: L2-Pf-HR :0.79662: L2-HR :0.82603: (Sim:0h24m9s) 
CPU  0 inst:   71000002 cyc:   35804439 now IPC :2.14915: AVG IPC :1.98168: L2-Pf-HR :0.79642: L2-HR :0.82594: (Sim:0h24m29s) 
CPU  0 inst:   72000005 cyc:   36271239 now IPC :2.14225: AVG IPC :1.98381: L2-Pf-HR :0.79616: L2-HR :0.82587: (Sim:0h24m50s) 
CPU  0 inst:   73000005 cyc:   36734019 now IPC :2.16085: AVG IPC :1.98610: L2-Pf-HR :0.79593: L2-HR :0.82582: (Sim:0h25m11s) 
CPU  0 inst:   74000004 cyc:   37200401 now IPC :2.14416: AVG IPC :1.98814: L2-Pf-HR :0.79574: L2-HR :0.82575: (Sim:0h25m32s) 
CPU  0 inst:   75000004 cyc:   37659743 now IPC :2.17703: AVG IPC :1.99050: L2-Pf-HR :0.79563: L2-HR :0.82580: (Sim:0h25m52s) 
CPU  0 inst:   76000005 cyc:   38258339 now IPC :1.67058: AVG IPC :1.98536: L2-Pf-HR :0.79576: L2-HR :0.82573: (Sim:0h26m14s) 
CPU  0 inst:   77000004 cyc:   38728752 now IPC :2.12579: AVG IPC :1.98711: L2-Pf-HR :0.79653: L2-HR :0.82652: (Sim:0h26m35s) 
CPU  0 inst:   78000000 cyc:   39195306 now IPC :2.14337: AVG IPC :1.98902: L2-Pf-HR :0.79747: L2-HR :0.82743: (Sim:0h26m55s) 
CPU  0 inst:   79000000 cyc:   39661091 now IPC :2.14691: AVG IPC :1.99092: L2-Pf-HR :0.79838: L2-HR :0.82829: (Sim:0h27m16s) 
CPU  0 inst:   80000001 cyc:   40128040 now IPC :2.14156: AVG IPC :1.99272: L2-Pf-HR :0.79939: L2-HR :0.82924: (Sim:0h27m36s) 
CPU  0 inst:   81000003 cyc:   40854954 now IPC :1.37568: AVG IPC :1.98147: L2-Pf-HR :0.79876: L2-HR :0.82822: (Sim:0h27m58s) 
CPU  0 inst:   82000002 cyc:   41359337 now IPC :1.98262: AVG IPC :1.98148: L2-Pf-HR :0.79845: L2-HR :0.82796: (Sim:0h28m18s) 
CPU  0 inst:   83000003 cyc:   41853553 now IPC :2.02341: AVG IPC :1.98199: L2-Pf-HR :0.79816: L2-HR :0.82772: (Sim:0h28m39s) 
CPU  0 inst:   84000003 cyc:   42353575 now IPC :1.99991: AVG IPC :1.98221: L2-Pf-HR :0.79796: L2-HR :0.82754: (Sim:0h28m59s) 
CPU  0 inst:   85000002 cyc:   42846555 now IPC :2.02848: AVG IPC :1.98275: L2-Pf-HR :0.79776: L2-HR :0.82737: (Sim:0h29m19s) 
CPU  0 inst:   86000004 cyc:   43334944 now IPC :2.04755: AVG IPC :1.98350: L2-Pf-HR :0.79754: L2-HR :0.82720: (Sim:0h29m40s) 
CPU  0 inst:   87000003 cyc:   43820861 now IPC :2.05796: AVG IPC :1.98435: L2-Pf-HR :0.79730: L2-HR :0.82702: (Sim:0h30m0s) 
CPU  0 inst:   88000003 cyc:   44449017 now IPC :1.59196: AVG IPC :1.97867: L2-Pf-HR :0.79723: L2-HR :0.82663: (Sim:0h30m21s) 
CPU  0 inst:   89000001 cyc:   44990044 now IPC :1.84833: AVG IPC :1.97707: L2-Pf-HR :0.79691: L2-HR :0.82638: (Sim:0h30m42s) 
CPU  0 inst:   90000004 cyc:   45458793 now IPC :2.13334: AVG IPC :1.97872: L2-Pf-HR :0.79666: L2-HR :0.82624: (Sim:0h31m2s) 
CPU  0 inst:   91000001 cyc:   45924425 now IPC :2.14761: AVG IPC :1.98047: L2-Pf-HR :0.79650: L2-HR :0.82616: (Sim:0h31m22s) 
CPU  0 inst:   92000004 cyc:   46392964 now IPC :2.13430: AVG IPC :1.98206: L2-Pf-HR :0.79627: L2-HR :0.82607: (Sim:0h31m43s) 
CPU  0 inst:   93000005 cyc:   46861698 now IPC :2.13341: AVG IPC :1.98360: L2-Pf-HR :0.79614: L2-HR :0.82603: (Sim:0h32m4s) 
CPU  0 inst:   94000001 cyc:   47327731 now IPC :2.14576: AVG IPC :1.98523: L2-Pf-HR :0.79595: L2-HR :0.82593: (Sim:0h32m24s) 
CPU  0 inst:   95000000 cyc:   47783687 now IPC :2.19319: AVG IPC :1.98726: L2-Pf-HR :0.79582: L2-HR :0.82591: (Sim:0h32m44s) 
CPU  0 inst:   96000005 cyc:   48381679 now IPC :1.67227: AVG IPC :1.98329: L2-Pf-HR :0.79600: L2-HR :0.82591: (Sim:0h33m6s) 
CPU  0 inst:   97000000 cyc:   48854415 now IPC :2.11533: AVG IPC :1.98459: L2-Pf-HR :0.79663: L2-HR :0.82654: (Sim:0h33m27s) 
CPU  0 inst:   98000003 cyc:   49323566 now IPC :2.13152: AVG IPC :1.98602: L2-Pf-HR :0.79734: L2-HR :0.82722: (Sim:0h33m48s) 
CPU  0 inst:   99000001 cyc:   49799668 now IPC :2.10039: AVG IPC :1.98713: L2-Pf-HR :0.79809: L2-HR :0.82793: (Sim:0h34m8s) 
CPU  0 inst:  100000005 cyc:   50270401 now IPC :2.12436: AVG IPC :1.98844: L2-Pf-HR :0.79882: L2-HR :0.82862: (Sim:0h34m28s) 
CPU  0 inst:  101000004 cyc:   50983412 now IPC :1.40250: AVG IPC :1.98009: L2-Pf-HR :0.79835: L2-HR :0.82783: (Sim:0h34m50s) 
CPU  0 inst:  102000002 cyc:   51487765 now IPC :1.98273: AVG IPC :1.98011: L2-Pf-HR :0.79811: L2-HR :0.82763: (Sim:0h35m10s) 
CPU  0 inst:  103000002 cyc:   51987867 now IPC :1.99959: AVG IPC :1.98030: L2-Pf-HR :0.79790: L2-HR :0.82743: (Sim:0h35m31s) 
CPU  0 inst:  104000003 cyc:   52480698 now IPC :2.02910: AVG IPC :1.98077: L2-Pf-HR :0.79767: L2-HR :0.82724: (Sim:0h35m51s) 
CPU  0 inst:  105000002 cyc:   52971230 now IPC :2.03860: AVG IPC :1.98132: L2-Pf-HR :0.79755: L2-HR :0.82712: (Sim:0h36m11s) 
CPU  0 inst:  106000005 cyc:   53462170 now IPC :2.03691: AVG IPC :1.98184: L2-Pf-HR :0.79740: L2-HR :0.82701: (Sim:0h36m32s) 
CPU  0 inst:  107000000 cyc:   53947115 now IPC :2.06208: AVG IPC :1.98257: L2-Pf-HR :0.79723: L2-HR :0.82687: (Sim:0h36m52s) 
CPU  0 inst:  108000000 cyc:   54583359 now IPC :1.57172: AVG IPC :1.97769: L2-Pf-HR :0.79718: L2-HR :0.82655: (Sim:0h37m13s) 
CPU  0 inst:  109000000 cyc:   55132689 now IPC :1.82040: AVG IPC :1.97610: L2-Pf-HR :0.79694: L2-HR :0.82636: (Sim:0h37m34s) 
CPU  0 inst:  110000001 cyc:   55609374 now IPC :2.09782: AVG IPC :1.97716: L2-Pf-HR :0.79671: L2-HR :0.82626: (Sim:0h37m55s) 
CPU  0 inst:  111000000 cyc:   56079651 now IPC :2.12640: AVG IPC :1.97843: L2-Pf-HR :0.79659: L2-HR :0.82620: (Sim:0h38m16s) 
CPU  0 inst:  112000001 cyc:   56549404 now IPC :2.12878: AVG IPC :1.97970: L2-Pf-HR :0.79645: L2-HR :0.82614: (Sim:0h38m36s) 
CPU  0 inst:  113000004 cyc:   57019832 now IPC :2.12573: AVG IPC :1.98093: L2-Pf-HR :0.79631: L2-HR :0.82609: (Sim:0h38m56s) 
CPU  0 inst:  114000000 cyc:   57482352 now IPC :2.16206: AVG IPC :1.98241: L2-Pf-HR :0.79620: L2-HR :0.82607: (Sim:0h39m16s) 
CPU  0 inst:  115000004 cyc:   57943214 now IPC :2.16986: AVG IPC :1.98393: L2-Pf-HR :0.79616: L2-HR :0.82612: (Sim:0h39m36s) 
CPU  0 inst:  116000004 cyc:   58539051 now IPC :1.67831: AVG IPC :1.98077: L2-Pf-HR :0.79630: L2-HR :0.82609: (Sim:0h39m58s) 
CPU  0 inst:  117000005 cyc:   59012740 now IPC :2.11109: AVG IPC :1.98183: L2-Pf-HR :0.79685: L2-HR :0.82664: (Sim:0h40m19s) 
CPU  0 inst:  118000000 cyc:   59480665 now IPC :2.13708: AVG IPC :1.98307: L2-Pf-HR :0.79745: L2-HR :0.82723: (Sim:0h40m40s) 
CPU  0 inst:  119000003 cyc:   59955797 now IPC :2.10468: AVG IPC :1.98405: L2-Pf-HR :0.79810: L2-HR :0.82783: (Sim:0h41m0s) 
CPU  0 inst:  120000000 cyc:   60425202 now IPC :2.13035: AVG IPC :1.98521: L2-Pf-HR :0.79882: L2-HR :0.82850: (Sim:0h41m20s) 
CPU  0 inst:  121000001 cyc:   61143866 now IPC :1.39147: AVG IPC :1.97811: L2-Pf-HR :0.79846: L2-HR :0.82784: (Sim:0h41m41s) 
CPU  0 inst:  122000004 cyc:   61650327 now IPC :1.97449: AVG IPC :1.97808: L2-Pf-HR :0.79828: L2-HR :0.82768: (Sim:0h42m1s) 
CPU  0 inst:  123000003 cyc:   62155433 now IPC :1.97978: AVG IPC :1.97810: L2-Pf-HR :0.79815: L2-HR :0.82755: (Sim:0h42m21s) 
CPU  0 inst:  124000005 cyc:   62659179 now IPC :1.98513: AVG IPC :1.97816: L2-Pf-HR :0.79799: L2-HR :0.82741: (Sim:0h42m41s) 
CPU  0 inst:  125000001 cyc:   63151487 now IPC :2.03124: AVG IPC :1.97858: L2-Pf-HR :0.79787: L2-HR :0.82730: (Sim:0h43m1s) 
CPU  0 inst:  126000003 cyc:   63641561 now IPC :2.04051: AVG IPC :1.97906: L2-Pf-HR :0.79773: L2-HR :0.82719: (Sim:0h43m21s) 
CPU  0 inst:  127000002 cyc:   64129877 now IPC :2.04785: AVG IPC :1.97959: L2-Pf-HR :0.79758: L2-HR :0.82708: (Sim:0h43m41s) 
CPU  0 inst:  128000004 cyc:   64762808 now IPC :1.57995: AVG IPC :1.97563: L2-Pf-HR :0.79749: L2-HR :0.82678: (Sim:0h44m2s) 
CPU  0 inst:  129000001 cyc:   65316146 now IPC :1.80721: AVG IPC :1.97418: L2-Pf-HR :0.79728: L2-HR :0.82662: (Sim:0h44m23s) 
CPU  0 inst:  130000002 cyc:   65799638 now IPC :2.06829: AVG IPC :1.97488: L2-Pf-HR :0.79712: L2-HR :0.82653: (Sim:0h44m44s) 
CPU  0 inst:  131000002 cyc:   66268976 now IPC :2.13066: AVG IPC :1.97600: L2-Pf-HR :0.79701: L2-HR :0.82645: (Sim:0h45m4s) 
CPU  0 inst:  132000000 cyc:   66739376 now IPC :2.12585: AVG IPC :1.97707: L2-Pf-HR :0.79691: L2-HR :0.82644: (Sim:0h45m18s) 
CPU  0 inst:  133000004 cyc:   67209804 now IPC :2.12573: AVG IPC :1.97813: L2-Pf-HR :0.79680: L2-HR :0.82640: (Sim:0h45m28s) 
CPU  0 inst:  134000001 cyc:   67675647 now IPC :2.14664: AVG IPC :1.97930: L2-Pf-HR :0.79664: L2-HR :0.82633: (Sim:0h45m38s) 
CPU  0 inst:  135000001 cyc:   68132396 now IPC :2.18939: AVG IPC :1.98073: L2-Pf-HR :0.79661: L2-HR :0.82639: (Sim:0h45m49s) 
CPU  0 inst:  136000005 cyc:   68742377 now IPC :1.63940: AVG IPC :1.97766: L2-Pf-HR :0.79666: L2-HR :0.82635: (Sim:0h46m0s) 
CPU  0 inst:  137000003 cyc:   69214529 now IPC :2.11796: AVG IPC :1.97863: L2-Pf-HR :0.79711: L2-HR :0.82680: (Sim:0h46m10s) 
CPU  0 inst:  138000003 cyc:   69684120 now IPC :2.12951: AVG IPC :1.97966: L2-Pf-HR :0.79764: L2-HR :0.82730: (Sim:0h46m20s) 
CPU  0 inst:  139000001 cyc:   70151856 now IPC :2.13795: AVG IPC :1.98073: L2-Pf-HR :0.79821: L2-HR :0.82783: (Sim:0h46m30s) 
CPU  0 inst:  140000001 cyc:   70614784 now IPC :2.16016: AVG IPC :1.98193: L2-Pf-HR :0.79885: L2-HR :0.82842: (Sim:0h46m39s) 
CPU  0 inst:  141000000 cyc:   71345907 now IPC :1.36776: AVG IPC :1.97554: L2-Pf-HR :0.79849: L2-HR :0.82783: (Sim:0h46m50s) 
CPU  0 inst:  142000005 cyc:   71860060 now IPC :1.94496: AVG IPC :1.97532: L2-Pf-HR :0.79832: L2-HR :0.82768: (Sim:0h47m6s) 
CPU  0 inst:  143000000 cyc:   72360566 now IPC :1.99797: AVG IPC :1.97548: L2-Pf-HR :0.79820: L2-HR :0.82756: (Sim:0h47m27s) 
CPU  0 inst:  144000000 cyc:   72870549 now IPC :1.96085: AVG IPC :1.97538: L2-Pf-HR :0.79805: L2-HR :0.82743: (Sim:0h47m47s) 
CPU  0 inst:  145000001 cyc:   73365830 now IPC :2.01906: AVG IPC :1.97568: L2-Pf-HR :0.79792: L2-HR :0.82731: (Sim:0h48m8s) 
CPU  0 inst:  146000004 cyc:   73863716 now IPC :2.00850: AVG IPC :1.97590: L2-Pf-HR :0.79784: L2-HR :0.82723: (Sim:0h48m28s) 
CPU  0 inst:  147000005 cyc:   74354369 now IPC :2.03810: AVG IPC :1.97632: L2-Pf-HR :0.79770: L2-HR :0.82713: (Sim:0h48m48s) 
CPU  0 inst:  148000000 cyc:   74990089 now IPC :1.57301: AVG IPC :1.97285: L2-Pf-HR :0.79763: L2-HR :0.82690: (Sim:0h49m9s) 
CPU  0 inst:  149000001 cyc:   75527811 now IPC :1.85970: AVG IPC :1.97204: L2-Pf-HR :0.79743: L2-HR :0.82676: (Sim:0h49m31s) 
CPU  0 inst:  150000000 cyc:   76003002 now IPC :2.10441: AVG IPC :1.97287: L2-Pf-HR :0.79732: L2-HR :0.82671: (Sim:0h49m52s) 
CPU  0 inst:  151000000 cyc:   76470043 now IPC :2.14114: AVG IPC :1.97392: L2-Pf-HR :0.79725: L2-HR :0.82667: (Sim:0h50m12s) 
CPU  0 inst:  152000003 cyc:   76942513 now IPC :2.11654: AVG IPC :1.97480: L2-Pf-HR :0.79713: L2-HR :0.82662: (Sim:0h50m32s) 
CPU  0 inst:  153000002 cyc:   77406818 now IPC :2.15375: AVG IPC :1.97589: L2-Pf-HR :0.79701: L2-HR :0.82659: (Sim:0h50m53s) 
CPU  0 inst:  154000005 cyc:   77874188 now IPC :2.13964: AVG IPC :1.97689: L2-Pf-HR :0.79691: L2-HR :0.82655: (Sim:0h51m14s) 
CPU  0 inst:  155000001 cyc:   78331357 now IPC :2.18737: AVG IPC :1.97813: L2-Pf-HR :0.79689: L2-HR :0.82659: (Sim:0h51m35s) 
CPU  0 inst:  156000003 cyc:   78917155 now IPC :1.70708: AVG IPC :1.97609: L2-Pf-HR :0.79698: L2-HR :0.82656: (Sim:0h51m56s) 
CPU  0 inst:  157000001 cyc:   79385174 now IPC :2.13666: AVG IPC :1.97705: L2-Pf-HR :0.79739: L2-HR :0.82698: (Sim:0h52m17s) 
CPU  0 inst:  158000000 cyc:   79857193 now IPC :2.11856: AVG IPC :1.97790: L2-Pf-HR :0.79786: L2-HR :0.82743: (Sim:0h52m38s) 
CPU  0 inst:  159000005 cyc:   80322176 now IPC :2.15063: AVG IPC :1.97891: L2-Pf-HR :0.79829: L2-HR :0.82785: (Sim:0h52m58s) 
CPU  0 inst:  160000002 cyc:   80786383 now IPC :2.15420: AVG IPC :1.97993: L2-Pf-HR :0.79883: L2-HR :0.82835: (Sim:0h53m19s) 
CPU  0 inst:  161000001 cyc:   81500602 now IPC :1.40013: AVG IPC :1.97479: L2-Pf-HR :0.79848: L2-HR :0.82783: (Sim:0h53m41s) 
CPU  0 inst:  162000002 cyc:   82001094 now IPC :1.99804: AVG IPC :1.97493: L2-Pf-HR :0.79833: L2-HR :0.82770: (Sim:0h54m1s) 
CPU  0 inst:  163000002 cyc:   82498530 now IPC :2.01031: AVG IPC :1.97515: L2-Pf-HR :0.79821: L2-HR :0.82759: (Sim:0h54m22s) 
CPU  0 inst:  164000003 cyc:   83003101 now IPC :1.98188: AVG IPC :1.97519: L2-Pf-HR :0.79808: L2-HR :0.82748: (Sim:0h54m42s) 
CPU  0 inst:  165000000 cyc:   83498825 now IPC :2.01725: AVG IPC :1.97544: L2-Pf-HR :0.79795: L2-HR :0.82736: (Sim:0h55m3s) 
CPU  0 inst:  166000004 cyc:   83987223 now IPC :2.04752: AVG IPC :1.97586: L2-Pf-HR :0.79786: L2-HR :0.82729: (Sim:0h55m23s) 
CPU  0 inst:  167000001 cyc:   84475089 now IPC :2.04974: AVG IPC :1.97630: L2-Pf-HR :0.79778: L2-HR :0.82722: (Sim:0h55m43s) 
CPU  0 inst:  168000001 cyc:   85115218 now IPC :1.56219: AVG IPC :1.97315: L2-Pf-HR :0.79769: L2-HR :0.82701: (Sim:0h56m5s) 
CPU  0 inst:  169000000 cyc:   85658141 now IPC :1.84188: AVG IPC :1.97230: L2-Pf-HR :0.79750: L2-HR :0.82687: (Sim:0h56m26s) 
CPU  0 inst:  170000002 cyc:   86130260 now IPC :2.11811: AVG IPC :1.97311: L2-Pf-HR :0.79740: L2-HR :0.82682: (Sim:0h56m46s) 
CPU  0 inst:  171000001 cyc:   86599401 now IPC :2.13155: AVG IPC :1.97398: L2-Pf-HR :0.79728: L2-HR :0.82676: (Sim:0h57m6s) 
CPU  0 inst:  172000002 cyc:   87069102 now IPC :2.12902: AVG IPC :1.97483: L2-Pf-HR :0.79719: L2-HR :0.82672: (Sim:0h57m26s) 
CPU  0 inst:  173000001 cyc:   87529488 now IPC :2.17209: AVG IPC :1.97588: L2-Pf-HR :0.79711: L2-HR :0.82672: (Sim:0h57m48s) 
CPU  0 inst:  174000002 cyc:   87996067 now IPC :2.14326: AVG IPC :1.97677: L2-Pf-HR :0.79704: L2-HR :0.82671: (Sim:0h58m8s) 
CPU  0 inst:  175000004 cyc:   88457873 now IPC :2.16542: AVG IPC :1.97777: L2-Pf-HR :0.79701: L2-HR :0.82674: (Sim:0h58m29s) 
CPU  0 inst:  176000002 cyc:   89052107 now IPC :1.68284: AVG IPC :1.97578: L2-Pf-HR :0.79705: L2-HR :0.82670: (Sim:0h58m51s) 
CPU  0 inst:  177000001 cyc:   89524475 now IPC :2.11699: AVG IPC :1.97653: L2-Pf-HR :0.79735: L2-HR :0.82702: (Sim:0h59m12s) 
CPU  0 inst:  178000002 cyc:   89994905 now IPC :2.12572: AVG IPC :1.97732: L2-Pf-HR :0.79777: L2-HR :0.82742: (Sim:0h59m33s) 
CPU  0 inst:  179000005 cyc:   90460330 now IPC :2.14858: AVG IPC :1.97821: L2-Pf-HR :0.79816: L2-HR :0.82780: (Sim:0h59m53s) 
CPU  0 inst:  180000004 cyc:   90928477 now IPC :2.13608: AVG IPC :1.97903: L2-Pf-HR :0.79867: L2-HR :0.82825: (Sim:1h0m13s) 
CPU  0 inst:  181000002 cyc:   91641436 now IPC :1.40260: AVG IPC :1.97450: L2-Pf-HR :0.79834: L2-HR :0.82778: (Sim:1h0m35s) 
CPU  0 inst:  182000004 cyc:   92141948 now IPC :1.99796: AVG IPC :1.97463: L2-Pf-HR :0.79821: L2-HR :0.82766: (Sim:1h0m56s) 
CPU  0 inst:  183000000 cyc:   92650175 now IPC :1.96762: AVG IPC :1.97459: L2-Pf-HR :0.79809: L2-HR :0.82755: (Sim:1h1m16s) 
CPU  0 inst:  184000002 cyc:   93151475 now IPC :1.99482: AVG IPC :1.97470: L2-Pf-HR :0.79798: L2-HR :0.82745: (Sim:1h1m36s) 
CPU  0 inst:  185000005 cyc:   93646231 now IPC :2.02120: AVG IPC :1.97495: L2-Pf-HR :0.79784: L2-HR :0.82734: (Sim:1h1m57s) 
CPU  0 inst:  186000003 cyc:   94136132 now IPC :2.04122: AVG IPC :1.97530: L2-Pf-HR :0.79775: L2-HR :0.82727: (Sim:1h2m17s) 
CPU  0 inst:  187000001 cyc:   94619529 now IPC :2.06869: AVG IPC :1.97578: L2-Pf-HR :0.79767: L2-HR :0.82720: (Sim:1h2m37s) 
CPU  0 inst:  188000005 cyc:   95253094 now IPC :1.57838: AVG IPC :1.97311: L2-Pf-HR :0.79760: L2-HR :0.82701: (Sim:1h2m58s) 
CPU  0 inst:  189000001 cyc:   95784130 now IPC :1.88310: AVG IPC :1.97260: L2-Pf-HR :0.79745: L2-HR :0.82691: (Sim:1h3m20s) 
CPU  0 inst:  190000005 cyc:   96261605 now IPC :2.09436: AVG IPC :1.97321: L2-Pf-HR :0.79738: L2-HR :0.82687: (Sim:1h3m40s) 
CPU  0 inst:  191000003 cyc:   96732027 now IPC :2.12575: AVG IPC :1.97396: L2-Pf-HR :0.79729: L2-HR :0.82682: (Sim:1h3m59s) 
CPU  0 inst:  192000000 cyc:   97200123 now IPC :2.13631: AVG IPC :1.97475: L2-Pf-HR :0.79719: L2-HR :0.82678: (Sim:1h4m20s) 
CPU  0 inst:  193000003 cyc:   97668728 now IPC :2.13400: AVG IPC :1.97553: L2-Pf-HR :0.79710: L2-HR :0.82675: (Sim:1h4m41s) 
CPU  0 inst:  194000002 cyc:   98139944 now IPC :2.12217: AVG IPC :1.97624: L2-Pf-HR :0.79704: L2-HR :0.82672: (Sim:1h5m1s) 
CPU  0 inst:  195000005 cyc:   98598584 now IPC :2.18037: AVG IPC :1.97720: L2-Pf-HR :0.79702: L2-HR :0.82675: (Sim:1h5m21s) 
CPU  0 inst:  196000004 cyc:   99193803 now IPC :1.68005: AVG IPC :1.97539: L2-Pf-HR :0.79706: L2-HR :0.82672: (Sim:1h5m43s) 
CPU  0 inst:  197000000 cyc:   99665927 now IPC :2.11808: AVG IPC :1.97608: L2-Pf-HR :0.79737: L2-HR :0.82704: (Sim:1h6m4s) 
CPU  0 inst:  198000000 cyc:  100139300 now IPC :2.11250: AVG IPC :1.97673: L2-Pf-HR :0.79773: L2-HR :0.82738: (Sim:1h6m19s) 
CPU  0 inst:  199000001 cyc:  100610083 now IPC :2.12412: AVG IPC :1.97742: L2-Pf-HR :0.79808: L2-HR :0.82772: (Sim:1h6m29s) 
CPU  0 inst:  200000002 cyc:  101073759 now IPC :2.15668: AVG IPC :1.97826: L2-Pf-HR :0.79853: L2-HR :0.82813: (Sim:1h6m39s) 
CPU  0 inst:  201000000 cyc:  101783472 now IPC :1.40902: AVG IPC :1.97425: L2-Pf-HR :0.79827: L2-HR :0.82772: (Sim:1h6m49s) 
CPU  0 inst:  202000004 cyc:  102299502 now IPC :1.93788: AVG IPC :1.97406: L2-Pf-HR :0.79814: L2-HR :0.82760: (Sim:1h6m59s) 
CPU  0 inst:  203000001 cyc:  102796204 now IPC :2.01327: AVG IPC :1.97425: L2-Pf-HR :0.79807: L2-HR :0.82754: (Sim:1h7m8s) 
CPU  0 inst:  204000002 cyc:  103292400 now IPC :2.01533: AVG IPC :1.97445: L2-Pf-HR :0.79797: L2-HR :0.82745: (Sim:1h7m18s) 
CPU  0 inst:  205000002 cyc:  103787683 now IPC :2.01905: AVG IPC :1.97467: L2-Pf-HR :0.79787: L2-HR :0.82735: (Sim:1h7m27s) 
CPU  0 inst:  206000003 cyc:  104267870 now IPC :2.08252: AVG IPC :1.97517: L2-Pf-HR :0.79778: L2-HR :0.82730: (Sim:1h7m42s) 
CPU  0 inst:  207000000 cyc:  104756649 now IPC :2.04591: AVG IPC :1.97550: L2-Pf-HR :0.79771: L2-HR :0.82724: (Sim:1h8m2s) 
CPU  0 inst:  208000001 cyc:  105388520 now IPC :1.58260: AVG IPC :1.97312: L2-Pf-HR :0.79765: L2-HR :0.82707: (Sim:1h8m24s) 
CPU  0 inst:  209000002 cyc:  105915166 now IPC :1.89881: AVG IPC :1.97275: L2-Pf-HR :0.79753: L2-HR :0.82697: (Sim:1h8m45s) 
CPU  0 inst:  210000000 cyc:  106378101 now IPC :2.16013: AVG IPC :1.97357: L2-Pf-HR :0.79747: L2-HR :0.82695: (Sim:1h9m5s) 
CPU  0 inst:  211000002 cyc:  106848844 now IPC :2.12431: AVG IPC :1.97424: L2-Pf-HR :0.79739: L2-HR :0.82692: (Sim:1h9m26s) 
CPU  0 inst:  212000001 cyc:  107314298 now IPC :2.14844: AVG IPC :1.97501: L2-Pf-HR :0.79730: L2-HR :0.82688: (Sim:1h9m48s) 
CPU  0 inst:  213000004 cyc:  107779239 now IPC :2.15082: AVG IPC :1.97577: L2-Pf-HR :0.79721: L2-HR :0.82685: (Sim:1h10m9s) 
CPU  0 inst:  214000004 cyc:  108245091 now IPC :2.14660: AVG IPC :1.97651: L2-Pf-HR :0.79714: L2-HR :0.82682: (Sim:1h10m29s) 
CPU  0 inst:  215000005 cyc:  108704549 now IPC :2.17648: AVG IPC :1.97737: L2-Pf-HR :0.79712: L2-HR :0.82685: (Sim:1h10m49s) 
CPU  0 inst:  216000001 cyc:  109310518 now IPC :1.65024: AVG IPC :1.97554: L2-Pf-HR :0.79716: L2-HR :0.82681: (Sim:1h11m7s) 
CPU  0 inst:  217000002 cyc:  109782382 now IPC :2.11926: AVG IPC :1.97616: L2-Pf-HR :0.79741: L2-HR :0.82707: (Sim:1h11m17s) 
CPU  0 inst:  218000001 cyc:  110254228 now IPC :2.11933: AVG IPC :1.97678: L2-Pf-HR :0.79774: L2-HR :0.82739: (Sim:1h11m27s) 
CPU  0 inst:  219000002 cyc:  110719469 now IPC :2.14943: AVG IPC :1.97751: L2-Pf-HR :0.79805: L2-HR :0.82769: (Sim:1h11m37s) 
CPU  0 inst:  220000000 cyc:  111185795 now IPC :2.14442: AVG IPC :1.97822: L2-Pf-HR :0.79847: L2-HR :0.82806: (Sim:1h11m47s) 
CPU  0 inst:  221000003 cyc:  111897065 now IPC :1.40594: AVG IPC :1.97455: L2-Pf-HR :0.79823: L2-HR :0.82767: (Sim:1h11m57s) 
CPU  0 inst:  222000003 cyc:  112412398 now IPC :1.94049: AVG IPC :1.97439: L2-Pf-HR :0.79813: L2-HR :0.82758: (Sim:1h12m7s) 
CPU  0 inst:  223000005 cyc:  112910509 now IPC :2.00759: AVG IPC :1.97454: L2-Pf-HR :0.79807: L2-HR :0.82753: (Sim:1h12m17s) 
CPU  0 inst:  224000001 cyc:  113412332 now IPC :1.99273: AVG IPC :1.97462: L2-Pf-HR :0.79797: L2-HR :0.82743: (Sim:1h12m26s) 
CPU  0 inst:  225000005 cyc:  113911758 now IPC :2.00231: AVG IPC :1.97474: L2-Pf-HR :0.79788: L2-HR :0.82735: (Sim:1h12m36s) 
CPU  0 inst:  226000001 cyc:  114396369 now IPC :2.06350: AVG IPC :1.97512: L2-Pf-HR :0.79781: L2-HR :0.82731: (Sim:1h12m45s) 
CPU  0 inst:  227000004 cyc:  114887139 now IPC :2.03762: AVG IPC :1.97539: L2-Pf-HR :0.79774: L2-HR :0.82725: (Sim:1h12m55s) 
CPU  0 inst:  228000001 cyc:  115525658 now IPC :1.56612: AVG IPC :1.97311: L2-Pf-HR :0.79768: L2-HR :0.82708: (Sim:1h13m5s) 
CPU  0 inst:  229000001 cyc:  116063141 now IPC :1.86052: AVG IPC :1.97258: L2-Pf-HR :0.79756: L2-HR :0.82699: (Sim:1h13m16s) 
CPU  0 inst:  230000000 cyc:  116541323 now IPC :2.09125: AVG IPC :1.97307: L2-Pf-HR :0.79747: L2-HR :0.82695: (Sim:1h13m25s) 
CPU  0 inst:  231000004 cyc:  117013198 now IPC :2.11921: AVG IPC :1.97367: L2-Pf-HR :0.79741: L2-HR :0.82691: (Sim:1h13m35s) 
CPU  0 inst:  232000000 cyc:  117481757 now IPC :2.13419: AVG IPC :1.97431: L2-Pf-HR :0.79733: L2-HR :0.82688: (Sim:1h13m45s) 
CPU  0 inst:  233000005 cyc:  117947221 now IPC :2.14840: AVG IPC :1.97501: L2-Pf-HR :0.79726: L2-HR :0.82685: (Sim:1h13m55s) 
CPU  0 inst:  234000005 cyc:  118414494 now IPC :2.14008: AVG IPC :1.97566: L2-Pf-HR :0.79720: L2-HR :0.82681: (Sim:1h14m5s) 
CPU  0 inst:  235000000 cyc:  118873128 now IPC :2.18038: AVG IPC :1.97646: L2-Pf-HR :0.79719: L2-HR :0.82684: (Sim:1h14m14s) 
CPU  0 inst:  236000001 cyc:  119470886 now IPC :1.67292: AVG IPC :1.97493: L2-Pf-HR :0.79722: L2-HR :0.82679: (Sim:1h14m25s) 
CPU  0 inst:  237000000 cyc:  119940471 now IPC :2.12954: AVG IPC :1.97554: L2-Pf-HR :0.79744: L2-HR :0.82703: (Sim:1h14m34s) 
CPU  0 inst:  238000000 cyc:  120412184 now IPC :2.11993: AVG IPC :1.97611: L2-Pf-HR :0.79772: L2-HR :0.82731: (Sim:1h14m44s) 
CPU  0 inst:  239000005 cyc:  120888456 now IPC :2.09965: AVG IPC :1.97660: L2-Pf-HR :0.79800: L2-HR :0.82757: (Sim:1h14m54s) 
CPU  0 inst:  240000000 cyc:  121359767 now IPC :2.12173: AVG IPC :1.97717: L2-Pf-HR :0.79833: L2-HR :0.82788: (Sim:1h15m4s) 
CPU  0 inst:  241000002 cyc:  122056421 now IPC :1.43544: AVG IPC :1.97405: L2-Pf-HR :0.79808: L2-HR :0.82752: (Sim:1h15m15s) 
CPU  0 inst:  242000004 cyc:  122566456 now IPC :1.96065: AVG IPC :1.97399: L2-Pf-HR :0.79799: L2-HR :0.82744: (Sim:1h15m24s) 
CPU  0 inst:  243000000 cyc:  123059948 now IPC :2.02637: AVG IPC :1.97421: L2-Pf-HR :0.79791: L2-HR :0.82738: (Sim:1h15m34s) 
CPU  0 inst:  244000002 cyc:  123556602 now IPC :2.01348: AVG IPC :1.97437: L2-Pf-HR :0.79785: L2-HR :0.82731: (Sim:1h15m44s) 
CPU  0 inst:  245000001 cyc:  124052976 now IPC :2.01461: AVG IPC :1.97453: L2-Pf-HR :0.79777: L2-HR :0.82724: (Sim:1h15m53s) 
CPU  0 inst:  246000003 cyc:  124539025 now IPC :2.05741: AVG IPC :1.97485: L2-Pf-HR :0.79772: L2-HR :0.82719: (Sim:1h16m3s) 
CPU  0 inst:  247000004 cyc:  125025229 now IPC :2.05675: AVG IPC :1.97517: L2-Pf-HR :0.79767: L2-HR :0.82715: (Sim:1h16m12s) 
CPU  0 inst:  248000003 cyc:  125662918 now IPC :1.56816: AVG IPC :1.97309: L2-Pf-HR :0.79761: L2-HR :0.82698: (Sim:1h16m23s) 
CPU  0 inst:  249000003 cyc:  126198115 now IPC :1.86847: AVG IPC :1.97265: L2-Pf-HR :0.79751: L2-HR :0.82690: (Sim:1h16m33s) 
CPU  0 inst:  250000000 cyc:  126669993 now IPC :2.11919: AVG IPC :1.97320: L2-Pf-HR :0.79745: L2-HR :0.82689: (Sim:1h16m43s) 
CPU  0 inst:  251000002 cyc:  127138096 now IPC :2.13629: AVG IPC :1.97380: L2-Pf-HR :0.79740: L2-HR :0.82687: (Sim:1h16m52s) 
CPU  0 inst:  252000001 cyc:  127608043 now IPC :2.12790: AVG IPC :1.97437: L2-Pf-HR :0.79732: L2-HR :0.82683: (Sim:1h17m3s) 
CPU  0 inst:  253000003 cyc:  128074440 now IPC :2.14410: AVG IPC :1.97500: L2-Pf-HR :0.79727: L2-HR :0.82682: (Sim:1h17m13s) 
CPU  0 inst:  254000000 cyc:  128537085 now IPC :2.16148: AVG IPC :1.97567: L2-Pf-HR :0.79720: L2-HR :0.82679: (Sim:1h17m23s) 
CPU  0 inst:  255000000 cyc:  128999447 now IPC :2.16281: AVG IPC :1.97635: L2-Pf-HR :0.79720: L2-HR :0.82682: (Sim:1h17m32s) 
CPU  0 inst:  256000000 cyc:  129596062 now IPC :1.67612: AVG IPC :1.97496: L2-Pf-HR :0.79723: L2-HR :0.82680: (Sim:1h17m43s) 
CPU  0 inst:  257000002 cyc:  130061922 now IPC :2.14657: AVG IPC :1.97557: L2-Pf-HR :0.79749: L2-HR :0.82706: (Sim:1h17m53s) 
CPU  0 inst:  258000002 cyc:  130528854 now IPC :2.14164: AVG IPC :1.97617: L2-Pf-HR :0.79776: L2-HR :0.82732: (Sim:1h18m3s) 
CPU  0 inst:  259000005 cyc:  130996604 now IPC :2.13790: AVG IPC :1.97676: L2-Pf-HR :0.79803: L2-HR :0.82757: (Sim:1h18m13s) 
CPU  0 inst:  260000002 cyc:  131479351 now IPC :2.07147: AVG IPC :1.97711: L2-Pf-HR :0.79836: L2-HR :0.82786: (Sim:1h18m23s) 
CPU  0 inst:  261000001 cyc:  132182703 now IPC :1.42176: AVG IPC :1.97413: L2-Pf-HR :0.79814: L2-HR :0.82755: (Sim:1h18m33s) 
CPU  0 inst:  262000005 cyc:  132690669 now IPC :1.96864: AVG IPC :1.97411: L2-Pf-HR :0.79806: L2-HR :0.82747: (Sim:1h18m43s) 
CPU  0 inst:  263000005 cyc:  133183934 now IPC :2.02731: AVG IPC :1.97431: L2-Pf-HR :0.79799: L2-HR :0.82741: (Sim:1h18m52s) 
CPU  0 inst:  264000004 cyc:  133677966 now IPC :2.02416: AVG IPC :1.97449: L2-Pf-HR :0.79792: L2-HR :0.82735: (Sim:1h19m2s) 
CPU  0 inst:  265000002 cyc:  134173788 now IPC :2.01685: AVG IPC :1.97465: L2-Pf-HR :0.79783: L2-HR :0.82728: (Sim:1h19m12s) 
CPU  0 inst:  266000004 cyc:  134653841 now IPC :2.08311: AVG IPC :1.97504: L2-Pf-HR :0.79778: L2-HR :0.82724: (Sim:1h19m22s) 
CPU  0 inst:  267000000 cyc:  135133366 now IPC :2.08539: AVG IPC :1.97543: L2-Pf-HR :0.79772: L2-HR :0.82720: (Sim:1h19m31s) 
CPU  0 inst:  268000000 cyc:  135776654 now IPC :1.55451: AVG IPC :1.97342: L2-Pf-HR :0.79766: L2-HR :0.82705: (Sim:1h19m43s) 
CPU  0 inst:  269000005 cyc:  136325977 now IPC :1.82043: AVG IPC :1.97280: L2-Pf-HR :0.79755: L2-HR :0.82697: (Sim:1h19m59s) 
CPU  0 inst:  270000002 cyc:  136800840 now IPC :2.10586: AVG IPC :1.97327: L2-Pf-HR :0.79749: L2-HR :0.82694: (Sim:1h20m19s) 
CPU  0 inst:  271000003 cyc:  137272743 now IPC :2.11908: AVG IPC :1.97377: L2-Pf-HR :0.79743: L2-HR :0.82691: (Sim:1h20m39s) 
CPU  0 inst:  272000004 cyc:  137746295 now IPC :2.11170: AVG IPC :1.97425: L2-Pf-HR :0.79738: L2-HR :0.82689: (Sim:1h20m59s) 
CPU  0 inst:  273000004 cyc:  138213038 now IPC :2.14251: AVG IPC :1.97482: L2-Pf-HR :0.79732: L2-HR :0.82688: (Sim:1h21m20s) 
CPU  0 inst:  274000000 cyc:  138680653 now IPC :2.13850: AVG IPC :1.97538: L2-Pf-HR :0.79725: L2-HR :0.82685: (Sim:1h21m41s) 
CPU  0 inst:  275000003 cyc:  139138626 now IPC :2.18354: AVG IPC :1.97607: L2-Pf-HR :0.79724: L2-HR :0.82688: (Sim:1h22m1s) 
CPU  0 inst:  276000005 cyc:  139739397 now IPC :1.66453: AVG IPC :1.97472: L2-Pf-HR :0.79727: L2-HR :0.82687: (Sim:1h22m23s) 
CPU  0 inst:  277000002 cyc:  140206123 now IPC :2.14258: AVG IPC :1.97528: L2-Pf-HR :0.79750: L2-HR :0.82709: (Sim:1h22m43s) 
CPU  0 inst:  278000005 cyc:  140674520 now IPC :2.13495: AVG IPC :1.97582: L2-Pf-HR :0.79774: L2-HR :0.82733: (Sim:1h23m4s) 
CPU  0 inst:  279000001 cyc:  141144170 now IPC :2.12924: AVG IPC :1.97633: L2-Pf-HR :0.79800: L2-HR :0.82758: (Sim:1h23m24s) 
CPU  0 inst:  280000003 cyc:  141636322 now IPC :2.03190: AVG IPC :1.97653: L2-Pf-HR :0.79831: L2-HR :0.82784: (Sim:1h23m44s) 
CPU  0 inst:  281000001 cyc:  142327496 now IPC :1.44681: AVG IPC :1.97394: L2-Pf-HR :0.79813: L2-HR :0.82757: (Sim:1h24m6s) 
CPU  0 inst:  282000000 cyc:  142843188 now IPC :1.93914: AVG IPC :1.97381: L2-Pf-HR :0.79806: L2-HR :0.82749: (Sim:1h24m16s) 
CPU  0 inst:  283000002 cyc:  143341950 now IPC :2.00497: AVG IPC :1.97392: L2-Pf-HR :0.79799: L2-HR :0.82743: (Sim:1h24m26s) 
CPU  0 inst:  284000001 cyc:  143837377 now IPC :2.01846: AVG IPC :1.97407: L2-Pf-HR :0.79791: L2-HR :0.82737: (Sim:1h24m36s) 
CPU  0 inst:  285000001 cyc:  144326238 now IPC :2.04557: AVG IPC :1.97432: L2-Pf-HR :0.79785: L2-HR :0.82731: (Sim:1h24m46s) 
CPU  0 inst:  286000002 cyc:  144806488 now IPC :2.08225: AVG IPC :1.97468: L2-Pf-HR :0.79779: L2-HR :0.82727: (Sim:1h24m55s) 
CPU  0 inst:  287000004 cyc:  145294756 now IPC :2.04806: AVG IPC :1.97493: L2-Pf-HR :0.79774: L2-HR :0.82723: (Sim:1h25m5s) 
CPU  0 inst:  288000002 cyc:  145930685 now IPC :1.57250: AVG IPC :1.97316: L2-Pf-HR :0.79767: L2-HR :0.82709: (Sim:1h25m15s) 
CPU  0 inst:  289000003 cyc:  146479924 now IPC :1.82070: AVG IPC :1.97259: L2-Pf-HR :0.79756: L2-HR :0.82701: (Sim:1h25m26s) 
CPU  0 inst:  290000004 cyc:  146953020 now IPC :2.11374: AVG IPC :1.97304: L2-Pf-HR :0.79751: L2-HR :0.82698: (Sim:1h25m35s) 
CPU  0 inst:  291000004 cyc:  147415649 now IPC :2.16156: AVG IPC :1.97364: L2-Pf-HR :0.79748: L2-HR :0.82697: (Sim:1h25m44s) 
CPU  0 inst:  292000001 cyc:  147886760 now IPC :2.12264: AVG IPC :1.97412: L2-Pf-HR :0.79742: L2-HR :0.82694: (Sim:1h25m54s) 
CPU  0 inst:  293000005 cyc:  148348545 now IPC :2.16552: AVG IPC :1.97472: L2-Pf-HR :0.79737: L2-HR :0.82693: (Sim:1h26m4s) 
CPU  0 inst:  294000002 cyc:  148811753 now IPC :2.15885: AVG IPC :1.97529: L2-Pf-HR :0.79734: L2-HR :0.82693: (Sim:1h26m14s) 
CPU  0 inst:  295000000 cyc:  149272921 now IPC :2.16840: AVG IPC :1.97589: L2-Pf-HR :0.79735: L2-HR :0.82697: (Sim:1h26m24s) 
CPU  0 inst:  296000005 cyc:  149873526 now IPC :1.66500: AVG IPC :1.97464: L2-Pf-HR :0.79740: L2-HR :0.82696: (Sim:1h26m34s) 
CPU  0 inst:  297000000 cyc:  150346399 now IPC :2.11472: AVG IPC :1.97508: L2-Pf-HR :0.79761: L2-HR :0.82717: (Sim:1h26m44s) 
CPU  0 inst:  298000005 cyc:  150819552 now IPC :2.11349: AVG IPC :1.97552: L2-Pf-HR :0.79785: L2-HR :0.82740: (Sim:1h26m54s) 
CPU  0 inst:  299000004 cyc:  151289623 now IPC :2.12734: AVG IPC :1.97599: L2-Pf-HR :0.79811: L2-HR :0.82764: (Sim:1h27m4s) 
CPU  0 inst:  300000003 cyc:  151795159 now IPC :1.97810: AVG IPC :1.97600: L2-Pf-HR :0.79839: L2-HR :0.82787: (Sim:1h27m14s) 
CPU  0 inst:  301000004 cyc:  152489638 now IPC :1.43993: AVG IPC :1.97354: L2-Pf-HR :0.79823: L2-HR :0.82763: (Sim:1h27m24s) 
CPU  0 inst:  302000001 cyc:  152998822 now IPC :1.96392: AVG IPC :1.97351: L2-Pf-HR :0.79813: L2-HR :0.82755: (Sim:1h27m34s) 
CPU  0 inst:  303000003 cyc:  153490656 now IPC :2.03321: AVG IPC :1.97370: L2-Pf-HR :0.79808: L2-HR :0.82750: (Sim:1h27m44s) 
CPU  0 inst:  304000002 cyc:  153982773 now IPC :2.03204: AVG IPC :1.97389: L2-Pf-HR :0.79802: L2-HR :0.82745: (Sim:1h27m54s) 
CPU  0 inst:  305000004 cyc:  154481953 now IPC :2.00329: AVG IPC :1.97399: L2-Pf-HR :0.79794: L2-HR :0.82739: (Sim:1h28m3s) 
CPU  0 inst:  306000001 cyc:  154978990 now IPC :2.01192: AVG IPC :1.97411: L2-Pf-HR :0.79787: L2-HR :0.82733: (Sim:1h28m13s) 
CPU  0 inst:  307000001 cyc:  155468573 now IPC :2.04255: AVG IPC :1.97433: L2-Pf-HR :0.79782: L2-HR :0.82728: (Sim:1h28m23s) 
CPU  0 inst:  308000000 cyc:  156102271 now IPC :1.57804: AVG IPC :1.97271: L2-Pf-HR :0.79776: L2-HR :0.82715: (Sim:1h28m33s) 
CPU  0 inst:  309000002 cyc:  156643254 now IPC :1.84849: AVG IPC :1.97228: L2-Pf-HR :0.79769: L2-HR :0.82709: (Sim:1h28m43s) 
CPU  0 inst:  310000001 cyc:  157115388 now IPC :2.11804: AVG IPC :1.97272: L2-Pf-HR :0.79765: L2-HR :0.82707: (Sim:1h28m53s) 
CPU  0 inst:  311000002 cyc:  157588545 now IPC :2.11347: AVG IPC :1.97314: L2-Pf-HR :0.79759: L2-HR :0.82703: (Sim:1h29m3s) 
CPU  0 inst:  312000000 cyc:  158061693 now IPC :2.11350: AVG IPC :1.97357: L2-Pf-HR :0.79754: L2-HR :0.82701: (Sim:1h29m13s) 
CPU  0 inst:  313000002 cyc:  158527049 now IPC :2.14890: AVG IPC :1.97408: L2-Pf-HR :0.79748: L2-HR :0.82699: (Sim:1h29m23s) 
CPU  0 inst:  314000001 cyc:  159000110 now IPC :2.11389: AVG IPC :1.97450: L2-Pf-HR :0.79742: L2-HR :0.82695: (Sim:1h29m32s) 
CPU  0 inst:  315000001 cyc:  159460518 now IPC :2.17199: AVG IPC :1.97508: L2-Pf-HR :0.79743: L2-HR :0.82698: (Sim:1h29m42s) 
CPU  0 inst:  316000000 cyc:  160053331 now IPC :1.68687: AVG IPC :1.97400: L2-Pf-HR :0.79748: L2-HR :0.82697: (Sim:1h29m52s) 
CPU  0 inst:  317000001 cyc:  160518656 now IPC :2.14904: AVG IPC :1.97451: L2-Pf-HR :0.79767: L2-HR :0.82717: (Sim:1h30m2s) 
CPU  0 inst:  318000000 cyc:  160991441 now IPC :2.11512: AVG IPC :1.97493: L2-Pf-HR :0.79788: L2-HR :0.82737: (Sim:1h30m13s) 
CPU  0 inst:  319000005 cyc:  161457936 now IPC :2.14366: AVG IPC :1.97542: L2-Pf-HR :0.79810: L2-HR :0.82759: (Sim:1h30m23s) 
CPU  0 inst:  320000000 cyc:  161968515 now IPC :1.95855: AVG IPC :1.97536: L2-Pf-HR :0.79836: L2-HR :0.82780: (Sim:1h30m33s) 
CPU  0 inst:  321000003 cyc:  162652534 now IPC :1.46195: AVG IPC :1.97319: L2-Pf-HR :0.79820: L2-HR :0.82756: (Sim:1h30m43s) 
CPU  0 inst:  322000000 cyc:  163162692 now IPC :1.96017: AVG IPC :1.97315: L2-Pf-HR :0.79812: L2-HR :0.82749: (Sim:1h30m53s) 
CPU  0 inst:  323000003 cyc:  163656114 now IPC :2.02667: AVG IPC :1.97331: L2-Pf-HR :0.79807: L2-HR :0.82744: (Sim:1h31m3s) 
CPU  0 inst:  324000003 cyc:  164153631 now IPC :2.00998: AVG IPC :1.97343: L2-Pf-HR :0.79800: L2-HR :0.82739: (Sim:1h31m13s) 
CPU  0 inst:  325000002 cyc:  164653729 now IPC :1.99961: AVG IPC :1.97351: L2-Pf-HR :0.79792: L2-HR :0.82732: (Sim:1h31m22s) 
CPU  0 inst:  326000001 cyc:  165142406 now IPC :2.04634: AVG IPC :1.97372: L2-Pf-HR :0.79785: L2-HR :0.82727: (Sim:1h31m32s) 
CPU  0 inst:  327000005 cyc:  165622080 now IPC :2.08476: AVG IPC :1.97405: L2-Pf-HR :0.79782: L2-HR :0.82725: (Sim:1h31m42s) 
CPU  0 inst:  328000004 cyc:  166258688 now IPC :1.57082: AVG IPC :1.97249: L2-Pf-HR :0.79779: L2-HR :0.82714: (Sim:1h31m52s) 
CPU  0 inst:  329000002 cyc:  166791670 now IPC :1.87623: AVG IPC :1.97218: L2-Pf-HR :0.79770: L2-HR :0.82707: (Sim:1h32m3s) 
CPU  0 inst:  330000003 cyc:  167267009 now IPC :2.10376: AVG IPC :1.97256: L2-Pf-HR :0.79764: L2-HR :0.82704: (Sim:1h32m13s) 
CPU  0 inst:  331000003 cyc:  167735530 now IPC :2.13438: AVG IPC :1.97301: L2-Pf-HR :0.79758: L2-HR :0.82702: (Sim:1h32m23s) 
CPU  0 inst:  332000003 cyc:  168201854 now IPC :2.14443: AVG IPC :1.97349: L2-Pf-HR :0.79752: L2-HR :0.82700: (Sim:1h32m33s) 
CPU  0 inst:  333000004 cyc:  168663024 now IPC :2.16840: AVG IPC :1.97403: L2-Pf-HR :0.79747: L2-HR :0.82698: (Sim:1h32m52s) 
CPU  0 inst:  334000004 cyc:  169125093 now IPC :2.16418: AVG IPC :1.97455: L2-Pf-HR :0.79742: L2-HR :0.82696: (Sim:1h33m12s) 
CPU  0 inst:  335000003 cyc:  169596359 now IPC :2.12194: AVG IPC :1.97496: L2-Pf-HR :0.79742: L2-HR :0.82698: (Sim:1h33m32s) 
CPU  0 inst:  336000003 cyc:  170182421 now IPC :1.70630: AVG IPC :1.97403: L2-Pf-HR :0.79745: L2-HR :0.82697: (Sim:1h33m51s) 
CPU  0 inst:  337000005 cyc:  170644362 now IPC :2.16478: AVG IPC :1.97455: L2-Pf-HR :0.79765: L2-HR :0.82717: (Sim:1h34m11s) 
CPU  0 inst:  338000002 cyc:  171117802 now IPC :2.11219: AVG IPC :1.97493: L2-Pf-HR :0.79784: L2-HR :0.82736: (Sim:1h34m32s) 
CPU  0 inst:  339000005 cyc:  171584749 now IPC :2.14158: AVG IPC :1.97539: L2-Pf-HR :0.79805: L2-HR :0.82756: (Sim:1h34m51s) 
CPU  0 inst:  340000004 cyc:  172097821 now IPC :1.94904: AVG IPC :1.97531: L2-Pf-HR :0.79828: L2-HR :0.82775: (Sim:1h35m11s) 
CPU  0 inst:  341000003 cyc:  172746391 now IPC :1.54185: AVG IPC :1.97367: L2-Pf-HR :0.79814: L2-HR :0.82756: (Sim:1h35m32s) 
CPU  0 inst:  342000003 cyc:  173249936 now IPC :1.98592: AVG IPC :1.97371: L2-Pf-HR :0.79806: L2-HR :0.82749: (Sim:1h35m52s) 
CPU  0 inst:  343000005 cyc:  173737249 now IPC :2.05207: AVG IPC :1.97393: L2-Pf-HR :0.79800: L2-HR :0.82744: (Sim:1h36m11s) 
CPU  0 inst:  344000000 cyc:  174237630 now IPC :1.99847: AVG IPC :1.97400: L2-Pf-HR :0.79795: L2-HR :0.82739: (Sim:1h36m30s) 
CPU  0 inst:  345000000 cyc:  174727007 now IPC :2.04341: AVG IPC :1.97420: L2-Pf-HR :0.79790: L2-HR :0.82735: (Sim:1h36m42s) 
CPU  0 inst:  346000000 cyc:  175219383 now IPC :2.03097: AVG IPC :1.97436: L2-Pf-HR :0.79785: L2-HR :0.82731: (Sim:1h36m51s) 
CPU  0 inst:  347000004 cyc:  175701547 now IPC :2.07399: AVG IPC :1.97463: L2-Pf-HR :0.79780: L2-HR :0.82727: (Sim:1h37m1s) 
CPU  0 inst:  348000005 cyc:  176340462 now IPC :1.56516: AVG IPC :1.97314: L2-Pf-HR :0.79775: L2-HR :0.82716: (Sim:1h37m11s) 
CPU  0 inst:  349000001 cyc:  176881719 now IPC :1.84754: AVG IPC :1.97275: L2-Pf-HR :0.79768: L2-HR :0.82710: (Sim:1h37m22s) 
CPU  0 inst:  350000005 cyc:  177355644 now IPC :2.11005: AVG IPC :1.97312: L2-Pf-HR :0.79763: L2-HR :0.82708: (Sim:1h37m32s) 
CPU  0 inst:  351000003 cyc:  177823502 now IPC :2.13740: AVG IPC :1.97356: L2-Pf-HR :0.79756: L2-HR :0.82705: (Sim:1h37m42s) 
CPU  0 inst:  352000000 cyc:  178296656 now IPC :2.11347: AVG IPC :1.97393: L2-Pf-HR :0.79751: L2-HR :0.82702: (Sim:1h37m52s) 
CPU  0 inst:  353000004 cyc:  178762363 now IPC :2.14728: AVG IPC :1.97439: L2-Pf-HR :0.79746: L2-HR :0.82700: (Sim:1h38m3s) 
CPU  0 inst:  354000003 cyc:  179222203 now IPC :2.17467: AVG IPC :1.97490: L2-Pf-HR :0.79742: L2-HR :0.82699: (Sim:1h38m24s) 
CPU  0 inst:  355000000 cyc:  179705188 now IPC :2.07045: AVG IPC :1.97516: L2-Pf-HR :0.79741: L2-HR :0.82700: (Sim:1h38m45s) 
CPU  0 inst:  356000000 cyc:  180287839 now IPC :1.71629: AVG IPC :1.97432: L2-Pf-HR :0.79745: L2-HR :0.82700: (Sim:1h39m8s) 
CPU  0 inst:  357000004 cyc:  180759403 now IPC :2.12061: AVG IPC :1.97470: L2-Pf-HR :0.79762: L2-HR :0.82717: (Sim:1h39m30s) 
CPU  0 inst:  358000005 cyc:  181231696 now IPC :2.11733: AVG IPC :1.97508: L2-Pf-HR :0.79780: L2-HR :0.82735: (Sim:1h39m51s) 
CPU  0 inst:  359000004 cyc:  181696940 now IPC :2.14941: AVG IPC :1.97553: L2-Pf-HR :0.79798: L2-HR :0.82753: (Sim:1h40m12s) 
CPU  0 inst:  360000004 cyc:  182225184 now IPC :1.89306: AVG IPC :1.97529: L2-Pf-HR :0.79817: L2-HR :0.82766: (Sim:1h40m34s) 
CPU  0 inst:  361000005 cyc:  182882470 now IPC :1.52141: AVG IPC :1.97365: L2-Pf-HR :0.79806: L2-HR :0.82750: (Sim:1h40m56s) 
CPU  0 inst:  362000000 cyc:  183386020 now IPC :1.98589: AVG IPC :1.97368: L2-Pf-HR :0.79798: L2-HR :0.82743: (Sim:1h41m17s) 
CPU  0 inst:  363000000 cyc:  183888721 now IPC :1.98925: AVG IPC :1.97372: L2-Pf-HR :0.79792: L2-HR :0.82738: (Sim:1h41m38s) 
CPU  0 inst:  364000002 cyc:  184392017 now IPC :1.98691: AVG IPC :1.97376: L2-Pf-HR :0.79787: L2-HR :0.82733: (Sim:1h41m59s) 
CPU  0 inst:  365000003 cyc:  184892182 now IPC :1.99934: AVG IPC :1.97383: L2-Pf-HR :0.79780: L2-HR :0.82728: (Sim:1h42m20s) 
CPU  0 inst:  366000003 cyc:  185382056 now IPC :2.04134: AVG IPC :1.97401: L2-Pf-HR :0.79776: L2-HR :0.82724: (Sim:1h42m41s) 
CPU  0 inst:  367000005 cyc:  185861687 now IPC :2.08494: AVG IPC :1.97430: L2-Pf-HR :0.79772: L2-HR :0.82721: (Sim:1h43m1s) 
CPU  0 inst:  368000002 cyc:  186506084 now IPC :1.55183: AVG IPC :1.97283: L2-Pf-HR :0.79767: L2-HR :0.82710: (Sim:1h43m23s) 
CPU  0 inst:  369000001 cyc:  187032456 now IPC :1.89980: AVG IPC :1.97262: L2-Pf-HR :0.79763: L2-HR :0.82706: (Sim:1h43m45s) 
CPU  0 inst:  370000002 cyc:  187501669 now IPC :2.13123: AVG IPC :1.97302: L2-Pf-HR :0.79758: L2-HR :0.82704: (Sim:1h44m6s) 
CPU  0 inst:  371000002 cyc:  187966550 now IPC :2.15109: AVG IPC :1.97346: L2-Pf-HR :0.79754: L2-HR :0.82702: (Sim:1h44m27s) 
CPU  0 inst:  372000004 cyc:  188435805 now IPC :2.13104: AVG IPC :1.97386: L2-Pf-HR :0.79748: L2-HR :0.82699: (Sim:1h44m49s) 
CPU  0 inst:  373000005 cyc:  188907764 now IPC :2.11883: AVG IPC :1.97422: L2-Pf-HR :0.79743: L2-HR :0.82696: (Sim:1h45m10s) 
CPU  0 inst:  374000001 cyc:  189369099 now IPC :2.16761: AVG IPC :1.97469: L2-Pf-HR :0.79739: L2-HR :0.82695: (Sim:1h45m30s) 
CPU  0 inst:  375000002 cyc:  189862129 now IPC :2.02828: AVG IPC :1.97483: L2-Pf-HR :0.79736: L2-HR :0.82694: (Sim:1h45m52s) 
CPU  0 inst:  376000002 cyc:  190434854 now IPC :1.74604: AVG IPC :1.97414: L2-Pf-HR :0.79741: L2-HR :0.82695: (Sim:1h46m13s) 
CPU  0 inst:  377000005 cyc:  190904192 now IPC :2.13067: AVG IPC :1.97453: L2-Pf-HR :0.79756: L2-HR :0.82711: (Sim:1h46m35s) 
CPU  0 inst:  378000005 cyc:  191377098 now IPC :2.11459: AVG IPC :1.97488: L2-Pf-HR :0.79775: L2-HR :0.82729: (Sim:1h46m56s) 
CPU  0 inst:  379000000 cyc:  191848540 now IPC :2.12114: AVG IPC :1.97524: L2-Pf-HR :0.79794: L2-HR :0.82747: (Sim:1h47m17s) 
CPU  0 inst:  380000003 cyc:  192372721 now IPC :1.90774: AVG IPC :1.97505: L2-Pf-HR :0.79808: L2-HR :0.82756: (Sim:1h47m39s) 
CPU  0 inst:  381000000 cyc:  193016304 now IPC :1.55380: AVG IPC :1.97364: L2-Pf-HR :0.79800: L2-HR :0.82744: (Sim:1h48m0s) 
CPU  0 inst:  382000004 cyc:  193527705 now IPC :1.95542: AVG IPC :1.97359: L2-Pf-HR :0.79793: L2-HR :0.82739: (Sim:1h48m22s) 
CPU  0 inst:  383000000 cyc:  194030149 now IPC :1.99026: AVG IPC :1.97364: L2-Pf-HR :0.79788: L2-HR :0.82733: (Sim:1h48m42s) 
CPU  0 inst:  384000005 cyc:  194530997 now IPC :1.99662: AVG IPC :1.97370: L2-Pf-HR :0.79784: L2-HR :0.82730: (Sim:1h49m3s) 
CPU  0 inst:  385000005 cyc:  195026175 now IPC :2.01948: AVG IPC :1.97381: L2-Pf-HR :0.79781: L2-HR :0.82726: (Sim:1h49m24s) 
CPU  0 inst:  386000000 cyc:  195521723 now IPC :2.01796: AVG IPC :1.97393: L2-Pf-HR :0.79776: L2-HR :0.82722: (Sim:1h49m45s) 
CPU  0 inst:  387000003 cyc:  196004612 now IPC :2.07088: AVG IPC :1.97417: L2-Pf-HR :0.79772: L2-HR :0.82720: (Sim:1h50m6s) 
CPU  0 inst:  388000001 cyc:  196646988 now IPC :1.55672: AVG IPC :1.97280: L2-Pf-HR :0.79767: L2-HR :0.82709: (Sim:1h50m28s) 
CPU  0 inst:  389000002 cyc:  197185504 now IPC :1.85696: AVG IPC :1.97248: L2-Pf-HR :0.79762: L2-HR :0.82705: (Sim:1h50m49s) 
CPU  0 inst:  390000002 cyc:  197654839 now IPC :2.13067: AVG IPC :1.97286: L2-Pf-HR :0.79757: L2-HR :0.82703: (Sim:1h51m10s) 
CPU  0 inst:  391000003 cyc:  198123419 now IPC :2.13411: AVG IPC :1.97324: L2-Pf-HR :0.79753: L2-HR :0.82701: (Sim:1h51m31s) 
CPU  0 inst:  392000003 cyc:  198590560 now IPC :2.14068: AVG IPC :1.97363: L2-Pf-HR :0.79749: L2-HR :0.82699: (Sim:1h51m52s) 
CPU  0 inst:  393000000 cyc:  199056221 now IPC :2.14748: AVG IPC :1.97404: L2-Pf-HR :0.79745: L2-HR :0.82698: (Sim:1h52m13s) 
CPU  0 inst:  394000002 cyc:  199516350 now IPC :2.17331: AVG IPC :1.97450: L2-Pf-HR :0.79741: L2-HR :0.82696: (Sim:1h52m35s) 
CPU  0 inst:  395000000 cyc:  200017236 now IPC :1.99646: AVG IPC :1.97456: L2-Pf-HR :0.79739: L2-HR :0.82696: (Sim:1h52m56s) 
CPU  0 inst:  396000004 cyc:  200579947 now IPC :1.77712: AVG IPC :1.97400: L2-Pf-HR :0.79743: L2-HR :0.82698: (Sim:1h53m19s) 
CPU  0 inst:  397000002 cyc:  201052437 now IPC :2.11644: AVG IPC :1.97434: L2-Pf-HR :0.79759: L2-HR :0.82714: (Sim:1h53m40s) 
CPU  0 inst:  398000004 cyc:  201523367 now IPC :2.12346: AVG IPC :1.97469: L2-Pf-HR :0.79778: L2-HR :0.82731: (Sim:1h54m1s) 
CPU  0 inst:  399000003 cyc:  201984391 now IPC :2.16908: AVG IPC :1.97514: L2-Pf-HR :0.79797: L2-HR :0.82749: (Sim:1h54m22s) 
CPU  0 inst:  400000004 cyc:  202531272 now IPC :1.82855: AVG IPC :1.97474: L2-Pf-HR :0.79811: L2-HR :0.82758: (Sim:1h54m44s) 
CPU  0 inst:  401000003 cyc:  203185174 now IPC :1.52928: AVG IPC :1.97330: L2-Pf-HR :0.79804: L2-HR :0.82747: (Sim:1h54m55s) 
CPU  0 inst:  402000004 cyc:  203693736 now IPC :1.96633: AVG IPC :1.97328: L2-Pf-HR :0.79798: L2-HR :0.82741: (Sim:1h55m5s) 
CPU  0 inst:  403000005 cyc:  204192553 now IPC :2.00475: AVG IPC :1.97336: L2-Pf-HR :0.79792: L2-HR :0.82736: (Sim:1h55m15s) 
CPU  0 inst:  404000001 cyc:  204688255 now IPC :2.01733: AVG IPC :1.97346: L2-Pf-HR :0.79787: L2-HR :0.82732: (Sim:1h55m24s) 
CPU  0 inst:  405000002 cyc:  205178524 now IPC :2.03970: AVG IPC :1.97362: L2-Pf-HR :0.79782: L2-HR :0.82729: (Sim:1h55m34s) 
CPU  0 inst:  406000002 cyc:  205679253 now IPC :1.99709: AVG IPC :1.97368: L2-Pf-HR :0.79778: L2-HR :0.82725: (Sim:1h55m44s) 
CPU  0 inst:  407000004 cyc:  206158689 now IPC :2.08579: AVG IPC :1.97394: L2-Pf-HR :0.79773: L2-HR :0.82722: (Sim:1h55m53s) 
CPU  0 inst:  408000001 cyc:  206789751 now IPC :1.58463: AVG IPC :1.97275: L2-Pf-HR :0.79769: L2-HR :0.82711: (Sim:1h56m3s) 
CPU  0 inst:  409000001 cyc:  207311584 now IPC :1.91632: AVG IPC :1.97261: L2-Pf-HR :0.79763: L2-HR :0.82707: (Sim:1h56m14s) 
CPU  0 inst:  410000003 cyc:  207787076 now IPC :2.10309: AVG IPC :1.97291: L2-Pf-HR :0.79759: L2-HR :0.82706: (Sim:1h56m24s) 
CPU  0 inst:  411000000 cyc:  208261535 now IPC :2.10766: AVG IPC :1.97321: L2-Pf-HR :0.79756: L2-HR :0.82703: (Sim:1h56m33s) 
CPU  0 inst:  412000002 cyc:  208732638 now IPC :2.12268: AVG IPC :1.97355: L2-Pf-HR :0.79752: L2-HR :0.82701: (Sim:1h56m43s) 
CPU  0 inst:  413000000 cyc:  209199278 now IPC :2.14298: AVG IPC :1.97393: L2-Pf-HR :0.79748: L2-HR :0.82700: (Sim:1h57m1s) 
CPU  0 inst:  414000003 cyc:  209666009 now IPC :2.14257: AVG IPC :1.97431: L2-Pf-HR :0.79743: L2-HR :0.82698: (Sim:1h57m21s) 
CPU  0 inst:  415000000 cyc:  210172450 now IPC :1.97456: AVG IPC :1.97431: L2-Pf-HR :0.79739: L2-HR :0.82695: (Sim:1h57m41s) 
CPU  0 inst:  416000005 cyc:  210727211 now IPC :1.80259: AVG IPC :1.97386: L2-Pf-HR :0.79743: L2-HR :0.82698: (Sim:1h58m2s) 
CPU  0 inst:  417000004 cyc:  211198676 now IPC :2.12105: AVG IPC :1.97419: L2-Pf-HR :0.79758: L2-HR :0.82713: (Sim:1h58m23s) 
CPU  0 inst:  418000003 cyc:  211667324 now IPC :2.13380: AVG IPC :1.97454: L2-Pf-HR :0.79774: L2-HR :0.82728: (Sim:1h58m44s) 
CPU  0 inst:  419000004 cyc:  212133532 now IPC :2.14497: AVG IPC :1.97492: L2-Pf-HR :0.79791: L2-HR :0.82744: (Sim:1h59m4s) 
CPU  0 inst:  420000003 cyc:  212683915 now IPC :1.81691: AVG IPC :1.97451: L2-Pf-HR :0.79806: L2-HR :0.82754: (Sim:1h59m25s) 
CPU  0 inst:  421000005 cyc:  213334319 now IPC :1.53751: AVG IPC :1.97317: L2-Pf-HR :0.79800: L2-HR :0.82744: (Sim:1h59m46s) 
CPU  0 inst:  422000004 cyc:  213852970 now IPC :1.92808: AVG IPC :1.97306: L2-Pf-HR :0.79794: L2-HR :0.82738: (Sim:2h0m6s) 
CPU  0 inst:  423000003 cyc:  214353870 now IPC :1.99640: AVG IPC :1.97311: L2-Pf-HR :0.79789: L2-HR :0.82734: (Sim:2h0m26s) 
CPU  0 inst:  424000001 cyc:  214847708 now IPC :2.02495: AVG IPC :1.97323: L2-Pf-HR :0.79785: L2-HR :0.82730: (Sim:2h0m47s) 
CPU  0 inst:  425000004 cyc:  215346022 now IPC :2.00677: AVG IPC :1.97331: L2-Pf-HR :0.79781: L2-HR :0.82727: (Sim:2h1m7s) 
CPU  0 inst:  426000005 cyc:  215833573 now IPC :2.05107: AVG IPC :1.97349: L2-Pf-HR :0.79777: L2-HR :0.82724: (Sim:2h1m25s) 
CPU  0 inst:  427000002 cyc:  216316828 now IPC :2.06929: AVG IPC :1.97370: L2-Pf-HR :0.79772: L2-HR :0.82721: (Sim:2h1m34s) 
CPU  0 inst:  428000001 cyc:  216955851 now IPC :1.56489: AVG IPC :1.97249: L2-Pf-HR :0.79770: L2-HR :0.82712: (Sim:2h1m44s) 
CPU  0 inst:  429000003 cyc:  217499996 now IPC :1.83775: AVG IPC :1.97215: L2-Pf-HR :0.79764: L2-HR :0.82708: (Sim:2h1m55s) 
CPU  0 inst:  430000000 cyc:  217976085 now IPC :2.10044: AVG IPC :1.97244: L2-Pf-HR :0.79760: L2-HR :0.82705: (Sim:2h2m5s) 
CPU  0 inst:  431000000 cyc:  218444361 now IPC :2.13549: AVG IPC :1.97279: L2-Pf-HR :0.79756: L2-HR :0.82704: (Sim:2h2m14s) 
CPU  0 inst:  432000002 cyc:  218911795 now IPC :2.13934: AVG IPC :1.97314: L2-Pf-HR :0.79752: L2-HR :0.82703: (Sim:2h2m24s) 
CPU  0 inst:  433000000 cyc:  219382639 now IPC :2.12384: AVG IPC :1.97347: L2-Pf-HR :0.79748: L2-HR :0.82701: (Sim:2h2m34s) 
CPU  0 inst:  434000005 cyc:  219844803 now IPC :2.16374: AVG IPC :1.97387: L2-Pf-HR :0.79744: L2-HR :0.82699: (Sim:2h2m43s) 
CPU  0 inst:  435000001 cyc:  220357044 now IPC :1.95220: AVG IPC :1.97382: L2-Pf-HR :0.79742: L2-HR :0.82696: (Sim:2h2m53s) 
CPU  0 inst:  436000003 cyc:  220905567 now IPC :1.82308: AVG IPC :1.97344: L2-Pf-HR :0.79748: L2-HR :0.82701: (Sim:2h3m3s) 
CPU  0 inst:  437000001 cyc:  221379255 now IPC :2.11109: AVG IPC :1.97374: L2-Pf-HR :0.79763: L2-HR :0.82715: (Sim:2h3m13s) 
CPU  0 inst:  438000001 cyc:  221853079 now IPC :2.11049: AVG IPC :1.97403: L2-Pf-HR :0.79780: L2-HR :0.82731: (Sim:2h3m23s) 
CPU  0 inst:  439000004 cyc:  222322175 now IPC :2.13177: AVG IPC :1.97437: L2-Pf-HR :0.79796: L2-HR :0.82747: (Sim:2h3m40s) 
CPU  0 inst:  440000003 cyc:  222874784 now IPC :1.80960: AVG IPC :1.97396: L2-Pf-HR :0.79807: L2-HR :0.82754: (Sim:2h4m2s) 
CPU  0 inst:  441000002 cyc:  223501737 now IPC :1.59501: AVG IPC :1.97289: L2-Pf-HR :0.79800: L2-HR :0.82744: (Sim:2h4m23s) 
CPU  0 inst:  442000002 cyc:  224003579 now IPC :1.99266: AVG IPC :1.97293: L2-Pf-HR :0.79795: L2-HR :0.82740: (Sim:2h4m44s) 
CPU  0 inst:  443000000 cyc:  224497663 now IPC :2.02394: AVG IPC :1.97305: L2-Pf-HR :0.79791: L2-HR :0.82736: (Sim:2h5m5s) 
CPU  0 inst:  444000000 cyc:  224991890 now IPC :2.02336: AVG IPC :1.97316: L2-Pf-HR :0.79788: L2-HR :0.82734: (Sim:2h5m25s) 
CPU  0 inst:  445000002 cyc:  225486726 now IPC :2.02088: AVG IPC :1.97326: L2-Pf-HR :0.79785: L2-HR :0.82731: (Sim:2h5m46s) 
CPU  0 inst:  446000000 cyc:  225976258 now IPC :2.04276: AVG IPC :1.97342: L2-Pf-HR :0.79781: L2-HR :0.82728: (Sim:2h6m7s) 
CPU  0 inst:  447000003 cyc:  226453264 now IPC :2.09642: AVG IPC :1.97368: L2-Pf-HR :0.79777: L2-HR :0.82725: (Sim:2h6m27s) 
CPU  0 inst:  448000005 cyc:  227098472 now IPC :1.54989: AVG IPC :1.97247: L2-Pf-HR :0.79773: L2-HR :0.82716: (Sim:2h6m37s) 
CPU  0 inst:  449000003 cyc:  227625970 now IPC :1.89574: AVG IPC :1.97229: L2-Pf-HR :0.79768: L2-HR :0.82712: (Sim:2h6m47s) 
CPU  0 inst:  450000003 cyc:  228105575 now IPC :2.08505: AVG IPC :1.97253: L2-Pf-HR :0.79763: L2-HR :0.82709: (Sim:2h6m56s) 
CPU  0 inst:  451000005 cyc:  228575609 now IPC :2.12751: AVG IPC :1.97285: L2-Pf-HR :0.79759: L2-HR :0.82708: (Sim:2h7m6s) 
CPU  0 inst:  452000001 cyc:  229045117 now IPC :2.12988: AVG IPC :1.97317: L2-Pf-HR :0.79755: L2-HR :0.82707: (Sim:2h7m16s) 
CPU  0 inst:  453000003 cyc:  229512342 now IPC :2.14030: AVG IPC :1.97351: L2-Pf-HR :0.79751: L2-HR :0.82705: (Sim:2h7m26s) 
CPU  0 inst:  454000003 cyc:  229980937 now IPC :2.13404: AVG IPC :1.97384: L2-Pf-HR :0.79747: L2-HR :0.82703: (Sim:2h7m36s) 
CPU  0 inst:  455000005 cyc:  230493725 now IPC :1.95013: AVG IPC :1.97379: L2-Pf-HR :0.79744: L2-HR :0.82700: (Sim:2h7m46s) 
CPU  0 inst:  456000004 cyc:  231036125 now IPC :1.84366: AVG IPC :1.97348: L2-Pf-HR :0.79749: L2-HR :0.82704: (Sim:2h8m7s) 
CPU  0 inst:  457000003 cyc:  231513094 now IPC :2.09657: AVG IPC :1.97373: L2-Pf-HR :0.79763: L2-HR :0.82717: (Sim:2h8m28s) 
CPU  0 inst:  458000004 cyc:  231983529 now IPC :2.12569: AVG IPC :1.97404: L2-Pf-HR :0.79777: L2-HR :0.82732: (Sim:2h8m49s) 
CPU  0 inst:  459000002 cyc:  232448799 now IPC :2.14929: AVG IPC :1.97440: L2-Pf-HR :0.79794: L2-HR :0.82748: (Sim:2h9m10s) 
CPU  0 inst:  460000002 cyc:  233003738 now IPC :1.80200: AVG IPC :1.97398: L2-Pf-HR :0.79806: L2-HR :0.82755: (Sim:2h9m31s) 
CPU  0 inst:  461000003 cyc:  233624355 now IPC :1.61130: AVG IPC :1.97302: L2-Pf-HR :0.79800: L2-HR :0.82746: (Sim:2h9m52s) 
CPU  0 inst:  462000005 cyc:  234132100 now IPC :1.96950: AVG IPC :1.97301: L2-Pf-HR :0.79795: L2-HR :0.82742: (Sim:2h10m13s) 
CPU  0 inst:  463000005 cyc:  234630588 now IPC :2.00607: AVG IPC :1.97308: L2-Pf-HR :0.79791: L2-HR :0.82738: (Sim:2h10m33s) 
CPU  0 inst:  464000000 cyc:  235120135 now IPC :2.04269: AVG IPC :1.97322: L2-Pf-HR :0.79786: L2-HR :0.82734: (Sim:2h10m52s) 
CPU  0 inst:  465000003 cyc:  235615948 now IPC :2.01690: AVG IPC :1.97332: L2-Pf-HR :0.79783: L2-HR :0.82731: (Sim:2h11m12s) 
CPU  0 inst:  466000001 cyc:  236110136 now IPC :2.02352: AVG IPC :1.97342: L2-Pf-HR :0.79779: L2-HR :0.82727: (Sim:2h11m32s) 
CPU  0 inst:  467000000 cyc:  236593306 now IPC :2.06966: AVG IPC :1.97362: L2-Pf-HR :0.79775: L2-HR :0.82725: (Sim:2h11m52s) 
CPU  0 inst:  468000001 cyc:  237237137 now IPC :1.55320: AVG IPC :1.97247: L2-Pf-HR :0.79772: L2-HR :0.82717: (Sim:2h12m13s) 
CPU  0 inst:  469000001 cyc:  237774497 now IPC :1.86095: AVG IPC :1.97222: L2-Pf-HR :0.79768: L2-HR :0.82713: (Sim:2h12m33s) 
CPU  0 inst:  470000003 cyc:  238253860 now IPC :2.08611: AVG IPC :1.97245: L2-Pf-HR :0.79764: L2-HR :0.82711: (Sim:2h12m53s) 
CPU  0 inst:  471000004 cyc:  238731069 now IPC :2.09552: AVG IPC :1.97270: L2-Pf-HR :0.79760: L2-HR :0.82709: (Sim:2h13m12s) 
CPU  0 inst:  472000003 cyc:  239200918 now IPC :2.12834: AVG IPC :1.97300: L2-Pf-HR :0.79756: L2-HR :0.82707: (Sim:2h13m33s) 
CPU  0 inst:  473000004 cyc:  239667111 now IPC :2.14504: AVG IPC :1.97334: L2-Pf-HR :0.79752: L2-HR :0.82706: (Sim:2h13m55s) 
CPU  0 inst:  474000000 cyc:  240133025 now IPC :2.14631: AVG IPC :1.97368: L2-Pf-HR :0.79747: L2-HR :0.82703: (Sim:2h14m14s) 
CPU  0 inst:  475000004 cyc:  240648325 now IPC :1.94062: AVG IPC :1.97361: L2-Pf-HR :0.79745: L2-HR :0.82701: (Sim:2h14m35s) 
CPU  0 inst:  476000005 cyc:  241185164 now IPC :1.86276: AVG IPC :1.97336: L2-Pf-HR :0.79750: L2-HR :0.82705: (Sim:2h14m55s) 
CPU  0 inst:  477000004 cyc:  241660092 now IPC :2.10558: AVG IPC :1.97362: L2-Pf-HR :0.79763: L2-HR :0.82719: (Sim:2h15m16s) 
CPU  0 inst:  478000004 cyc:  242129686 now IPC :2.12950: AVG IPC :1.97392: L2-Pf-HR :0.79777: L2-HR :0.82733: (Sim:2h15m36s) 
CPU  0 inst:  479000003 cyc:  242600094 now IPC :2.12581: AVG IPC :1.97422: L2-Pf-HR :0.79793: L2-HR :0.82748: (Sim:2h15m56s) 
CPU  0 inst:  480000002 cyc:  243163869 now IPC :1.77376: AVG IPC :1.97375: L2-Pf-HR :0.79805: L2-HR :0.82755: (Sim:2h16m17s) 
CPU  0 inst:  481000005 cyc:  243807310 now IPC :1.55415: AVG IPC :1.97264: L2-Pf-HR :0.79798: L2-HR :0.82745: (Sim:2h16m37s) 
CPU  0 inst:  482000001 cyc:  244314062 now IPC :1.97334: AVG IPC :1.97264: L2-Pf-HR :0.79793: L2-HR :0.82741: (Sim:2h16m57s) 
CPU  0 inst:  483000000 cyc:  244814560 now IPC :1.99801: AVG IPC :1.97269: L2-Pf-HR :0.79788: L2-HR :0.82736: (Sim:2h17m17s) 
CPU  0 inst:  484000004 cyc:  245312507 now IPC :2.00825: AVG IPC :1.97277: L2-Pf-HR :0.79784: L2-HR :0.82733: (Sim:2h17m37s) 
CPU  0 inst:  485000004 cyc:  245806279 now IPC :2.02523: AVG IPC :1.97287: L2-Pf-HR :0.79781: L2-HR :0.82730: (Sim:2h17m57s) 
CPU  0 inst:  486000005 cyc:  246298489 now IPC :2.03166: AVG IPC :1.97299: L2-Pf-HR :0.79777: L2-HR :0.82727: (Sim:2h18m17s) 
CPU  0 inst:  487000004 cyc:  246779778 now IPC :2.07775: AVG IPC :1.97320: L2-Pf-HR :0.79773: L2-HR :0.82724: (Sim:2h18m36s) 
CPU  0 inst:  488000003 cyc:  247430903 now IPC :1.53580: AVG IPC :1.97204: L2-Pf-HR :0.79769: L2-HR :0.82715: (Sim:2h18m57s) 
CPU  0 inst:  489000005 cyc:  247944808 now IPC :1.94589: AVG IPC :1.97199: L2-Pf-HR :0.79766: L2-HR :0.82713: (Sim:2h19m13s) 
CPU  0 inst:  490000004 cyc:  248412955 now IPC :2.13608: AVG IPC :1.97230: L2-Pf-HR :0.79763: L2-HR :0.82712: (Sim:2h19m22s) 
CPU  0 inst:  491000000 cyc:  248882254 now IPC :2.13083: AVG IPC :1.97260: L2-Pf-HR :0.79758: L2-HR :0.82709: (Sim:2h19m31s) 
CPU  0 inst:  492000004 cyc:  249352381 now IPC :2.12709: AVG IPC :1.97289: L2-Pf-HR :0.79756: L2-HR :0.82709: (Sim:2h19m41s) 
CPU  0 inst:  493000000 cyc:  249822780 now IPC :2.12585: AVG IPC :1.97318: L2-Pf-HR :0.79753: L2-HR :0.82707: (Sim:2h19m51s) 
CPU  0 inst:  494000002 cyc:  250284010 now IPC :2.16812: AVG IPC :1.97354: L2-Pf-HR :0.79750: L2-HR :0.82706: (Sim:2h20m1s) 
CPU  0 inst:  495000001 cyc:  250807652 now IPC :1.90970: AVG IPC :1.97340: L2-Pf-HR :0.79749: L2-HR :0.82705: (Sim:2h20m11s) 
CPU  0 inst:  496000001 cyc:  251349155 now IPC :1.84671: AVG IPC :1.97313: L2-Pf-HR :0.79753: L2-HR :0.82708: (Sim:2h20m21s) 
CPU  0 inst:  497000002 cyc:  251817773 now IPC :2.13394: AVG IPC :1.97343: L2-Pf-HR :0.79766: L2-HR :0.82720: (Sim:2h20m31s) 
CPU  0 inst:  498000001 cyc:  252284943 now IPC :2.14055: AVG IPC :1.97374: L2-Pf-HR :0.79778: L2-HR :0.82733: (Sim:2h20m41s) 
CPU  0 inst:  499000002 cyc:  252748885 now IPC :2.15544: AVG IPC :1.97408: L2-Pf-HR :0.79794: L2-HR :0.82747: (Sim:2h20m51s) 
CPU  0 inst:  500000005 cyc:  253308146 now IPC :1.78808: AVG IPC :1.97366: L2-Pf-HR :0.79804: L2-HR :0.82753: (Sim:2h21m1s) 
CPU  0 inst:  501000004 cyc:  253929317 now IPC :1.60986: AVG IPC :1.97277: L2-Pf-HR :0.79797: L2-HR :0.82745: (Sim:2h21m10s) 
CPU  0 inst:  502000001 cyc:  254436336 now IPC :1.97231: AVG IPC :1.97277: L2-Pf-HR :0.79793: L2-HR :0.82741: (Sim:2h21m20s) 
CPU  0 inst:  503000004 cyc:  254936389 now IPC :1.99979: AVG IPC :1.97282: L2-Pf-HR :0.79788: L2-HR :0.82737: (Sim:2h21m29s) 
CPU  0 inst:  504000002 cyc:  255437386 now IPC :1.99602: AVG IPC :1.97287: L2-Pf-HR :0.79784: L2-HR :0.82733: (Sim:2h21m39s) 
CPU  0 inst:  505000005 cyc:  255937770 now IPC :1.99847: AVG IPC :1.97292: L2-Pf-HR :0.79781: L2-HR :0.82731: (Sim:2h21m48s) 
CPU  0 inst:  506000001 cyc:  256438058 now IPC :1.99884: AVG IPC :1.97297: L2-Pf-HR :0.79778: L2-HR :0.82727: (Sim:2h21m58s) 
CPU  0 inst:  507000001 cyc:  256918854 now IPC :2.07988: AVG IPC :1.97317: L2-Pf-HR :0.79775: L2-HR :0.82725: (Sim:2h22m7s) 
CPU  0 inst:  508000004 cyc:  257574193 now IPC :1.52593: AVG IPC :1.97203: L2-Pf-HR :0.79771: L2-HR :0.82716: (Sim:2h22m17s) 
CPU  0 inst:  509000000 cyc:  258099166 now IPC :1.90485: AVG IPC :1.97189: L2-Pf-HR :0.79766: L2-HR :0.82713: (Sim:2h22m27s) 
CPU  0 inst:  510000002 cyc:  258574708 now IPC :2.10287: AVG IPC :1.97213: L2-Pf-HR :0.79761: L2-HR :0.82710: (Sim:2h22m37s) 
CPU  0 inst:  511000000 cyc:  259046070 now IPC :2.12151: AVG IPC :1.97241: L2-Pf-HR :0.79758: L2-HR :0.82709: (Sim:2h22m47s) 
CPU  0 inst:  512000001 cyc:  259512345 now IPC :2.14466: AVG IPC :1.97272: L2-Pf-HR :0.79754: L2-HR :0.82707: (Sim:2h22m57s) 
CPU  0 inst:  513000000 cyc:  259977616 now IPC :2.14928: AVG IPC :1.97303: L2-Pf-HR :0.79753: L2-HR :0.82707: (Sim:2h23m7s) 
CPU  0 inst:  514000003 cyc:  260444965 now IPC :2.13973: AVG IPC :1.97333: L2-Pf-HR :0.79749: L2-HR :0.82705: (Sim:2h23m16s) 
CPU  0 inst:  515000002 cyc:  260972421 now IPC :1.89589: AVG IPC :1.97318: L2-Pf-HR :0.79746: L2-HR :0.82703: (Sim:2h23m25s) 
CPU  0 inst:  516000002 cyc:  261503906 now IPC :1.88152: AVG IPC :1.97299: L2-Pf-HR :0.79751: L2-HR :0.82707: (Sim:2h23m36s) 
CPU  0 inst:  517000004 cyc:  261972111 now IPC :2.13582: AVG IPC :1.97328: L2-Pf-HR :0.79763: L2-HR :0.82719: (Sim:2h23m45s) 
CPU  0 inst:  518000002 cyc:  262442590 now IPC :2.12549: AVG IPC :1.97356: L2-Pf-HR :0.79775: L2-HR :0.82731: (Sim:2h24m2s) 
CPU  0 inst:  519000000 cyc:  262912226 now IPC :2.12930: AVG IPC :1.97383: L2-Pf-HR :0.79790: L2-HR :0.82745: (Sim:2h24m23s) 
CPU  0 inst:  520000002 cyc:  263468798 now IPC :1.79672: AVG IPC :1.97346: L2-Pf-HR :0.79800: L2-HR :0.82750: (Sim:2h24m43s) 
CPU  0 inst:  521000001 cyc:  264092961 now IPC :1.60214: AVG IPC :1.97258: L2-Pf-HR :0.79794: L2-HR :0.82742: (Sim:2h25m3s) 
CPU  0 inst:  522000001 cyc:  264602887 now IPC :1.96107: AVG IPC :1.97256: L2-Pf-HR :0.79790: L2-HR :0.82739: (Sim:2h25m23s) 
CPU  0 inst:  523000004 cyc:  265101974 now IPC :2.00366: AVG IPC :1.97262: L2-Pf-HR :0.79787: L2-HR :0.82735: (Sim:2h25m43s) 
CPU  0 inst:  524000004 cyc:  265596564 now IPC :2.02188: AVG IPC :1.97271: L2-Pf-HR :0.79783: L2-HR :0.82732: (Sim:2h26m3s) 
CPU  0 inst:  525000000 cyc:  266093365 now IPC :2.01287: AVG IPC :1.97278: L2-Pf-HR :0.79780: L2-HR :0.82730: (Sim:2h26m23s) 
CPU  0 inst:  526000002 cyc:  266593456 now IPC :1.99964: AVG IPC :1.97283: L2-Pf-HR :0.79778: L2-HR :0.82727: (Sim:2h26m43s) 
CPU  0 inst:  527000004 cyc:  267080858 now IPC :2.05170: AVG IPC :1.97298: L2-Pf-HR :0.79774: L2-HR :0.82724: (Sim:2h27m3s) 
CPU  0 inst:  528000002 cyc:  267719786 now IPC :1.56512: AVG IPC :1.97200: L2-Pf-HR :0.79771: L2-HR :0.82717: (Sim:2h27m23s) 
CPU  0 inst:  529000004 cyc:  268238389 now IPC :1.92826: AVG IPC :1.97192: L2-Pf-HR :0.79767: L2-HR :0.82714: (Sim:2h27m44s) 
CPU  0 inst:  530000005 cyc:  268708552 now IPC :2.12692: AVG IPC :1.97219: L2-Pf-HR :0.79764: L2-HR :0.82713: (Sim:2h28m5s) 
CPU  0 inst:  531000004 cyc:  269181474 now IPC :2.11451: AVG IPC :1.97244: L2-Pf-HR :0.79761: L2-HR :0.82711: (Sim:2h28m25s) 
CPU  0 inst:  532000000 cyc:  269648872 now IPC :2.13950: AVG IPC :1.97273: L2-Pf-HR :0.79757: L2-HR :0.82709: (Sim:2h28m45s) 
CPU  0 inst:  533000002 cyc:  270110224 now IPC :2.16755: AVG IPC :1.97306: L2-Pf-HR :0.79754: L2-HR :0.82708: (Sim:2h29m6s) 
CPU  0 inst:  534000000 cyc:  270572241 now IPC :2.16442: AVG IPC :1.97339: L2-Pf-HR :0.79751: L2-HR :0.82707: (Sim:2h29m27s) 
CPU  0 inst:  535000000 cyc:  271098623 now IPC :1.89976: AVG IPC :1.97325: L2-Pf-HR :0.79749: L2-HR :0.82703: (Sim:2h29m47s) 
CPU  0 inst:  536000005 cyc:  271632581 now IPC :1.87282: AVG IPC :1.97305: L2-Pf-HR :0.79753: L2-HR :0.82707: (Sim:2h30m8s) 
CPU  0 inst:  537000000 cyc:  272100588 now IPC :2.13671: AVG IPC :1.97333: L2-Pf-HR :0.79765: L2-HR :0.82719: (Sim:2h30m29s) 
CPU  0 inst:  538000003 cyc:  272573359 now IPC :2.11520: AVG IPC :1.97358: L2-Pf-HR :0.79778: L2-HR :0.82732: (Sim:2h30m50s) 
CPU  0 inst:  539000005 cyc:  273037101 now IPC :2.15638: AVG IPC :1.97389: L2-Pf-HR :0.79793: L2-HR :0.82745: (Sim:2h31m10s) 
CPU  0 inst:  540000005 cyc:  273606316 now IPC :1.75681: AVG IPC :1.97344: L2-Pf-HR :0.79802: L2-HR :0.82750: (Sim:2h31m31s) 
CPU  0 inst:  541000005 cyc:  274246280 now IPC :1.56259: AVG IPC :1.97248: L2-Pf-HR :0.79795: L2-HR :0.82741: (Sim:2h31m53s) 
CPU  0 inst:  542000001 cyc:  274755083 now IPC :1.96539: AVG IPC :1.97246: L2-Pf-HR :0.79791: L2-HR :0.82737: (Sim:2h32m13s) 
CPU  0 inst:  543000003 cyc:  275261074 now IPC :1.97632: AVG IPC :1.97247: L2-Pf-HR :0.79787: L2-HR :0.82734: (Sim:2h32m34s) 
CPU  0 inst:  544000002 cyc:  275760585 now IPC :2.00196: AVG IPC :1.97252: L2-Pf-HR :0.79783: L2-HR :0.82730: (Sim:2h32m54s) 
CPU  0 inst:  545000000 cyc:  276256964 now IPC :2.01459: AVG IPC :1.97260: L2-Pf-HR :0.79779: L2-HR :0.82727: (Sim:2h33m13s) 
CPU  0 inst:  546000000 cyc:  276756763 now IPC :2.00080: AVG IPC :1.97265: L2-Pf-HR :0.79777: L2-HR :0.82725: (Sim:2h33m33s) 
CPU  0 inst:  547000004 cyc:  277240435 now IPC :2.06753: AVG IPC :1.97282: L2-Pf-HR :0.79774: L2-HR :0.82723: (Sim:2h33m52s) 
CPU  0 inst:  548000005 cyc:  277891208 now IPC :1.53664: AVG IPC :1.97179: L2-Pf-HR :0.79771: L2-HR :0.82716: (Sim:2h34m13s) 
CPU  0 inst:  549000003 cyc:  278405509 now IPC :1.94438: AVG IPC :1.97174: L2-Pf-HR :0.79767: L2-HR :0.82713: (Sim:2h34m34s) 
CPU  0 inst:  550000000 cyc:  278880076 now IPC :2.10718: AVG IPC :1.97197: L2-Pf-HR :0.79765: L2-HR :0.82712: (Sim:2h34m56s) 
CPU  0 inst:  551000005 cyc:  279347137 now IPC :2.14106: AVG IPC :1.97225: L2-Pf-HR :0.79762: L2-HR :0.82711: (Sim:2h35m15s) 
CPU  0 inst:  552000001 cyc:  279816350 now IPC :2.13122: AVG IPC :1.97252: L2-Pf-HR :0.79759: L2-HR :0.82710: (Sim:2h35m33s) 
CPU  0 inst:  553000000 cyc:  280278671 now IPC :2.16300: AVG IPC :1.97284: L2-Pf-HR :0.79756: L2-HR :0.82709: (Sim:2h35m53s) 
CPU  0 inst:  554000005 cyc:  280750014 now IPC :2.12161: AVG IPC :1.97309: L2-Pf-HR :0.79753: L2-HR :0.82707: (Sim:2h36m14s) 
CPU  0 inst:  555000002 cyc:  281278689 now IPC :1.89152: AVG IPC :1.97293: L2-Pf-HR :0.79752: L2-HR :0.82706: (Sim:2h36m35s) 
CPU  0 inst:  556000001 cyc:  281800500 now IPC :1.91640: AVG IPC :1.97283: L2-Pf-HR :0.79757: L2-HR :0.82710: (Sim:2h36m56s) 
CPU  0 inst:  557000002 cyc:  282264272 now IPC :2.15623: AVG IPC :1.97313: L2-Pf-HR :0.79767: L2-HR :0.82721: (Sim:2h37m17s) 
CPU  0 inst:  558000005 cyc:  282732766 now IPC :2.13451: AVG IPC :1.97340: L2-Pf-HR :0.79780: L2-HR :0.82733: (Sim:2h37m38s) 
CPU  0 inst:  559000003 cyc:  283198001 now IPC :2.14945: AVG IPC :1.97369: L2-Pf-HR :0.79793: L2-HR :0.82745: (Sim:2h37m59s) 
CPU  0 inst:  560000003 cyc:  283773663 now IPC :1.73713: AVG IPC :1.97321: L2-Pf-HR :0.79803: L2-HR :0.82750: (Sim:2h38m20s) 
CPU  0 inst:  561000004 cyc:  284395372 now IPC :1.60847: AVG IPC :1.97241: L2-Pf-HR :0.79796: L2-HR :0.82742: (Sim:2h38m41s) 
CPU  0 inst:  562000002 cyc:  284893577 now IPC :2.00720: AVG IPC :1.97247: L2-Pf-HR :0.79793: L2-HR :0.82739: (Sim:2h39m2s) 
CPU  0 inst:  563000004 cyc:  285390863 now IPC :2.01092: AVG IPC :1.97254: L2-Pf-HR :0.79790: L2-HR :0.82736: (Sim:2h39m22s) 
CPU  0 inst:  564000000 cyc:  285891164 now IPC :1.99879: AVG IPC :1.97258: L2-Pf-HR :0.79786: L2-HR :0.82733: (Sim:2h39m43s) 
CPU  0 inst:  565000002 cyc:  286387451 now IPC :2.01497: AVG IPC :1.97266: L2-Pf-HR :0.79782: L2-HR :0.82730: (Sim:2h40m3s) 
CPU  0 inst:  566000000 cyc:  286882580 now IPC :2.01967: AVG IPC :1.97274: L2-Pf-HR :0.79779: L2-HR :0.82727: (Sim:2h40m24s) 
CPU  0 inst:  567000003 cyc:  287368452 now IPC :2.05816: AVG IPC :1.97288: L2-Pf-HR :0.79776: L2-HR :0.82724: (Sim:2h40m44s) 
CPU  0 inst:  568000004 cyc:  288023590 now IPC :1.52640: AVG IPC :1.97186: L2-Pf-HR :0.79773: L2-HR :0.82717: (Sim:2h41m6s) 
CPU  0 inst:  569000005 cyc:  288547785 now IPC :1.90769: AVG IPC :1.97175: L2-Pf-HR :0.79770: L2-HR :0.82714: (Sim:2h41m26s) 
CPU  0 inst:  570000004 cyc:  289023979 now IPC :2.09998: AVG IPC :1.97196: L2-Pf-HR :0.79767: L2-HR :0.82713: (Sim:2h41m47s) 
CPU  0 inst:  571000001 cyc:  289491632 now IPC :2.13833: AVG IPC :1.97223: L2-Pf-HR :0.79764: L2-HR :0.82711: (Sim:2h42m7s) 
CPU  0 inst:  572000000 cyc:  289960489 now IPC :2.13284: AVG IPC :1.97249: L2-Pf-HR :0.79761: L2-HR :0.82710: (Sim:2h42m28s) 
CPU  0 inst:  573000001 cyc:  290427209 now IPC :2.14261: AVG IPC :1.97276: L2-Pf-HR :0.79758: L2-HR :0.82709: (Sim:2h42m49s) 
CPU  0 inst:  574000001 cyc:  290889413 now IPC :2.16355: AVG IPC :1.97307: L2-Pf-HR :0.79755: L2-HR :0.82708: (Sim:2h43m10s) 
CPU  0 inst:  575000005 cyc:  291423964 now IPC :1.87074: AVG IPC :1.97288: L2-Pf-HR :0.79754: L2-HR :0.82706: (Sim:2h43m30s) 
CPU  0 inst:  576000000 cyc:  291946750 now IPC :1.91282: AVG IPC :1.97277: L2-Pf-HR :0.79758: L2-HR :0.82709: (Sim:2h43m51s) 
CPU  0 inst:  577000005 cyc:  292415373 now IPC :2.13392: AVG IPC :1.97303: L2-Pf-HR :0.79769: L2-HR :0.82720: (Sim:2h44m12s) 
CPU  0 inst:  578000002 cyc:  292882280 now IPC :2.14175: AVG IPC :1.97330: L2-Pf-HR :0.79780: L2-HR :0.82732: (Sim:2h44m33s) 
CPU  0 inst:  579000000 cyc:  293350246 now IPC :2.13690: AVG IPC :1.97356: L2-Pf-HR :0.79794: L2-HR :0.82745: (Sim:2h44m54s) 
CPU  0 inst:  580000004 cyc:  293930917 now IPC :1.72215: AVG IPC :1.97306: L2-Pf-HR :0.79802: L2-HR :0.82749: (Sim:2h45m15s) 
CPU  0 inst:  581000003 cyc:  294551764 now IPC :1.61070: AVG IPC :1.97230: L2-Pf-HR :0.79797: L2-HR :0.82741: (Sim:2h45m37s) 
CPU  0 inst:  582000000 cyc:  295042097 now IPC :2.03942: AVG IPC :1.97241: L2-Pf-HR :0.79793: L2-HR :0.82739: (Sim:2h45m57s) 
CPU  0 inst:  583000004 cyc:  295539810 now IPC :2.00920: AVG IPC :1.97247: L2-Pf-HR :0.79790: L2-HR :0.82736: (Sim:2h46m18s) 
CPU  0 inst:  584000004 cyc:  296036988 now IPC :2.01135: AVG IPC :1.97254: L2-Pf-HR :0.79786: L2-HR :0.82733: (Sim:2h46m38s) 
CPU  0 inst:  585000003 cyc:  296533081 now IPC :2.01575: AVG IPC :1.97261: L2-Pf-HR :0.79783: L2-HR :0.82730: (Sim:2h46m59s) 
CPU  0 inst:  586000001 cyc:  297021998 now IPC :2.04533: AVG IPC :1.97273: L2-Pf-HR :0.79782: L2-HR :0.82729: (Sim:2h47m19s) 
CPU  0 inst:  587000003 cyc:  297505090 now IPC :2.07000: AVG IPC :1.97289: L2-Pf-HR :0.79779: L2-HR :0.82727: (Sim:2h47m39s) 
CPU  0 inst:  588000002 cyc:  298155258 now IPC :1.53806: AVG IPC :1.97194: L2-Pf-HR :0.79775: L2-HR :0.82718: (Sim:2h47m59s) 
CPU  0 inst:  589000003 cyc:  298683860 now IPC :1.89178: AVG IPC :1.97179: L2-Pf-HR :0.79771: L2-HR :0.82716: (Sim:2h48m20s) 
CPU  0 inst:  590000002 cyc:  299154489 now IPC :2.12481: AVG IPC :1.97204: L2-Pf-HR :0.79768: L2-HR :0.82714: (Sim:2h48m40s) 
CPU  0 inst:  591000002 cyc:  299629249 now IPC :2.10633: AVG IPC :1.97225: L2-Pf-HR :0.79765: L2-HR :0.82713: (Sim:2h48m59s) 
CPU  0 inst:  592000002 cyc:  300097237 now IPC :2.13681: AVG IPC :1.97251: L2-Pf-HR :0.79763: L2-HR :0.82712: (Sim:2h49m19s) 
CPU  0 inst:  593000005 cyc:  300563476 now IPC :2.14483: AVG IPC :1.97278: L2-Pf-HR :0.79761: L2-HR :0.82712: (Sim:2h49m40s) 
CPU  0 inst:  594000001 cyc:  301026823 now IPC :2.15820: AVG IPC :1.97306: L2-Pf-HR :0.79759: L2-HR :0.82712: (Sim:2h50m0s) 
CPU  0 inst:  595000001 cyc:  301563544 now IPC :1.86317: AVG IPC :1.97287: L2-Pf-HR :0.79757: L2-HR :0.82709: (Sim:2h50m19s) 
CPU  0 inst:  596000003 cyc:  302079801 now IPC :1.93702: AVG IPC :1.97280: L2-Pf-HR :0.79762: L2-HR :0.82713: (Sim:2h50m39s) 
CPU  0 inst:  597000000 cyc:  302546955 now IPC :2.14062: AVG IPC :1.97306: L2-Pf-HR :0.79773: L2-HR :0.82724: (Sim:2h50m59s) 
CPU  0 inst:  598000005 cyc:  303016547 now IPC :2.12952: AVG IPC :1.97331: L2-Pf-HR :0.79785: L2-HR :0.82735: (Sim:2h51m19s) 
CPU  0 inst:  599000005 cyc:  303491702 now IPC :2.10458: AVG IPC :1.97351: L2-Pf-HR :0.79796: L2-HR :0.82746: (Sim:2h51m40s) 
CPU  0 inst:  600000002 cyc:  304072478 now IPC :1.72183: AVG IPC :1.97303: L2-Pf-HR :0.79805: L2-HR :0.82750: (Sim:2h52m1s) 
CPU  0 inst:  601000003 cyc:  304689165 now IPC :1.62157: AVG IPC :1.97232: L2-Pf-HR :0.79799: L2-HR :0.82743: (Sim:2h52m22s) 
CPU  0 inst:  602000003 cyc:  305185987 now IPC :2.01279: AVG IPC :1.97238: L2-Pf-HR :0.79795: L2-HR :0.82740: (Sim:2h52m42s) 
CPU  0 inst:  603000003 cyc:  305688303 now IPC :1.99078: AVG IPC :1.97241: L2-Pf-HR :0.79792: L2-HR :0.82737: (Sim:2h53m2s) 
CPU  0 inst:  604000001 cyc:  306191578 now IPC :1.98698: AVG IPC :1.97244: L2-Pf-HR :0.79788: L2-HR :0.82733: (Sim:2h53m22s) 
CPU  0 inst:  605000004 cyc:  306680110 now IPC :2.04695: AVG IPC :1.97256: L2-Pf-HR :0.79784: L2-HR :0.82731: (Sim:2h53m42s) 
CPU  0 inst:  606000000 cyc:  307165532 now IPC :2.06006: AVG IPC :1.97270: L2-Pf-HR :0.79782: L2-HR :0.82729: (Sim:2h54m1s) 
CPU  0 inst:  607000002 cyc:  307647965 now IPC :2.07283: AVG IPC :1.97285: L2-Pf-HR :0.79780: L2-HR :0.82727: (Sim:2h54m21s) 
CPU  0 inst:  608000002 cyc:  308300466 now IPC :1.53256: AVG IPC :1.97192: L2-Pf-HR :0.79776: L2-HR :0.82719: (Sim:2h54m42s) 
CPU  0 inst:  609000001 cyc:  308808986 now IPC :1.96649: AVG IPC :1.97191: L2-Pf-HR :0.79773: L2-HR :0.82717: (Sim:2h55m2s) 
CPU  0 inst:  610000001 cyc:  309273896 now IPC :2.15095: AVG IPC :1.97218: L2-Pf-HR :0.79770: L2-HR :0.82716: (Sim:2h55m21s) 
CPU  0 inst:  611000003 cyc:  309743669 now IPC :2.12869: AVG IPC :1.97242: L2-Pf-HR :0.79768: L2-HR :0.82715: (Sim:2h55m41s) 
CPU  0 inst:  612000000 cyc:  310215450 now IPC :2.11962: AVG IPC :1.97264: L2-Pf-HR :0.79764: L2-HR :0.82714: (Sim:2h56m1s) 
CPU  0 inst:  613000000 cyc:  310681805 now IPC :2.14429: AVG IPC :1.97290: L2-Pf-HR :0.79761: L2-HR :0.82712: (Sim:2h56m22s) 
CPU  0 inst:  614000005 cyc:  311141075 now IPC :2.17738: AVG IPC :1.97320: L2-Pf-HR :0.79758: L2-HR :0.82712: (Sim:2h56m41s) 
CPU  0 inst:  615000000 cyc:  311681031 now IPC :1.85199: AVG IPC :1.97299: L2-Pf-HR :0.79757: L2-HR :0.82709: (Sim:2h56m51s) 
CPU  0 inst:  616000000 cyc:  312198186 now IPC :1.93366: AVG IPC :1.97293: L2-Pf-HR :0.79761: L2-HR :0.82712: (Sim:2h57m2s) 
CPU  0 inst:  617000000 cyc:  312668403 now IPC :2.12668: AVG IPC :1.97316: L2-Pf-HR :0.79771: L2-HR :0.82723: (Sim:2h57m12s) 
CPU  0 inst:  618000000 cyc:  313135740 now IPC :2.13978: AVG IPC :1.97341: L2-Pf-HR :0.79782: L2-HR :0.82734: (Sim:2h57m22s) 
CPU  0 inst:  619000005 cyc:  313606279 now IPC :2.12523: AVG IPC :1.97364: L2-Pf-HR :0.79794: L2-HR :0.82745: (Sim:2h57m33s) 
CPU  0 inst:  620000000 cyc:  314185513 now IPC :1.72641: AVG IPC :1.97318: L2-Pf-HR :0.79802: L2-HR :0.82749: (Sim:2h57m43s) 
CPU  0 inst:  621000003 cyc:  314801893 now IPC :1.62238: AVG IPC :1.97249: L2-Pf-HR :0.79796: L2-HR :0.82742: (Sim:2h57m53s) 
CPU  0 inst:  622000003 cyc:  315301177 now IPC :2.00287: AVG IPC :1.97254: L2-Pf-HR :0.79793: L2-HR :0.82739: (Sim:2h58m3s) 
CPU  0 inst:  623000000 cyc:  315794064 now IPC :2.02886: AVG IPC :1.97263: L2-Pf-HR :0.79789: L2-HR :0.82736: (Sim:2h58m13s) 
CPU  0 inst:  624000003 cyc:  316287788 now IPC :2.02543: AVG IPC :1.97271: L2-Pf-HR :0.79785: L2-HR :0.82733: (Sim:2h58m22s) 
CPU  0 inst:  625000002 cyc:  316771610 now IPC :2.06687: AVG IPC :1.97285: L2-Pf-HR :0.79782: L2-HR :0.82730: (Sim:2h58m32s) 
CPU  0 inst:  626000001 cyc:  317265058 now IPC :2.02655: AVG IPC :1.97294: L2-Pf-HR :0.79779: L2-HR :0.82728: (Sim:2h58m42s) 
[...]
daa-> Hits: 1, Late: 0, Early: 0, Misses: 0
dab-> Hits: 3, Late: 0, Early: 0, Misses: 0
dac-> Hits: 10, Late: 0, Early: 0, Misses: 0
dad-> Hits: 14, Late: 0, Early: 0, Misses: 0
dae-> Hits: 1, Late: 0, Early: 0, Misses: 0
daf-> Hits: 3, Late: 0, Early: 0, Misses: 0
db0-> Hits: 7, Late: 4, Early: 0, Misses: 0
db1-> Hits: 87, Late: 12156, Early: 0, Misses: 0
db2-> Hits: 0, Late: 1, Early: 0, Misses: 0
db3-> Hits: 2, Late: 0, Early: 0, Misses: 0
db5-> Hits: 3, Late: 0, Early: 0, Misses: 0
db7-> Hits: 3, Late: 0, Early: 0, Misses: 0
db8-> Hits: 3, Late: 0, Early: 0, Misses: 0
db9-> Hits: 2, Late: 0, Early: 0, Misses: 0
dba-> Hits: 3, Late: 0, Early: 0, Misses: 0
dbb-> Hits: 2, Late: 0, Early: 0, Misses: 0
dbc-> Hits: 1, Late: 0, Early: 0, Misses: 0
dbd-> Hits: 1, Late: 0, Early: 0, Misses: 0
dbe-> Hits: 5, Late: 0, Early: 0, Misses: 0
dbf-> Hits: 7, Late: 1, Early: 0, Misses: 0
dc0-> Hits: 17, Late: 7, Early: 0, Misses: 0
dc1-> Hits: 50, Late: 4098, Early: 0, Misses: 0
dc2-> Hits: 3, Late: 2, Early: 0, Misses: 0
dc3-> Hits: 4, Late: 0, Early: 0, Misses: 0
dc7-> Hits: 11, Late: 1, Early: 0, Misses: 0
dc8-> Hits: 3, Late: 1, Early: 0, Misses: 0
dca-> Hits: 3, Late: 0, Early: 0, Misses: 0
dcb-> Hits: 6, Late: 0, Early: 0, Misses: 0
dcc-> Hits: 68, Late: 2, Early: 0, Misses: 0
dcd-> Hits: 72, Late: 0, Early: 0, Misses: 0
dcf-> Hits: 63, Late: 0, Early: 0, Misses: 0
dd1-> Hits: 115, Late: 8156, Early: 0, Misses: 0
dd2-> Hits: 8, Late: 56, Early: 0, Misses: 0
dd3-> Hits: 68, Late: 0, Early: 0, Misses: 0
dd5-> Hits: 4, Late: 0, Early: 0, Misses: 0
dd6-> Hits: 4, Late: 0, Early: 0, Misses: 0
dd8-> Hits: 70, Late: 0, Early: 0, Misses: 0
dd9-> Hits: 63, Late: 0, Early: 0, Misses: 0
dda-> Hits: 4, Late: 159, Early: 0, Misses: 0
ddc-> Hits: 5, Late: 0, Early: 0, Misses: 0
dde-> Hits: 4, Late: 0, Early: 0, Misses: 0
ddf-> Hits: 4, Late: 0, Early: 0, Misses: 0
de0-> Hits: 3, Late: 0, Early: 0, Misses: 0
de2-> Hits: 2, Late: 0, Early: 0, Misses: 0
de3-> Hits: 4, Late: 0, Early: 0, Misses: 0
de4-> Hits: 2, Late: 0, Early: 0, Misses: 0
de7-> Hits: 1, Late: 0, Early: 0, Misses: 0
de8-> Hits: 1, Late: 0, Early: 0, Misses: 0
de9-> Hits: 1, Late: 0, Early: 0, Misses: 0
deb-> Hits: 1, Late: 0, Early: 0, Misses: 0
dec-> Hits: 1, Late: 0, Early: 0, Misses: 0
ded-> Hits: 5, Late: 0, Early: 0, Misses: 0
dee-> Hits: 5, Late: 0, Early: 0, Misses: 0
def-> Hits: 5, Late: 0, Early: 0, Misses: 0
df0-> Hits: 1, Late: 0, Early: 0, Misses: 0
df1-> Hits: 16, Late: 0, Early: 0, Misses: 0
df2-> Hits: 3, Late: 0, Early: 0, Misses: 0
df3-> Hits: 6, Late: 0, Early: 0, Misses: 0
df4-> Hits: 1, Late: 0, Early: 0, Misses: 0
df5-> Hits: 6, Late: 0, Early: 0, Misses: 0
df7-> Hits: 7, Late: 0, Early: 0, Misses: 0
df8-> Hits: 0, Late: 1, Early: 0, Misses: 0
df9-> Hits: 2, Late: 0, Early: 0, Misses: 0
dfb-> Hits: 1, Late: 0, Early: 0, Misses: 0
dfd-> Hits: 3, Late: 0, Early: 0, Misses: 0
e00-> Hits: 19, Late: 0, Early: 0, Misses: 0
e01-> Hits: 2, Late: 0, Early: 0, Misses: 0
e02-> Hits: 4, Late: 0, Early: 0, Misses: 0
e03-> Hits: 2, Late: 0, Early: 0, Misses: 0
e05-> Hits: 2, Late: 2, Early: 0, Misses: 0
e06-> Hits: 26, Late: 49, Early: 0, Misses: 0
e07-> Hits: 0, Late: 63, Early: 0, Misses: 0
e0f-> Hits: 2, Late: 63, Early: 0, Misses: 0
e10-> Hits: 4, Late: 0, Early: 0, Misses: 0
e12-> Hits: 6, Late: 0, Early: 0, Misses: 0
e13-> Hits: 7, Late: 0, Early: 0, Misses: 0
e14-> Hits: 4, Late: 0, Early: 0, Misses: 0
e15-> Hits: 2, Late: 0, Early: 0, Misses: 0
e16-> Hits: 2, Late: 0, Early: 0, Misses: 0
e17-> Hits: 1, Late: 0, Early: 0, Misses: 0
e18-> Hits: 4, Late: 0, Early: 0, Misses: 0
e19-> Hits: 474, Late: 195, Early: 0, Misses: 0
e1a-> Hits: 2, Late: 0, Early: 0, Misses: 0
e1b-> Hits: 64, Late: 604, Early: 0, Misses: 0
e1c-> Hits: 4, Late: 0, Early: 0, Misses: 0
e1d-> Hits: 0, Late: 3, Early: 0, Misses: 0
e1e-> Hits: 0, Late: 637, Early: 0, Misses: 31
e20-> Hits: 12, Late: 4, Early: 0, Misses: 0
e22-> Hits: 3, Late: 0, Early: 0, Misses: 0
e23-> Hits: 69, Late: 1250, Early: 0, Misses: 21
e25-> Hits: 1, Late: 0, Early: 0, Misses: 0
e26-> Hits: 2, Late: 0, Early: 0, Misses: 0
e27-> Hits: 1, Late: 0, Early: 0, Misses: 0
e28-> Hits: 9, Late: 667, Early: 0, Misses: 0
e29-> Hits: 1, Late: 0, Early: 0, Misses: 0
e2a-> Hits: 2, Late: 1, Early: 0, Misses: 0
e2c-> Hits: 3, Late: 666, Early: 0, Misses: 0
e2d-> Hits: 2, Late: 0, Early: 0, Misses: 0
e30-> Hits: 17, Late: 0, Early: 0, Misses: 0
e31-> Hits: 1, Late: 667, Early: 0, Misses: 0
e33-> Hits: 3, Late: 0, Early: 0, Misses: 0
e35-> Hits: 16, Late: 0, Early: 0, Misses: 0
e36-> Hits: 2, Late: 0, Early: 0, Misses: 0
e38-> Hits: 2, Late: 0, Early: 0, Misses: 0
e39-> Hits: 10, Late: 661, Early: 0, Misses: 0
e3a-> Hits: 1, Late: 0, Early: 0, Misses: 0
e3b-> Hits: 0, Late: 1, Early: 0, Misses: 0
e3c-> Hits: 5, Late: 1, Early: 0, Misses: 0
e3d-> Hits: 14, Late: 4, Early: 0, Misses: 0
e3e-> Hits: 1, Late: 0, Early: 0, Misses: 0
e3f-> Hits: 1, Late: 0, Early: 0, Misses: 0
e40-> Hits: 6, Late: 1, Early: 0, Misses: 0
e41-> Hits: 8, Late: 1112, Early: 0, Misses: 0
e42-> Hits: 2, Late: 0, Early: 0, Misses: 0
e44-> Hits: 3, Late: 0, Early: 0, Misses: 0
e45-> Hits: 1, Late: 1, Early: 0, Misses: 0
e47-> Hits: 2, Late: 0, Early: 0, Misses: 0
e48-> Hits: 3, Late: 0, Early: 0, Misses: 0
e49-> Hits: 0, Late: 648, Early: 0, Misses: 0
e4a-> Hits: 1, Late: 0, Early: 0, Misses: 0
e4c-> Hits: 0, Late: 1, Early: 0, Misses: 0
e4d-> Hits: 3, Late: 0, Early: 0, Misses: 0
e4f-> Hits: 2, Late: 0, Early: 0, Misses: 0
e50-> Hits: 0, Late: 3, Early: 0, Misses: 0
e51-> Hits: 2, Late: 0, Early: 0, Misses: 0
e54-> Hits: 1, Late: 0, Early: 0, Misses: 0
e55-> Hits: 3, Late: 0, Early: 0, Misses: 0
e57-> Hits: 7, Late: 0, Early: 0, Misses: 0
e58-> Hits: 2, Late: 0, Early: 0, Misses: 0
e59-> Hits: 20, Late: 0, Early: 0, Misses: 0
e5a-> Hits: 22, Late: 0, Early: 0, Misses: 0
e5b-> Hits: 22, Late: 0, Early: 0, Misses: 0
e5c-> Hits: 2, Late: 0, Early: 0, Misses: 0
e5d-> Hits: 20, Late: 0, Early: 0, Misses: 0
e5e-> Hits: 7, Late: 0, Early: 0, Misses: 0
e5f-> Hits: 20, Late: 0, Early: 0, Misses: 0
e60-> Hits: 6, Late: 2, Early: 0, Misses: 0
e61-> Hits: 22, Late: 0, Early: 0, Misses: 0
e62-> Hits: 2, Late: 0, Early: 0, Misses: 0
e63-> Hits: 26, Late: 0, Early: 0, Misses: 0
e64-> Hits: 0, Late: 1, Early: 0, Misses: 0
e65-> Hits: 6, Late: 0, Early: 0, Misses: 0
e68-> Hits: 2, Late: 0, Early: 0, Misses: 0
e6b-> Hits: 1, Late: 0, Early: 0, Misses: 0
e6c-> Hits: 1, Late: 0, Early: 0, Misses: 0
e6f-> Hits: 2, Late: 0, Early: 0, Misses: 0
e70-> Hits: 4, Late: 1, Early: 0, Misses: 0
e71-> Hits: 5, Late: 0, Early: 0, Misses: 1
e72-> Hits: 15, Late: 0, Early: 0, Misses: 0
e73-> Hits: 2, Late: 0, Early: 0, Misses: 0
e74-> Hits: 5, Late: 0, Early: 0, Misses: 0
e75-> Hits: 6, Late: 0, Early: 0, Misses: 0
e76-> Hits: 6, Late: 0, Early: 0, Misses: 0
e77-> Hits: 1, Late: 0, Early: 0, Misses: 0
e79-> Hits: 2, Late: 0, Early: 0, Misses: 0
e7a-> Hits: 1, Late: 0, Early: 0, Misses: 0
e7b-> Hits: 1, Late: 0, Early: 0, Misses: 0
e7d-> Hits: 0, Late: 63, Early: 0, Misses: 0
e7e-> Hits: 63, Late: 0, Early: 0, Misses: 0
e7f-> Hits: 66, Late: 0, Early: 0, Misses: 0
e80-> Hits: 1, Late: 0, Early: 0, Misses: 0
e81-> Hits: 6, Late: 63, Early: 0, Misses: 0
e82-> Hits: 3, Late: 0, Early: 0, Misses: 0
e83-> Hits: 65, Late: 0, Early: 0, Misses: 0
e84-> Hits: 218, Late: 78, Early: 0, Misses: 0
e85-> Hits: 63, Late: 0, Early: 0, Misses: 0
e86-> Hits: 2, Late: 0, Early: 0, Misses: 0
e87-> Hits: 63, Late: 0, Early: 0, Misses: 0
e88-> Hits: 657, Late: 13, Early: 0, Misses: 0
e8a-> Hits: 2, Late: 1, Early: 0, Misses: 0
e8b-> Hits: 2, Late: 0, Early: 0, Misses: 0
e8d-> Hits: 1, Late: 0, Early: 0, Misses: 0
e90-> Hits: 2, Late: 0, Early: 0, Misses: 0
e91-> Hits: 2, Late: 0, Early: 0, Misses: 0
e92-> Hits: 4, Late: 0, Early: 0, Misses: 0
e94-> Hits: 4, Late: 0, Early: 0, Misses: 0
e95-> Hits: 1, Late: 0, Early: 0, Misses: 0
e96-> Hits: 1, Late: 0, Early: 0, Misses: 0
e97-> Hits: 2, Late: 0, Early: 0, Misses: 0
e98-> Hits: 2, Late: 0, Early: 0, Misses: 0
e99-> Hits: 121, Late: 548, Early: 0, Misses: 0
e9a-> Hits: 2, Late: 0, Early: 0, Misses: 0
e9b-> Hits: 1, Late: 0, Early: 0, Misses: 0
e9d-> Hits: 1, Late: 0, Early: 0, Misses: 0
e9f-> Hits: 1, Late: 0, Early: 0, Misses: 0
ea0-> Hits: 2, Late: 1, Early: 0, Misses: 0
ea1-> Hits: 4, Late: 0, Early: 0, Misses: 0
ea2-> Hits: 2, Late: 0, Early: 0, Misses: 0
ea5-> Hits: 1, Late: 0, Early: 0, Misses: 0
ea6-> Hits: 0, Late: 1, Early: 0, Misses: 0
ea7-> Hits: 1, Late: 0, Early: 0, Misses: 0
ea8-> Hits: 1, Late: 0, Early: 0, Misses: 0
ea9-> Hits: 3, Late: 0, Early: 0, Misses: 0
eaa-> Hits: 1, Late: 0, Early: 0, Misses: 0
eab-> Hits: 5, Late: 0, Early: 0, Misses: 0
eac-> Hits: 1, Late: 0, Early: 0, Misses: 0
eaf-> Hits: 0, Late: 1, Early: 0, Misses: 0
eb0-> Hits: 698001, Late: 570604, Early: 0, Misses: 0
eb3-> Hits: 1, Late: 0, Early: 0, Misses: 0
eb4-> Hits: 1, Late: 0, Early: 0, Misses: 0
eb5-> Hits: 885805, Late: 196037, Early: 0, Misses: 0
eb6-> Hits: 3, Late: 2, Early: 0, Misses: 0
eb8-> Hits: 1, Late: 0, Early: 0, Misses: 0
eba-> Hits: 672600, Late: 571576, Early: 0, Misses: 0
ebc-> Hits: 3, Late: 0, Early: 0, Misses: 0
ebd-> Hits: 1, Late: 0, Early: 0, Misses: 0
ebe-> Hits: 2, Late: 0, Early: 0, Misses: 0
ebf-> Hits: 2, Late: 1, Early: 0, Misses: 0
ec0-> Hits: 867003, Late: 210560, Early: 0, Misses: 0
ec1-> Hits: 13, Late: 0, Early: 0, Misses: 0
ec2-> Hits: 2, Late: 0, Early: 0, Misses: 0
ec3-> Hits: 2, Late: 0, Early: 0, Misses: 0
ec4-> Hits: 1, Late: 1, Early: 0, Misses: 0
ec5-> Hits: 8, Late: 0, Early: 0, Misses: 0
ec6-> Hits: 612264, Late: 579775, Early: 0, Misses: 0
ec7-> Hits: 1, Late: 1, Early: 0, Misses: 0
ec8-> Hits: 1, Late: 0, Early: 0, Misses: 0
eca-> Hits: 1, Late: 0, Early: 0, Misses: 0
ecb-> Hits: 0, Late: 1, Early: 0, Misses: 0
ecc-> Hits: 843916, Late: 189545, Early: 0, Misses: 0
ecd-> Hits: 1, Late: 0, Early: 0, Misses: 0
ece-> Hits: 0, Late: 1, Early: 0, Misses: 0
ecf-> Hits: 4, Late: 0, Early: 0, Misses: 0
ed0-> Hits: 3, Late: 0, Early: 0, Misses: 0
ed1-> Hits: 668, Late: 3, Early: 0, Misses: 0
ed2-> Hits: 529240, Late: 633549, Early: 0, Misses: 0
ed3-> Hits: 2, Late: 0, Early: 0, Misses: 0
ed5-> Hits: 5, Late: 1, Early: 0, Misses: 0
ed6-> Hits: 1, Late: 0, Early: 0, Misses: 0
ed7-> Hits: 3, Late: 0, Early: 0, Misses: 0
ed8-> Hits: 817211, Late: 193779, Early: 0, Misses: 32
ed9-> Hits: 5, Late: 0, Early: 0, Misses: 0
edb-> Hits: 2, Late: 0, Early: 0, Misses: 0
edc-> Hits: 3, Late: 0, Early: 0, Misses: 0
edf-> Hits: 0, Late: 1, Early: 0, Misses: 0
ee0-> Hits: 245, Late: 426, Early: 0, Misses: 4
ee1-> Hits: 6, Late: 64, Early: 0, Misses: 0
ee2-> Hits: 3, Late: 0, Early: 0, Misses: 0
ee3-> Hits: 5, Late: 0, Early: 0, Misses: 0
ee4-> Hits: 8, Late: 0, Early: 0, Misses: 0
ee5-> Hits: 5, Late: 0, Early: 0, Misses: 0
ee7-> Hits: 5, Late: 0, Early: 0, Misses: 0
ee8-> Hits: 1, Late: 0, Early: 0, Misses: 0
ee9-> Hits: 6, Late: 0, Early: 0, Misses: 0
eea-> Hits: 5, Late: 0, Early: 0, Misses: 0
eeb-> Hits: 2, Late: 0, Early: 0, Misses: 0
eec-> Hits: 2, Late: 0, Early: 0, Misses: 0
eed-> Hits: 2, Late: 0, Early: 0, Misses: 0
eee-> Hits: 2, Late: 0, Early: 0, Misses: 0
eef-> Hits: 16, Late: 0, Early: 0, Misses: 0
ef0-> Hits: 5, Late: 0, Early: 0, Misses: 0
ef1-> Hits: 2, Late: 0, Early: 0, Misses: 0
ef2-> Hits: 3, Late: 0, Early: 0, Misses: 0
ef3-> Hits: 1, Late: 0, Early: 0, Misses: 0
ef4-> Hits: 63, Late: 0, Early: 0, Misses: 0
ef5-> Hits: 1, Late: 0, Early: 0, Misses: 0
ef6-> Hits: 2, Late: 0, Early: 0, Misses: 0
ef7-> Hits: 2, Late: 0, Early: 0, Misses: 0
ef8-> Hits: 3, Late: 2, Early: 0, Misses: 0
ef9-> Hits: 1, Late: 0, Early: 0, Misses: 0
efa-> Hits: 5, Late: 0, Early: 0, Misses: 0
efb-> Hits: 5, Late: 0, Early: 0, Misses: 0
efc-> Hits: 4, Late: 0, Early: 0, Misses: 0
efd-> Hits: 2, Late: 0, Early: 0, Misses: 0
efe-> Hits: 764484, Late: 1486951, Early: 0, Misses: 276
eff-> Hits: 6, Late: 0, Early: 0, Misses: 0
f00-> Hits: 4, Late: 0, Early: 0, Misses: 0
f01-> Hits: 4, Late: 0, Early: 0, Misses: 0
f02-> Hits: 4, Late: 0, Early: 0, Misses: 0
f03-> Hits: 2, Late: 0, Early: 0, Misses: 0
f04-> Hits: 6, Late: 0, Early: 0, Misses: 0
f05-> Hits: 3, Late: 0, Early: 0, Misses: 0
f06-> Hits: 8, Late: 0, Early: 0, Misses: 0
f07-> Hits: 2, Late: 0, Early: 0, Misses: 0
f08-> Hits: 4, Late: 0, Early: 0, Misses: 0
f09-> Hits: 9, Late: 0, Early: 0, Misses: 0
f0b-> Hits: 2, Late: 0, Early: 0, Misses: 0
f0c-> Hits: 6, Late: 2, Early: 0, Misses: 0
f0d-> Hits: 2, Late: 0, Early: 0, Misses: 0
f0e-> Hits: 2, Late: 0, Early: 0, Misses: 0
f10-> Hits: 40, Late: 3, Early: 0, Misses: 0
f13-> Hits: 34, Late: 0, Early: 0, Misses: 0
f15-> Hits: 1, Late: 0, Early: 0, Misses: 0
f16-> Hits: 1, Late: 0, Early: 0, Misses: 0
f17-> Hits: 675, Late: 0, Early: 0, Misses: 0
f18-> Hits: 1, Late: 0, Early: 0, Misses: 0
f19-> Hits: 4, Late: 4, Early: 0, Misses: 0
f1c-> Hits: 1, Late: 0, Early: 0, Misses: 0
f1e-> Hits: 2, Late: 0, Early: 0, Misses: 0
f20-> Hits: 450, Late: 129, Early: 0, Misses: 0
f21-> Hits: 28, Late: 55, Early: 0, Misses: 0
f22-> Hits: 7, Late: 0, Early: 0, Misses: 0
f23-> Hits: 6, Late: 0, Early: 0, Misses: 0
f24-> Hits: 38, Late: 0, Early: 0, Misses: 0
f25-> Hits: 534, Late: 34, Early: 0, Misses: 0
f26-> Hits: 1, Late: 0, Early: 0, Misses: 0
f27-> Hits: 16, Late: 0, Early: 0, Misses: 0
f28-> Hits: 2, Late: 0, Early: 0, Misses: 0
f29-> Hits: 18, Late: 1, Early: 0, Misses: 0
f2a-> Hits: 316, Late: 266, Early: 0, Misses: 0
f2b-> Hits: 64, Late: 1, Early: 0, Misses: 0
f2f-> Hits: 5, Late: 0, Early: 0, Misses: 0
f30-> Hits: 488, Late: 90, Early: 0, Misses: 0
f31-> Hits: 1924, Late: 0, Early: 0, Misses: 0
f32-> Hits: 36, Late: 0, Early: 0, Misses: 0
f33-> Hits: 9, Late: 0, Early: 0, Misses: 0
f34-> Hits: 1, Late: 2, Early: 0, Misses: 0
f37-> Hits: 65, Late: 0, Early: 0, Misses: 0
f39-> Hits: 3, Late: 0, Early: 0, Misses: 0
f3b-> Hits: 8, Late: 0, Early: 0, Misses: 0
f3c-> Hits: 8, Late: 0, Early: 0, Misses: 0
f3d-> Hits: 682, Late: 0, Early: 0, Misses: 0
f3e-> Hits: 1, Late: 0, Early: 0, Misses: 0
f3f-> Hits: 15, Late: 0, Early: 0, Misses: 0
f40-> Hits: 462, Late: 103, Early: 0, Misses: 0
f41-> Hits: 8, Late: 0, Early: 0, Misses: 0
f43-> Hits: 10, Late: 0, Early: 0, Misses: 0
f44-> Hits: 4, Late: 0, Early: 0, Misses: 0
f45-> Hits: 532, Late: 32, Early: 0, Misses: 0
f47-> Hits: 17, Late: 0, Early: 0, Misses: 0
f49-> Hits: 2, Late: 0, Early: 0, Misses: 0
f4a-> Hits: 313, Late: 252, Early: 0, Misses: 0
f4c-> Hits: 0, Late: 1, Early: 0, Misses: 0
f50-> Hits: 475, Late: 84, Early: 0, Misses: 0
f53-> Hits: 8, Late: 0, Early: 0, Misses: 0
f54-> Hits: 2, Late: 0, Early: 0, Misses: 0
f59-> Hits: 1441, Late: 699, Early: 0, Misses: 1
f5a-> Hits: 68, Late: 0, Early: 0, Misses: 0
f5b-> Hits: 1, Late: 0, Early: 0, Misses: 0
f5d-> Hits: 1, Late: 0, Early: 0, Misses: 0
f5e-> Hits: 1, Late: 0, Early: 0, Misses: 0
f5f-> Hits: 436, Late: 123, Early: 0, Misses: 0
f60-> Hits: 13, Late: 2, Early: 0, Misses: 0
f61-> Hits: 0, Late: 0, Early: 0, Misses: 1
f63-> Hits: 1, Late: 0, Early: 0, Misses: 0
f64-> Hits: 510, Late: 2171, Early: 0, Misses: 0
f65-> Hits: 4, Late: 1, Early: 0, Misses: 0
f66-> Hits: 53, Late: 0, Early: 0, Misses: 0
f68-> Hits: 2, Late: 0, Early: 0, Misses: 0
f69-> Hits: 314, Late: 242, Early: 0, Misses: 0
f6c-> Hits: 157, Late: 1, Early: 0, Misses: 0
f6d-> Hits: 10, Late: 0, Early: 0, Misses: 0
f6f-> Hits: 483, Late: 79, Early: 0, Misses: 0
f70-> Hits: 0, Late: 66, Early: 0, Misses: 0
f73-> Hits: 1, Late: 1, Early: 0, Misses: 0
f74-> Hits: 34, Late: 2108, Early: 0, Misses: 0
f78-> Hits: 34, Late: 2106, Early: 0, Misses: 0
f7a-> Hits: 4, Late: 0, Early: 0, Misses: 0
f7d-> Hits: 4, Late: 10, Early: 0, Misses: 0
f7e-> Hits: 305, Late: 237, Early: 0, Misses: 0
f7f-> Hits: 3, Late: 1, Early: 0, Misses: 0
f80-> Hits: 4, Late: 1, Early: 0, Misses: 0
f83-> Hits: 432, Late: 104, Early: 0, Misses: 0
f85-> Hits: 2, Late: 0, Early: 0, Misses: 0
f86-> Hits: 3, Late: 1, Early: 0, Misses: 0
f87-> Hits: 14, Late: 0, Early: 0, Misses: 0
f88-> Hits: 324, Late: 216, Early: 0, Misses: 0
f89-> Hits: 1, Late: 0, Early: 0, Misses: 0
f8b-> Hits: 114, Late: 0, Early: 0, Misses: 0
f8c-> Hits: 6, Late: 0, Early: 0, Misses: 0
f8d-> Hits: 4, Late: 0, Early: 0, Misses: 0
f8e-> Hits: 461, Late: 74, Early: 0, Misses: 0
f8f-> Hits: 1, Late: 0, Early: 0, Misses: 0
f90-> Hits: 6, Late: 0, Early: 0, Misses: 0
f91-> Hits: 1, Late: 0, Early: 0, Misses: 0
f92-> Hits: 2, Late: 0, Early: 0, Misses: 0
f93-> Hits: 6, Late: 0, Early: 0, Misses: 0
f94-> Hits: 1, Late: 0, Early: 0, Misses: 0
f95-> Hits: 0, Late: 2, Early: 0, Misses: 0
f96-> Hits: 1, Late: 0, Early: 0, Misses: 0
f98-> Hits: 1, Late: 0, Early: 0, Misses: 0
f9a-> Hits: 16, Late: 0, Early: 0, Misses: 0
f9c-> Hits: 3, Late: 0, Early: 0, Misses: 0
f9d-> Hits: 16, Late: 4, Early: 0, Misses: 0
f9e-> Hits: 1, Late: 0, Early: 0, Misses: 0
f9f-> Hits: 3, Late: 0, Early: 0, Misses: 0
fa0-> Hits: 5, Late: 1, Early: 0, Misses: 0
fa1-> Hits: 1, Late: 0, Early: 0, Misses: 0
fa4-> Hits: 1, Late: 0, Early: 0, Misses: 0
faa-> Hits: 3, Late: 0, Early: 0, Misses: 0
fb0-> Hits: 59, Late: 2104, Early: 0, Misses: 0
fb1-> Hits: 5, Late: 1, Early: 0, Misses: 0
fb3-> Hits: 10, Late: 0, Early: 0, Misses: 0
fb6-> Hits: 1, Late: 0, Early: 0, Misses: 0
fb8-> Hits: 5, Late: 0, Early: 0, Misses: 0
fba-> Hits: 61, Late: 216, Early: 0, Misses: 0
fbb-> Hits: 62, Late: 2, Early: 0, Misses: 0
fbd-> Hits: 1, Late: 0, Early: 0, Misses: 0
fbe-> Hits: 1, Late: 0, Early: 0, Misses: 0
fbf-> Hits: 2, Late: 0, Early: 0, Misses: 0
fc0-> Hits: 4, Late: 0, Early: 0, Misses: 0
fc1-> Hits: 382, Late: 126, Early: 0, Misses: 132
fc4-> Hits: 7, Late: 0, Early: 0, Misses: 0
fc5-> Hits: 3, Late: 0, Early: 0, Misses: 0
fc6-> Hits: 2, Late: 0, Early: 0, Misses: 0
fc7-> Hits: 2, Late: 0, Early: 0, Misses: 0
fc8-> Hits: 9, Late: 0, Early: 0, Misses: 0
fca-> Hits: 2, Late: 0, Early: 0, Misses: 0
fcb-> Hits: 1, Late: 0, Early: 0, Misses: 0
fcd-> Hits: 1, Late: 1, Early: 0, Misses: 0
fce-> Hits: 1, Late: 0, Early: 0, Misses: 0
fd0-> Hits: 4, Late: 0, Early: 0, Misses: 0
fd2-> Hits: 1, Late: 0, Early: 0, Misses: 0
fd5-> Hits: 400, Late: 119, Early: 0, Misses: 121
fd6-> Hits: 6, Late: 0, Early: 0, Misses: 0
fd7-> Hits: 6, Late: 0, Early: 0, Misses: 0
fd8-> Hits: 10, Late: 0, Early: 0, Misses: 0
fda-> Hits: 6, Late: 0, Early: 0, Misses: 0
fdc-> Hits: 7, Late: 1, Early: 0, Misses: 0
fde-> Hits: 8, Late: 0, Early: 0, Misses: 0
fdf-> Hits: 1435, Late: 400, Early: 0, Misses: 0
fe0-> Hits: 9, Late: 0, Early: 0, Misses: 0
fe1-> Hits: 4, Late: 0, Early: 0, Misses: 0
fe2-> Hits: 2, Late: 0, Early: 0, Misses: 0
fe3-> Hits: 4, Late: 0, Early: 0, Misses: 0
fe4-> Hits: 63, Late: 2, Early: 0, Misses: 0
fe5-> Hits: 6, Late: 7, Early: 0, Misses: 0
fe6-> Hits: 2, Late: 0, Early: 0, Misses: 0
fe7-> Hits: 1, Late: 1, Early: 0, Misses: 0
fe8-> Hits: 296, Late: 241, Early: 0, Misses: 0
feb-> Hits: 1, Late: 2, Early: 0, Misses: 0
fec-> Hits: 5, Late: 0, Early: 0, Misses: 0
fed-> Hits: 437, Late: 89, Early: 0, Misses: 0
fef-> Hits: 0, Late: 1, Early: 0, Misses: 0
ff0-> Hits: 8, Late: 0, Early: 0, Misses: 0
ff2-> Hits: 316, Late: 2359, Early: 0, Misses: 0
ff3-> Hits: 14, Late: 0, Early: 0, Misses: 0
ff5-> Hits: 2, Late: 0, Early: 0, Misses: 0
ff7-> Hits: 4, Late: 0, Early: 0, Misses: 0
ff8-> Hits: 429, Late: 90, Early: 0, Misses: 0
ff9-> Hits: 14, Late: 48, Early: 0, Misses: 0
ffd-> Hits: 2, Late: 0, Early: 0, Misses: 0
ffe-> Hits: 22, Late: 0, Early: 0, Misses: 0
fff-> Hits: 12, Late: 0, Early: 0, Misses: 0
Total misses (from ip) 10839846
Total accesses (misses) 351560944 10839846
Pref: Addr 0 IP 0 Current 0
CPU 0 L2C berti prefetcher final stats
Channel_0_RQ_row_buffer_hit 7639331
Channel_0_RQ_row_buffer_miss 5541207
Channel_0_WQ_row_buffer_hit 2299177
Channel_0_WQ_row_buffer_miss 4605139
Channel_0_WQ_full 0
Channel_0_dbus_congested 10861329

avg_congested_cycle 11

EzSearch AVG IPC :0.92436: L2-Pf-HR :0.76665 : L2-HR :0.77079 Uful:0.15487
     > Finished combination: TraceType=770-tot Sim:1617000000 Prefetcher=L2berti L1=berti
