TRACE: [597000000][OPT-6_7B]_[h32][s512][d128] Warmup: 2000000 NumTraces: 597000000
L1:isb_ideal:L2:isb_ideal
*************************************************
   ChampSim Multicore Out-of-Order Simulator
   Last compiled: Oct 27 2024 04:01:41
*************************************************

trace_0 770-tot_memTraces_v3/memTraces[597000000][OPT-6_7B]_[h32][s512][d128].champsim.xz
L1D: Ideal ISB Prefetching
Ideal ISB Prefetching
MAIN.cc ln 751 stats print skipped
CPU  0 inst:    1000000 cyc:     498902 now IPC :2.00440: AVG IPC :2.00440: L2-Pf-HR :1.00000: L2-HR :0.86045: (Sim:0h0m7s) 
CPU  0 inst:    2000001 cyc:     983466 now IPC :2.06371: AVG IPC :2.03362: L2-Pf-HR :1.00000: L2-HR :0.91279: (Sim:0h0m16s) 

Warmup complete CPU  0 instructions:    2000001 cycles:     983466 (Simulation time: 0 hr 0 min 16 sec) 

CPU  0 inst:    3000000 cyc:    1586834 now IPC :1.65736: AVG IPC :1.65736: L2-Pf-HR :1.00000: L2-HR :0.96611: (Sim:0h0m23s) 
CPU  0 inst:    4000001 cyc:    2180662 now IPC :1.68399: AVG IPC :1.67057: L2-Pf-HR :1.00000: L2-HR :0.96651: (Sim:0h0m30s) 
CPU  0 inst:    5000003 cyc:    2784121 now IPC :1.65712: AVG IPC :1.66606: L2-Pf-HR :1.00000: L2-HR :0.96604: (Sim:0h0m38s) 
CPU  0 inst:    6000003 cyc:    3382545 now IPC :1.67106: AVG IPC :1.66731: L2-Pf-HR :1.00000: L2-HR :0.96602: (Sim:0h0m45s) 
CPU  0 inst:    7000003 cyc:    3962976 now IPC :1.72286: AVG IPC :1.67813: L2-Pf-HR :0.99781: L2-HR :0.96503: (Sim:0h0m52s) 
CPU  0 inst:    8000000 cyc:    4509582 now IPC :1.82947: AVG IPC :1.70159: L2-Pf-HR :0.99743: L2-HR :0.96677: (Sim:0h0m59s) 
CPU  0 inst:    9000002 cyc:    5154314 now IPC :1.55104: AVG IPC :1.67832: L2-Pf-HR :0.99776: L2-HR :0.96391: (Sim:0h1m7s) 
CPU  0 inst:   10000004 cyc:    5730437 now IPC :1.73574: AVG IPC :1.68529: L2-Pf-HR :0.99793: L2-HR :0.96490: (Sim:0h1m15s) 
CPU  0 inst:   11000000 cyc:    6309236 now IPC :1.72771: AVG IPC :1.68990: L2-Pf-HR :0.99797: L2-HR :0.96554: (Sim:0h1m22s) 
CPU  0 inst:   12000002 cyc:    6879081 now IPC :1.75487: AVG IPC :1.69618: L2-Pf-HR :0.99793: L2-HR :0.96597: (Sim:0h1m30s) 
CPU  0 inst:   13000001 cyc:    7452259 now IPC :1.74466: AVG IPC :1.70047: L2-Pf-HR :0.99777: L2-HR :0.96606: (Sim:0h1m37s) 
CPU  0 inst:   14000003 cyc:    8022511 now IPC :1.75361: AVG IPC :1.70478: L2-Pf-HR :0.99746: L2-HR :0.96616: (Sim:0h1m44s) 
CPU  0 inst:   15000003 cyc:    8612455 now IPC :1.69508: AVG IPC :1.70403: L2-Pf-HR :0.99689: L2-HR :0.96583: (Sim:0h1m52s) 
CPU  0 inst:   16000005 cyc:    9174135 now IPC :1.78038: AVG IPC :1.70926: L2-Pf-HR :0.99680: L2-HR :0.96649: (Sim:0h2m0s) 
CPU  0 inst:   17000002 cyc:    9882365 now IPC :1.41197: AVG IPC :1.68560: L2-Pf-HR :0.99699: L2-HR :0.96520: (Sim:0h2m8s) 
CPU  0 inst:   18000001 cyc:   10496155 now IPC :1.62922: AVG IPC :1.68196: L2-Pf-HR :0.99713: L2-HR :0.96561: (Sim:0h2m16s) 
CPU  0 inst:   19000000 cyc:   11094959 now IPC :1.66999: AVG IPC :1.68126: L2-Pf-HR :0.99717: L2-HR :0.96599: (Sim:0h2m23s) 
CPU  0 inst:   20000002 cyc:   11707230 now IPC :1.63327: AVG IPC :1.67852: L2-Pf-HR :0.99716: L2-HR :0.96609: (Sim:0h2m32s) 
CPU  0 inst:   21000004 cyc:   12319615 now IPC :1.63296: AVG IPC :1.67605: L2-Pf-HR :0.99712: L2-HR :0.96612: (Sim:0h2m39s) 
CPU  0 inst:   22000004 cyc:   12924889 now IPC :1.65214: AVG IPC :1.67484: L2-Pf-HR :0.99699: L2-HR :0.96621: (Sim:0h2m47s) 
CPU  0 inst:   23000002 cyc:   13533388 now IPC :1.64338: AVG IPC :1.67332: L2-Pf-HR :0.99669: L2-HR :0.96603: (Sim:0h2m55s) 
CPU  0 inst:   24000002 cyc:   14102049 now IPC :1.75852: AVG IPC :1.67701: L2-Pf-HR :0.99665: L2-HR :0.96641: (Sim:0h3m2s) 
CPU  0 inst:   25000005 cyc:   14819389 now IPC :1.39404: AVG IPC :1.66234: L2-Pf-HR :0.99678: L2-HR :0.96560: (Sim:0h3m10s) 
CPU  0 inst:   26000001 cyc:   15434938 now IPC :1.62456: AVG IPC :1.66073: L2-Pf-HR :0.99689: L2-HR :0.96585: (Sim:0h3m18s) 
CPU  0 inst:   27000000 cyc:   16042630 now IPC :1.64557: AVG IPC :1.66012: L2-Pf-HR :0.99695: L2-HR :0.96609: (Sim:0h3m26s) 
CPU  0 inst:   28000002 cyc:   16659055 now IPC :1.62226: AVG IPC :1.65863: L2-Pf-HR :0.99695: L2-HR :0.96614: (Sim:0h3m33s) 
CPU  0 inst:   29000005 cyc:   17274792 now IPC :1.62407: AVG IPC :1.65732: L2-Pf-HR :0.99691: L2-HR :0.96616: (Sim:0h3m41s) 
CPU  0 inst:   30000005 cyc:   17879881 now IPC :1.65265: AVG IPC :1.65716: L2-Pf-HR :0.99685: L2-HR :0.96625: (Sim:0h3m48s) 
CPU  0 inst:   31000004 cyc:   18487349 now IPC :1.64618: AVG IPC :1.65678: L2-Pf-HR :0.99664: L2-HR :0.96609: (Sim:0h3m56s) 
CPU  0 inst:   32000001 cyc:   19057374 now IPC :1.75430: AVG IPC :1.65985: L2-Pf-HR :0.99662: L2-HR :0.96634: (Sim:0h4m4s) 
CPU  0 inst:   33000005 cyc:   19770166 now IPC :1.40294: AVG IPC :1.65010: L2-Pf-HR :0.99671: L2-HR :0.96574: (Sim:0h4m12s) 
CPU  0 inst:   34000001 cyc:   20382211 now IPC :1.63386: AVG IPC :1.64959: L2-Pf-HR :0.99679: L2-HR :0.96592: (Sim:0h4m20s) 
CPU  0 inst:   35000002 cyc:   20984852 now IPC :1.65936: AVG IPC :1.64989: L2-Pf-HR :0.99684: L2-HR :0.96608: (Sim:0h4m27s) 
CPU  0 inst:   36000002 cyc:   21597586 now IPC :1.63203: AVG IPC :1.64935: L2-Pf-HR :0.99685: L2-HR :0.96614: (Sim:0h4m35s) 
CPU  0 inst:   37000005 cyc:   22198709 now IPC :1.66356: AVG IPC :1.64976: L2-Pf-HR :0.99683: L2-HR :0.96620: (Sim:0h4m43s) 
CPU  0 inst:   38000003 cyc:   22811916 now IPC :1.63077: AVG IPC :1.64922: L2-Pf-HR :0.99679: L2-HR :0.96623: (Sim:0h4m51s) 
CPU  0 inst:   39000004 cyc:   23416502 now IPC :1.65403: AVG IPC :1.64935: L2-Pf-HR :0.99663: L2-HR :0.96608: (Sim:0h4m59s) 
CPU  0 inst:   40000004 cyc:   23984619 now IPC :1.76020: AVG IPC :1.65209: L2-Pf-HR :0.99661: L2-HR :0.96628: (Sim:0h5m6s) 
CPU  0 inst:   41000005 cyc:   24699389 now IPC :1.39905: AVG IPC :1.64446: L2-Pf-HR :0.99669: L2-HR :0.96580: (Sim:0h5m15s) 
CPU  0 inst:   42000004 cyc:   25296809 now IPC :1.67386: AVG IPC :1.64519: L2-Pf-HR :0.99676: L2-HR :0.96598: (Sim:0h5m22s) 
CPU  0 inst:   43000005 cyc:   25907135 now IPC :1.63847: AVG IPC :1.64502: L2-Pf-HR :0.99680: L2-HR :0.96607: (Sim:0h5m30s) 
CPU  0 inst:   44000002 cyc:   26517781 now IPC :1.63761: AVG IPC :1.64485: L2-Pf-HR :0.99681: L2-HR :0.96611: (Sim:0h5m38s) 
CPU  0 inst:   45000001 cyc:   27120162 now IPC :1.66008: AVG IPC :1.64520: L2-Pf-HR :0.99680: L2-HR :0.96618: (Sim:0h5m46s) 
CPU  0 inst:   46000003 cyc:   27728509 now IPC :1.64380: AVG IPC :1.64516: L2-Pf-HR :0.99677: L2-HR :0.96620: (Sim:0h5m53s) 
CPU  0 inst:   47000001 cyc:   28338971 now IPC :1.63810: AVG IPC :1.64501: L2-Pf-HR :0.99663: L2-HR :0.96606: (Sim:0h6m1s) 
CPU  0 inst:   48000000 cyc:   28914028 now IPC :1.73896: AVG IPC :1.64694: L2-Pf-HR :0.99662: L2-HR :0.96623: (Sim:0h6m9s) 
CPU  0 inst:   49000005 cyc:   29624234 now IPC :1.40805: AVG IPC :1.64102: L2-Pf-HR :0.99668: L2-HR :0.96584: (Sim:0h6m17s) 
CPU  0 inst:   50000004 cyc:   30223036 now IPC :1.67000: AVG IPC :1.64161: L2-Pf-HR :0.99673: L2-HR :0.96597: (Sim:0h6m25s) 
CPU  0 inst:   51000003 cyc:   30839368 now IPC :1.62250: AVG IPC :1.64122: L2-Pf-HR :0.99677: L2-HR :0.96604: (Sim:0h6m33s) 
CPU  0 inst:   52000002 cyc:   31449631 now IPC :1.63864: AVG IPC :1.64116: L2-Pf-HR :0.99677: L2-HR :0.96606: (Sim:0h6m41s) 
CPU  0 inst:   53000004 cyc:   32045093 now IPC :1.67937: AVG IPC :1.64190: L2-Pf-HR :0.99677: L2-HR :0.96614: (Sim:0h6m48s) 
CPU  0 inst:   54000003 cyc:   32650756 now IPC :1.65108: AVG IPC :1.64207: L2-Pf-HR :0.99675: L2-HR :0.96616: (Sim:0h6m56s) 
CPU  0 inst:   55000003 cyc:   33265497 now IPC :1.62670: AVG IPC :1.64178: L2-Pf-HR :0.99664: L2-HR :0.96605: (Sim:0h7m4s) 
CPU  0 inst:   56000001 cyc:   33837372 now IPC :1.74863: AVG IPC :1.64364: L2-Pf-HR :0.99663: L2-HR :0.96619: (Sim:0h7m12s) 
CPU  0 inst:   57000005 cyc:   34550593 now IPC :1.40210: AVG IPC :1.63851: L2-Pf-HR :0.99668: L2-HR :0.96585: (Sim:0h7m20s) 
CPU  0 inst:   58000004 cyc:   35157150 now IPC :1.64865: AVG IPC :1.63869: L2-Pf-HR :0.99673: L2-HR :0.96597: (Sim:0h7m28s) 
CPU  0 inst:   59000005 cyc:   35769998 now IPC :1.63173: AVG IPC :1.63857: L2-Pf-HR :0.99677: L2-HR :0.96603: (Sim:0h7m36s) 
CPU  0 inst:   60000002 cyc:   36370498 now IPC :1.66527: AVG IPC :1.63902: L2-Pf-HR :0.99677: L2-HR :0.96609: (Sim:0h7m44s) 
CPU  0 inst:   61000004 cyc:   36985391 now IPC :1.62630: AVG IPC :1.63880: L2-Pf-HR :0.99678: L2-HR :0.96613: (Sim:0h7m52s) 
CPU  0 inst:   62000000 cyc:   37601075 now IPC :1.62420: AVG IPC :1.63856: L2-Pf-HR :0.99675: L2-HR :0.96614: (Sim:0h7m59s) 
CPU  0 inst:   63000003 cyc:   38207639 now IPC :1.64864: AVG IPC :1.63872: L2-Pf-HR :0.99667: L2-HR :0.96604: (Sim:0h8m8s) 
CPU  0 inst:   64000001 cyc:   38772542 now IPC :1.77021: AVG IPC :1.64069: L2-Pf-HR :0.99665: L2-HR :0.96614: (Sim:0h8m15s) 
CPU  0 inst:   65000005 cyc:   39472626 now IPC :1.42841: AVG IPC :1.63682: L2-Pf-HR :0.99670: L2-HR :0.96588: (Sim:0h8m24s) 
CPU  0 inst:   66000001 cyc:   40088149 now IPC :1.62463: AVG IPC :1.63663: L2-Pf-HR :0.99674: L2-HR :0.96595: (Sim:0h8m32s) 
CPU  0 inst:   67000002 cyc:   40702439 now IPC :1.62790: AVG IPC :1.63650: L2-Pf-HR :0.99677: L2-HR :0.96600: (Sim:0h8m40s) 
CPU  0 inst:   68000002 cyc:   41307506 now IPC :1.65271: AVG IPC :1.63674: L2-Pf-HR :0.99678: L2-HR :0.96606: (Sim:0h8m47s) 
CPU  0 inst:   69000004 cyc:   41920554 now IPC :1.63120: AVG IPC :1.63666: L2-Pf-HR :0.99678: L2-HR :0.96610: (Sim:0h8m55s) 
CPU  0 inst:   70000002 cyc:   42526890 now IPC :1.64925: AVG IPC :1.63684: L2-Pf-HR :0.99675: L2-HR :0.96612: (Sim:0h9m6s) 
CPU  0 inst:   71000003 cyc:   43147986 now IPC :1.61006: AVG IPC :1.63645: L2-Pf-HR :0.99669: L2-HR :0.96603: (Sim:0h9m24s) 
CPU  0 inst:   72000001 cyc:   43719651 now IPC :1.74927: AVG IPC :1.63796: L2-Pf-HR :0.99668: L2-HR :0.96611: (Sim:0h9m41s) 
CPU  0 inst:   73000005 cyc:   44413046 now IPC :1.44219: AVG IPC :1.63483: L2-Pf-HR :0.99672: L2-HR :0.96588: (Sim:0h10m0s) 
CPU  0 inst:   74000001 cyc:   45030451 now IPC :1.61968: AVG IPC :1.63462: L2-Pf-HR :0.99675: L2-HR :0.96594: (Sim:0h10m17s) 
CPU  0 inst:   75000000 cyc:   45641381 now IPC :1.63685: AVG IPC :1.63465: L2-Pf-HR :0.99678: L2-HR :0.96599: (Sim:0h10m35s) 
CPU  0 inst:   76000002 cyc:   46237471 now IPC :1.67760: AVG IPC :1.63521: L2-Pf-HR :0.99679: L2-HR :0.96605: (Sim:0h10m52s) 
CPU  0 inst:   77000004 cyc:   46845841 now IPC :1.64374: AVG IPC :1.63533: L2-Pf-HR :0.99679: L2-HR :0.96609: (Sim:0h11m10s) 
CPU  0 inst:   78000002 cyc:   47448228 now IPC :1.66006: AVG IPC :1.63565: L2-Pf-HR :0.99677: L2-HR :0.96611: (Sim:0h11m27s) 
CPU  0 inst:   79000000 cyc:   48073423 now IPC :1.59950: AVG IPC :1.63517: L2-Pf-HR :0.99671: L2-HR :0.96602: (Sim:0h11m45s) 
CPU  0 inst:   80000000 cyc:   48649667 now IPC :1.73538: AVG IPC :1.63638: L2-Pf-HR :0.99670: L2-HR :0.96609: (Sim:0h12m2s) 
CPU  0 inst:   81000005 cyc:   49352695 now IPC :1.42243: AVG IPC :1.63327: L2-Pf-HR :0.99674: L2-HR :0.96588: (Sim:0h12m20s) 
CPU  0 inst:   82000001 cyc:   49956682 now IPC :1.65566: AVG IPC :1.63355: L2-Pf-HR :0.99677: L2-HR :0.96593: (Sim:0h12m28s) 
CPU  0 inst:   83000000 cyc:   50554720 now IPC :1.67213: AVG IPC :1.63401: L2-Pf-HR :0.99680: L2-HR :0.96600: (Sim:0h12m36s) 
CPU  0 inst:   84000002 cyc:   51162970 now IPC :1.64406: AVG IPC :1.63413: L2-Pf-HR :0.99681: L2-HR :0.96604: (Sim:0h12m50s) 
CPU  0 inst:   85000004 cyc:   51774173 now IPC :1.63612: AVG IPC :1.63416: L2-Pf-HR :0.99681: L2-HR :0.96606: (Sim:0h13m9s) 
CPU  0 inst:   86000005 cyc:   52374736 now IPC :1.66511: AVG IPC :1.63452: L2-Pf-HR :0.99679: L2-HR :0.96608: (Sim:0h13m27s) 
CPU  0 inst:   87000002 cyc:   52995439 now IPC :1.61107: AVG IPC :1.63424: L2-Pf-HR :0.99674: L2-HR :0.96600: (Sim:0h13m45s) 
CPU  0 inst:   88000000 cyc:   53571598 now IPC :1.73563: AVG IPC :1.63535: L2-Pf-HR :0.99673: L2-HR :0.96607: (Sim:0h13m58s) 
CPU  0 inst:   89000004 cyc:   54273859 now IPC :1.42398: AVG IPC :1.63256: L2-Pf-HR :0.99676: L2-HR :0.96587: (Sim:0h14m7s) 
CPU  0 inst:   90000003 cyc:   54888157 now IPC :1.62787: AVG IPC :1.63251: L2-Pf-HR :0.99679: L2-HR :0.96592: (Sim:0h14m15s) 
CPU  0 inst:   91000000 cyc:   55496656 now IPC :1.64338: AVG IPC :1.63263: L2-Pf-HR :0.99682: L2-HR :0.96599: (Sim:0h14m23s) 
CPU  0 inst:   92000002 cyc:   56108033 now IPC :1.63566: AVG IPC :1.63267: L2-Pf-HR :0.99683: L2-HR :0.96602: (Sim:0h14m31s) 
CPU  0 inst:   93000000 cyc:   56714102 now IPC :1.64997: AVG IPC :1.63285: L2-Pf-HR :0.99683: L2-HR :0.96605: (Sim:0h14m39s) 
CPU  0 inst:   94000002 cyc:   57314241 now IPC :1.66628: AVG IPC :1.63321: L2-Pf-HR :0.99681: L2-HR :0.96606: (Sim:0h14m47s) 
CPU  0 inst:   95000004 cyc:   57929224 now IPC :1.62606: AVG IPC :1.63313: L2-Pf-HR :0.99677: L2-HR :0.96599: (Sim:0h14m56s) 
CPU  0 inst:   96000002 cyc:   58496641 now IPC :1.76237: AVG IPC :1.63441: L2-Pf-HR :0.99675: L2-HR :0.96605: (Sim:0h15m8s) 
CPU  0 inst:   97000005 cyc:   59195939 now IPC :1.43001: AVG IPC :1.63195: L2-Pf-HR :0.99678: L2-HR :0.96586: (Sim:0h15m17s) 
CPU  0 inst:   98000001 cyc:   59810139 now IPC :1.62813: AVG IPC :1.63191: L2-Pf-HR :0.99681: L2-HR :0.96591: (Sim:0h15m25s) 
CPU  0 inst:   99000000 cyc:   60408688 now IPC :1.67071: AVG IPC :1.63230: L2-Pf-HR :0.99683: L2-HR :0.96597: (Sim:0h15m33s) 
CPU  0 inst:  100000002 cyc:   61025676 now IPC :1.62078: AVG IPC :1.63219: L2-Pf-HR :0.99684: L2-HR :0.96601: (Sim:0h15m41s) 
CPU  0 inst:  101000004 cyc:   61629277 now IPC :1.65673: AVG IPC :1.63243: L2-Pf-HR :0.99683: L2-HR :0.96604: (Sim:0h15m49s) 
CPU  0 inst:  102000005 cyc:   62242377 now IPC :1.63106: AVG IPC :1.63242: L2-Pf-HR :0.99683: L2-HR :0.96604: (Sim:0h15m58s) 
CPU  0 inst:  103000004 cyc:   62865582 now IPC :1.60461: AVG IPC :1.63214: L2-Pf-HR :0.99678: L2-HR :0.96598: (Sim:0h16m8s) 
CPU  0 inst:  104000005 cyc:   63434955 now IPC :1.75632: AVG IPC :1.63327: L2-Pf-HR :0.99677: L2-HR :0.96603: (Sim:0h16m16s) 
CPU  0 inst:  105000000 cyc:   64141524 now IPC :1.41528: AVG IPC :1.63083: L2-Pf-HR :0.99679: L2-HR :0.96585: (Sim:0h16m25s) 
CPU  0 inst:  106000004 cyc:   64747316 now IPC :1.65074: AVG IPC :1.63102: L2-Pf-HR :0.99682: L2-HR :0.96591: (Sim:0h16m33s) 
CPU  0 inst:  107000003 cyc:   65366249 now IPC :1.61568: AVG IPC :1.63087: L2-Pf-HR :0.99684: L2-HR :0.96596: (Sim:0h16m42s) 
CPU  0 inst:  108000002 cyc:   65979879 now IPC :1.62964: AVG IPC :1.63086: L2-Pf-HR :0.99685: L2-HR :0.96600: (Sim:0h16m50s) 
CPU  0 inst:  109000004 cyc:   66582814 now IPC :1.65856: AVG IPC :1.63111: L2-Pf-HR :0.99685: L2-HR :0.96602: (Sim:0h16m59s) 
CPU  0 inst:  110000003 cyc:   67191701 now IPC :1.64234: AVG IPC :1.63122: L2-Pf-HR :0.99684: L2-HR :0.96602: (Sim:0h17m7s) 
CPU  0 inst:  111000004 cyc:   67809801 now IPC :1.61786: AVG IPC :1.63109: L2-Pf-HR :0.99680: L2-HR :0.96597: (Sim:0h17m24s) 
CPU  0 inst:  112000005 cyc:   68378171 now IPC :1.75942: AVG IPC :1.63218: L2-Pf-HR :0.99679: L2-HR :0.96601: (Sim:0h17m38s) 
CPU  0 inst:  113000001 cyc:   69079955 now IPC :1.42493: AVG IPC :1.63004: L2-Pf-HR :0.99681: L2-HR :0.96585: (Sim:0h17m48s) 
CPU  0 inst:  114000001 cyc:   69684042 now IPC :1.65539: AVG IPC :1.63026: L2-Pf-HR :0.99683: L2-HR :0.96591: (Sim:0h17m57s) 
CPU  0 inst:  115000003 cyc:   70295875 now IPC :1.63444: AVG IPC :1.63030: L2-Pf-HR :0.99685: L2-HR :0.96596: (Sim:0h18m6s) 
CPU  0 inst:  116000005 cyc:   70909190 now IPC :1.63049: AVG IPC :1.63030: L2-Pf-HR :0.99686: L2-HR :0.96598: (Sim:0h18m15s) 
CPU  0 inst:  117000004 cyc:   71516527 now IPC :1.64653: AVG IPC :1.63044: L2-Pf-HR :0.99686: L2-HR :0.96601: (Sim:0h18m23s) 
CPU  0 inst:  118000000 cyc:   72133496 now IPC :1.62082: AVG IPC :1.63036: L2-Pf-HR :0.99685: L2-HR :0.96600: (Sim:0h18m34s) 
CPU  0 inst:  119000003 cyc:   72756802 now IPC :1.60435: AVG IPC :1.63013: L2-Pf-HR :0.99681: L2-HR :0.96596: (Sim:0h18m52s) 
CPU  0 inst:  120000004 cyc:   73326040 now IPC :1.75674: AVG IPC :1.63113: L2-Pf-HR :0.99680: L2-HR :0.96600: (Sim:0h19m10s) 
CPU  0 inst:  121000004 cyc:   74032886 now IPC :1.41474: AVG IPC :1.62903: L2-Pf-HR :0.99682: L2-HR :0.96584: (Sim:0h19m29s) 
CPU  0 inst:  122000001 cyc:   74626430 now IPC :1.68479: AVG IPC :1.62948: L2-Pf-HR :0.99684: L2-HR :0.96590: (Sim:0h19m47s) 
CPU  0 inst:  123000003 cyc:   75232117 now IPC :1.65102: AVG IPC :1.62966: L2-Pf-HR :0.99686: L2-HR :0.96595: (Sim:0h20m4s) 
CPU  0 inst:  124000002 cyc:   75832771 now IPC :1.66485: AVG IPC :1.62994: L2-Pf-HR :0.99687: L2-HR :0.96599: (Sim:0h20m12s) 
CPU  0 inst:  125000004 cyc:   76446295 now IPC :1.62993: AVG IPC :1.62994: L2-Pf-HR :0.99687: L2-HR :0.96600: (Sim:0h20m21s) 
CPU  0 inst:  126000002 cyc:   77058842 now IPC :1.63252: AVG IPC :1.62996: L2-Pf-HR :0.99686: L2-HR :0.96599: (Sim:0h20m29s) 
CPU  0 inst:  127000003 cyc:   77678426 now IPC :1.61399: AVG IPC :1.62983: L2-Pf-HR :0.99683: L2-HR :0.96596: (Sim:0h20m37s) 
CPU  0 inst:  128000001 cyc:   78250849 now IPC :1.74696: AVG IPC :1.63070: L2-Pf-HR :0.99682: L2-HR :0.96599: (Sim:0h20m45s) 
CPU  0 inst:  129000002 cyc:   78945377 now IPC :1.43983: AVG IPC :1.62900: L2-Pf-HR :0.99683: L2-HR :0.96586: (Sim:0h21m2s) 
CPU  0 inst:  130000003 cyc:   79555386 now IPC :1.63932: AVG IPC :1.62908: L2-Pf-HR :0.99686: L2-HR :0.96590: (Sim:0h21m20s) 
CPU  0 inst:  131000003 cyc:   80167045 now IPC :1.63490: AVG IPC :1.62913: L2-Pf-HR :0.99687: L2-HR :0.96594: (Sim:0h21m38s) 
CPU  0 inst:  132000004 cyc:   80774875 now IPC :1.64520: AVG IPC :1.62925: L2-Pf-HR :0.99688: L2-HR :0.96598: (Sim:0h21m56s) 
CPU  0 inst:  133000004 cyc:   81382604 now IPC :1.64547: AVG IPC :1.62937: L2-Pf-HR :0.99688: L2-HR :0.96599: (Sim:0h22m14s) 
CPU  0 inst:  134000000 cyc:   81993715 now IPC :1.63636: AVG IPC :1.62942: L2-Pf-HR :0.99687: L2-HR :0.96599: (Sim:0h22m31s) 
CPU  0 inst:  135000003 cyc:   82619505 now IPC :1.59798: AVG IPC :1.62918: L2-Pf-HR :0.99685: L2-HR :0.96596: (Sim:0h22m50s) 
CPU  0 inst:  136000001 cyc:   83196757 now IPC :1.73234: AVG IPC :1.62991: L2-Pf-HR :0.99683: L2-HR :0.96599: (Sim:0h23m7s) 
CPU  0 inst:  137000005 cyc:   83883624 now IPC :1.45589: AVG IPC :1.62846: L2-Pf-HR :0.99685: L2-HR :0.96586: (Sim:0h23m26s) 
CPU  0 inst:  138000001 cyc:   84501737 now IPC :1.61782: AVG IPC :1.62839: L2-Pf-HR :0.99687: L2-HR :0.96591: (Sim:0h23m44s) 
CPU  0 inst:  139000003 cyc:   85112912 now IPC :1.63620: AVG IPC :1.62844: L2-Pf-HR :0.99688: L2-HR :0.96595: (Sim:0h24m2s) 
CPU  0 inst:  140000001 cyc:   85715651 now IPC :1.65909: AVG IPC :1.62866: L2-Pf-HR :0.99689: L2-HR :0.96597: (Sim:0h24m20s) 
CPU  0 inst:  141000004 cyc:   86327466 now IPC :1.63449: AVG IPC :1.62870: L2-Pf-HR :0.99689: L2-HR :0.96598: (Sim:0h24m38s) 
CPU  0 inst:  142000000 cyc:   86930564 now IPC :1.65810: AVG IPC :1.62891: L2-Pf-HR :0.99688: L2-HR :0.96599: (Sim:0h24m55s) 
CPU  0 inst:  143000005 cyc:   87561519 now IPC :1.58491: AVG IPC :1.62859: L2-Pf-HR :0.99686: L2-HR :0.96596: (Sim:0h25m13s) 
CPU  0 inst:  144000000 cyc:   88134419 now IPC :1.74550: AVG IPC :1.62936: L2-Pf-HR :0.99684: L2-HR :0.96598: (Sim:0h25m31s) 
CPU  0 inst:  145000000 cyc:   88818533 now IPC :1.46174: AVG IPC :1.62805: L2-Pf-HR :0.99686: L2-HR :0.96586: (Sim:0h25m50s) 
CPU  0 inst:  146000001 cyc:   89436486 now IPC :1.61825: AVG IPC :1.62798: L2-Pf-HR :0.99688: L2-HR :0.96591: (Sim:0h26m8s) 
CPU  0 inst:  147000000 cyc:   90042828 now IPC :1.64923: AVG IPC :1.62813: L2-Pf-HR :0.99689: L2-HR :0.96595: (Sim:0h26m26s) 
CPU  0 inst:  148000005 cyc:   90658361 now IPC :1.62462: AVG IPC :1.62810: L2-Pf-HR :0.99690: L2-HR :0.96597: (Sim:0h26m43s) 
CPU  0 inst:  149000004 cyc:   91271783 now IPC :1.63020: AVG IPC :1.62812: L2-Pf-HR :0.99690: L2-HR :0.96597: (Sim:0h27m1s) 
CPU  0 inst:  150000000 cyc:   91878215 now IPC :1.64898: AVG IPC :1.62826: L2-Pf-HR :0.99689: L2-HR :0.96599: (Sim:0h27m19s) 
CPU  0 inst:  151000002 cyc:   92507557 now IPC :1.58896: AVG IPC :1.62799: L2-Pf-HR :0.99687: L2-HR :0.96596: (Sim:0h27m37s) 
CPU  0 inst:  152000000 cyc:   93082423 now IPC :1.73953: AVG IPC :1.62868: L2-Pf-HR :0.99685: L2-HR :0.96597: (Sim:0h27m55s) 
CPU  0 inst:  153000005 cyc:   93763453 now IPC :1.46837: AVG IPC :1.62751: L2-Pf-HR :0.99686: L2-HR :0.96586: (Sim:0h28m14s) 
CPU  0 inst:  154000001 cyc:   94389322 now IPC :1.59777: AVG IPC :1.62731: L2-Pf-HR :0.99688: L2-HR :0.96590: (Sim:0h28m32s) 
CPU  0 inst:  155000003 cyc:   94998139 now IPC :1.64253: AVG IPC :1.62741: L2-Pf-HR :0.99690: L2-HR :0.96594: (Sim:0h28m43s) 
CPU  0 inst:  156000001 cyc:   95607387 now IPC :1.64136: AVG IPC :1.62750: L2-Pf-HR :0.99690: L2-HR :0.96596: (Sim:0h28m51s) 
CPU  0 inst:  157000001 cyc:   96217886 now IPC :1.63800: AVG IPC :1.62756: L2-Pf-HR :0.99690: L2-HR :0.96596: (Sim:0h28m59s) 
CPU  0 inst:  158000000 cyc:   96821676 now IPC :1.65620: AVG IPC :1.62774: L2-Pf-HR :0.99689: L2-HR :0.96598: (Sim:0h29m7s) 
CPU  0 inst:  159000004 cyc:   97447624 now IPC :1.59758: AVG IPC :1.62755: L2-Pf-HR :0.99687: L2-HR :0.96596: (Sim:0h29m16s) 
CPU  0 inst:  160000002 cyc:   98015328 now IPC :1.76148: AVG IPC :1.62833: L2-Pf-HR :0.99685: L2-HR :0.96596: (Sim:0h29m24s) 
CPU  0 inst:  161000002 cyc:   98701525 now IPC :1.45731: AVG IPC :1.62713: L2-Pf-HR :0.99686: L2-HR :0.96585: (Sim:0h29m33s) 
CPU  0 inst:  162000001 cyc:   99321931 now IPC :1.61185: AVG IPC :1.62703: L2-Pf-HR :0.99688: L2-HR :0.96589: (Sim:0h29m41s) 
CPU  0 inst:  163000003 cyc:   99927059 now IPC :1.65255: AVG IPC :1.62719: L2-Pf-HR :0.99690: L2-HR :0.96593: (Sim:0h29m49s) 
CPU  0 inst:  164000004 cyc:  100541300 now IPC :1.62803: AVG IPC :1.62719: L2-Pf-HR :0.99690: L2-HR :0.96595: (Sim:0h29m57s) 
CPU  0 inst:  165000004 cyc:  101142757 now IPC :1.66263: AVG IPC :1.62741: L2-Pf-HR :0.99690: L2-HR :0.96596: (Sim:0h30m6s) 
CPU  0 inst:  166000002 cyc:  101753859 now IPC :1.63638: AVG IPC :1.62746: L2-Pf-HR :0.99690: L2-HR :0.96597: (Sim:0h30m14s) 
CPU  0 inst:  167000004 cyc:  102386441 now IPC :1.58083: AVG IPC :1.62717: L2-Pf-HR :0.99688: L2-HR :0.96595: (Sim:0h30m22s) 
CPU  0 inst:  168000002 cyc:  102958449 now IPC :1.74822: AVG IPC :1.62785: L2-Pf-HR :0.99686: L2-HR :0.96596: (Sim:0h30m30s) 
CPU  0 inst:  169000002 cyc:  103637551 now IPC :1.47253: AVG IPC :1.62682: L2-Pf-HR :0.99687: L2-HR :0.96586: (Sim:0h30m39s) 
CPU  0 inst:  170000001 cyc:  104254339 now IPC :1.62130: AVG IPC :1.62679: L2-Pf-HR :0.99688: L2-HR :0.96590: (Sim:0h30m47s) 
CPU  0 inst:  171000003 cyc:  104867556 now IPC :1.63075: AVG IPC :1.62681: L2-Pf-HR :0.99690: L2-HR :0.96592: (Sim:0h30m55s) 
CPU  0 inst:  172000000 cyc:  105480398 now IPC :1.63174: AVG IPC :1.62684: L2-Pf-HR :0.99690: L2-HR :0.96593: (Sim:0h31m3s) 
CPU  0 inst:  173000004 cyc:  106077810 now IPC :1.67389: AVG IPC :1.62711: L2-Pf-HR :0.99690: L2-HR :0.96595: (Sim:0h31m12s) 
CPU  0 inst:  174000000 cyc:  106685080 now IPC :1.64671: AVG IPC :1.62722: L2-Pf-HR :0.99690: L2-HR :0.96596: (Sim:0h31m20s) 
CPU  0 inst:  175000004 cyc:  107314144 now IPC :1.58967: AVG IPC :1.62700: L2-Pf-HR :0.99688: L2-HR :0.96594: (Sim:0h31m29s) 
CPU  0 inst:  176000005 cyc:  107891233 now IPC :1.73284: AVG IPC :1.62757: L2-Pf-HR :0.99686: L2-HR :0.96595: (Sim:0h31m38s) 
CPU  0 inst:  177000002 cyc:  108568928 now IPC :1.47559: AVG IPC :1.62661: L2-Pf-HR :0.99687: L2-HR :0.96585: (Sim:0h31m52s) 
CPU  0 inst:  178000001 cyc:  109183676 now IPC :1.62668: AVG IPC :1.62661: L2-Pf-HR :0.99689: L2-HR :0.96589: (Sim:0h32m10s) 
CPU  0 inst:  179000003 cyc:  109794886 now IPC :1.63610: AVG IPC :1.62667: L2-Pf-HR :0.99690: L2-HR :0.96591: (Sim:0h32m28s) 
CPU  0 inst:  180000005 cyc:  110405046 now IPC :1.63892: AVG IPC :1.62674: L2-Pf-HR :0.99691: L2-HR :0.96593: (Sim:0h32m46s) 
CPU  0 inst:  181000003 cyc:  111005011 now IPC :1.66676: AVG IPC :1.62695: L2-Pf-HR :0.99691: L2-HR :0.96595: (Sim:0h33m4s) 
CPU  0 inst:  182000000 cyc:  111611012 now IPC :1.65016: AVG IPC :1.62708: L2-Pf-HR :0.99690: L2-HR :0.96596: (Sim:0h33m22s) 
CPU  0 inst:  183000003 cyc:  112239441 now IPC :1.59127: AVG IPC :1.62688: L2-Pf-HR :0.99689: L2-HR :0.96594: (Sim:0h33m41s) 
CPU  0 inst:  184000003 cyc:  112816826 now IPC :1.73195: AVG IPC :1.62742: L2-Pf-HR :0.99687: L2-HR :0.96595: (Sim:0h33m59s) 
CPU  0 inst:  185000002 cyc:  113485436 now IPC :1.49564: AVG IPC :1.62664: L2-Pf-HR :0.99688: L2-HR :0.96585: (Sim:0h34m18s) 
CPU  0 inst:  186000000 cyc:  114106646 now IPC :1.60976: AVG IPC :1.62655: L2-Pf-HR :0.99690: L2-HR :0.96589: (Sim:0h34m36s) 
CPU  0 inst:  187000000 cyc:  114719545 now IPC :1.63159: AVG IPC :1.62657: L2-Pf-HR :0.99691: L2-HR :0.96591: (Sim:0h34m54s) 
CPU  0 inst:  188000002 cyc:  115326275 now IPC :1.64818: AVG IPC :1.62669: L2-Pf-HR :0.99692: L2-HR :0.96593: (Sim:0h35m12s) 
CPU  0 inst:  189000004 cyc:  115941488 now IPC :1.62546: AVG IPC :1.62668: L2-Pf-HR :0.99692: L2-HR :0.96595: (Sim:0h35m30s) 
CPU  0 inst:  190000002 cyc:  116550292 now IPC :1.64256: AVG IPC :1.62676: L2-Pf-HR :0.99691: L2-HR :0.96596: (Sim:0h35m48s) 
CPU  0 inst:  191000005 cyc:  117176640 now IPC :1.59656: AVG IPC :1.62660: L2-Pf-HR :0.99690: L2-HR :0.96593: (Sim:0h36m7s) 
CPU  0 inst:  192000001 cyc:  117756381 now IPC :1.72490: AVG IPC :1.62709: L2-Pf-HR :0.99688: L2-HR :0.96594: (Sim:0h36m25s) 
CPU  0 inst:  193000002 cyc:  118422186 now IPC :1.50194: AVG IPC :1.62638: L2-Pf-HR :0.99689: L2-HR :0.96585: (Sim:0h36m44s) 
CPU  0 inst:  194000004 cyc:  119049634 now IPC :1.59376: AVG IPC :1.62621: L2-Pf-HR :0.99690: L2-HR :0.96588: (Sim:0h37m2s) 
CPU  0 inst:  195000003 cyc:  119661273 now IPC :1.63495: AVG IPC :1.62625: L2-Pf-HR :0.99691: L2-HR :0.96590: (Sim:0h37m20s) 
CPU  0 inst:  196000005 cyc:  120260814 now IPC :1.66795: AVG IPC :1.62646: L2-Pf-HR :0.99692: L2-HR :0.96593: (Sim:0h37m38s) 
CPU  0 inst:  197000004 cyc:  120868993 now IPC :1.64425: AVG IPC :1.62655: L2-Pf-HR :0.99692: L2-HR :0.96594: (Sim:0h37m56s) 
CPU  0 inst:  198000000 cyc:  121478542 now IPC :1.64055: AVG IPC :1.62662: L2-Pf-HR :0.99692: L2-HR :0.96595: (Sim:0h38m15s) 
CPU  0 inst:  199000003 cyc:  122098776 now IPC :1.61230: AVG IPC :1.62655: L2-Pf-HR :0.99690: L2-HR :0.96593: (Sim:0h38m33s) 
CPU  0 inst:  200000001 cyc:  122672897 now IPC :1.74179: AVG IPC :1.62709: L2-Pf-HR :0.99689: L2-HR :0.96593: (Sim:0h38m51s) 
CPU  0 inst:  201000002 cyc:  123296371 now IPC :1.60392: AVG IPC :1.62697: L2-Pf-HR :0.99690: L2-HR :0.96591: (Sim:0h39m10s) 
CPU  0 inst:  202000004 cyc:  123955863 now IPC :1.51632: AVG IPC :1.62638: L2-Pf-HR :0.99691: L2-HR :0.96588: (Sim:0h39m28s) 
CPU  0 inst:  203000003 cyc:  124566354 now IPC :1.63802: AVG IPC :1.62644: L2-Pf-HR :0.99692: L2-HR :0.96590: (Sim:0h39m47s) 
CPU  0 inst:  204000005 cyc:  125174937 now IPC :1.64316: AVG IPC :1.62652: L2-Pf-HR :0.99693: L2-HR :0.96592: (Sim:0h40m5s) 
CPU  0 inst:  205000001 cyc:  125787061 now IPC :1.63365: AVG IPC :1.62656: L2-Pf-HR :0.99693: L2-HR :0.96594: (Sim:0h40m23s) 
CPU  0 inst:  206000000 cyc:  126397451 now IPC :1.63830: AVG IPC :1.62661: L2-Pf-HR :0.99692: L2-HR :0.96595: (Sim:0h40m41s) 
CPU  0 inst:  207000000 cyc:  127004874 now IPC :1.64630: AVG IPC :1.62671: L2-Pf-HR :0.99692: L2-HR :0.96597: (Sim:0h40m58s) 
CPU  0 inst:  208000000 cyc:  127602100 now IPC :1.67441: AVG IPC :1.62693: L2-Pf-HR :0.99690: L2-HR :0.96593: (Sim:0h41m16s) 
CPU  0 inst:  209000005 cyc:  128185555 now IPC :1.71394: AVG IPC :1.62733: L2-Pf-HR :0.99690: L2-HR :0.96595: (Sim:0h41m34s) 
CPU  0 inst:  210000003 cyc:  128890980 now IPC :1.41758: AVG IPC :1.62618: L2-Pf-HR :0.99692: L2-HR :0.96587: (Sim:0h41m52s) 
CPU  0 inst:  211000003 cyc:  129494977 now IPC :1.65564: AVG IPC :1.62631: L2-Pf-HR :0.99693: L2-HR :0.96590: (Sim:0h42m10s) 
CPU  0 inst:  212000001 cyc:  130113390 now IPC :1.61704: AVG IPC :1.62627: L2-Pf-HR :0.99693: L2-HR :0.96592: (Sim:0h42m28s) 
CPU  0 inst:  213000001 cyc:  130718314 now IPC :1.65310: AVG IPC :1.62639: L2-Pf-HR :0.99693: L2-HR :0.96593: (Sim:0h42m45s) 
CPU  0 inst:  214000000 cyc:  131317029 now IPC :1.67024: AVG IPC :1.62660: L2-Pf-HR :0.99693: L2-HR :0.96595: (Sim:0h43m3s) 
CPU  0 inst:  215000005 cyc:  131922254 now IPC :1.65229: AVG IPC :1.62671: L2-Pf-HR :0.99692: L2-HR :0.96597: (Sim:0h43m20s) 
CPU  0 inst:  216000000 cyc:  132531443 now IPC :1.64152: AVG IPC :1.62678: L2-Pf-HR :0.99690: L2-HR :0.96592: (Sim:0h43m38s) 
CPU  0 inst:  217000001 cyc:  133103694 now IPC :1.74749: AVG IPC :1.62731: L2-Pf-HR :0.99691: L2-HR :0.96597: (Sim:0h43m55s) 
CPU  0 inst:  218000000 cyc:  133812979 now IPC :1.40987: AVG IPC :1.62614: L2-Pf-HR :0.99692: L2-HR :0.96587: (Sim:0h44m15s) 
CPU  0 inst:  219000003 cyc:  134409980 now IPC :1.67504: AVG IPC :1.62636: L2-Pf-HR :0.99693: L2-HR :0.96590: (Sim:0h44m32s) 
CPU  0 inst:  220000005 cyc:  135022597 now IPC :1.63234: AVG IPC :1.62639: L2-Pf-HR :0.99694: L2-HR :0.96592: (Sim:0h44m49s) 
CPU  0 inst:  221000001 cyc:  135638804 now IPC :1.62282: AVG IPC :1.62637: L2-Pf-HR :0.99694: L2-HR :0.96593: (Sim:0h45m7s) 
CPU  0 inst:  222000000 cyc:  136238115 now IPC :1.66858: AVG IPC :1.62656: L2-Pf-HR :0.99693: L2-HR :0.96594: (Sim:0h45m24s) 
CPU  0 inst:  223000001 cyc:  136846023 now IPC :1.64499: AVG IPC :1.62664: L2-Pf-HR :0.99693: L2-HR :0.96595: (Sim:0h45m42s) 
CPU  0 inst:  224000002 cyc:  137458960 now IPC :1.63149: AVG IPC :1.62667: L2-Pf-HR :0.99691: L2-HR :0.96592: (Sim:0h46m0s) 
CPU  0 inst:  225000000 cyc:  138030894 now IPC :1.74845: AVG IPC :1.62717: L2-Pf-HR :0.99691: L2-HR :0.96596: (Sim:0h46m17s) 
CPU  0 inst:  226000002 cyc:  138747672 now IPC :1.39513: AVG IPC :1.62597: L2-Pf-HR :0.99692: L2-HR :0.96586: (Sim:0h46m36s) 
CPU  0 inst:  227000005 cyc:  139353513 now IPC :1.65060: AVG IPC :1.62607: L2-Pf-HR :0.99694: L2-HR :0.96589: (Sim:0h46m54s) 
CPU  0 inst:  228000005 cyc:  139972001 now IPC :1.61685: AVG IPC :1.62603: L2-Pf-HR :0.99694: L2-HR :0.96591: (Sim:0h47m12s) 
CPU  0 inst:  229000000 cyc:  140572952 now IPC :1.66402: AVG IPC :1.62620: L2-Pf-HR :0.99694: L2-HR :0.96593: (Sim:0h47m29s) 
CPU  0 inst:  230000000 cyc:  141185253 now IPC :1.63318: AVG IPC :1.62623: L2-Pf-HR :0.99694: L2-HR :0.96593: (Sim:0h47m47s) 
CPU  0 inst:  231000000 cyc:  141789252 now IPC :1.65563: AVG IPC :1.62635: L2-Pf-HR :0.99693: L2-HR :0.96594: (Sim:0h48m5s) 
CPU  0 inst:  232000002 cyc:  142392458 now IPC :1.65781: AVG IPC :1.62649: L2-Pf-HR :0.99692: L2-HR :0.96591: (Sim:0h48m23s) 
CPU  0 inst:  233000003 cyc:  142965332 now IPC :1.74559: AVG IPC :1.62697: L2-Pf-HR :0.99692: L2-HR :0.96595: (Sim:0h48m40s) 
CPU  0 inst:  234000001 cyc:  143671490 now IPC :1.41611: AVG IPC :1.62592: L2-Pf-HR :0.99693: L2-HR :0.96587: (Sim:0h48m59s) 
CPU  0 inst:  235000003 cyc:  144285541 now IPC :1.62853: AVG IPC :1.62594: L2-Pf-HR :0.99694: L2-HR :0.96589: (Sim:0h49m17s) 
CPU  0 inst:  236000005 cyc:  144890848 now IPC :1.65206: AVG IPC :1.62605: L2-Pf-HR :0.99695: L2-HR :0.96591: (Sim:0h49m34s) 
CPU  0 inst:  237000000 cyc:  145485756 now IPC :1.68092: AVG IPC :1.62627: L2-Pf-HR :0.99695: L2-HR :0.96593: (Sim:0h49m52s) 
CPU  0 inst:  238000000 cyc:  146097685 now IPC :1.63418: AVG IPC :1.62631: L2-Pf-HR :0.99695: L2-HR :0.96593: (Sim:0h50m9s) 
CPU  0 inst:  239000003 cyc:  146702914 now IPC :1.65227: AVG IPC :1.62641: L2-Pf-HR :0.99694: L2-HR :0.96593: (Sim:0h50m27s) 
CPU  0 inst:  240000002 cyc:  147311213 now IPC :1.64393: AVG IPC :1.62649: L2-Pf-HR :0.99693: L2-HR :0.96591: (Sim:0h50m45s) 
CPU  0 inst:  241000003 cyc:  147884791 now IPC :1.74344: AVG IPC :1.62694: L2-Pf-HR :0.99693: L2-HR :0.96595: (Sim:0h51m2s) 
CPU  0 inst:  242000004 cyc:  148595358 now IPC :1.40733: AVG IPC :1.62589: L2-Pf-HR :0.99694: L2-HR :0.96587: (Sim:0h51m21s) 
CPU  0 inst:  243000003 cyc:  149203027 now IPC :1.64563: AVG IPC :1.62597: L2-Pf-HR :0.99695: L2-HR :0.96589: (Sim:0h51m39s) 
CPU  0 inst:  244000005 cyc:  149809068 now IPC :1.65006: AVG IPC :1.62606: L2-Pf-HR :0.99695: L2-HR :0.96591: (Sim:0h51m57s) 
CPU  0 inst:  245000001 cyc:  150411745 now IPC :1.65926: AVG IPC :1.62620: L2-Pf-HR :0.99696: L2-HR :0.96592: (Sim:0h52m15s) 
CPU  0 inst:  246000000 cyc:  151021977 now IPC :1.63872: AVG IPC :1.62625: L2-Pf-HR :0.99695: L2-HR :0.96593: (Sim:0h52m33s) 
CPU  0 inst:  247000002 cyc:  151622367 now IPC :1.66559: AVG IPC :1.62641: L2-Pf-HR :0.99695: L2-HR :0.96593: (Sim:0h52m51s) 
CPU  0 inst:  248000001 cyc:  152230381 now IPC :1.64470: AVG IPC :1.62648: L2-Pf-HR :0.99693: L2-HR :0.96591: (Sim:0h53m9s) 
CPU  0 inst:  249000005 cyc:  152802888 now IPC :1.74671: AVG IPC :1.62693: L2-Pf-HR :0.99693: L2-HR :0.96595: (Sim:0h53m27s) 
CPU  0 inst:  250000004 cyc:  153514153 now IPC :1.40594: AVG IPC :1.62590: L2-Pf-HR :0.99694: L2-HR :0.96587: (Sim:0h53m46s) 
CPU  0 inst:  251000003 cyc:  154123112 now IPC :1.64215: AVG IPC :1.62597: L2-Pf-HR :0.99695: L2-HR :0.96589: (Sim:0h54m4s) 
CPU  0 inst:  252000000 cyc:  154724371 now IPC :1.66317: AVG IPC :1.62611: L2-Pf-HR :0.99696: L2-HR :0.96591: (Sim:0h54m22s) 
CPU  0 inst:  253000003 cyc:  155329667 now IPC :1.65209: AVG IPC :1.62621: L2-Pf-HR :0.99696: L2-HR :0.96592: (Sim:0h54m40s) 
CPU  0 inst:  254000003 cyc:  155939918 now IPC :1.63867: AVG IPC :1.62626: L2-Pf-HR :0.99696: L2-HR :0.96592: (Sim:0h54m58s) 
CPU  0 inst:  255000000 cyc:  156545549 now IPC :1.65117: AVG IPC :1.62636: L2-Pf-HR :0.99695: L2-HR :0.96593: (Sim:0h55m16s) 
CPU  0 inst:  256000001 cyc:  157157336 now IPC :1.63456: AVG IPC :1.62639: L2-Pf-HR :0.99694: L2-HR :0.96591: (Sim:0h55m34s) 
CPU  0 inst:  257000005 cyc:  157728275 now IPC :1.75151: AVG IPC :1.62685: L2-Pf-HR :0.99694: L2-HR :0.96594: (Sim:0h55m52s) 
CPU  0 inst:  258000002 cyc:  161927952 now IPC :0.23811: AVG IPC :1.59061: L2-Pf-HR :0.99694: L2-HR :0.96296: (Sim:0h56m43s) 
CPU  0 inst:  259000001 cyc:  167407060 now IPC :0.18251: AVG IPC :1.54425: L2-Pf-HR :0.99694: L2-HR :0.95917: (Sim:0h57m51s) 
CPU  0 inst:  260000001 cyc:  172886396 now IPC :0.18250: AVG IPC :1.50085: L2-Pf-HR :0.99694: L2-HR :0.95543: (Sim:0h58m59s) 
CPU  0 inst:  261000000 cyc:  178368065 now IPC :0.18243: AVG IPC :1.46010: L2-Pf-HR :0.99694: L2-HR :0.95176: (Sim:1h0m7s) 
CPU  0 inst:  262000001 cyc:  183742843 now IPC :0.18605: AVG IPC :1.42264: L2-Pf-HR :0.99694: L2-HR :0.94825: (Sim:1h1m8s) 
CPU  0 inst:  263000003 cyc:  189232776 now IPC :0.18215: AVG IPC :1.38646: L2-Pf-HR :0.99694: L2-HR :0.94771: (Sim:1h1m28s) 
CPU  0 inst:  264000001 cyc:  194708742 now IPC :0.18262: AVG IPC :1.35243: L2-Pf-HR :0.99694: L2-HR :0.94717: (Sim:1h1m48s) 
CPU  0 inst:  265000003 cyc:  200114225 now IPC :0.18500: AVG IPC :1.32074: L2-Pf-HR :0.99694: L2-HR :0.94663: (Sim:1h2m8s) 
CPU  0 inst:  266000003 cyc:  205264275 now IPC :0.19417: AVG IPC :1.29234: L2-Pf-HR :0.99694: L2-HR :0.94609: (Sim:1h2m27s) 
CPU  0 inst:  267000002 cyc:  210492279 now IPC :0.19128: AVG IPC :1.26486: L2-Pf-HR :0.99694: L2-HR :0.94555: (Sim:1h2m46s) 
CPU  0 inst:  268000002 cyc:  215608968 now IPC :0.19544: AVG IPC :1.23937: L2-Pf-HR :0.99694: L2-HR :0.94501: (Sim:1h3m5s) 
CPU  0 inst:  269000001 cyc:  220801603 now IPC :0.19258: AVG IPC :1.21464: L2-Pf-HR :0.99694: L2-HR :0.94448: (Sim:1h3m43s) 
CPU  0 inst:  270000000 cyc:  225955535 now IPC :0.19403: AVG IPC :1.19126: L2-Pf-HR :0.99694: L2-HR :0.94394: (Sim:1h4m23s) 
CPU  0 inst:  271000001 cyc:  231205582 now IPC :0.19047: AVG IPC :1.16844: L2-Pf-HR :0.99694: L2-HR :0.94341: (Sim:1h5m4s) 
CPU  0 inst:  272000000 cyc:  236408430 now IPC :0.19220: AVG IPC :1.14686: L2-Pf-HR :0.99694: L2-HR :0.94287: (Sim:1h5m45s) 
CPU  0 inst:  273000003 cyc:  241587591 now IPC :0.19308: AVG IPC :1.12633: L2-Pf-HR :0.99694: L2-HR :0.94234: (Sim:1h6m26s) 
CPU  0 inst:  274000003 cyc:  246782084 now IPC :0.19251: AVG IPC :1.10660: L2-Pf-HR :0.99694: L2-HR :0.94181: (Sim:1h7m7s) 
CPU  0 inst:  275000002 cyc:  252050665 now IPC :0.18980: AVG IPC :1.08736: L2-Pf-HR :0.99694: L2-HR :0.94128: (Sim:1h7m48s) 
CPU  0 inst:  276000002 cyc:  257134548 now IPC :0.19670: AVG IPC :1.06968: L2-Pf-HR :0.99694: L2-HR :0.94075: (Sim:1h8m29s) 
CPU  0 inst:  277000001 cyc:  262407900 now IPC :0.18963: AVG IPC :1.05193: L2-Pf-HR :0.99694: L2-HR :0.94022: (Sim:1h9m10s) 
CPU  0 inst:  278000000 cyc:  267460789 now IPC :0.19791: AVG IPC :1.03574: L2-Pf-HR :0.99694: L2-HR :0.93969: (Sim:1h9m50s) 
CPU  0 inst:  279000000 cyc:  272483387 now IPC :0.19910: AVG IPC :1.02026: L2-Pf-HR :0.99694: L2-HR :0.93917: (Sim:1h10m30s) 
CPU  0 inst:  280000003 cyc:  277479833 now IPC :0.20014: AVG IPC :1.00544: L2-Pf-HR :0.99694: L2-HR :0.93864: (Sim:1h11m10s) 
CPU  0 inst:  281000003 cyc:  282577390 now IPC :0.19617: AVG IPC :0.99079: L2-Pf-HR :0.99694: L2-HR :0.93812: (Sim:1h11m51s) 
CPU  0 inst:  282000001 cyc:  287560764 now IPC :0.20067: AVG IPC :0.97705: L2-Pf-HR :0.99694: L2-HR :0.93759: (Sim:1h12m31s) 
CPU  0 inst:  283000005 cyc:  292756064 now IPC :0.19248: AVG IPC :0.96308: L2-Pf-HR :0.99694: L2-HR :0.93707: (Sim:1h13m11s) 
CPU  0 inst:  284000002 cyc:  297958071 now IPC :0.19223: AVG IPC :0.94958: L2-Pf-HR :0.99694: L2-HR :0.93655: (Sim:1h13m52s) 
CPU  0 inst:  285000001 cyc:  303210917 now IPC :0.19037: AVG IPC :0.93638: L2-Pf-HR :0.99694: L2-HR :0.93603: (Sim:1h14m33s) 
CPU  0 inst:  286000000 cyc:  308403811 now IPC :0.19257: AVG IPC :0.92382: L2-Pf-HR :0.99694: L2-HR :0.93550: (Sim:1h15m14s) 
CPU  0 inst:  287000000 cyc:  313446496 now IPC :0.19831: AVG IPC :0.91211: L2-Pf-HR :0.99694: L2-HR :0.93499: (Sim:1h15m54s) 
CPU  0 inst:  288000000 cyc:  318533112 now IPC :0.19659: AVG IPC :0.90065: L2-Pf-HR :0.99694: L2-HR :0.93447: (Sim:1h16m35s) 
CPU  0 inst:  289000001 cyc:  323768583 now IPC :0.19100: AVG IPC :0.88914: L2-Pf-HR :0.99694: L2-HR :0.93395: (Sim:1h17m16s) 
CPU  0 inst:  290000003 cyc:  329027082 now IPC :0.19017: AVG IPC :0.87793: L2-Pf-HR :0.99694: L2-HR :0.93343: (Sim:1h17m57s) 
CPU  0 inst:  291000003 cyc:  334313462 now IPC :0.18917: AVG IPC :0.86701: L2-Pf-HR :0.99694: L2-HR :0.93292: (Sim:1h18m38s) 
CPU  0 inst:  292000002 cyc:  339354184 now IPC :0.19838: AVG IPC :0.85705: L2-Pf-HR :0.99694: L2-HR :0.93240: (Sim:1h19m18s) 
CPU  0 inst:  293000001 cyc:  344629602 now IPC :0.18956: AVG IPC :0.84680: L2-Pf-HR :0.99694: L2-HR :0.93189: (Sim:1h19m59s) 
CPU  0 inst:  294000000 cyc:  349839215 now IPC :0.19195: AVG IPC :0.83702: L2-Pf-HR :0.99694: L2-HR :0.93137: (Sim:1h20m40s) 
CPU  0 inst:  295000000 cyc:  354990663 now IPC :0.19412: AVG IPC :0.82767: L2-Pf-HR :0.99694: L2-HR :0.93086: (Sim:1h21m12s) 
CPU  0 inst:  296000000 cyc:  360143888 now IPC :0.19405: AVG IPC :0.81858: L2-Pf-HR :0.99694: L2-HR :0.93035: (Sim:1h21m31s) 
CPU  0 inst:  297000001 cyc:  365305149 now IPC :0.19375: AVG IPC :0.80972: L2-Pf-HR :0.99694: L2-HR :0.92984: (Sim:1h22m12s) 
CPU  0 inst:  298000003 cyc:  370478776 now IPC :0.19329: AVG IPC :0.80109: L2-Pf-HR :0.99694: L2-HR :0.92933: (Sim:1h22m52s) 
CPU  0 inst:  299000003 cyc:  375604046 now IPC :0.19511: AVG IPC :0.79280: L2-Pf-HR :0.99694: L2-HR :0.92882: (Sim:1h23m32s) 
CPU  0 inst:  300000003 cyc:  380750338 now IPC :0.19431: AVG IPC :0.78469: L2-Pf-HR :0.99694: L2-HR :0.92831: (Sim:1h24m12s) 
CPU  0 inst:  301000002 cyc:  385894922 now IPC :0.19438: AVG IPC :0.77680: L2-Pf-HR :0.99694: L2-HR :0.92781: (Sim:1h24m52s) 
CPU  0 inst:  302000000 cyc:  391148971 now IPC :0.19033: AVG IPC :0.76890: L2-Pf-HR :0.99694: L2-HR :0.92730: (Sim:1h25m32s) 
CPU  0 inst:  303000000 cyc:  396314173 now IPC :0.19360: AVG IPC :0.76139: L2-Pf-HR :0.99694: L2-HR :0.92679: (Sim:1h26m12s) 
CPU  0 inst:  304000000 cyc:  401477462 now IPC :0.19367: AVG IPC :0.75407: L2-Pf-HR :0.99694: L2-HR :0.92629: (Sim:1h26m53s) 
CPU  0 inst:  305000001 cyc:  406670121 now IPC :0.19258: AVG IPC :0.74688: L2-Pf-HR :0.99694: L2-HR :0.92578: (Sim:1h27m33s) 
CPU  0 inst:  306000003 cyc:  411855199 now IPC :0.19286: AVG IPC :0.73989: L2-Pf-HR :0.99694: L2-HR :0.92528: (Sim:1h28m13s) 
CPU  0 inst:  307000003 cyc:  417101997 now IPC :0.19059: AVG IPC :0.73296: L2-Pf-HR :0.99694: L2-HR :0.92478: (Sim:1h28m54s) 
CPU  0 inst:  308000002 cyc:  422180489 now IPC :0.19691: AVG IPC :0.72650: L2-Pf-HR :0.99694: L2-HR :0.92428: (Sim:1h29m19s) 
CPU  0 inst:  309000002 cyc:  427360933 now IPC :0.19303: AVG IPC :0.72002: L2-Pf-HR :0.99694: L2-HR :0.92378: (Sim:1h29m39s) 
CPU  0 inst:  310000003 cyc:  432458271 now IPC :0.19618: AVG IPC :0.71383: L2-Pf-HR :0.99694: L2-HR :0.92328: (Sim:1h29m58s) 
CPU  0 inst:  311000002 cyc:  437592933 now IPC :0.19475: AVG IPC :0.70773: L2-Pf-HR :0.99694: L2-HR :0.92278: (Sim:1h30m17s) 
CPU  0 inst:  312000003 cyc:  442684320 now IPC :0.19641: AVG IPC :0.70183: L2-Pf-HR :0.99694: L2-HR :0.92228: (Sim:1h30m36s) 
CPU  0 inst:  313000001 cyc:  447769251 now IPC :0.19666: AVG IPC :0.69608: L2-Pf-HR :0.99694: L2-HR :0.92179: (Sim:1h30m55s) 
CPU  0 inst:  314000003 cyc:  452897337 now IPC :0.19500: AVG IPC :0.69040: L2-Pf-HR :0.99694: L2-HR :0.92129: (Sim:1h31m14s) 
CPU  0 inst:  315000003 cyc:  458005892 now IPC :0.19575: AVG IPC :0.68487: L2-Pf-HR :0.99694: L2-HR :0.92079: (Sim:1h31m33s) 
CPU  0 inst:  316000000 cyc:  463252812 now IPC :0.19059: AVG IPC :0.67926: L2-Pf-HR :0.99694: L2-HR :0.92030: (Sim:1h31m53s) 
CPU  0 inst:  317000002 cyc:  468412906 now IPC :0.19380: AVG IPC :0.67390: L2-Pf-HR :0.99694: L2-HR :0.91981: (Sim:1h32m12s) 
CPU  0 inst:  318000001 cyc:  473557332 now IPC :0.19438: AVG IPC :0.66868: L2-Pf-HR :0.99694: L2-HR :0.91931: (Sim:1h32m31s) 
CPU  0 inst:  319000000 cyc:  478721620 now IPC :0.19364: AVG IPC :0.66354: L2-Pf-HR :0.99694: L2-HR :0.91882: (Sim:1h32m50s) 
CPU  0 inst:  320000003 cyc:  483885741 now IPC :0.19364: AVG IPC :0.65852: L2-Pf-HR :0.99694: L2-HR :0.91833: (Sim:1h33m10s) 
CPU  0 inst:  321000000 cyc:  489124743 now IPC :0.19088: AVG IPC :0.65350: L2-Pf-HR :0.99694: L2-HR :0.91784: (Sim:1h33m29s) 
CPU  0 inst:  322000001 cyc:  494287651 now IPC :0.19369: AVG IPC :0.64869: L2-Pf-HR :0.99694: L2-HR :0.91735: (Sim:1h33m49s) 
CPU  0 inst:  323000003 cyc:  499519737 now IPC :0.19113: AVG IPC :0.64388: L2-Pf-HR :0.99694: L2-HR :0.91686: (Sim:1h34m8s) 
CPU  0 inst:  324000002 cyc:  504536444 now IPC :0.19933: AVG IPC :0.63946: L2-Pf-HR :0.99694: L2-HR :0.91637: (Sim:1h34m27s) 
CPU  0 inst:  325000002 cyc:  509681425 now IPC :0.19436: AVG IPC :0.63495: L2-Pf-HR :0.99694: L2-HR :0.91589: (Sim:1h34m46s) 
CPU  0 inst:  326000001 cyc:  514890041 now IPC :0.19199: AVG IPC :0.63046: L2-Pf-HR :0.99694: L2-HR :0.91540: (Sim:1h35m6s) 
CPU  0 inst:  327000005 cyc:  517004075 now IPC :0.47303: AVG IPC :0.62982: L2-Pf-HR :0.99689: L2-HR :0.91507: (Sim:1h35m20s) 
CPU  0 inst:  328000003 cyc:  517594529 now IPC :1.69361: AVG IPC :0.63104: L2-Pf-HR :0.99688: L2-HR :0.91527: (Sim:1h35m30s) 
CPU  0 inst:  329000003 cyc:  518239921 now IPC :1.54945: AVG IPC :0.63218: L2-Pf-HR :0.99688: L2-HR :0.91545: (Sim:1h35m40s) 
CPU  0 inst:  330000002 cyc:  518898939 now IPC :1.51741: AVG IPC :0.63331: L2-Pf-HR :0.99688: L2-HR :0.91551: (Sim:1h35m50s) 
CPU  0 inst:  331000004 cyc:  519376004 now IPC :2.09615: AVG IPC :0.63465: L2-Pf-HR :0.99687: L2-HR :0.91571: (Sim:1h36m0s) 
CPU  0 inst:  332000000 cyc:  519912641 now IPC :1.86345: AVG IPC :0.63592: L2-Pf-HR :0.99687: L2-HR :0.91589: (Sim:1h36m9s) 
CPU  0 inst:  333000000 cyc:  520467071 now IPC :1.80365: AVG IPC :0.63717: L2-Pf-HR :0.99686: L2-HR :0.91600: (Sim:1h36m19s) 
CPU  0 inst:  334000002 cyc:  520951189 now IPC :2.06562: AVG IPC :0.63850: L2-Pf-HR :0.99686: L2-HR :0.91620: (Sim:1h36m28s) 
CPU  0 inst:  335000005 cyc:  521647684 now IPC :1.43576: AVG IPC :0.63957: L2-Pf-HR :0.99684: L2-HR :0.91623: (Sim:1h36m39s) 
CPU  0 inst:  336000003 cyc:  522234365 now IPC :1.70450: AVG IPC :0.64077: L2-Pf-HR :0.99685: L2-HR :0.91638: (Sim:1h36m49s) 
CPU  0 inst:  337000003 cyc:  522818643 now IPC :1.71151: AVG IPC :0.64197: L2-Pf-HR :0.99685: L2-HR :0.91655: (Sim:1h36m58s) 
CPU  0 inst:  338000000 cyc:  523532510 now IPC :1.40082: AVG IPC :0.64300: L2-Pf-HR :0.99685: L2-HR :0.91655: (Sim:1h37m9s) 
CPU  0 inst:  339000000 cyc:  524000723 now IPC :2.13578: AVG IPC :0.64434: L2-Pf-HR :0.99685: L2-HR :0.91672: (Sim:1h37m18s) 
CPU  0 inst:  340000004 cyc:  524467567 now IPC :2.14205: AVG IPC :0.64567: L2-Pf-HR :0.99684: L2-HR :0.91688: (Sim:1h37m26s) 
CPU  0 inst:  341000000 cyc:  524974236 now IPC :1.97367: AVG IPC :0.64696: L2-Pf-HR :0.99683: L2-HR :0.91704: (Sim:1h37m35s) 
CPU  0 inst:  342000003 cyc:  525533679 now IPC :1.78750: AVG IPC :0.64817: L2-Pf-HR :0.99683: L2-HR :0.91712: (Sim:1h37m45s) 
CPU  0 inst:  343000005 cyc:  526027562 now IPC :2.02478: AVG IPC :0.64947: L2-Pf-HR :0.99682: L2-HR :0.91728: (Sim:1h37m54s) 
CPU  0 inst:  344000004 cyc:  526692480 now IPC :1.50394: AVG IPC :0.65055: L2-Pf-HR :0.99682: L2-HR :0.91726: (Sim:1h38m4s) 
CPU  0 inst:  345000001 cyc:  527261002 now IPC :1.75894: AVG IPC :0.65175: L2-Pf-HR :0.99682: L2-HR :0.91739: (Sim:1h38m13s) 
CPU  0 inst:  346000004 cyc:  527855632 now IPC :1.68172: AVG IPC :0.65291: L2-Pf-HR :0.99682: L2-HR :0.91751: (Sim:1h38m22s) 
CPU  0 inst:  347000001 cyc:  528463068 now IPC :1.64626: AVG IPC :0.65405: L2-Pf-HR :0.99682: L2-HR :0.91751: (Sim:1h38m32s) 
CPU  0 inst:  348000004 cyc:  528929731 now IPC :2.14288: AVG IPC :0.65537: L2-Pf-HR :0.99681: L2-HR :0.91767: (Sim:1h38m43s) 
CPU  0 inst:  349000004 cyc:  529452356 now IPC :1.91342: AVG IPC :0.65661: L2-Pf-HR :0.99681: L2-HR :0.91780: (Sim:1h39m2s) 
CPU  0 inst:  350000003 cyc:  529990269 now IPC :1.85903: AVG IPC :0.65784: L2-Pf-HR :0.99680: L2-HR :0.91785: (Sim:1h39m22s) 
CPU  0 inst:  351000003 cyc:  530466423 now IPC :2.10016: AVG IPC :0.65913: L2-Pf-HR :0.99679: L2-HR :0.91801: (Sim:1h39m40s) 
CPU  0 inst:  352000005 cyc:  531119434 now IPC :1.53137: AVG IPC :0.66021: L2-Pf-HR :0.99679: L2-HR :0.91797: (Sim:1h40m1s) 
CPU  0 inst:  353000005 cyc:  531695732 now IPC :1.73521: AVG IPC :0.66138: L2-Pf-HR :0.99679: L2-HR :0.91809: (Sim:1h40m21s) 
CPU  0 inst:  354000001 cyc:  532249953 now IPC :1.80433: AVG IPC :0.66257: L2-Pf-HR :0.99679: L2-HR :0.91824: (Sim:1h40m40s) 
CPU  0 inst:  355000001 cyc:  532919490 now IPC :1.49357: AVG IPC :0.66361: L2-Pf-HR :0.99679: L2-HR :0.91817: (Sim:1h41m1s) 
CPU  0 inst:  356000004 cyc:  533387522 now IPC :2.13661: AVG IPC :0.66491: L2-Pf-HR :0.99678: L2-HR :0.91830: (Sim:1h41m20s) 
CPU  0 inst:  357000000 cyc:  533858595 now IPC :2.12280: AVG IPC :0.66620: L2-Pf-HR :0.99677: L2-HR :0.91844: (Sim:1h41m39s) 
CPU  0 inst:  358000005 cyc:  534389131 now IPC :1.88490: AVG IPC :0.66741: L2-Pf-HR :0.99677: L2-HR :0.91852: (Sim:1h41m57s) 
CPU  0 inst:  359000000 cyc:  534912465 now IPC :1.91082: AVG IPC :0.66863: L2-Pf-HR :0.99676: L2-HR :0.91858: (Sim:1h42m17s) 
CPU  0 inst:  360000000 cyc:  535409251 now IPC :2.01294: AVG IPC :0.66988: L2-Pf-HR :0.99675: L2-HR :0.91871: (Sim:1h42m35s) 
CPU  0 inst:  361000004 cyc:  536074457 now IPC :1.50330: AVG IPC :0.67091: L2-Pf-HR :0.99675: L2-HR :0.91867: (Sim:1h42m56s) 
CPU  0 inst:  362000001 cyc:  536641155 now IPC :1.76460: AVG IPC :0.67207: L2-Pf-HR :0.99675: L2-HR :0.91876: (Sim:1h43m16s) 
CPU  0 inst:  363000002 cyc:  537228590 now IPC :1.70232: AVG IPC :0.67320: L2-Pf-HR :0.99675: L2-HR :0.91886: (Sim:1h43m34s) 
CPU  0 inst:  364000004 cyc:  537821321 now IPC :1.68711: AVG IPC :0.67432: L2-Pf-HR :0.99675: L2-HR :0.91885: (Sim:1h43m50s) 
CPU  0 inst:  365000000 cyc:  538288212 now IPC :2.14182: AVG IPC :0.67559: L2-Pf-HR :0.99674: L2-HR :0.91898: (Sim:1h43m58s) 
CPU  0 inst:  366000000 cyc:  538804035 now IPC :1.93865: AVG IPC :0.67681: L2-Pf-HR :0.99673: L2-HR :0.91909: (Sim:1h44m7s) 
CPU  0 inst:  367000005 cyc:  539342217 now IPC :1.85812: AVG IPC :0.67799: L2-Pf-HR :0.99672: L2-HR :0.91913: (Sim:1h44m17s) 
CPU  0 inst:  368000003 cyc:  539829791 now IPC :2.05097: AVG IPC :0.67923: L2-Pf-HR :0.99672: L2-HR :0.91926: (Sim:1h44m26s) 
CPU  0 inst:  369000000 cyc:  540488553 now IPC :1.51799: AVG IPC :0.68025: L2-Pf-HR :0.99670: L2-HR :0.91921: (Sim:1h44m36s) 
CPU  0 inst:  370000002 cyc:  541052234 now IPC :1.77406: AVG IPC :0.68139: L2-Pf-HR :0.99671: L2-HR :0.91931: (Sim:1h44m45s) 
CPU  0 inst:  371000004 cyc:  541643649 now IPC :1.69086: AVG IPC :0.68250: L2-Pf-HR :0.99670: L2-HR :0.91940: (Sim:1h44m54s) 
CPU  0 inst:  372000003 cyc:  542272136 now IPC :1.59112: AVG IPC :0.68355: L2-Pf-HR :0.99671: L2-HR :0.91938: (Sim:1h45m4s) 
CPU  0 inst:  373000004 cyc:  542740704 now IPC :2.13416: AVG IPC :0.68481: L2-Pf-HR :0.99670: L2-HR :0.91950: (Sim:1h45m13s) 
CPU  0 inst:  374000000 cyc:  543222847 now IPC :2.07407: AVG IPC :0.68604: L2-Pf-HR :0.99669: L2-HR :0.91964: (Sim:1h45m22s) 
CPU  0 inst:  375000001 cyc:  543792733 now IPC :1.75474: AVG IPC :0.68717: L2-Pf-HR :0.99669: L2-HR :0.91967: (Sim:1h45m31s) 
CPU  0 inst:  376000003 cyc:  544263710 now IPC :2.12325: AVG IPC :0.68841: L2-Pf-HR :0.99668: L2-HR :0.91980: (Sim:1h45m40s) 
CPU  0 inst:  377000004 cyc:  544758017 now IPC :2.02304: AVG IPC :0.68962: L2-Pf-HR :0.99668: L2-HR :0.91994: (Sim:1h45m49s) 
CPU  0 inst:  378000003 cyc:  545446329 now IPC :1.45283: AVG IPC :0.69059: L2-Pf-HR :0.99667: L2-HR :0.91990: (Sim:1h46m0s) 
CPU  0 inst:  379000004 cyc:  546012364 now IPC :1.76668: AVG IPC :0.69171: L2-Pf-HR :0.99667: L2-HR :0.92000: (Sim:1h46m9s) 
CPU  0 inst:  380000003 cyc:  546601166 now IPC :1.69836: AVG IPC :0.69279: L2-Pf-HR :0.99667: L2-HR :0.92010: (Sim:1h46m18s) 
CPU  0 inst:  381000003 cyc:  547190807 now IPC :1.69595: AVG IPC :0.69388: L2-Pf-HR :0.99667: L2-HR :0.92009: (Sim:1h46m28s) 
CPU  0 inst:  382000000 cyc:  547670795 now IPC :2.08338: AVG IPC :0.69510: L2-Pf-HR :0.99666: L2-HR :0.92021: (Sim:1h46m38s) 
CPU  0 inst:  383000003 cyc:  548175206 now IPC :1.98252: AVG IPC :0.69628: L2-Pf-HR :0.99665: L2-HR :0.92032: (Sim:1h46m47s) 
CPU  0 inst:  384000005 cyc:  548719138 now IPC :1.83847: AVG IPC :0.69742: L2-Pf-HR :0.99665: L2-HR :0.92035: (Sim:1h46m56s) 
CPU  0 inst:  385000002 cyc:  549221765 now IPC :1.98954: AVG IPC :0.69860: L2-Pf-HR :0.99664: L2-HR :0.92046: (Sim:1h47m5s) 
CPU  0 inst:  386000000 cyc:  549860369 now IPC :1.56591: AVG IPC :0.69961: L2-Pf-HR :0.99663: L2-HR :0.92043: (Sim:1h47m15s) 
CPU  0 inst:  387000001 cyc:  550422361 now IPC :1.77939: AVG IPC :0.70071: L2-Pf-HR :0.99664: L2-HR :0.92052: (Sim:1h47m25s) 
CPU  0 inst:  388000000 cyc:  551021021 now IPC :1.67040: AVG IPC :0.70177: L2-Pf-HR :0.99663: L2-HR :0.92059: (Sim:1h47m34s) 
CPU  0 inst:  389000004 cyc:  551646520 now IPC :1.59873: AVG IPC :0.70279: L2-Pf-HR :0.99663: L2-HR :0.92056: (Sim:1h47m43s) 
CPU  0 inst:  390000001 cyc:  552114521 now IPC :2.13674: AVG IPC :0.70401: L2-Pf-HR :0.99662: L2-HR :0.92067: (Sim:1h47m54s) 
CPU  0 inst:  391000004 cyc:  552606179 now IPC :2.03394: AVG IPC :0.70519: L2-Pf-HR :0.99661: L2-HR :0.92079: (Sim:1h48m14s) 
CPU  0 inst:  392000001 cyc:  553168815 now IPC :1.77734: AVG IPC :0.70628: L2-Pf-HR :0.99661: L2-HR :0.92078: (Sim:1h48m34s) 
CPU  0 inst:  393000003 cyc:  553639468 now IPC :2.12471: AVG IPC :0.70749: L2-Pf-HR :0.99660: L2-HR :0.92087: (Sim:1h48m52s) 
CPU  0 inst:  394000002 cyc:  554174690 now IPC :1.86838: AVG IPC :0.70862: L2-Pf-HR :0.99660: L2-HR :0.92093: (Sim:1h49m11s) 
CPU  0 inst:  395000000 cyc:  554830905 now IPC :1.52389: AVG IPC :0.70958: L2-Pf-HR :0.99659: L2-HR :0.92089: (Sim:1h49m33s) 
CPU  0 inst:  396000000 cyc:  555396697 now IPC :1.76743: AVG IPC :0.71066: L2-Pf-HR :0.99658: L2-HR :0.92095: (Sim:1h49m52s) 
CPU  0 inst:  397000003 cyc:  555975561 now IPC :1.72753: AVG IPC :0.71172: L2-Pf-HR :0.99658: L2-HR :0.92103: (Sim:1h50m11s) 
CPU  0 inst:  398000004 cyc:  556566354 now IPC :1.69264: AVG IPC :0.71276: L2-Pf-HR :0.99658: L2-HR :0.92101: (Sim:1h50m31s) 
CPU  0 inst:  399000003 cyc:  557047449 now IPC :2.07859: AVG IPC :0.71395: L2-Pf-HR :0.99657: L2-HR :0.92110: (Sim:1h50m52s) 
CPU  0 inst:  400000000 cyc:  557553782 now IPC :1.97498: AVG IPC :0.71509: L2-Pf-HR :0.99656: L2-HR :0.92119: (Sim:1h51m9s) 
CPU  0 inst:  401000001 cyc:  558098687 now IPC :1.83518: AVG IPC :0.71619: L2-Pf-HR :0.99655: L2-HR :0.92119: (Sim:1h51m29s) 
CPU  0 inst:  402000005 cyc:  558601570 now IPC :1.98854: AVG IPC :0.71734: L2-Pf-HR :0.99655: L2-HR :0.92127: (Sim:1h51m48s) 
CPU  0 inst:  403000000 cyc:  559247502 now IPC :1.54814: AVG IPC :0.71830: L2-Pf-HR :0.99654: L2-HR :0.92122: (Sim:1h52m10s) 
CPU  0 inst:  404000004 cyc:  559796965 now IPC :1.81997: AVG IPC :0.71938: L2-Pf-HR :0.99654: L2-HR :0.92129: (Sim:1h52m29s) 
CPU  0 inst:  405000001 cyc:  560396935 now IPC :1.66674: AVG IPC :0.72040: L2-Pf-HR :0.99653: L2-HR :0.92135: (Sim:1h52m49s) 
CPU  0 inst:  406000004 cyc:  561014800 now IPC :1.61848: AVG IPC :0.72139: L2-Pf-HR :0.99653: L2-HR :0.92130: (Sim:1h53m7s) 
CPU  0 inst:  407000002 cyc:  561495414 now IPC :2.08067: AVG IPC :0.72255: L2-Pf-HR :0.99653: L2-HR :0.92140: (Sim:1h53m17s) 
CPU  0 inst:  408000003 cyc:  562012919 now IPC :1.93235: AVG IPC :0.72367: L2-Pf-HR :0.99652: L2-HR :0.92148: (Sim:1h53m26s) 
CPU  0 inst:  409000005 cyc:  562546041 now IPC :1.87575: AVG IPC :0.72476: L2-Pf-HR :0.99651: L2-HR :0.92149: (Sim:1h53m35s) 
CPU  0 inst:  410000004 cyc:  563023953 now IPC :2.09243: AVG IPC :0.72593: L2-Pf-HR :0.99650: L2-HR :0.92156: (Sim:1h53m44s) 
CPU  0 inst:  411000002 cyc:  563619690 now IPC :1.67859: AVG IPC :0.72694: L2-Pf-HR :0.99649: L2-HR :0.92154: (Sim:1h53m53s) 
CPU  0 inst:  412000005 cyc:  564212800 now IPC :1.68603: AVG IPC :0.72795: L2-Pf-HR :0.99649: L2-HR :0.92157: (Sim:1h54m4s) 
CPU  0 inst:  413000001 cyc:  564771648 now IPC :1.78939: AVG IPC :0.72900: L2-Pf-HR :0.99649: L2-HR :0.92164: (Sim:1h54m13s) 
CPU  0 inst:  414000004 cyc:  565360539 now IPC :1.69811: AVG IPC :0.73001: L2-Pf-HR :0.99649: L2-HR :0.92170: (Sim:1h54m22s) 
CPU  0 inst:  415000000 cyc:  565945555 now IPC :1.70935: AVG IPC :0.73102: L2-Pf-HR :0.99648: L2-HR :0.92167: (Sim:1h54m32s) 
CPU  0 inst:  416000001 cyc:  566412473 now IPC :2.14171: AVG IPC :0.73219: L2-Pf-HR :0.99647: L2-HR :0.92176: (Sim:1h54m41s) 
CPU  0 inst:  417000005 cyc:  566917943 now IPC :1.97836: AVG IPC :0.73330: L2-Pf-HR :0.99647: L2-HR :0.92184: (Sim:1h54m50s) 
CPU  0 inst:  418000001 cyc:  567460271 now IPC :1.84390: AVG IPC :0.73436: L2-Pf-HR :0.99646: L2-HR :0.92184: (Sim:1h55m0s) 
CPU  0 inst:  419000005 cyc:  567962884 now IPC :1.98961: AVG IPC :0.73548: L2-Pf-HR :0.99645: L2-HR :0.92190: (Sim:1h55m9s) 
CPU  0 inst:  420000005 cyc:  568616598 now IPC :1.52972: AVG IPC :0.73639: L2-Pf-HR :0.99645: L2-HR :0.92184: (Sim:1h55m19s) 
CPU  0 inst:  421000004 cyc:  569165791 now IPC :1.82085: AVG IPC :0.73744: L2-Pf-HR :0.99645: L2-HR :0.92190: (Sim:1h55m28s) 
CPU  0 inst:  422000002 cyc:  569768790 now IPC :1.65837: AVG IPC :0.73842: L2-Pf-HR :0.99644: L2-HR :0.92195: (Sim:1h55m38s) 
CPU  0 inst:  423000000 cyc:  570376939 now IPC :1.64433: AVG IPC :0.73938: L2-Pf-HR :0.99644: L2-HR :0.92191: (Sim:1h55m47s) 
CPU  0 inst:  424000001 cyc:  570854665 now IPC :2.09325: AVG IPC :0.74052: L2-Pf-HR :0.99643: L2-HR :0.92199: (Sim:1h55m57s) 
CPU  0 inst:  425000000 cyc:  571371423 now IPC :1.93514: AVG IPC :0.74160: L2-Pf-HR :0.99643: L2-HR :0.92206: (Sim:1h56m6s) 
CPU  0 inst:  426000001 cyc:  571898050 now IPC :1.89888: AVG IPC :0.74267: L2-Pf-HR :0.99642: L2-HR :0.92207: (Sim:1h56m15s) 
CPU  0 inst:  427000001 cyc:  572376564 now IPC :2.08980: AVG IPC :0.74380: L2-Pf-HR :0.99641: L2-HR :0.92215: (Sim:1h56m24s) 
CPU  0 inst:  428000001 cyc:  573008119 now IPC :1.58339: AVG IPC :0.74472: L2-Pf-HR :0.99640: L2-HR :0.92209: (Sim:1h56m35s) 
CPU  0 inst:  429000000 cyc:  573583034 now IPC :1.73939: AVG IPC :0.74572: L2-Pf-HR :0.99640: L2-HR :0.92215: (Sim:1h56m44s) 
CPU  0 inst:  430000003 cyc:  574153126 now IPC :1.75411: AVG IPC :0.74672: L2-Pf-HR :0.99640: L2-HR :0.92221: (Sim:1h56m53s) 
CPU  0 inst:  431000000 cyc:  574755463 now IPC :1.66020: AVG IPC :0.74768: L2-Pf-HR :0.99640: L2-HR :0.92225: (Sim:1h57m2s) 
CPU  0 inst:  432000002 cyc:  575317264 now IPC :1.77999: AVG IPC :0.74869: L2-Pf-HR :0.99640: L2-HR :0.92224: (Sim:1h57m13s) 
CPU  0 inst:  433000000 cyc:  575786087 now IPC :2.13300: AVG IPC :0.74982: L2-Pf-HR :0.99639: L2-HR :0.92231: (Sim:1h57m22s) 
CPU  0 inst:  434000000 cyc:  576290622 now IPC :1.98202: AVG IPC :0.75090: L2-Pf-HR :0.99638: L2-HR :0.92239: (Sim:1h57m30s) 
CPU  0 inst:  435000004 cyc:  576835285 now IPC :1.83600: AVG IPC :0.75193: L2-Pf-HR :0.99637: L2-HR :0.92238: (Sim:1h57m40s) 
CPU  0 inst:  436000002 cyc:  577337915 now IPC :1.98953: AVG IPC :0.75301: L2-Pf-HR :0.99637: L2-HR :0.92245: (Sim:1h57m49s) 
CPU  0 inst:  437000001 cyc:  577995483 now IPC :1.52075: AVG IPC :0.75388: L2-Pf-HR :0.99636: L2-HR :0.92239: (Sim:1h57m59s) 
CPU  0 inst:  438000005 cyc:  578549728 now IPC :1.80426: AVG IPC :0.75489: L2-Pf-HR :0.99636: L2-HR :0.92244: (Sim:1h58m9s) 
CPU  0 inst:  439000000 cyc:  579160231 now IPC :1.63799: AVG IPC :0.75582: L2-Pf-HR :0.99636: L2-HR :0.92248: (Sim:1h58m18s) 
CPU  0 inst:  440000000 cyc:  579770554 now IPC :1.63848: AVG IPC :0.75675: L2-Pf-HR :0.99635: L2-HR :0.92244: (Sim:1h58m28s) 
CPU  0 inst:  441000000 cyc:  580238061 now IPC :2.13901: AVG IPC :0.75787: L2-Pf-HR :0.99635: L2-HR :0.92251: (Sim:1h58m37s) 
CPU  0 inst:  442000002 cyc:  580756749 now IPC :1.92795: AVG IPC :0.75892: L2-Pf-HR :0.99634: L2-HR :0.92258: (Sim:1h58m46s) 
CPU  0 inst:  443000002 cyc:  581291919 now IPC :1.86857: AVG IPC :0.75994: L2-Pf-HR :0.99633: L2-HR :0.92257: (Sim:1h58m56s) 
CPU  0 inst:  444000001 cyc:  581763302 now IPC :2.12142: AVG IPC :0.76105: L2-Pf-HR :0.99632: L2-HR :0.92263: (Sim:1h59m5s) 
CPU  0 inst:  445000002 cyc:  582404422 now IPC :1.55977: AVG IPC :0.76193: L2-Pf-HR :0.99631: L2-HR :0.92256: (Sim:1h59m15s) 
CPU  0 inst:  446000003 cyc:  582974563 now IPC :1.75395: AVG IPC :0.76290: L2-Pf-HR :0.99631: L2-HR :0.92261: (Sim:1h59m24s) 
CPU  0 inst:  447000002 cyc:  583538751 now IPC :1.77246: AVG IPC :0.76388: L2-Pf-HR :0.99631: L2-HR :0.92267: (Sim:1h59m33s) 
CPU  0 inst:  448000003 cyc:  584178363 now IPC :1.56345: AVG IPC :0.76475: L2-Pf-HR :0.99631: L2-HR :0.92263: (Sim:1h59m43s) 
CPU  0 inst:  449000004 cyc:  584682723 now IPC :1.98271: AVG IPC :0.76581: L2-Pf-HR :0.99630: L2-HR :0.92267: (Sim:1h59m53s) 
CPU  0 inst:  450000003 cyc:  585151093 now IPC :2.13506: AVG IPC :0.76690: L2-Pf-HR :0.99629: L2-HR :0.92274: (Sim:2h0m2s) 
CPU  0 inst:  451000000 cyc:  585657105 now IPC :1.97623: AVG IPC :0.76795: L2-Pf-HR :0.99629: L2-HR :0.92280: (Sim:2h0m10s) 
CPU  0 inst:  452000005 cyc:  586208164 now IPC :1.81470: AVG IPC :0.76894: L2-Pf-HR :0.99628: L2-HR :0.92279: (Sim:2h0m20s) 
CPU  0 inst:  453000005 cyc:  586703004 now IPC :2.02086: AVG IPC :0.76999: L2-Pf-HR :0.99627: L2-HR :0.92285: (Sim:2h0m29s) 
CPU  0 inst:  454000001 cyc:  587369051 now IPC :1.50139: AVG IPC :0.77082: L2-Pf-HR :0.99627: L2-HR :0.92277: (Sim:2h0m39s) 
CPU  0 inst:  455000002 cyc:  587923304 now IPC :1.80423: AVG IPC :0.77180: L2-Pf-HR :0.99627: L2-HR :0.92282: (Sim:2h0m58s) 
CPU  0 inst:  456000000 cyc:  588508583 now IPC :1.70858: AVG IPC :0.77273: L2-Pf-HR :0.99626: L2-HR :0.92286: (Sim:2h1m16s) 
CPU  0 inst:  457000003 cyc:  589114500 now IPC :1.65040: AVG IPC :0.77364: L2-Pf-HR :0.99626: L2-HR :0.92281: (Sim:2h1m37s) 
CPU  0 inst:  458000002 cyc:  589583561 now IPC :2.13192: AVG IPC :0.77472: L2-Pf-HR :0.99625: L2-HR :0.92288: (Sim:2h1m56s) 
CPU  0 inst:  459000005 cyc:  590099528 now IPC :1.93811: AVG IPC :0.77574: L2-Pf-HR :0.99625: L2-HR :0.92294: (Sim:2h2m15s) 
CPU  0 inst:  460000002 cyc:  590634746 now IPC :1.86839: AVG IPC :0.77673: L2-Pf-HR :0.99624: L2-HR :0.92293: (Sim:2h2m35s) 
CPU  0 inst:  461000000 cyc:  591110848 now IPC :2.10039: AVG IPC :0.77780: L2-Pf-HR :0.99623: L2-HR :0.92299: (Sim:2h2m53s) 
CPU  0 inst:  462000002 cyc:  591765795 now IPC :1.52684: AVG IPC :0.77863: L2-Pf-HR :0.99622: L2-HR :0.92292: (Sim:2h3m14s) 
CPU  0 inst:  463000000 cyc:  592337071 now IPC :1.75046: AVG IPC :0.77957: L2-Pf-HR :0.99622: L2-HR :0.92297: (Sim:2h3m35s) 
CPU  0 inst:  464000001 cyc:  592905559 now IPC :1.75905: AVG IPC :0.78051: L2-Pf-HR :0.99622: L2-HR :0.92303: (Sim:2h3m56s) 
CPU  0 inst:  465000000 cyc:  593579148 now IPC :1.48458: AVG IPC :0.78131: L2-Pf-HR :0.99622: L2-HR :0.92294: (Sim:2h4m18s) 
CPU  0 inst:  466000000 cyc:  594044996 now IPC :2.14662: AVG IPC :0.78238: L2-Pf-HR :0.99621: L2-HR :0.92301: (Sim:2h4m38s) 
CPU  0 inst:  467000002 cyc:  594512408 now IPC :2.13944: AVG IPC :0.78345: L2-Pf-HR :0.99620: L2-HR :0.92308: (Sim:2h4m58s) 
CPU  0 inst:  468000002 cyc:  595022426 now IPC :1.96072: AVG IPC :0.78446: L2-Pf-HR :0.99620: L2-HR :0.92314: (Sim:2h5m17s) 
CPU  0 inst:  469000000 cyc:  595562716 now IPC :1.85085: AVG IPC :0.78543: L2-Pf-HR :0.99619: L2-HR :0.92312: (Sim:2h5m39s) 
CPU  0 inst:  470000002 cyc:  596058892 now IPC :2.01542: AVG IPC :0.78645: L2-Pf-HR :0.99618: L2-HR :0.92317: (Sim:2h5m59s) 
CPU  0 inst:  471000001 cyc:  596727853 now IPC :1.49485: AVG IPC :0.78725: L2-Pf-HR :0.99618: L2-HR :0.92310: (Sim:2h6m22s) 
CPU  0 inst:  472000005 cyc:  597296339 now IPC :1.75907: AVG IPC :0.78818: L2-Pf-HR :0.99617: L2-HR :0.92314: (Sim:2h6m43s) 
CPU  0 inst:  473000001 cyc:  597889537 now IPC :1.68577: AVG IPC :0.78907: L2-Pf-HR :0.99617: L2-HR :0.92317: (Sim:2h7m3s) 
CPU  0 inst:  474000000 cyc:  598489437 now IPC :1.66694: AVG IPC :0.78995: L2-Pf-HR :0.99617: L2-HR :0.92312: (Sim:2h7m24s) 
CPU  0 inst:  475000003 cyc:  598957776 now IPC :2.13521: AVG IPC :0.79100: L2-Pf-HR :0.99616: L2-HR :0.92319: (Sim:2h7m33s) 
CPU  0 inst:  476000005 cyc:  599478284 now IPC :1.92120: AVG IPC :0.79199: L2-Pf-HR :0.99616: L2-HR :0.92324: (Sim:2h7m42s) 
CPU  0 inst:  477000004 cyc:  600015026 now IPC :1.86309: AVG IPC :0.79295: L2-Pf-HR :0.99615: L2-HR :0.92323: (Sim:2h7m52s) 
CPU  0 inst:  478000000 cyc:  600494976 now IPC :2.08354: AVG IPC :0.79398: L2-Pf-HR :0.99614: L2-HR :0.92328: (Sim:2h8m1s) 
CPU  0 inst:  479000002 cyc:  601143497 now IPC :1.54197: AVG IPC :0.79479: L2-Pf-HR :0.99613: L2-HR :0.92319: (Sim:2h8m22s) 
CPU  0 inst:  480000000 cyc:  601718262 now IPC :1.73984: AVG IPC :0.79569: L2-Pf-HR :0.99613: L2-HR :0.92324: (Sim:2h8m43s) 
CPU  0 inst:  481000004 cyc:  602297462 now IPC :1.72653: AVG IPC :0.79659: L2-Pf-HR :0.99613: L2-HR :0.92328: (Sim:2h9m3s) 
CPU  0 inst:  482000003 cyc:  602942670 now IPC :1.54989: AVG IPC :0.79740: L2-Pf-HR :0.99613: L2-HR :0.92321: (Sim:2h9m25s) 
CPU  0 inst:  483000003 cyc:  603410278 now IPC :2.13854: AVG IPC :0.79844: L2-Pf-HR :0.99612: L2-HR :0.92327: (Sim:2h9m37s) 
CPU  0 inst:  484000002 cyc:  603885911 now IPC :2.10246: AVG IPC :0.79947: L2-Pf-HR :0.99611: L2-HR :0.92334: (Sim:2h9m46s) 
CPU  0 inst:  485000005 cyc:  604446092 now IPC :1.78514: AVG IPC :0.80038: L2-Pf-HR :0.99611: L2-HR :0.92334: (Sim:2h9m55s) 
CPU  0 inst:  486000005 cyc:  604938539 now IPC :2.03068: AVG IPC :0.80138: L2-Pf-HR :0.99610: L2-HR :0.92337: (Sim:2h10m5s) 
CPU  0 inst:  487000002 cyc:  605434607 now IPC :2.01585: AVG IPC :0.80238: L2-Pf-HR :0.99609: L2-HR :0.92342: (Sim:2h10m14s) 
CPU  0 inst:  488000003 cyc:  606100410 now IPC :1.50195: AVG IPC :0.80315: L2-Pf-HR :0.99609: L2-HR :0.92334: (Sim:2h10m24s) 
CPU  0 inst:  489000005 cyc:  606667346 now IPC :1.76387: AVG IPC :0.80405: L2-Pf-HR :0.99609: L2-HR :0.92337: (Sim:2h10m34s) 
CPU  0 inst:  490000000 cyc:  607254560 now IPC :1.70295: AVG IPC :0.80492: L2-Pf-HR :0.99609: L2-HR :0.92340: (Sim:2h10m43s) 
CPU  0 inst:  491000000 cyc:  607845196 now IPC :1.69309: AVG IPC :0.80578: L2-Pf-HR :0.99608: L2-HR :0.92336: (Sim:2h10m53s) 
CPU  0 inst:  492000002 cyc:  608323754 now IPC :2.08962: AVG IPC :0.80680: L2-Pf-HR :0.99607: L2-HR :0.92342: (Sim:2h11m3s) 
CPU  0 inst:  493000003 cyc:  608830446 now IPC :1.97359: AVG IPC :0.80777: L2-Pf-HR :0.99607: L2-HR :0.92347: (Sim:2h11m11s) 
CPU  0 inst:  494000005 cyc:  609365298 now IPC :1.86968: AVG IPC :0.80870: L2-Pf-HR :0.99606: L2-HR :0.92346: (Sim:2h11m21s) 
CPU  0 inst:  495000000 cyc:  609853658 now IPC :2.04766: AVG IPC :0.80970: L2-Pf-HR :0.99605: L2-HR :0.92351: (Sim:2h11m30s) 
CPU  0 inst:  496000004 cyc:  610508578 now IPC :1.52691: AVG IPC :0.81047: L2-Pf-HR :0.99604: L2-HR :0.92342: (Sim:2h11m40s) 
CPU  0 inst:  497000001 cyc:  611079398 now IPC :1.75186: AVG IPC :0.81135: L2-Pf-HR :0.99605: L2-HR :0.92346: (Sim:2h11m50s) 
CPU  0 inst:  498000000 cyc:  611680738 now IPC :1.66295: AVG IPC :0.81219: L2-Pf-HR :0.99604: L2-HR :0.92348: (Sim:2h12m0s) 
CPU  0 inst:  499000000 cyc:  612310951 now IPC :1.58677: AVG IPC :0.81298: L2-Pf-HR :0.99604: L2-HR :0.92342: (Sim:2h12m10s) 
CPU  0 inst:  500000000 cyc:  612778626 now IPC :2.13824: AVG IPC :0.81400: L2-Pf-HR :0.99603: L2-HR :0.92348: (Sim:2h12m20s) 
CPU  0 inst:  501000001 cyc:  613263120 now IPC :2.06401: AVG IPC :0.81499: L2-Pf-HR :0.99603: L2-HR :0.92355: (Sim:2h12m29s) 
CPU  0 inst:  502000003 cyc:  613830950 now IPC :1.76109: AVG IPC :0.81586: L2-Pf-HR :0.99602: L2-HR :0.92351: (Sim:2h12m39s) 
CPU  0 inst:  503000005 cyc:  614301892 now IPC :2.12341: AVG IPC :0.81687: L2-Pf-HR :0.99601: L2-HR :0.92355: (Sim:2h12m48s) 
CPU  0 inst:  504000000 cyc:  614804813 now IPC :1.98837: AVG IPC :0.81783: L2-Pf-HR :0.99601: L2-HR :0.92360: (Sim:2h12m57s) 
CPU  0 inst:  505000002 cyc:  615492212 now IPC :1.45476: AVG IPC :0.81854: L2-Pf-HR :0.99600: L2-HR :0.92351: (Sim:2h13m8s) 
CPU  0 inst:  506000000 cyc:  616051649 now IPC :1.78751: AVG IPC :0.81942: L2-Pf-HR :0.99600: L2-HR :0.92353: (Sim:2h13m17s) 
CPU  0 inst:  507000004 cyc:  616637035 now IPC :1.70828: AVG IPC :0.82027: L2-Pf-HR :0.99600: L2-HR :0.92356: (Sim:2h13m26s) 
CPU  0 inst:  508000003 cyc:  617220095 now IPC :1.71509: AVG IPC :0.82111: L2-Pf-HR :0.99599: L2-HR :0.92351: (Sim:2h13m36s) 
CPU  0 inst:  509000002 cyc:  617698930 now IPC :2.08840: AVG IPC :0.82210: L2-Pf-HR :0.99598: L2-HR :0.92356: (Sim:2h13m46s) 
CPU  0 inst:  510000001 cyc:  618205766 now IPC :1.97302: AVG IPC :0.82304: L2-Pf-HR :0.99597: L2-HR :0.92360: (Sim:2h13m55s) 
CPU  0 inst:  511000003 cyc:  618747071 now IPC :1.84739: AVG IPC :0.82394: L2-Pf-HR :0.99597: L2-HR :0.92358: (Sim:2h14m5s) 
CPU  0 inst:  512000004 cyc:  619248229 now IPC :1.99538: AVG IPC :0.82489: L2-Pf-HR :0.99596: L2-HR :0.92361: (Sim:2h14m15s) 
CPU  0 inst:  513000003 cyc:  619898490 now IPC :1.53784: AVG IPC :0.82564: L2-Pf-HR :0.99595: L2-HR :0.92353: (Sim:2h14m25s) 
CPU  0 inst:  514000002 cyc:  620444702 now IPC :1.83079: AVG IPC :0.82652: L2-Pf-HR :0.99595: L2-HR :0.92356: (Sim:2h14m35s) 
CPU  0 inst:  515000003 cyc:  621041965 now IPC :1.67431: AVG IPC :0.82734: L2-Pf-HR :0.99595: L2-HR :0.92358: (Sim:2h14m44s) 
CPU  0 inst:  516000002 cyc:  621656474 now IPC :1.62731: AVG IPC :0.82813: L2-Pf-HR :0.99594: L2-HR :0.92352: (Sim:2h14m54s) 
CPU  0 inst:  517000002 cyc:  622135770 now IPC :2.08639: AVG IPC :0.82910: L2-Pf-HR :0.99593: L2-HR :0.92358: (Sim:2h15m4s) 
CPU  0 inst:  518000003 cyc:  622619310 now IPC :2.06808: AVG IPC :0.83007: L2-Pf-HR :0.99593: L2-HR :0.92365: (Sim:2h15m13s) 
CPU  0 inst:  519000003 cyc:  623178519 now IPC :1.78824: AVG IPC :0.83093: L2-Pf-HR :0.99592: L2-HR :0.92359: (Sim:2h15m25s) 
CPU  0 inst:  520000003 cyc:  623655619 now IPC :2.09600: AVG IPC :0.83190: L2-Pf-HR :0.99591: L2-HR :0.92363: (Sim:2h15m45s) 
CPU  0 inst:  521000000 cyc:  624213675 now IPC :1.79193: AVG IPC :0.83276: L2-Pf-HR :0.99591: L2-HR :0.92361: (Sim:2h16m5s) 
CPU  0 inst:  522000002 cyc:  624839197 now IPC :1.59867: AVG IPC :0.83353: L2-Pf-HR :0.99590: L2-HR :0.92358: (Sim:2h16m28s) 
CPU  0 inst:  523000000 cyc:  625394598 now IPC :1.80050: AVG IPC :0.83439: L2-Pf-HR :0.99590: L2-HR :0.92360: (Sim:2h16m45s) 
CPU  0 inst:  524000005 cyc:  625979178 now IPC :1.71064: AVG IPC :0.83521: L2-Pf-HR :0.99590: L2-HR :0.92362: (Sim:2h16m54s) 
CPU  0 inst:  525000000 cyc:  626559698 now IPC :1.72258: AVG IPC :0.83603: L2-Pf-HR :0.99589: L2-HR :0.92358: (Sim:2h17m4s) 
CPU  0 inst:  526000005 cyc:  627038276 now IPC :2.08953: AVG IPC :0.83699: L2-Pf-HR :0.99588: L2-HR :0.92362: (Sim:2h17m14s) 
CPU  0 inst:  527000002 cyc:  627543312 now IPC :1.98005: AVG IPC :0.83791: L2-Pf-HR :0.99588: L2-HR :0.92366: (Sim:2h17m22s) 
CPU  0 inst:  528000003 cyc:  628084535 now IPC :1.84767: AVG IPC :0.83878: L2-Pf-HR :0.99587: L2-HR :0.92363: (Sim:2h17m32s) 
CPU  0 inst:  529000004 cyc:  628585848 now IPC :1.99476: AVG IPC :0.83970: L2-Pf-HR :0.99586: L2-HR :0.92366: (Sim:2h17m41s) 
CPU  0 inst:  530000003 cyc:  629242821 now IPC :1.52213: AVG IPC :0.84042: L2-Pf-HR :0.99585: L2-HR :0.92358: (Sim:2h17m52s) 
CPU  0 inst:  531000001 cyc:  629796575 now IPC :1.80585: AVG IPC :0.84127: L2-Pf-HR :0.99585: L2-HR :0.92361: (Sim:2h18m1s) 
CPU  0 inst:  532000004 cyc:  630401890 now IPC :1.65204: AVG IPC :0.84205: L2-Pf-HR :0.99585: L2-HR :0.92362: (Sim:2h18m11s) 
CPU  0 inst:  533000002 cyc:  631008312 now IPC :1.64901: AVG IPC :0.84282: L2-Pf-HR :0.99585: L2-HR :0.92356: (Sim:2h18m21s) 
CPU  0 inst:  534000004 cyc:  631485619 now IPC :2.09509: AVG IPC :0.84377: L2-Pf-HR :0.99584: L2-HR :0.92362: (Sim:2h18m31s) 
CPU  0 inst:  535000004 cyc:  632004499 now IPC :1.92723: AVG IPC :0.84466: L2-Pf-HR :0.99583: L2-HR :0.92365: (Sim:2h18m40s) 
CPU  0 inst:  536000003 cyc:  632530563 now IPC :1.90091: AVG IPC :0.84554: L2-Pf-HR :0.99582: L2-HR :0.92363: (Sim:2h18m56s) 
CPU  0 inst:  537000005 cyc:  633008916 now IPC :2.09051: AVG IPC :0.84648: L2-Pf-HR :0.99582: L2-HR :0.92367: (Sim:2h19m16s) 
CPU  0 inst:  538000004 cyc:  633637576 now IPC :1.59068: AVG IPC :0.84722: L2-Pf-HR :0.99580: L2-HR :0.92358: (Sim:2h19m38s) 
CPU  0 inst:  539000002 cyc:  634206467 now IPC :1.75780: AVG IPC :0.84804: L2-Pf-HR :0.99580: L2-HR :0.92361: (Sim:2h19m58s) 
CPU  0 inst:  540000000 cyc:  634769019 now IPC :1.77761: AVG IPC :0.84887: L2-Pf-HR :0.99580: L2-HR :0.92363: (Sim:2h20m18s) 
CPU  0 inst:  541000002 cyc:  635362051 now IPC :1.68625: AVG IPC :0.84965: L2-Pf-HR :0.99580: L2-HR :0.92366: (Sim:2h20m37s) 
CPU  0 inst:  542000002 cyc:  635945935 now IPC :1.71267: AVG IPC :0.85044: L2-Pf-HR :0.99580: L2-HR :0.92361: (Sim:2h21m0s) 
CPU  0 inst:  543000002 cyc:  636414415 now IPC :2.13456: AVG IPC :0.85139: L2-Pf-HR :0.99579: L2-HR :0.92365: (Sim:2h21m19s) 
CPU  0 inst:  544000002 cyc:  636922971 now IPC :1.96635: AVG IPC :0.85228: L2-Pf-HR :0.99578: L2-HR :0.92369: (Sim:2h21m38s) 
CPU  0 inst:  545000001 cyc:  637465805 now IPC :1.84218: AVG IPC :0.85313: L2-Pf-HR :0.99577: L2-HR :0.92366: (Sim:2h21m59s) 
CPU  0 inst:  546000005 cyc:  637968923 now IPC :1.98761: AVG IPC :0.85402: L2-Pf-HR :0.99577: L2-HR :0.92369: (Sim:2h22m18s) 
CPU  0 inst:  547000000 cyc:  638618307 now IPC :1.53991: AVG IPC :0.85472: L2-Pf-HR :0.99576: L2-HR :0.92361: (Sim:2h22m41s) 
CPU  0 inst:  548000001 cyc:  639167930 now IPC :1.81943: AVG IPC :0.85555: L2-Pf-HR :0.99576: L2-HR :0.92364: (Sim:2h23m0s) 
CPU  0 inst:  549000000 cyc:  639771676 now IPC :1.65632: AVG IPC :0.85631: L2-Pf-HR :0.99575: L2-HR :0.92365: (Sim:2h23m20s) 
CPU  0 inst:  550000000 cyc:  640373939 now IPC :1.66040: AVG IPC :0.85707: L2-Pf-HR :0.99575: L2-HR :0.92360: (Sim:2h23m42s) 
CPU  0 inst:  551000005 cyc:  640851841 now IPC :2.09249: AVG IPC :0.85799: L2-Pf-HR :0.99574: L2-HR :0.92364: (Sim:2h24m2s) 
CPU  0 inst:  552000001 cyc:  641376643 now IPC :1.90547: AVG IPC :0.85885: L2-Pf-HR :0.99574: L2-HR :0.92368: (Sim:2h24m22s) 
CPU  0 inst:  553000000 cyc:  641903648 now IPC :1.89751: AVG IPC :0.85970: L2-Pf-HR :0.99573: L2-HR :0.92365: (Sim:2h24m41s) 
CPU  0 inst:  554000003 cyc:  642382121 now IPC :2.08999: AVG IPC :0.86062: L2-Pf-HR :0.99572: L2-HR :0.92369: (Sim:2h25m1s) 
CPU  0 inst:  555000000 cyc:  643017736 now IPC :1.57327: AVG IPC :0.86132: L2-Pf-HR :0.99571: L2-HR :0.92360: (Sim:2h25m23s) 
CPU  0 inst:  556000004 cyc:  643584844 now IPC :1.76334: AVG IPC :0.86212: L2-Pf-HR :0.99571: L2-HR :0.92363: (Sim:2h25m43s) 
CPU  0 inst:  557000002 cyc:  644147080 now IPC :1.77861: AVG IPC :0.86292: L2-Pf-HR :0.99571: L2-HR :0.92366: (Sim:2h26m3s) 
CPU  0 inst:  558000005 cyc:  644773864 now IPC :1.59545: AVG IPC :0.86364: L2-Pf-HR :0.99571: L2-HR :0.92363: (Sim:2h26m23s) 
CPU  0 inst:  559000005 cyc:  645304991 now IPC :1.88279: AVG IPC :0.86448: L2-Pf-HR :0.99570: L2-HR :0.92362: (Sim:2h26m45s) 
CPU  0 inst:  560000002 cyc:  645774091 now IPC :2.13174: AVG IPC :0.86540: L2-Pf-HR :0.99569: L2-HR :0.92366: (Sim:2h27m5s) 
CPU  0 inst:  561000004 cyc:  646284899 now IPC :1.95769: AVG IPC :0.86626: L2-Pf-HR :0.99569: L2-HR :0.92370: (Sim:2h27m24s) 
CPU  0 inst:  562000004 cyc:  646832292 now IPC :1.82684: AVG IPC :0.86708: L2-Pf-HR :0.99568: L2-HR :0.92367: (Sim:2h27m45s) 
CPU  0 inst:  563000003 cyc:  647332882 now IPC :1.99764: AVG IPC :0.86795: L2-Pf-HR :0.99567: L2-HR :0.92370: (Sim:2h28m4s) 
CPU  0 inst:  564000001 cyc:  647992549 now IPC :1.51591: AVG IPC :0.86861: L2-Pf-HR :0.99567: L2-HR :0.92362: (Sim:2h28m26s) 
CPU  0 inst:  565000000 cyc:  648540137 now IPC :1.82619: AVG IPC :0.86942: L2-Pf-HR :0.99567: L2-HR :0.92365: (Sim:2h28m46s) 
CPU  0 inst:  566000004 cyc:  649151244 now IPC :1.63638: AVG IPC :0.87015: L2-Pf-HR :0.99567: L2-HR :0.92365: (Sim:2h29m6s) 
CPU  0 inst:  567000002 cyc:  649758125 now IPC :1.64777: AVG IPC :0.87087: L2-Pf-HR :0.99566: L2-HR :0.92360: (Sim:2h29m28s) 
CPU  0 inst:  568000002 cyc:  650224884 now IPC :2.14243: AVG IPC :0.87179: L2-Pf-HR :0.99565: L2-HR :0.92364: (Sim:2h29m48s) 
CPU  0 inst:  569000005 cyc:  650742327 now IPC :1.93259: AVG IPC :0.87263: L2-Pf-HR :0.99565: L2-HR :0.92367: (Sim:2h30m8s) 
CPU  0 inst:  570000001 cyc:  651274306 now IPC :1.87977: AVG IPC :0.87346: L2-Pf-HR :0.99564: L2-HR :0.92365: (Sim:2h30m28s) 
CPU  0 inst:  571000000 cyc:  651748082 now IPC :2.11070: AVG IPC :0.87436: L2-Pf-HR :0.99563: L2-HR :0.92368: (Sim:2h30m48s) 
CPU  0 inst:  572000004 cyc:  652393588 now IPC :1.54918: AVG IPC :0.87502: L2-Pf-HR :0.99562: L2-HR :0.92360: (Sim:2h31m9s) 
CPU  0 inst:  573000004 cyc:  652957187 now IPC :1.77431: AVG IPC :0.87580: L2-Pf-HR :0.99562: L2-HR :0.92362: (Sim:2h31m29s) 
CPU  0 inst:  574000003 cyc:  653515819 now IPC :1.79009: AVG IPC :0.87658: L2-Pf-HR :0.99562: L2-HR :0.92365: (Sim:2h31m49s) 
CPU  0 inst:  575000000 cyc:  654195152 now IPC :1.47203: AVG IPC :0.87720: L2-Pf-HR :0.99562: L2-HR :0.92357: (Sim:2h32m11s) 
CPU  0 inst:  576000001 cyc:  654662528 now IPC :2.13961: AVG IPC :0.87811: L2-Pf-HR :0.99561: L2-HR :0.92361: (Sim:2h32m31s) 
CPU  0 inst:  577000005 cyc:  655131864 now IPC :2.13068: AVG IPC :0.87901: L2-Pf-HR :0.99560: L2-HR :0.92365: (Sim:2h32m50s) 
CPU  0 inst:  578000004 cyc:  655640608 now IPC :1.96562: AVG IPC :0.87985: L2-Pf-HR :0.99560: L2-HR :0.92369: (Sim:2h33m9s) 
CPU  0 inst:  579000001 cyc:  656187978 now IPC :1.82691: AVG IPC :0.88064: L2-Pf-HR :0.99559: L2-HR :0.92366: (Sim:2h33m30s) 
CPU  0 inst:  580000001 cyc:  656682846 now IPC :2.02074: AVG IPC :0.88150: L2-Pf-HR :0.99559: L2-HR :0.92368: (Sim:2h33m49s) 
CPU  0 inst:  581000005 cyc:  657344450 now IPC :1.51148: AVG IPC :0.88214: L2-Pf-HR :0.99558: L2-HR :0.92360: (Sim:2h34m11s) 
CPU  0 inst:  582000000 cyc:  657909437 now IPC :1.76994: AVG IPC :0.88290: L2-Pf-HR :0.99558: L2-HR :0.92362: (Sim:2h34m32s) 
CPU  0 inst:  583000001 cyc:  658505655 now IPC :1.67724: AVG IPC :0.88362: L2-Pf-HR :0.99557: L2-HR :0.92363: (Sim:2h34m51s) 
CPU  0 inst:  584000005 cyc:  659104257 now IPC :1.67057: AVG IPC :0.88434: L2-Pf-HR :0.99557: L2-HR :0.92358: (Sim:2h35m13s) 
CPU  0 inst:  585000005 cyc:  659571655 now IPC :2.13950: AVG IPC :0.88523: L2-Pf-HR :0.99556: L2-HR :0.92362: (Sim:2h35m32s) 
CPU  0 inst:  586000003 cyc:  660091363 now IPC :1.92415: AVG IPC :0.88605: L2-Pf-HR :0.99555: L2-HR :0.92365: (Sim:2h35m52s) 
CPU  0 inst:  587000004 cyc:  660625622 now IPC :1.87175: AVG IPC :0.88684: L2-Pf-HR :0.99554: L2-HR :0.92362: (Sim:2h36m12s) 
CPU  0 inst:  588000001 cyc:  661101913 now IPC :2.09955: AVG IPC :0.88772: L2-Pf-HR :0.99554: L2-HR :0.92365: (Sim:2h36m32s) 
CPU  0 inst:  589000003 cyc:  661751409 now IPC :1.53966: AVG IPC :0.88836: L2-Pf-HR :0.99553: L2-HR :0.92356: (Sim:2h36m53s) 
CPU  0 inst:  590000003 cyc:  662326100 now IPC :1.74007: AVG IPC :0.88910: L2-Pf-HR :0.99553: L2-HR :0.92358: (Sim:2h37m14s) 
CPU  0 inst:  591000005 cyc:  662876199 now IPC :1.81786: AVG IPC :0.88987: L2-Pf-HR :0.99552: L2-HR :0.92362: (Sim:2h37m34s) 
CPU  0 inst:  592000004 cyc:  663545299 now IPC :1.49454: AVG IPC :0.89048: L2-Pf-HR :0.99552: L2-HR :0.92352: (Sim:2h37m55s) 
CPU  0 inst:  593000004 cyc:  664012633 now IPC :2.13980: AVG IPC :0.89136: L2-Pf-HR :0.99551: L2-HR :0.92356: (Sim:2h38m15s) 
CPU  0 inst:  594000004 cyc:  664485869 now IPC :2.11311: AVG IPC :0.89223: L2-Pf-HR :0.99551: L2-HR :0.92361: (Sim:2h38m35s) 
Finished CPU 0 instr: 592000003 cyc: 663502403 AVG IPC: 0.89223 (Sim time: 2h38m35s)

ChampSim completed all CPUs

[ROI Statistics]
Core_0_instructions 592000003
Core_0_cycles 663502403
Core_0_IPC 0.89223

Core_0_branch_prediction_accuracy 98.24511
Core_0_branch_MPKI 0.42508
Core_0_average_ROB_occupancy_at_mispredict 577.11344

Core_0_L1D_total_access 136878339
Core_0_L1D_total_hit 125435902 L1D_total_Hit Ratio: 0.91640
Core_0_L1D_total_miss 11442437
Core_0_L1D_loads 123327540
Core_0_L1D_load_hit 112539573 L1D_load_Hit Ratio: 0.91253
Core_0_L1D_load_miss 10787967
Core_0_L1D_RFOs 11883544
Core_0_L1D_RFO_hit 11229074 L1D_RFO_Hit Ratio: 0.94493
Core_0_L1D_RFO_miss 654470
Core_0_L1D_prefetches 1667255
Core_0_L1D_prefetch_hit 1667255 L1D_prefetch_Hit Ratio: 1.00000
Core_0_L1D_prefetch_miss 0
Core_0_L1D_writebacks 0
Core_0_L1D_writeback_hit 0 L1D_writeback_Hit Ratio: -nan
Core_0_L1D_writeback_miss 0
Core_0_L1D_prefetch_requested 58442821
Core_0_L1D_prefetch_issued 34848928
Core_0_L1D_prefetch_useful 0 L1D_Useful Ratio: 0.00000
Core_0_L1D_prefetch_useless 0
Core_0_L1D_prefetch_late 0
Core_0_L1D_average_miss_latency 111.68099

Core_0_L1I_total_access 74816680
Core_0_L1I_total_hit 74811805 L1I_total_Hit Ratio: 0.99993
Core_0_L1I_total_miss 4875
Core_0_L1I_loads 74816680
Core_0_L1I_load_hit 74811805 L1I_load_Hit Ratio: 0.99993
Core_0_L1I_load_miss 4875
Core_0_L1I_RFOs 0
Core_0_L1I_RFO_hit 0 L1I_RFO_Hit Ratio: -nan
Core_0_L1I_RFO_miss 0
Core_0_L1I_prefetches 0
Core_0_L1I_prefetch_hit 0 L1I_prefetch_Hit Ratio: -nan
Core_0_L1I_prefetch_miss 0
Core_0_L1I_writebacks 0
Core_0_L1I_writeback_hit 0 L1I_writeback_Hit Ratio: -nan
Core_0_L1I_writeback_miss 0
Core_0_L1I_prefetch_requested 0
Core_0_L1I_prefetch_issued 0
Core_0_L1I_prefetch_useful 0 L1I_Useful Ratio: -nan
Core_0_L1I_prefetch_useless 0
Core_0_L1I_prefetch_late 0
Core_0_L1I_average_miss_latency 284.95364

Core_0_L2C_total_access 45564209
Core_0_L2C_total_hit 42083468 L2C_total_Hit Ratio: 0.92361
Core_0_L2C_total_miss 3480741
Core_0_L2C_loads 10792826
Core_0_L2C_load_hit 7978623 L2C_load_Hit Ratio: 0.73925
Core_0_L2C_load_miss 2814203
Core_0_L2C_RFOs 654470
Core_0_L2C_RFO_hit 126860 L2C_RFO_Hit Ratio: 0.19384
Core_0_L2C_RFO_miss 527610
Core_0_L2C_prefetches 30912088
Core_0_L2C_prefetch_hit 30773171 L2C_prefetch_Hit Ratio: 0.99551
Core_0_L2C_prefetch_miss 138917
Core_0_L2C_writebacks 3204825
Core_0_L2C_writeback_hit 3204814 L2C_writeback_Hit Ratio: 1.00000
Core_0_L2C_writeback_miss 11
Core_0_L2C_prefetch_requested 9529604
Core_0_L2C_prefetch_issued 315991
Core_0_L2C_prefetch_useful 138791 L2C_Useful Ratio: 0.43922
Core_0_L2C_prefetch_useless 126
Core_0_L2C_prefetch_late 13221
Core_0_L2C_average_miss_latency 318.89935

Core_0_LLC_total_access 5540111
Core_0_LLC_total_hit 2384325 LLC_total_Hit Ratio: 0.43037
Core_0_LLC_total_miss 3155786
Core_0_LLC_loads 2800980
Core_0_LLC_load_hit 183453 LLC_load_Hit Ratio: 0.06550
Core_0_LLC_load_miss 2617527
Core_0_LLC_RFOs 527594
Core_0_LLC_RFO_hit 2796 LLC_RFO_Hit Ratio: 0.00530
Core_0_LLC_RFO_miss 524798
Core_0_LLC_prefetches 244695
Core_0_LLC_prefetch_hit 240983 LLC_prefetch_Hit Ratio: 0.98483
Core_0_LLC_prefetch_miss 3712
Core_0_LLC_writebacks 1966842
Core_0_LLC_writeback_hit 1957093 LLC_writeback_Hit Ratio: 0.99504
Core_0_LLC_writeback_miss 9749
Core_0_LLC_prefetch_requested 0
Core_0_LLC_prefetch_issued 0
Core_0_LLC_prefetch_useful 1801 LLC_Useful Ratio: inf
Core_0_LLC_prefetch_useless 1899
Core_0_LLC_prefetch_late 686
Core_0_LLC_average_miss_latency 296.53480

Core_0_major_page_fault 0
Core_0_minor_page_fault 25625

CPU 0 L1D next line prefetcher final stats
Prefetcher final stats
Training Unit Size: 4619
Addr table size: 1576028 1576029


Triggers: 2829934
No Prediction: 1590877 56.21605
Stream end: 61486
No translation: 53055517 1874.79697
Predictions: 315991 11.16602


Stream divergence: 49058 1.73354
Stream divergence -- new stream: 0
Channel_0_RQ_row_buffer_hit 1854202
Channel_0_RQ_row_buffer_miss 1291832
Channel_0_WQ_row_buffer_hit 780136
Channel_0_WQ_row_buffer_miss 928523
Channel_0_WQ_full 813
Channel_0_dbus_congested 1537470

avg_congested_cycle 10

EzSearch AVG IPC :0.89223: L2-Pf-HR :0.99551 : L2-HR :0.92361 Uful:0.43922
     > Finished combination: TraceType=770-tot Sim:592000000 Prefetcher=L2isb_ideal L1=isb_ideal
