TRACE: [167000000][OPT-350M]_[h16][s512][d64] Warmup: 2000000 NumTraces: 167000000
L1:no:L2:spp_berti_src
Initialize SIGNATURE TABLE
ST_SET: 1
ST_WAY: 256
ST_TAG_BIT: 16
ST_TAG_MASK: ffff

Initialize PATTERN TABLE
PT_SET: 512
PT_WAY: 4
SIG_DELTA_BIT: 7
C_SIG_BIT: 4
C_DELTA_BIT: 4

Initialize PREFETCH FILTER
FILTER_SET: 1024
*************************************************
   ChampSim Multicore Out-of-Order Simulator
   Last compiled: Oct 29 2024 03:18:02
*************************************************

trace_0 770-tot_memTraces_v3/memTraces[167000000][OPT-350M]_[h16][s512][d64].champsim.xz
trace_1 770-tot_memTraces_v3/memTraces[167000000][OPT-350M]_[h16][s512][d64].champsim.xz
trace_2 770-tot_memTraces_v3/memTraces[167000000][OPT-350M]_[h16][s512][d64].champsim.xz
trace_3 770-tot_memTraces_v3/memTraces[167000000][OPT-350M]_[h16][s512][d64].champsim.xz
ST_WAYS: 256
PT_SETS: 512
ST_WAYS: 256
PT_SETS: 512
ST_WAYS: 256
PT_SETS: 512
ST_WAYS: 256
PT_SETS: 512
MAIN.cc ln 751 stats print skipped
CPU  3 inst:    1000000 cyc:     498349 now IPC :2.00663: AVG IPC :2.00663: L2-Pf-HR :0.97624: L2-HR :0.85609: (Sim:0h0m26s) 
CPU  0 inst:    1000000 cyc:     498881 now IPC :2.00449: AVG IPC :2.00449: L2-Pf-HR :0.97735: L2-HR :0.87312: (Sim:0h0m26s) 
CPU  1 inst:    1000000 cyc:     498975 now IPC :2.00411: AVG IPC :2.00411: L2-Pf-HR :0.98094: L2-HR :0.87456: (Sim:0h0m26s) 
CPU  2 inst:    1000000 cyc:     498990 now IPC :2.00405: AVG IPC :2.00405: L2-Pf-HR :0.98411: L2-HR :0.88699: (Sim:0h0m26s) 
CPU  3 inst:    2000002 cyc:     981006 now IPC :2.07187: AVG IPC :2.03873: L2-Pf-HR :0.97193: L2-HR :0.88229: (Sim:0h0m54s) 
CPU  0 inst:    2000002 cyc:     981452 now IPC :2.07224: AVG IPC :2.03780: L2-Pf-HR :0.97698: L2-HR :0.90205: (Sim:0h0m54s) 
CPU  1 inst:    2000002 cyc:     981651 now IPC :2.07179: AVG IPC :2.03739: L2-Pf-HR :0.97989: L2-HR :0.90577: (Sim:0h0m54s) 
CPU  2 inst:    2000002 cyc:     981702 now IPC :2.07163: AVG IPC :2.03728: L2-Pf-HR :0.98267: L2-HR :0.91435: (Sim:0h0m54s) 

Warmup complete CPU  0 instructions:    2000487 cycles:     981702 (Simulation time: 0 hr 0 min 54 sec) 
Warmup complete CPU  1 instructions:    2000151 cycles:     981702 (Simulation time: 0 hr 0 min 54 sec) 
Warmup complete CPU  2 instructions:    2000002 cycles:     981702 (Simulation time: 0 hr 0 min 54 sec) 
Warmup complete CPU  3 instructions:    2001514 cycles:     981701 (Simulation time: 0 hr 0 min 54 sec) 

CPU  0 inst:    3000000 cyc:    1673087 now IPC :1.44585: AVG IPC :1.44567: L2-Pf-HR :0.95080: L2-HR :0.89648: (Sim:0h1m19s) 
CPU  1 inst:    3000000 cyc:    1674159 now IPC :1.44402: AVG IPC :1.44391: L2-Pf-HR :0.95653: L2-HR :0.90560: (Sim:0h1m19s) 
CPU  2 inst:    3000000 cyc:    1676334 now IPC :1.43961: AVG IPC :1.43961: L2-Pf-HR :0.96341: L2-HR :0.91693: (Sim:0h1m20s) 
CPU  3 inst:    3000000 cyc:    1678662 now IPC :1.43337: AVG IPC :1.43263: L2-Pf-HR :0.94463: L2-HR :0.88564: (Sim:0h1m20s) 
CPU  0 inst:    4000001 cyc:    2387452 now IPC :1.39985: AVG IPC :1.42238: L2-Pf-HR :0.96719: L2-HR :0.88249: (Sim:0h1m45s) 
CPU  1 inst:    4000001 cyc:    2387653 now IPC :1.40155: AVG IPC :1.42242: L2-Pf-HR :0.97025: L2-HR :0.88959: (Sim:0h1m45s) 
CPU  3 inst:    4000001 cyc:    2390321 now IPC :1.40517: AVG IPC :1.41876: L2-Pf-HR :0.96746: L2-HR :0.88204: (Sim:0h1m45s) 
CPU  2 inst:    4000001 cyc:    2392331 now IPC :1.39666: AVG IPC :1.41781: L2-Pf-HR :0.98115: L2-HR :0.92168: (Sim:0h1m45s) 
CPU  1 inst:    5000002 cyc:    3093953 now IPC :1.41583: AVG IPC :1.42022: L2-Pf-HR :0.98286: L2-HR :0.89608: (Sim:0h2m11s) 
CPU  3 inst:    5000002 cyc:    3095225 now IPC :1.41863: AVG IPC :1.41871: L2-Pf-HR :0.97959: L2-HR :0.88316: (Sim:0h2m11s) 
CPU  2 inst:    5000002 cyc:    3098954 now IPC :1.41518: AVG IPC :1.41693: L2-Pf-HR :0.98732: L2-HR :0.91775: (Sim:0h2m11s) 
CPU  0 inst:    5000002 cyc:    3100024 now IPC :1.40337: AVG IPC :1.41599: L2-Pf-HR :0.98124: L2-HR :0.88980: (Sim:0h2m11s) 
CPU  1 inst:    6000000 cyc:    3774788 now IPC :1.46878: AVG IPC :1.43205: L2-Pf-HR :0.98941: L2-HR :0.91212: (Sim:0h2m36s) 
CPU  3 inst:    6000000 cyc:    3779716 now IPC :1.46094: AVG IPC :1.42904: L2-Pf-HR :0.98712: L2-HR :0.89929: (Sim:0h2m37s) 
CPU  2 inst:    6000000 cyc:    3784152 now IPC :1.45943: AVG IPC :1.42732: L2-Pf-HR :0.99153: L2-HR :0.92714: (Sim:0h2m37s) 
CPU  0 inst:    6000000 cyc:    3784860 now IPC :1.46020: AVG IPC :1.42679: L2-Pf-HR :0.98839: L2-HR :0.90657: (Sim:0h2m37s) 
CPU  1 inst:    7000004 cyc:    4523968 now IPC :1.33480: AVG IPC :1.41148: L2-Pf-HR :0.99226: L2-HR :0.91923: (Sim:0h3m3s) 
CPU  2 inst:    7000004 cyc:    4526894 now IPC :1.34637: AVG IPC :1.41036: L2-Pf-HR :0.99364: L2-HR :0.93190: (Sim:0h3m3s) 
CPU  3 inst:    7000004 cyc:    4527196 now IPC :1.33783: AVG IPC :1.40981: L2-Pf-HR :0.99063: L2-HR :0.90775: (Sim:0h3m3s) 
CPU  0 inst:    7000004 cyc:    4527421 now IPC :1.34670: AVG IPC :1.41001: L2-Pf-HR :0.99129: L2-HR :0.91259: (Sim:0h3m3s) 
CPU  1 inst:    8000003 cyc:    5212453 now IPC :1.45246: AVG IPC :1.41815: L2-Pf-HR :0.99282: L2-HR :0.91515: (Sim:0h3m29s) 
CPU  3 inst:    8000003 cyc:    5212814 now IPC :1.45854: AVG IPC :1.41771: L2-Pf-HR :0.99180: L2-HR :0.90697: (Sim:0h3m29s) 
CPU  0 inst:    8000003 cyc:    5214361 now IPC :1.45573: AVG IPC :1.41743: L2-Pf-HR :0.99199: L2-HR :0.90841: (Sim:0h3m29s) 
CPU  2 inst:    8000000 cyc:    5215458 now IPC :1.45229: AVG IPC :1.41718: L2-Pf-HR :0.99441: L2-HR :0.93138: (Sim:0h3m29s) 
CPU  3 inst:    9000003 cyc:    5911416 now IPC :1.43143: AVG IPC :1.41965: L2-Pf-HR :0.99259: L2-HR :0.90422: (Sim:0h3m55s) 
CPU  2 inst:    9000000 cyc:    5912506 now IPC :1.43462: AVG IPC :1.41965: L2-Pf-HR :0.99497: L2-HR :0.92901: (Sim:0h3m55s) 
CPU  1 inst:    9000003 cyc:    5913068 now IPC :1.42732: AVG IPC :1.41945: L2-Pf-HR :0.99354: L2-HR :0.91285: (Sim:0h3m55s) 
CPU  0 inst:    9000000 cyc:    5913622 now IPC :1.43008: AVG IPC :1.41923: L2-Pf-HR :0.99289: L2-HR :0.90669: (Sim:0h3m55s) 
CPU  3 inst:   10000004 cyc:    6635298 now IPC :1.38144: AVG IPC :1.41476: L2-Pf-HR :0.99356: L2-HR :0.90581: (Sim:0h4m21s) 
CPU  0 inst:   10000004 cyc:    6639725 now IPC :1.37722: AVG IPC :1.41384: L2-Pf-HR :0.99412: L2-HR :0.91195: (Sim:0h4m21s) 
CPU  2 inst:   10000004 cyc:    6640599 now IPC :1.37346: AVG IPC :1.41370: L2-Pf-HR :0.99573: L2-HR :0.93174: (Sim:0h4m21s) 
CPU  1 inst:   10000004 cyc:    6646510 now IPC :1.36344: AVG IPC :1.41220: L2-Pf-HR :0.99463: L2-HR :0.91770: (Sim:0h4m22s) 
CPU  3 inst:   11000003 cyc:    7450589 now IPC :1.22655: AVG IPC :1.39104: L2-Pf-HR :0.99446: L2-HR :0.90884: (Sim:0h4m48s) 
CPU  0 inst:   11000002 cyc:    7455168 now IPC :1.22632: AVG IPC :1.39022: L2-Pf-HR :0.99492: L2-HR :0.91487: (Sim:0h4m48s) 
CPU  2 inst:   11000003 cyc:    7459748 now IPC :1.22078: AVG IPC :1.38931: L2-Pf-HR :0.99631: L2-HR :0.93371: (Sim:0h4m48s) 
CPU  1 inst:   11000003 cyc:    7460667 now IPC :1.22826: AVG IPC :1.38909: L2-Pf-HR :0.99537: L2-HR :0.92068: (Sim:0h4m48s) 
CPU  2 inst:   12000001 cyc:    8161767 now IPC :1.42446: AVG IPC :1.39274: L2-Pf-HR :0.99650: L2-HR :0.93353: (Sim:0h5m14s) 
CPU  3 inst:   12000000 cyc:    8162275 now IPC :1.40511: AVG IPC :1.39244: L2-Pf-HR :0.99483: L2-HR :0.90909: (Sim:0h5m14s) 
CPU  0 inst:   12000000 cyc:    8162579 now IPC :1.41360: AVG IPC :1.39252: L2-Pf-HR :0.99504: L2-HR :0.91280: (Sim:0h5m14s) 
CPU  1 inst:   12000000 cyc:    8163087 now IPC :1.42365: AVG IPC :1.39247: L2-Pf-HR :0.99547: L2-HR :0.91864: (Sim:0h5m14s) 
CPU  2 inst:   13000004 cyc:    8851967 now IPC :1.44886: AVG IPC :1.39767: L2-Pf-HR :0.99660: L2-HR :0.93168: (Sim:0h5m41s) 
CPU  3 inst:   13000001 cyc:    8852465 now IPC :1.44888: AVG IPC :1.39738: L2-Pf-HR :0.99493: L2-HR :0.90591: (Sim:0h5m41s) 
CPU  0 inst:   13000004 cyc:    8854530 now IPC :1.44519: AVG IPC :1.39715: L2-Pf-HR :0.99519: L2-HR :0.91040: (Sim:0h5m41s) 
CPU  1 inst:   13000004 cyc:    8855015 now IPC :1.44524: AVG IPC :1.39711: L2-Pf-HR :0.99560: L2-HR :0.91620: (Sim:0h5m41s) 
CPU  3 inst:   14000005 cyc:    9566910 now IPC :1.39969: AVG IPC :1.39758: L2-Pf-HR :0.99543: L2-HR :0.90834: (Sim:0h6m7s) 
CPU  2 inst:   14000005 cyc:    9568042 now IPC :1.39650: AVG IPC :1.39757: L2-Pf-HR :0.99689: L2-HR :0.93294: (Sim:0h6m7s) 
CPU  0 inst:   14000005 cyc:    9569643 now IPC :1.39838: AVG IPC :1.39725: L2-Pf-HR :0.99569: L2-HR :0.91300: (Sim:0h6m7s) 
CPU  1 inst:   14000005 cyc:    9574377 now IPC :1.39012: AVG IPC :1.39652: L2-Pf-HR :0.99606: L2-HR :0.91865: (Sim:0h6m7s) 
CPU  2 inst:   15000000 cyc:   10340342 now IPC :1.29483: AVG IPC :1.38909: L2-Pf-HR :0.99717: L2-HR :0.93440: (Sim:0h6m33s) 
CPU  0 inst:   15000000 cyc:   10343531 now IPC :1.29217: AVG IPC :1.38857: L2-Pf-HR :0.99613: L2-HR :0.91557: (Sim:0h6m33s) 
CPU  3 inst:   15000000 cyc:   10344139 now IPC :1.28662: AVG IPC :1.38837: L2-Pf-HR :0.99585: L2-HR :0.91042: (Sim:0h6m33s) 
CPU  1 inst:   15000000 cyc:   10355100 now IPC :1.28086: AVG IPC :1.38689: L2-Pf-HR :0.99645: L2-HR :0.92110: (Sim:0h6m34s) 
CPU  1 inst:   16000000 cyc:   11043662 now IPC :1.45230: AVG IPC :1.39136: L2-Pf-HR :0.99655: L2-HR :0.92061: (Sim:0h6m59s) 
CPU  3 inst:   16000000 cyc:   11049162 now IPC :1.41839: AVG IPC :1.39047: L2-Pf-HR :0.99603: L2-HR :0.91095: (Sim:0h6m59s) 
CPU  0 inst:   16000000 cyc:   11049560 now IPC :1.41637: AVG IPC :1.39052: L2-Pf-HR :0.99621: L2-HR :0.91425: (Sim:0h6m59s) 
CPU  2 inst:   16000005 cyc:   11050762 now IPC :1.40763: AVG IPC :1.39040: L2-Pf-HR :0.99726: L2-HR :0.93414: (Sim:0h6m59s) 
CPU  3 inst:   17000002 cyc:   11705194 now IPC :1.52432: AVG IPC :1.39866: L2-Pf-HR :0.99612: L2-HR :0.90879: (Sim:0h7m25s) 
CPU  0 inst:   17000002 cyc:   11707093 now IPC :1.52084: AVG IPC :1.39851: L2-Pf-HR :0.99628: L2-HR :0.91191: (Sim:0h7m25s) 
CPU  1 inst:   17000002 cyc:   11708234 now IPC :1.50473: AVG IPC :1.39839: L2-Pf-HR :0.99661: L2-HR :0.91834: (Sim:0h7m25s) 
CPU  2 inst:   17000005 cyc:   11710906 now IPC :1.51482: AVG IPC :1.39805: L2-Pf-HR :0.99736: L2-HR :0.93280: (Sim:0h7m25s) 
CPU  3 inst:   18000004 cyc:   12380911 now IPC :1.47991: AVG IPC :1.40347: L2-Pf-HR :0.99637: L2-HR :0.91009: (Sim:0h7m51s) 
CPU  0 inst:   18000004 cyc:   12381315 now IPC :1.48319: AVG IPC :1.40351: L2-Pf-HR :0.99659: L2-HR :0.91442: (Sim:0h7m51s) 
CPU  1 inst:   18000004 cyc:   12382781 now IPC :1.48248: AVG IPC :1.40336: L2-Pf-HR :0.99688: L2-HR :0.92033: (Sim:0h7m51s) 
CPU  2 inst:   18000002 cyc:   12388963 now IPC :1.47480: AVG IPC :1.40262: L2-Pf-HR :0.99753: L2-HR :0.93394: (Sim:0h7m51s) 
CPU  0 inst:   19000000 cyc:   13117932 now IPC :1.35755: AVG IPC :1.40072: L2-Pf-HR :0.99683: L2-HR :0.91598: (Sim:0h8m17s) 
CPU  1 inst:   19000000 cyc:   13119531 now IPC :1.35731: AVG IPC :1.40057: L2-Pf-HR :0.99710: L2-HR :0.92178: (Sim:0h8m17s) 
CPU  3 inst:   19000000 cyc:   13120011 now IPC :1.35299: AVG IPC :1.40040: L2-Pf-HR :0.99658: L2-HR :0.91100: (Sim:0h8m17s) 
CPU  2 inst:   19000000 cyc:   13124705 now IPC :1.35917: AVG IPC :1.39998: L2-Pf-HR :0.99768: L2-HR :0.93469: (Sim:0h8m17s) 
CPU  0 inst:   20000000 cyc:   13839853 now IPC :1.38519: AVG IPC :1.39985: L2-Pf-HR :0.99688: L2-HR :0.91540: (Sim:0h8m43s) 
CPU  1 inst:   20000000 cyc:   13842956 now IPC :1.38231: AVG IPC :1.39954: L2-Pf-HR :0.99717: L2-HR :0.92172: (Sim:0h8m43s) 
CPU  3 inst:   20000000 cyc:   13843604 now IPC :1.38199: AVG IPC :1.39936: L2-Pf-HR :0.99672: L2-HR :0.91187: (Sim:0h8m43s) 
CPU  2 inst:   20000000 cyc:   13845343 now IPC :1.38766: AVG IPC :1.39929: L2-Pf-HR :0.99774: L2-HR :0.93479: (Sim:0h8m43s) 
CPU  0 inst:   21000005 cyc:   14568126 now IPC :1.37312: AVG IPC :1.39842: L2-Pf-HR :0.99688: L2-HR :0.91328: (Sim:0h9m9s) 
CPU  3 inst:   21000001 cyc:   14570088 now IPC :1.37649: AVG IPC :1.39814: L2-Pf-HR :0.99672: L2-HR :0.90969: (Sim:0h9m9s) 
CPU  2 inst:   21000001 cyc:   14572487 now IPC :1.37524: AVG IPC :1.39801: L2-Pf-HR :0.99776: L2-HR :0.93369: (Sim:0h9m10s) 
CPU  1 inst:   21000001 cyc:   14574114 now IPC :1.36769: AVG IPC :1.39783: L2-Pf-HR :0.99716: L2-HR :0.91965: (Sim:0h9m10s) 
CPU  0 inst:   22000003 cyc:   15328193 now IPC :1.31567: AVG IPC :1.39404: L2-Pf-HR :0.99706: L2-HR :0.91471: (Sim:0h9m36s) 
CPU  2 inst:   22000000 cyc:   15331374 now IPC :1.31772: AVG IPC :1.39376: L2-Pf-HR :0.99786: L2-HR :0.93419: (Sim:0h9m36s) 
CPU  1 inst:   22000000 cyc:   15337308 now IPC :1.31028: AVG IPC :1.39317: L2-Pf-HR :0.99732: L2-HR :0.92072: (Sim:0h9m36s) 
CPU  3 inst:   22000003 cyc:   15341014 now IPC :1.29714: AVG IPC :1.39272: L2-Pf-HR :0.99688: L2-HR :0.91027: (Sim:0h9m36s) 
CPU  0 inst:   23000004 cyc:   16122715 now IPC :1.25862: AVG IPC :1.38693: L2-Pf-HR :0.99723: L2-HR :0.91621: (Sim:0h10m3s) 
CPU  2 inst:   23000004 cyc:   16132106 now IPC :1.24886: AVG IPC :1.38610: L2-Pf-HR :0.99797: L2-HR :0.93499: (Sim:0h10m3s) 
CPU  3 inst:   23000004 cyc:   16138520 now IPC :1.25391: AVG IPC :1.38542: L2-Pf-HR :0.99703: L2-HR :0.91108: (Sim:0h10m3s) 
CPU  1 inst:   23000004 cyc:   16141978 now IPC :1.24275: AVG IPC :1.38519: L2-Pf-HR :0.99748: L2-HR :0.92212: (Sim:0h10m3s) 
CPU  2 inst:   24000000 cyc:   16986325 now IPC :1.17066: AVG IPC :1.37460: L2-Pf-HR :0.99798: L2-HR :0.93507: (Sim:0h10m31s) 
CPU  0 inst:   24000000 cyc:   16986442 now IPC :1.15777: AVG IPC :1.37456: L2-Pf-HR :0.99722: L2-HR :0.91591: (Sim:0h10m31s) 
CPU  3 inst:   24000000 cyc:   16988008 now IPC :1.17717: AVG IPC :1.37436: L2-Pf-HR :0.99705: L2-HR :0.91180: (Sim:0h10m31s) 
CPU  1 inst:   24000000 cyc:   16990062 now IPC :1.17912: AVG IPC :1.37427: L2-Pf-HR :0.99746: L2-HR :0.92199: (Sim:0h10m31s) 
CPU  3 inst:   25000005 cyc:   17891934 now IPC :1.10629: AVG IPC :1.36003: L2-Pf-HR :0.99669: L2-HR :0.90977: (Sim:0h10m58s) 
CPU  1 inst:   25000005 cyc:   17901446 now IPC :1.09724: AVG IPC :1.35935: L2-Pf-HR :0.99716: L2-HR :0.92000: (Sim:0h10m58s) 
CPU  0 inst:   25000005 cyc:   17901648 now IPC :1.09266: AVG IPC :1.35931: L2-Pf-HR :0.99688: L2-HR :0.91381: (Sim:0h10m58s) 
CPU  2 inst:   25000003 cyc:   17903135 now IPC :1.09074: AVG IPC :1.35922: L2-Pf-HR :0.99774: L2-HR :0.93383: (Sim:0h10m58s) 
CPU  3 inst:   26000000 cyc:   18908171 now IPC :0.98402: AVG IPC :1.33872: L2-Pf-HR :0.99671: L2-HR :0.91019: (Sim:0h11m27s) 
CPU  1 inst:   26000004 cyc:   18920699 now IPC :0.98111: AVG IPC :1.33786: L2-Pf-HR :0.99720: L2-HR :0.92107: (Sim:0h11m27s) 
CPU  2 inst:   26000004 cyc:   18925867 now IPC :0.97777: AVG IPC :1.33748: L2-Pf-HR :0.99777: L2-HR :0.93442: (Sim:0h11m27s) 
CPU  0 inst:   26000004 cyc:   18940012 now IPC :0.96305: AVG IPC :1.33640: L2-Pf-HR :0.99694: L2-HR :0.91500: (Sim:0h11m27s) 
CPU  3 inst:   27000002 cyc:   19991025 now IPC :0.92349: AVG IPC :1.31506: L2-Pf-HR :0.99683: L2-HR :0.91076: (Sim:0h11m55s) 
CPU  2 inst:   27000002 cyc:   20076699 now IPC :0.86893: AVG IPC :1.30924: L2-Pf-HR :0.99787: L2-HR :0.93508: (Sim:0h11m57s) 
CPU  1 inst:   27000002 cyc:   20078456 now IPC :0.86374: AVG IPC :1.30912: L2-Pf-HR :0.99734: L2-HR :0.92226: (Sim:0h11m57s) 
CPU  0 inst:   27000003 cyc:   20092454 now IPC :0.86772: AVG IPC :1.30814: L2-Pf-HR :0.99709: L2-HR :0.91622: (Sim:0h11m58s) 
CPU  3 inst:   28000000 cyc:   20824956 now IPC :1.19914: AVG IPC :1.31019: L2-Pf-HR :0.99696: L2-HR :0.91148: (Sim:0h12m19s) 
CPU  1 inst:   28000000 cyc:   21176618 now IPC :0.91061: AVG IPC :1.28745: L2-Pf-HR :0.99733: L2-HR :0.92231: (Sim:0h12m29s) 
CPU  0 inst:   28000000 cyc:   21180838 now IPC :0.91879: AVG IPC :1.28716: L2-Pf-HR :0.99707: L2-HR :0.91616: (Sim:0h12m29s) 
CPU  2 inst:   28000000 cyc:   21189616 now IPC :0.89854: AVG IPC :1.28662: L2-Pf-HR :0.99788: L2-HR :0.93519: (Sim:0h12m30s) 
CPU  3 inst:   29000004 cyc:   21839837 now IPC :0.98534: AVG IPC :1.29439: L2-Pf-HR :0.99667: L2-HR :0.90969: (Sim:0h12m48s) 
CPU  0 inst:   29000004 cyc:   22388635 now IPC :0.82796: AVG IPC :1.26125: L2-Pf-HR :0.99687: L2-HR :0.91445: (Sim:0h13m1s) 
CPU  2 inst:   29000005 cyc:   22392653 now IPC :0.83123: AVG IPC :1.26104: L2-Pf-HR :0.99776: L2-HR :0.93404: (Sim:0h13m1s) 
CPU  1 inst:   29000005 cyc:   22392703 now IPC :0.82232: AVG IPC :1.26103: L2-Pf-HR :0.99715: L2-HR :0.92056: (Sim:0h13m1s) 
CPU  3 inst:   30000004 cyc:   22789591 now IPC :1.05290: AVG IPC :1.28387: L2-Pf-HR :0.99675: L2-HR :0.90985: (Sim:0h13m14s) 
CPU  2 inst:   30000004 cyc:   23413687 now IPC :0.97940: AVG IPC :1.24822: L2-Pf-HR :0.99783: L2-HR :0.93438: (Sim:0h13m31s) 
CPU  0 inst:   30000004 cyc:   23415527 now IPC :0.97381: AVG IPC :1.24809: L2-Pf-HR :0.99698: L2-HR :0.91525: (Sim:0h13m31s) 
CPU  1 inst:   30000004 cyc:   23441849 now IPC :0.95316: AVG IPC :1.24665: L2-Pf-HR :0.99725: L2-HR :0.92131: (Sim:0h13m31s) 
CPU  3 inst:   31000000 cyc:   23787665 now IPC :1.00193: AVG IPC :1.27153: L2-Pf-HR :0.99686: L2-HR :0.91049: (Sim:0h13m40s) 
CPU  2 inst:   31000000 cyc:   24764149 now IPC :0.74048: AVG IPC :1.21939: L2-Pf-HR :0.99790: L2-HR :0.93488: (Sim:0h14m3s) 
CPU  0 inst:   31000000 cyc:   24778839 now IPC :0.73350: AVG IPC :1.21861: L2-Pf-HR :0.99710: L2-HR :0.91625: (Sim:0h14m3s) 
CPU  1 inst:   31000000 cyc:   24779742 now IPC :0.74744: AVG IPC :1.21858: L2-Pf-HR :0.99736: L2-HR :0.92227: (Sim:0h14m3s) 
CPU  3 inst:   32000001 cyc:   24997361 now IPC :0.82665: AVG IPC :1.24912: L2-Pf-HR :0.99693: L2-HR :0.91121: (Sim:0h14m8s) 
CPU  3 inst:   33000002 cyc:   25903890 now IPC :1.10311: AVG IPC :1.24381: L2-Pf-HR :0.99688: L2-HR :0.90973: (Sim:0h14m33s) 
CPU  0 inst:   32000001 cyc:   26051884 now IPC :0.78552: AVG IPC :1.19662: L2-Pf-HR :0.99712: L2-HR :0.91629: (Sim:0h14m37s) 
CPU  1 inst:   32000001 cyc:   26062523 now IPC :0.77956: AVG IPC :1.19613: L2-Pf-HR :0.99738: L2-HR :0.92239: (Sim:0h14m37s) 
CPU  2 inst:   32000001 cyc:   26063153 now IPC :0.76982: AVG IPC :1.19610: L2-Pf-HR :0.99792: L2-HR :0.93502: (Sim:0h14m37s) 
CPU  3 inst:   34000000 cyc:   26910149 now IPC :0.99378: AVG IPC :1.23411: L2-Pf-HR :0.99693: L2-HR :0.90953: (Sim:0h15m2s) 
CPU  0 inst:   33000000 cyc:   27146721 now IPC :0.91338: AVG IPC :1.18477: L2-Pf-HR :0.99708: L2-HR :0.91477: (Sim:0h15m8s) 
CPU  2 inst:   33000002 cyc:   27158513 now IPC :0.91294: AVG IPC :1.18425: L2-Pf-HR :0.99790: L2-HR :0.93414: (Sim:0h15m8s) 
CPU  1 inst:   33000001 cyc:   27158972 now IPC :0.91204: AVG IPC :1.18423: L2-Pf-HR :0.99736: L2-HR :0.92089: (Sim:0h15m8s) 
CPU  3 inst:   35000001 cyc:   28021935 now IPC :0.89945: AVG IPC :1.22035: L2-Pf-HR :0.99702: L2-HR :0.90994: (Sim:0h15m29s) 
CPU  0 inst:   34000000 cyc:   28567574 now IPC :0.70380: AVG IPC :1.16000: L2-Pf-HR :0.99716: L2-HR :0.91521: (Sim:0h15m42s) 
CPU  1 inst:   34000000 cyc:   28591024 now IPC :0.69830: AVG IPC :1.15902: L2-Pf-HR :0.99742: L2-HR :0.92120: (Sim:0h15m42s) 
CPU  2 inst:   34000000 cyc:   28595780 now IPC :0.69576: AVG IPC :1.15883: L2-Pf-HR :0.99796: L2-HR :0.93418: (Sim:0h15m42s) 
CPU  3 inst:   36000002 cyc:   29187111 now IPC :0.85824: AVG IPC :1.20539: L2-Pf-HR :0.99709: L2-HR :0.91042: (Sim:0h15m57s) 
CPU  0 inst:   35000001 cyc:   29888450 now IPC :0.75707: AVG IPC :1.14159: L2-Pf-HR :0.99719: L2-HR :0.91596: (Sim:0h16m15s) 
CPU  1 inst:   35000001 cyc:   29898164 now IPC :0.76503: AVG IPC :1.14121: L2-Pf-HR :0.99745: L2-HR :0.92190: (Sim:0h16m16s) 
CPU  2 inst:   35000001 cyc:   29899697 now IPC :0.76692: AVG IPC :1.14116: L2-Pf-HR :0.99796: L2-HR :0.93451: (Sim:0h16m16s) 
CPU  3 inst:   37000003 cyc:   30018398 now IPC :1.20296: AVG IPC :1.20532: L2-Pf-HR :0.99698: L2-HR :0.90969: (Sim:0h16m19s) 
CPU  2 inst:   36000004 cyc:   31222532 now IPC :0.75595: AVG IPC :1.12431: L2-Pf-HR :0.99799: L2-HR :0.93439: (Sim:0h16m49s) 
CPU  1 inst:   36000004 cyc:   31225607 now IPC :0.75333: AVG IPC :1.12419: L2-Pf-HR :0.99749: L2-HR :0.92195: (Sim:0h16m49s) 
CPU  0 inst:   36000004 cyc:   31230067 now IPC :0.74537: AVG IPC :1.12401: L2-Pf-HR :0.99721: L2-HR :0.91584: (Sim:0h16m49s) 
CPU  3 inst:   38000000 cyc:   31516209 now IPC :0.66764: AVG IPC :1.17894: L2-Pf-HR :0.99701: L2-HR :0.90916: (Sim:0h16m56s) 
CPU  0 inst:   37000003 cyc:   32440960 now IPC :0.82584: AVG IPC :1.11253: L2-Pf-HR :0.99703: L2-HR :0.91487: (Sim:0h17m21s) 
CPU  2 inst:   37000003 cyc:   32446846 now IPC :0.81678: AVG IPC :1.11234: L2-Pf-HR :0.99789: L2-HR :0.93403: (Sim:0h17m21s) 
CPU  1 inst:   37000003 cyc:   32448616 now IPC :0.81765: AVG IPC :1.11227: L2-Pf-HR :0.99735: L2-HR :0.92106: (Sim:0h17m21s) 
CPU  3 inst:   39000004 cyc:   32551766 now IPC :0.96567: AVG IPC :1.17195: L2-Pf-HR :0.99682: L2-HR :0.90914: (Sim:0h17m24s) 
CPU  3 inst:   40000002 cyc:   33625709 now IPC :0.93115: AVG IPC :1.16403: L2-Pf-HR :0.99689: L2-HR :0.90943: (Sim:0h17m50s) 
CPU  0 inst:   38000003 cyc:   33951922 now IPC :0.66183: AVG IPC :1.09188: L2-Pf-HR :0.99709: L2-HR :0.91473: (Sim:0h17m58s) 
CPU  2 inst:   38000003 cyc:   33968458 now IPC :0.65720: AVG IPC :1.09135: L2-Pf-HR :0.99792: L2-HR :0.93364: (Sim:0h17m59s) 
CPU  1 inst:   38000003 cyc:   33971986 now IPC :0.65644: AVG IPC :1.09123: L2-Pf-HR :0.99740: L2-HR :0.92086: (Sim:0h17m59s) 
CPU  3 inst:   41000005 cyc:   34754060 now IPC :0.88625: AVG IPC :1.15475: L2-Pf-HR :0.99675: L2-HR :0.90891: (Sim:0h18m22s) 
CPU  2 inst:   39000002 cyc:   34974008 now IPC :0.99448: AVG IPC :1.08848: L2-Pf-HR :0.99779: L2-HR :0.93338: (Sim:0h18m29s) 
CPU  1 inst:   39000004 cyc:   34976409 now IPC :0.99560: AVG IPC :1.08840: L2-Pf-HR :0.99723: L2-HR :0.92081: (Sim:0h18m29s) 
CPU  0 inst:   39000002 cyc:   34977019 now IPC :0.97552: AVG IPC :1.08837: L2-Pf-HR :0.99689: L2-HR :0.91472: (Sim:0h18m29s) 
CPU  0 inst:   40000004 cyc:   36220807 now IPC :0.80400: AVG IPC :1.07833: L2-Pf-HR :0.99697: L2-HR :0.91499: (Sim:0h19m0s) 
CPU  2 inst:   40000002 cyc:   36221652 now IPC :0.80151: AVG IPC :1.07832: L2-Pf-HR :0.99784: L2-HR :0.93356: (Sim:0h19m0s) 
CPU  1 inst:   40000002 cyc:   36232976 now IPC :0.79582: AVG IPC :1.07797: L2-Pf-HR :0.99730: L2-HR :0.92121: (Sim:0h19m0s) 
CPU  3 inst:   42000004 cyc:   36404199 now IPC :0.60601: AVG IPC :1.12918: L2-Pf-HR :0.99680: L2-HR :0.90879: (Sim:0h19m5s) 
CPU  1 inst:   41000005 cyc:   37390740 now IPC :0.86374: AVG IPC :1.07116: L2-Pf-HR :0.99721: L2-HR :0.92049: (Sim:0h19m32s) 
CPU  2 inst:   41000005 cyc:   37392104 now IPC :0.85437: AVG IPC :1.07112: L2-Pf-HR :0.99778: L2-HR :0.93328: (Sim:0h19m32s) 
CPU  0 inst:   41000005 cyc:   37394814 now IPC :0.85178: AVG IPC :1.07103: L2-Pf-HR :0.99686: L2-HR :0.91416: (Sim:0h19m32s) 
CPU  3 inst:   43000005 cyc:   37454774 now IPC :0.95186: AVG IPC :1.12408: L2-Pf-HR :0.99677: L2-HR :0.90896: (Sim:0h19m34s) 
CPU  3 inst:   44000004 cyc:   38482787 now IPC :0.97275: AVG IPC :1.11993: L2-Pf-HR :0.99684: L2-HR :0.90904: (Sim:0h20m1s) 
CPU  1 inst:   42000004 cyc:   38703992 now IPC :0.76147: AVG IPC :1.06038: L2-Pf-HR :0.99725: L2-HR :0.92023: (Sim:0h20m7s) 
CPU  2 inst:   42000004 cyc:   38707585 now IPC :0.76018: AVG IPC :1.06028: L2-Pf-HR :0.99780: L2-HR :0.93291: (Sim:0h20m7s) 
CPU  0 inst:   42000001 cyc:   38719307 now IPC :0.75500: AVG IPC :1.05994: L2-Pf-HR :0.99691: L2-HR :0.91399: (Sim:0h20m7s) 
CPU  3 inst:   45000000 cyc:   39535290 now IPC :0.95011: AVG IPC :1.11529: L2-Pf-HR :0.99679: L2-HR :0.90882: (Sim:0h20m30s) 
CPU  0 inst:   43000005 cyc:   39782031 now IPC :0.94098: AVG IPC :1.05668: L2-Pf-HR :0.99689: L2-HR :0.91430: (Sim:0h20m37s) 
CPU  1 inst:   43000005 cyc:   39786680 now IPC :0.92363: AVG IPC :1.05656: L2-Pf-HR :0.99723: L2-HR :0.92050: (Sim:0h20m37s) 
CPU  2 inst:   43000005 cyc:   39788961 now IPC :0.92475: AVG IPC :1.05650: L2-Pf-HR :0.99778: L2-HR :0.93294: (Sim:0h20m37s) 
CPU  3 inst:   46000002 cyc:   40669487 now IPC :0.88168: AVG IPC :1.10862: L2-Pf-HR :0.99681: L2-HR :0.90848: (Sim:0h21m0s) 
CPU  1 inst:   44000000 cyc:   41091283 now IPC :0.76651: AVG IPC :1.04713: L2-Pf-HR :0.99729: L2-HR :0.92099: (Sim:0h21m11s) 
CPU  2 inst:   44000000 cyc:   41095221 now IPC :0.76554: AVG IPC :1.04703: L2-Pf-HR :0.99783: L2-HR :0.93323: (Sim:0h21m11s) 
CPU  0 inst:   44000000 cyc:   41096090 now IPC :0.76100: AVG IPC :1.04699: L2-Pf-HR :0.99695: L2-HR :0.91472: (Sim:0h21m11s) 
CPU  3 inst:   47000000 cyc:   41688979 now IPC :0.98088: AVG IPC :1.10542: L2-Pf-HR :0.99688: L2-HR :0.90891: (Sim:0h21m27s) 
CPU  2 inst:   45000003 cyc:   42228427 now IPC :0.88245: AVG IPC :1.04251: L2-Pf-HR :0.99785: L2-HR :0.93317: (Sim:0h21m42s) 
CPU  1 inst:   45000000 cyc:   42231577 now IPC :0.87697: AVG IPC :1.04242: L2-Pf-HR :0.99729: L2-HR :0.92038: (Sim:0h21m42s) 
CPU  0 inst:   45000000 cyc:   42233707 now IPC :0.87903: AVG IPC :1.04236: L2-Pf-HR :0.99695: L2-HR :0.91413: (Sim:0h21m42s) 
CPU  3 inst:   48000000 cyc:   42693778 now IPC :0.99522: AVG IPC :1.10276: L2-Pf-HR :0.99695: L2-HR :0.90927: (Sim:0h21m55s) 
CPU  2 inst:   46000002 cyc:   43535619 now IPC :0.76500: AVG IPC :1.03398: L2-Pf-HR :0.99787: L2-HR :0.93282: (Sim:0h22m16s) 
CPU  0 inst:   46000002 cyc:   43554049 now IPC :0.75738: AVG IPC :1.03352: L2-Pf-HR :0.99699: L2-HR :0.91383: (Sim:0h22m17s) 
CPU  1 inst:   46000002 cyc:   43554831 now IPC :0.75571: AVG IPC :1.03351: L2-Pf-HR :0.99731: L2-HR :0.92002: (Sim:0h22m17s) 
CPU  3 inst:   49000004 cyc:   43720748 now IPC :0.97374: AVG IPC :1.09966: L2-Pf-HR :0.99694: L2-HR :0.90916: (Sim:0h22m21s) 
CPU  0 inst:   47000000 cyc:   44662133 now IPC :0.90246: AVG IPC :1.03020: L2-Pf-HR :0.99681: L2-HR :0.91407: (Sim:0h22m47s) 
CPU  1 inst:   47000000 cyc:   44673675 now IPC :0.89378: AVG IPC :1.02993: L2-Pf-HR :0.99715: L2-HR :0.92023: (Sim:0h22m47s) 
CPU  2 inst:   47000000 cyc:   44682430 now IPC :0.87198: AVG IPC :1.02973: L2-Pf-HR :0.99776: L2-HR :0.93283: (Sim:0h22m48s) 
CPU  3 inst:   50000000 cyc:   45046547 now IPC :0.75426: AVG IPC :1.08927: L2-Pf-HR :0.99680: L2-HR :0.90862: (Sim:0h22m57s) 
CPU  0 inst:   48000004 cyc:   45911292 now IPC :0.80054: AVG IPC :1.02381: L2-Pf-HR :0.99688: L2-HR :0.91452: (Sim:0h23m18s) 
CPU  2 inst:   48000000 cyc:   45932307 now IPC :0.80008: AVG IPC :1.02335: L2-Pf-HR :0.99781: L2-HR :0.93313: (Sim:0h23m19s) 
CPU  1 inst:   48000000 cyc:   45937477 now IPC :0.79126: AVG IPC :1.02322: L2-Pf-HR :0.99722: L2-HR :0.92072: (Sim:0h23m19s) 
CPU  3 inst:   51000003 cyc:   46281551 now IPC :0.80972: AVG IPC :1.08165: L2-Pf-HR :0.99684: L2-HR :0.90868: (Sim:0h23m28s) 
CPU  1 inst:   49000004 cyc:   47152497 now IPC :0.82304: AVG IPC :1.01796: L2-Pf-HR :0.99722: L2-HR :0.92037: (Sim:0h23m51s) 
CPU  0 inst:   49000004 cyc:   47165892 now IPC :0.79707: AVG IPC :1.01765: L2-Pf-HR :0.99688: L2-HR :0.91407: (Sim:0h23m51s) 
CPU  2 inst:   49000004 cyc:   47175527 now IPC :0.80437: AVG IPC :1.01745: L2-Pf-HR :0.99782: L2-HR :0.93307: (Sim:0h23m52s) 
CPU  3 inst:   52000005 cyc:   47301565 now IPC :0.98038: AVG IPC :1.07942: L2-Pf-HR :0.99690: L2-HR :0.90895: (Sim:0h23m55s) 
CPU  3 inst:   53000004 cyc:   48527141 now IPC :0.81594: AVG IPC :1.07263: L2-Pf-HR :0.99690: L2-HR :0.90897: (Sim:0h24m25s) 
CPU  1 inst:   50000001 cyc:   48546375 now IPC :0.71742: AVG IPC :1.00915: L2-Pf-HR :0.99715: L2-HR :0.91971: (Sim:0h24m26s) 
CPU  2 inst:   50000000 cyc:   48548514 now IPC :0.72834: AVG IPC :1.00911: L2-Pf-HR :0.99776: L2-HR :0.93258: (Sim:0h24m26s) 
CPU  0 inst:   50000000 cyc:   48561886 now IPC :0.71633: AVG IPC :1.00881: L2-Pf-HR :0.99680: L2-HR :0.91347: (Sim:0h24m27s) 
CPU  0 inst:   51000003 cyc:   49716065 now IPC :0.86642: AVG IPC :1.00544: L2-Pf-HR :0.99674: L2-HR :0.91354: (Sim:0h24m57s) 
CPU  2 inst:   51000003 cyc:   49722322 now IPC :0.85193: AVG IPC :1.00532: L2-Pf-HR :0.99771: L2-HR :0.93247: (Sim:0h24m57s) 
CPU  1 inst:   51000003 cyc:   49737337 now IPC :0.83966: AVG IPC :1.00501: L2-Pf-HR :0.99707: L2-HR :0.91977: (Sim:0h24m58s) 
CPU  3 inst:   54000005 cyc:   50296856 now IPC :0.56506: AVG IPC :1.05441: L2-Pf-HR :0.99670: L2-HR :0.90831: (Sim:0h25m12s) 
CPU  1 inst:   52000005 cyc:   51030551 now IPC :0.77327: AVG IPC :0.99902: L2-Pf-HR :0.99712: L2-HR :0.91999: (Sim:0h25m30s) 
CPU  2 inst:   52000005 cyc:   51059355 now IPC :0.74793: AVG IPC :0.99845: L2-Pf-HR :0.99774: L2-HR :0.93245: (Sim:0h25m31s) 
CPU  0 inst:   52000005 cyc:   51076683 now IPC :0.73496: AVG IPC :0.99809: L2-Pf-HR :0.99679: L2-HR :0.91372: (Sim:0h25m31s) 
CPU  3 inst:   55000001 cyc:   51606751 now IPC :0.76342: AVG IPC :1.04688: L2-Pf-HR :0.99674: L2-HR :0.90849: (Sim:0h25m44s) 
CPU  2 inst:   53000001 cyc:   52393336 now IPC :0.74963: AVG IPC :0.99199: L2-Pf-HR :0.99772: L2-HR :0.93228: (Sim:0h26m4s) 
CPU  0 inst:   53000004 cyc:   52397170 now IPC :0.75730: AVG IPC :0.99191: L2-Pf-HR :0.99677: L2-HR :0.91331: (Sim:0h26m4s) 
CPU  1 inst:   53000004 cyc:   52398601 now IPC :0.73097: AVG IPC :0.99189: L2-Pf-HR :0.99710: L2-HR :0.91959: (Sim:0h26m4s) 
CPU  3 inst:   56000002 cyc:   52767346 now IPC :0.86163: AVG IPC :1.04273: L2-Pf-HR :0.99667: L2-HR :0.90854: (Sim:0h26m15s) 
CPU  3 inst:   57000001 cyc:   53755115 now IPC :1.01238: AVG IPC :1.04216: L2-Pf-HR :0.99670: L2-HR :0.90862: (Sim:0h26m40s) 
CPU  1 inst:   54000005 cyc:   53794831 now IPC :0.71622: AVG IPC :0.98460: L2-Pf-HR :0.99703: L2-HR :0.91890: (Sim:0h26m41s) 
CPU  2 inst:   54000005 cyc:   53805116 now IPC :0.70833: AVG IPC :0.98441: L2-Pf-HR :0.99767: L2-HR :0.93177: (Sim:0h26m41s) 
CPU  0 inst:   54000005 cyc:   53808382 now IPC :0.70861: AVG IPC :0.98434: L2-Pf-HR :0.99667: L2-HR :0.91263: (Sim:0h26m41s) 
CPU  3 inst:   58000000 cyc:   54924931 now IPC :0.85483: AVG IPC :1.03810: L2-Pf-HR :0.99659: L2-HR :0.90800: (Sim:0h27m14s) 
CPU  1 inst:   55000001 cyc:   54927758 now IPC :0.88267: AVG IPC :0.98246: L2-Pf-HR :0.99705: L2-HR :0.91926: (Sim:0h27m15s) 
CPU  2 inst:   55000001 cyc:   54934897 now IPC :0.88512: AVG IPC :0.98233: L2-Pf-HR :0.99768: L2-HR :0.93193: (Sim:0h27m15s) 
CPU  0 inst:   55000001 cyc:   54951156 now IPC :0.87506: AVG IPC :0.98203: L2-Pf-HR :0.99672: L2-HR :0.91305: (Sim:0h27m15s) 
CPU  3 inst:   59000002 cyc:   55903537 now IPC :1.02186: AVG IPC :1.03781: L2-Pf-HR :0.99664: L2-HR :0.90849: (Sim:0h27m41s) 
CPU  1 inst:   56000001 cyc:   56358585 now IPC :0.69890: AVG IPC :0.97513: L2-Pf-HR :0.99711: L2-HR :0.91977: (Sim:0h27m51s) 
CPU  2 inst:   56000001 cyc:   56362789 now IPC :0.70033: AVG IPC :0.97506: L2-Pf-HR :0.99773: L2-HR :0.93223: (Sim:0h27m52s) 
CPU  0 inst:   56000001 cyc:   56374683 now IPC :0.70248: AVG IPC :0.97484: L2-Pf-HR :0.99679: L2-HR :0.91362: (Sim:0h27m52s) 
CPU  3 inst:   60000004 cyc:   57241570 now IPC :0.74737: AVG IPC :1.03090: L2-Pf-HR :0.99669: L2-HR :0.90862: (Sim:0h28m13s) 
CPU  0 inst:   57000001 cyc:   57542456 now IPC :0.85633: AVG IPC :0.97240: L2-Pf-HR :0.99678: L2-HR :0.91342: (Sim:0h28m25s) 
CPU  1 inst:   57000001 cyc:   57545704 now IPC :0.84238: AVG IPC :0.97235: L2-Pf-HR :0.99712: L2-HR :0.91975: (Sim:0h28m25s) 
CPU  2 inst:   57000004 cyc:   57546417 now IPC :0.84486: AVG IPC :0.97234: L2-Pf-HR :0.99774: L2-HR :0.93226: (Sim:0h28m25s) 
CPU  3 inst:   61000005 cyc:   58288374 now IPC :0.95529: AVG IPC :1.02952: L2-Pf-HR :0.99664: L2-HR :0.90870: (Sim:0h28m45s) 
CPU  0 inst:   58000001 cyc:   58953101 now IPC :0.70890: AVG IPC :0.96599: L2-Pf-HR :0.99673: L2-HR :0.91275: (Sim:0h29m1s) 
CPU  2 inst:   58000001 cyc:   58954514 now IPC :0.71018: AVG IPC :0.96597: L2-Pf-HR :0.99772: L2-HR :0.93188: (Sim:0h29m1s) 
CPU  1 inst:   58000001 cyc:   58969926 now IPC :0.70214: AVG IPC :0.96571: L2-Pf-HR :0.99708: L2-HR :0.91911: (Sim:0h29m2s) 
CPU  3 inst:   62000002 cyc:   59729754 now IPC :0.69378: AVG IPC :1.02128: L2-Pf-HR :0.99662: L2-HR :0.90803: (Sim:0h29m21s) 
CPU  0 inst:   59000002 cyc:   60183473 now IPC :0.81276: AVG IPC :0.96280: L2-Pf-HR :0.99679: L2-HR :0.91303: (Sim:0h29m33s) 
CPU  2 inst:   59000002 cyc:   60207639 now IPC :0.79801: AVG IPC :0.96242: L2-Pf-HR :0.99776: L2-HR :0.93196: (Sim:0h29m33s) 
CPU  1 inst:   59000002 cyc:   60208476 now IPC :0.80740: AVG IPC :0.96240: L2-Pf-HR :0.99714: L2-HR :0.91932: (Sim:0h29m34s) 
CPU  3 inst:   63000000 cyc:   61169965 now IPC :0.69434: AVG IPC :1.01346: L2-Pf-HR :0.99667: L2-HR :0.90840: (Sim:0h29m57s) 
CPU  0 inst:   60000005 cyc:   61621664 now IPC :0.69532: AVG IPC :0.95646: L2-Pf-HR :0.99685: L2-HR :0.91334: (Sim:0h30m8s) 
CPU  1 inst:   60000004 cyc:   61630440 now IPC :0.70325: AVG IPC :0.95632: L2-Pf-HR :0.99719: L2-HR :0.91964: (Sim:0h30m9s) 
CPU  2 inst:   60000003 cyc:   61634510 now IPC :0.70083: AVG IPC :0.95626: L2-Pf-HR :0.99779: L2-HR :0.93207: (Sim:0h30m9s) 
CPU  3 inst:   64000003 cyc:   62532135 now IPC :0.73412: AVG IPC :1.00728: L2-Pf-HR :0.99673: L2-HR :0.90870: (Sim:0h30m33s) 
CPU  0 inst:   61000005 cyc:   62819997 now IPC :0.83449: AVG IPC :0.95409: L2-Pf-HR :0.99686: L2-HR :0.91311: (Sim:0h30m41s) 
CPU  1 inst:   61000005 cyc:   62822462 now IPC :0.83891: AVG IPC :0.95406: L2-Pf-HR :0.99720: L2-HR :0.91942: (Sim:0h30m41s) 
CPU  2 inst:   61000005 cyc:   62822783 now IPC :0.84156: AVG IPC :0.95406: L2-Pf-HR :0.99780: L2-HR :0.93193: (Sim:0h30m41s) 
CPU  3 inst:   65000000 cyc:   63439927 now IPC :1.10157: AVG IPC :1.00865: L2-Pf-HR :0.99675: L2-HR :0.90893: (Sim:0h31m0s) 
CPU  0 inst:   62000002 cyc:   64100625 now IPC :0.78086: AVG IPC :0.95058: L2-Pf-HR :0.99686: L2-HR :0.91240: (Sim:0h31m17s) 
CPU  2 inst:   62000002 cyc:   64116072 now IPC :0.77322: AVG IPC :0.95035: L2-Pf-HR :0.99780: L2-HR :0.93156: (Sim:0h31m18s) 
CPU  1 inst:   62000002 cyc:   64120661 now IPC :0.77030: AVG IPC :0.95028: L2-Pf-HR :0.99720: L2-HR :0.91873: (Sim:0h31m18s) 
CPU  2 inst:   63000000 cyc:   65393428 now IPC :0.78287: AVG IPC :0.94703: L2-Pf-HR :0.99781: L2-HR :0.93167: (Sim:0h31m46s) 
CPU  1 inst:   63000003 cyc:   65409032 now IPC :0.77617: AVG IPC :0.94680: L2-Pf-HR :0.99721: L2-HR :0.91900: (Sim:0h31m46s) 
CPU  0 inst:   63000000 cyc:   65442197 now IPC :0.74539: AVG IPC :0.94631: L2-Pf-HR :0.99688: L2-HR :0.91276: (Sim:0h31m47s) 
CPU  3 inst:   66000004 cyc:   65848289 now IPC :0.41522: AVG IPC :0.98662: L2-Pf-HR :0.99660: L2-HR :0.90558: (Sim:0h31m55s) 
CPU  2 inst:   64000001 cyc:   67097581 now IPC :0.58680: AVG IPC :0.93775: L2-Pf-HR :0.99785: L2-HR :0.93186: (Sim:0h32m22s) 
CPU  1 inst:   64000004 cyc:   67103226 now IPC :0.59025: AVG IPC :0.93767: L2-Pf-HR :0.99727: L2-HR :0.91938: (Sim:0h32m22s) 
CPU  0 inst:   64000003 cyc:   67121824 now IPC :0.59537: AVG IPC :0.93740: L2-Pf-HR :0.99694: L2-HR :0.91315: (Sim:0h32m23s) 
CPU  2 inst:   65000000 cyc:   68834745 now IPC :0.57565: AVG IPC :0.92848: L2-Pf-HR :0.99786: L2-HR :0.93183: (Sim:0h32m58s) 
CPU  0 inst:   65000000 cyc:   68840206 now IPC :0.58194: AVG IPC :0.92840: L2-Pf-HR :0.99694: L2-HR :0.91306: (Sim:0h32m58s) 
CPU  1 inst:   65000000 cyc:   68840255 now IPC :0.57569: AVG IPC :0.92840: L2-Pf-HR :0.99728: L2-HR :0.91938: (Sim:0h32m58s) 
CPU  1 inst:   66000004 cyc:   72255004 now IPC :0.29285: AVG IPC :0.89795: L2-Pf-HR :0.99714: L2-HR :0.91632: (Sim:0h33m54s) 
CPU  2 inst:   66000001 cyc:   72327752 now IPC :0.28629: AVG IPC :0.89704: L2-Pf-HR :0.99776: L2-HR :0.92936: (Sim:0h33m55s) 
CPU  0 inst:   66000001 cyc:   72345885 now IPC :0.28525: AVG IPC :0.89680: L2-Pf-HR :0.99679: L2-HR :0.90984: (Sim:0h33m55s) 
CPU  3 inst:   67000003 cyc:   79937702 now IPC :0.07098: AVG IPC :0.82322: L2-Pf-HR :0.99598: L2-HR :0.88139: (Sim:0h35m55s) 
CPU  1 inst:   67000000 cyc:   90502737 now IPC :0.05480: AVG IPC :0.72608: L2-Pf-HR :0.99670: L2-HR :0.89414: (Sim:0h38m42s) 
CPU  2 inst:   67000003 cyc:   91030304 now IPC :0.05347: AVG IPC :0.72183: L2-Pf-HR :0.99739: L2-HR :0.90989: (Sim:0h38m50s) 
CPU  0 inst:   67000003 cyc:   91113236 now IPC :0.05328: AVG IPC :0.72116: L2-Pf-HR :0.99629: L2-HR :0.88642: (Sim:0h38m52s) 
CPU  3 inst:   68000002 cyc:   98799404 now IPC :0.05302: AVG IPC :0.67471: L2-Pf-HR :0.99546: L2-HR :0.85995: (Sim:0h40m55s) 
CPU  3 inst:   69000000 cyc:  108592223 now IPC :0.10212: AVG IPC :0.62260: L2-Pf-HR :0.99443: L2-HR :0.85248: (Sim:0h43m35s) 
CPU  1 inst:   68000002 cyc:  109816018 now IPC :0.05178: AVG IPC :0.60642: L2-Pf-HR :0.99626: L2-HR :0.87424: (Sim:0h43m54s) 
CPU  2 inst:   68000005 cyc:  110620611 now IPC :0.05105: AVG IPC :0.60198: L2-Pf-HR :0.99702: L2-HR :0.89213: (Sim:0h44m9s) 
CPU  0 inst:   68000000 cyc:  110636821 now IPC :0.05122: AVG IPC :0.60188: L2-Pf-HR :0.99579: L2-HR :0.86557: (Sim:0h44m9s) 
CPU  3 inst:   70000000 cyc:  114123828 now IPC :0.18078: AVG IPC :0.60100: L2-Pf-HR :0.99317: L2-HR :0.84944: (Sim:0h45m5s) 
CPU  1 inst:   69000000 cyc:  117326961 now IPC :0.13314: AVG IPC :0.57587: L2-Pf-HR :0.99532: L2-HR :0.86727: (Sim:0h45m54s) 
CPU  2 inst:   69000000 cyc:  117887119 now IPC :0.13762: AVG IPC :0.57311: L2-Pf-HR :0.99624: L2-HR :0.88587: (Sim:0h46m4s) 
CPU  0 inst:   69000000 cyc:  117897447 now IPC :0.13773: AVG IPC :0.57306: L2-Pf-HR :0.99473: L2-HR :0.85830: (Sim:0h46m4s) 
CPU  3 inst:   71000002 cyc:  118035886 now IPC :0.25562: AVG IPC :0.58946: L2-Pf-HR :0.99180: L2-HR :0.84647: (Sim:0h46m6s) 
CPU  1 inst:   70000000 cyc:  120842078 now IPC :0.28449: AVG IPC :0.56733: L2-Pf-HR :0.99415: L2-HR :0.86446: (Sim:0h46m53s) 
CPU  2 inst:   70000000 cyc:  121405901 now IPC :0.28419: AVG IPC :0.56467: L2-Pf-HR :0.99529: L2-HR :0.88335: (Sim:0h47m3s) 
CPU  0 inst:   70000000 cyc:  121415984 now IPC :0.28421: AVG IPC :0.56462: L2-Pf-HR :0.99344: L2-HR :0.85536: (Sim:0h47m3s) 
CPU  3 inst:   72000004 cyc:  121554534 now IPC :0.28420: AVG IPC :0.58055: L2-Pf-HR :0.99043: L2-HR :0.84353: (Sim:0h47m5s) 
CPU  1 inst:   71000002 cyc:  124366746 now IPC :0.28372: AVG IPC :0.55922: L2-Pf-HR :0.99299: L2-HR :0.86168: (Sim:0h47m52s) 
CPU  2 inst:   71000002 cyc:  124928553 now IPC :0.28388: AVG IPC :0.55669: L2-Pf-HR :0.99434: L2-HR :0.88085: (Sim:0h48m2s) 
CPU  0 inst:   71000002 cyc:  124938741 now IPC :0.28387: AVG IPC :0.55664: L2-Pf-HR :0.99215: L2-HR :0.85245: (Sim:0h48m2s) 
CPU  3 inst:   73000003 cyc:  125077342 now IPC :0.28386: AVG IPC :0.57213: L2-Pf-HR :0.98905: L2-HR :0.84061: (Sim:0h48m4s) 
CPU  1 inst:   72000004 cyc:  127885635 now IPC :0.28418: AVG IPC :0.55160: L2-Pf-HR :0.99182: L2-HR :0.85893: (Sim:0h48m54s) 
CPU  2 inst:   72000004 cyc:  128446030 now IPC :0.28430: AVG IPC :0.54917: L2-Pf-HR :0.99339: L2-HR :0.87838: (Sim:0h49m3s) 
CPU  0 inst:   72000004 cyc:  128455969 now IPC :0.28432: AVG IPC :0.54913: L2-Pf-HR :0.99085: L2-HR :0.84958: (Sim:0h49m3s) 
CPU  3 inst:   74000000 cyc:  128591198 now IPC :0.28459: AVG IPC :0.56421: L2-Pf-HR :0.98768: L2-HR :0.83775: (Sim:0h49m6s) 
CPU  1 inst:   73000003 cyc:  131397989 now IPC :0.28471: AVG IPC :0.54441: L2-Pf-HR :0.99066: L2-HR :0.85620: (Sim:0h49m53s) 
CPU  2 inst:   73000003 cyc:  131966698 now IPC :0.28404: AVG IPC :0.54205: L2-Pf-HR :0.99244: L2-HR :0.87593: (Sim:0h50m3s) 
CPU  0 inst:   73000003 cyc:  131973214 now IPC :0.28431: AVG IPC :0.54202: L2-Pf-HR :0.98956: L2-HR :0.84674: (Sim:0h50m3s) 
CPU  3 inst:   75000005 cyc:  132111409 now IPC :0.28408: AVG IPC :0.55669: L2-Pf-HR :0.98630: L2-HR :0.83491: (Sim:0h50m5s) 
CPU  1 inst:   74000000 cyc:  134899621 now IPC :0.28558: AVG IPC :0.53764: L2-Pf-HR :0.98950: L2-HR :0.85353: (Sim:0h50m53s) 
CPU  0 inst:   74000000 cyc:  135469133 now IPC :0.28605: AVG IPC :0.53536: L2-Pf-HR :0.98826: L2-HR :0.84395: (Sim:0h51m2s) 
CPU  2 inst:   74000000 cyc:  135472877 now IPC :0.28521: AVG IPC :0.53535: L2-Pf-HR :0.99150: L2-HR :0.87351: (Sim:0h51m2s) 
CPU  3 inst:   76000000 cyc:  135614789 now IPC :0.28544: AVG IPC :0.54963: L2-Pf-HR :0.98494: L2-HR :0.83212: (Sim:0h51m5s) 
CPU  1 inst:   75000005 cyc:  138396128 now IPC :0.28600: AVG IPC :0.53124: L2-Pf-HR :0.98833: L2-HR :0.85087: (Sim:0h51m52s) 
CPU  0 inst:   75000005 cyc:  138959785 now IPC :0.28648: AVG IPC :0.52907: L2-Pf-HR :0.98699: L2-HR :0.84118: (Sim:0h52m2s) 
CPU  2 inst:   75000005 cyc:  138962120 now IPC :0.28660: AVG IPC :0.52906: L2-Pf-HR :0.99055: L2-HR :0.87112: (Sim:0h52m2s) 
CPU  3 inst:   77000000 cyc:  139107819 now IPC :0.28628: AVG IPC :0.54297: L2-Pf-HR :0.98356: L2-HR :0.82935: (Sim:0h52m4s) 
CPU  1 inst:   76000000 cyc:  141856394 now IPC :0.28899: AVG IPC :0.52529: L2-Pf-HR :0.98716: L2-HR :0.84825: (Sim:0h52m51s) 
CPU  0 inst:   76000000 cyc:  142418163 now IPC :0.28915: AVG IPC :0.52320: L2-Pf-HR :0.98572: L2-HR :0.83843: (Sim:0h53m0s) 
CPU  2 inst:   76000000 cyc:  142421851 now IPC :0.28904: AVG IPC :0.52319: L2-Pf-HR :0.98961: L2-HR :0.86874: (Sim:0h53m0s) 
CPU  3 inst:   78000000 cyc:  142562498 now IPC :0.28946: AVG IPC :0.53679: L2-Pf-HR :0.98219: L2-HR :0.82664: (Sim:0h53m2s) 
CPU  1 inst:   77000000 cyc:  145302319 now IPC :0.29020: AVG IPC :0.51968: L2-Pf-HR :0.98598: L2-HR :0.84566: (Sim:0h53m49s) 
CPU  0 inst:   77000000 cyc:  145860264 now IPC :0.29052: AVG IPC :0.51767: L2-Pf-HR :0.98444: L2-HR :0.83572: (Sim:0h53m58s) 
CPU  2 inst:   77000000 cyc:  145862575 now IPC :0.29064: AVG IPC :0.51767: L2-Pf-HR :0.98866: L2-HR :0.86640: (Sim:0h53m58s) 
CPU  3 inst:   79000000 cyc:  146003295 now IPC :0.29063: AVG IPC :0.53094: L2-Pf-HR :0.98083: L2-HR :0.82395: (Sim:0h54m1s) 
CPU  1 inst:   78000000 cyc:  148716953 now IPC :0.29286: AVG IPC :0.51443: L2-Pf-HR :0.98480: L2-HR :0.84310: (Sim:0h54m48s) 
CPU  0 inst:   78000000 cyc:  149263376 now IPC :0.29385: AVG IPC :0.51253: L2-Pf-HR :0.98316: L2-HR :0.83308: (Sim:0h54m57s) 
CPU  2 inst:   78000000 cyc:  149265070 now IPC :0.29390: AVG IPC :0.51253: L2-Pf-HR :0.98771: L2-HR :0.86408: (Sim:0h54m57s) 
CPU  3 inst:   80000004 cyc:  149408688 now IPC :0.29365: AVG IPC :0.52550: L2-Pf-HR :0.97949: L2-HR :0.82129: (Sim:0h54m59s) 
CPU  1 inst:   79000000 cyc:  152111732 now IPC :0.29457: AVG IPC :0.50949: L2-Pf-HR :0.98358: L2-HR :0.84055: (Sim:0h56m8s) 
CPU  0 inst:   79000000 cyc:  152657482 now IPC :0.29463: AVG IPC :0.50766: L2-Pf-HR :0.98184: L2-HR :0.83046: (Sim:0h56m25s) 
CPU  2 inst:   79000000 cyc:  152660471 now IPC :0.29452: AVG IPC :0.50765: L2-Pf-HR :0.98675: L2-HR :0.86178: (Sim:0h56m26s) 
CPU  3 inst:   81000004 cyc:  152801338 now IPC :0.29475: AVG IPC :0.52034: L2-Pf-HR :0.97813: L2-HR :0.81869: (Sim:0h56m30s) 
CPU  1 inst:   80000004 cyc:  155511431 now IPC :0.29414: AVG IPC :0.50476: L2-Pf-HR :0.98238: L2-HR :0.83807: (Sim:0h57m55s) 
CPU  0 inst:   80000004 cyc:  156057652 now IPC :0.29410: AVG IPC :0.50298: L2-Pf-HR :0.98055: L2-HR :0.82786: (Sim:0h58m12s) 
CPU  2 inst:   80000004 cyc:  156064728 now IPC :0.29375: AVG IPC :0.50296: L2-Pf-HR :0.98581: L2-HR :0.85950: (Sim:0h58m12s) 
CPU  3 inst:   82000000 cyc:  156197792 now IPC :0.29442: AVG IPC :0.51540: L2-Pf-HR :0.97678: L2-HR :0.81610: (Sim:0h58m16s) 
CPU  1 inst:   81000004 cyc:  158924370 now IPC :0.29300: AVG IPC :0.50018: L2-Pf-HR :0.98120: L2-HR :0.83559: (Sim:0h59m41s) 
CPU  0 inst:   81000004 cyc:  159473554 now IPC :0.29275: AVG IPC :0.49845: L2-Pf-HR :0.97924: L2-HR :0.82528: (Sim:0h59m58s) 
CPU  2 inst:   81000004 cyc:  159484709 now IPC :0.29240: AVG IPC :0.49841: L2-Pf-HR :0.98487: L2-HR :0.85724: (Sim:0h59m59s) 
CPU  3 inst:   83000005 cyc:  159614235 now IPC :0.29270: AVG IPC :0.51060: L2-Pf-HR :0.97546: L2-HR :0.81353: (Sim:1h0m3s) 
CPU  1 inst:   82000000 cyc:  162302858 now IPC :0.29599: AVG IPC :0.49590: L2-Pf-HR :0.98006: L2-HR :0.83316: (Sim:1h1m27s) 
CPU  0 inst:   82000000 cyc:  162853862 now IPC :0.29583: AVG IPC :0.49421: L2-Pf-HR :0.97795: L2-HR :0.82277: (Sim:1h1m44s) 
CPU  2 inst:   82000000 cyc:  162860064 now IPC :0.29626: AVG IPC :0.49420: L2-Pf-HR :0.98394: L2-HR :0.85502: (Sim:1h1m44s) 
CPU  3 inst:   84000001 cyc:  162983505 now IPC :0.29680: AVG IPC :0.50616: L2-Pf-HR :0.97412: L2-HR :0.81103: (Sim:1h1m48s) 
CPU  1 inst:   83000005 cyc:  165717816 now IPC :0.29283: AVG IPC :0.49169: L2-Pf-HR :0.97890: L2-HR :0.83075: (Sim:1h3m13s) 
CPU  2 inst:   83000005 cyc:  166277052 now IPC :0.29266: AVG IPC :0.49003: L2-Pf-HR :0.98300: L2-HR :0.85281: (Sim:1h3m30s) 
CPU  0 inst:   83000005 cyc:  166283462 now IPC :0.29158: AVG IPC :0.49001: L2-Pf-HR :0.97669: L2-HR :0.82027: (Sim:1h3m30s) 
CPU  3 inst:   85000005 cyc:  166415510 now IPC :0.29138: AVG IPC :0.50170: L2-Pf-HR :0.97276: L2-HR :0.80853: (Sim:1h3m34s) 
CPU  1 inst:   84000001 cyc:  169130993 now IPC :0.29298: AVG IPC :0.48766: L2-Pf-HR :0.97775: L2-HR :0.82836: (Sim:1h4m59s) 
CPU  2 inst:   84000001 cyc:  169689961 now IPC :0.29300: AVG IPC :0.48605: L2-Pf-HR :0.98208: L2-HR :0.85062: (Sim:1h5m16s) 
CPU  0 inst:   84000001 cyc:  169693159 now IPC :0.29328: AVG IPC :0.48603: L2-Pf-HR :0.97546: L2-HR :0.81779: (Sim:1h5m16s) 
CPU  3 inst:   86000000 cyc:  169819513 now IPC :0.29377: AVG IPC :0.49751: L2-Pf-HR :0.97142: L2-HR :0.80607: (Sim:1h5m20s) 
CPU  1 inst:   85000005 cyc:  172530012 now IPC :0.29420: AVG IPC :0.48383: L2-Pf-HR :0.97660: L2-HR :0.82598: (Sim:1h6m44s) 
CPU  2 inst:   85000005 cyc:  173079844 now IPC :0.29500: AVG IPC :0.48228: L2-Pf-HR :0.98115: L2-HR :0.84845: (Sim:1h7m2s) 
CPU  0 inst:   85000005 cyc:  173085866 now IPC :0.29475: AVG IPC :0.48226: L2-Pf-HR :0.97419: L2-HR :0.81534: (Sim:1h7m2s) 
CPU  3 inst:   87000002 cyc:  173217216 now IPC :0.29432: AVG IPC :0.49350: L2-Pf-HR :0.97007: L2-HR :0.80364: (Sim:1h7m6s) 
CPU  1 inst:   86000000 cyc:  175925918 now IPC :0.29447: AVG IPC :0.48015: L2-Pf-HR :0.97543: L2-HR :0.82366: (Sim:1h8m30s) 
CPU  2 inst:   86000000 cyc:  176473163 now IPC :0.29470: AVG IPC :0.47866: L2-Pf-HR :0.98022: L2-HR :0.84630: (Sim:1h8m46s) 
CPU  0 inst:   86000000 cyc:  176476611 now IPC :0.29492: AVG IPC :0.47864: L2-Pf-HR :0.97292: L2-HR :0.81293: (Sim:1h8m47s) 
CPU  3 inst:   88000004 cyc:  176603054 now IPC :0.29535: AVG IPC :0.48968: L2-Pf-HR :0.96870: L2-HR :0.80124: (Sim:1h8m50s) 
CPU  1 inst:   87000002 cyc:  179316613 now IPC :0.29493: AVG IPC :0.47663: L2-Pf-HR :0.97429: L2-HR :0.82135: (Sim:1h10m15s) 
CPU  2 inst:   87000002 cyc:  179862591 now IPC :0.29504: AVG IPC :0.47518: L2-Pf-HR :0.97930: L2-HR :0.84418: (Sim:1h10m31s) 
CPU  0 inst:   87000002 cyc:  179867131 now IPC :0.29494: AVG IPC :0.47516: L2-Pf-HR :0.97167: L2-HR :0.81054: (Sim:1h10m32s) 
CPU  3 inst:   89000004 cyc:  179994256 now IPC :0.29488: AVG IPC :0.48599: L2-Pf-HR :0.96736: L2-HR :0.79886: (Sim:1h10m36s) 
CPU  1 inst:   88000004 cyc:  182710569 now IPC :0.29464: AVG IPC :0.47323: L2-Pf-HR :0.97314: L2-HR :0.81907: (Sim:1h12m0s) 
CPU  2 inst:   88000004 cyc:  183262152 now IPC :0.29416: AVG IPC :0.47180: L2-Pf-HR :0.97838: L2-HR :0.84207: (Sim:1h12m17s) 
CPU  0 inst:   88000004 cyc:  183264244 now IPC :0.29437: AVG IPC :0.47179: L2-Pf-HR :0.97042: L2-HR :0.80817: (Sim:1h12m17s) 
CPU  3 inst:   90000000 cyc:  183391347 now IPC :0.29437: AVG IPC :0.48242: L2-Pf-HR :0.96603: L2-HR :0.79653: (Sim:1h12m21s) 
CPU  1 inst:   89000004 cyc:  186125955 now IPC :0.29279: AVG IPC :0.46990: L2-Pf-HR :0.97200: L2-HR :0.81681: (Sim:1h13m45s) 
CPU  2 inst:   89000004 cyc:  186673820 now IPC :0.29311: AVG IPC :0.46852: L2-Pf-HR :0.97745: L2-HR :0.83999: (Sim:1h14m2s) 
CPU  0 inst:   89000004 cyc:  186678168 now IPC :0.29292: AVG IPC :0.46850: L2-Pf-HR :0.96918: L2-HR :0.80585: (Sim:1h14m3s) 
CPU  3 inst:   91000003 cyc:  186801614 now IPC :0.29323: AVG IPC :0.47895: L2-Pf-HR :0.96471: L2-HR :0.79421: (Sim:1h14m6s) 
CPU  1 inst:   90000000 cyc:  189516555 now IPC :0.29493: AVG IPC :0.46676: L2-Pf-HR :0.97083: L2-HR :0.81458: (Sim:1h15m31s) 
CPU  2 inst:   90000000 cyc:  190067821 now IPC :0.29464: AVG IPC :0.46540: L2-Pf-HR :0.97654: L2-HR :0.83793: (Sim:1h15m48s) 
CPU  0 inst:   90000000 cyc:  190071273 now IPC :0.29471: AVG IPC :0.46539: L2-Pf-HR :0.96795: L2-HR :0.80355: (Sim:1h15m48s) 
CPU  3 inst:   92000002 cyc:  190208278 now IPC :0.29354: AVG IPC :0.47561: L2-Pf-HR :0.96333: L2-HR :0.79193: (Sim:1h15m52s) 
CPU  1 inst:   91000003 cyc:  192909582 now IPC :0.29472: AVG IPC :0.46372: L2-Pf-HR :0.96971: L2-HR :0.81236: (Sim:1h17m16s) 
CPU  2 inst:   91000003 cyc:  193455926 now IPC :0.29515: AVG IPC :0.46240: L2-Pf-HR :0.97561: L2-HR :0.83589: (Sim:1h17m33s) 
CPU  0 inst:   91000003 cyc:  193463063 now IPC :0.29483: AVG IPC :0.46238: L2-Pf-HR :0.96669: L2-HR :0.80127: (Sim:1h17m33s) 
CPU  3 inst:   93000003 cyc:  193594543 now IPC :0.29531: AVG IPC :0.47244: L2-Pf-HR :0.96202: L2-HR :0.78968: (Sim:1h17m37s) 
CPU  1 inst:   92000002 cyc:  196300777 now IPC :0.29488: AVG IPC :0.46078: L2-Pf-HR :0.96857: L2-HR :0.81017: (Sim:1h19m1s) 
CPU  2 inst:   92000002 cyc:  196849046 now IPC :0.29471: AVG IPC :0.45949: L2-Pf-HR :0.97466: L2-HR :0.83387: (Sim:1h19m18s) 
CPU  0 inst:   92000002 cyc:  196854674 now IPC :0.29484: AVG IPC :0.45948: L2-Pf-HR :0.96547: L2-HR :0.79902: (Sim:1h19m18s) 
CPU  3 inst:   94000002 cyc:  196987572 now IPC :0.29472: AVG IPC :0.46937: L2-Pf-HR :0.96074: L2-HR :0.78744: (Sim:1h19m22s) 
CPU  1 inst:   93000003 cyc:  199706733 now IPC :0.29360: AVG IPC :0.45792: L2-Pf-HR :0.96746: L2-HR :0.80802: (Sim:1h20m16s) 
CPU  2 inst:   93000003 cyc:  200257995 now IPC :0.29335: AVG IPC :0.45665: L2-Pf-HR :0.97374: L2-HR :0.83186: (Sim:1h20m25s) 
CPU  0 inst:   93000003 cyc:  200261095 now IPC :0.29356: AVG IPC :0.45664: L2-Pf-HR :0.96426: L2-HR :0.79680: (Sim:1h20m25s) 
CPU  3 inst:   95000003 cyc:  200390959 now IPC :0.29383: AVG IPC :0.46637: L2-Pf-HR :0.95944: L2-HR :0.78523: (Sim:1h20m28s) 
CPU  1 inst:   94000002 cyc:  203100542 now IPC :0.29465: AVG IPC :0.45518: L2-Pf-HR :0.96634: L2-HR :0.80588: (Sim:1h21m15s) 
CPU  2 inst:   94000002 cyc:  203655551 now IPC :0.29433: AVG IPC :0.45393: L2-Pf-HR :0.97281: L2-HR :0.82987: (Sim:1h21m24s) 
CPU  0 inst:   94000002 cyc:  203662652 now IPC :0.29398: AVG IPC :0.45391: L2-Pf-HR :0.96300: L2-HR :0.79459: (Sim:1h21m24s) 
CPU  3 inst:   96000004 cyc:  203788139 now IPC :0.29436: AVG IPC :0.46349: L2-Pf-HR :0.95813: L2-HR :0.78304: (Sim:1h21m26s) 
CPU  1 inst:   95000003 cyc:  206491805 now IPC :0.29488: AVG IPC :0.45253: L2-Pf-HR :0.96521: L2-HR :0.80376: (Sim:1h22m16s) 
CPU  2 inst:   95000003 cyc:  207046898 now IPC :0.29487: AVG IPC :0.45131: L2-Pf-HR :0.97190: L2-HR :0.82790: (Sim:1h22m26s) 
CPU  0 inst:   95000003 cyc:  207057000 now IPC :0.29461: AVG IPC :0.45129: L2-Pf-HR :0.96175: L2-HR :0.79242: (Sim:1h22m27s) 
CPU  3 inst:   97000004 cyc:  207172891 now IPC :0.29544: AVG IPC :0.46073: L2-Pf-HR :0.95681: L2-HR :0.78090: (Sim:1h22m28s) 
CPU  1 inst:   96000004 cyc:  209888787 now IPC :0.29438: AVG IPC :0.44996: L2-Pf-HR :0.96411: L2-HR :0.80166: (Sim:1h23m16s) 
CPU  2 inst:   96000004 cyc:  210451605 now IPC :0.29371: AVG IPC :0.44875: L2-Pf-HR :0.97099: L2-HR :0.82595: (Sim:1h23m32s) 
CPU  0 inst:   96000004 cyc:  210457015 now IPC :0.29412: AVG IPC :0.44874: L2-Pf-HR :0.96052: L2-HR :0.79027: (Sim:1h23m32s) 
CPU  3 inst:   98000000 cyc:  210581889 now IPC :0.29334: AVG IPC :0.45801: L2-Pf-HR :0.95549: L2-HR :0.77877: (Sim:1h23m36s) 
CPU  1 inst:   97000004 cyc:  213288674 now IPC :0.29413: AVG IPC :0.44746: L2-Pf-HR :0.96300: L2-HR :0.79959: (Sim:1h24m23s) 
CPU  2 inst:   97000004 cyc:  213850732 now IPC :0.29419: AVG IPC :0.44628: L2-Pf-HR :0.97006: L2-HR :0.82402: (Sim:1h24m33s) 
CPU  0 inst:   97000004 cyc:  213852967 now IPC :0.29447: AVG IPC :0.44628: L2-Pf-HR :0.95929: L2-HR :0.78813: (Sim:1h24m33s) 
CPU  3 inst:   99000003 cyc:  213980328 now IPC :0.29425: AVG IPC :0.45539: L2-Pf-HR :0.95421: L2-HR :0.77665: (Sim:1h24m36s) 
CPU  1 inst:   98000000 cyc:  216698102 now IPC :0.29330: AVG IPC :0.44503: L2-Pf-HR :0.96189: L2-HR :0.79753: (Sim:1h25m23s) 
CPU  2 inst:   98000000 cyc:  217264044 now IPC :0.29297: AVG IPC :0.44386: L2-Pf-HR :0.96916: L2-HR :0.82211: (Sim:1h25m34s) 
CPU  0 inst:   98000000 cyc:  217274320 now IPC :0.29228: AVG IPC :0.44384: L2-Pf-HR :0.95805: L2-HR :0.78604: (Sim:1h25m34s) 
CPU  3 inst:  100000002 cyc:  217389334 now IPC :0.29334: AVG IPC :0.45284: L2-Pf-HR :0.95291: L2-HR :0.77457: (Sim:1h25m36s) 
CPU  3 inst:  101000002 cyc:  219472730 now IPC :0.47999: AVG IPC :0.45310: L2-Pf-HR :0.95221: L2-HR :0.77371: (Sim:1h26m15s) 
CPU  1 inst:   99000003 cyc:  220187858 now IPC :0.28655: AVG IPC :0.44251: L2-Pf-HR :0.96081: L2-HR :0.79548: (Sim:1h26m32s) 
CPU  3 inst:  102000003 cyc:  220236800 now IPC :1.30878: AVG IPC :0.45608: L2-Pf-HR :0.95218: L2-HR :0.77443: (Sim:1h26m34s) 
CPU  2 inst:   99000003 cyc:  220789468 now IPC :0.28365: AVG IPC :0.44129: L2-Pf-HR :0.96829: L2-HR :0.82019: (Sim:1h26m47s) 
CPU  0 inst:   99000003 cyc:  220793506 now IPC :0.28416: AVG IPC :0.44128: L2-Pf-HR :0.95688: L2-HR :0.78393: (Sim:1h26m47s) 
CPU  3 inst:  103000005 cyc:  220947306 now IPC :1.40745: AVG IPC :0.45916: L2-Pf-HR :0.95216: L2-HR :0.77508: (Sim:1h26m52s) 
CPU  3 inst:  104000000 cyc:  221538264 now IPC :1.69216: AVG IPC :0.46246: L2-Pf-HR :0.95244: L2-HR :0.77629: (Sim:1h27m8s) 
CPU  3 inst:  105000002 cyc:  222223246 now IPC :1.45990: AVG IPC :0.46555: L2-Pf-HR :0.95260: L2-HR :0.77734: (Sim:1h27m25s) 
CPU  3 inst:  106000005 cyc:  222943706 now IPC :1.38801: AVG IPC :0.46854: L2-Pf-HR :0.95273: L2-HR :0.77872: (Sim:1h27m44s) 
CPU  3 inst:  107000005 cyc:  223647135 now IPC :1.42161: AVG IPC :0.47155: L2-Pf-HR :0.95290: L2-HR :0.78007: (Sim:1h28m2s) 
CPU  1 inst:  100000002 cyc:  223727440 now IPC :0.28252: AVG IPC :0.43996: L2-Pf-HR :0.95975: L2-HR :0.79347: (Sim:1h28m4s) 
CPU  3 inst:  108000004 cyc:  224226128 now IPC :1.72713: AVG IPC :0.47481: L2-Pf-HR :0.95340: L2-HR :0.78195: (Sim:1h28m18s) 
CPU  2 inst:  100000002 cyc:  224308094 now IPC :0.28420: AVG IPC :0.43882: L2-Pf-HR :0.96738: L2-HR :0.81831: (Sim:1h28m20s) 
CPU  0 inst:  100000002 cyc:  224318042 now IPC :0.28372: AVG IPC :0.43880: L2-Pf-HR :0.95567: L2-HR :0.78187: (Sim:1h28m20s) 
CPU  3 inst:  109000004 cyc:  224922765 now IPC :1.43547: AVG IPC :0.47780: L2-Pf-HR :0.95382: L2-HR :0.78368: (Sim:1h28m36s) 
CPU  3 inst:  110000001 cyc:  225711105 now IPC :1.26848: AVG IPC :0.48057: L2-Pf-HR :0.95398: L2-HR :0.78493: (Sim:1h28m55s) 
CPU  1 inst:  101000002 cyc:  225967306 now IPC :0.44646: AVG IPC :0.44003: L2-Pf-HR :0.95926: L2-HR :0.79287: (Sim:1h29m2s) 
CPU  3 inst:  111000005 cyc:  226671075 now IPC :1.04170: AVG IPC :0.48296: L2-Pf-HR :0.95426: L2-HR :0.78634: (Sim:1h29m24s) 
CPU  0 inst:  101000002 cyc:  226805657 now IPC :0.40199: AVG IPC :0.43839: L2-Pf-HR :0.95527: L2-HR :0.78141: (Sim:1h29m31s) 
CPU  2 inst:  101000002 cyc:  226806634 now IPC :0.40023: AVG IPC :0.43839: L2-Pf-HR :0.96699: L2-HR :0.81772: (Sim:1h29m31s) 
CPU  1 inst:  102000003 cyc:  226877301 now IPC :1.09891: AVG IPC :0.44268: L2-Pf-HR :0.95949: L2-HR :0.79418: (Sim:1h29m36s) 
CPU  3 inst:  112000005 cyc:  227379970 now IPC :1.41065: AVG IPC :0.48586: L2-Pf-HR :0.95475: L2-HR :0.78822: (Sim:1h30m11s) 
CPU  0 inst:  102000002 cyc:  227705059 now IPC :1.11185: AVG IPC :0.44106: L2-Pf-HR :0.95574: L2-HR :0.78321: (Sim:1h30m34s) 
CPU  2 inst:  102000003 cyc:  227716734 now IPC :1.09878: AVG IPC :0.44104: L2-Pf-HR :0.96720: L2-HR :0.81886: (Sim:1h30m35s) 
CPU  1 inst:  103000005 cyc:  227813493 now IPC :1.06816: AVG IPC :0.44526: L2-Pf-HR :0.95978: L2-HR :0.79545: (Sim:1h30m41s) 
CPU  3 inst:  113000002 cyc:  228160130 now IPC :1.28178: AVG IPC :0.48860: L2-Pf-HR :0.95522: L2-HR :0.78999: (Sim:1h31m5s) 
CPU  1 inst:  104000000 cyc:  228481693 now IPC :1.49655: AVG IPC :0.44835: L2-Pf-HR :0.96014: L2-HR :0.79711: (Sim:1h31m27s) 
CPU  0 inst:  103000005 cyc:  228626582 now IPC :1.08516: AVG IPC :0.44367: L2-Pf-HR :0.95613: L2-HR :0.78471: (Sim:1h31m40s) 
CPU  2 inst:  103000005 cyc:  228650221 now IPC :1.07125: AVG IPC :0.44363: L2-Pf-HR :0.96735: L2-HR :0.81975: (Sim:1h31m42s) 
CPU  3 inst:  114000005 cyc:  228977872 now IPC :1.22288: AVG IPC :0.49123: L2-Pf-HR :0.95562: L2-HR :0.79134: (Sim:1h32m8s) 
CPU  1 inst:  105000002 cyc:  229214434 now IPC :1.36474: AVG IPC :0.45129: L2-Pf-HR :0.96052: L2-HR :0.79862: (Sim:1h32m28s) 
CPU  0 inst:  104000001 cyc:  229237591 now IPC :1.63663: AVG IPC :0.44686: L2-Pf-HR :0.95674: L2-HR :0.78713: (Sim:1h32m29s) 
CPU  2 inst:  104000000 cyc:  229304626 now IPC :1.52810: AVG IPC :0.44674: L2-Pf-HR :0.96760: L2-HR :0.82112: (Sim:1h32m34s) 
CPU  3 inst:  115000000 cyc:  229839466 now IPC :1.16063: AVG IPC :0.49375: L2-Pf-HR :0.95602: L2-HR :0.79275: (Sim:1h33m11s) 
CPU  0 inst:  105000002 cyc:  230058563 now IPC :1.21807: AVG IPC :0.44963: L2-Pf-HR :0.95723: L2-HR :0.78916: (Sim:1h33m26s) 
CPU  2 inst:  105000002 cyc:  230092045 now IPC :1.26997: AVG IPC :0.44957: L2-Pf-HR :0.96776: L2-HR :0.82216: (Sim:1h33m29s) 
CPU  1 inst:  106000000 cyc:  230102134 now IPC :1.12650: AVG IPC :0.45391: L2-Pf-HR :0.96080: L2-HR :0.79990: (Sim:1h33m30s) 
CPU  3 inst:  116000001 cyc:  230600522 now IPC :1.31397: AVG IPC :0.49647: L2-Pf-HR :0.95642: L2-HR :0.79443: (Sim:1h34m5s) 
CPU  0 inst:  106000005 cyc:  230891693 now IPC :1.20030: AVG IPC :0.45235: L2-Pf-HR :0.95756: L2-HR :0.79059: (Sim:1h34m26s) 
CPU  2 inst:  106000005 cyc:  230973927 now IPC :1.13394: AVG IPC :0.45219: L2-Pf-HR :0.96790: L2-HR :0.82306: (Sim:1h34m31s) 
CPU  1 inst:  107000005 cyc:  231059559 now IPC :1.04447: AVG IPC :0.45637: L2-Pf-HR :0.96108: L2-HR :0.80118: (Sim:1h34m38s) 
CPU  3 inst:  117000005 cyc:  231265574 now IPC :1.50365: AVG IPC :0.49938: L2-Pf-HR :0.95686: L2-HR :0.79615: (Sim:1h34m56s) 
CPU  1 inst:  108000004 cyc:  231723455 now IPC :1.50626: AVG IPC :0.45939: L2-Pf-HR :0.96149: L2-HR :0.80291: (Sim:1h35m27s) 
CPU  0 inst:  107000001 cyc:  231733338 now IPC :1.18814: AVG IPC :0.45503: L2-Pf-HR :0.95791: L2-HR :0.79195: (Sim:1h35m28s) 
CPU  2 inst:  107000003 cyc:  231818616 now IPC :1.18387: AVG IPC :0.45487: L2-Pf-HR :0.96805: L2-HR :0.82390: (Sim:1h35m35s) 
CPU  3 inst:  118000003 cyc:  232117125 now IPC :1.17433: AVG IPC :0.50186: L2-Pf-HR :0.95717: L2-HR :0.79726: (Sim:1h36m2s) 
CPU  0 inst:  108000004 cyc:  232345113 now IPC :1.63459: AVG IPC :0.45815: L2-Pf-HR :0.95841: L2-HR :0.79383: (Sim:1h36m20s) 
CPU  2 inst:  108000004 cyc:  232441952 now IPC :1.60427: AVG IPC :0.45796: L2-Pf-HR :0.96831: L2-HR :0.82517: (Sim:1h36m27s) 
CPU  1 inst:  109000004 cyc:  232453591 now IPC :1.36961: AVG IPC :0.46226: L2-Pf-HR :0.96187: L2-HR :0.80449: (Sim:1h36m27s) 
CPU  3 inst:  119000000 cyc:  232901384 now IPC :1.27509: AVG IPC :0.50448: L2-Pf-HR :0.95755: L2-HR :0.79856: (Sim:1h37m4s) 
CPU  0 inst:  109000004 cyc:  233190937 now IPC :1.18228: AVG IPC :0.46079: L2-Pf-HR :0.95884: L2-HR :0.79547: (Sim:1h37m20s) 
CPU  2 inst:  109000004 cyc:  233268131 now IPC :1.21039: AVG IPC :0.46064: L2-Pf-HR :0.96848: L2-HR :0.82621: (Sim:1h37m24s) 
CPU  1 inst:  110000001 cyc:  233303481 now IPC :1.17662: AVG IPC :0.46487: L2-Pf-HR :0.96211: L2-HR :0.80563: (Sim:1h37m26s) 
CPU  3 inst:  120000004 cyc:  233750124 now IPC :1.17822: AVG IPC :0.50694: L2-Pf-HR :0.95793: L2-HR :0.79999: (Sim:1h38m0s) 
CPU  0 inst:  110000000 cyc:  233986367 now IPC :1.25718: AVG IPC :0.46351: L2-Pf-HR :0.95914: L2-HR :0.79672: (Sim:1h38m17s) 
CPU  2 inst:  110000000 cyc:  234099282 now IPC :1.20315: AVG IPC :0.46329: L2-Pf-HR :0.96860: L2-HR :0.82694: (Sim:1h38m25s) 
CPU  1 inst:  111000001 cyc:  234147173 now IPC :1.18527: AVG IPC :0.46748: L2-Pf-HR :0.96234: L2-HR :0.80668: (Sim:1h38m28s) 
CPU  3 inst:  121000002 cyc:  234393829 now IPC :1.55350: AVG IPC :0.50982: L2-Pf-HR :0.95832: L2-HR :0.80156: (Sim:1h38m49s) 
CPU  1 inst:  112000005 cyc:  234772123 now IPC :1.60013: AVG IPC :0.47051: L2-Pf-HR :0.96268: L2-HR :0.80821: (Sim:1h39m16s) 
CPU  0 inst:  111000001 cyc:  234818328 now IPC :1.20198: AVG IPC :0.46614: L2-Pf-HR :0.95945: L2-HR :0.79792: (Sim:1h39m20s) 
CPU  2 inst:  111000005 cyc:  234857197 now IPC :1.31942: AVG IPC :0.46606: L2-Pf-HR :0.96873: L2-HR :0.82766: (Sim:1h39m23s) 
CPU  3 inst:  122000001 cyc:  235250814 now IPC :1.16688: AVG IPC :0.51222: L2-Pf-HR :0.95860: L2-HR :0.80255: (Sim:1h39m53s) 
CPU  1 inst:  113000005 cyc:  235432648 now IPC :1.51395: AVG IPC :0.47345: L2-Pf-HR :0.96300: L2-HR :0.80960: (Sim:1h40m9s) 
CPU  0 inst:  112000005 cyc:  235439715 now IPC :1.60931: AVG IPC :0.46917: L2-Pf-HR :0.95987: L2-HR :0.79955: (Sim:1h40m10s) 
CPU  2 inst:  112000005 cyc:  235543265 now IPC :1.45758: AVG IPC :0.46896: L2-Pf-HR :0.96897: L2-HR :0.82886: (Sim:1h40m17s) 
CPU  3 inst:  123000000 cyc:  236037113 now IPC :1.27178: AVG IPC :0.51477: L2-Pf-HR :0.95895: L2-HR :0.80377: (Sim:1h40m56s) 
CPU  0 inst:  113000002 cyc:  236150892 now IPC :1.40612: AVG IPC :0.47200: L2-Pf-HR :0.96021: L2-HR :0.80104: (Sim:1h41m3s) 
CPU  2 inst:  113000000 cyc:  236216958 now IPC :1.48435: AVG IPC :0.47187: L2-Pf-HR :0.96910: L2-HR :0.82979: (Sim:1h41m7s) 
CPU  1 inst:  114000002 cyc:  236307375 now IPC :1.14321: AVG IPC :0.47594: L2-Pf-HR :0.96317: L2-HR :0.81048: (Sim:1h41m11s) 
CPU  3 inst:  124000000 cyc:  236901145 now IPC :1.15736: AVG IPC :0.51712: L2-Pf-HR :0.95925: L2-HR :0.80499: (Sim:1h41m53s) 
CPU  0 inst:  114000002 cyc:  237027315 now IPC :1.14100: AVG IPC :0.47448: L2-Pf-HR :0.96046: L2-HR :0.80237: (Sim:1h42m1s) 
CPU  2 inst:  114000002 cyc:  237131897 now IPC :1.09297: AVG IPC :0.47427: L2-Pf-HR :0.96916: L2-HR :0.83042: (Sim:1h42m8s) 
CPU  1 inst:  115000000 cyc:  237177632 now IPC :1.14908: AVG IPC :0.47842: L2-Pf-HR :0.96341: L2-HR :0.81160: (Sim:1h42m11s) 
CPU  3 inst:  125000002 cyc:  237611458 now IPC :1.40783: AVG IPC :0.51979: L2-Pf-HR :0.95956: L2-HR :0.80641: (Sim:1h42m43s) 
CPU  0 inst:  115000000 cyc:  237822949 now IPC :1.25686: AVG IPC :0.47711: L2-Pf-HR :0.96078: L2-HR :0.80367: (Sim:1h42m59s) 
CPU  2 inst:  115000000 cyc:  237917459 now IPC :1.27297: AVG IPC :0.47692: L2-Pf-HR :0.96932: L2-HR :0.83130: (Sim:1h43m5s) 
CPU  1 inst:  116000001 cyc:  237979224 now IPC :1.24752: AVG IPC :0.48102: L2-Pf-HR :0.96369: L2-HR :0.81292: (Sim:1h43m10s) 
CPU  3 inst:  126000002 cyc:  238427325 now IPC :1.22569: AVG IPC :0.52222: L2-Pf-HR :0.95981: L2-HR :0.80739: (Sim:1h43m44s) 
CPU  0 inst:  116000001 cyc:  238536340 now IPC :1.40176: AVG IPC :0.47989: L2-Pf-HR :0.96116: L2-HR :0.80524: (Sim:1h43m54s) 
CPU  1 inst:  117000005 cyc:  238610912 now IPC :1.58307: AVG IPC :0.48395: L2-Pf-HR :0.96400: L2-HR :0.81431: (Sim:1h44m1s) 
CPU  2 inst:  116000001 cyc:  238615671 now IPC :1.43223: AVG IPC :0.47973: L2-Pf-HR :0.96950: L2-HR :0.83231: (Sim:1h44m1s) 
CPU  0 inst:  117000005 cyc:  239155525 now IPC :1.61503: AVG IPC :0.48284: L2-Pf-HR :0.96154: L2-HR :0.80681: (Sim:1h44m44s) 
CPU  3 inst:  127000001 cyc:  239162072 now IPC :1.36101: AVG IPC :0.52481: L2-Pf-HR :0.96010: L2-HR :0.80845: (Sim:1h44m45s) 
CPU  2 inst:  117000005 cyc:  239233491 now IPC :1.61860: AVG IPC :0.48268: L2-Pf-HR :0.96968: L2-HR :0.83339: (Sim:1h44m50s) 
CPU  1 inst:  118000003 cyc:  239485619 now IPC :1.14324: AVG IPC :0.48636: L2-Pf-HR :0.96417: L2-HR :0.81516: (Sim:1h45m4s) 
CPU  0 inst:  118000003 cyc:  240052443 now IPC :1.11493: AVG IPC :0.48521: L2-Pf-HR :0.96171: L2-HR :0.80774: (Sim:1h45m43s) 
CPU  3 inst:  128000005 cyc:  240093264 now IPC :1.07390: AVG IPC :0.52694: L2-Pf-HR :0.96030: L2-HR :0.80947: (Sim:1h45m46s) 
CPU  2 inst:  118000003 cyc:  240183365 now IPC :1.05277: AVG IPC :0.48495: L2-Pf-HR :0.96972: L2-HR :0.83399: (Sim:1h45m52s) 
CPU  1 inst:  119000000 cyc:  240287192 now IPC :1.24754: AVG IPC :0.48891: L2-Pf-HR :0.96436: L2-HR :0.81619: (Sim:1h46m0s) 
CPU  3 inst:  129000004 cyc:  240756319 now IPC :1.50817: AVG IPC :0.52966: L2-Pf-HR :0.96058: L2-HR :0.81076: (Sim:1h46m35s) 
CPU  0 inst:  119000000 cyc:  240818260 now IPC :1.30579: AVG IPC :0.48783: L2-Pf-HR :0.96196: L2-HR :0.80882: (Sim:1h46m41s) 
CPU  2 inst:  119000000 cyc:  240903781 now IPC :1.38808: AVG IPC :0.48766: L2-Pf-HR :0.96988: L2-HR :0.83472: (Sim:1h46m47s) 
CPU  1 inst:  120000005 cyc:  241032614 now IPC :1.34153: AVG IPC :0.49156: L2-Pf-HR :0.96462: L2-HR :0.81742: (Sim:1h46m58s) 
CPU  3 inst:  130000001 cyc:  241489712 now IPC :1.36352: AVG IPC :0.53220: L2-Pf-HR :0.96090: L2-HR :0.81189: (Sim:1h47m33s) 
CPU  0 inst:  120000004 cyc:  241533580 now IPC :1.39798: AVG IPC :0.49054: L2-Pf-HR :0.96229: L2-HR :0.81009: (Sim:1h47m38s) 
CPU  2 inst:  120000004 cyc:  241566801 now IPC :1.50826: AVG IPC :0.49047: L2-Pf-HR :0.97004: L2-HR :0.83554: (Sim:1h47m40s) 
CPU  1 inst:  121000003 cyc:  241691269 now IPC :1.51824: AVG IPC :0.49437: L2-Pf-HR :0.96494: L2-HR :0.81877: (Sim:1h47m50s) 
CPU  0 inst:  121000003 cyc:  242231042 now IPC :1.43377: AVG IPC :0.49326: L2-Pf-HR :0.96260: L2-HR :0.81145: (Sim:1h48m31s) 
CPU  3 inst:  131000003 cyc:  242251134 now IPC :1.31333: AVG IPC :0.53467: L2-Pf-HR :0.96116: L2-HR :0.81284: (Sim:1h48m33s) 
CPU  2 inst:  121000003 cyc:  242253186 now IPC :1.45691: AVG IPC :0.49322: L2-Pf-HR :0.97022: L2-HR :0.83657: (Sim:1h48m33s) 
CPU  1 inst:  122000001 cyc:  242511605 now IPC :1.21901: AVG IPC :0.49683: L2-Pf-HR :0.96507: L2-HR :0.81948: (Sim:1h48m51s) 
CPU  3 inst:  132000002 cyc:  243172660 now IPC :1.08516: AVG IPC :0.53676: L2-Pf-HR :0.96132: L2-HR :0.81375: (Sim:1h49m31s) 
CPU  0 inst:  122000001 cyc:  243216293 now IPC :1.01497: AVG IPC :0.49539: L2-Pf-HR :0.96269: L2-HR :0.81220: (Sim:1h49m34s) 
CPU  2 inst:  122000001 cyc:  243223132 now IPC :1.03098: AVG IPC :0.49537: L2-Pf-HR :0.97022: L2-HR :0.83706: (Sim:1h49m35s) 
CPU  1 inst:  123000000 cyc:  243394405 now IPC :1.13276: AVG IPC :0.49915: L2-Pf-HR :0.96523: L2-HR :0.82045: (Sim:1h49m47s) 
CPU  3 inst:  133000002 cyc:  243823798 now IPC :1.53577: AVG IPC :0.53944: L2-Pf-HR :0.96154: L2-HR :0.81494: (Sim:1h50m19s) 
CPU  0 inst:  123000000 cyc:  243999555 now IPC :1.27671: AVG IPC :0.49790: L2-Pf-HR :0.96290: L2-HR :0.81323: (Sim:1h50m34s) 
CPU  2 inst:  123000000 cyc:  244000915 now IPC :1.28570: AVG IPC :0.49790: L2-Pf-HR :0.97032: L2-HR :0.83774: (Sim:1h50m34s) 
CPU  1 inst:  124000000 cyc:  244121487 now IPC :1.37536: AVG IPC :0.50177: L2-Pf-HR :0.96543: L2-HR :0.82143: (Sim:1h50m44s) 
CPU  3 inst:  134000003 cyc:  244469116 now IPC :1.54963: AVG IPC :0.54212: L2-Pf-HR :0.96181: L2-HR :0.81610: (Sim:1h51m11s) 
CPU  0 inst:  124000003 cyc:  244701420 now IPC :1.42478: AVG IPC :0.50057: L2-Pf-HR :0.96314: L2-HR :0.81435: (Sim:1h51m30s) 
CPU  2 inst:  124000000 cyc:  244734480 now IPC :1.36321: AVG IPC :0.50051: L2-Pf-HR :0.97044: L2-HR :0.83848: (Sim:1h51m34s) 
CPU  1 inst:  125000002 cyc:  244737265 now IPC :1.62397: AVG IPC :0.50460: L2-Pf-HR :0.96568: L2-HR :0.82260: (Sim:1h51m34s) 
CPU  3 inst:  135000002 cyc:  245137723 now IPC :1.49565: AVG IPC :0.54473: L2-Pf-HR :0.96206: L2-HR :0.81704: (Sim:1h52m9s) 
CPU  0 inst:  125000002 cyc:  245304986 now IPC :1.65682: AVG IPC :0.50343: L2-Pf-HR :0.96345: L2-HR :0.81579: (Sim:1h52m22s) 
CPU  2 inst:  125000002 cyc:  245322346 now IPC :1.70107: AVG IPC :0.50340: L2-Pf-HR :0.97059: L2-HR :0.83938: (Sim:1h52m24s) 
CPU  1 inst:  126000002 cyc:  245425580 now IPC :1.45282: AVG IPC :0.50727: L2-Pf-HR :0.96585: L2-HR :0.82342: (Sim:1h52m33s) 
CPU  3 inst:  136000002 cyc:  245859975 now IPC :1.38456: AVG IPC :0.54720: L2-Pf-HR :0.96222: L2-HR :0.81782: (Sim:1h53m5s) 
CPU  0 inst:  126000002 cyc:  246046866 now IPC :1.34793: AVG IPC :0.50599: L2-Pf-HR :0.96364: L2-HR :0.81687: (Sim:1h53m20s) 
CPU  2 inst:  126000005 cyc:  246059198 now IPC :1.35713: AVG IPC :0.50596: L2-Pf-HR :0.97064: L2-HR :0.83998: (Sim:1h53m21s) 
CPU  1 inst:  127000001 cyc:  246122550 now IPC :1.43478: AVG IPC :0.50991: L2-Pf-HR :0.96600: L2-HR :0.82427: (Sim:1h53m26s) 
CPU  3 inst:  137000001 cyc:  246468075 now IPC :1.64446: AVG IPC :0.54992: L2-Pf-HR :0.96246: L2-HR :0.81897: (Sim:1h53m55s) 
CPU  0 inst:  127000001 cyc:  246755062 now IPC :1.41204: AVG IPC :0.50860: L2-Pf-HR :0.96383: L2-HR :0.81778: (Sim:1h54m17s) 
CPU  2 inst:  127000001 cyc:  246774246 now IPC :1.39850: AVG IPC :0.50856: L2-Pf-HR :0.97072: L2-HR :0.84060: (Sim:1h54m19s) 
CPU  1 inst:  128000005 cyc:  246823043 now IPC :1.42757: AVG IPC :0.51253: L2-Pf-HR :0.96616: L2-HR :0.82516: (Sim:1h54m23s) 
CPU  3 inst:  138000001 cyc:  247058962 now IPC :1.69237: AVG IPC :0.55267: L2-Pf-HR :0.96274: L2-HR :0.82022: (Sim:1h54m44s) 
CPU  1 inst:  129000004 cyc:  247423914 now IPC :1.66425: AVG IPC :0.51533: L2-Pf-HR :0.96635: L2-HR :0.82616: (Sim:1h55m14s) 
CPU  0 inst:  128000005 cyc:  247425127 now IPC :1.49240: AVG IPC :0.51127: L2-Pf-HR :0.96401: L2-HR :0.81870: (Sim:1h55m14s) 
CPU  2 inst:  128000000 cyc:  247462315 now IPC :1.45334: AVG IPC :0.51120: L2-Pf-HR :0.97084: L2-HR :0.84126: (Sim:1h55m17s) 
CPU  3 inst:  139000001 cyc:  247744953 now IPC :1.45775: AVG IPC :0.55518: L2-Pf-HR :0.96293: L2-HR :0.82096: (Sim:1h55m43s) 
CPU  0 inst:  129000004 cyc:  248006747 now IPC :1.71933: AVG IPC :0.51412: L2-Pf-HR :0.96427: L2-HR :0.81988: (Sim:1h56m6s) 
CPU  2 inst:  129000004 cyc:  248025921 now IPC :1.77430: AVG IPC :0.51408: L2-Pf-HR :0.97097: L2-HR :0.84208: (Sim:1h56m7s) 
CPU  1 inst:  130000001 cyc:  248053131 now IPC :1.58927: AVG IPC :0.51807: L2-Pf-HR :0.96656: L2-HR :0.82710: (Sim:1h56m10s) 
CPU  3 inst:  140000002 cyc:  248399600 now IPC :1.52754: AVG IPC :0.55775: L2-Pf-HR :0.96310: L2-HR :0.82165: (Sim:1h56m41s) 
CPU  0 inst:  130000001 cyc:  248652131 now IPC :1.54946: AVG IPC :0.51681: L2-Pf-HR :0.96446: L2-HR :0.82082: (Sim:1h57m0s) 
CPU  2 inst:  130000001 cyc:  248680482 now IPC :1.52774: AVG IPC :0.51676: L2-Pf-HR :0.97106: L2-HR :0.84275: (Sim:1h57m3s) 
CPU  1 inst:  131000003 cyc:  248712692 now IPC :1.51616: AVG IPC :0.52073: L2-Pf-HR :0.96672: L2-HR :0.82789: (Sim:1h57m6s) 
CPU  3 inst:  141000003 cyc:  249041351 now IPC :1.55824: AVG IPC :0.56034: L2-Pf-HR :0.96327: L2-HR :0.82254: (Sim:1h57m34s) 
CPU  0 inst:  131000003 cyc:  249272248 now IPC :1.61260: AVG IPC :0.51955: L2-Pf-HR :0.96463: L2-HR :0.82166: (Sim:1h57m55s) 
CPU  2 inst:  131000003 cyc:  249319186 now IPC :1.56567: AVG IPC :0.51945: L2-Pf-HR :0.97114: L2-HR :0.84334: (Sim:1h57m59s) 
CPU  1 inst:  132000002 cyc:  249387564 now IPC :1.48176: AVG IPC :0.52334: L2-Pf-HR :0.96682: L2-HR :0.82860: (Sim:1h58m5s) 
CPU  3 inst:  142000005 cyc:  249606271 now IPC :1.77017: AVG IPC :0.56309: L2-Pf-HR :0.96351: L2-HR :0.82374: (Sim:1h58m25s) 
CPU  0 inst:  132000001 cyc:  249917126 now IPC :1.55068: AVG IPC :0.52222: L2-Pf-HR :0.96477: L2-HR :0.82240: (Sim:1h58m52s) 
CPU  1 inst:  133000002 cyc:  249943527 now IPC :1.79868: AVG IPC :0.52618: L2-Pf-HR :0.96702: L2-HR :0.82967: (Sim:1h58m54s) 
CPU  2 inst:  132000002 cyc:  249958728 now IPC :1.56362: AVG IPC :0.52214: L2-Pf-HR :0.97121: L2-HR :0.84384: (Sim:1h58m56s) 
CPU  3 inst:  143000002 cyc:  250241506 now IPC :1.57422: AVG IPC :0.56567: L2-Pf-HR :0.96362: L2-HR :0.82434: (Sim:1h59m23s) 
CPU  0 inst:  133000002 cyc:  250484546 now IPC :1.76236: AVG IPC :0.52504: L2-Pf-HR :0.96499: L2-HR :0.82349: (Sim:1h59m45s) 
CPU  2 inst:  133000002 cyc:  250509271 now IPC :1.81639: AVG IPC :0.52499: L2-Pf-HR :0.97134: L2-HR :0.84464: (Sim:1h59m47s) 
CPU  1 inst:  134000000 cyc:  250541751 now IPC :1.67161: AVG IPC :0.52893: L2-Pf-HR :0.96721: L2-HR :0.83063: (Sim:1h59m50s) 
CPU  3 inst:  144000004 cyc:  250871861 now IPC :1.58641: AVG IPC :0.56824: L2-Pf-HR :0.96377: L2-HR :0.82501: (Sim:2h0m21s) 
CPU  0 inst:  134000000 cyc:  251109617 now IPC :1.59982: AVG IPC :0.52773: L2-Pf-HR :0.96519: L2-HR :0.82455: (Sim:2h0m39s) 
CPU  2 inst:  134000003 cyc:  251123906 now IPC :1.62698: AVG IPC :0.52770: L2-Pf-HR :0.97147: L2-HR :0.84554: (Sim:2h0m40s) 
CPU  1 inst:  135000002 cyc:  251209338 now IPC :1.49794: AVG IPC :0.53152: L2-Pf-HR :0.96734: L2-HR :0.83134: (Sim:2h0m46s) 
CPU  3 inst:  145000003 cyc:  251523159 now IPC :1.53539: AVG IPC :0.57076: L2-Pf-HR :0.96391: L2-HR :0.82584: (Sim:2h1m15s) 
CPU  0 inst:  135000002 cyc:  251737897 now IPC :1.59165: AVG IPC :0.53039: L2-Pf-HR :0.96534: L2-HR :0.82532: (Sim:2h1m34s) 
CPU  2 inst:  135000002 cyc:  251762676 now IPC :1.56551: AVG IPC :0.53034: L2-Pf-HR :0.97153: L2-HR :0.84608: (Sim:2h1m37s) 
CPU  1 inst:  136000004 cyc:  251854000 now IPC :1.55120: AVG IPC :0.53414: L2-Pf-HR :0.96740: L2-HR :0.83188: (Sim:2h1m43s) 
CPU  3 inst:  146000003 cyc:  252102207 now IPC :1.72697: AVG IPC :0.57342: L2-Pf-HR :0.96410: L2-HR :0.82688: (Sim:2h2m6s) 
CPU  0 inst:  136000000 cyc:  252396446 now IPC :1.51849: AVG IPC :0.53298: L2-Pf-HR :0.96546: L2-HR :0.82590: (Sim:2h2m32s) 
CPU  2 inst:  136000002 cyc:  252430508 now IPC :1.49738: AVG IPC :0.53291: L2-Pf-HR :0.97158: L2-HR :0.84644: (Sim:2h2m34s) 
CPU  1 inst:  137000000 cyc:  252435531 now IPC :1.71959: AVG IPC :0.53688: L2-Pf-HR :0.96759: L2-HR :0.83283: (Sim:2h2m34s) 
CPU  3 inst:  147000002 cyc:  252760377 now IPC :1.51936: AVG IPC :0.57590: L2-Pf-HR :0.96426: L2-HR :0.82757: (Sim:2h3m2s) 
CPU  0 inst:  137000000 cyc:  252986919 now IPC :1.69356: AVG IPC :0.53570: L2-Pf-HR :0.96566: L2-HR :0.82692: (Sim:2h3m16s) 
CPU  1 inst:  138000001 cyc:  252999790 now IPC :1.77224: AVG IPC :0.53964: L2-Pf-HR :0.96780: L2-HR :0.83388: (Sim:2h3m18s) 
CPU  2 inst:  137000000 cyc:  253009599 now IPC :1.72684: AVG IPC :0.53565: L2-Pf-HR :0.97171: L2-HR :0.84722: (Sim:2h3m19s) 
CPU  3 inst:  148000003 cyc:  253366277 now IPC :1.65044: AVG IPC :0.57848: L2-Pf-HR :0.96443: L2-HR :0.82824: (Sim:2h3m52s) 
CPU  0 inst:  138000001 cyc:  253527783 now IPC :1.84890: AVG IPC :0.53851: L2-Pf-HR :0.96588: L2-HR :0.82800: (Sim:2h4m7s) 
CPU  2 inst:  138000001 cyc:  253555589 now IPC :1.83154: AVG IPC :0.53846: L2-Pf-HR :0.97184: L2-HR :0.84805: (Sim:2h4m9s) 
CPU  1 inst:  139000001 cyc:  253640648 now IPC :1.56041: AVG IPC :0.54223: L2-Pf-HR :0.96788: L2-HR :0.83436: (Sim:2h4m15s) 
CPU  3 inst:  149000000 cyc:  254030088 now IPC :1.50645: AVG IPC :0.58091: L2-Pf-HR :0.96460: L2-HR :0.82904: (Sim:2h4m47s) 
CPU  0 inst:  139000001 cyc:  254248381 now IPC :1.38774: AVG IPC :0.54093: L2-Pf-HR :0.96598: L2-HR :0.82865: (Sim:2h5m5s) 
CPU  2 inst:  139000001 cyc:  254279671 now IPC :1.38106: AVG IPC :0.54086: L2-Pf-HR :0.97186: L2-HR :0.84848: (Sim:2h5m8s) 
CPU  1 inst:  140000002 cyc:  254314825 now IPC :1.48329: AVG IPC :0.54474: L2-Pf-HR :0.96793: L2-HR :0.83489: (Sim:2h5m11s) 
CPU  3 inst:  150000001 cyc:  254603626 now IPC :1.74357: AVG IPC :0.58354: L2-Pf-HR :0.96480: L2-HR :0.83004: (Sim:2h5m37s) 
CPU  0 inst:  140000002 cyc:  254883827 now IPC :1.57370: AVG IPC :0.54351: L2-Pf-HR :0.96609: L2-HR :0.82925: (Sim:2h6m3s) 
CPU  2 inst:  140000002 cyc:  254913293 now IPC :1.57823: AVG IPC :0.54345: L2-Pf-HR :0.97190: L2-HR :0.84887: (Sim:2h6m5s) 
CPU  1 inst:  141000003 cyc:  254923017 now IPC :1.64422: AVG IPC :0.54737: L2-Pf-HR :0.96805: L2-HR :0.83561: (Sim:2h6m6s) 
CPU  3 inst:  151000001 cyc:  255214131 now IPC :1.63799: AVG IPC :0.58607: L2-Pf-HR :0.96493: L2-HR :0.83072: (Sim:2h6m31s) 
CPU  0 inst:  141000003 cyc:  255497676 now IPC :1.62907: AVG IPC :0.54613: L2-Pf-HR :0.96629: L2-HR :0.83016: (Sim:2h6m58s) 
CPU  1 inst:  142000004 cyc:  255500008 now IPC :1.73313: AVG IPC :0.55006: L2-Pf-HR :0.96823: L2-HR :0.83655: (Sim:2h6m58s) 
CPU  2 inst:  141000003 cyc:  255509602 now IPC :1.67698: AVG IPC :0.54611: L2-Pf-HR :0.97206: L2-HR :0.84969: (Sim:2h6m59s) 
CPU  3 inst:  152000002 cyc:  255847935 now IPC :1.57778: AVG IPC :0.58854: L2-Pf-HR :0.96508: L2-HR :0.83132: (Sim:2h7m29s) 
CPU  0 inst:  142000005 cyc:  256071175 now IPC :1.74369: AVG IPC :0.54883: L2-Pf-HR :0.96649: L2-HR :0.83116: (Sim:2h7m49s) 
CPU  2 inst:  142000004 cyc:  256084242 now IPC :1.74022: AVG IPC :0.54880: L2-Pf-HR :0.97219: L2-HR :0.85057: (Sim:2h7m50s) 
CPU  1 inst:  143000002 cyc:  256135638 now IPC :1.57324: AVG IPC :0.55261: L2-Pf-HR :0.96836: L2-HR :0.83716: (Sim:2h7m55s) 
CPU  3 inst:  153000002 cyc:  256497087 now IPC :1.54047: AVG IPC :0.59096: L2-Pf-HR :0.96519: L2-HR :0.83192: (Sim:2h8m24s) 
CPU  0 inst:  143000002 cyc:  256732036 now IPC :1.51317: AVG IPC :0.55132: L2-Pf-HR :0.96660: L2-HR :0.83184: (Sim:2h8m45s) 
CPU  2 inst:  143000002 cyc:  256774241 now IPC :1.44927: AVG IPC :0.55123: L2-Pf-HR :0.97224: L2-HR :0.85101: (Sim:2h8m48s) 
CPU  1 inst:  144000004 cyc:  256802062 now IPC :1.50055: AVG IPC :0.55508: L2-Pf-HR :0.96843: L2-HR :0.83769: (Sim:2h8m51s) 
CPU  3 inst:  154000002 cyc:  257053553 now IPC :1.79706: AVG IPC :0.59358: L2-Pf-HR :0.96537: L2-HR :0.83289: (Sim:2h9m13s) 
CPU  0 inst:  144000004 cyc:  257351647 now IPC :1.61392: AVG IPC :0.55389: L2-Pf-HR :0.96671: L2-HR :0.83249: (Sim:2h9m41s) 
CPU  2 inst:  144000004 cyc:  257396208 now IPC :1.60781: AVG IPC :0.55379: L2-Pf-HR :0.97229: L2-HR :0.85143: (Sim:2h9m45s) 
CPU  1 inst:  145000003 cyc:  257408888 now IPC :1.64792: AVG IPC :0.55766: L2-Pf-HR :0.96855: L2-HR :0.83840: (Sim:2h9m46s) 
CPU  3 inst:  155000003 cyc:  257676583 now IPC :1.60506: AVG IPC :0.59603: L2-Pf-HR :0.96543: L2-HR :0.83342: (Sim:2h10m8s) 
CPU  0 inst:  145000003 cyc:  257967061 now IPC :1.62492: AVG IPC :0.55645: L2-Pf-HR :0.96686: L2-HR :0.83326: (Sim:2h10m35s) 
CPU  1 inst:  146000003 cyc:  257979797 now IPC :1.75159: AVG IPC :0.56031: L2-Pf-HR :0.96872: L2-HR :0.83931: (Sim:2h10m37s) 
CPU  2 inst:  145000003 cyc:  258018386 now IPC :1.60726: AVG IPC :0.55634: L2-Pf-HR :0.97237: L2-HR :0.85197: (Sim:2h10m40s) 
CPU  3 inst:  156000003 cyc:  258286943 now IPC :1.63838: AVG IPC :0.59851: L2-Pf-HR :0.96560: L2-HR :0.83409: (Sim:2h11m5s) 
CPU  0 inst:  146000003 cyc:  258527997 now IPC :1.78273: AVG IPC :0.55912: L2-Pf-HR :0.96705: L2-HR :0.83423: (Sim:2h11m26s) 
CPU  2 inst:  146000003 cyc:  258577837 now IPC :1.78747: AVG IPC :0.55901: L2-Pf-HR :0.97249: L2-HR :0.85273: (Sim:2h11m31s) 
CPU  1 inst:  147000002 cyc:  258629632 now IPC :1.53885: AVG IPC :0.56278: L2-Pf-HR :0.96883: L2-HR :0.83992: (Sim:2h11m36s) 
CPU  3 inst:  157000004 cyc:  258985744 now IPC :1.43102: AVG IPC :0.60076: L2-Pf-HR :0.96572: L2-HR :0.83468: (Sim:2h12m4s) 
CPU  0 inst:  147000000 cyc:  259178057 now IPC :1.53831: AVG IPC :0.56159: L2-Pf-HR :0.96717: L2-HR :0.83490: (Sim:2h12m22s) 
CPU  2 inst:  147000000 cyc:  259215681 now IPC :1.56778: AVG IPC :0.56151: L2-Pf-HR :0.97254: L2-HR :0.85322: (Sim:2h12m25s) 
CPU  1 inst:  148000003 cyc:  259281494 now IPC :1.53407: AVG IPC :0.56523: L2-Pf-HR :0.96891: L2-HR :0.84047: (Sim:2h12m31s) 
CPU  3 inst:  158000000 cyc:  259535273 now IPC :1.81973: AVG IPC :0.60335: L2-Pf-HR :0.96589: L2-HR :0.83561: (Sim:2h12m54s) 
CPU  0 inst:  148000003 cyc:  259797457 now IPC :1.61447: AVG IPC :0.56411: L2-Pf-HR :0.96726: L2-HR :0.83551: (Sim:2h13m17s) 
CPU  2 inst:  148000003 cyc:  259847026 now IPC :1.58392: AVG IPC :0.56400: L2-Pf-HR :0.97258: L2-HR :0.85365: (Sim:2h13m21s) 
CPU  1 inst:  149000000 cyc:  259903210 now IPC :1.60845: AVG IPC :0.56774: L2-Pf-HR :0.96901: L2-HR :0.84108: (Sim:2h13m27s) 
CPU  3 inst:  159000001 cyc:  260132689 now IPC :1.67388: AVG IPC :0.60582: L2-Pf-HR :0.96601: L2-HR :0.83628: (Sim:2h13m47s) 
CPU  0 inst:  149000000 cyc:  260411458 now IPC :1.62866: AVG IPC :0.56663: L2-Pf-HR :0.96740: L2-HR :0.83623: (Sim:2h14m12s) 
CPU  1 inst:  150000001 cyc:  260455004 now IPC :1.81227: AVG IPC :0.57039: L2-Pf-HR :0.96917: L2-HR :0.84189: (Sim:2h14m17s) 
CPU  2 inst:  149000000 cyc:  260458115 now IPC :1.63642: AVG IPC :0.56653: L2-Pf-HR :0.97266: L2-HR :0.85415: (Sim:2h14m17s) 
CPU  3 inst:  160000002 cyc:  260750946 now IPC :1.61745: AVG IPC :0.60823: L2-Pf-HR :0.96613: L2-HR :0.83682: (Sim:2h14m45s) 
CPU  0 inst:  150000001 cyc:  260945753 now IPC :1.87163: AVG IPC :0.56931: L2-Pf-HR :0.96759: L2-HR :0.83715: (Sim:2h15m2s) 
CPU  2 inst:  150000001 cyc:  261008896 now IPC :1.81561: AVG IPC :0.56917: L2-Pf-HR :0.97277: L2-HR :0.85483: (Sim:2h15m8s) 
CPU  1 inst:  151000001 cyc:  261083501 now IPC :1.59110: AVG IPC :0.57285: L2-Pf-HR :0.96925: L2-HR :0.84245: (Sim:2h15m15s) 
CPU  3 inst:  161000001 cyc:  261406584 now IPC :1.52523: AVG IPC :0.61053: L2-Pf-HR :0.96627: L2-HR :0.83744: (Sim:2h15m42s) 
CPU  0 inst:  151000001 cyc:  261597398 now IPC :1.53458: AVG IPC :0.57172: L2-Pf-HR :0.96769: L2-HR :0.83775: (Sim:2h15m57s) 
CPU  2 inst:  151000001 cyc:  261641752 now IPC :1.58014: AVG IPC :0.57163: L2-Pf-HR :0.97281: L2-HR :0.85523: (Sim:2h16m1s) 
CPU  1 inst:  152000002 cyc:  261745837 now IPC :1.50981: AVG IPC :0.57523: L2-Pf-HR :0.96932: L2-HR :0.84295: (Sim:2h16m10s) 
CPU  3 inst:  162000002 cyc:  261996802 now IPC :1.69429: AVG IPC :0.61299: L2-Pf-HR :0.96638: L2-HR :0.83817: (Sim:2h16m32s) 
CPU  0 inst:  152000002 cyc:  262252048 now IPC :1.52754: AVG IPC :0.57412: L2-Pf-HR :0.96776: L2-HR :0.83831: (Sim:2h16m54s) 
CPU  2 inst:  152000002 cyc:  262280626 now IPC :1.56526: AVG IPC :0.57406: L2-Pf-HR :0.97284: L2-HR :0.85561: (Sim:2h16m57s) 
CPU  1 inst:  153000002 cyc:  262395458 now IPC :1.53936: AVG IPC :0.57763: L2-Pf-HR :0.96941: L2-HR :0.84352: (Sim:2h17m7s) 
CPU  3 inst:  163000005 cyc:  262583394 now IPC :1.70477: AVG IPC :0.61543: L2-Pf-HR :0.96652: L2-HR :0.83895: (Sim:2h17m24s) 
[...]
Core_0_LLC_loads 802428
Core_0_LLC_load_hit 392198 LLC_load_Hit Ratio: 0.48876
Core_0_LLC_load_miss 410230
Core_0_LLC_RFOs 262331
Core_0_LLC_RFO_hit 45 LLC_RFO_Hit Ratio: 0.00017
Core_0_LLC_RFO_miss 262286
Core_0_LLC_prefetches 2872303
Core_0_LLC_prefetch_hit 2121607 LLC_prefetch_Hit Ratio: 0.73864
Core_0_LLC_prefetch_miss 750696
Core_0_LLC_writebacks 815268
Core_0_LLC_writeback_hit 795068 LLC_writeback_Hit Ratio: 0.97522
Core_0_LLC_writeback_miss 20200
Core_0_LLC_prefetch_requested 0
Core_0_LLC_prefetch_issued 0
Core_0_LLC_prefetch_useful 1618118 LLC_Useful Ratio: inf
Core_0_LLC_prefetch_useless 1355918
Core_0_LLC_prefetch_late 504470
Core_0_LLC_average_miss_latency 3758.89807

Core_0_major_page_fault 0
Core_0_minor_page_fault 11199

Core_1_instructions 162000005
Core_1_cycles 268140222
Core_1_IPC 0.60416

Core_1_branch_prediction_accuracy 99.21075
Core_1_branch_MPKI 0.23366
Core_1_average_ROB_occupancy_at_mispredict 450.81172

Core_1_L1D_total_access 51141889
Core_1_L1D_total_hit 48138379 L1D_total_Hit Ratio: 0.94127
Core_1_L1D_total_miss 3003510
Core_1_L1D_loads 46851273
Core_1_L1D_load_hit 44111885 L1D_load_Hit Ratio: 0.94153
Core_1_L1D_load_miss 2739388
Core_1_L1D_RFOs 4290616
Core_1_L1D_RFO_hit 4026494 L1D_RFO_Hit Ratio: 0.93844
Core_1_L1D_RFO_miss 264122
Core_1_L1D_prefetches 0
Core_1_L1D_prefetch_hit 0 L1D_prefetch_Hit Ratio: -nan
Core_1_L1D_prefetch_miss 0
Core_1_L1D_writebacks 0
Core_1_L1D_writeback_hit 0 L1D_writeback_Hit Ratio: -nan
Core_1_L1D_writeback_miss 0
Core_1_L1D_prefetch_requested 0
Core_1_L1D_prefetch_issued 0
Core_1_L1D_prefetch_useful 0 L1D_Useful Ratio: -nan
Core_1_L1D_prefetch_useless 0
Core_1_L1D_prefetch_late 0
Core_1_L1D_average_miss_latency 308.24449

Core_1_L1I_total_access 24462152
Core_1_L1I_total_hit 24460173 L1I_total_Hit Ratio: 0.99992
Core_1_L1I_total_miss 1979
Core_1_L1I_loads 24462152
Core_1_L1I_load_hit 24460173 L1I_load_Hit Ratio: 0.99992
Core_1_L1I_load_miss 1979
Core_1_L1I_RFOs 0
Core_1_L1I_RFO_hit 0 L1I_RFO_Hit Ratio: -nan
Core_1_L1I_RFO_miss 0
Core_1_L1I_prefetches 0
Core_1_L1I_prefetch_hit 0 L1I_prefetch_Hit Ratio: -nan
Core_1_L1I_prefetch_miss 0
Core_1_L1I_writebacks 0
Core_1_L1I_writeback_hit 0 L1I_writeback_Hit Ratio: -nan
Core_1_L1I_writeback_miss 0
Core_1_L1I_prefetch_requested 0
Core_1_L1I_prefetch_issued 0
Core_1_L1I_prefetch_useful 0 L1I_Useful Ratio: -nan
Core_1_L1I_prefetch_useless 0
Core_1_L1I_prefetch_late 0
Core_1_L1I_average_miss_latency 983.04295

Core_1_L2C_total_access 9434578
Core_1_L2C_total_hit 8014206 L2C_total_Hit Ratio: 0.84945
Core_1_L2C_total_miss 1420372
Core_1_L2C_loads 2741350
Core_1_L2C_load_hit 1743705 L2C_load_Hit Ratio: 0.63608
Core_1_L2C_load_miss 997645
Core_1_L2C_RFOs 264122
Core_1_L2C_RFO_hit 1787 L2C_RFO_Hit Ratio: 0.00677
Core_1_L2C_RFO_miss 262335
Core_1_L2C_prefetches 5432660
Core_1_L2C_prefetch_hit 5272273 L2C_prefetch_Hit Ratio: 0.97048
Core_1_L2C_prefetch_miss 160387
Core_1_L2C_writebacks 996446
Core_1_L2C_writeback_hit 996441 L2C_writeback_Hit Ratio: 0.99999
Core_1_L2C_writeback_miss 5
Core_1_L2C_prefetch_requested 16025717
Core_1_L2C_prefetch_issued 15456395
Core_1_L2C_prefetch_useful 163191 L2C_Useful Ratio: 0.01056
Core_1_L2C_prefetch_useless 128
Core_1_L2C_prefetch_late 194069
Core_1_L2C_average_miss_latency 635.06542

Core_1_LLC_total_access 4736023
Core_1_LLC_total_hit 3295477 LLC_total_Hit Ratio: 0.69583
Core_1_LLC_total_miss 1440546
Core_1_LLC_loads 803813
Core_1_LLC_load_hit 388523 LLC_load_Hit Ratio: 0.48335
Core_1_LLC_load_miss 415290
Core_1_LLC_RFOs 262335
Core_1_LLC_RFO_hit 52 LLC_RFO_Hit Ratio: 0.00020
Core_1_LLC_RFO_miss 262283
Core_1_LLC_prefetches 2855040
Core_1_LLC_prefetch_hit 2108853 LLC_prefetch_Hit Ratio: 0.73864
Core_1_LLC_prefetch_miss 746187
Core_1_LLC_writebacks 814835
Core_1_LLC_writeback_hit 798049 LLC_writeback_Hit Ratio: 0.97940
Core_1_LLC_writeback_miss 16786
Core_1_LLC_prefetch_requested 0
Core_1_LLC_prefetch_issued 0
Core_1_LLC_prefetch_useful 1618118 LLC_Useful Ratio: inf
Core_1_LLC_prefetch_useless 1355918
Core_1_LLC_prefetch_late 504470
Core_1_LLC_average_miss_latency 3766.37649

Core_1_major_page_fault 0
Core_1_minor_page_fault 11210

Core_2_instructions 162000004
Core_2_cycles 268682743
Core_2_IPC 0.60294

Core_2_branch_prediction_accuracy 99.21038
Core_2_branch_MPKI 0.23475
Core_2_average_ROB_occupancy_at_mispredict 450.96866

Core_2_L1D_total_access 51129391
Core_2_L1D_total_hit 47994299 L1D_total_Hit Ratio: 0.93868
Core_2_L1D_total_miss 3135092
Core_2_L1D_loads 46836999
Core_2_L1D_load_hit 43965049 L1D_load_Hit Ratio: 0.93868
Core_2_L1D_load_miss 2871950
Core_2_L1D_RFOs 4292392
Core_2_L1D_RFO_hit 4029250 L1D_RFO_Hit Ratio: 0.93870
Core_2_L1D_RFO_miss 263142
Core_2_L1D_prefetches 0
Core_2_L1D_prefetch_hit 0 L1D_prefetch_Hit Ratio: -nan
Core_2_L1D_prefetch_miss 0
Core_2_L1D_writebacks 0
Core_2_L1D_writeback_hit 0 L1D_writeback_Hit Ratio: -nan
Core_2_L1D_writeback_miss 0
Core_2_L1D_prefetch_requested 0
Core_2_L1D_prefetch_issued 0
Core_2_L1D_prefetch_useful 0 L1D_Useful Ratio: -nan
Core_2_L1D_prefetch_useless 0
Core_2_L1D_prefetch_late 0
Core_2_L1D_average_miss_latency 297.96646

Core_2_L1I_total_access 24336720
Core_2_L1I_total_hit 24334737 L1I_total_Hit Ratio: 0.99992
Core_2_L1I_total_miss 1983
Core_2_L1I_loads 24336720
Core_2_L1I_load_hit 24334737 L1I_load_Hit Ratio: 0.99992
Core_2_L1I_load_miss 1983
Core_2_L1I_RFOs 0
Core_2_L1I_RFO_hit 0 L1I_RFO_Hit Ratio: -nan
Core_2_L1I_RFO_miss 0
Core_2_L1I_prefetches 0
Core_2_L1I_prefetch_hit 0 L1I_prefetch_Hit Ratio: -nan
Core_2_L1I_prefetch_miss 0
Core_2_L1I_writebacks 0
Core_2_L1I_writeback_hit 0 L1I_writeback_Hit Ratio: -nan
Core_2_L1I_writeback_miss 0
Core_2_L1I_prefetch_requested 0
Core_2_L1I_prefetch_issued 0
Core_2_L1I_prefetch_useful 0 L1I_Useful Ratio: -nan
Core_2_L1I_prefetch_useless 0
Core_2_L1I_prefetch_late 0
Core_2_L1I_average_miss_latency 855.48764

Core_2_L2C_total_access 10183889
Core_2_L2C_total_hit 8763516 L2C_total_Hit Ratio: 0.86053
Core_2_L2C_total_miss 1420373
Core_2_L2C_loads 2873932
Core_2_L2C_load_hit 1875603 L2C_load_Hit Ratio: 0.65263
Core_2_L2C_load_miss 998329
Core_2_L2C_RFOs 263142
Core_2_L2C_RFO_hit 795 L2C_RFO_Hit Ratio: 0.00302
Core_2_L2C_RFO_miss 262347
Core_2_L2C_prefetches 6053272
Core_2_L2C_prefetch_hit 5893581 L2C_prefetch_Hit Ratio: 0.97362
Core_2_L2C_prefetch_miss 159691
Core_2_L2C_writebacks 993543
Core_2_L2C_writeback_hit 993537 L2C_writeback_Hit Ratio: 0.99999
Core_2_L2C_writeback_miss 6
Core_2_L2C_prefetch_requested 16884985
Core_2_L2C_prefetch_issued 16234209
Core_2_L2C_prefetch_useful 162012 L2C_Useful Ratio: 0.00998
Core_2_L2C_prefetch_useless 125
Core_2_L2C_prefetch_late 195210
Core_2_L2C_average_miss_latency 638.81163

Core_2_LLC_total_access 4728228
Core_2_LLC_total_hit 3288433 LLC_total_Hit Ratio: 0.69549
Core_2_LLC_total_miss 1439795
Core_2_LLC_loads 803284
Core_2_LLC_load_hit 388333 LLC_load_Hit Ratio: 0.48343
Core_2_LLC_load_miss 414951
Core_2_LLC_RFOs 262347
Core_2_LLC_RFO_hit 61 LLC_RFO_Hit Ratio: 0.00023
Core_2_LLC_RFO_miss 262286
Core_2_LLC_prefetches 2847327
Core_2_LLC_prefetch_hit 2101371 LLC_prefetch_Hit Ratio: 0.73802
Core_2_LLC_prefetch_miss 745956
Core_2_LLC_writebacks 815270
Core_2_LLC_writeback_hit 798668 LLC_writeback_Hit Ratio: 0.97964
Core_2_LLC_writeback_miss 16602
Core_2_LLC_prefetch_requested 0
Core_2_LLC_prefetch_issued 0
Core_2_LLC_prefetch_useful 1618118 LLC_Useful Ratio: inf
Core_2_LLC_prefetch_useless 1355918
Core_2_LLC_prefetch_late 504470
Core_2_LLC_average_miss_latency 3768.34103

Core_2_major_page_fault 0
Core_2_minor_page_fault 11197

Core_3_instructions 162000002
Core_3_cycles 262277361
Core_3_IPC 0.61767

Core_3_branch_prediction_accuracy 99.20993
Core_3_branch_MPKI 0.22636
Core_3_average_ROB_occupancy_at_mispredict 443.66284

Core_3_L1D_total_access 51150479
Core_3_L1D_total_hit 48256856 L1D_total_Hit Ratio: 0.94343
Core_3_L1D_total_miss 2893623
Core_3_L1D_loads 46859334
Core_3_L1D_load_hit 44229180 L1D_load_Hit Ratio: 0.94387
Core_3_L1D_load_miss 2630154
Core_3_L1D_RFOs 4291145
Core_3_L1D_RFO_hit 4027676 L1D_RFO_Hit Ratio: 0.93860
Core_3_L1D_RFO_miss 263469
Core_3_L1D_prefetches 0
Core_3_L1D_prefetch_hit 0 L1D_prefetch_Hit Ratio: -nan
Core_3_L1D_prefetch_miss 0
Core_3_L1D_writebacks 0
Core_3_L1D_writeback_hit 0 L1D_writeback_Hit Ratio: -nan
Core_3_L1D_writeback_miss 0
Core_3_L1D_prefetch_requested 0
Core_3_L1D_prefetch_issued 0
Core_3_L1D_prefetch_useful 0 L1D_Useful Ratio: -nan
Core_3_L1D_prefetch_useless 0
Core_3_L1D_prefetch_late 0
Core_3_L1D_average_miss_latency 303.43557

Core_3_L1I_total_access 24510359
Core_3_L1I_total_hit 24508351 L1I_total_Hit Ratio: 0.99992
Core_3_L1I_total_miss 2008
Core_3_L1I_loads 24510359
Core_3_L1I_load_hit 24508351 L1I_load_Hit Ratio: 0.99992
Core_3_L1I_load_miss 2008
Core_3_L1I_RFOs 0
Core_3_L1I_RFO_hit 0 L1I_RFO_Hit Ratio: -nan
Core_3_L1I_RFO_miss 0
Core_3_L1I_prefetches 0
Core_3_L1I_prefetch_hit 0 L1I_prefetch_Hit Ratio: -nan
Core_3_L1I_prefetch_miss 0
Core_3_L1I_writebacks 0
Core_3_L1I_writeback_hit 0 L1I_writeback_Hit Ratio: -nan
Core_3_L1I_writeback_miss 0
Core_3_L1I_prefetch_requested 0
Core_3_L1I_prefetch_issued 0
Core_3_L1I_prefetch_useful 0 L1I_Useful Ratio: -nan
Core_3_L1I_prefetch_useless 0
Core_3_L1I_prefetch_late 0
Core_3_L1I_average_miss_latency 1432.51693

Core_3_L2C_total_access 8847083
Core_3_L2C_total_hit 7426564 L2C_total_Hit Ratio: 0.83944
Core_3_L2C_total_miss 1420519
Core_3_L2C_loads 2632154
Core_3_L2C_load_hit 1639369 L2C_load_Hit Ratio: 0.62282
Core_3_L2C_load_miss 992785
Core_3_L2C_RFOs 263469
Core_3_L2C_RFO_hit 1135 L2C_RFO_Hit Ratio: 0.00431
Core_3_L2C_RFO_miss 262334
Core_3_L2C_prefetches 4958116
Core_3_L2C_prefetch_hit 4792722 L2C_prefetch_Hit Ratio: 0.96664
Core_3_L2C_prefetch_miss 165394
Core_3_L2C_writebacks 993344
Core_3_L2C_writeback_hit 993338 L2C_writeback_Hit Ratio: 0.99999
Core_3_L2C_writeback_miss 6
Core_3_L2C_prefetch_requested 15920938
Core_3_L2C_prefetch_issued 15373285
Core_3_L2C_prefetch_useful 171683 L2C_Useful Ratio: 0.01117
Core_3_L2C_prefetch_useless 200
Core_3_L2C_prefetch_late 193284
Core_3_L2C_average_miss_latency 599.67595

Core_3_LLC_total_access 4737032
Core_3_LLC_total_hit 3293613 LLC_total_Hit Ratio: 0.69529
Core_3_LLC_total_miss 1443419
Core_3_LLC_loads 800959
Core_3_LLC_load_hit 382540 LLC_load_Hit Ratio: 0.47760
Core_3_LLC_load_miss 418419
Core_3_LLC_RFOs 262333
Core_3_LLC_RFO_hit 57 LLC_RFO_Hit Ratio: 0.00022
Core_3_LLC_RFO_miss 262276
Core_3_LLC_prefetches 2858479
Core_3_LLC_prefetch_hit 2115164 LLC_prefetch_Hit Ratio: 0.73996
Core_3_LLC_prefetch_miss 743315
Core_3_LLC_writebacks 815261
Core_3_LLC_writeback_hit 795852 LLC_writeback_Hit Ratio: 0.97619
Core_3_LLC_writeback_miss 19409
Core_3_LLC_prefetch_requested 0
Core_3_LLC_prefetch_issued 0
Core_3_LLC_prefetch_useful 1618118 LLC_Useful Ratio: inf
Core_3_LLC_prefetch_useless 1355918
Core_3_LLC_prefetch_late 504470
Core_3_LLC_average_miss_latency 3758.87984

Core_3_major_page_fault 0
Core_3_minor_page_fault 11304

 All Calls: 11286113
 Critical Calls: 11286113
------------------
Depth Distribution
------------------
depth 0: 0
depth 1: 10463736
depth 2: 9542270
depth 3: 8601532
depth 4: 7742872
depth 5: 6768081
depth 6: 5822652
depth 7: 4880367
depth 8: 3429713
depth 9: 2241826
depth 10: 1389041
depth 11: 819918
depth 12: 359585
depth 13: 176079
depth 14: 8986
depth 15: 8831
depth 16: 1
depth 17: 0
depth 18: 0
depth 19: 0
depth 20: 0
depth 21: 0
depth 22: 0
depth 23: 0
depth 24: 0
depth 25: 0
depth 26: 0
depth 27: 0
depth 28: 0
depth 29: 0
Total: 62255490
-----------------------------
-----------------------------
	Captured at Filter
-----------------------------
depth 0: 0
depth 1: 432081
depth 2: 396539
depth 3: 363701
depth 4: 273031
depth 5: 239848
depth 6: 188836
depth 7: 146119
depth 8: 86081
depth 9: 39751
depth 10: 15802
depth 11: 6904
depth 12: 2594
depth 13: 899
depth 14: 43
depth 15: 49
depth 16: 0
depth 17: 0
depth 18: 0
depth 19: 0
depth 20: 0
depth 21: 0
depth 22: 0
depth 23: 0
depth 24: 0
depth 25: 0
depth 26: 0
depth 27: 0
depth 28: 0
depth 29: 0
-----------------------------
-----------------------------
		Lost at Page
-----------------------------
depth 0: 0
depth 1: 582267
depth 2: 714602
depth 3: 874270
depth 4: 912425
depth 5: 785323
depth 6: 679260
depth 7: 625850
depth 8: 528357
depth 9: 407309
depth 10: 276241
depth 11: 178707
depth 12: 85013
depth 13: 45370
depth 14: 2199
depth 15: 2339
depth 16: 0
depth 17: 0
depth 18: 0
depth 19: 0
depth 20: 0
depth 21: 0
depth 22: 0
depth 23: 0
depth 24: 0
depth 25: 0
depth 26: 0
depth 27: 0
depth 28: 0
depth 29: 0
-----------------------------
-----------------------------
	Lost due to PQ Size
-----------------------------
2329132
-----------------------------
ST read accesses: 10653871
ST write accesses: 487124
PT read accesses: 426431994
PT write accesses: 15598810
FILTER read accesses: 82935091
FILTER write accesses: 16888358
GHR read accesses: 42747328
GHR write accesses: 6645617
GHR counter read accesses: 354408694
GHR counter write accesses: 22470024
ST tag read accesses: 4533214670
ST tag write accesses: 191076470
 All Calls: 11286113
 Critical Calls: 11286113
------------------
Depth Distribution
------------------
depth 0: 0
depth 1: 10463736
depth 2: 9542270
depth 3: 8601532
depth 4: 7742872
depth 5: 6768081
depth 6: 5822652
depth 7: 4880367
depth 8: 3429713
depth 9: 2241826
depth 10: 1389041
depth 11: 819918
depth 12: 359585
depth 13: 176079
depth 14: 8986
depth 15: 8831
depth 16: 1
depth 17: 0
depth 18: 0
depth 19: 0
depth 20: 0
depth 21: 0
depth 22: 0
depth 23: 0
depth 24: 0
depth 25: 0
depth 26: 0
depth 27: 0
depth 28: 0
depth 29: 0
Total: 62255490
-----------------------------
-----------------------------
	Captured at Filter
-----------------------------
depth 0: 0
depth 1: 432081
depth 2: 396539
depth 3: 363701
depth 4: 273031
depth 5: 239848
depth 6: 188836
depth 7: 146119
depth 8: 86081
depth 9: 39751
depth 10: 15802
depth 11: 6904
depth 12: 2594
depth 13: 899
depth 14: 43
depth 15: 49
depth 16: 0
depth 17: 0
depth 18: 0
depth 19: 0
depth 20: 0
depth 21: 0
depth 22: 0
depth 23: 0
depth 24: 0
depth 25: 0
depth 26: 0
depth 27: 0
depth 28: 0
depth 29: 0
-----------------------------
-----------------------------
		Lost at Page
-----------------------------
depth 0: 0
depth 1: 582267
depth 2: 714602
depth 3: 874270
depth 4: 912425
depth 5: 785323
depth 6: 679260
depth 7: 625850
depth 8: 528357
depth 9: 407309
depth 10: 276241
depth 11: 178707
depth 12: 85013
depth 13: 45370
depth 14: 2199
depth 15: 2339
depth 16: 0
depth 17: 0
depth 18: 0
depth 19: 0
depth 20: 0
depth 21: 0
depth 22: 0
depth 23: 0
depth 24: 0
depth 25: 0
depth 26: 0
depth 27: 0
depth 28: 0
depth 29: 0
-----------------------------
-----------------------------
	Lost due to PQ Size
-----------------------------
2329132
-----------------------------
ST read accesses: 10653871
ST write accesses: 487124
PT read accesses: 426431994
PT write accesses: 15598810
FILTER read accesses: 82935091
FILTER write accesses: 16888358
GHR read accesses: 42747328
GHR write accesses: 6645617
GHR counter read accesses: 354408694
GHR counter write accesses: 22470024
ST tag read accesses: 4533214670
ST tag write accesses: 191076470
 All Calls: 11286113
 Critical Calls: 11286113
------------------
Depth Distribution
------------------
depth 0: 0
depth 1: 10463736
depth 2: 9542270
depth 3: 8601532
depth 4: 7742872
depth 5: 6768081
depth 6: 5822652
depth 7: 4880367
depth 8: 3429713
depth 9: 2241826
depth 10: 1389041
depth 11: 819918
depth 12: 359585
depth 13: 176079
depth 14: 8986
depth 15: 8831
depth 16: 1
depth 17: 0
depth 18: 0
depth 19: 0
depth 20: 0
depth 21: 0
depth 22: 0
depth 23: 0
depth 24: 0
depth 25: 0
depth 26: 0
depth 27: 0
depth 28: 0
depth 29: 0
Total: 62255490
-----------------------------
-----------------------------
	Captured at Filter
-----------------------------
depth 0: 0
depth 1: 432081
depth 2: 396539
depth 3: 363701
depth 4: 273031
depth 5: 239848
depth 6: 188836
depth 7: 146119
depth 8: 86081
depth 9: 39751
depth 10: 15802
depth 11: 6904
depth 12: 2594
depth 13: 899
depth 14: 43
depth 15: 49
depth 16: 0
depth 17: 0
depth 18: 0
depth 19: 0
depth 20: 0
depth 21: 0
depth 22: 0
depth 23: 0
depth 24: 0
depth 25: 0
depth 26: 0
depth 27: 0
depth 28: 0
depth 29: 0
-----------------------------
-----------------------------
		Lost at Page
-----------------------------
depth 0: 0
depth 1: 582267
depth 2: 714602
depth 3: 874270
depth 4: 912425
depth 5: 785323
depth 6: 679260
depth 7: 625850
depth 8: 528357
depth 9: 407309
depth 10: 276241
depth 11: 178707
depth 12: 85013
depth 13: 45370
depth 14: 2199
depth 15: 2339
depth 16: 0
depth 17: 0
depth 18: 0
depth 19: 0
depth 20: 0
depth 21: 0
depth 22: 0
depth 23: 0
depth 24: 0
depth 25: 0
depth 26: 0
depth 27: 0
depth 28: 0
depth 29: 0
-----------------------------
-----------------------------
	Lost due to PQ Size
-----------------------------
2329132
-----------------------------
ST read accesses: 10653871
ST write accesses: 487124
PT read accesses: 426431994
PT write accesses: 15598810
FILTER read accesses: 82935091
FILTER write accesses: 16888358
GHR read accesses: 42747328
GHR write accesses: 6645617
GHR counter read accesses: 354408694
GHR counter write accesses: 22470024
ST tag read accesses: 4533214670
ST tag write accesses: 191076470
 All Calls: 11286113
 Critical Calls: 11286113
------------------
Depth Distribution
------------------
depth 0: 0
depth 1: 10463736
depth 2: 9542270
depth 3: 8601532
depth 4: 7742872
depth 5: 6768081
depth 6: 5822652
depth 7: 4880367
depth 8: 3429713
depth 9: 2241826
depth 10: 1389041
depth 11: 819918
depth 12: 359585
depth 13: 176079
depth 14: 8986
depth 15: 8831
depth 16: 1
depth 17: 0
depth 18: 0
depth 19: 0
depth 20: 0
depth 21: 0
depth 22: 0
depth 23: 0
depth 24: 0
depth 25: 0
depth 26: 0
depth 27: 0
depth 28: 0
depth 29: 0
Total: 62255490
-----------------------------
-----------------------------
	Captured at Filter
-----------------------------
depth 0: 0
depth 1: 432081
depth 2: 396539
depth 3: 363701
depth 4: 273031
depth 5: 239848
depth 6: 188836
depth 7: 146119
depth 8: 86081
depth 9: 39751
depth 10: 15802
depth 11: 6904
depth 12: 2594
depth 13: 899
depth 14: 43
depth 15: 49
depth 16: 0
depth 17: 0
depth 18: 0
depth 19: 0
depth 20: 0
depth 21: 0
depth 22: 0
depth 23: 0
depth 24: 0
depth 25: 0
depth 26: 0
depth 27: 0
depth 28: 0
depth 29: 0
-----------------------------
-----------------------------
		Lost at Page
-----------------------------
depth 0: 0
depth 1: 582267
depth 2: 714602
depth 3: 874270
depth 4: 912425
depth 5: 785323
depth 6: 679260
depth 7: 625850
depth 8: 528357
depth 9: 407309
depth 10: 276241
depth 11: 178707
depth 12: 85013
depth 13: 45370
depth 14: 2199
depth 15: 2339
depth 16: 0
depth 17: 0
depth 18: 0
depth 19: 0
depth 20: 0
depth 21: 0
depth 22: 0
depth 23: 0
depth 24: 0
depth 25: 0
depth 26: 0
depth 27: 0
depth 28: 0
depth 29: 0
-----------------------------
-----------------------------
	Lost due to PQ Size
-----------------------------
2329132
-----------------------------
ST read accesses: 10653871
ST write accesses: 487124
PT read accesses: 426431994
PT write accesses: 15598810
FILTER read accesses: 82935091
FILTER write accesses: 16888358
GHR read accesses: 42747328
GHR write accesses: 6645617
GHR counter read accesses: 354408694
GHR counter write accesses: 22470024
ST tag read accesses: 4533214670
ST tag write accesses: 191076470
Channel_0_RQ_row_buffer_hit 2441263
Channel_0_RQ_row_buffer_miss 3317380
Channel_0_WQ_row_buffer_hit 992967
Channel_0_WQ_row_buffer_miss 2243710
Channel_0_WQ_full 4586
Channel_0_dbus_congested 5507347

avg_congested_cycle 8

EzSearch AVG IPC :0.60308: L2-Pf-HR :0.96909 : L2-HR :0.84531 Uful:0.01078
EzSearch AVG IPC :0.60416: L2-Pf-HR :0.97048 : L2-HR :0.84959 Uful:0.01056
EzSearch AVG IPC :0.60294: L2-Pf-HR :0.97362 : L2-HR :0.86053 Uful:0.00998
EzSearch AVG IPC :0.61767: L2-Pf-HR :0.96664 : L2-HR :0.84360 Uful:0.01117
     > Finished combination: TraceType=770-tot Sim:162000000 Prefetcher=L2spp_berti_src L1=no
