TRACE: [21000000]_FE_[Pythia-70M]_[h8]_[s256]_[d64] Warmup: 2000000 NumTraces: 21000000
L1:no:L2:no
*************************************************
   ChampSim Multicore Out-of-Order Simulator
   Last compiled: Oct 29 2024 06:10:15
*************************************************

trace_0 770-tot_memTraces_v3/memTraces[21000000]_FE_[Pythia-70M]_[h8]_[s256]_[d64].champsim.xz
trace_1 770-tot_memTraces_v3/memTraces[21000000]_FE_[Pythia-70M]_[h8]_[s256]_[d64].champsim.xz
trace_2 770-tot_memTraces_v3/memTraces[21000000]_FE_[Pythia-70M]_[h8]_[s256]_[d64].champsim.xz
trace_3 770-tot_memTraces_v3/memTraces[21000000]_FE_[Pythia-70M]_[h8]_[s256]_[d64].champsim.xz
MAIN.cc ln 751 stats print skipped
CPU  1 inst:    1000001 cyc:     499133 now IPC :2.00348: AVG IPC :2.00348: L2-Pf-HR :-nan: L2-HR :0.62847: (Sim:0h0m46s) 
CPU  0 inst:    1000001 cyc:     499339 now IPC :2.00265: AVG IPC :2.00265: L2-Pf-HR :-nan: L2-HR :0.57636: (Sim:0h0m46s) 
CPU  3 inst:    1000001 cyc:     499368 now IPC :2.00253: AVG IPC :2.00253: L2-Pf-HR :-nan: L2-HR :0.56836: (Sim:0h0m46s) 
CPU  2 inst:    1000001 cyc:     499387 now IPC :2.00246: AVG IPC :2.00246: L2-Pf-HR :-nan: L2-HR :0.63431: (Sim:0h0m46s) 
CPU  1 inst:    2000003 cyc:     987192 now IPC :2.04894: AVG IPC :2.02595: L2-Pf-HR :-nan: L2-HR :0.69551: (Sim:0h1m35s) 
CPU  0 inst:    2000003 cyc:     987487 now IPC :2.04856: AVG IPC :2.02535: L2-Pf-HR :-nan: L2-HR :0.64705: (Sim:0h1m35s) 
CPU  2 inst:    2000003 cyc:     987508 now IPC :2.04868: AVG IPC :2.02530: L2-Pf-HR :-nan: L2-HR :0.70612: (Sim:0h1m35s) 
CPU  3 inst:    2000003 cyc:     987555 now IPC :2.04840: AVG IPC :2.02521: L2-Pf-HR :-nan: L2-HR :0.64411: (Sim:0h1m35s) 

Warmup complete CPU  0 instructions:    2000202 cycles:     987555 (Simulation time: 0 hr 1 min 35 sec) 
Warmup complete CPU  1 instructions:    2000819 cycles:     987555 (Simulation time: 0 hr 1 min 35 sec) 
Warmup complete CPU  2 instructions:    2000141 cycles:     987555 (Simulation time: 0 hr 1 min 35 sec) 
Warmup complete CPU  3 instructions:    2000003 cycles:     987555 (Simulation time: 0 hr 1 min 35 sec) 

CPU  1 inst:    3000005 cyc:    1750286 now IPC :1.31046: AVG IPC :1.31001: L2-Pf-HR :-nan: L2-HR :0.77000: (Sim:0h2m24s) 
CPU  2 inst:    3000005 cyc:    1750947 now IPC :1.30986: AVG IPC :1.30976: L2-Pf-HR :-nan: L2-HR :0.78010: (Sim:0h2m24s) 
CPU  0 inst:    3000005 cyc:    1754441 now IPC :1.30386: AVG IPC :1.30372: L2-Pf-HR :-nan: L2-HR :0.73760: (Sim:0h2m24s) 
CPU  3 inst:    3000005 cyc:    1754745 now IPC :1.30346: AVG IPC :1.30346: L2-Pf-HR :-nan: L2-HR :0.74194: (Sim:0h2m24s) 
CPU  1 inst:    4000005 cyc:    2525321 now IPC :1.29026: AVG IPC :1.30006: L2-Pf-HR :-nan: L2-HR :0.77004: (Sim:0h3m12s) 
CPU  0 inst:    4000005 cyc:    2527249 now IPC :1.29398: AVG IPC :1.29883: L2-Pf-HR :-nan: L2-HR :0.73978: (Sim:0h3m12s) 
CPU  3 inst:    4000005 cyc:    2530268 now IPC :1.28945: AVG IPC :1.29642: L2-Pf-HR :-nan: L2-HR :0.73407: (Sim:0h3m13s) 
CPU  2 inst:    4000005 cyc:    2531080 now IPC :1.28183: AVG IPC :1.29565: L2-Pf-HR :-nan: L2-HR :0.78004: (Sim:0h3m13s) 
CPU  0 inst:    5000000 cyc:    3295826 now IPC :1.30110: AVG IPC :1.29959: L2-Pf-HR :-nan: L2-HR :0.73753: (Sim:0h4m1s) 
CPU  1 inst:    5000000 cyc:    3296538 now IPC :1.29665: AVG IPC :1.29892: L2-Pf-HR :-nan: L2-HR :0.77110: (Sim:0h4m1s) 
CPU  3 inst:    5000001 cyc:    3300379 now IPC :1.29851: AVG IPC :1.29711: L2-Pf-HR :-nan: L2-HR :0.73091: (Sim:0h4m1s) 
CPU  2 inst:    5000001 cyc:    3308132 now IPC :1.28691: AVG IPC :1.29272: L2-Pf-HR :-nan: L2-HR :0.77954: (Sim:0h4m2s) 
CPU  1 inst:    6000003 cyc:    4061992 now IPC :1.30642: AVG IPC :1.30079: L2-Pf-HR :-nan: L2-HR :0.77106: (Sim:0h4m49s) 
CPU  0 inst:    6000003 cyc:    4065228 now IPC :1.29971: AVG IPC :1.29962: L2-Pf-HR :-nan: L2-HR :0.73846: (Sim:0h4m50s) 
CPU  3 inst:    6000003 cyc:    4065532 now IPC :1.30693: AVG IPC :1.29955: L2-Pf-HR :-nan: L2-HR :0.73177: (Sim:0h4m50s) 
CPU  2 inst:    6000003 cyc:    4074601 now IPC :1.30469: AVG IPC :1.29569: L2-Pf-HR :-nan: L2-HR :0.77937: (Sim:0h4m50s) 
CPU  1 inst:    7000003 cyc:    4842674 now IPC :1.28093: AVG IPC :1.29677: L2-Pf-HR :-nan: L2-HR :0.77199: (Sim:0h5m37s) 
CPU  3 inst:    7000003 cyc:    4843386 now IPC :1.28559: AVG IPC :1.29674: L2-Pf-HR :-nan: L2-HR :0.73265: (Sim:0h5m37s) 
CPU  0 inst:    7000003 cyc:    4849697 now IPC :1.27475: AVG IPC :1.29457: L2-Pf-HR :-nan: L2-HR :0.73686: (Sim:0h5m38s) 
CPU  2 inst:    7000003 cyc:    4853140 now IPC :1.28446: AVG IPC :1.29343: L2-Pf-HR :-nan: L2-HR :0.77951: (Sim:0h5m38s) 
CPU  1 inst:    8000003 cyc:    5606704 now IPC :1.30885: AVG IPC :1.29876: L2-Pf-HR :-nan: L2-HR :0.77181: (Sim:0h6m6s) 
CPU  3 inst:    8000003 cyc:    5611013 now IPC :1.30272: AVG IPC :1.29773: L2-Pf-HR :-nan: L2-HR :0.73148: (Sim:0h6m7s) 
CPU  0 inst:    8000003 cyc:    5618285 now IPC :1.30109: AVG IPC :1.29565: L2-Pf-HR :-nan: L2-HR :0.73558: (Sim:0h6m7s) 
CPU  2 inst:    8000003 cyc:    5622423 now IPC :1.29991: AVG IPC :1.29451: L2-Pf-HR :-nan: L2-HR :0.77872: (Sim:0h6m7s) 
CPU  3 inst:    9000000 cyc:    6654833 now IPC :0.95802: AVG IPC :1.23516: L2-Pf-HR :-nan: L2-HR :0.80521: (Sim:0h6m55s) 
CPU  0 inst:    9000000 cyc:    6661898 now IPC :0.95821: AVG IPC :1.23359: L2-Pf-HR :-nan: L2-HR :0.81033: (Sim:0h6m55s) 
CPU  2 inst:    9000000 cyc:    6669038 now IPC :0.95546: AVG IPC :1.23205: L2-Pf-HR :-nan: L2-HR :0.82283: (Sim:0h6m55s) 
CPU  1 inst:    9000000 cyc:    6670861 now IPC :0.93971: AVG IPC :1.23153: L2-Pf-HR :-nan: L2-HR :0.78517: (Sim:0h6m55s) 
CPU  0 inst:   10000000 cyc:    9687760 now IPC :0.33048: AVG IPC :0.91950: L2-Pf-HR :-nan: L2-HR :0.79645: (Sim:0h8m18s) 
CPU  3 inst:   10000000 cyc:    9693920 now IPC :0.32905: AVG IPC :0.91887: L2-Pf-HR :-nan: L2-HR :0.78969: (Sim:0h8m19s) 
CPU  2 inst:   10000000 cyc:    9694234 now IPC :0.33056: AVG IPC :0.91882: L2-Pf-HR :-nan: L2-HR :0.80919: (Sim:0h8m19s) 
CPU  1 inst:   10000000 cyc:    9706185 now IPC :0.32945: AVG IPC :0.91748: L2-Pf-HR :-nan: L2-HR :0.77331: (Sim:0h8m19s) 
CPU  0 inst:   11000000 cyc:   12720711 now IPC :0.32971: AVG IPC :0.76704: L2-Pf-HR :-nan: L2-HR :0.78243: (Sim:0h9m43s) 
CPU  2 inst:   11000000 cyc:   12728508 now IPC :0.32957: AVG IPC :0.76654: L2-Pf-HR :-nan: L2-HR :0.79588: (Sim:0h9m43s) 
CPU  3 inst:   11000000 cyc:   12770185 now IPC :0.32507: AVG IPC :0.76384: L2-Pf-HR :-nan: L2-HR :0.76974: (Sim:0h9m44s) 
CPU  1 inst:   11000000 cyc:   12775159 now IPC :0.32584: AVG IPC :0.76344: L2-Pf-HR :-nan: L2-HR :0.75724: (Sim:0h9m44s) 
CPU  2 inst:   12000000 cyc:   15784844 now IPC :0.32719: AVG IPC :0.67579: L2-Pf-HR :-nan: L2-HR :0.78229: (Sim:0h11m11s) 
CPU  0 inst:   12000000 cyc:   15824865 now IPC :0.32215: AVG IPC :0.67396: L2-Pf-HR :-nan: L2-HR :0.76167: (Sim:0h11m12s) 
CPU  3 inst:   12000000 cyc:   15854625 now IPC :0.32421: AVG IPC :0.67263: L2-Pf-HR :-nan: L2-HR :0.75220: (Sim:0h11m13s) 
CPU  1 inst:   12000000 cyc:   15920143 now IPC :0.31797: AVG IPC :0.66962: L2-Pf-HR :-nan: L2-HR :0.73478: (Sim:0h11m15s) 
CPU  2 inst:   13000000 cyc:   18904624 now IPC :0.32054: AVG IPC :0.61393: L2-Pf-HR :-nan: L2-HR :0.76246: (Sim:0h12m40s) 
CPU  0 inst:   13000000 cyc:   18975422 now IPC :0.31740: AVG IPC :0.61151: L2-Pf-HR :-nan: L2-HR :0.73766: (Sim:0h12m41s) 
CPU  3 inst:   13000000 cyc:   18978426 now IPC :0.32012: AVG IPC :0.61142: L2-Pf-HR :-nan: L2-HR :0.73227: (Sim:0h12m41s) 
CPU  1 inst:   13000000 cyc:   19070416 now IPC :0.31743: AVG IPC :0.60827: L2-Pf-HR :-nan: L2-HR :0.71435: (Sim:0h12m42s) 
CPU  2 inst:   14000002 cyc:   19576087 now IPC :1.48929: AVG IPC :0.64555: L2-Pf-HR :-nan: L2-HR :0.75787: (Sim:0h13m6s) 
CPU  0 inst:   14000000 cyc:   19655048 now IPC :1.47140: AVG IPC :0.64282: L2-Pf-HR :-nan: L2-HR :0.73331: (Sim:0h13m10s) 
CPU  3 inst:   14000002 cyc:   19656076 now IPC :1.47569: AVG IPC :0.64279: L2-Pf-HR :-nan: L2-HR :0.72866: (Sim:0h13m10s) 
CPU  1 inst:   14000000 cyc:   19735675 now IPC :1.50317: AVG IPC :0.64002: L2-Pf-HR :-nan: L2-HR :0.71197: (Sim:0h13m14s) 
CPU  2 inst:   15000000 cyc:   20151569 now IPC :1.73767: AVG IPC :0.67835: L2-Pf-HR :-nan: L2-HR :0.75523: (Sim:0h13m35s) 
CPU  0 inst:   15000000 cyc:   20231909 now IPC :1.73352: AVG IPC :0.67551: L2-Pf-HR :-nan: L2-HR :0.73116: (Sim:0h13m39s) 
CPU  3 inst:   15000000 cyc:   20232259 now IPC :1.73556: AVG IPC :0.67551: L2-Pf-HR :-nan: L2-HR :0.73344: (Sim:0h13m39s) 
CPU  1 inst:   15000000 cyc:   20305293 now IPC :1.75556: AVG IPC :0.67291: L2-Pf-HR :-nan: L2-HR :0.71212: (Sim:0h13m43s) 
CPU  2 inst:   16000003 cyc:   20722591 now IPC :1.75125: AVG IPC :0.70939: L2-Pf-HR :-nan: L2-HR :0.75308: (Sim:0h14m21s) 
CPU  0 inst:   16000003 cyc:   20807842 now IPC :1.73632: AVG IPC :0.70634: L2-Pf-HR :-nan: L2-HR :0.73189: (Sim:0h14m29s) 
CPU  3 inst:   16000003 cyc:   20808608 now IPC :1.73506: AVG IPC :0.70632: L2-Pf-HR :-nan: L2-HR :0.74164: (Sim:0h14m29s) 
CPU  1 inst:   16000003 cyc:   20874791 now IPC :1.75594: AVG IPC :0.70393: L2-Pf-HR :-nan: L2-HR :0.71487: (Sim:0h14m35s) 
CPU  2 inst:   17000004 cyc:   21295660 now IPC :1.74499: AVG IPC :0.73861: L2-Pf-HR :-nan: L2-HR :0.75613: (Sim:0h15m15s) 
CPU  0 inst:   17000004 cyc:   21382537 now IPC :1.74006: AVG IPC :0.73547: L2-Pf-HR :-nan: L2-HR :0.73875: (Sim:0h15m24s) 
CPU  3 inst:   17000004 cyc:   21383840 now IPC :1.73843: AVG IPC :0.73543: L2-Pf-HR :-nan: L2-HR :0.74435: (Sim:0h15m24s) 
CPU  1 inst:   17000002 cyc:   21444745 now IPC :1.75453: AVG IPC :0.73320: L2-Pf-HR :-nan: L2-HR :0.71789: (Sim:0h15m30s) 
CPU  2 inst:   18000003 cyc:   21868296 now IPC :1.74631: AVG IPC :0.76625: L2-Pf-HR :-nan: L2-HR :0.75986: (Sim:0h16m0s) 
Finished CPU 2 instr: 16000005 cyc: 20880889 AVG IPC: 0.76625 (Sim time: 0h16m0s)
CPU  0 inst:   18000003 cyc:   21956084 now IPC :1.74353: AVG IPC :0.76304: L2-Pf-HR :-nan: L2-HR :0.74338: (Sim:0h16m5s) 
CPU  3 inst:   18000003 cyc:   21956209 now IPC :1.74712: AVG IPC :0.76304: L2-Pf-HR :-nan: L2-HR :0.74915: (Sim:0h16m5s) 
Finished CPU 3 instr: 16000000 cyc: 20968654 AVG IPC: 0.76304 (Sim time: 0h16m5s)
Finished CPU 0 instr: 16000004 cyc: 20968687 AVG IPC: 0.76304 (Sim time: 0h16m5s)
CPU  1 inst:   18000003 cyc:   22013882 now IPC :1.75705: AVG IPC :0.76091: L2-Pf-HR :-nan: L2-HR :0.72318: (Sim:0h16m8s) 
Finished CPU 1 instr: 16000002 cyc: 21026815 AVG IPC: 0.76093 (Sim time: 0h16m8s)

ChampSim completed all CPUs

Total Simulation Statistics (not including warmup)

CPU 0 cumulative IPC: 0.76580 instructions: 16102253 cycles: 21026815
Core_0_L1D_total_access 5102358
Core_0_L1D_total_hit 4794208
Core_0_L1D_total_miss 308150
Core_0_L1D_loads 4541607
Core_0_L1D_load_hit 4266844
Core_0_L1D_load_miss 274763
Core_0_L1D_RFOs 560751
Core_0_L1D_RFO_hit 527364
Core_0_L1D_RFO_miss 33387
Core_0_L1D_prefetches 0
Core_0_L1D_prefetch_hit 0
Core_0_L1D_prefetch_miss 0
Core_0_L1D_writebacks 0
Core_0_L1D_writeback_hit 0
Core_0_L1D_writeback_miss 0

Core_0_L1I_total_access 2395770
Core_0_L1I_total_hit 2393959
Core_0_L1I_total_miss 1811
Core_0_L1I_loads 2395770
Core_0_L1I_load_hit 2393959
Core_0_L1I_load_miss 1811
Core_0_L1I_RFOs 0
Core_0_L1I_RFO_hit 0
Core_0_L1I_RFO_miss 0
Core_0_L1I_prefetches 0
Core_0_L1I_prefetch_hit 0
Core_0_L1I_prefetch_miss 0
Core_0_L1I_writebacks 0
Core_0_L1I_writeback_hit 0
Core_0_L1I_writeback_miss 0

Core_0_L2C_total_access 421323
Core_0_L2C_total_hit 313298
Core_0_L2C_total_miss 108025
Core_0_L2C_loads 276574
Core_0_L2C_load_hit 201440
Core_0_L2C_load_miss 75134
Core_0_L2C_RFOs 33387
Core_0_L2C_RFO_hit 501
Core_0_L2C_RFO_miss 32886
Core_0_L2C_prefetches 0
Core_0_L2C_prefetch_hit 0
Core_0_L2C_prefetch_miss 0
Core_0_L2C_writebacks 111362
Core_0_L2C_writeback_hit 111357
Core_0_L2C_writeback_miss 5

Core_0_LLC_total_access 145074
Core_0_LLC_total_hit 62707
Core_0_LLC_total_miss 82367
Core_0_LLC_loads 75134
Core_0_LLC_load_hit 25572
Core_0_LLC_load_miss 49562
Core_0_LLC_RFOs 32886
Core_0_LLC_RFO_hit 90
Core_0_LLC_RFO_miss 32796
Core_0_LLC_prefetches 0
Core_0_LLC_prefetch_hit 0
Core_0_LLC_prefetch_miss 0
Core_0_LLC_writebacks 37054
Core_0_LLC_writeback_hit 37045
Core_0_LLC_writeback_miss 9


CPU 1 cumulative IPC: 0.76093 instructions: 16000002 cycles: 21026815
Core_1_L1D_total_access 5070356
Core_1_L1D_total_hit 4754224
Core_1_L1D_total_miss 316132
Core_1_L1D_loads 4509161
Core_1_L1D_load_hit 4226158
Core_1_L1D_load_miss 283003
Core_1_L1D_RFOs 561195
Core_1_L1D_RFO_hit 528066
Core_1_L1D_RFO_miss 33129
Core_1_L1D_prefetches 0
Core_1_L1D_prefetch_hit 0
Core_1_L1D_prefetch_miss 0
Core_1_L1D_writebacks 0
Core_1_L1D_writeback_hit 0
Core_1_L1D_writeback_miss 0

Core_1_L1I_total_access 2366595
Core_1_L1I_total_hit 2364724
Core_1_L1I_total_miss 1871
Core_1_L1I_loads 2366595
Core_1_L1I_load_hit 2364724
Core_1_L1I_load_miss 1871
Core_1_L1I_RFOs 0
Core_1_L1I_RFO_hit 0
Core_1_L1I_RFO_miss 0
Core_1_L1I_prefetches 0
Core_1_L1I_prefetch_hit 0
Core_1_L1I_prefetch_miss 0
Core_1_L1I_writebacks 0
Core_1_L1I_writeback_hit 0
Core_1_L1I_writeback_miss 0

Core_1_L2C_total_access 428594
Core_1_L2C_total_hit 309949
Core_1_L2C_total_miss 118645
Core_1_L2C_loads 284874
Core_1_L2C_load_hit 199068
Core_1_L2C_load_miss 85806
Core_1_L2C_RFOs 33129
Core_1_L2C_RFO_hit 294
Core_1_L2C_RFO_miss 32835
Core_1_L2C_prefetches 0
Core_1_L2C_prefetch_hit 0
Core_1_L2C_prefetch_miss 0
Core_1_L2C_writebacks 110591
Core_1_L2C_writeback_hit 110587
Core_1_L2C_writeback_miss 4

Core_1_LLC_total_access 165677
Core_1_LLC_total_hit 83506
Core_1_LLC_total_miss 82171
Core_1_LLC_loads 85809
Core_1_LLC_load_hit 36435
Core_1_LLC_load_miss 49374
Core_1_LLC_RFOs 32835
Core_1_LLC_RFO_hit 39
Core_1_LLC_RFO_miss 32796
Core_1_LLC_prefetches 0
Core_1_LLC_prefetch_hit 0
Core_1_LLC_prefetch_miss 0
Core_1_LLC_writebacks 47033
Core_1_LLC_writeback_hit 47032
Core_1_LLC_writeback_miss 1


CPU 2 cumulative IPC: 0.77289 instructions: 16251387 cycles: 21026815
Core_2_L1D_total_access 5157689
Core_2_L1D_total_hit 4829092
Core_2_L1D_total_miss 328597
Core_2_L1D_loads 4595596
Core_2_L1D_load_hit 4300423
Core_2_L1D_load_miss 295173
Core_2_L1D_RFOs 562093
Core_2_L1D_RFO_hit 528669
Core_2_L1D_RFO_miss 33424
Core_2_L1D_prefetches 0
Core_2_L1D_prefetch_hit 0
Core_2_L1D_prefetch_miss 0
Core_2_L1D_writebacks 0
Core_2_L1D_writeback_hit 0
Core_2_L1D_writeback_miss 0

Core_2_L1I_total_access 2397856
Core_2_L1I_total_hit 2395993
Core_2_L1I_total_miss 1863
Core_2_L1I_loads 2397856
Core_2_L1I_load_hit 2395993
Core_2_L1I_load_miss 1863
Core_2_L1I_RFOs 0
Core_2_L1I_RFO_hit 0
Core_2_L1I_RFO_miss 0
Core_2_L1I_prefetches 0
Core_2_L1I_prefetch_hit 0
Core_2_L1I_prefetch_miss 0
Core_2_L1I_writebacks 0
Core_2_L1I_writeback_hit 0
Core_2_L1I_writeback_miss 0

Core_2_L2C_total_access 441843
Core_2_L2C_total_hit 335537
Core_2_L2C_total_miss 106306
Core_2_L2C_loads 297036
Core_2_L2C_load_hit 223628
Core_2_L2C_load_miss 73408
Core_2_L2C_RFOs 33424
Core_2_L2C_RFO_hit 526
Core_2_L2C_RFO_miss 32898
Core_2_L2C_prefetches 0
Core_2_L2C_prefetch_hit 0
Core_2_L2C_prefetch_miss 0
Core_2_L2C_writebacks 111383
Core_2_L2C_writeback_hit 111383
Core_2_L2C_writeback_miss 0

Core_2_LLC_total_access 139100
Core_2_LLC_total_hit 56334
Core_2_LLC_total_miss 82766
Core_2_LLC_loads 73408
Core_2_LLC_load_hit 23438
Core_2_LLC_load_miss 49970
Core_2_LLC_RFOs 32898
Core_2_LLC_RFO_hit 102
Core_2_LLC_RFO_miss 32796
Core_2_LLC_prefetches 0
Core_2_LLC_prefetch_hit 0
Core_2_LLC_prefetch_miss 0
Core_2_LLC_writebacks 32794
Core_2_LLC_writeback_hit 32794
Core_2_LLC_writeback_miss 0


CPU 3 cumulative IPC: 0.76580 instructions: 16102374 cycles: 21026815
Core_3_L1D_total_access 5110763
Core_3_L1D_total_hit 4814454
Core_3_L1D_total_miss 296309
Core_3_L1D_loads 4549407
Core_3_L1D_load_hit 4286242
Core_3_L1D_load_miss 263165
Core_3_L1D_RFOs 561356
Core_3_L1D_RFO_hit 528212
Core_3_L1D_RFO_miss 33144
Core_3_L1D_prefetches 0
Core_3_L1D_prefetch_hit 0
Core_3_L1D_prefetch_miss 0
Core_3_L1D_writebacks 0
Core_3_L1D_writeback_hit 0
Core_3_L1D_writeback_miss 0

Core_3_L1I_total_access 2394846
Core_3_L1I_total_hit 2392995
Core_3_L1I_total_miss 1851
Core_3_L1I_loads 2394846
Core_3_L1I_load_hit 2392995
Core_3_L1I_load_miss 1851
Core_3_L1I_RFOs 0
Core_3_L1I_RFO_hit 0
Core_3_L1I_RFO_miss 0
Core_3_L1I_prefetches 0
Core_3_L1I_prefetch_hit 0
Core_3_L1I_prefetch_miss 0
Core_3_L1I_writebacks 0
Core_3_L1I_writeback_hit 0
Core_3_L1I_writeback_miss 0

Core_3_L2C_total_access 409088
Core_3_L2C_total_hit 306605
Core_3_L2C_total_miss 102483
Core_3_L2C_loads 265016
Core_3_L2C_load_hit 195401
Core_3_L2C_load_miss 69615
Core_3_L2C_RFOs 33144
Core_3_L2C_RFO_hit 276
Core_3_L2C_RFO_miss 32868
Core_3_L2C_prefetches 0
Core_3_L2C_prefetch_hit 0
Core_3_L2C_prefetch_miss 0
Core_3_L2C_writebacks 110928
Core_3_L2C_writeback_hit 110928
Core_3_L2C_writeback_miss 0

Core_3_LLC_total_access 132799
Core_3_LLC_total_hit 50428
Core_3_LLC_total_miss 82371
Core_3_LLC_loads 69615
Core_3_LLC_load_hit 20045
Core_3_LLC_load_miss 49570
Core_3_LLC_RFOs 32868
Core_3_LLC_RFO_hit 72
Core_3_LLC_RFO_miss 32796
Core_3_LLC_prefetches 0
Core_3_LLC_prefetch_hit 0
Core_3_LLC_prefetch_miss 0
Core_3_LLC_writebacks 30316
Core_3_LLC_writeback_hit 30311
Core_3_LLC_writeback_miss 5


[ROI Statistics]
Core_0_instructions 16000004
Core_0_cycles 20968687
Core_0_IPC 0.76304

Core_0_branch_prediction_accuracy 98.24704
Core_0_branch_MPKI 0.62748
Core_0_average_ROB_occupancy_at_mispredict 315.80186

Core_0_L1D_total_access 5066522
Core_0_L1D_total_hit 4760391 L1D_total_Hit Ratio: 0.93958
Core_0_L1D_total_miss 306131
Core_0_L1D_loads 4505990
Core_0_L1D_load_hit 4233246 L1D_load_Hit Ratio: 0.93947
Core_0_L1D_load_miss 272744
Core_0_L1D_RFOs 560532
Core_0_L1D_RFO_hit 527145 L1D_RFO_Hit Ratio: 0.94044
Core_0_L1D_RFO_miss 33387
Core_0_L1D_prefetches 0
Core_0_L1D_prefetch_hit 0 L1D_prefetch_Hit Ratio: -nan
Core_0_L1D_prefetch_miss 0
Core_0_L1D_writebacks 0
Core_0_L1D_writeback_hit 0 L1D_writeback_Hit Ratio: -nan
Core_0_L1D_writeback_miss 0
Core_0_L1D_prefetch_requested 0
Core_0_L1D_prefetch_issued 0
Core_0_L1D_prefetch_useful 0 L1D_Useful Ratio: -nan
Core_0_L1D_prefetch_useless 0
Core_0_L1D_prefetch_late 0
Core_0_L1D_average_miss_latency 87.36144

Core_0_L1I_total_access 2385423
Core_0_L1I_total_hit 2383612 L1I_total_Hit Ratio: 0.99924
Core_0_L1I_total_miss 1811
Core_0_L1I_loads 2385423
Core_0_L1I_load_hit 2383612 L1I_load_Hit Ratio: 0.99924
Core_0_L1I_load_miss 1811
Core_0_L1I_RFOs 0
Core_0_L1I_RFO_hit 0 L1I_RFO_Hit Ratio: -nan
Core_0_L1I_RFO_miss 0
Core_0_L1I_prefetches 0
Core_0_L1I_prefetch_hit 0 L1I_prefetch_Hit Ratio: -nan
Core_0_L1I_prefetch_miss 0
Core_0_L1I_writebacks 0
Core_0_L1I_writeback_hit 0 L1I_writeback_Hit Ratio: -nan
Core_0_L1I_writeback_miss 0
Core_0_L1I_prefetch_requested 0
Core_0_L1I_prefetch_issued 0
Core_0_L1I_prefetch_useful 0 L1I_Useful Ratio: -nan
Core_0_L1I_prefetch_useless 0
Core_0_L1I_prefetch_late 0
Core_0_L1I_average_miss_latency 217.88018

Core_0_L2C_total_access 419257
Core_0_L2C_total_hit 311662 L2C_total_Hit Ratio: 0.74337
Core_0_L2C_total_miss 107595
Core_0_L2C_loads 274555
Core_0_L2C_load_hit 199851 L2C_load_Hit Ratio: 0.72791
Core_0_L2C_load_miss 74704
Core_0_L2C_RFOs 33387
Core_0_L2C_RFO_hit 501 L2C_RFO_Hit Ratio: 0.01501
Core_0_L2C_RFO_miss 32886
Core_0_L2C_prefetches 0
Core_0_L2C_prefetch_hit 0 L2C_prefetch_Hit Ratio: -nan
Core_0_L2C_prefetch_miss 0
Core_0_L2C_writebacks 111315
Core_0_L2C_writeback_hit 111310 L2C_writeback_Hit Ratio: 0.99996
Core_0_L2C_writeback_miss 5
Core_0_L2C_prefetch_requested 0
Core_0_L2C_prefetch_issued 0
Core_0_L2C_prefetch_useful 0 L2C_Useful Ratio: -nan
Core_0_L2C_prefetch_useless 0
Core_0_L2C_prefetch_late 0
Core_0_L2C_average_miss_latency 196.76332

Core_0_LLC_total_access 144500
Core_0_LLC_total_hit 62321 LLC_total_Hit Ratio: 0.43129
Core_0_LLC_total_miss 82179
Core_0_LLC_loads 74704
Core_0_LLC_load_hit 25330 LLC_load_Hit Ratio: 0.33907
Core_0_LLC_load_miss 49374
Core_0_LLC_RFOs 32886
Core_0_LLC_RFO_hit 90 LLC_RFO_Hit Ratio: 0.00274
Core_0_LLC_RFO_miss 32796
Core_0_LLC_prefetches 0
Core_0_LLC_prefetch_hit 0 LLC_prefetch_Hit Ratio: -nan
Core_0_LLC_prefetch_miss 0
Core_0_LLC_writebacks 36910
Core_0_LLC_writeback_hit 36901 LLC_writeback_Hit Ratio: 0.99976
Core_0_LLC_writeback_miss 9
Core_0_LLC_prefetch_requested 0
Core_0_LLC_prefetch_issued 0
Core_0_LLC_prefetch_useful 0 LLC_Useful Ratio: -nan
Core_0_LLC_prefetch_useless 0
Core_0_LLC_prefetch_late 0
Core_0_LLC_average_miss_latency 810.64428

Core_0_major_page_fault 0
Core_0_minor_page_fault 2391

Core_1_instructions 16000002
Core_1_cycles 21026815
Core_1_IPC 0.76093

Core_1_branch_prediction_accuracy 98.24555
Core_1_branch_MPKI 0.63128
Core_1_average_ROB_occupancy_at_mispredict 315.81071

Core_1_L1D_total_access 5070356
Core_1_L1D_total_hit 4754224 L1D_total_Hit Ratio: 0.93765
Core_1_L1D_total_miss 316132
Core_1_L1D_loads 4509161
Core_1_L1D_load_hit 4226158 L1D_load_Hit Ratio: 0.93724
Core_1_L1D_load_miss 283003
Core_1_L1D_RFOs 561195
Core_1_L1D_RFO_hit 528066 L1D_RFO_Hit Ratio: 0.94097
Core_1_L1D_RFO_miss 33129
Core_1_L1D_prefetches 0
Core_1_L1D_prefetch_hit 0 L1D_prefetch_Hit Ratio: -nan
Core_1_L1D_prefetch_miss 0
Core_1_L1D_writebacks 0
Core_1_L1D_writeback_hit 0 L1D_writeback_Hit Ratio: -nan
Core_1_L1D_writeback_miss 0
Core_1_L1D_prefetch_requested 0
Core_1_L1D_prefetch_issued 0
Core_1_L1D_prefetch_useful 0 L1D_Useful Ratio: -nan
Core_1_L1D_prefetch_useless 0
Core_1_L1D_prefetch_late 0
Core_1_L1D_average_miss_latency 84.84342

Core_1_L1I_total_access 2366595
Core_1_L1I_total_hit 2364724 L1I_total_Hit Ratio: 0.99921
Core_1_L1I_total_miss 1871
Core_1_L1I_loads 2366595
Core_1_L1I_load_hit 2364724 L1I_load_Hit Ratio: 0.99921
Core_1_L1I_load_miss 1871
Core_1_L1I_RFOs 0
Core_1_L1I_RFO_hit 0 L1I_RFO_Hit Ratio: -nan
Core_1_L1I_RFO_miss 0
Core_1_L1I_prefetches 0
Core_1_L1I_prefetch_hit 0 L1I_prefetch_Hit Ratio: -nan
Core_1_L1I_prefetch_miss 0
Core_1_L1I_writebacks 0
Core_1_L1I_writeback_hit 0 L1I_writeback_Hit Ratio: -nan
Core_1_L1I_writeback_miss 0
Core_1_L1I_prefetch_requested 0
Core_1_L1I_prefetch_issued 0
Core_1_L1I_prefetch_useful 0 L1I_Useful Ratio: -nan
Core_1_L1I_prefetch_useless 0
Core_1_L1I_prefetch_late 0
Core_1_L1I_average_miss_latency 211.59059

Core_1_L2C_total_access 428594
Core_1_L2C_total_hit 309949 L2C_total_Hit Ratio: 0.72318
Core_1_L2C_total_miss 118645
Core_1_L2C_loads 284874
Core_1_L2C_load_hit 199068 L2C_load_Hit Ratio: 0.69879
Core_1_L2C_load_miss 85806
Core_1_L2C_RFOs 33129
Core_1_L2C_RFO_hit 294 L2C_RFO_Hit Ratio: 0.00887
Core_1_L2C_RFO_miss 32835
Core_1_L2C_prefetches 0
Core_1_L2C_prefetch_hit 0 L2C_prefetch_Hit Ratio: -nan
Core_1_L2C_prefetch_miss 0
Core_1_L2C_writebacks 110591
Core_1_L2C_writeback_hit 110587 L2C_writeback_Hit Ratio: 0.99996
Core_1_L2C_writeback_miss 4
Core_1_L2C_prefetch_requested 0
Core_1_L2C_prefetch_issued 0
Core_1_L2C_prefetch_useful 0 L2C_Useful Ratio: -nan
Core_1_L2C_prefetch_useless 0
Core_1_L2C_prefetch_late 0
Core_1_L2C_average_miss_latency 177.75388

Core_1_LLC_total_access 165677
Core_1_LLC_total_hit 83506 LLC_total_Hit Ratio: 0.50403
Core_1_LLC_total_miss 82171
Core_1_LLC_loads 85809
Core_1_LLC_load_hit 36435 LLC_load_Hit Ratio: 0.42461
Core_1_LLC_load_miss 49374
Core_1_LLC_RFOs 32835
Core_1_LLC_RFO_hit 39 LLC_RFO_Hit Ratio: 0.00119
Core_1_LLC_RFO_miss 32796
Core_1_LLC_prefetches 0
Core_1_LLC_prefetch_hit 0 LLC_prefetch_Hit Ratio: -nan
Core_1_LLC_prefetch_miss 0
Core_1_LLC_writebacks 47033
Core_1_LLC_writeback_hit 47032 LLC_writeback_Hit Ratio: 0.99998
Core_1_LLC_writeback_miss 1
Core_1_LLC_prefetch_requested 0
Core_1_LLC_prefetch_issued 0
Core_1_LLC_prefetch_useful 0 LLC_Useful Ratio: -nan
Core_1_LLC_prefetch_useless 0
Core_1_LLC_prefetch_late 0
Core_1_LLC_average_miss_latency 810.72320

Core_1_major_page_fault 0
Core_1_minor_page_fault 2382

Core_2_instructions 16000005
Core_2_cycles 20880889
Core_2_IPC 0.76625

Core_2_branch_prediction_accuracy 98.24873
Core_2_branch_MPKI 0.62228
Core_2_average_ROB_occupancy_at_mispredict 316.00376

Core_2_L1D_total_access 5070218
Core_2_L1D_total_hit 4746612 L1D_total_Hit Ratio: 0.93618
Core_2_L1D_total_miss 323606
Core_2_L1D_loads 4508814
Core_2_L1D_load_hit 4218614 L1D_load_Hit Ratio: 0.93564
Core_2_L1D_load_miss 290200
Core_2_L1D_RFOs 561404
Core_2_L1D_RFO_hit 527998 L1D_RFO_Hit Ratio: 0.94050
Core_2_L1D_RFO_miss 33406
Core_2_L1D_prefetches 0
Core_2_L1D_prefetch_hit 0 L1D_prefetch_Hit Ratio: -nan
Core_2_L1D_prefetch_miss 0
Core_2_L1D_writebacks 0
Core_2_L1D_writeback_hit 0 L1D_writeback_Hit Ratio: -nan
Core_2_L1D_writeback_miss 0
Core_2_L1D_prefetch_requested 0
Core_2_L1D_prefetch_issued 0
Core_2_L1D_prefetch_useful 0 L1D_Useful Ratio: -nan
Core_2_L1D_prefetch_useless 0
Core_2_L1D_prefetch_late 0
Core_2_L1D_average_miss_latency 82.79237

Core_2_L1I_total_access 2372477
Core_2_L1I_total_hit 2370614 L1I_total_Hit Ratio: 0.99921
Core_2_L1I_total_miss 1863
Core_2_L1I_loads 2372477
Core_2_L1I_load_hit 2370614 L1I_load_Hit Ratio: 0.99921
Core_2_L1I_load_miss 1863
Core_2_L1I_RFOs 0
Core_2_L1I_RFO_hit 0 L1I_RFO_Hit Ratio: -nan
Core_2_L1I_RFO_miss 0
Core_2_L1I_prefetches 0
Core_2_L1I_prefetch_hit 0 L1I_prefetch_Hit Ratio: -nan
Core_2_L1I_prefetch_miss 0
Core_2_L1I_writebacks 0
Core_2_L1I_writeback_hit 0 L1I_writeback_Hit Ratio: -nan
Core_2_L1I_writeback_miss 0
Core_2_L1I_prefetch_requested 0
Core_2_L1I_prefetch_issued 0
Core_2_L1I_prefetch_useful 0 L1I_Useful Ratio: -nan
Core_2_L1I_prefetch_useless 0
Core_2_L1I_prefetch_late 0
Core_2_L1I_average_miss_latency 209.58615

Core_2_L2C_total_access 436713
Core_2_L2C_total_hit 331837 L2C_total_Hit Ratio: 0.75985
Core_2_L2C_total_miss 104876
Core_2_L2C_loads 292063
Core_2_L2C_load_hit 220085 L2C_load_Hit Ratio: 0.75355
Core_2_L2C_load_miss 71978
Core_2_L2C_RFOs 33406
Core_2_L2C_RFO_hit 508 L2C_RFO_Hit Ratio: 0.01521
Core_2_L2C_RFO_miss 32898
Core_2_L2C_prefetches 0
Core_2_L2C_prefetch_hit 0 L2C_prefetch_Hit Ratio: -nan
Core_2_L2C_prefetch_miss 0
Core_2_L2C_writebacks 111244
Core_2_L2C_writeback_hit 111244 L2C_writeback_Hit Ratio: 1.00000
Core_2_L2C_writeback_miss 0
Core_2_L2C_prefetch_requested 0
Core_2_L2C_prefetch_issued 0
Core_2_L2C_prefetch_useful 0 L2C_Useful Ratio: -nan
Core_2_L2C_prefetch_useless 0
Core_2_L2C_prefetch_late 0
Core_2_L2C_average_miss_latency 198.49635

Core_2_LLC_total_access 137208
Core_2_LLC_total_hit 55038 LLC_total_Hit Ratio: 0.40113
Core_2_LLC_total_miss 82170
Core_2_LLC_loads 71978
Core_2_LLC_load_hit 22604 LLC_load_Hit Ratio: 0.31404
Core_2_LLC_load_miss 49374
Core_2_LLC_RFOs 32898
Core_2_LLC_RFO_hit 102 LLC_RFO_Hit Ratio: 0.00310
Core_2_LLC_RFO_miss 32796
Core_2_LLC_prefetches 0
Core_2_LLC_prefetch_hit 0 LLC_prefetch_Hit Ratio: -nan
Core_2_LLC_prefetch_miss 0
Core_2_LLC_writebacks 32332
Core_2_LLC_writeback_hit 32332 LLC_writeback_Hit Ratio: 1.00000
Core_2_LLC_writeback_miss 0
Core_2_LLC_prefetch_requested 0
Core_2_LLC_prefetch_issued 0
Core_2_LLC_prefetch_useful 0 LLC_Useful Ratio: -nan
Core_2_LLC_prefetch_useless 0
Core_2_LLC_prefetch_late 0
Core_2_LLC_average_miss_latency 810.73307

Core_2_major_page_fault 0
Core_2_minor_page_fault 2391

Core_3_instructions 16000000
Core_3_cycles 20968654
Core_3_IPC 0.76304

Core_3_branch_prediction_accuracy 98.24704
Core_3_branch_MPKI 0.62748
Core_3_average_ROB_occupancy_at_mispredict 315.92538

Core_3_L1D_total_access 5074924
Core_3_L1D_total_hit 4780628 L1D_total_Hit Ratio: 0.94201
Core_3_L1D_total_miss 294296
Core_3_L1D_loads 4513787
Core_3_L1D_load_hit 4252635 L1D_load_Hit Ratio: 0.94214
Core_3_L1D_load_miss 261152
Core_3_L1D_RFOs 561137
Core_3_L1D_RFO_hit 527993 L1D_RFO_Hit Ratio: 0.94093
Core_3_L1D_RFO_miss 33144
Core_3_L1D_prefetches 0
Core_3_L1D_prefetch_hit 0 L1D_prefetch_Hit Ratio: -nan
Core_3_L1D_prefetch_miss 0
Core_3_L1D_writebacks 0
Core_3_L1D_writeback_hit 0 L1D_writeback_Hit Ratio: -nan
Core_3_L1D_writeback_miss 0
Core_3_L1D_prefetch_requested 0
Core_3_L1D_prefetch_issued 0
Core_3_L1D_prefetch_useful 0 L1D_Useful Ratio: -nan
Core_3_L1D_prefetch_useless 0
Core_3_L1D_prefetch_late 0
Core_3_L1D_average_miss_latency 89.52209

Core_3_L1I_total_access 2384486
Core_3_L1I_total_hit 2382635 L1I_total_Hit Ratio: 0.99922
Core_3_L1I_total_miss 1851
Core_3_L1I_loads 2384486
Core_3_L1I_load_hit 2382635 L1I_load_Hit Ratio: 0.99922
Core_3_L1I_load_miss 1851
Core_3_L1I_RFOs 0
Core_3_L1I_RFO_hit 0 L1I_RFO_Hit Ratio: -nan
Core_3_L1I_RFO_miss 0
Core_3_L1I_prefetches 0
Core_3_L1I_prefetch_hit 0 L1I_prefetch_Hit Ratio: -nan
Core_3_L1I_prefetch_miss 0
Core_3_L1I_writebacks 0
Core_3_L1I_writeback_hit 0 L1I_writeback_Hit Ratio: -nan
Core_3_L1I_writeback_miss 0
Core_3_L1I_prefetch_requested 0
Core_3_L1I_prefetch_issued 0
Core_3_L1I_prefetch_useful 0 L1I_Useful Ratio: -nan
Core_3_L1I_prefetch_useless 0
Core_3_L1I_prefetch_late 0
Core_3_L1I_average_miss_latency 216.24257

Core_3_L2C_total_access 407000
Core_3_L2C_total_hit 304906 L2C_total_Hit Ratio: 0.74915
Core_3_L2C_total_miss 102094
Core_3_L2C_loads 263003
Core_3_L2C_load_hit 193777 L2C_load_Hit Ratio: 0.73679
Core_3_L2C_load_miss 69226
Core_3_L2C_RFOs 33144
Core_3_L2C_RFO_hit 276 L2C_RFO_Hit Ratio: 0.00833
Core_3_L2C_RFO_miss 32868
Core_3_L2C_prefetches 0
Core_3_L2C_prefetch_hit 0 L2C_prefetch_Hit Ratio: -nan
Core_3_L2C_prefetch_miss 0
Core_3_L2C_writebacks 110853
Core_3_L2C_writeback_hit 110853 L2C_writeback_Hit Ratio: 1.00000
Core_3_L2C_writeback_miss 0
Core_3_L2C_prefetch_requested 0
Core_3_L2C_prefetch_issued 0
Core_3_L2C_prefetch_useful 0 L2C_Useful Ratio: -nan
Core_3_L2C_prefetch_useless 0
Core_3_L2C_prefetch_late 0
Core_3_L2C_average_miss_latency 205.72538

Core_3_LLC_total_access 132246
Core_3_LLC_total_hit 50063 LLC_total_Hit Ratio: 0.37856
Core_3_LLC_total_miss 82183
Core_3_LLC_loads 69226
Core_3_LLC_load_hit 19844 LLC_load_Hit Ratio: 0.28666
Core_3_LLC_load_miss 49382
Core_3_LLC_RFOs 32868
Core_3_LLC_RFO_hit 72 LLC_RFO_Hit Ratio: 0.00219
Core_3_LLC_RFO_miss 32796
Core_3_LLC_prefetches 0
Core_3_LLC_prefetch_hit 0 LLC_prefetch_Hit Ratio: -nan
Core_3_LLC_prefetch_miss 0
Core_3_LLC_writebacks 30152
Core_3_LLC_writeback_hit 30147 LLC_writeback_Hit Ratio: 0.99983
Core_3_LLC_writeback_miss 5
Core_3_LLC_prefetch_requested 0
Core_3_LLC_prefetch_issued 0
Core_3_LLC_prefetch_useful 0 LLC_Useful Ratio: -nan
Core_3_LLC_prefetch_useless 0
Core_3_LLC_prefetch_late 0
Core_3_LLC_average_miss_latency 810.60482

Core_3_major_page_fault 0
Core_3_minor_page_fault 2391

Channel_0_RQ_row_buffer_hit 289864
Channel_0_RQ_row_buffer_miss 39796
Channel_0_WQ_row_buffer_hit 65
Channel_0_WQ_row_buffer_miss 215
Channel_0_WQ_full 0
Channel_0_dbus_congested 49446

avg_congested_cycle 7

EzSearch AVG IPC :0.76304: L2-Pf-HR :-nan : L2-HR :0.74361 Uful:-nan
EzSearch AVG IPC :0.76093: L2-Pf-HR :-nan : L2-HR :0.72318 Uful:-nan
EzSearch AVG IPC :0.76625: L2-Pf-HR :-nan : L2-HR :0.75940 Uful:-nan
EzSearch AVG IPC :0.76304: L2-Pf-HR :-nan : L2-HR :0.74948 Uful:-nan
     > Finished combination: TraceType=770-tot Sim:16000000 Prefetcher=L2no L1=no
