TRACE: [21000000]_FE_[Pythia-70M]_[h8]_[s256]_[d64] Warmup: 2000000 NumTraces: 21000000
L1:next_line:L2:029-SecTOP-L2-MultiMarkovDelta_ip_stride_v4-IPStrS256
*************************************************
   ChampSim Multicore Out-of-Order Simulator
   Last compiled: Oct 29 2024 05:46:08
*************************************************

trace_0 770-tot_memTraces_v3/memTraces[21000000]_FE_[Pythia-70M]_[h8]_[s256]_[d64].champsim.xz
trace_1 770-tot_memTraces_v3/memTraces[21000000]_FE_[Pythia-70M]_[h8]_[s256]_[d64].champsim.xz
trace_2 770-tot_memTraces_v3/memTraces[21000000]_FE_[Pythia-70M]_[h8]_[s256]_[d64].champsim.xz
trace_3 770-tot_memTraces_v3/memTraces[21000000]_FE_[Pythia-70M]_[h8]_[s256]_[d64].champsim.xz
CPU 0 L1D next line prefetcher
MK1: Size: 128 TMAX: 64 TMIN: 32 MKPTHRESH: 40
MK2: Size: 256 TMAX: 32 TMIN: 16 MK2PTHRESH: 30
MK3: Size: 384 TMAX: 16 TMIN: 8 MK3PTHRESH: 25
MK4: Size: 512 TMAX: 8 TMIN: 0 MK4PTHRESH: 20
Stride Size: 256 Prefetch Degree: 15

CPU 0 L2C prefetcher
CPU 1 L1D next line prefetcher
MK1: Size: 128 TMAX: 64 TMIN: 32 MKPTHRESH: 40
MK2: Size: 256 TMAX: 32 TMIN: 16 MK2PTHRESH: 30
MK3: Size: 384 TMAX: 16 TMIN: 8 MK3PTHRESH: 25
MK4: Size: 512 TMAX: 8 TMIN: 0 MK4PTHRESH: 20
Stride Size: 256 Prefetch Degree: 15

CPU 1 L2C prefetcher
CPU 2 L1D next line prefetcher
MK1: Size: 128 TMAX: 64 TMIN: 32 MKPTHRESH: 40
MK2: Size: 256 TMAX: 32 TMIN: 16 MK2PTHRESH: 30
MK3: Size: 384 TMAX: 16 TMIN: 8 MK3PTHRESH: 25
MK4: Size: 512 TMAX: 8 TMIN: 0 MK4PTHRESH: 20
Stride Size: 256 Prefetch Degree: 15

CPU 2 L2C prefetcher
CPU 3 L1D next line prefetcher
MK1: Size: 128 TMAX: 64 TMIN: 32 MKPTHRESH: 40
MK2: Size: 256 TMAX: 32 TMIN: 16 MK2PTHRESH: 30
MK3: Size: 384 TMAX: 16 TMIN: 8 MK3PTHRESH: 25
MK4: Size: 512 TMAX: 8 TMIN: 0 MK4PTHRESH: 20
Stride Size: 256 Prefetch Degree: 15

CPU 3 L2C prefetcher
MAIN.cc ln 751 stats print skipped
CPU 0 L2C prefetcher initialized


Cache Size: 4096
number of cache lines: 65536
CPU  0 inst:    1000001 cyc:     501402 now IPC :1.99441: AVG IPC :1.99441: L2-Pf-HR :0.86607: L2-HR :0.84098: (Sim:0h0m47s) 
CPU  1 inst:    1000001 cyc:     501569 now IPC :1.99375: AVG IPC :1.99375: L2-Pf-HR :0.88353: L2-HR :0.85953: (Sim:0h0m47s) 
CPU  3 inst:    1000001 cyc:     501711 now IPC :1.99318: AVG IPC :1.99318: L2-Pf-HR :0.78612: L2-HR :0.77062: (Sim:0h0m47s) 
CPU  2 inst:    1000001 cyc:     501855 now IPC :1.99261: AVG IPC :1.99261: L2-Pf-HR :0.72174: L2-HR :0.70728: (Sim:0h0m47s) 
CPU  0 inst:    2000003 cyc:     989161 now IPC :2.05020: AVG IPC :2.02192: L2-Pf-HR :0.90412: L2-HR :0.89001: (Sim:0h1m36s) 
CPU  1 inst:    2000003 cyc:     989337 now IPC :2.05016: AVG IPC :2.02156: L2-Pf-HR :0.91232: L2-HR :0.89856: (Sim:0h1m36s) 
CPU  3 inst:    2000003 cyc:     989502 now IPC :2.05006: AVG IPC :2.02122: L2-Pf-HR :0.84871: L2-HR :0.84069: (Sim:0h1m36s) 
CPU  2 inst:    2000003 cyc:     989581 now IPC :2.05034: AVG IPC :2.02106: L2-Pf-HR :0.79852: L2-HR :0.79193: (Sim:0h1m36s) 

Warmup complete CPU  0 instructions:    2000915 cycles:     989581 (Simulation time: 0 hr 1 min 36 sec) 
Warmup complete CPU  1 instructions:    2000471 cycles:     989581 (Simulation time: 0 hr 1 min 36 sec) 
Warmup complete CPU  2 instructions:    2000003 cycles:     989581 (Simulation time: 0 hr 1 min 36 sec) 
Warmup complete CPU  3 instructions:    2000236 cycles:     989580 (Simulation time: 0 hr 1 min 36 sec) 

CPU  2 inst:    3000000 cyc:    1543984 now IPC :1.80374: AVG IPC :1.80374: L2-Pf-HR :0.85949: L2-HR :0.86803: (Sim:0h2m20s) 
CPU  0 inst:    3000003 cyc:    1545189 now IPC :1.79847: AVG IPC :1.79819: L2-Pf-HR :0.91903: L2-HR :0.91608: (Sim:0h2m20s) 
CPU  3 inst:    3000000 cyc:    1546416 now IPC :1.79560: AVG IPC :1.79544: L2-Pf-HR :0.88619: L2-HR :0.88753: (Sim:0h2m20s) 
CPU  1 inst:    3000000 cyc:    1546824 now IPC :1.79376: AVG IPC :1.79370: L2-Pf-HR :0.91669: L2-HR :0.91427: (Sim:0h2m20s) 
CPU  2 inst:    4000005 cyc:    2095213 now IPC :1.81414: AVG IPC :1.80892: L2-Pf-HR :0.87337: L2-HR :0.87956: (Sim:0h2m56s) 
CPU  3 inst:    4000001 cyc:    2100372 now IPC :1.80520: AVG IPC :1.80031: L2-Pf-HR :0.88769: L2-HR :0.88977: (Sim:0h2m56s) 
CPU  1 inst:    4000005 cyc:    2100603 now IPC :1.80578: AVG IPC :1.79972: L2-Pf-HR :0.91706: L2-HR :0.91482: (Sim:0h2m56s) 
CPU  0 inst:    4000005 cyc:    2105170 now IPC :1.78578: AVG IPC :1.79196: L2-Pf-HR :0.91900: L2-HR :0.91695: (Sim:0h2m56s) 
CPU  2 inst:    5000000 cyc:    2640609 now IPC :1.83352: AVG IPC :1.81705: L2-Pf-HR :0.87360: L2-HR :0.87967: (Sim:0h3m40s) 
CPU  3 inst:    5000000 cyc:    2650142 now IPC :1.81894: AVG IPC :1.80648: L2-Pf-HR :0.88808: L2-HR :0.89015: (Sim:0h3m40s) 
CPU  1 inst:    5000000 cyc:    2651306 now IPC :1.81585: AVG IPC :1.80507: L2-Pf-HR :0.91746: L2-HR :0.91540: (Sim:0h3m41s) 
CPU  0 inst:    5000000 cyc:    2656981 now IPC :1.81221: AVG IPC :1.79866: L2-Pf-HR :0.91991: L2-HR :0.91783: (Sim:0h3m41s) 
CPU  2 inst:    6000005 cyc:    3181194 now IPC :1.84986: AVG IPC :1.82514: L2-Pf-HR :0.87599: L2-HR :0.88143: (Sim:0h4m21s) 
CPU  3 inst:    6000005 cyc:    3196174 now IPC :1.83140: AVG IPC :1.81264: L2-Pf-HR :0.88917: L2-HR :0.89105: (Sim:0h4m22s) 
CPU  1 inst:    6000005 cyc:    3204384 now IPC :1.80807: AVG IPC :1.80582: L2-Pf-HR :0.91751: L2-HR :0.91552: (Sim:0h4m22s) 
CPU  0 inst:    6000005 cyc:    3206910 now IPC :1.81843: AVG IPC :1.80356: L2-Pf-HR :0.91997: L2-HR :0.91807: (Sim:0h4m22s) 
CPU  2 inst:    7000004 cyc:    3716278 now IPC :1.86886: AVG IPC :1.83372: L2-Pf-HR :0.87790: L2-HR :0.88365: (Sim:0h4m49s) 
CPU  3 inst:    7000004 cyc:    3739788 now IPC :1.83954: AVG IPC :1.81796: L2-Pf-HR :0.89132: L2-HR :0.89339: (Sim:0h4m50s) 
CPU  1 inst:    7000004 cyc:    3752901 now IPC :1.82310: AVG IPC :1.80925: L2-Pf-HR :0.91800: L2-HR :0.91620: (Sim:0h4m51s) 
CPU  0 inst:    7000004 cyc:    3756394 now IPC :1.81989: AVG IPC :1.80680: L2-Pf-HR :0.92019: L2-HR :0.91823: (Sim:0h4m51s) 
CPU  2 inst:    8000003 cyc:    4250179 now IPC :1.87300: AVG IPC :1.84015: L2-Pf-HR :0.88109: L2-HR :0.88594: (Sim:0h5m17s) 
CPU  3 inst:    8000003 cyc:    4274019 now IPC :1.87185: AVG IPC :1.82673: L2-Pf-HR :0.89507: L2-HR :0.89625: (Sim:0h5m18s) 
CPU  0 inst:    8000003 cyc:    4301511 now IPC :1.83447: AVG IPC :1.81136: L2-Pf-HR :0.92123: L2-HR :0.91901: (Sim:0h5m20s) 
CPU  1 inst:    8000003 cyc:    4302762 now IPC :1.81864: AVG IPC :1.81081: L2-Pf-HR :0.91930: L2-HR :0.91729: (Sim:0h5m20s) 
CPU  2 inst:    9000000 cyc:    5131948 now IPC :1.13408: AVG IPC :1.68985: L2-Pf-HR :0.89208: L2-HR :0.89790: (Sim:0h5m53s) 
CPU  3 inst:    9000000 cyc:    5169825 now IPC :1.11631: AVG IPC :1.67449: L2-Pf-HR :0.90213: L2-HR :0.90437: (Sim:0h5m54s) 
CPU  0 inst:    9000000 cyc:    5200283 now IPC :1.11263: AVG IPC :1.66221: L2-Pf-HR :0.91769: L2-HR :0.91455: (Sim:0h5m55s) 
CPU  1 inst:    9000000 cyc:    5200334 now IPC :1.11411: AVG IPC :1.66230: L2-Pf-HR :0.91603: L2-HR :0.91316: (Sim:0h5m55s) 
CPU  2 inst:   10000000 cyc:    8098390 now IPC :0.33710: AVG IPC :1.12536: L2-Pf-HR :0.88427: L2-HR :0.89120: (Sim:0h7m18s) 
CPU  3 inst:   10000000 cyc:    8136294 now IPC :0.33710: AVG IPC :1.11936: L2-Pf-HR :0.89101: L2-HR :0.89537: (Sim:0h7m19s) 
CPU  0 inst:   10000000 cyc:    8166654 now IPC :0.33711: AVG IPC :1.11453: L2-Pf-HR :0.90765: L2-HR :0.90621: (Sim:0h7m20s) 
CPU  1 inst:   10000000 cyc:    8166714 now IPC :0.33711: AVG IPC :1.11459: L2-Pf-HR :0.90524: L2-HR :0.90437: (Sim:0h7m20s) 
CPU  2 inst:   11000000 cyc:   11064886 now IPC :0.33710: AVG IPC :0.89327: L2-Pf-HR :0.87069: L2-HR :0.88050: (Sim:0h8m43s) 
CPU  3 inst:   11000000 cyc:   11102893 now IPC :0.33709: AVG IPC :0.88989: L2-Pf-HR :0.87936: L2-HR :0.88606: (Sim:0h8m44s) 
CPU  0 inst:   11000000 cyc:   11132883 now IPC :0.33713: AVG IPC :0.88719: L2-Pf-HR :0.89905: L2-HR :0.89925: (Sim:0h8m45s) 
CPU  1 inst:   11000000 cyc:   11133157 now IPC :0.33710: AVG IPC :0.88721: L2-Pf-HR :0.89198: L2-HR :0.89399: (Sim:0h8m45s) 
CPU  2 inst:   12000000 cyc:   14031627 now IPC :0.33707: AVG IPC :0.76675: L2-Pf-HR :0.86606: L2-HR :0.87622: (Sim:0h10m8s) 
CPU  3 inst:   12000000 cyc:   14069674 now IPC :0.33707: AVG IPC :0.76450: L2-Pf-HR :0.87361: L2-HR :0.88107: (Sim:0h10m9s) 
CPU  0 inst:   12000000 cyc:   14099887 now IPC :0.33704: AVG IPC :0.76269: L2-Pf-HR :0.88630: L2-HR :0.88934: (Sim:0h10m10s) 
CPU  1 inst:   12000000 cyc:   14099980 now IPC :0.33706: AVG IPC :0.76272: L2-Pf-HR :0.88290: L2-HR :0.88682: (Sim:0h10m10s) 
CPU  2 inst:   13000000 cyc:   16998428 now IPC :0.33706: AVG IPC :0.68712: L2-Pf-HR :0.85707: L2-HR :0.86899: (Sim:0h11m32s) 
CPU  3 inst:   13000000 cyc:   17036270 now IPC :0.33709: AVG IPC :0.68548: L2-Pf-HR :0.86742: L2-HR :0.87590: (Sim:0h11m33s) 
CPU  0 inst:   13000000 cyc:   17066606 now IPC :0.33707: AVG IPC :0.68415: L2-Pf-HR :0.87678: L2-HR :0.88074: (Sim:0h11m34s) 
CPU  1 inst:   13000000 cyc:   17066628 now IPC :0.33708: AVG IPC :0.68418: L2-Pf-HR :0.87374: L2-HR :0.87854: (Sim:0h11m34s) 
CPU  2 inst:   14000000 cyc:   17619229 now IPC :1.61082: AVG IPC :0.72160: L2-Pf-HR :0.85793: L2-HR :0.86728: (Sim:0h12m13s) 
CPU  3 inst:   14000002 cyc:   17659710 now IPC :1.60401: AVG IPC :0.71984: L2-Pf-HR :0.86765: L2-HR :0.87417: (Sim:0h12m15s) 
CPU  1 inst:   14000000 cyc:   17690410 now IPC :1.60312: AVG IPC :0.71850: L2-Pf-HR :0.87231: L2-HR :0.87581: (Sim:0h12m17s) 
CPU  0 inst:   14000001 cyc:   17701850 now IPC :1.57420: AVG IPC :0.71798: L2-Pf-HR :0.88244: L2-HR :0.88472: (Sim:0h12m18s) 
CPU  2 inst:   15000000 cyc:   18145216 now IPC :1.90119: AVG IPC :0.75777: L2-Pf-HR :0.86290: L2-HR :0.86993: (Sim:0h12m46s) 
CPU  3 inst:   15000000 cyc:   18183435 now IPC :1.90940: AVG IPC :0.75607: L2-Pf-HR :0.87042: L2-HR :0.87535: (Sim:0h12m48s) 
CPU  1 inst:   15000000 cyc:   18221737 now IPC :1.88208: AVG IPC :0.75438: L2-Pf-HR :0.87643: L2-HR :0.87851: (Sim:0h12m50s) 
CPU  0 inst:   15000000 cyc:   18227953 now IPC :1.90077: AVG IPC :0.75408: L2-Pf-HR :0.88440: L2-HR :0.88574: (Sim:0h12m51s) 
CPU  2 inst:   16000003 cyc:   18670350 now IPC :1.90428: AVG IPC :0.79182: L2-Pf-HR :0.86815: L2-HR :0.87321: (Sim:0h13m18s) 
CPU  3 inst:   16000003 cyc:   18707492 now IPC :1.90820: AVG IPC :0.79015: L2-Pf-HR :0.87536: L2-HR :0.87862: (Sim:0h13m21s) 
CPU  1 inst:   16000003 cyc:   18754509 now IPC :1.87698: AVG IPC :0.78804: L2-Pf-HR :0.88149: L2-HR :0.88228: (Sim:0h13m23s) 
CPU  0 inst:   16000003 cyc:   18756682 now IPC :1.89133: AVG IPC :0.78792: L2-Pf-HR :0.88696: L2-HR :0.88730: (Sim:0h13m24s) 
CPU  2 inst:   17000001 cyc:   19194841 now IPC :1.90661: AVG IPC :0.82394: L2-Pf-HR :0.87454: L2-HR :0.87771: (Sim:0h13m56s) 
CPU  3 inst:   17000001 cyc:   19231049 now IPC :1.91001: AVG IPC :0.82229: L2-Pf-HR :0.88191: L2-HR :0.88343: (Sim:0h13m58s) 
CPU  1 inst:   17000001 cyc:   19280190 now IPC :1.90229: AVG IPC :0.82007: L2-Pf-HR :0.88658: L2-HR :0.88601: (Sim:0h14m1s) 
CPU  0 inst:   17000001 cyc:   19282785 now IPC :1.90076: AVG IPC :0.81993: L2-Pf-HR :0.89106: L2-HR :0.89023: (Sim:0h14m2s) 
CPU  2 inst:   18000003 cyc:   19719885 now IPC :1.90461: AVG IPC :0.85423: L2-Pf-HR :0.87962: L2-HR :0.88134: (Sim:0h14m29s) 
Finished CPU 2 instr: 16000000 cyc: 18730304 AVG IPC: 0.85423 (Sim time: 0h14m29s)
CPU  3 inst:   18000003 cyc:   19755838 now IPC :1.90553: AVG IPC :0.85258: L2-Pf-HR :0.88725: L2-HR :0.88742: (Sim:0h14m31s) 
Finished CPU 3 instr: 16000002 cyc: 18766435 AVG IPC: 0.85259 (Sim time: 0h14m31s)
CPU  1 inst:   18000003 cyc:   19807648 now IPC :1.89589: AVG IPC :0.85022: L2-Pf-HR :0.89063: L2-HR :0.88899: (Sim:0h14m34s) 
Finished CPU 1 instr: 16000005 cyc: 18818270 AVG IPC: 0.85024 (Sim time: 0h14m34s)
CPU  0 inst:   18000003 cyc:   19809460 now IPC :1.89871: AVG IPC :0.85012: L2-Pf-HR :0.89442: L2-HR :0.89266: (Sim:0h14m34s) 
Finished CPU 0 instr: 16000002 cyc: 18820364 AVG IPC: 0.85014 (Sim time: 0h14m34s)

ChampSim completed all CPUs

Total Simulation Statistics (not including warmup)

CPU 0 cumulative IPC: 0.85014 instructions: 16000002 cycles: 18820364
Core_0_L1D_total_access 11500202
Core_0_L1D_total_hit 11117704
Core_0_L1D_total_miss 382498
Core_0_L1D_loads 4522654
Core_0_L1D_load_hit 4378216
Core_0_L1D_load_miss 144438
Core_0_L1D_RFOs 567025
Core_0_L1D_RFO_hit 541731
Core_0_L1D_RFO_miss 25294
Core_0_L1D_prefetches 6410523
Core_0_L1D_prefetch_hit 6197757
Core_0_L1D_prefetch_miss 212766
Core_0_L1D_writebacks 0
Core_0_L1D_writeback_hit 0
Core_0_L1D_writeback_miss 0

Core_0_L1I_total_access 2417731
Core_0_L1I_total_hit 2415917
Core_0_L1I_total_miss 1814
Core_0_L1I_loads 2417731
Core_0_L1I_load_hit 2415917
Core_0_L1I_load_miss 1814
Core_0_L1I_RFOs 0
Core_0_L1I_RFO_hit 0
Core_0_L1I_RFO_miss 0
Core_0_L1I_prefetches 0
Core_0_L1I_prefetch_hit 0
Core_0_L1I_prefetch_miss 0
Core_0_L1I_writebacks 0
Core_0_L1I_writeback_hit 0
Core_0_L1I_writeback_miss 0

Core_0_L2C_total_access 1068071
Core_0_L2C_total_hit 953408
Core_0_L2C_total_miss 114663
Core_0_L2C_loads 110976
Core_0_L2C_load_hit 91923
Core_0_L2C_load_miss 19053
Core_0_L2C_RFOs 25291
Core_0_L2C_RFO_hit 16387
Core_0_L2C_RFO_miss 8904
Core_0_L2C_prefetches 821110
Core_0_L2C_prefetch_hit 734404
Core_0_L2C_prefetch_miss 86706
Core_0_L2C_writebacks 110694
Core_0_L2C_writeback_hit 110694
Core_0_L2C_writeback_miss 0

CPU 0 L1D next line prefetcher final stats
CPU 0 L2C PC-based stride prefetcher final stats
Stride Degree: 15
MK1  MARKOV_LRU_SIZE: 128
MK1  MARKOV_PREDICTION_PERCENTTHRESHOLD: 40.00000
MK1  OUTLIERS_THRESHOLD_Max: 64
MK1  OUTLIERS_THRESHOLD_Min: 32
MK2  MARKOV_LRU_SIZE: 256
MK2  MARKOV_PREDICTION_PERCENTTHRESHOLD: 30.00000
MK2  OUTLIERS_THRESHOLD_Max: 32
MK2  OUTLIERS_THRESHOLD_Min: 16
MK3  MARKOV_LRU_SIZE: 384
MK3  MARKOV_PREDICTION_PERCENTTHRESHOLD: 25.00000
MK3  OUTLIERS_THRESHOLD_Max: 16
MK3  OUTLIERS_THRESHOLD_Min: 8
MK4  MARKOV_LRU_SIZE: 512
MK4  MARKOV_PREDICTION_PERCENTTHRESHOLD: 20.00000
MK4  OUTLIERS_THRESHOLD_Max: 8
MK4  OUTLIERS_THRESHOLD_Min: 0
IPStride Degree/Access Ratio: 1.92653
MK1 IPDEltaMarkov  Degree/Access Ratio: 0.49212
MK2 IPDEltaMarkov  Degree/Access Ratio: 0.65558
MK3 IPDEltaMarkov  Degree/Access Ratio: 0.77663
MK4 IPDEltaMarkov  Degree/Access Ratio: 1.21938
Core_0_LLC_total_access 157918
Core_0_LLC_total_hit 74088
Core_0_LLC_total_miss 83830
Core_0_LLC_loads 15204
Core_0_LLC_load_hit 4152
Core_0_LLC_load_miss 11052
Core_0_LLC_RFOs 8904
Core_0_LLC_RFO_hit 37
Core_0_LLC_RFO_miss 8867
Core_0_LLC_prefetches 90861
Core_0_LLC_prefetch_hit 26973
Core_0_LLC_prefetch_miss 63888
Core_0_LLC_writebacks 42949
Core_0_LLC_writeback_hit 42926
Core_0_LLC_writeback_miss 23


CPU 1 cumulative IPC: 0.85035 instructions: 16003946 cycles: 18820364
Core_1_L1D_total_access 11505709
Core_1_L1D_total_hit 11138947
Core_1_L1D_total_miss 366762
Core_1_L1D_loads 4527973
Core_1_L1D_load_hit 4392343
Core_1_L1D_load_miss 135630
Core_1_L1D_RFOs 567567
Core_1_L1D_RFO_hit 542281
Core_1_L1D_RFO_miss 25286
Core_1_L1D_prefetches 6410169
Core_1_L1D_prefetch_hit 6204323
Core_1_L1D_prefetch_miss 205846
Core_1_L1D_writebacks 0
Core_1_L1D_writeback_hit 0
Core_1_L1D_writeback_miss 0

Core_1_L1I_total_access 2418907
Core_1_L1I_total_hit 2417075
Core_1_L1I_total_miss 1832
Core_1_L1I_loads 2418907
Core_1_L1I_load_hit 2417075
Core_1_L1I_load_miss 1832
Core_1_L1I_RFOs 0
Core_1_L1I_RFO_hit 0
Core_1_L1I_RFO_miss 0
Core_1_L1I_prefetches 0
Core_1_L1I_prefetch_hit 0
Core_1_L1I_prefetch_miss 0
Core_1_L1I_writebacks 0
Core_1_L1I_writeback_hit 0
Core_1_L1I_writeback_miss 0

Core_1_L2C_total_access 1027583
Core_1_L2C_total_hit 913467
Core_1_L2C_total_miss 114116
Core_1_L2C_loads 102016
Core_1_L2C_load_hit 83171
Core_1_L2C_load_miss 18845
Core_1_L2C_RFOs 25283
Core_1_L2C_RFO_hit 16454
Core_1_L2C_RFO_miss 8829
Core_1_L2C_prefetches 789987
Core_1_L2C_prefetch_hit 703545
Core_1_L2C_prefetch_miss 86442
Core_1_L2C_writebacks 110297
Core_1_L2C_writeback_hit 110297
Core_1_L2C_writeback_miss 0

CPU 1 L1D next line prefetcher final stats
CPU 1 L2C PC-based stride prefetcher final stats
Stride Degree: 15
MK1  MARKOV_LRU_SIZE: 128
MK1  MARKOV_PREDICTION_PERCENTTHRESHOLD: 40.00000
MK1  OUTLIERS_THRESHOLD_Max: 64
MK1  OUTLIERS_THRESHOLD_Min: 32
MK2  MARKOV_LRU_SIZE: 256
MK2  MARKOV_PREDICTION_PERCENTTHRESHOLD: 30.00000
MK2  OUTLIERS_THRESHOLD_Max: 32
MK2  OUTLIERS_THRESHOLD_Min: 16
MK3  MARKOV_LRU_SIZE: 384
MK3  MARKOV_PREDICTION_PERCENTTHRESHOLD: 25.00000
MK3  OUTLIERS_THRESHOLD_Max: 16
MK3  OUTLIERS_THRESHOLD_Min: 8
MK4  MARKOV_LRU_SIZE: 512
MK4  MARKOV_PREDICTION_PERCENTTHRESHOLD: 20.00000
MK4  OUTLIERS_THRESHOLD_Max: 8
MK4  OUTLIERS_THRESHOLD_Min: 0
IPStride Degree/Access Ratio: 1.92653
MK1 IPDEltaMarkov  Degree/Access Ratio: 0.49212
MK2 IPDEltaMarkov  Degree/Access Ratio: 0.65558
MK3 IPDEltaMarkov  Degree/Access Ratio: 0.77663
MK4 IPDEltaMarkov  Degree/Access Ratio: 1.21938
Core_1_LLC_total_access 155689
Core_1_LLC_total_hit 71830
Core_1_LLC_total_miss 83859
Core_1_LLC_loads 15063
Core_1_LLC_load_hit 4064
Core_1_LLC_load_miss 10999
Core_1_LLC_RFOs 8829
Core_1_LLC_RFO_hit 40
Core_1_LLC_RFO_miss 8789
Core_1_LLC_prefetches 90546
Core_1_LLC_prefetch_hit 26498
Core_1_LLC_prefetch_miss 64048
Core_1_LLC_writebacks 41251
Core_1_LLC_writeback_hit 41228
Core_1_LLC_writeback_miss 23


CPU 2 cumulative IPC: 0.85921 instructions: 16170629 cycles: 18820364
Core_2_L1D_total_access 11626924
Core_2_L1D_total_hit 11297920
Core_2_L1D_total_miss 329004
Core_2_L1D_loads 4590381
Core_2_L1D_load_hit 4477458
Core_2_L1D_load_miss 112923
Core_2_L1D_RFOs 567675
Core_2_L1D_RFO_hit 542367
Core_2_L1D_RFO_miss 25308
Core_2_L1D_prefetches 6468868
Core_2_L1D_prefetch_hit 6278095
Core_2_L1D_prefetch_miss 190773
Core_2_L1D_writebacks 0
Core_2_L1D_writeback_hit 0
Core_2_L1D_writeback_miss 0

Core_2_L1I_total_access 2452592
Core_2_L1I_total_hit 2450726
Core_2_L1I_total_miss 1866
Core_2_L1I_loads 2452592
Core_2_L1I_load_hit 2450726
Core_2_L1I_load_miss 1866
Core_2_L1I_RFOs 0
Core_2_L1I_RFO_hit 0
Core_2_L1I_RFO_miss 0
Core_2_L1I_prefetches 0
Core_2_L1I_prefetch_hit 0
Core_2_L1I_prefetch_miss 0
Core_2_L1I_writebacks 0
Core_2_L1I_writeback_hit 0
Core_2_L1I_writeback_miss 0

Core_2_L2C_total_access 953741
Core_2_L2C_total_hit 840435
Core_2_L2C_total_miss 113306
Core_2_L2C_loads 79064
Core_2_L2C_load_hit 62571
Core_2_L2C_load_miss 16493
Core_2_L2C_RFOs 25303
Core_2_L2C_RFO_hit 17436
Core_2_L2C_RFO_miss 7867
Core_2_L2C_prefetches 738584
Core_2_L2C_prefetch_hit 649648
Core_2_L2C_prefetch_miss 88936
Core_2_L2C_writebacks 110790
Core_2_L2C_writeback_hit 110780
Core_2_L2C_writeback_miss 10

CPU 2 L1D next line prefetcher final stats
CPU 2 L2C PC-based stride prefetcher final stats
Stride Degree: 15
MK1  MARKOV_LRU_SIZE: 128
MK1  MARKOV_PREDICTION_PERCENTTHRESHOLD: 40.00000
MK1  OUTLIERS_THRESHOLD_Max: 64
MK1  OUTLIERS_THRESHOLD_Min: 32
MK2  MARKOV_LRU_SIZE: 256
MK2  MARKOV_PREDICTION_PERCENTTHRESHOLD: 30.00000
MK2  OUTLIERS_THRESHOLD_Max: 32
MK2  OUTLIERS_THRESHOLD_Min: 16
MK3  MARKOV_LRU_SIZE: 384
MK3  MARKOV_PREDICTION_PERCENTTHRESHOLD: 25.00000
MK3  OUTLIERS_THRESHOLD_Max: 16
MK3  OUTLIERS_THRESHOLD_Min: 8
MK4  MARKOV_LRU_SIZE: 512
MK4  MARKOV_PREDICTION_PERCENTTHRESHOLD: 20.00000
MK4  OUTLIERS_THRESHOLD_Max: 8
MK4  OUTLIERS_THRESHOLD_Min: 0
IPStride Degree/Access Ratio: 1.92653
MK1 IPDEltaMarkov  Degree/Access Ratio: 0.49212
MK2 IPDEltaMarkov  Degree/Access Ratio: 0.65558
MK3 IPDEltaMarkov  Degree/Access Ratio: 0.77663
MK4 IPDEltaMarkov  Degree/Access Ratio: 1.21938
Core_2_LLC_total_access 157540
Core_2_LLC_total_hit 73254
Core_2_LLC_total_miss 84286
Core_2_LLC_loads 13617
Core_2_LLC_load_hit 2695
Core_2_LLC_load_miss 10922
Core_2_LLC_RFOs 7867
Core_2_LLC_RFO_hit 41
Core_2_LLC_RFO_miss 7826
Core_2_LLC_prefetches 92066
Core_2_LLC_prefetch_hit 26532
Core_2_LLC_prefetch_miss 65534
Core_2_LLC_writebacks 43990
Core_2_LLC_writeback_hit 43986
Core_2_LLC_writeback_miss 4


CPU 3 cumulative IPC: 0.85550 instructions: 16100878 cycles: 18820365
Core_3_L1D_total_access 11581639
Core_3_L1D_total_hit 11242051
Core_3_L1D_total_miss 339588
Core_3_L1D_loads 4564019
Core_3_L1D_load_hit 4444971
Core_3_L1D_load_miss 119048
Core_3_L1D_RFOs 568177
Core_3_L1D_RFO_hit 542886
Core_3_L1D_RFO_miss 25291
Core_3_L1D_prefetches 6449443
Core_3_L1D_prefetch_hit 6254194
Core_3_L1D_prefetch_miss 195249
Core_3_L1D_writebacks 0
Core_3_L1D_writeback_hit 0
Core_3_L1D_writeback_miss 0

Core_3_L1I_total_access 2440228
Core_3_L1I_total_hit 2438345
Core_3_L1I_total_miss 1883
Core_3_L1I_loads 2440228
Core_3_L1I_load_hit 2438345
Core_3_L1I_load_miss 1883
Core_3_L1I_RFOs 0
Core_3_L1I_RFO_hit 0
Core_3_L1I_RFO_miss 0
Core_3_L1I_prefetches 0
Core_3_L1I_prefetch_hit 0
Core_3_L1I_prefetch_miss 0
Core_3_L1I_writebacks 0
Core_3_L1I_writeback_hit 0
Core_3_L1I_writeback_miss 0

Core_3_L2C_total_access 985961
Core_3_L2C_total_hit 874468
Core_3_L2C_total_miss 111493
Core_3_L2C_loads 85116
Core_3_L2C_load_hit 68161
Core_3_L2C_load_miss 16955
Core_3_L2C_RFOs 25289
Core_3_L2C_RFO_hit 17452
Core_3_L2C_RFO_miss 7837
Core_3_L2C_prefetches 765234
Core_3_L2C_prefetch_hit 678533
Core_3_L2C_prefetch_miss 86701
Core_3_L2C_writebacks 110322
Core_3_L2C_writeback_hit 110322
Core_3_L2C_writeback_miss 0

CPU 3 L1D next line prefetcher final stats
CPU 3 L2C PC-based stride prefetcher final stats
Stride Degree: 15
MK1  MARKOV_LRU_SIZE: 128
MK1  MARKOV_PREDICTION_PERCENTTHRESHOLD: 40.00000
MK1  OUTLIERS_THRESHOLD_Max: 64
MK1  OUTLIERS_THRESHOLD_Min: 32
MK2  MARKOV_LRU_SIZE: 256
MK2  MARKOV_PREDICTION_PERCENTTHRESHOLD: 30.00000
MK2  OUTLIERS_THRESHOLD_Max: 32
MK2  OUTLIERS_THRESHOLD_Min: 16
MK3  MARKOV_LRU_SIZE: 384
MK3  MARKOV_PREDICTION_PERCENTTHRESHOLD: 25.00000
MK3  OUTLIERS_THRESHOLD_Max: 16
MK3  OUTLIERS_THRESHOLD_Min: 8
MK4  MARKOV_LRU_SIZE: 512
MK4  MARKOV_PREDICTION_PERCENTTHRESHOLD: 20.00000
MK4  OUTLIERS_THRESHOLD_Max: 8
MK4  OUTLIERS_THRESHOLD_Min: 0
IPStride Degree/Access Ratio: 1.92653
MK1 IPDEltaMarkov  Degree/Access Ratio: 0.49212
MK2 IPDEltaMarkov  Degree/Access Ratio: 0.65558
MK3 IPDEltaMarkov  Degree/Access Ratio: 0.77663
MK4 IPDEltaMarkov  Degree/Access Ratio: 1.21938
Core_3_LLC_total_access 151835
Core_3_LLC_total_hit 67660
Core_3_LLC_total_miss 84175
Core_3_LLC_loads 13853
Core_3_LLC_load_hit 2741
Core_3_LLC_load_miss 11112
Core_3_LLC_RFOs 7837
Core_3_LLC_RFO_hit 11
Core_3_LLC_RFO_miss 7826
Core_3_LLC_prefetches 90133
Core_3_LLC_prefetch_hit 24897
Core_3_LLC_prefetch_miss 65236
Core_3_LLC_writebacks 40012
Core_3_LLC_writeback_hit 40011
Core_3_LLC_writeback_miss 1


[ROI Statistics]
Core_0_instructions 16000002
Core_0_cycles 18820364
Core_0_IPC 0.85014

Core_0_branch_prediction_accuracy 98.24555
Core_0_branch_MPKI 0.63128
Core_0_average_ROB_occupancy_at_mispredict 315.24364

Core_0_L1D_total_access 11500202
Core_0_L1D_total_hit 11117704 L1D_total_Hit Ratio: 0.96674
Core_0_L1D_total_miss 382498
Core_0_L1D_loads 4522654
Core_0_L1D_load_hit 4378216 L1D_load_Hit Ratio: 0.96806
Core_0_L1D_load_miss 144438
Core_0_L1D_RFOs 567025
Core_0_L1D_RFO_hit 541731 L1D_RFO_Hit Ratio: 0.95539
Core_0_L1D_RFO_miss 25294
Core_0_L1D_prefetches 6410523
Core_0_L1D_prefetch_hit 6197757 L1D_prefetch_Hit Ratio: 0.96681
Core_0_L1D_prefetch_miss 212766
Core_0_L1D_writebacks 0
Core_0_L1D_writeback_hit 0 L1D_writeback_Hit Ratio: -nan
Core_0_L1D_writeback_miss 0
Core_0_L1D_prefetch_requested 15788199
Core_0_L1D_prefetch_issued 8415853
Core_0_L1D_prefetch_useful 183483 L1D_Useful Ratio: 0.02180
Core_0_L1D_prefetch_useless 50180
Core_0_L1D_prefetch_late 37849
Core_0_L1D_average_miss_latency 424967.06705

Core_0_L1I_total_access 2417731
Core_0_L1I_total_hit 2415917 L1I_total_Hit Ratio: 0.99925
Core_0_L1I_total_miss 1814
Core_0_L1I_loads 2417731
Core_0_L1I_load_hit 2415917 L1I_load_Hit Ratio: 0.99925
Core_0_L1I_load_miss 1814
Core_0_L1I_RFOs 0
Core_0_L1I_RFO_hit 0 L1I_RFO_Hit Ratio: -nan
Core_0_L1I_RFO_miss 0
Core_0_L1I_prefetches 0
Core_0_L1I_prefetch_hit 0 L1I_prefetch_Hit Ratio: -nan
Core_0_L1I_prefetch_miss 0
Core_0_L1I_writebacks 0
Core_0_L1I_writeback_hit 0 L1I_writeback_Hit Ratio: -nan
Core_0_L1I_writeback_miss 0
Core_0_L1I_prefetch_requested 0
Core_0_L1I_prefetch_issued 0
Core_0_L1I_prefetch_useful 0 L1I_Useful Ratio: -nan
Core_0_L1I_prefetch_useless 0
Core_0_L1I_prefetch_late 0
Core_0_L1I_average_miss_latency 248.21003

Core_0_L2C_total_access 1068071
Core_0_L2C_total_hit 953408 L2C_total_Hit Ratio: 0.89264
Core_0_L2C_total_miss 114663
Core_0_L2C_loads 110976
Core_0_L2C_load_hit 91923 L2C_load_Hit Ratio: 0.82831
Core_0_L2C_load_miss 19053
Core_0_L2C_RFOs 25291
Core_0_L2C_RFO_hit 16387 L2C_RFO_Hit Ratio: 0.64794
Core_0_L2C_RFO_miss 8904
Core_0_L2C_prefetches 821110
Core_0_L2C_prefetch_hit 734404 L2C_prefetch_Hit Ratio: 0.89440
Core_0_L2C_prefetch_miss 86706
Core_0_L2C_writebacks 110694
Core_0_L2C_writeback_hit 110694 L2C_writeback_Hit Ratio: 1.00000
Core_0_L2C_writeback_miss 0
Core_0_L2C_prefetch_requested 1811635
Core_0_L2C_prefetch_issued 1047732
Core_0_L2C_prefetch_useful 47229 L2C_Useful Ratio: 0.04508
Core_0_L2C_prefetch_useless 22504
Core_0_L2C_prefetch_late 3944
Core_0_L2C_average_miss_latency 197.28263

Core_0_LLC_total_access 157918
Core_0_LLC_total_hit 74088 LLC_total_Hit Ratio: 0.46915
Core_0_LLC_total_miss 83830
Core_0_LLC_loads 15204
Core_0_LLC_load_hit 4152 LLC_load_Hit Ratio: 0.27309
Core_0_LLC_load_miss 11052
Core_0_LLC_RFOs 8904
Core_0_LLC_RFO_hit 37 LLC_RFO_Hit Ratio: 0.00416
Core_0_LLC_RFO_miss 8867
Core_0_LLC_prefetches 90861
Core_0_LLC_prefetch_hit 26973 LLC_prefetch_Hit Ratio: 0.29686
Core_0_LLC_prefetch_miss 63888
Core_0_LLC_writebacks 42949
Core_0_LLC_writeback_hit 42926 LLC_writeback_Hit Ratio: 0.99946
Core_0_LLC_writeback_miss 23
Core_0_LLC_prefetch_requested 0
Core_0_LLC_prefetch_issued 0
Core_0_LLC_prefetch_useful 10473 LLC_Useful Ratio: inf
Core_0_LLC_prefetch_useless 2433
Core_0_LLC_prefetch_late 528
Core_0_LLC_average_miss_latency 873.32821

Core_0_major_page_fault 0
Core_0_minor_page_fault 2382

Core_1_instructions 16000005
Core_1_cycles 18818270
Core_1_IPC 0.85024

Core_1_branch_prediction_accuracy 98.24562
Core_1_branch_MPKI 0.63114
Core_1_average_ROB_occupancy_at_mispredict 315.32304

Core_1_L1D_total_access 11503406
Core_1_L1D_total_hit 11136719 L1D_total_Hit Ratio: 0.96812
Core_1_L1D_total_miss 366687
Core_1_L1D_loads 4526603
Core_1_L1D_load_hit 4390979 L1D_load_Hit Ratio: 0.97004
Core_1_L1D_load_miss 135624
Core_1_L1D_RFOs 567567
Core_1_L1D_RFO_hit 542281 L1D_RFO_Hit Ratio: 0.95545
Core_1_L1D_RFO_miss 25286
Core_1_L1D_prefetches 6409236
Core_1_L1D_prefetch_hit 6203459 L1D_prefetch_Hit Ratio: 0.96789
Core_1_L1D_prefetch_miss 205777
Core_1_L1D_writebacks 0
Core_1_L1D_writeback_hit 0 L1D_writeback_Hit Ratio: -nan
Core_1_L1D_writeback_miss 0
Core_1_L1D_prefetch_requested 15794358
Core_1_L1D_prefetch_issued 8418666
Core_1_L1D_prefetch_useful 178574 L1D_Useful Ratio: 0.02121
Core_1_L1D_prefetch_useless 47570
Core_1_L1D_prefetch_late 38055
Core_1_L1D_average_miss_latency 444744.80595

Core_1_L1I_total_access 2418520
Core_1_L1I_total_hit 2416688 L1I_total_Hit Ratio: 0.99924
Core_1_L1I_total_miss 1832
Core_1_L1I_loads 2418520
Core_1_L1I_load_hit 2416688 L1I_load_Hit Ratio: 0.99924
Core_1_L1I_load_miss 1832
Core_1_L1I_RFOs 0
Core_1_L1I_RFO_hit 0 L1I_RFO_Hit Ratio: -nan
Core_1_L1I_RFO_miss 0
Core_1_L1I_prefetches 0
Core_1_L1I_prefetch_hit 0 L1I_prefetch_Hit Ratio: -nan
Core_1_L1I_prefetch_miss 0
Core_1_L1I_writebacks 0
Core_1_L1I_writeback_hit 0 L1I_writeback_Hit Ratio: -nan
Core_1_L1I_writeback_miss 0
Core_1_L1I_prefetch_requested 0
Core_1_L1I_prefetch_issued 0
Core_1_L1I_prefetch_useful 0 L1I_Useful Ratio: -nan
Core_1_L1I_prefetch_useless 0
Core_1_L1I_prefetch_late 0
Core_1_L1I_average_miss_latency 256.51528

Core_1_L2C_total_access 1027400
Core_1_L2C_total_hit 913340 L2C_total_Hit Ratio: 0.88898
Core_1_L2C_total_miss 114060
Core_1_L2C_loads 102010
Core_1_L2C_load_hit 83170 L2C_load_Hit Ratio: 0.81531
Core_1_L2C_load_miss 18840
Core_1_L2C_RFOs 25283
Core_1_L2C_RFO_hit 16454 L2C_RFO_Hit Ratio: 0.65079
Core_1_L2C_RFO_miss 8829
Core_1_L2C_prefetches 789812
Core_1_L2C_prefetch_hit 703421 L2C_prefetch_Hit Ratio: 0.89062
Core_1_L2C_prefetch_miss 86391
Core_1_L2C_writebacks 110295
Core_1_L2C_writeback_hit 110295 L2C_writeback_Hit Ratio: 1.00000
Core_1_L2C_writeback_miss 0
Core_1_L2C_prefetch_requested 1754229
Core_1_L2C_prefetch_issued 1023549
Core_1_L2C_prefetch_useful 47469 L2C_Useful Ratio: 0.04638
Core_1_L2C_prefetch_useless 22799
Core_1_L2C_prefetch_late 3840
Core_1_L2C_average_miss_latency 206.80497

Core_1_LLC_total_access 155598
Core_1_LLC_total_hit 71757 LLC_total_Hit Ratio: 0.46117
Core_1_LLC_total_miss 83841
Core_1_LLC_loads 15058
Core_1_LLC_load_hit 4064 LLC_load_Hit Ratio: 0.26989
Core_1_LLC_load_miss 10994
Core_1_LLC_RFOs 8829
Core_1_LLC_RFO_hit 40 LLC_RFO_Hit Ratio: 0.00453
Core_1_LLC_RFO_miss 8789
Core_1_LLC_prefetches 90495
Core_1_LLC_prefetch_hit 26460 LLC_prefetch_Hit Ratio: 0.29239
Core_1_LLC_prefetch_miss 64035
Core_1_LLC_writebacks 41216
Core_1_LLC_writeback_hit 41193 LLC_writeback_Hit Ratio: 0.99944
Core_1_LLC_writeback_miss 23
Core_1_LLC_prefetch_requested 0
Core_1_LLC_prefetch_issued 0
Core_1_LLC_prefetch_useful 10473 LLC_Useful Ratio: inf
Core_1_LLC_prefetch_useless 2433
Core_1_LLC_prefetch_late 528
Core_1_LLC_average_miss_latency 873.21363

Core_1_major_page_fault 0
Core_1_minor_page_fault 2382

Core_2_instructions 16000000
Core_2_cycles 18730304
Core_2_IPC 0.85423

Core_2_branch_prediction_accuracy 98.24804
Core_2_branch_MPKI 0.62496
Core_2_average_ROB_occupancy_at_mispredict 315.38165

Core_2_L1D_total_access 11525713
Core_2_L1D_total_hit 11200590 L1D_total_Hit Ratio: 0.97179
Core_2_L1D_total_miss 325123
Core_2_L1D_loads 4530933
Core_2_L1D_load_hit 4418644 L1D_load_Hit Ratio: 0.97522
Core_2_L1D_load_miss 112289
Core_2_L1D_RFOs 567315
Core_2_L1D_RFO_hit 542007 L1D_RFO_Hit Ratio: 0.95539
Core_2_L1D_RFO_miss 25308
Core_2_L1D_prefetches 6427465
Core_2_L1D_prefetch_hit 6239939 L1D_prefetch_Hit Ratio: 0.97082
Core_2_L1D_prefetch_miss 187526
Core_2_L1D_writebacks 0
Core_2_L1D_writeback_hit 0 L1D_writeback_Hit Ratio: -nan
Core_2_L1D_writeback_miss 0
Core_2_L1D_prefetch_requested 15982110
Core_2_L1D_prefetch_issued 8478710
Core_2_L1D_prefetch_useful 153820 L1D_Useful Ratio: 0.01814
Core_2_L1D_prefetch_useless 49584
Core_2_L1D_prefetch_late 38275
Core_2_L1D_average_miss_latency 514546.57500

Core_2_L1I_total_access 2435483
Core_2_L1I_total_hit 2433617 L1I_total_Hit Ratio: 0.99923
Core_2_L1I_total_miss 1866
Core_2_L1I_loads 2435483
Core_2_L1I_load_hit 2433617 L1I_load_Hit Ratio: 0.99923
Core_2_L1I_load_miss 1866
Core_2_L1I_RFOs 0
Core_2_L1I_RFO_hit 0 L1I_RFO_Hit Ratio: -nan
Core_2_L1I_RFO_miss 0
Core_2_L1I_prefetches 0
Core_2_L1I_prefetch_hit 0 L1I_prefetch_Hit Ratio: -nan
Core_2_L1I_prefetch_miss 0
Core_2_L1I_writebacks 0
Core_2_L1I_writeback_hit 0 L1I_writeback_Hit Ratio: -nan
Core_2_L1I_writeback_miss 0
Core_2_L1I_prefetch_requested 0
Core_2_L1I_prefetch_issued 0
Core_2_L1I_prefetch_useful 0 L1I_Useful Ratio: -nan
Core_2_L1I_prefetch_useless 0
Core_2_L1I_prefetch_late 0
Core_2_L1I_average_miss_latency 230.44105

Core_2_L2C_total_access 943490
Core_2_L2C_total_hit 831534 L2C_total_Hit Ratio: 0.88134
Core_2_L2C_total_miss 111956
Core_2_L2C_loads 78464
Core_2_L2C_load_hit 62139 L2C_load_Hit Ratio: 0.79194
Core_2_L2C_load_miss 16325
Core_2_L2C_RFOs 25303
Core_2_L2C_RFO_hit 17436 L2C_RFO_Hit Ratio: 0.68909
Core_2_L2C_RFO_miss 7867
Core_2_L2C_prefetches 728976
Core_2_L2C_prefetch_hit 641222 L2C_prefetch_Hit Ratio: 0.87962
Core_2_L2C_prefetch_miss 87754
Core_2_L2C_writebacks 110747
Core_2_L2C_writeback_hit 110737 L2C_writeback_Hit Ratio: 0.99991
Core_2_L2C_writeback_miss 10
Core_2_L2C_prefetch_requested 1675990
Core_2_L2C_prefetch_issued 902440
Core_2_L2C_prefetch_useful 49307 L2C_Useful Ratio: 0.05464
Core_2_L2C_prefetch_useless 25428
Core_2_L2C_prefetch_late 3039
Core_2_L2C_average_miss_latency 197.80835

Core_2_LLC_total_access 155659
Core_2_LLC_total_hit 71937 LLC_total_Hit Ratio: 0.46214
Core_2_LLC_total_miss 83722
Core_2_LLC_loads 13473
Core_2_LLC_load_hit 2629 LLC_load_Hit Ratio: 0.19513
Core_2_LLC_load_miss 10844
Core_2_LLC_RFOs 7867
Core_2_LLC_RFO_hit 41 LLC_RFO_Hit Ratio: 0.00521
Core_2_LLC_RFO_miss 7826
Core_2_LLC_prefetches 90851
Core_2_LLC_prefetch_hit 25803 LLC_prefetch_Hit Ratio: 0.28401
Core_2_LLC_prefetch_miss 65048
Core_2_LLC_writebacks 43468
Core_2_LLC_writeback_hit 43464 LLC_writeback_Hit Ratio: 0.99991
Core_2_LLC_writeback_miss 4
Core_2_LLC_prefetch_requested 0
Core_2_LLC_prefetch_issued 0
Core_2_LLC_prefetch_useful 10473 LLC_Useful Ratio: inf
Core_2_LLC_prefetch_useless 2433
Core_2_LLC_prefetch_late 528
Core_2_LLC_average_miss_latency 874.45479

Core_2_major_page_fault 0
Core_2_minor_page_fault 2391

Core_3_instructions 16000002
Core_3_cycles 18766435
Core_3_IPC 0.85259

Core_3_branch_prediction_accuracy 98.24701
Core_3_branch_MPKI 0.62753
Core_3_average_ROB_occupancy_at_mispredict 315.32492

Core_3_L1D_total_access 11522198
Core_3_L1D_total_hit 11185204 L1D_total_Hit Ratio: 0.97075
Core_3_L1D_total_miss 336994
Core_3_L1D_loads 4529023
Core_3_L1D_load_hit 4410599 L1D_load_Hit Ratio: 0.97385
Core_3_L1D_load_miss 118424
Core_3_L1D_RFOs 567971
Core_3_L1D_RFO_hit 542680 L1D_RFO_Hit Ratio: 0.95547
Core_3_L1D_RFO_miss 25291
Core_3_L1D_prefetches 6425204
Core_3_L1D_prefetch_hit 6231925 L1D_prefetch_Hit Ratio: 0.96992
Core_3_L1D_prefetch_miss 193279
Core_3_L1D_writebacks 0
Core_3_L1D_writeback_hit 0 L1D_writeback_Hit Ratio: -nan
Core_3_L1D_writeback_miss 0
Core_3_L1D_prefetch_requested 15901890
Core_3_L1D_prefetch_issued 8454865
Core_3_L1D_prefetch_useful 162776 L1D_Useful Ratio: 0.01925
Core_3_L1D_prefetch_useless 49281
Core_3_L1D_prefetch_late 38405
Core_3_L1D_average_miss_latency 496484.17279

Core_3_L1I_total_access 2430117
Core_3_L1I_total_hit 2428234 L1I_total_Hit Ratio: 0.99923
Core_3_L1I_total_miss 1883
Core_3_L1I_loads 2430117
Core_3_L1I_load_hit 2428234 L1I_load_Hit Ratio: 0.99923
Core_3_L1I_load_miss 1883
Core_3_L1I_RFOs 0
Core_3_L1I_RFO_hit 0 L1I_RFO_Hit Ratio: -nan
Core_3_L1I_RFO_miss 0
Core_3_L1I_prefetches 0
Core_3_L1I_prefetch_hit 0 L1I_prefetch_Hit Ratio: -nan
Core_3_L1I_prefetch_miss 0
Core_3_L1I_writebacks 0
Core_3_L1I_writeback_hit 0 L1I_writeback_Hit Ratio: -nan
Core_3_L1I_writeback_miss 0
Core_3_L1I_prefetch_requested 0
Core_3_L1I_prefetch_issued 0
Core_3_L1I_prefetch_useful 0 L1I_Useful Ratio: -nan
Core_3_L1I_prefetch_useless 0
Core_3_L1I_prefetch_late 0
Core_3_L1I_average_miss_latency 242.17260

Core_3_L2C_total_access 979259
Core_3_L2C_total_hit 869018 L2C_total_Hit Ratio: 0.88742
Core_3_L2C_total_miss 110241
Core_3_L2C_loads 84514
Core_3_L2C_load_hit 67711 L2C_load_Hit Ratio: 0.80118
Core_3_L2C_load_miss 16803
Core_3_L2C_RFOs 25289
Core_3_L2C_RFO_hit 17452 L2C_RFO_Hit Ratio: 0.69010
Core_3_L2C_RFO_miss 7837
Core_3_L2C_prefetches 759222
Core_3_L2C_prefetch_hit 673621 L2C_prefetch_Hit Ratio: 0.88725
Core_3_L2C_prefetch_miss 85601
Core_3_L2C_writebacks 110234
Core_3_L2C_writeback_hit 110234 L2C_writeback_Hit Ratio: 1.00000
Core_3_L2C_writeback_miss 0
Core_3_L2C_prefetch_requested 1701163
Core_3_L2C_prefetch_issued 930936
Core_3_L2C_prefetch_useful 49207 L2C_Useful Ratio: 0.05286
Core_3_L2C_prefetch_useless 23833
Core_3_L2C_prefetch_late 3177
Core_3_L2C_average_miss_latency 200.79809

Core_3_LLC_total_access 150208
Core_3_LLC_total_hit 66509 LLC_total_Hit Ratio: 0.44278
Core_3_LLC_total_miss 83699
Core_3_LLC_loads 13723
Core_3_LLC_load_hit 2673 LLC_load_Hit Ratio: 0.19478
Core_3_LLC_load_miss 11050
Core_3_LLC_RFOs 7837
Core_3_LLC_RFO_hit 11 LLC_RFO_Hit Ratio: 0.00140
Core_3_LLC_RFO_miss 7826
Core_3_LLC_prefetches 89004
Core_3_LLC_prefetch_hit 24182 LLC_prefetch_Hit Ratio: 0.27170
Core_3_LLC_prefetch_miss 64822
Core_3_LLC_writebacks 39644
Core_3_LLC_writeback_hit 39643 LLC_writeback_Hit Ratio: 0.99997
Core_3_LLC_writeback_miss 1
Core_3_LLC_prefetch_requested 0
Core_3_LLC_prefetch_issued 0
Core_3_LLC_prefetch_useful 10473 LLC_Useful Ratio: inf
Core_3_LLC_prefetch_useless 2433
Core_3_LLC_prefetch_late 528
Core_3_LLC_average_miss_latency 874.69509

Core_3_major_page_fault 0
Core_3_minor_page_fault 2391

CPU 0 L1D next line prefetcher final stats
CPU 0 L2C PC-based stride prefetcher final stats
Stride Degree: 15
MK1  MARKOV_LRU_SIZE: 128
MK1  MARKOV_PREDICTION_PERCENTTHRESHOLD: 40.00000
MK1  OUTLIERS_THRESHOLD_Max: 64
MK1  OUTLIERS_THRESHOLD_Min: 32
MK2  MARKOV_LRU_SIZE: 256
MK2  MARKOV_PREDICTION_PERCENTTHRESHOLD: 30.00000
MK2  OUTLIERS_THRESHOLD_Max: 32
MK2  OUTLIERS_THRESHOLD_Min: 16
MK3  MARKOV_LRU_SIZE: 384
MK3  MARKOV_PREDICTION_PERCENTTHRESHOLD: 25.00000
MK3  OUTLIERS_THRESHOLD_Max: 16
MK3  OUTLIERS_THRESHOLD_Min: 8
MK4  MARKOV_LRU_SIZE: 512
MK4  MARKOV_PREDICTION_PERCENTTHRESHOLD: 20.00000
MK4  OUTLIERS_THRESHOLD_Max: 8
MK4  OUTLIERS_THRESHOLD_Min: 0
IPStride Degree/Access Ratio: 1.92653
MK1 IPDEltaMarkov  Degree/Access Ratio: 0.49212
MK2 IPDEltaMarkov  Degree/Access Ratio: 0.65558
MK3 IPDEltaMarkov  Degree/Access Ratio: 0.77663
MK4 IPDEltaMarkov  Degree/Access Ratio: 1.21938
CPU 1 L1D next line prefetcher final stats
CPU 1 L2C PC-based stride prefetcher final stats
Stride Degree: 15
MK1  MARKOV_LRU_SIZE: 128
MK1  MARKOV_PREDICTION_PERCENTTHRESHOLD: 40.00000
MK1  OUTLIERS_THRESHOLD_Max: 64
MK1  OUTLIERS_THRESHOLD_Min: 32
MK2  MARKOV_LRU_SIZE: 256
MK2  MARKOV_PREDICTION_PERCENTTHRESHOLD: 30.00000
MK2  OUTLIERS_THRESHOLD_Max: 32
MK2  OUTLIERS_THRESHOLD_Min: 16
MK3  MARKOV_LRU_SIZE: 384
MK3  MARKOV_PREDICTION_PERCENTTHRESHOLD: 25.00000
MK3  OUTLIERS_THRESHOLD_Max: 16
MK3  OUTLIERS_THRESHOLD_Min: 8
MK4  MARKOV_LRU_SIZE: 512
MK4  MARKOV_PREDICTION_PERCENTTHRESHOLD: 20.00000
MK4  OUTLIERS_THRESHOLD_Max: 8
MK4  OUTLIERS_THRESHOLD_Min: 0
IPStride Degree/Access Ratio: 1.92653
MK1 IPDEltaMarkov  Degree/Access Ratio: 0.49212
MK2 IPDEltaMarkov  Degree/Access Ratio: 0.65558
MK3 IPDEltaMarkov  Degree/Access Ratio: 0.77663
MK4 IPDEltaMarkov  Degree/Access Ratio: 1.21938
CPU 2 L1D next line prefetcher final stats
CPU 2 L2C PC-based stride prefetcher final stats
Stride Degree: 15
MK1  MARKOV_LRU_SIZE: 128
MK1  MARKOV_PREDICTION_PERCENTTHRESHOLD: 40.00000
MK1  OUTLIERS_THRESHOLD_Max: 64
MK1  OUTLIERS_THRESHOLD_Min: 32
MK2  MARKOV_LRU_SIZE: 256
MK2  MARKOV_PREDICTION_PERCENTTHRESHOLD: 30.00000
MK2  OUTLIERS_THRESHOLD_Max: 32
MK2  OUTLIERS_THRESHOLD_Min: 16
MK3  MARKOV_LRU_SIZE: 384
MK3  MARKOV_PREDICTION_PERCENTTHRESHOLD: 25.00000
MK3  OUTLIERS_THRESHOLD_Max: 16
MK3  OUTLIERS_THRESHOLD_Min: 8
MK4  MARKOV_LRU_SIZE: 512
MK4  MARKOV_PREDICTION_PERCENTTHRESHOLD: 20.00000
MK4  OUTLIERS_THRESHOLD_Max: 8
MK4  OUTLIERS_THRESHOLD_Min: 0
IPStride Degree/Access Ratio: 1.92653
MK1 IPDEltaMarkov  Degree/Access Ratio: 0.49212
MK2 IPDEltaMarkov  Degree/Access Ratio: 0.65558
MK3 IPDEltaMarkov  Degree/Access Ratio: 0.77663
MK4 IPDEltaMarkov  Degree/Access Ratio: 1.21938
CPU 3 L1D next line prefetcher final stats
CPU 3 L2C PC-based stride prefetcher final stats
Stride Degree: 15
MK1  MARKOV_LRU_SIZE: 128
MK1  MARKOV_PREDICTION_PERCENTTHRESHOLD: 40.00000
MK1  OUTLIERS_THRESHOLD_Max: 64
MK1  OUTLIERS_THRESHOLD_Min: 32
MK2  MARKOV_LRU_SIZE: 256
MK2  MARKOV_PREDICTION_PERCENTTHRESHOLD: 30.00000
MK2  OUTLIERS_THRESHOLD_Max: 32
MK2  OUTLIERS_THRESHOLD_Min: 16
MK3  MARKOV_LRU_SIZE: 384
MK3  MARKOV_PREDICTION_PERCENTTHRESHOLD: 25.00000
MK3  OUTLIERS_THRESHOLD_Max: 16
MK3  OUTLIERS_THRESHOLD_Min: 8
MK4  MARKOV_LRU_SIZE: 512
MK4  MARKOV_PREDICTION_PERCENTTHRESHOLD: 20.00000
MK4  OUTLIERS_THRESHOLD_Max: 8
MK4  OUTLIERS_THRESHOLD_Min: 0
IPStride Degree/Access Ratio: 1.92653
MK1 IPDEltaMarkov  Degree/Access Ratio: 0.49212
MK2 IPDEltaMarkov  Degree/Access Ratio: 0.65558
MK3 IPDEltaMarkov  Degree/Access Ratio: 0.77663
MK4 IPDEltaMarkov  Degree/Access Ratio: 1.21938
Channel_0_RQ_row_buffer_hit 275983
Channel_0_RQ_row_buffer_miss 60116
Channel_0_WQ_row_buffer_hit 292
Channel_0_WQ_row_buffer_miss 1057
Channel_0_WQ_full 0
Channel_0_dbus_congested 199653

avg_congested_cycle 8

EzSearch AVG IPC :0.85014: L2-Pf-HR :0.89440 : L2-HR :0.89264 Uful:0.04508
EzSearch AVG IPC :0.85024: L2-Pf-HR :0.89062 : L2-HR :0.88895 Uful:0.04638
EzSearch AVG IPC :0.85423: L2-Pf-HR :0.87962 : L2-HR :0.88120 Uful:0.05464
EzSearch AVG IPC :0.85259: L2-Pf-HR :0.88725 : L2-HR :0.88692 Uful:0.05286
     > Finished combination: TraceType=770-tot Sim:16000000 Prefetcher=L2029-SecTOP-L2-MultiMarkovDelta_ip_stride_v4-IPStrS256 L1=next_line
