TRACE: [125000000][OPT-125M]_[h12][s512][d64] Warmup: 2000000 NumTraces: 125000000
L1:no:L2:spp_berti_src
Initialize SIGNATURE TABLE
ST_SET: 1
ST_WAY: 256
ST_TAG_BIT: 16
ST_TAG_MASK: ffff

Initialize PATTERN TABLE
PT_SET: 512
PT_WAY: 4
SIG_DELTA_BIT: 7
C_SIG_BIT: 4
C_DELTA_BIT: 4

Initialize PREFETCH FILTER
FILTER_SET: 1024
*************************************************
   ChampSim Multicore Out-of-Order Simulator
   Last compiled: Oct 29 2024 03:38:58
*************************************************

trace_0 770-tot_memTraces_v3/memTraces[125000000][OPT-125M]_[h12][s512][d64].champsim.xz
trace_1 770-tot_memTraces_v3/memTraces[125000000][OPT-125M]_[h12][s512][d64].champsim.xz
trace_2 770-tot_memTraces_v3/memTraces[125000000][OPT-125M]_[h12][s512][d64].champsim.xz
trace_3 770-tot_memTraces_v3/memTraces[125000000][OPT-125M]_[h12][s512][d64].champsim.xz
ST_WAYS: 256
PT_SETS: 512
ST_WAYS: 256
PT_SETS: 512
ST_WAYS: 256
PT_SETS: 512
ST_WAYS: 256
PT_SETS: 512
MAIN.cc ln 751 stats print skipped
CPU  1 inst:    1000001 cyc:     499361 now IPC :2.00256: AVG IPC :2.00256: L2-Pf-HR :0.97252: L2-HR :0.84139: (Sim:0h0m27s) 
CPU  0 inst:    1000001 cyc:     499438 now IPC :2.00225: AVG IPC :2.00225: L2-Pf-HR :0.97537: L2-HR :0.85454: (Sim:0h0m27s) 
CPU  2 inst:    1000001 cyc:     499488 now IPC :2.00205: AVG IPC :2.00205: L2-Pf-HR :0.98368: L2-HR :0.88418: (Sim:0h0m27s) 
CPU  3 inst:    1000001 cyc:     499498 now IPC :2.00201: AVG IPC :2.00201: L2-Pf-HR :0.98243: L2-HR :0.87667: (Sim:0h0m27s) 
CPU  1 inst:    2000000 cyc:     982042 now IPC :2.07176: AVG IPC :2.03657: L2-Pf-HR :0.98161: L2-HR :0.89230: (Sim:0h0m55s) 
CPU  0 inst:    2000000 cyc:     982107 now IPC :2.07181: AVG IPC :2.03644: L2-Pf-HR :0.98163: L2-HR :0.89771: (Sim:0h0m55s) 
CPU  2 inst:    2000000 cyc:     982249 now IPC :2.07142: AVG IPC :2.03614: L2-Pf-HR :0.98775: L2-HR :0.91893: (Sim:0h0m55s) 
CPU  3 inst:    2000000 cyc:     982287 now IPC :2.07130: AVG IPC :2.03606: L2-Pf-HR :0.98680: L2-HR :0.91273: (Sim:0h0m55s) 

Warmup complete CPU  0 instructions:    2000309 cycles:     982288 (Simulation time: 0 hr 0 min 55 sec) 
Warmup complete CPU  1 instructions:    2000471 cycles:     982288 (Simulation time: 0 hr 0 min 55 sec) 
Warmup complete CPU  2 instructions:    2000115 cycles:     982288 (Simulation time: 0 hr 0 min 55 sec) 
Warmup complete CPU  3 instructions:    2000003 cycles:     982288 (Simulation time: 0 hr 0 min 55 sec) 

CPU  1 inst:    3000001 cyc:    1710120 now IPC :1.37348: AVG IPC :1.37330: L2-Pf-HR :0.99626: L2-HR :0.91984: (Sim:0h1m21s) 
CPU  0 inst:    3000001 cyc:    1710335 now IPC :1.37320: AVG IPC :1.37311: L2-Pf-HR :0.99684: L2-HR :0.93008: (Sim:0h1m21s) 
CPU  3 inst:    3000001 cyc:    1711245 now IPC :1.37182: AVG IPC :1.37182: L2-Pf-HR :0.99704: L2-HR :0.93527: (Sim:0h1m21s) 
CPU  2 inst:    3000001 cyc:    1720504 now IPC :1.35455: AVG IPC :1.35446: L2-Pf-HR :0.99729: L2-HR :0.93820: (Sim:0h1m21s) 
CPU  1 inst:    4000000 cyc:    2392246 now IPC :1.46600: AVG IPC :1.41815: L2-Pf-HR :0.99584: L2-HR :0.90197: (Sim:0h1m46s) 
CPU  3 inst:    4000004 cyc:    2394850 now IPC :1.46284: AVG IPC :1.41587: L2-Pf-HR :0.99671: L2-HR :0.92253: (Sim:0h1m47s) 
CPU  0 inst:    4000000 cyc:    2395397 now IPC :1.45972: AVG IPC :1.41510: L2-Pf-HR :0.99630: L2-HR :0.91372: (Sim:0h1m47s) 
CPU  2 inst:    4000000 cyc:    2398542 now IPC :1.47484: AVG IPC :1.41209: L2-Pf-HR :0.99736: L2-HR :0.93368: (Sim:0h1m47s) 
CPU  1 inst:    5000001 cyc:    3056395 now IPC :1.50569: AVG IPC :1.44618: L2-Pf-HR :0.99652: L2-HR :0.89498: (Sim:0h2m13s) 
CPU  3 inst:    5000000 cyc:    3059778 now IPC :1.50392: AVG IPC :1.44405: L2-Pf-HR :0.99747: L2-HR :0.92155: (Sim:0h2m13s) 
CPU  0 inst:    5000001 cyc:    3066149 now IPC :1.49087: AVG IPC :1.43949: L2-Pf-HR :0.99710: L2-HR :0.90977: (Sim:0h2m14s) 
CPU  2 inst:    5000000 cyc:    3071593 now IPC :1.48577: AVG IPC :1.43583: L2-Pf-HR :0.99775: L2-HR :0.92691: (Sim:0h2m14s) 
CPU  1 inst:    6000004 cyc:    3765042 now IPC :1.41114: AVG IPC :1.43726: L2-Pf-HR :0.99749: L2-HR :0.90393: (Sim:0h2m40s) 
CPU  3 inst:    6000004 cyc:    3769570 now IPC :1.40887: AVG IPC :1.43509: L2-Pf-HR :0.99810: L2-HR :0.92693: (Sim:0h2m40s) 
CPU  0 inst:    6000001 cyc:    3781574 now IPC :1.39777: AVG IPC :1.42883: L2-Pf-HR :0.99785: L2-HR :0.91621: (Sim:0h2m41s) 
CPU  2 inst:    6000004 cyc:    3784560 now IPC :1.40260: AVG IPC :1.42737: L2-Pf-HR :0.99835: L2-HR :0.93235: (Sim:0h2m41s) 
CPU  1 inst:    7000005 cyc:    4478440 now IPC :1.40174: AVG IPC :1.43001: L2-Pf-HR :0.99796: L2-HR :0.90846: (Sim:0h3m7s) 
CPU  3 inst:    7000005 cyc:    4487881 now IPC :1.39216: AVG IPC :1.42629: L2-Pf-HR :0.99843: L2-HR :0.92972: (Sim:0h3m8s) 
CPU  0 inst:    7000005 cyc:    4488679 now IPC :1.41422: AVG IPC :1.42588: L2-Pf-HR :0.99823: L2-HR :0.91972: (Sim:0h3m8s) 
CPU  2 inst:    7000005 cyc:    4490805 now IPC :1.41594: AVG IPC :1.42507: L2-Pf-HR :0.99865: L2-HR :0.93500: (Sim:0h3m8s) 
CPU  0 inst:    8000005 cyc:    5170474 now IPC :1.46672: AVG IPC :1.43253: L2-Pf-HR :0.99812: L2-HR :0.91690: (Sim:0h3m34s) 
CPU  1 inst:    8000005 cyc:    5171286 now IPC :1.44332: AVG IPC :1.43221: L2-Pf-HR :0.99782: L2-HR :0.90564: (Sim:0h3m34s) 
CPU  2 inst:    8000004 cyc:    5171809 now IPC :1.46842: AVG IPC :1.43212: L2-Pf-HR :0.99863: L2-HR :0.93449: (Sim:0h3m34s) 
CPU  3 inst:    8000005 cyc:    5172098 now IPC :1.46152: AVG IPC :1.43205: L2-Pf-HR :0.99837: L2-HR :0.92789: (Sim:0h3m34s) 
CPU  1 inst:    9000004 cyc:    5858971 now IPC :1.45415: AVG IPC :1.43531: L2-Pf-HR :0.99782: L2-HR :0.90179: (Sim:0h4m1s) 
CPU  0 inst:    9000004 cyc:    5860846 now IPC :1.44849: AVG IPC :1.43479: L2-Pf-HR :0.99814: L2-HR :0.91326: (Sim:0h4m1s) 
CPU  3 inst:    9000004 cyc:    5862498 now IPC :1.44843: AVG IPC :1.43436: L2-Pf-HR :0.99842: L2-HR :0.92575: (Sim:0h4m1s) 
CPU  2 inst:    9000004 cyc:    5866272 now IPC :1.43996: AVG IPC :1.43323: L2-Pf-HR :0.99863: L2-HR :0.93149: (Sim:0h4m1s) 
CPU  1 inst:   10000001 cyc:    6593386 now IPC :1.36162: AVG IPC :1.42566: L2-Pf-HR :0.99810: L2-HR :0.90609: (Sim:0h4m28s) 
CPU  0 inst:   10000001 cyc:    6593791 now IPC :1.36435: AVG IPC :1.42559: L2-Pf-HR :0.99837: L2-HR :0.91672: (Sim:0h4m28s) 
CPU  3 inst:   10000001 cyc:    6596380 now IPC :1.36261: AVG IPC :1.42499: L2-Pf-HR :0.99858: L2-HR :0.92781: (Sim:0h4m28s) 
CPU  2 inst:   10000001 cyc:    6598560 now IPC :1.36558: AVG IPC :1.42441: L2-Pf-HR :0.99877: L2-HR :0.93333: (Sim:0h4m28s) 
CPU  1 inst:   11000005 cyc:    7323705 now IPC :1.36927: AVG IPC :1.41917: L2-Pf-HR :0.99829: L2-HR :0.90919: (Sim:0h4m55s) 
CPU  0 inst:   11000005 cyc:    7324237 now IPC :1.36903: AVG IPC :1.41907: L2-Pf-HR :0.99856: L2-HR :0.91995: (Sim:0h4m55s) 
CPU  3 inst:   11000005 cyc:    7325804 now IPC :1.37095: AVG IPC :1.41877: L2-Pf-HR :0.99870: L2-HR :0.92938: (Sim:0h4m55s) 
CPU  2 inst:   11000005 cyc:    7326332 now IPC :1.37406: AVG IPC :1.41864: L2-Pf-HR :0.99888: L2-HR :0.93481: (Sim:0h4m55s) 
CPU  0 inst:   12000005 cyc:    8002747 now IPC :1.47382: AVG IPC :1.42437: L2-Pf-HR :0.99856: L2-HR :0.91973: (Sim:0h5m22s) 
CPU  3 inst:   12000005 cyc:    8006034 now IPC :1.47009: AVG IPC :1.42374: L2-Pf-HR :0.99867: L2-HR :0.92899: (Sim:0h5m22s) 
CPU  1 inst:   12000005 cyc:    8007208 now IPC :1.46305: AVG IPC :1.42344: L2-Pf-HR :0.99824: L2-HR :0.90816: (Sim:0h5m22s) 
CPU  2 inst:   12000005 cyc:    8009848 now IPC :1.46302: AVG IPC :1.42295: L2-Pf-HR :0.99887: L2-HR :0.93457: (Sim:0h5m22s) 
CPU  0 inst:   13000002 cyc:    8671015 now IPC :1.49640: AVG IPC :1.43063: L2-Pf-HR :0.99851: L2-HR :0.91653: (Sim:0h5m48s) 
CPU  1 inst:   13000002 cyc:    8672227 now IPC :1.50371: AVG IPC :1.43038: L2-Pf-HR :0.99820: L2-HR :0.90511: (Sim:0h5m48s) 
CPU  3 inst:   13000002 cyc:    8673812 now IPC :1.49750: AVG IPC :1.43015: L2-Pf-HR :0.99865: L2-HR :0.92723: (Sim:0h5m49s) 
CPU  2 inst:   13000002 cyc:    8677353 now IPC :1.49811: AVG IPC :1.42947: L2-Pf-HR :0.99887: L2-HR :0.93299: (Sim:0h5m49s) 
CPU  0 inst:   14000005 cyc:    9276014 now IPC :1.65290: AVG IPC :1.44684: L2-Pf-HR :0.99860: L2-HR :0.91896: (Sim:0h6m15s) 
CPU  1 inst:   14000005 cyc:    9276136 now IPC :1.65588: AVG IPC :1.44680: L2-Pf-HR :0.99830: L2-HR :0.90693: (Sim:0h6m15s) 
CPU  3 inst:   14000005 cyc:    9276548 now IPC :1.65911: AVG IPC :1.44678: L2-Pf-HR :0.99872: L2-HR :0.92831: (Sim:0h6m15s) 
CPU  2 inst:   14000005 cyc:    9280046 now IPC :1.65922: AVG IPC :1.44616: L2-Pf-HR :0.99893: L2-HR :0.93393: (Sim:0h6m15s) 
CPU  0 inst:   15000001 cyc:    9899373 now IPC :1.60421: AVG IPC :1.45784: L2-Pf-HR :0.99866: L2-HR :0.92021: (Sim:0h6m41s) 
CPU  3 inst:   15000001 cyc:    9902087 now IPC :1.59861: AVG IPC :1.45743: L2-Pf-HR :0.99878: L2-HR :0.92948: (Sim:0h6m41s) 
CPU  1 inst:   15000001 cyc:    9902364 now IPC :1.59686: AVG IPC :1.45733: L2-Pf-HR :0.99838: L2-HR :0.90906: (Sim:0h6m41s) 
CPU  2 inst:   15000001 cyc:    9904469 now IPC :1.60147: AVG IPC :1.45703: L2-Pf-HR :0.99897: L2-HR :0.93509: (Sim:0h6m41s) 
CPU  3 inst:   16000000 cyc:   10530004 now IPC :1.59257: AVG IPC :1.46632: L2-Pf-HR :0.99875: L2-HR :0.92923: (Sim:0h7m7s) 
CPU  0 inst:   16000000 cyc:   10532622 now IPC :1.57916: AVG IPC :1.46588: L2-Pf-HR :0.99862: L2-HR :0.91955: (Sim:0h7m7s) 
CPU  2 inst:   16000000 cyc:   10534319 now IPC :1.58768: AVG IPC :1.46564: L2-Pf-HR :0.99892: L2-HR :0.93497: (Sim:0h7m7s) 
CPU  1 inst:   16000000 cyc:   10534519 now IPC :1.58189: AVG IPC :1.46558: L2-Pf-HR :0.99835: L2-HR :0.90871: (Sim:0h7m7s) 
CPU  3 inst:   17000000 cyc:   11221497 now IPC :1.44615: AVG IPC :1.46496: L2-Pf-HR :0.99871: L2-HR :0.92755: (Sim:0h7m34s) 
CPU  0 inst:   17000000 cyc:   11226376 now IPC :1.44143: AVG IPC :1.46423: L2-Pf-HR :0.99855: L2-HR :0.91691: (Sim:0h7m35s) 
CPU  1 inst:   17000000 cyc:   11229021 now IPC :1.43988: AVG IPC :1.46384: L2-Pf-HR :0.99826: L2-HR :0.90595: (Sim:0h7m35s) 
CPU  2 inst:   17000000 cyc:   11230679 now IPC :1.43604: AVG IPC :1.46363: L2-Pf-HR :0.99885: L2-HR :0.93334: (Sim:0h7m35s) 
CPU  3 inst:   18000001 cyc:   11882044 now IPC :1.51390: AVG IPC :1.46792: L2-Pf-HR :0.99872: L2-HR :0.92737: (Sim:0h8m1s) 
CPU  1 inst:   18000001 cyc:   11892141 now IPC :1.50802: AVG IPC :1.46652: L2-Pf-HR :0.99829: L2-HR :0.90592: (Sim:0h8m2s) 
CPU  0 inst:   18000001 cyc:   11892763 now IPC :1.50063: AVG IPC :1.46645: L2-Pf-HR :0.99858: L2-HR :0.91726: (Sim:0h8m2s) 
CPU  2 inst:   18000001 cyc:   11894383 now IPC :1.50670: AVG IPC :1.46625: L2-Pf-HR :0.99888: L2-HR :0.93303: (Sim:0h8m2s) 
CPU  3 inst:   19000004 cyc:   12607589 now IPC :1.37828: AVG IPC :1.46233: L2-Pf-HR :0.99874: L2-HR :0.92690: (Sim:0h8m28s) 
CPU  1 inst:   19000004 cyc:   12620256 now IPC :1.37341: AVG IPC :1.46070: L2-Pf-HR :0.99835: L2-HR :0.90574: (Sim:0h8m29s) 
CPU  2 inst:   19000004 cyc:   12622041 now IPC :1.37428: AVG IPC :1.46050: L2-Pf-HR :0.99891: L2-HR :0.93255: (Sim:0h8m29s) 
CPU  0 inst:   19000004 cyc:   12623321 now IPC :1.36882: AVG IPC :1.46033: L2-Pf-HR :0.99862: L2-HR :0.91684: (Sim:0h8m29s) 
CPU  1 inst:   20000000 cyc:   13305301 now IPC :1.45975: AVG IPC :1.46064: L2-Pf-HR :0.99833: L2-HR :0.90568: (Sim:0h8m55s) 
CPU  3 inst:   20000000 cyc:   13305314 now IPC :1.43322: AVG IPC :1.46068: L2-Pf-HR :0.99872: L2-HR :0.92696: (Sim:0h8m55s) 
CPU  2 inst:   20000003 cyc:   13308580 now IPC :1.45658: AVG IPC :1.46028: L2-Pf-HR :0.99889: L2-HR :0.93254: (Sim:0h8m55s) 
CPU  0 inst:   20000000 cyc:   13308726 now IPC :1.45899: AVG IPC :1.46025: L2-Pf-HR :0.99860: L2-HR :0.91661: (Sim:0h8m55s) 
CPU  0 inst:   21000005 cyc:   14092034 now IPC :1.27664: AVG IPC :1.44928: L2-Pf-HR :0.99857: L2-HR :0.91436: (Sim:0h9m23s) 
CPU  1 inst:   21000003 cyc:   14099764 now IPC :1.25872: AVG IPC :1.44841: L2-Pf-HR :0.99830: L2-HR :0.90361: (Sim:0h9m23s) 
CPU  3 inst:   21000005 cyc:   14100604 now IPC :1.25741: AVG IPC :1.44836: L2-Pf-HR :0.99870: L2-HR :0.92552: (Sim:0h9m23s) 
CPU  2 inst:   21000005 cyc:   14102244 now IPC :1.25998: AVG IPC :1.44817: L2-Pf-HR :0.99888: L2-HR :0.93146: (Sim:0h9m23s) 
CPU  0 inst:   22000004 cyc:   14932060 now IPC :1.19044: AVG IPC :1.43369: L2-Pf-HR :0.99860: L2-HR :0.91455: (Sim:0h9m51s) 
CPU  1 inst:   22000004 cyc:   14942979 now IPC :1.18594: AVG IPC :1.43256: L2-Pf-HR :0.99835: L2-HR :0.90366: (Sim:0h9m51s) 
CPU  3 inst:   22000004 cyc:   14944689 now IPC :1.18471: AVG IPC :1.43242: L2-Pf-HR :0.99873: L2-HR :0.92543: (Sim:0h9m51s) 
CPU  2 inst:   22000004 cyc:   14944791 now IPC :1.18688: AVG IPC :1.43240: L2-Pf-HR :0.99890: L2-HR :0.93124: (Sim:0h9m51s) 
CPU  1 inst:   23000003 cyc:   15875903 now IPC :1.07190: AVG IPC :1.40997: L2-Pf-HR :0.99838: L2-HR :0.90398: (Sim:0h10m20s) 
CPU  0 inst:   23000003 cyc:   15876480 now IPC :1.05885: AVG IPC :1.40992: L2-Pf-HR :0.99864: L2-HR :0.91523: (Sim:0h10m20s) 
CPU  2 inst:   23000003 cyc:   15880630 now IPC :1.06856: AVG IPC :1.40955: L2-Pf-HR :0.99893: L2-HR :0.93116: (Sim:0h10m20s) 
CPU  3 inst:   23000003 cyc:   15895969 now IPC :1.05121: AVG IPC :1.40810: L2-Pf-HR :0.99875: L2-HR :0.92527: (Sim:0h10m20s) 
CPU  2 inst:   24000004 cyc:   16807633 now IPC :1.07875: AVG IPC :1.39017: L2-Pf-HR :0.99891: L2-HR :0.93122: (Sim:0h10m50s) 
CPU  1 inst:   24000004 cyc:   16813350 now IPC :1.06673: AVG IPC :1.38964: L2-Pf-HR :0.99835: L2-HR :0.90428: (Sim:0h10m51s) 
CPU  0 inst:   24000004 cyc:   16815283 now IPC :1.06519: AVG IPC :1.38948: L2-Pf-HR :0.99860: L2-HR :0.91575: (Sim:0h10m51s) 
CPU  3 inst:   24000004 cyc:   16816418 now IPC :1.08643: AVG IPC :1.38940: L2-Pf-HR :0.99873: L2-HR :0.92532: (Sim:0h10m51s) 
CPU  3 inst:   25000003 cyc:   17825111 now IPC :0.99138: AVG IPC :1.36557: L2-Pf-HR :0.99870: L2-HR :0.92425: (Sim:0h11m20s) 
CPU  2 inst:   25000003 cyc:   17843712 now IPC :0.96518: AVG IPC :1.36405: L2-Pf-HR :0.99891: L2-HR :0.93031: (Sim:0h11m21s) 
CPU  1 inst:   25000003 cyc:   17848375 now IPC :0.96616: AVG IPC :1.36366: L2-Pf-HR :0.99830: L2-HR :0.90241: (Sim:0h11m21s) 
CPU  0 inst:   25000003 cyc:   17850561 now IPC :0.96592: AVG IPC :1.36349: L2-Pf-HR :0.99857: L2-HR :0.91388: (Sim:0h11m21s) 
CPU  3 inst:   26000002 cyc:   18722049 now IPC :1.11490: AVG IPC :1.35289: L2-Pf-HR :0.99874: L2-HR :0.92491: (Sim:0h11m48s) 
CPU  1 inst:   26000002 cyc:   18752157 now IPC :1.10646: AVG IPC :1.35057: L2-Pf-HR :0.99834: L2-HR :0.90327: (Sim:0h11m49s) 
CPU  2 inst:   26000002 cyc:   18752460 now IPC :1.10041: AVG IPC :1.35057: L2-Pf-HR :0.99894: L2-HR :0.93086: (Sim:0h11m49s) 
CPU  0 inst:   26000005 cyc:   18758519 now IPC :1.10137: AVG IPC :1.35010: L2-Pf-HR :0.99861: L2-HR :0.91458: (Sim:0h11m49s) 
CPU  3 inst:   27000003 cyc:   19690266 now IPC :1.03283: AVG IPC :1.33633: L2-Pf-HR :0.99878: L2-HR :0.92562: (Sim:0h12m17s) 
CPU  1 inst:   27000003 cyc:   19719197 now IPC :1.03408: AVG IPC :1.33424: L2-Pf-HR :0.99840: L2-HR :0.90443: (Sim:0h12m18s) 
CPU  2 inst:   27000003 cyc:   19727526 now IPC :1.02557: AVG IPC :1.33367: L2-Pf-HR :0.99897: L2-HR :0.93154: (Sim:0h12m18s) 
CPU  0 inst:   27000003 cyc:   19728134 now IPC :1.03134: AVG IPC :1.33361: L2-Pf-HR :0.99866: L2-HR :0.91571: (Sim:0h12m18s) 
CPU  3 inst:   28000002 cyc:   20682579 now IPC :1.00775: AVG IPC :1.31978: L2-Pf-HR :0.99875: L2-HR :0.92617: (Sim:0h12m46s) 
CPU  1 inst:   28000002 cyc:   20784101 now IPC :0.93905: AVG IPC :1.31299: L2-Pf-HR :0.99831: L2-HR :0.90512: (Sim:0h12m49s) 
CPU  2 inst:   28000002 cyc:   20798392 now IPC :0.93382: AVG IPC :1.31206: L2-Pf-HR :0.99894: L2-HR :0.93190: (Sim:0h12m50s) 
CPU  0 inst:   28000002 cyc:   20804283 now IPC :0.92924: AVG IPC :1.31166: L2-Pf-HR :0.99862: L2-HR :0.91677: (Sim:0h12m50s) 
CPU  3 inst:   29000002 cyc:   21549322 now IPC :1.15374: AVG IPC :1.31278: L2-Pf-HR :0.99861: L2-HR :0.92506: (Sim:0h13m15s) 
CPU  2 inst:   29000002 cyc:   21770976 now IPC :1.02819: AVG IPC :1.29878: L2-Pf-HR :0.99888: L2-HR :0.93094: (Sim:0h13m20s) 
CPU  0 inst:   29000002 cyc:   21773278 now IPC :1.03200: AVG IPC :1.29862: L2-Pf-HR :0.99854: L2-HR :0.91506: (Sim:0h13m20s) 
CPU  1 inst:   29000002 cyc:   21776754 now IPC :1.00740: AVG IPC :1.29840: L2-Pf-HR :0.99822: L2-HR :0.90340: (Sim:0h13m20s) 
CPU  3 inst:   30000000 cyc:   22403583 now IPC :1.17060: AVG IPC :1.30711: L2-Pf-HR :0.99863: L2-HR :0.92551: (Sim:0h13m40s) 
CPU  1 inst:   30000000 cyc:   22687653 now IPC :1.09781: AVG IPC :1.28998: L2-Pf-HR :0.99826: L2-HR :0.90419: (Sim:0h13m50s) 
CPU  0 inst:   30000000 cyc:   22689517 now IPC :1.09142: AVG IPC :1.28988: L2-Pf-HR :0.99857: L2-HR :0.91601: (Sim:0h13m50s) 
CPU  2 inst:   30000000 cyc:   22690239 now IPC :1.08783: AVG IPC :1.28984: L2-Pf-HR :0.99890: L2-HR :0.93142: (Sim:0h13m50s) 
CPU  3 inst:   31000001 cyc:   23092660 now IPC :1.45122: AVG IPC :1.31160: L2-Pf-HR :0.99866: L2-HR :0.92604: (Sim:0h14m3s) 
CPU  0 inst:   31000001 cyc:   23771987 now IPC :0.92381: AVG IPC :1.27249: L2-Pf-HR :0.99850: L2-HR :0.91691: (Sim:0h14m21s) 
CPU  2 inst:   31000001 cyc:   23779853 now IPC :0.91776: AVG IPC :1.27206: L2-Pf-HR :0.99883: L2-HR :0.93175: (Sim:0h14m22s) 
CPU  1 inst:   31000001 cyc:   23788751 now IPC :0.90819: AVG IPC :1.27155: L2-Pf-HR :0.99817: L2-HR :0.90497: (Sim:0h14m22s) 
CPU  3 inst:   32000003 cyc:   24040526 now IPC :1.05500: AVG IPC :1.30105: L2-Pf-HR :0.99869: L2-HR :0.92659: (Sim:0h14m30s) 
CPU  2 inst:   32000005 cyc:   24820780 now IPC :0.96069: AVG IPC :1.25846: L2-Pf-HR :0.99881: L2-HR :0.93201: (Sim:0h14m52s) 
CPU  0 inst:   32000003 cyc:   24828966 now IPC :0.94609: AVG IPC :1.25802: L2-Pf-HR :0.99847: L2-HR :0.91753: (Sim:0h14m53s) 
CPU  1 inst:   32000003 cyc:   24836693 now IPC :0.95425: AVG IPC :1.25761: L2-Pf-HR :0.99812: L2-HR :0.90554: (Sim:0h14m53s) 
CPU  3 inst:   33000003 cyc:   25106326 now IPC :0.93826: AVG IPC :1.28503: L2-Pf-HR :0.99862: L2-HR :0.92559: (Sim:0h15m1s) 
CPU  0 inst:   33000003 cyc:   25996924 now IPC :0.85620: AVG IPC :1.23926: L2-Pf-HR :0.99838: L2-HR :0.91599: (Sim:0h15m25s) 
CPU  2 inst:   33000003 cyc:   26001645 now IPC :0.84684: AVG IPC :1.23904: L2-Pf-HR :0.99875: L2-HR :0.93122: (Sim:0h15m25s) 
CPU  1 inst:   33000003 cyc:   26002538 now IPC :0.85775: AVG IPC :1.23898: L2-Pf-HR :0.99799: L2-HR :0.90396: (Sim:0h15m26s) 
CPU  3 inst:   34000004 cyc:   26132963 now IPC :0.97406: AVG IPC :1.27233: L2-Pf-HR :0.99857: L2-HR :0.92552: (Sim:0h15m28s) 
CPU  3 inst:   35000005 cyc:   27075907 now IPC :1.06051: AVG IPC :1.26468: L2-Pf-HR :0.99859: L2-HR :0.92580: (Sim:0h15m56s) 
CPU  0 inst:   34000004 cyc:   27179251 now IPC :0.84579: AVG IPC :1.22150: L2-Pf-HR :0.99840: L2-HR :0.91604: (Sim:0h15m58s) 
CPU  1 inst:   34000004 cyc:   27225019 now IPC :0.81801: AVG IPC :1.21937: L2-Pf-HR :0.99803: L2-HR :0.90423: (Sim:0h16m0s) 
CPU  2 inst:   34000004 cyc:   27245360 now IPC :0.80404: AVG IPC :1.21844: L2-Pf-HR :0.99877: L2-HR :0.93124: (Sim:0h16m0s) 
CPU  3 inst:   36000000 cyc:   27988722 now IPC :1.09551: AVG IPC :1.25896: L2-Pf-HR :0.99860: L2-HR :0.92591: (Sim:0h16m23s) 
CPU  0 inst:   35000005 cyc:   28314238 now IPC :0.88107: AVG IPC :1.20737: L2-Pf-HR :0.99843: L2-HR :0.91659: (Sim:0h16m30s) 
CPU  1 inst:   35000000 cyc:   28380029 now IPC :0.86579: AVG IPC :1.20446: L2-Pf-HR :0.99807: L2-HR :0.90480: (Sim:0h16m32s) 
CPU  2 inst:   35000000 cyc:   28392429 now IPC :0.87178: AVG IPC :1.20393: L2-Pf-HR :0.99878: L2-HR :0.93151: (Sim:0h16m33s) 
CPU  3 inst:   37000005 cyc:   29191519 now IPC :0.83140: AVG IPC :1.24073: L2-Pf-HR :0.99851: L2-HR :0.92535: (Sim:0h16m55s) 
CPU  0 inst:   36000000 cyc:   29510901 now IPC :0.83565: AVG IPC :1.19178: L2-Pf-HR :0.99832: L2-HR :0.91658: (Sim:0h17m4s) 
CPU  1 inst:   36000000 cyc:   29518913 now IPC :0.87805: AVG IPC :1.19143: L2-Pf-HR :0.99794: L2-HR :0.90467: (Sim:0h17m4s) 
CPU  2 inst:   36000000 cyc:   29523660 now IPC :0.88399: AVG IPC :1.19125: L2-Pf-HR :0.99870: L2-HR :0.93121: (Sim:0h17m4s) 
CPU  3 inst:   38000004 cyc:   30251755 now IPC :0.94319: AVG IPC :1.22995: L2-Pf-HR :0.99849: L2-HR :0.92506: (Sim:0h17m26s) 
CPU  1 inst:   37000005 cyc:   30477304 now IPC :1.04342: AVG IPC :1.18663: L2-Pf-HR :0.99783: L2-HR :0.90372: (Sim:0h17m34s) 
CPU  0 inst:   37000005 cyc:   30477553 now IPC :1.03450: AVG IPC :1.18662: L2-Pf-HR :0.99825: L2-HR :0.91567: (Sim:0h17m34s) 
CPU  2 inst:   37000005 cyc:   30480251 now IPC :1.04538: AVG IPC :1.18652: L2-Pf-HR :0.99866: L2-HR :0.93095: (Sim:0h17m34s) 
CPU  3 inst:   39000003 cyc:   31359942 now IPC :0.90237: AVG IPC :1.21800: L2-Pf-HR :0.99851: L2-HR :0.92519: (Sim:0h17m55s) 
CPU  2 inst:   38000004 cyc:   31863605 now IPC :0.72288: AVG IPC :1.16575: L2-Pf-HR :0.99867: L2-HR :0.93065: (Sim:0h18m9s) 
CPU  1 inst:   38000003 cyc:   31884781 now IPC :0.71049: AVG IPC :1.16494: L2-Pf-HR :0.99785: L2-HR :0.90356: (Sim:0h18m10s) 
CPU  0 inst:   38000004 cyc:   31888108 now IPC :0.70894: AVG IPC :1.16482: L2-Pf-HR :0.99826: L2-HR :0.91556: (Sim:0h18m10s) 
CPU  3 inst:   40000000 cyc:   32502037 now IPC :0.87558: AVG IPC :1.20559: L2-Pf-HR :0.99854: L2-HR :0.92564: (Sim:0h18m26s) 
CPU  2 inst:   39000002 cyc:   33123495 now IPC :0.79372: AVG IPC :1.15117: L2-Pf-HR :0.99864: L2-HR :0.93084: (Sim:0h18m42s) 
CPU  1 inst:   39000002 cyc:   33128149 now IPC :0.80427: AVG IPC :1.15099: L2-Pf-HR :0.99782: L2-HR :0.90397: (Sim:0h18m42s) 
CPU  0 inst:   39000003 cyc:   33147507 now IPC :0.79403: AVG IPC :1.15030: L2-Pf-HR :0.99824: L2-HR :0.91598: (Sim:0h18m43s) 
CPU  3 inst:   41000000 cyc:   33526602 now IPC :0.97602: AVG IPC :1.19837: L2-Pf-HR :0.99844: L2-HR :0.92519: (Sim:0h18m54s) 
CPU  1 inst:   40000000 cyc:   34228903 now IPC :0.90847: AVG IPC :1.14296: L2-Pf-HR :0.99779: L2-HR :0.90444: (Sim:0h19m13s) 
CPU  0 inst:   40000000 cyc:   34241377 now IPC :0.91418: AVG IPC :1.14254: L2-Pf-HR :0.99820: L2-HR :0.91665: (Sim:0h19m13s) 
CPU  2 inst:   40000000 cyc:   34244114 now IPC :0.89236: AVG IPC :1.14245: L2-Pf-HR :0.99862: L2-HR :0.93101: (Sim:0h19m13s) 
CPU  3 inst:   42000002 cyc:   34635674 now IPC :0.90166: AVG IPC :1.18859: L2-Pf-HR :0.99845: L2-HR :0.92500: (Sim:0h19m25s) 
CPU  1 inst:   41000003 cyc:   35294284 now IPC :0.93863: AVG IPC :1.13662: L2-Pf-HR :0.99768: L2-HR :0.90376: (Sim:0h19m45s) 
CPU  2 inst:   41000003 cyc:   35303082 now IPC :0.94432: AVG IPC :1.13633: L2-Pf-HR :0.99856: L2-HR :0.93085: (Sim:0h19m45s) 
CPU  0 inst:   41000000 cyc:   35310103 now IPC :0.93569: AVG IPC :1.13610: L2-Pf-HR :0.99810: L2-HR :0.91602: (Sim:0h19m45s) 
CPU  3 inst:   43000000 cyc:   35496526 now IPC :1.16164: AVG IPC :1.18792: L2-Pf-HR :0.99838: L2-HR :0.92496: (Sim:0h19m51s) 
CPU  3 inst:   44000001 cyc:   36551580 now IPC :0.94782: AVG IPC :1.18079: L2-Pf-HR :0.99840: L2-HR :0.92502: (Sim:0h20m18s) 
CPU  2 inst:   42000002 cyc:   36803265 now IPC :0.66658: AVG IPC :1.11666: L2-Pf-HR :0.99855: L2-HR :0.93035: (Sim:0h20m26s) 
CPU  0 inst:   42000002 cyc:   36805730 now IPC :0.66862: AVG IPC :1.11658: L2-Pf-HR :0.99810: L2-HR :0.91553: (Sim:0h20m26s) 
CPU  1 inst:   42000002 cyc:   36807684 now IPC :0.66076: AVG IPC :1.11651: L2-Pf-HR :0.99768: L2-HR :0.90328: (Sim:0h20m26s) 
CPU  3 inst:   45000001 cyc:   37624810 now IPC :0.93177: AVG IPC :1.17350: L2-Pf-HR :0.99823: L2-HR :0.92467: (Sim:0h20m52s) 
CPU  1 inst:   43000000 cyc:   37992419 now IPC :0.84407: AVG IPC :1.10779: L2-Pf-HR :0.99747: L2-HR :0.90339: (Sim:0h21m2s) 
CPU  0 inst:   43000000 cyc:   37993000 now IPC :0.84227: AVG IPC :1.10778: L2-Pf-HR :0.99794: L2-HR :0.91557: (Sim:0h21m2s) 
CPU  2 inst:   43000000 cyc:   37997980 now IPC :0.83702: AVG IPC :1.10764: L2-Pf-HR :0.99841: L2-HR :0.93025: (Sim:0h21m3s) 
CPU  3 inst:   46000000 cyc:   39213764 now IPC :0.62934: AVG IPC :1.15088: L2-Pf-HR :0.99825: L2-HR :0.92447: (Sim:0h21m33s) 
CPU  0 inst:   44000001 cyc:   39333374 now IPC :0.74606: AVG IPC :1.09514: L2-Pf-HR :0.99798: L2-HR :0.91586: (Sim:0h21m36s) 
CPU  1 inst:   44000001 cyc:   39365329 now IPC :0.72838: AVG IPC :1.09422: L2-Pf-HR :0.99753: L2-HR :0.90387: (Sim:0h21m37s) 
CPU  2 inst:   44000001 cyc:   39368690 now IPC :0.72955: AVG IPC :1.09413: L2-Pf-HR :0.99844: L2-HR :0.93044: (Sim:0h21m37s) 
CPU  3 inst:   47000004 cyc:   40296944 now IPC :0.92321: AVG IPC :1.14461: L2-Pf-HR :0.99828: L2-HR :0.92473: (Sim:0h22m4s) 
CPU  0 inst:   45000001 cyc:   40468509 now IPC :0.88095: AVG IPC :1.08898: L2-Pf-HR :0.99795: L2-HR :0.91545: (Sim:0h22m8s) 
CPU  2 inst:   45000001 cyc:   40479579 now IPC :0.90018: AVG IPC :1.08868: L2-Pf-HR :0.99841: L2-HR :0.93041: (Sim:0h22m8s) 
CPU  1 inst:   45000001 cyc:   40487267 now IPC :0.89131: AVG IPC :1.08846: L2-Pf-HR :0.99749: L2-HR :0.90349: (Sim:0h22m8s) 
CPU  3 inst:   48000002 cyc:   41386208 now IPC :0.91805: AVG IPC :1.13850: L2-Pf-HR :0.99826: L2-HR :0.92480: (Sim:0h22m31s) 
CPU  0 inst:   46000002 cyc:   41819539 now IPC :0.74018: AVG IPC :1.07744: L2-Pf-HR :0.99792: L2-HR :0.91493: (Sim:0h22m43s) 
CPU  2 inst:   46000002 cyc:   41840933 now IPC :0.73456: AVG IPC :1.07688: L2-Pf-HR :0.99838: L2-HR :0.93004: (Sim:0h22m44s) 
CPU  1 inst:   46000001 cyc:   41853947 now IPC :0.73170: AVG IPC :1.07653: L2-Pf-HR :0.99746: L2-HR :0.90307: (Sim:0h22m44s) 
CPU  3 inst:   49000004 cyc:   42410879 now IPC :0.97592: AVG IPC :1.13448: L2-Pf-HR :0.99816: L2-HR :0.92463: (Sim:0h23m0s) 
CPU  0 inst:   47000004 cyc:   42973485 now IPC :0.86659: AVG IPC :1.07165: L2-Pf-HR :0.99775: L2-HR :0.91491: (Sim:0h23m16s) 
CPU  1 inst:   47000004 cyc:   42989225 now IPC :0.88084: AVG IPC :1.07124: L2-Pf-HR :0.99726: L2-HR :0.90295: (Sim:0h23m17s) 
CPU  2 inst:   47000004 cyc:   42993756 now IPC :0.86744: AVG IPC :1.07113: L2-Pf-HR :0.99825: L2-HR :0.92976: (Sim:0h23m17s) 
CPU  0 inst:   48000002 cyc:   44488411 now IPC :0.66010: AVG IPC :1.05732: L2-Pf-HR :0.99781: L2-HR :0.91532: (Sim:0h23m48s) 
CPU  1 inst:   48000005 cyc:   44517390 now IPC :0.65438: AVG IPC :1.05661: L2-Pf-HR :0.99732: L2-HR :0.90341: (Sim:0h23m48s) 
CPU  2 inst:   48000005 cyc:   44533378 now IPC :0.64951: AVG IPC :1.05623: L2-Pf-HR :0.99829: L2-HR :0.93002: (Sim:0h23m49s) 
CPU  0 inst:   49000004 cyc:   45831633 now IPC :0.74448: AVG IPC :1.04795: L2-Pf-HR :0.99772: L2-HR :0.91509: (Sim:0h24m20s) 
CPU  1 inst:   49000004 cyc:   45833913 now IPC :0.75958: AVG IPC :1.04789: L2-Pf-HR :0.99722: L2-HR :0.90319: (Sim:0h24m20s) 
CPU  2 inst:   49000001 cyc:   45837241 now IPC :0.76695: AVG IPC :1.04782: L2-Pf-HR :0.99825: L2-HR :0.92995: (Sim:0h24m20s) 
CPU  3 inst:   50000004 cyc:   50332212 now IPC :0.12624: AVG IPC :0.97265: L2-Pf-HR :0.99773: L2-HR :0.90850: (Sim:0h25m31s) 
CPU  2 inst:   50000001 cyc:   56346423 now IPC :0.09515: AVG IPC :0.86699: L2-Pf-HR :0.99789: L2-HR :0.91478: (Sim:0h27m10s) 
CPU  0 inst:   50000001 cyc:   56582107 now IPC :0.09302: AVG IPC :0.86331: L2-Pf-HR :0.99725: L2-HR :0.89727: (Sim:0h27m14s) 
CPU  1 inst:   50000001 cyc:   56677356 now IPC :0.09222: AVG IPC :0.86183: L2-Pf-HR :0.99666: L2-HR :0.88360: (Sim:0h27m16s) 
CPU  3 inst:   51000003 cyc:   68248958 now IPC :0.05581: AVG IPC :0.72844: L2-Pf-HR :0.99713: L2-HR :0.88240: (Sim:0h31m46s) 
CPU  2 inst:   51000000 cyc:   74764026 now IPC :0.05430: AVG IPC :0.66412: L2-Pf-HR :0.99737: L2-HR :0.88997: (Sim:0h35m16s) 
CPU  0 inst:   51000003 cyc:   75291429 now IPC :0.05345: AVG IPC :0.65940: L2-Pf-HR :0.99657: L2-HR :0.86900: (Sim:0h35m32s) 
CPU  1 inst:   51000003 cyc:   75317830 now IPC :0.05365: AVG IPC :0.65917: L2-Pf-HR :0.99587: L2-HR :0.85299: (Sim:0h35m33s) 
CPU  3 inst:   52000000 cyc:   77135091 now IPC :0.11253: AVG IPC :0.65657: L2-Pf-HR :0.99599: L2-HR :0.87404: (Sim:0h36m31s) 
CPU  3 inst:   53000000 cyc:   81335089 now IPC :0.23810: AVG IPC :0.63470: L2-Pf-HR :0.99458: L2-HR :0.87046: (Sim:0h38m38s) 
CPU  2 inst:   52000000 cyc:   81556500 now IPC :0.14722: AVG IPC :0.62054: L2-Pf-HR :0.99624: L2-HR :0.88204: (Sim:0h38m45s) 
CPU  0 inst:   52000000 cyc:   81792762 now IPC :0.15381: AVG IPC :0.61873: L2-Pf-HR :0.99511: L2-HR :0.86007: (Sim:0h38m52s) 
CPU  1 inst:   52000000 cyc:   81837788 now IPC :0.15337: AVG IPC :0.61838: L2-Pf-HR :0.99417: L2-HR :0.84340: (Sim:0h38m54s) 
CPU  3 inst:   54000000 cyc:   84873383 now IPC :0.28262: AVG IPC :0.61985: L2-Pf-HR :0.99310: L2-HR :0.86691: (Sim:0h40m23s) 
CPU  2 inst:   53000000 cyc:   85098233 now IPC :0.28235: AVG IPC :0.60630: L2-Pf-HR :0.99491: L2-HR :0.87858: (Sim:0h40m27s) 
CPU  0 inst:   53000000 cyc:   85340790 now IPC :0.28185: AVG IPC :0.60456: L2-Pf-HR :0.99334: L2-HR :0.85620: (Sim:0h40m31s) 
CPU  1 inst:   53000000 cyc:   85386279 now IPC :0.28181: AVG IPC :0.60423: L2-Pf-HR :0.99215: L2-HR :0.83922: (Sim:0h40m32s) 
CPU  3 inst:   55000001 cyc:   88413527 now IPC :0.28247: AVG IPC :0.60619: L2-Pf-HR :0.99163: L2-HR :0.86343: (Sim:0h41m38s) 
CPU  2 inst:   54000000 cyc:   88637023 now IPC :0.28258: AVG IPC :0.59324: L2-Pf-HR :0.99358: L2-HR :0.87522: (Sim:0h41m45s) 
CPU  0 inst:   54000000 cyc:   88875509 now IPC :0.28291: AVG IPC :0.59162: L2-Pf-HR :0.99161: L2-HR :0.85240: (Sim:0h41m53s) 
CPU  1 inst:   54000000 cyc:   88921170 now IPC :0.28289: AVG IPC :0.59131: L2-Pf-HR :0.99012: L2-HR :0.83514: (Sim:0h41m54s) 
CPU  3 inst:   56000000 cyc:   91941486 now IPC :0.28345: AVG IPC :0.59367: L2-Pf-HR :0.99017: L2-HR :0.85999: (Sim:0h43m28s) 
CPU  2 inst:   55000001 cyc:   92163320 now IPC :0.28358: AVG IPC :0.58126: L2-Pf-HR :0.99225: L2-HR :0.87189: (Sim:0h43m35s) 
CPU  0 inst:   55000001 cyc:   92409015 now IPC :0.28301: AVG IPC :0.57970: L2-Pf-HR :0.98986: L2-HR :0.84865: (Sim:0h43m41s) 
CPU  1 inst:   55000001 cyc:   92447785 now IPC :0.28356: AVG IPC :0.57945: L2-Pf-HR :0.98806: L2-HR :0.83112: (Sim:0h43m41s) 
CPU  3 inst:   57000000 cyc:   95480717 now IPC :0.28255: AVG IPC :0.58202: L2-Pf-HR :0.98873: L2-HR :0.85661: (Sim:0h44m34s) 
CPU  2 inst:   56000000 cyc:   95696230 now IPC :0.28305: AVG IPC :0.57014: L2-Pf-HR :0.99093: L2-HR :0.86860: (Sim:0h44m37s) 
CPU  0 inst:   56000000 cyc:   95944757 now IPC :0.28283: AVG IPC :0.56864: L2-Pf-HR :0.98814: L2-HR :0.84497: (Sim:0h44m42s) 
CPU  1 inst:   56000000 cyc:   95981958 now IPC :0.28295: AVG IPC :0.56842: L2-Pf-HR :0.98608: L2-HR :0.82716: (Sim:0h44m42s) 
CPU  3 inst:   58000000 cyc:   99008416 now IPC :0.28347: AVG IPC :0.57128: L2-Pf-HR :0.98729: L2-HR :0.85325: (Sim:0h45m35s) 
CPU  2 inst:   57000000 cyc:   99223672 now IPC :0.28349: AVG IPC :0.55984: L2-Pf-HR :0.98960: L2-HR :0.86536: (Sim:0h45m38s) 
CPU  0 inst:   57000000 cyc:   99469596 now IPC :0.28370: AVG IPC :0.55844: L2-Pf-HR :0.98641: L2-HR :0.84134: (Sim:0h45m42s) 
CPU  1 inst:   57000000 cyc:   99500408 now IPC :0.28422: AVG IPC :0.55827: L2-Pf-HR :0.98408: L2-HR :0.82329: (Sim:0h45m43s) 
CPU  3 inst:   59000000 cyc:  102523144 now IPC :0.28452: AVG IPC :0.56135: L2-Pf-HR :0.98585: L2-HR :0.84998: (Sim:0h46m36s) 
CPU  2 inst:   58000000 cyc:  102733614 now IPC :0.28490: AVG IPC :0.55036: L2-Pf-HR :0.98830: L2-HR :0.86217: (Sim:0h46m40s) 
CPU  0 inst:   58000000 cyc:  102968970 now IPC :0.28577: AVG IPC :0.54909: L2-Pf-HR :0.98470: L2-HR :0.83779: (Sim:0h46m44s) 
CPU  1 inst:   58000000 cyc:  102999343 now IPC :0.28580: AVG IPC :0.54892: L2-Pf-HR :0.98209: L2-HR :0.81951: (Sim:0h46m44s) 
CPU  3 inst:   60000000 cyc:  105983519 now IPC :0.28899: AVG IPC :0.55237: L2-Pf-HR :0.98441: L2-HR :0.84674: (Sim:0h47m37s) 
CPU  2 inst:   59000000 cyc:  106198859 now IPC :0.28858: AVG IPC :0.54174: L2-Pf-HR :0.98701: L2-HR :0.85901: (Sim:0h47m40s) 
CPU  0 inst:   59000000 cyc:  106439382 now IPC :0.28815: AVG IPC :0.54050: L2-Pf-HR :0.98299: L2-HR :0.83429: (Sim:0h47m44s) 
CPU  1 inst:   59000000 cyc:  106459840 now IPC :0.28898: AVG IPC :0.54039: L2-Pf-HR :0.98007: L2-HR :0.81578: (Sim:0h47m45s) 
CPU  3 inst:   61000004 cyc:  109416684 now IPC :0.29128: AVG IPC :0.54411: L2-Pf-HR :0.98298: L2-HR :0.84355: (Sim:0h48m37s) 
CPU  2 inst:   60000000 cyc:  109626625 now IPC :0.29174: AVG IPC :0.53385: L2-Pf-HR :0.98570: L2-HR :0.85590: (Sim:0h48m40s) 
CPU  0 inst:   60000000 cyc:  109865222 now IPC :0.29190: AVG IPC :0.53268: L2-Pf-HR :0.98132: L2-HR :0.83081: (Sim:0h48m45s) 
CPU  1 inst:   60000000 cyc:  109888958 now IPC :0.29162: AVG IPC :0.53256: L2-Pf-HR :0.97807: L2-HR :0.81210: (Sim:0h48m45s) 
CPU  3 inst:   62000000 cyc:  112831468 now IPC :0.29284: AVG IPC :0.53644: L2-Pf-HR :0.98154: L2-HR :0.84041: (Sim:0h49m36s) 
CPU  2 inst:   61000004 cyc:  113033941 now IPC :0.29349: AVG IPC :0.52654: L2-Pf-HR :0.98440: L2-HR :0.85285: (Sim:0h49m40s) 
CPU  0 inst:   61000004 cyc:  113262178 now IPC :0.29438: AVG IPC :0.52547: L2-Pf-HR :0.97961: L2-HR :0.82745: (Sim:0h49m44s) 
CPU  1 inst:   61000004 cyc:  113295441 now IPC :0.29356: AVG IPC :0.52531: L2-Pf-HR :0.97609: L2-HR :0.80852: (Sim:0h49m45s) 
CPU  3 inst:   63000000 cyc:  116233063 now IPC :0.29398: AVG IPC :0.52928: L2-Pf-HR :0.98010: L2-HR :0.83731: (Sim:0h50m36s) 
CPU  2 inst:   62000000 cyc:  116441146 now IPC :0.29349: AVG IPC :0.51966: L2-Pf-HR :0.98303: L2-HR :0.84983: (Sim:0h50m40s) 
CPU  0 inst:   62000000 cyc:  116675746 now IPC :0.29295: AVG IPC :0.51861: L2-Pf-HR :0.97790: L2-HR :0.82412: (Sim:0h50m44s) 
CPU  1 inst:   62000000 cyc:  116705968 now IPC :0.29321: AVG IPC :0.51847: L2-Pf-HR :0.97409: L2-HR :0.80500: (Sim:0h50m45s) 
CPU  3 inst:   64000005 cyc:  119631449 now IPC :0.29426: AVG IPC :0.52255: L2-Pf-HR :0.97869: L2-HR :0.83426: (Sim:0h51m36s) 
CPU  2 inst:   63000000 cyc:  119840700 now IPC :0.29416: AVG IPC :0.51321: L2-Pf-HR :0.98173: L2-HR :0.84684: (Sim:0h51m40s) 
CPU  0 inst:   63000000 cyc:  120076680 now IPC :0.29404: AVG IPC :0.51220: L2-Pf-HR :0.97620: L2-HR :0.82082: (Sim:0h51m47s) 
CPU  1 inst:   63000000 cyc:  120105322 now IPC :0.29417: AVG IPC :0.51207: L2-Pf-HR :0.97206: L2-HR :0.80152: (Sim:0h51m48s) 
CPU  3 inst:   65000002 cyc:  123040914 now IPC :0.29330: AVG IPC :0.51615: L2-Pf-HR :0.97726: L2-HR :0.83124: (Sim:0h53m18s) 
CPU  2 inst:   64000005 cyc:  123254762 now IPC :0.29291: AVG IPC :0.50706: L2-Pf-HR :0.98042: L2-HR :0.84390: (Sim:0h53m25s) 
CPU  0 inst:   64000003 cyc:  123485242 now IPC :0.29338: AVG IPC :0.50611: L2-Pf-HR :0.97451: L2-HR :0.81761: (Sim:0h53m32s) 
CPU  1 inst:   64000005 cyc:  123514720 now IPC :0.29331: AVG IPC :0.50598: L2-Pf-HR :0.97005: L2-HR :0.79812: (Sim:0h53m33s) 
CPU  3 inst:   66000000 cyc:  126438325 now IPC :0.29434: AVG IPC :0.51014: L2-Pf-HR :0.97582: L2-HR :0.82827: (Sim:0h55m3s) 
CPU  2 inst:   65000002 cyc:  126653926 now IPC :0.29419: AVG IPC :0.50131: L2-Pf-HR :0.97913: L2-HR :0.84100: (Sim:0h55m10s) 
CPU  0 inst:   65000002 cyc:  126884953 now IPC :0.29414: AVG IPC :0.50038: L2-Pf-HR :0.97281: L2-HR :0.81441: (Sim:0h55m17s) 
CPU  1 inst:   65000002 cyc:  126914924 now IPC :0.29410: AVG IPC :0.50026: L2-Pf-HR :0.96803: L2-HR :0.79477: (Sim:0h55m18s) 
CPU  3 inst:   67000000 cyc:  129834894 now IPC :0.29441: AVG IPC :0.50445: L2-Pf-HR :0.97440: L2-HR :0.82532: (Sim:0h56m48s) 
CPU  2 inst:   66000000 cyc:  130052474 now IPC :0.29424: AVG IPC :0.49585: L2-Pf-HR :0.97784: L2-HR :0.83813: (Sim:0h56m54s) 
CPU  0 inst:   66000000 cyc:  130282451 now IPC :0.29433: AVG IPC :0.49497: L2-Pf-HR :0.97112: L2-HR :0.81127: (Sim:0h57m2s) 
CPU  1 inst:   66000000 cyc:  130312487 now IPC :0.29433: AVG IPC :0.49485: L2-Pf-HR :0.96602: L2-HR :0.79146: (Sim:0h57m3s) 
CPU  3 inst:   68000000 cyc:  133241268 now IPC :0.29357: AVG IPC :0.49902: L2-Pf-HR :0.97298: L2-HR :0.82246: (Sim:0h58m33s) 
CPU  2 inst:   67000000 cyc:  133446878 now IPC :0.29460: AVG IPC :0.49070: L2-Pf-HR :0.97655: L2-HR :0.83531: (Sim:0h58m39s) 
CPU  0 inst:   67000000 cyc:  133679533 now IPC :0.29437: AVG IPC :0.48983: L2-Pf-HR :0.96949: L2-HR :0.80819: (Sim:0h58m44s) 
CPU  1 inst:   67000000 cyc:  133709553 now IPC :0.29437: AVG IPC :0.48972: L2-Pf-HR :0.96406: L2-HR :0.78824: (Sim:0h58m45s) 
CPU  3 inst:   69000004 cyc:  136647846 now IPC :0.29355: AVG IPC :0.49386: L2-Pf-HR :0.97161: L2-HR :0.81960: (Sim:0h59m36s) 
CPU  2 inst:   68000000 cyc:  136858525 now IPC :0.29311: AVG IPC :0.48574: L2-Pf-HR :0.97528: L2-HR :0.83252: (Sim:0h59m40s) 
CPU  0 inst:   68000000 cyc:  137092264 now IPC :0.29302: AVG IPC :0.48490: L2-Pf-HR :0.96785: L2-HR :0.80516: (Sim:0h59m47s) 
CPU  1 inst:   68000000 cyc:  137120805 now IPC :0.29315: AVG IPC :0.48480: L2-Pf-HR :0.96211: L2-HR :0.78507: (Sim:0h59m48s) 
CPU  3 inst:   70000000 cyc:  140046581 now IPC :0.29423: AVG IPC :0.48898: L2-Pf-HR :0.97022: L2-HR :0.81679: (Sim:1h0m41s) 
CPU  2 inst:   69000004 cyc:  140249265 now IPC :0.29492: AVG IPC :0.48109: L2-Pf-HR :0.97399: L2-HR :0.82975: (Sim:1h0m44s) 
CPU  0 inst:   69000004 cyc:  140490266 now IPC :0.29429: AVG IPC :0.48026: L2-Pf-HR :0.96621: L2-HR :0.80216: (Sim:1h0m48s) 
CPU  1 inst:   69000004 cyc:  140520921 now IPC :0.29411: AVG IPC :0.48015: L2-Pf-HR :0.96018: L2-HR :0.78192: (Sim:1h0m49s) 
CPU  3 inst:   71000000 cyc:  143455347 now IPC :0.29336: AVG IPC :0.48430: L2-Pf-HR :0.96875: L2-HR :0.81401: (Sim:1h1m41s) 
CPU  2 inst:   70000000 cyc:  143651244 now IPC :0.29395: AVG IPC :0.47663: L2-Pf-HR :0.97268: L2-HR :0.82703: (Sim:1h1m45s) 
CPU  0 inst:   70000000 cyc:  143895716 now IPC :0.29365: AVG IPC :0.47581: L2-Pf-HR :0.96451: L2-HR :0.79921: (Sim:1h1m51s) 
CPU  1 inst:   70000000 cyc:  143927238 now IPC :0.29357: AVG IPC :0.47570: L2-Pf-HR :0.95817: L2-HR :0.77886: (Sim:1h1m52s) 
CPU  3 inst:   72000000 cyc:  146867937 now IPC :0.29303: AVG IPC :0.47983: L2-Pf-HR :0.96732: L2-HR :0.81130: (Sim:1h3m21s) 
CPU  2 inst:   71000000 cyc:  147063280 now IPC :0.29308: AVG IPC :0.47234: L2-Pf-HR :0.97138: L2-HR :0.82437: (Sim:1h3m27s) 
CPU  0 inst:   71000000 cyc:  147301871 now IPC :0.29359: AVG IPC :0.47157: L2-Pf-HR :0.96283: L2-HR :0.79633: (Sim:1h3m34s) 
CPU  1 inst:   71000000 cyc:  147338564 now IPC :0.29314: AVG IPC :0.47145: L2-Pf-HR :0.95621: L2-HR :0.77585: (Sim:1h3m35s) 
CPU  3 inst:   73000000 cyc:  150264810 now IPC :0.29439: AVG IPC :0.47561: L2-Pf-HR :0.96589: L2-HR :0.80859: (Sim:1h5m3s) 
CPU  2 inst:   72000000 cyc:  150460173 now IPC :0.29439: AVG IPC :0.46830: L2-Pf-HR :0.97008: L2-HR :0.82171: (Sim:1h5m9s) 
CPU  0 inst:   72000000 cyc:  150695834 now IPC :0.29464: AVG IPC :0.46756: L2-Pf-HR :0.96117: L2-HR :0.79347: (Sim:1h5m16s) 
CPU  1 inst:   72000000 cyc:  150731399 now IPC :0.29474: AVG IPC :0.46745: L2-Pf-HR :0.95422: L2-HR :0.77287: (Sim:1h5m17s) 
CPU  3 inst:   74000001 cyc:  153656833 now IPC :0.29481: AVG IPC :0.47159: L2-Pf-HR :0.96447: L2-HR :0.80594: (Sim:1h6m46s) 
CPU  2 inst:   73000000 cyc:  153854419 now IPC :0.29462: AVG IPC :0.46444: L2-Pf-HR :0.96879: L2-HR :0.81910: (Sim:1h6m52s) 
CPU  0 inst:   73000000 cyc:  154088917 now IPC :0.29472: AVG IPC :0.46373: L2-Pf-HR :0.95952: L2-HR :0.79065: (Sim:1h6m59s) 
CPU  1 inst:   73000000 cyc:  154125219 now IPC :0.29465: AVG IPC :0.46362: L2-Pf-HR :0.95226: L2-HR :0.76995: (Sim:1h7m0s) 
CPU  3 inst:   75000002 cyc:  157059606 now IPC :0.29388: AVG IPC :0.46772: L2-Pf-HR :0.96304: L2-HR :0.80332: (Sim:1h8m20s) 
CPU  2 inst:   74000001 cyc:  157254393 now IPC :0.29412: AVG IPC :0.46073: L2-Pf-HR :0.96751: L2-HR :0.81651: (Sim:1h8m23s) 
CPU  0 inst:   74000001 cyc:  157493251 now IPC :0.29374: AVG IPC :0.46003: L2-Pf-HR :0.95788: L2-HR :0.78786: (Sim:1h8m27s) 
CPU  1 inst:   74000001 cyc:  157528754 now IPC :0.29381: AVG IPC :0.45992: L2-Pf-HR :0.95030: L2-HR :0.76707: (Sim:1h8m28s) 
CPU  3 inst:   76000000 cyc:  159053733 now IPC :0.50147: AVG IPC :0.46814: L2-Pf-HR :0.96230: L2-HR :0.80220: (Sim:1h8m56s) 
CPU  3 inst:   77000002 cyc:  159803092 now IPC :1.33448: AVG IPC :0.47223: L2-Pf-HR :0.96220: L2-HR :0.80306: (Sim:1h9m14s) 
CPU  3 inst:   78000004 cyc:  160505450 now IPC :1.42378: AVG IPC :0.47642: L2-Pf-HR :0.96223: L2-HR :0.80412: (Sim:1h9m33s) 
CPU  2 inst:   75000002 cyc:  160818484 now IPC :0.28058: AVG IPC :0.45672: L2-Pf-HR :0.96629: L2-HR :0.81394: (Sim:1h9m47s) 
CPU  0 inst:   75000002 cyc:  161057975 now IPC :0.28053: AVG IPC :0.45603: L2-Pf-HR :0.95631: L2-HR :0.78510: (Sim:1h9m54s) 
CPU  3 inst:   79000000 cyc:  161116581 now IPC :1.63630: AVG IPC :0.48085: L2-Pf-HR :0.96248: L2-HR :0.80546: (Sim:1h9m56s) 
CPU  1 inst:   75000002 cyc:  161120089 now IPC :0.27845: AVG IPC :0.45585: L2-Pf-HR :0.94841: L2-HR :0.76419: (Sim:1h9m56s) 
CPU  3 inst:   80000000 cyc:  161841605 now IPC :1.37926: AVG IPC :0.48490: L2-Pf-HR :0.96255: L2-HR :0.80673: (Sim:1h10m14s) 
CPU  3 inst:   81000000 cyc:  162640536 now IPC :1.25167: AVG IPC :0.48869: L2-Pf-HR :0.96265: L2-HR :0.80812: (Sim:1h10m31s) 
CPU  2 inst:   76000000 cyc:  163009731 now IPC :0.45636: AVG IPC :0.45671: L2-Pf-HR :0.96576: L2-HR :0.81328: (Sim:1h10m42s) 
CPU  0 inst:   76000000 cyc:  163397731 now IPC :0.42739: AVG IPC :0.45562: L2-Pf-HR :0.95586: L2-HR :0.78484: (Sim:1h10m56s) 
CPU  1 inst:   76000001 cyc:  163431652 now IPC :0.43261: AVG IPC :0.45552: L2-Pf-HR :0.94811: L2-HR :0.76430: (Sim:1h10m57s) 
CPU  3 inst:   82000001 cyc:  163614018 now IPC :1.02724: AVG IPC :0.49191: L2-Pf-HR :0.96291: L2-HR :0.80972: (Sim:1h11m5s) 
CPU  2 inst:   77000002 cyc:  163885264 now IPC :1.14216: AVG IPC :0.46040: L2-Pf-HR :0.96597: L2-HR :0.81467: (Sim:1h11m18s) 
CPU  3 inst:   83000003 cyc:  164256846 now IPC :1.55563: AVG IPC :0.49610: L2-Pf-HR :0.96327: L2-HR :0.81166: (Sim:1h11m33s) 
CPU  0 inst:   77000002 cyc:  164266548 now IPC :1.15099: AVG IPC :0.45932: L2-Pf-HR :0.95638: L2-HR :0.78684: (Sim:1h11m34s) 
CPU  1 inst:   77000002 cyc:  164276698 now IPC :1.18337: AVG IPC :0.45929: L2-Pf-HR :0.94900: L2-HR :0.76716: (Sim:1h11m34s) 
CPU  2 inst:   78000004 cyc:  164657827 now IPC :1.29440: AVG IPC :0.46433: L2-Pf-HR :0.96627: L2-HR :0.81629: (Sim:1h11m51s) 
CPU  3 inst:   84000004 cyc:  165046407 now IPC :1.26653: AVG IPC :0.49980: L2-Pf-HR :0.96360: L2-HR :0.81312: (Sim:1h12m7s) 
CPU  0 inst:   78000004 cyc:  165107869 now IPC :1.18861: AVG IPC :0.46306: L2-Pf-HR :0.95702: L2-HR :0.78908: (Sim:1h12m11s) 
CPU  1 inst:   78000004 cyc:  165126226 now IPC :1.17713: AVG IPC :0.46301: L2-Pf-HR :0.94994: L2-HR :0.76995: (Sim:1h12m12s) 
CPU  2 inst:   79000000 cyc:  165283758 now IPC :1.59761: AVG IPC :0.46865: L2-Pf-HR :0.96671: L2-HR :0.81847: (Sim:1h12m20s) 
CPU  0 inst:   79000000 cyc:  165835746 now IPC :1.37385: AVG IPC :0.46708: L2-Pf-HR :0.95772: L2-HR :0.79180: (Sim:1h12m43s) 
CPU  3 inst:   85000005 cyc:  165847276 now IPC :1.24864: AVG IPC :0.50344: L2-Pf-HR :0.96393: L2-HR :0.81448: (Sim:1h12m44s) 
CPU  1 inst:   79000000 cyc:  165856839 now IPC :1.36871: AVG IPC :0.46702: L2-Pf-HR :0.95099: L2-HR :0.77328: (Sim:1h12m44s) 
CPU  2 inst:   80000005 cyc:  166184090 now IPC :1.11071: AVG IPC :0.47215: L2-Pf-HR :0.96695: L2-HR :0.81973: (Sim:1h12m59s) 
CPU  3 inst:   86000001 cyc:  166756439 now IPC :1.09991: AVG IPC :0.50671: L2-Pf-HR :0.96422: L2-HR :0.81585: (Sim:1h13m19s) 
CPU  1 inst:   80000000 cyc:  166833870 now IPC :1.02351: AVG IPC :0.47030: L2-Pf-HR :0.95157: L2-HR :0.77548: (Sim:1h13m22s) 
CPU  0 inst:   80000005 cyc:  166841058 now IPC :0.99472: AVG IPC :0.47028: L2-Pf-HR :0.95810: L2-HR :0.79359: (Sim:1h13m22s) 
CPU  2 inst:   81000000 cyc:  167054047 now IPC :1.14948: AVG IPC :0.47570: L2-Pf-HR :0.96714: L2-HR :0.82107: (Sim:1h13m31s) 
CPU  3 inst:   87000000 cyc:  167481272 now IPC :1.37963: AVG IPC :0.51051: L2-Pf-HR :0.96453: L2-HR :0.81762: (Sim:1h13m49s) 
CPU  1 inst:   81000000 cyc:  167733290 now IPC :1.11183: AVG IPC :0.47376: L2-Pf-HR :0.95225: L2-HR :0.77779: (Sim:1h13m58s) 
CPU  0 inst:   81000000 cyc:  167755341 now IPC :1.09375: AVG IPC :0.47370: L2-Pf-HR :0.95854: L2-HR :0.79545: (Sim:1h13m59s) 
CPU  2 inst:   82000001 cyc:  167980451 now IPC :1.07944: AVG IPC :0.47905: L2-Pf-HR :0.96738: L2-HR :0.82245: (Sim:1h14m10s) 
CPU  3 inst:   88000001 cyc:  168288681 now IPC :1.23853: AVG IPC :0.51403: L2-Pf-HR :0.96477: L2-HR :0.81912: (Sim:1h14m22s) 
CPU  1 inst:   82000001 cyc:  168546969 now IPC :1.22899: AVG IPC :0.47742: L2-Pf-HR :0.95294: L2-HR :0.78009: (Sim:1h14m38s) 
CPU  0 inst:   82000001 cyc:  168620110 now IPC :1.15638: AVG IPC :0.47722: L2-Pf-HR :0.95903: L2-HR :0.79729: (Sim:1h14m43s) 
CPU  2 inst:   83000003 cyc:  168693333 now IPC :1.40276: AVG IPC :0.48297: L2-Pf-HR :0.96768: L2-HR :0.82413: (Sim:1h14m50s) 
CPU  3 inst:   89000005 cyc:  169098873 now IPC :1.23428: AVG IPC :0.51750: L2-Pf-HR :0.96510: L2-HR :0.82051: (Sim:1h15m21s) 
CPU  1 inst:   83000003 cyc:  169233124 now IPC :1.45740: AVG IPC :0.48142: L2-Pf-HR :0.95377: L2-HR :0.78278: (Sim:1h15m32s) 
CPU  0 inst:   83000003 cyc:  169252255 now IPC :1.58192: AVG IPC :0.48137: L2-Pf-HR :0.95962: L2-HR :0.79951: (Sim:1h15m34s) 
CPU  2 inst:   84000004 cyc:  169544795 now IPC :1.17445: AVG IPC :0.48647: L2-Pf-HR :0.96790: L2-HR :0.82532: (Sim:1h15m54s) 
CPU  3 inst:   90000001 cyc:  169966432 now IPC :1.15265: AVG IPC :0.52076: L2-Pf-HR :0.96545: L2-HR :0.82209: (Sim:1h16m20s) 
CPU  0 inst:   84000004 cyc:  170169844 now IPC :1.08981: AVG IPC :0.48467: L2-Pf-HR :0.95995: L2-HR :0.80121: (Sim:1h16m31s) 
CPU  1 inst:   84000004 cyc:  170171866 now IPC :1.06526: AVG IPC :0.48466: L2-Pf-HR :0.95428: L2-HR :0.78487: (Sim:1h16m32s) 
CPU  2 inst:   85000005 cyc:  170408707 now IPC :1.15753: AVG IPC :0.48989: L2-Pf-HR :0.96811: L2-HR :0.82654: (Sim:1h16m50s) 
CPU  3 inst:   91000004 cyc:  170758836 now IPC :1.26199: AVG IPC :0.52422: L2-Pf-HR :0.96568: L2-HR :0.82352: (Sim:1h17m14s) 
CPU  1 inst:   85000005 cyc:  170994220 now IPC :1.21602: AVG IPC :0.48820: L2-Pf-HR :0.95481: L2-HR :0.78688: (Sim:1h17m31s) 
CPU  0 inst:   85000005 cyc:  170997339 now IPC :1.20847: AVG IPC :0.48819: L2-Pf-HR :0.96033: L2-HR :0.80285: (Sim:1h17m32s) 
CPU  2 inst:   86000001 cyc:  171259214 now IPC :1.17576: AVG IPC :0.49331: L2-Pf-HR :0.96831: L2-HR :0.82767: (Sim:1h17m50s) 
CPU  3 inst:   92000000 cyc:  171410347 now IPC :1.53489: AVG IPC :0.52808: L2-Pf-HR :0.96597: L2-HR :0.82510: (Sim:1h18m2s) 
CPU  1 inst:   86000001 cyc:  171921629 now IPC :1.07827: AVG IPC :0.49140: L2-Pf-HR :0.95537: L2-HR :0.78889: (Sim:1h18m36s) 
CPU  0 inst:   86000001 cyc:  171922687 now IPC :1.08067: AVG IPC :0.49140: L2-Pf-HR :0.96068: L2-HR :0.80434: (Sim:1h18m36s) 
CPU  2 inst:   87000002 cyc:  171976957 now IPC :1.39326: AVG IPC :0.49709: L2-Pf-HR :0.96858: L2-HR :0.82925: (Sim:1h18m41s) 
CPU  3 inst:   93000002 cyc:  172223659 now IPC :1.22954: AVG IPC :0.53141: L2-Pf-HR :0.96616: L2-HR :0.82598: (Sim:1h19m3s) 
CPU  1 inst:   87000003 cyc:  172573730 now IPC :1.53351: AVG IPC :0.49536: L2-Pf-HR :0.95614: L2-HR :0.79190: (Sim:1h19m32s) 
CPU  0 inst:   87000003 cyc:  172573793 now IPC :1.53585: AVG IPC :0.49536: L2-Pf-HR :0.96127: L2-HR :0.80696: (Sim:1h19m32s) 
CPU  2 inst:   88000002 cyc:  172689938 now IPC :1.40256: AVG IPC :0.50085: L2-Pf-HR :0.96878: L2-HR :0.83046: (Sim:1h19m39s) 
CPU  3 inst:   94000004 cyc:  173021450 now IPC :1.25346: AVG IPC :0.53476: L2-Pf-HR :0.96638: L2-HR :0.82696: (Sim:1h20m6s) 
CPU  0 inst:   88000001 cyc:  173368909 now IPC :1.25768: AVG IPC :0.49888: L2-Pf-HR :0.96165: L2-HR :0.80875: (Sim:1h20m29s) 
CPU  1 inst:   88000002 cyc:  173382506 now IPC :1.23644: AVG IPC :0.49884: L2-Pf-HR :0.95673: L2-HR :0.79426: (Sim:1h20m30s) 
CPU  2 inst:   89000002 cyc:  173512960 now IPC :1.21503: AVG IPC :0.50426: L2-Pf-HR :0.96897: L2-HR :0.83149: (Sim:1h20m39s) 
CPU  3 inst:   95000004 cyc:  173819504 now IPC :1.25305: AVG IPC :0.53808: L2-Pf-HR :0.96653: L2-HR :0.82801: (Sim:1h21m1s) 
CPU  0 inst:   89000002 cyc:  174196516 now IPC :1.20830: AVG IPC :0.50227: L2-Pf-HR :0.96193: L2-HR :0.81007: (Sim:1h21m30s) 
CPU  1 inst:   89000005 cyc:  174283225 now IPC :1.11023: AVG IPC :0.50201: L2-Pf-HR :0.95727: L2-HR :0.79641: (Sim:1h21m36s) 
CPU  2 inst:   90000001 cyc:  174327605 now IPC :1.22753: AVG IPC :0.50766: L2-Pf-HR :0.96912: L2-HR :0.83250: (Sim:1h21m40s) 
CPU  3 inst:   96000001 cyc:  174501070 now IPC :1.46720: AVG IPC :0.54173: L2-Pf-HR :0.96680: L2-HR :0.82948: (Sim:1h21m51s) 
CPU  0 inst:   90000001 cyc:  174988255 now IPC :1.26304: AVG IPC :0.50573: L2-Pf-HR :0.96234: L2-HR :0.81188: (Sim:1h22m27s) 
CPU  1 inst:   90000001 cyc:  175094367 now IPC :1.23282: AVG IPC :0.50542: L2-Pf-HR :0.95782: L2-HR :0.79856: (Sim:1h22m34s) 
CPU  2 inst:   91000004 cyc:  175151700 now IPC :1.21346: AVG IPC :0.51100: L2-Pf-HR :0.96934: L2-HR :0.83373: (Sim:1h22m38s) 
CPU  3 inst:   97000001 cyc:  175398176 now IPC :1.11470: AVG IPC :0.54468: L2-Pf-HR :0.96699: L2-HR :0.83038: (Sim:1h22m57s) 
CPU  0 inst:   91000004 cyc:  175750013 now IPC :1.31276: AVG IPC :0.50925: L2-Pf-HR :0.96275: L2-HR :0.81358: (Sim:1h23m25s) 
CPU  2 inst:   92000000 cyc:  175821988 now IPC :1.49189: AVG IPC :0.51476: L2-Pf-HR :0.96956: L2-HR :0.83505: (Sim:1h23m30s) 
CPU  1 inst:   91000004 cyc:  175861967 now IPC :1.30277: AVG IPC :0.50892: L2-Pf-HR :0.95838: L2-HR :0.80064: (Sim:1h23m34s) 
CPU  3 inst:   98000005 cyc:  176207916 now IPC :1.23497: AVG IPC :0.54787: L2-Pf-HR :0.96722: L2-HR :0.83140: (Sim:1h24m0s) 
CPU  0 inst:   92000000 cyc:  176413533 now IPC :1.50711: AVG IPC :0.51302: L2-Pf-HR :0.96311: L2-HR :0.81520: (Sim:1h24m18s) 
CPU  1 inst:   92000000 cyc:  176522393 now IPC :1.51417: AVG IPC :0.51270: L2-Pf-HR :0.95888: L2-HR :0.80262: (Sim:1h24m25s) 
CPU  2 inst:   93000002 cyc:  176678231 now IPC :1.16790: AVG IPC :0.51794: L2-Pf-HR :0.96970: L2-HR :0.83578: (Sim:1h24m34s) 
CPU  3 inst:   99000001 cyc:  177008968 now IPC :1.24835: AVG IPC :0.55105: L2-Pf-HR :0.96742: L2-HR :0.83259: (Sim:1h24m59s) 
CPU  0 inst:   93000002 cyc:  177312350 now IPC :1.11258: AVG IPC :0.51608: L2-Pf-HR :0.96332: L2-HR :0.81624: (Sim:1h25m22s) 
CPU  1 inst:   93000002 cyc:  177349992 now IPC :1.20832: AVG IPC :0.51596: L2-Pf-HR :0.95922: L2-HR :0.80394: (Sim:1h25m26s) 
CPU  2 inst:   94000004 cyc:  177495498 now IPC :1.22359: AVG IPC :0.52121: L2-Pf-HR :0.96985: L2-HR :0.83670: (Sim:1h25m36s) 
CPU  3 inst:  100000002 cyc:  177697440 now IPC :1.45249: AVG IPC :0.55456: L2-Pf-HR :0.96766: L2-HR :0.83403: (Sim:1h25m51s) 
CPU  1 inst:   94000004 cyc:  178116282 now IPC :1.30499: AVG IPC :0.51938: L2-Pf-HR :0.95965: L2-HR :0.80558: (Sim:1h26m23s) 
CPU  0 inst:   94000004 cyc:  178119292 now IPC :1.23925: AVG IPC :0.51937: L2-Pf-HR :0.96374: L2-HR :0.81806: (Sim:1h26m24s) 
CPU  2 inst:   95000004 cyc:  178200524 now IPC :1.41839: AVG IPC :0.52478: L2-Pf-HR :0.96996: L2-HR :0.83759: (Sim:1h26m30s) 
CPU  3 inst:  101000003 cyc:  178452496 now IPC :1.32441: AVG IPC :0.55784: L2-Pf-HR :0.96789: L2-HR :0.83501: (Sim:1h26m49s) 
CPU  2 inst:   96000001 cyc:  178787854 now IPC :1.70262: AVG IPC :0.52867: L2-Pf-HR :0.97022: L2-HR :0.83894: (Sim:1h27m19s) 
CPU  0 inst:   95000002 cyc:  178838883 now IPC :1.38968: AVG IPC :0.52289: L2-Pf-HR :0.96397: L2-HR :0.81924: (Sim:1h27m24s) 
CPU  1 inst:   95000000 cyc:  178838952 now IPC :1.38375: AVG IPC :0.52289: L2-Pf-HR :0.95999: L2-HR :0.80712: (Sim:1h27m24s) 
CPU  3 inst:  102000004 cyc:  179147007 now IPC :1.43986: AVG IPC :0.56128: L2-Pf-HR :0.96809: L2-HR :0.83578: (Sim:1h27m49s) 
CPU  0 inst:   96000001 cyc:  179519649 now IPC :1.46893: AVG IPC :0.52650: L2-Pf-HR :0.96436: L2-HR :0.82098: (Sim:1h28m16s) 
CPU  1 inst:   96000001 cyc:  179522154 now IPC :1.46370: AVG IPC :0.52649: L2-Pf-HR :0.96058: L2-HR :0.80957: (Sim:1h28m17s) 
CPU  2 inst:   97000001 cyc:  179588100 now IPC :1.24962: AVG IPC :0.53190: L2-Pf-HR :0.97038: L2-HR :0.83972: (Sim:1h28m22s) 
CPU  3 inst:  103000004 cyc:  179987027 now IPC :1.19045: AVG IPC :0.56423: L2-Pf-HR :0.96822: L2-HR :0.83655: (Sim:1h28m48s) 
CPU  0 inst:   97000001 cyc:  180395746 now IPC :1.14143: AVG IPC :0.52950: L2-Pf-HR :0.96464: L2-HR :0.82243: (Sim:1h29m20s) 
CPU  1 inst:   97000001 cyc:  180397432 now IPC :1.14249: AVG IPC :0.52950: L2-Pf-HR :0.96093: L2-HR :0.81102: (Sim:1h29m20s) 
CPU  2 inst:   98000005 cyc:  180414709 now IPC :1.20977: AVG IPC :0.53502: L2-Pf-HR :0.97050: L2-HR :0.84055: (Sim:1h29m21s) 
CPU  3 inst:  104000002 cyc:  180625914 now IPC :1.56522: AVG IPC :0.56779: L2-Pf-HR :0.96840: L2-HR :0.83772: (Sim:1h29m36s) 
CPU  2 inst:   99000000 cyc:  181209134 now IPC :1.25877: AVG IPC :0.53821: L2-Pf-HR :0.97059: L2-HR :0.84132: (Sim:1h30m20s) 
CPU  1 inst:   98000002 cyc:  181213561 now IPC :1.22530: AVG IPC :0.53265: L2-Pf-HR :0.96123: L2-HR :0.81232: (Sim:1h30m20s) 
CPU  0 inst:   98000005 cyc:  181213874 now IPC :1.22231: AVG IPC :0.53265: L2-Pf-HR :0.96495: L2-HR :0.82398: (Sim:1h30m20s) 
CPU  3 inst:  105000001 cyc:  181362487 now IPC :1.35764: AVG IPC :0.57102: L2-Pf-HR :0.96859: L2-HR :0.83867: (Sim:1h30m32s) 
CPU  2 inst:  100000002 cyc:  181846189 now IPC :1.56973: AVG IPC :0.54184: L2-Pf-HR :0.97079: L2-HR :0.84249: (Sim:1h31m8s) 
CPU  0 inst:   99000000 cyc:  182006710 now IPC :1.26129: AVG IPC :0.53584: L2-Pf-HR :0.96515: L2-HR :0.82512: (Sim:1h31m22s) 
CPU  1 inst:   99000002 cyc:  182013934 now IPC :1.24942: AVG IPC :0.53582: L2-Pf-HR :0.96157: L2-HR :0.81381: (Sim:1h31m22s) 
CPU  3 inst:  106000001 cyc:  182114933 now IPC :1.32900: AVG IPC :0.57416: L2-Pf-HR :0.96872: L2-HR :0.83940: (Sim:1h31m31s) 
CPU  2 inst:  101000003 cyc:  182544120 now IPC :1.43281: AVG IPC :0.54527: L2-Pf-HR :0.97096: L2-HR :0.84327: (Sim:1h32m7s) 
CPU  0 inst:  100000002 cyc:  182605768 now IPC :1.66929: AVG IPC :0.53958: L2-Pf-HR :0.96549: L2-HR :0.82665: (Sim:1h32m12s) 
CPU  1 inst:  100000002 cyc:  182636449 now IPC :1.60639: AVG IPC :0.53948: L2-Pf-HR :0.96208: L2-HR :0.81595: (Sim:1h32m15s) 
CPU  3 inst:  107000000 cyc:  182806467 now IPC :1.44606: AVG IPC :0.57748: L2-Pf-HR :0.96887: L2-HR :0.84004: (Sim:1h32m30s) 
CPU  2 inst:  102000004 cyc:  183239743 now IPC :1.43756: AVG IPC :0.54867: L2-Pf-HR :0.97110: L2-HR :0.84402: (Sim:1h33m4s) 
CPU  0 inst:  101000003 cyc:  183322073 now IPC :1.39605: AVG IPC :0.54294: L2-Pf-HR :0.96571: L2-HR :0.82768: (Sim:1h33m10s) 
CPU  1 inst:  101000003 cyc:  183358323 now IPC :1.38528: AVG IPC :0.54283: L2-Pf-HR :0.96240: L2-HR :0.81733: (Sim:1h33m14s) 
CPU  3 inst:  108000004 cyc:  183432346 now IPC :1.59776: AVG IPC :0.58098: L2-Pf-HR :0.96908: L2-HR :0.84124: (Sim:1h33m19s) 
CPU  2 inst:  103000004 cyc:  183960688 now IPC :1.38707: AVG IPC :0.55198: L2-Pf-HR :0.97117: L2-HR :0.84460: (Sim:1h34m3s) 
CPU  0 inst:  102000004 cyc:  183999743 now IPC :1.47565: AVG IPC :0.54639: L2-Pf-HR :0.96591: L2-HR :0.82868: (Sim:1h34m7s) 
CPU  1 inst:  102000004 cyc:  184054081 now IPC :1.43728: AVG IPC :0.54623: L2-Pf-HR :0.96267: L2-HR :0.81847: (Sim:1h34m11s) 
CPU  3 inst:  109000001 cyc:  184080712 now IPC :1.54233: AVG IPC :0.58439: L2-Pf-HR :0.96922: L2-HR :0.84210: (Sim:1h34m13s) 
CPU  2 inst:  104000005 cyc:  184547961 now IPC :1.70279: AVG IPC :0.55566: L2-Pf-HR :0.97133: L2-HR :0.84568: (Sim:1h34m53s) 
CPU  0 inst:  103000004 cyc:  184670802 now IPC :1.49018: AVG IPC :0.54984: L2-Pf-HR :0.96603: L2-HR :0.82953: (Sim:1h35m4s) 
CPU  1 inst:  103000004 cyc:  184697388 now IPC :1.55447: AVG IPC :0.54976: L2-Pf-HR :0.96287: L2-HR :0.81947: (Sim:1h35m7s) 
CPU  3 inst:  110000004 cyc:  184754194 now IPC :1.48483: AVG IPC :0.58769: L2-Pf-HR :0.96933: L2-HR :0.84278: (Sim:1h35m12s) 
CPU  2 inst:  105000001 cyc:  185157650 now IPC :1.64017: AVG IPC :0.55925: L2-Pf-HR :0.97147: L2-HR :0.84650: (Sim:1h35m49s) 
CPU  0 inst:  104000000 cyc:  185244678 now IPC :1.74253: AVG IPC :0.55356: L2-Pf-HR :0.96632: L2-HR :0.83092: (Sim:1h35m56s) 
CPU  1 inst:  104000005 cyc:  185274248 now IPC :1.73352: AVG IPC :0.55347: L2-Pf-HR :0.96325: L2-HR :0.82102: (Sim:1h35m59s) 
CPU  3 inst:  111000000 cyc:  185429017 now IPC :1.48186: AVG IPC :0.59096: L2-Pf-HR :0.96948: L2-HR :0.84341: (Sim:1h36m12s) 
CPU  2 inst:  106000003 cyc:  185827062 now IPC :1.49385: AVG IPC :0.56263: L2-Pf-HR :0.97157: L2-HR :0.84713: (Sim:1h36m46s) 
CPU  0 inst:  105000001 cyc:  185893594 now IPC :1.54103: AVG IPC :0.55702: L2-Pf-HR :0.96653: L2-HR :0.83196: (Sim:1h36m51s) 
CPU  1 inst:  105000001 cyc:  185934232 now IPC :1.51518: AVG IPC :0.55690: L2-Pf-HR :0.96351: L2-HR :0.82218: (Sim:1h36m55s) 
CPU  3 inst:  112000004 cyc:  186017366 now IPC :1.69968: AVG IPC :0.59448: L2-Pf-HR :0.96966: L2-HR :0.84448: (Sim:1h37m1s) 
CPU  2 inst:  107000000 cyc:  186512300 now IPC :1.45934: AVG IPC :0.56595: L2-Pf-HR :0.97164: L2-HR :0.84765: (Sim:1h37m46s) 
CPU  0 inst:  106000001 cyc:  186523447 now IPC :1.58767: AVG IPC :0.56052: L2-Pf-HR :0.96672: L2-HR :0.83304: (Sim:1h37m47s) 
CPU  1 inst:  106000004 cyc:  186585336 now IPC :1.53586: AVG IPC :0.56033: L2-Pf-HR :0.96373: L2-HR :0.82311: (Sim:1h37m52s) 
CPU  3 inst:  113000001 cyc:  186585668 now IPC :1.75962: AVG IPC :0.59805: L2-Pf-HR :0.96981: L2-HR :0.84547: (Sim:1h37m52s) 
CPU  2 inst:  108000004 cyc:  187072614 now IPC :1.78472: AVG IPC :0.56962: L2-Pf-HR :0.97177: L2-HR :0.84860: (Sim:1h38m34s) 
CPU  0 inst:  107000000 cyc:  187188020 now IPC :1.50472: AVG IPC :0.56389: L2-Pf-HR :0.96686: L2-HR :0.83386: (Sim:1h38m45s) 
CPU  1 inst:  107000000 cyc:  187232296 now IPC :1.54568: AVG IPC :0.56376: L2-Pf-HR :0.96391: L2-HR :0.82398: (Sim:1h38m49s) 
CPU  3 inst:  114000001 cyc:  187267299 now IPC :1.46707: AVG IPC :0.60123: L2-Pf-HR :0.96991: L2-HR :0.84599: (Sim:1h38m52s) 
CPU  2 inst:  109000003 cyc:  187665634 now IPC :1.68628: AVG IPC :0.57316: L2-Pf-HR :0.97192: L2-HR :0.84943: (Sim:1h39m30s) 
CPU  0 inst:  108000004 cyc:  187736948 now IPC :1.82174: AVG IPC :0.56759: L2-Pf-HR :0.96709: L2-HR :0.83499: (Sim:1h39m36s) 
CPU  1 inst:  108000004 cyc:  187768169 now IPC :1.86612: AVG IPC :0.56749: L2-Pf-HR :0.96420: L2-HR :0.82525: (Sim:1h39m39s) 
CPU  3 inst:  115000000 cyc:  187871661 now IPC :1.65464: AVG IPC :0.60464: L2-Pf-HR :0.97002: L2-HR :0.84662: (Sim:1h39m49s) 
CPU  2 inst:  110000005 cyc:  188290303 now IPC :1.60085: AVG IPC :0.57659: L2-Pf-HR :0.97201: L2-HR :0.85000: (Sim:1h40m26s) 
CPU  0 inst:  109000003 cyc:  188342285 now IPC :1.65197: AVG IPC :0.57109: L2-Pf-HR :0.96730: L2-HR :0.83604: (Sim:1h40m30s) 
CPU  1 inst:  109000003 cyc:  188371852 now IPC :1.65650: AVG IPC :0.57100: L2-Pf-HR :0.96451: L2-HR :0.82654: (Sim:1h40m33s) 
CPU  3 inst:  116000002 cyc:  188468349 now IPC :1.67592: AVG IPC :0.60805: L2-Pf-HR :0.97017: L2-HR :0.84748: (Sim:1h40m42s) 
CPU  2 inst:  111000000 cyc:  188935681 now IPC :1.54947: AVG IPC :0.57993: L2-Pf-HR :0.97209: L2-HR :0.85057: (Sim:1h41m19s) 
CPU  0 inst:  110000001 cyc:  188954649 now IPC :1.63301: AVG IPC :0.57455: L2-Pf-HR :0.96743: L2-HR :0.83680: (Sim:1h41m20s) 
CPU  1 inst:  110000001 cyc:  189002562 now IPC :1.58551: AVG IPC :0.57440: L2-Pf-HR :0.96470: L2-HR :0.82745: (Sim:1h41m23s) 
CPU  3 inst:  117000005 cyc:  189019500 now IPC :1.81439: AVG IPC :0.61158: L2-Pf-HR :0.97029: L2-HR :0.84840: (Sim:1h41m25s) 
CPU  2 inst:  112000004 cyc:  189493130 now IPC :1.79389: AVG IPC :0.58352: L2-Pf-HR :0.97222: L2-HR :0.85154: (Sim:1h41m51s) 
CPU  0 inst:  111000000 cyc:  189581604 now IPC :1.59501: AVG IPC :0.57794: L2-Pf-HR :0.96755: L2-HR :0.83753: (Sim:1h41m56s) 
CPU  1 inst:  111000000 cyc:  189628031 now IPC :1.59880: AVG IPC :0.57780: L2-Pf-HR :0.96488: L2-HR :0.82832: (Sim:1h41m59s) 
CPU  3 inst:  118000001 cyc:  189677210 now IPC :1.52042: AVG IPC :0.61475: L2-Pf-HR :0.97035: L2-HR :0.84888: (Sim:1h42m1s) 
CPU  2 inst:  113000001 cyc:  190061682 now IPC :1.75885: AVG IPC :0.58705: L2-Pf-HR :0.97236: L2-HR :0.85239: (Sim:1h42m24s) 
CPU  0 inst:  112000004 cyc:  190134880 now IPC :1.80742: AVG IPC :0.58154: L2-Pf-HR :0.96778: L2-HR :0.83868: (Sim:1h42m29s) 
CPU  1 inst:  112000004 cyc:  190177115 now IPC :1.82122: AVG IPC :0.58141: L2-Pf-HR :0.96519: L2-HR :0.82968: (Sim:1h42m31s) 
CPU  3 inst:  119000005 cyc:  190278821 now IPC :1.66221: AVG IPC :0.61808: L2-Pf-HR :0.97049: L2-HR :0.84953: (Sim:1h42m37s) 
CPU  0 inst:  113000001 cyc:  190693043 now IPC :1.79159: AVG IPC :0.58510: L2-Pf-HR :0.96800: L2-HR :0.83978: (Sim:1h43m1s) 
CPU  2 inst:  114000001 cyc:  190712009 now IPC :1.53769: AVG IPC :0.59031: L2-Pf-HR :0.97241: L2-HR :0.85279: (Sim:1h43m2s) 
CPU  1 inst:  113000001 cyc:  190746735 now IPC :1.75555: AVG IPC :0.58493: L2-Pf-HR :0.96545: L2-HR :0.83089: (Sim:1h43m3s) 
CPU  3 inst:  120000004 cyc:  190888590 now IPC :1.63996: AVG IPC :0.62136: L2-Pf-HR :0.97065: L2-HR :0.85029: (Sim:1h43m11s) 
CPU  2 inst:  115000000 cyc:  191341588 now IPC :1.58836: AVG IPC :0.59361: L2-Pf-HR :0.97251: L2-HR :0.85343: (Sim:1h43m37s) 
CPU  0 inst:  114000001 cyc:  191347139 now IPC :1.52883: AVG IPC :0.58834: L2-Pf-HR :0.96806: L2-HR :0.84029: (Sim:1h43m37s) 
CPU  1 inst:  114000003 cyc:  191415194 now IPC :1.49598: AVG IPC :0.58813: L2-Pf-HR :0.96559: L2-HR :0.83156: (Sim:1h43m41s) 
CPU  3 inst:  121000005 cyc:  191435805 now IPC :1.82744: AVG IPC :0.62482: L2-Pf-HR :0.97078: L2-HR :0.85121: (Sim:1h43m42s) 
CPU  2 inst:  116000002 cyc:  191951745 now IPC :1.63893: AVG IPC :0.59695: L2-Pf-HR :0.97260: L2-HR :0.85416: (Sim:1h44m15s) 
CPU  0 inst:  115000000 cyc:  191979597 now IPC :1.58113: AVG IPC :0.59163: L2-Pf-HR :0.96822: L2-HR :0.84109: (Sim:1h44m17s) 
CPU  1 inst:  115000000 cyc:  192047394 now IPC :1.58177: AVG IPC :0.59142: L2-Pf-HR :0.96577: L2-HR :0.83249: (Sim:1h44m23s) 
CPU  3 inst:  122000002 cyc:  192106986 now IPC :1.48991: AVG IPC :0.62786: L2-Pf-HR :0.97084: L2-HR :0.85168: (Sim:1h44m28s) 
Finished CPU 3 instr: 120000002 cyc: 191124699 AVG IPC: 0.62786 (Sim time: 1h44m28s)
CPU  2 inst:  117000005 cyc:  192495729 now IPC :1.83829: AVG IPC :0.60048: L2-Pf-HR :0.97275: L2-HR :0.85506: (Sim:1h45m6s) 
CPU  0 inst:  116000000 cyc:  192557687 now IPC :1.72983: AVG IPC :0.59506: L2-Pf-HR :0.96838: L2-HR :0.84197: (Sim:1h45m12s) 
CPU  1 inst:  116000002 cyc:  192618085 now IPC :1.75227: AVG IPC :0.59488: L2-Pf-HR :0.96599: L2-HR :0.83357: (Sim:1h45m18s) 
CPU  3 inst:  123000003 cyc:  192701503 now IPC :1.68204: AVG IPC :0.63113: L2-Pf-HR :0.97095: L2-HR :0.85222: (Sim:1h45m25s) 
CPU  0 inst:  117000002 cyc:  193104204 now IPC :1.82977: AVG IPC :0.59858: L2-Pf-HR :0.96859: L2-HR :0.84307: (Sim:1h46m2s) 
CPU  2 inst:  118000001 cyc:  193158944 now IPC :1.50780: AVG IPC :0.60361: L2-Pf-HR :0.97277: L2-HR :0.85537: (Sim:1h46m6s) 
CPU  1 inst:  117000005 cyc:  193205554 now IPC :1.70222: AVG IPC :0.59826: L2-Pf-HR :0.96626: L2-HR :0.83479: (Sim:1h46m11s) 
CPU  3 inst:  124000000 cyc:  193336742 now IPC :1.57421: AVG IPC :0.63425: L2-Pf-HR :0.97108: L2-HR :0.85289: (Sim:1h46m21s) 
CPU  2 inst:  119000004 cyc:  193805868 now IPC :1.54578: AVG IPC :0.60677: L2-Pf-HR :0.97285: L2-HR :0.85593: (Sim:1h47m2s) 
CPU  0 inst:  118000001 cyc:  193808099 now IPC :1.42067: AVG IPC :0.60158: L2-Pf-HR :0.96865: L2-HR :0.84360: (Sim:1h47m2s) 
CPU  1 inst:  118000000 cyc:  193863306 now IPC :1.52032: AVG IPC :0.60140: L2-Pf-HR :0.96634: L2-HR :0.83536: (Sim:1h47m8s) 
CPU  3 inst:  125000005 cyc:  193885958 now IPC :1.82079: AVG IPC :0.63762: L2-Pf-HR :0.97120: L2-HR :0.85373: (Sim:1h47m10s) 
*** Reached end of trace for Core: 3 Repeating trace: 770-tot_memTraces_v3/memTraces[125000000][OPT-125M]_[h12][s512][d64].champsim.xz
CPU  2 inst:  120000004 cyc:  194418183 now IPC :1.63315: AVG IPC :0.61002: L2-Pf-HR :0.97292: L2-HR :0.85660: (Sim:1h47m53s) 
CPU  0 inst:  119000004 cyc:  194429363 now IPC :1.60963: AVG IPC :0.60482: L2-Pf-HR :0.96880: L2-HR :0.84434: (Sim:1h47m54s) 
CPU  1 inst:  119000005 cyc:  194498677 now IPC :1.57389: AVG IPC :0.60460: L2-Pf-HR :0.96651: L2-HR :0.83623: (Sim:1h47m58s) 
CPU  3 inst:  126000000 cyc:  194899885 now IPC :0.98626: AVG IPC :0.63945: L2-Pf-HR :0.97127: L2-HR :0.85355: (Sim:1h48m29s) 
CPU  2 inst:  121000003 cyc:  194981013 now IPC :1.77673: AVG IPC :0.61341: L2-Pf-HR :0.97306: L2-HR :0.85739: (Sim:1h48m37s) 
CPU  0 inst:  120000004 cyc:  195044578 now IPC :1.62545: AVG IPC :0.60805: L2-Pf-HR :0.96897: L2-HR :0.84511: (Sim:1h48m43s) 
CPU  1 inst:  120000004 cyc:  195110087 now IPC :1.63556: AVG IPC :0.60784: L2-Pf-HR :0.96673: L2-HR :0.83717: (Sim:1h48m49s) 
CPU  3 inst:  127000004 cyc:  195418022 now IPC :1.93000: AVG IPC :0.64289: L2-Pf-HR :0.97154: L2-HR :0.85422: (Sim:1h49m17s) 
CPU  0 inst:  121000005 cyc:  195590839 now IPC :1.83063: AVG IPC :0.61148: L2-Pf-HR :0.96919: L2-HR :0.84615: (Sim:1h49m33s) 
CPU  2 inst:  122000002 cyc:  195606004 now IPC :1.60002: AVG IPC :0.61657: L2-Pf-HR :0.97310: L2-HR :0.85779: (Sim:1h49m35s) 
Finished CPU 2 instr: 120000003 cyc: 194623941 AVG IPC: 0.61657 (Sim time: 1h49m35s)
CPU  1 inst:  121000003 cyc:  195654616 now IPC :1.83645: AVG IPC :0.61128: L2-Pf-HR :0.96697: L2-HR :0.83832: (Sim:1h49m40s) 
CPU  3 inst:  128000001 cyc:  195936375 now IPC :1.92918: AVG IPC :0.64631: L2-Pf-HR :0.97182: L2-HR :0.85490: (Sim:1h50m3s) 
CPU  2 inst:  123000001 cyc:  196238714 now IPC :1.58050: AVG IPC :0.61970: L2-Pf-HR :0.97309: L2-HR :0.85809: (Sim:1h50m29s) 
CPU  0 inst:  122000002 cyc:  196249321 now IPC :1.51864: AVG IPC :0.61454: L2-Pf-HR :0.96925: L2-HR :0.84664: (Sim:1h50m30s) 
Finished CPU 0 instr: 120000001 cyc: 195267291 AVG IPC: 0.61454 (Sim time: 1h50m30s)
CPU  1 inst:  122000002 cyc:  196309069 now IPC :1.52799: AVG IPC :0.61435: L2-Pf-HR :0.96707: L2-HR :0.83888: (Sim:1h50m35s) 
Finished CPU 1 instr: 120000005 cyc: 195327079 AVG IPC: 0.61435 (Sim time: 1h50m35s)

ChampSim completed all CPUs

Total Simulation Statistics (not including warmup)

CPU 0 cumulative IPC: 0.61490 instructions: 120107564 cycles: 195327079
Core_0_L1D_total_access 37896023
Core_0_L1D_total_hit 35637089
Core_0_L1D_total_miss 2258934
Core_0_L1D_loads 34684067
Core_0_L1D_load_hit 32622483
Core_0_L1D_load_miss 2061584
Core_0_L1D_RFOs 3211956
Core_0_L1D_RFO_hit 3014606
Core_0_L1D_RFO_miss 197350
Core_0_L1D_prefetches 0
Core_0_L1D_prefetch_hit 0
Core_0_L1D_prefetch_miss 0
Core_0_L1D_writebacks 0
Core_0_L1D_writeback_hit 0
Core_0_L1D_writeback_miss 0

Core_0_L1I_total_access 18210632
Core_0_L1I_total_hit 18208683
Core_0_L1I_total_miss 1949
Core_0_L1I_loads 18210632
Core_0_L1I_load_hit 18208683
Core_0_L1I_load_miss 1949
Core_0_L1I_RFOs 0
Core_0_L1I_RFO_hit 0
Core_0_L1I_RFO_miss 0
Core_0_L1I_prefetches 0
Core_0_L1I_prefetch_hit 0
Core_0_L1I_prefetch_miss 0
Core_0_L1I_writebacks 0
Core_0_L1I_writeback_hit 0
Core_0_L1I_writeback_miss 0

Core_0_L2C_total_access 6916973
Core_0_L2C_total_hit 5857282
Core_0_L2C_total_miss 1059691
Core_0_L2C_loads 2063530
Core_0_L2C_load_hit 1320865
Core_0_L2C_load_miss 742665
Core_0_L2C_RFOs 197350
Core_0_L2C_RFO_hit 550
Core_0_L2C_RFO_miss 196800
Core_0_L2C_prefetches 3915069
Core_0_L2C_prefetch_hit 3794848
Core_0_L2C_prefetch_miss 120221
Core_0_L2C_writebacks 741024
Core_0_L2C_writeback_hit 741019
Core_0_L2C_writeback_miss 5

 All Calls: 8533104
 Critical Calls: 8533104
------------------
Depth Distribution
------------------
depth 0: 0
depth 1: 7879430
depth 2: 7296948
depth 3: 6545918
depth 4: 5835425
depth 5: 5068446
depth 6: 4333426
depth 7: 3633399
depth 8: 2541512
depth 9: 1659738
depth 10: 1034885
depth 11: 604279
depth 12: 267182
depth 13: 118317
depth 14: 3354
depth 15: 3293
depth 16: 0
depth 17: 0
depth 18: 0
depth 19: 0
depth 20: 0
depth 21: 0
depth 22: 0
depth 23: 0
depth 24: 0
depth 25: 0
depth 26: 0
depth 27: 0
depth 28: 0
depth 29: 0
Total: 46825552
-----------------------------
-----------------------------
	Captured at Filter
-----------------------------
depth 0: 0
depth 1: 345941
depth 2: 302637
depth 3: 289688
depth 4: 247331
depth 5: 216871
depth 6: 145064
depth 7: 116882
depth 8: 71459
depth 9: 33398
depth 10: 12936
depth 11: 5687
depth 12: 2195
depth 13: 675
depth 14: 18
depth 15: 23
depth 16: 0
depth 17: 0
depth 18: 0
depth 19: 0
depth 20: 0
depth 21: 0
depth 22: 0
depth 23: 0
depth 24: 0
depth 25: 0
depth 26: 0
depth 27: 0
depth 28: 0
depth 29: 0
-----------------------------
-----------------------------
		Lost at Page
-----------------------------
depth 0: 0
depth 1: 377342
depth 2: 474459
depth 3: 561332
depth 4: 566141
depth 5: 513728
depth 6: 472105
depth 7: 447334
depth 8: 382260
depth 9: 298581
depth 10: 206537
depth 11: 133408
depth 12: 63978
depth 13: 31183
depth 14: 953
depth 15: 1006
depth 16: 0
depth 17: 0
depth 18: 0
depth 19: 0
depth 20: 0
depth 21: 0
depth 22: 0
depth 23: 0
depth 24: 0
depth 25: 0
depth 26: 0
depth 27: 0
depth 28: 0
depth 29: 0
-----------------------------
-----------------------------
	Lost due to PQ Size
-----------------------------
1722495
-----------------------------
ST read accesses: 8034512
ST write accesses: 356725
PT read accesses: 317527966
PT write accesses: 11738385
FILTER read accesses: 62250604
FILTER write accesses: 12644611
GHR read accesses: 29619336
GHR write accesses: 4465358
GHR counter read accesses: 264604850
GHR counter write accesses: 16890420
ST tag read accesses: 3409965501
ST tag write accesses: 142010491
Core_0_LLC_total_access 3530081
Core_0_LLC_total_hit 2439392
Core_0_LLC_total_miss 1090689
Core_0_LLC_loads 598237
Core_0_LLC_load_hit 298529
Core_0_LLC_load_miss 299708
Core_0_LLC_RFOs 196800
Core_0_LLC_RFO_hit 46
Core_0_LLC_RFO_miss 196754
Core_0_LLC_prefetches 2124301
Core_0_LLC_prefetch_hit 1561562
Core_0_LLC_prefetch_miss 562739
Core_0_LLC_writebacks 610743
Core_0_LLC_writeback_hit 579255
Core_0_LLC_writeback_miss 31488


CPU 1 cumulative IPC: 0.61435 instructions: 120000005 cycles: 195327079
Core_1_L1D_total_access 37866683
Core_1_L1D_total_hit 35674655
Core_1_L1D_total_miss 2192028
Core_1_L1D_loads 34655164
Core_1_L1D_load_hit 32660566
Core_1_L1D_load_miss 1994598
Core_1_L1D_RFOs 3211519
Core_1_L1D_RFO_hit 3014089
Core_1_L1D_RFO_miss 197430
Core_1_L1D_prefetches 0
Core_1_L1D_prefetch_hit 0
Core_1_L1D_prefetch_miss 0
Core_1_L1D_writebacks 0
Core_1_L1D_writeback_hit 0
Core_1_L1D_writeback_miss 0

Core_1_L1I_total_access 18242423
Core_1_L1I_total_hit 18240445
Core_1_L1I_total_miss 1978
Core_1_L1I_loads 18242423
Core_1_L1I_load_hit 18240445
Core_1_L1I_load_miss 1978
Core_1_L1I_RFOs 0
Core_1_L1I_RFO_hit 0
Core_1_L1I_RFO_miss 0
Core_1_L1I_prefetches 0
Core_1_L1I_prefetch_hit 0
Core_1_L1I_prefetch_miss 0
Core_1_L1I_writebacks 0
Core_1_L1I_writeback_hit 0
Core_1_L1I_writeback_miss 0

Core_1_L2C_total_access 6577161
Core_1_L2C_total_hit 5517474
Core_1_L2C_total_miss 1059687
Core_1_L2C_loads 1996567
Core_1_L2C_load_hit 1253622
Core_1_L2C_load_miss 742945
Core_1_L2C_RFOs 197430
Core_1_L2C_RFO_hit 629
Core_1_L2C_RFO_miss 196801
Core_1_L2C_prefetches 3642378
Core_1_L2C_prefetch_hit 3522442
Core_1_L2C_prefetch_miss 119936
Core_1_L2C_writebacks 740786
Core_1_L2C_writeback_hit 740781
Core_1_L2C_writeback_miss 5

 All Calls: 8533104
 Critical Calls: 8533104
------------------
Depth Distribution
------------------
depth 0: 0
depth 1: 7879430
depth 2: 7296948
depth 3: 6545918
depth 4: 5835425
depth 5: 5068446
depth 6: 4333426
depth 7: 3633399
depth 8: 2541512
depth 9: 1659738
depth 10: 1034885
depth 11: 604279
depth 12: 267182
depth 13: 118317
depth 14: 3354
depth 15: 3293
depth 16: 0
depth 17: 0
depth 18: 0
depth 19: 0
depth 20: 0
depth 21: 0
depth 22: 0
depth 23: 0
depth 24: 0
depth 25: 0
depth 26: 0
depth 27: 0
depth 28: 0
depth 29: 0
Total: 46825552
-----------------------------
-----------------------------
	Captured at Filter
-----------------------------
depth 0: 0
depth 1: 345941
depth 2: 302637
depth 3: 289688
depth 4: 247331
depth 5: 216871
depth 6: 145064
depth 7: 116882
depth 8: 71459
depth 9: 33398
depth 10: 12936
depth 11: 5687
depth 12: 2195
depth 13: 675
depth 14: 18
depth 15: 23
depth 16: 0
depth 17: 0
depth 18: 0
depth 19: 0
depth 20: 0
depth 21: 0
depth 22: 0
depth 23: 0
depth 24: 0
depth 25: 0
depth 26: 0
depth 27: 0
depth 28: 0
depth 29: 0
-----------------------------
-----------------------------
		Lost at Page
-----------------------------
depth 0: 0
depth 1: 377342
depth 2: 474459
depth 3: 561332
depth 4: 566141
depth 5: 513728
depth 6: 472105
depth 7: 447334
depth 8: 382260
depth 9: 298581
depth 10: 206537
depth 11: 133408
depth 12: 63978
depth 13: 31183
depth 14: 953
depth 15: 1006
depth 16: 0
depth 17: 0
depth 18: 0
depth 19: 0
depth 20: 0
depth 21: 0
depth 22: 0
depth 23: 0
depth 24: 0
depth 25: 0
depth 26: 0
depth 27: 0
depth 28: 0
depth 29: 0
-----------------------------
-----------------------------
	Lost due to PQ Size
-----------------------------
1722495
-----------------------------
ST read accesses: 8034512
ST write accesses: 356725
PT read accesses: 317527966
PT write accesses: 11738385
FILTER read accesses: 62250604
FILTER write accesses: 12644611
GHR read accesses: 29619336
GHR write accesses: 4465358
GHR counter read accesses: 264604850
GHR counter write accesses: 16890420
ST tag read accesses: 3409965501
ST tag write accesses: 142010491
Core_1_LLC_total_access 3522413
Core_1_LLC_total_hit 2429792
Core_1_LLC_total_miss 1092621
Core_1_LLC_loads 598552
Core_1_LLC_load_hit 299418
Core_1_LLC_load_miss 299134
Core_1_LLC_RFOs 196801
Core_1_LLC_RFO_hit 48
Core_1_LLC_RFO_miss 196753
Core_1_LLC_prefetches 2116483
Core_1_LLC_prefetch_hit 1551481
Core_1_LLC_prefetch_miss 565002
Core_1_LLC_writebacks 610577
Core_1_LLC_writeback_hit 578845
Core_1_LLC_writeback_miss 31732


CPU 2 cumulative IPC: 0.62008 instructions: 121119217 cycles: 195327079
Core_2_L1D_total_access 38260664
Core_2_L1D_total_hit 35934733
Core_2_L1D_total_miss 2325931
Core_2_L1D_loads 35046319
Core_2_L1D_load_hit 32917791
Core_2_L1D_load_miss 2128528
Core_2_L1D_RFOs 3214345
Core_2_L1D_RFO_hit 3016942
Core_2_L1D_RFO_miss 197403
Core_2_L1D_prefetches 0
Core_2_L1D_prefetch_hit 0
Core_2_L1D_prefetch_miss 0
Core_2_L1D_writebacks 0
Core_2_L1D_writeback_hit 0
Core_2_L1D_writeback_miss 0

Core_2_L1I_total_access 18206948
Core_2_L1I_total_hit 18205013
Core_2_L1I_total_miss 1935
Core_2_L1I_loads 18206948
Core_2_L1I_load_hit 18205013
Core_2_L1I_load_miss 1935
Core_2_L1I_RFOs 0
Core_2_L1I_RFO_hit 0
Core_2_L1I_RFO_miss 0
Core_2_L1I_prefetches 0
Core_2_L1I_prefetch_hit 0
Core_2_L1I_prefetch_miss 0
Core_2_L1I_writebacks 0
Core_2_L1I_writeback_hit 0
Core_2_L1I_writeback_miss 0

Core_2_L2C_total_access 7508195
Core_2_L2C_total_hit 6442915
Core_2_L2C_total_miss 1065280
Core_2_L2C_loads 2130463
Core_2_L2C_load_hit 1381436
Core_2_L2C_load_miss 749027
Core_2_L2C_RFOs 197403
Core_2_L2C_RFO_hit 602
Core_2_L2C_RFO_miss 196801
Core_2_L2C_prefetches 4438099
Core_2_L2C_prefetch_hit 4318652
Core_2_L2C_prefetch_miss 119447
Core_2_L2C_writebacks 742230
Core_2_L2C_writeback_hit 742225
Core_2_L2C_writeback_miss 5

 All Calls: 8533104
 Critical Calls: 8533104
------------------
Depth Distribution
------------------
depth 0: 0
depth 1: 7879430
depth 2: 7296948
depth 3: 6545918
depth 4: 5835425
depth 5: 5068446
depth 6: 4333426
depth 7: 3633399
depth 8: 2541512
depth 9: 1659738
depth 10: 1034885
depth 11: 604279
depth 12: 267182
depth 13: 118317
depth 14: 3354
depth 15: 3293
depth 16: 0
depth 17: 0
depth 18: 0
depth 19: 0
depth 20: 0
depth 21: 0
depth 22: 0
depth 23: 0
depth 24: 0
depth 25: 0
depth 26: 0
depth 27: 0
depth 28: 0
depth 29: 0
Total: 46825552
-----------------------------
-----------------------------
	Captured at Filter
-----------------------------
depth 0: 0
depth 1: 345941
depth 2: 302637
depth 3: 289688
depth 4: 247331
depth 5: 216871
depth 6: 145064
depth 7: 116882
depth 8: 71459
depth 9: 33398
depth 10: 12936
depth 11: 5687
depth 12: 2195
depth 13: 675
depth 14: 18
depth 15: 23
depth 16: 0
depth 17: 0
depth 18: 0
depth 19: 0
depth 20: 0
depth 21: 0
depth 22: 0
depth 23: 0
depth 24: 0
depth 25: 0
depth 26: 0
depth 27: 0
depth 28: 0
depth 29: 0
-----------------------------
-----------------------------
		Lost at Page
-----------------------------
depth 0: 0
depth 1: 377342
depth 2: 474459
depth 3: 561332
depth 4: 566141
depth 5: 513728
depth 6: 472105
depth 7: 447334
depth 8: 382260
depth 9: 298581
depth 10: 206537
depth 11: 133408
depth 12: 63978
depth 13: 31183
depth 14: 953
depth 15: 1006
depth 16: 0
depth 17: 0
depth 18: 0
depth 19: 0
depth 20: 0
depth 21: 0
depth 22: 0
depth 23: 0
depth 24: 0
depth 25: 0
depth 26: 0
depth 27: 0
depth 28: 0
depth 29: 0
-----------------------------
-----------------------------
	Lost due to PQ Size
-----------------------------
1722495
-----------------------------
ST read accesses: 8034512
ST write accesses: 356725
PT read accesses: 317527966
PT write accesses: 11738385
FILTER read accesses: 62250604
FILTER write accesses: 12644611
GHR read accesses: 29619336
GHR write accesses: 4465358
GHR counter read accesses: 264604850
GHR counter write accesses: 16890420
ST tag read accesses: 3409965501
ST tag write accesses: 142010491
Core_2_LLC_total_access 3531698
Core_2_LLC_total_hit 2428706
Core_2_LLC_total_miss 1102992
Core_2_LLC_loads 605264
Core_2_LLC_load_hit 302815
Core_2_LLC_load_miss 302449
Core_2_LLC_RFOs 196801
Core_2_LLC_RFO_hit 49
Core_2_LLC_RFO_miss 196752
Core_2_LLC_prefetches 2120824
Core_2_LLC_prefetch_hit 1557260
Core_2_LLC_prefetch_miss 563564
Core_2_LLC_writebacks 608809
Core_2_LLC_writeback_hit 568582
Core_2_LLC_writeback_miss 40227


CPU 3 cumulative IPC: 0.64825 instructions: 126620847 cycles: 195327079
Core_3_L1D_total_access 39788163
Core_3_L1D_total_hit 37394908
Core_3_L1D_total_miss 2393255
Core_3_L1D_loads 36529261
Core_3_L1D_load_hit 34333520
Core_3_L1D_load_miss 2195741
Core_3_L1D_RFOs 3258902
Core_3_L1D_RFO_hit 3061388
Core_3_L1D_RFO_miss 197514
Core_3_L1D_prefetches 0
Core_3_L1D_prefetch_hit 0
Core_3_L1D_prefetch_miss 0
Core_3_L1D_writebacks 0
Core_3_L1D_writeback_hit 0
Core_3_L1D_writeback_miss 0

Core_3_L1I_total_access 18838680
Core_3_L1I_total_hit 18833753
Core_3_L1I_total_miss 4927
Core_3_L1I_loads 18838680
Core_3_L1I_load_hit 18833753
Core_3_L1I_load_miss 4927
Core_3_L1I_RFOs 0
Core_3_L1I_RFO_hit 0
Core_3_L1I_RFO_miss 0
Core_3_L1I_prefetches 0
Core_3_L1I_prefetch_hit 0
Core_3_L1I_prefetch_miss 0
Core_3_L1I_writebacks 0
Core_3_L1I_writeback_hit 0
Core_3_L1I_writeback_miss 0

Core_3_L2C_total_access 7580528
Core_3_L2C_total_hit 6483540
Core_3_L2C_total_miss 1096988
Core_3_L2C_loads 2200664
Core_3_L2C_load_hit 1424385
Core_3_L2C_load_miss 776279
Core_3_L2C_RFOs 197514
Core_3_L2C_RFO_hit 626
Core_3_L2C_RFO_miss 196888
Core_3_L2C_prefetches 4419026
Core_3_L2C_prefetch_hit 4295211
Core_3_L2C_prefetch_miss 123815
Core_3_L2C_writebacks 763324
Core_3_L2C_writeback_hit 763318
Core_3_L2C_writeback_miss 6

 All Calls: 8533104
 Critical Calls: 8533104
------------------
Depth Distribution
------------------
depth 0: 0
depth 1: 7879430
depth 2: 7296948
depth 3: 6545918
depth 4: 5835425
depth 5: 5068446
depth 6: 4333426
depth 7: 3633399
depth 8: 2541512
depth 9: 1659738
depth 10: 1034885
depth 11: 604279
depth 12: 267182
depth 13: 118317
depth 14: 3354
depth 15: 3293
depth 16: 0
depth 17: 0
depth 18: 0
depth 19: 0
depth 20: 0
depth 21: 0
depth 22: 0
depth 23: 0
depth 24: 0
depth 25: 0
depth 26: 0
depth 27: 0
depth 28: 0
depth 29: 0
Total: 46825552
-----------------------------
-----------------------------
	Captured at Filter
-----------------------------
depth 0: 0
depth 1: 345941
depth 2: 302637
depth 3: 289688
depth 4: 247331
depth 5: 216871
depth 6: 145064
depth 7: 116882
depth 8: 71459
depth 9: 33398
depth 10: 12936
depth 11: 5687
depth 12: 2195
depth 13: 675
depth 14: 18
depth 15: 23
depth 16: 0
depth 17: 0
depth 18: 0
depth 19: 0
depth 20: 0
depth 21: 0
depth 22: 0
depth 23: 0
depth 24: 0
depth 25: 0
depth 26: 0
depth 27: 0
depth 28: 0
depth 29: 0
-----------------------------
-----------------------------
		Lost at Page
-----------------------------
depth 0: 0
depth 1: 377342
depth 2: 474459
depth 3: 561332
depth 4: 566141
depth 5: 513728
depth 6: 472105
depth 7: 447334
depth 8: 382260
depth 9: 298581
depth 10: 206537
depth 11: 133408
depth 12: 63978
depth 13: 31183
depth 14: 953
depth 15: 1006
depth 16: 0
depth 17: 0
depth 18: 0
depth 19: 0
depth 20: 0
depth 21: 0
depth 22: 0
depth 23: 0
depth 24: 0
depth 25: 0
depth 26: 0
depth 27: 0
depth 28: 0
depth 29: 0
-----------------------------
-----------------------------
	Lost due to PQ Size
-----------------------------
1722495
-----------------------------
ST read accesses: 8034512
ST write accesses: 356725
PT read accesses: 317527966
PT write accesses: 11738385
FILTER read accesses: 62250604
FILTER write accesses: 12644611
GHR read accesses: 29619336
GHR write accesses: 4465358
GHR counter read accesses: 264604850
GHR counter write accesses: 16890420
ST tag read accesses: 3409965501
ST tag write accesses: 142010491
Core_3_LLC_total_access 3603637
Core_3_LLC_total_hit 2472469
Core_3_LLC_total_miss 1131168
Core_3_LLC_loads 632646
Core_3_LLC_load_hit 320318
Core_3_LLC_load_miss 312328
Core_3_LLC_RFOs 196888
Core_3_LLC_RFO_hit 89
Core_3_LLC_RFO_miss 196799
Core_3_LLC_prefetches 2160607
Core_3_LLC_prefetch_hit 1573255
Core_3_LLC_prefetch_miss 587352
Core_3_LLC_writebacks 613496
Core_3_LLC_writeback_hit 578807
[...]
Core_0_LLC_total_miss 1090584
Core_0_LLC_loads 598131
Core_0_LLC_load_hit 298478 LLC_load_Hit Ratio: 0.49902
Core_0_LLC_load_miss 299653
Core_0_LLC_RFOs 196800
Core_0_LLC_RFO_hit 46 LLC_RFO_Hit Ratio: 0.00023
Core_0_LLC_RFO_miss 196754
Core_0_LLC_prefetches 2123404
Core_0_LLC_prefetch_hit 1560715 LLC_prefetch_Hit Ratio: 0.73501
Core_0_LLC_prefetch_miss 562689
Core_0_LLC_writebacks 610743
Core_0_LLC_writeback_hit 579255 LLC_writeback_Hit Ratio: 0.94844
Core_0_LLC_writeback_miss 31488
Core_0_LLC_prefetch_requested 0
Core_0_LLC_prefetch_issued 0
Core_0_LLC_prefetch_useful 1234131 LLC_Useful Ratio: inf
Core_0_LLC_prefetch_useless 981516
Core_0_LLC_prefetch_late 383419
Core_0_LLC_average_miss_latency 3534.28332

Core_0_major_page_fault 0
Core_0_minor_page_fault 8629

Core_1_instructions 120000005
Core_1_cycles 195327079
Core_1_IPC 0.61435

Core_1_branch_prediction_accuracy 99.19469
Core_1_branch_MPKI 0.24154
Core_1_average_ROB_occupancy_at_mispredict 444.96615

Core_1_L1D_total_access 37866683
Core_1_L1D_total_hit 35674655 L1D_total_Hit Ratio: 0.94211
Core_1_L1D_total_miss 2192028
Core_1_L1D_loads 34655164
Core_1_L1D_load_hit 32660566 L1D_load_Hit Ratio: 0.94244
Core_1_L1D_load_miss 1994598
Core_1_L1D_RFOs 3211519
Core_1_L1D_RFO_hit 3014089 L1D_RFO_Hit Ratio: 0.93852
Core_1_L1D_RFO_miss 197430
Core_1_L1D_prefetches 0
Core_1_L1D_prefetch_hit 0 L1D_prefetch_Hit Ratio: -nan
Core_1_L1D_prefetch_miss 0
Core_1_L1D_writebacks 0
Core_1_L1D_writeback_hit 0 L1D_writeback_Hit Ratio: -nan
Core_1_L1D_writeback_miss 0
Core_1_L1D_prefetch_requested 0
Core_1_L1D_prefetch_issued 0
Core_1_L1D_prefetch_useful 0 L1D_Useful Ratio: -nan
Core_1_L1D_prefetch_useless 0
Core_1_L1D_prefetch_late 0
Core_1_L1D_average_miss_latency 300.32565

Core_1_L1I_total_access 18242423
Core_1_L1I_total_hit 18240445 L1I_total_Hit Ratio: 0.99989
Core_1_L1I_total_miss 1978
Core_1_L1I_loads 18242423
Core_1_L1I_load_hit 18240445 L1I_load_Hit Ratio: 0.99989
Core_1_L1I_load_miss 1978
Core_1_L1I_RFOs 0
Core_1_L1I_RFO_hit 0 L1I_RFO_Hit Ratio: -nan
Core_1_L1I_RFO_miss 0
Core_1_L1I_prefetches 0
Core_1_L1I_prefetch_hit 0 L1I_prefetch_Hit Ratio: -nan
Core_1_L1I_prefetch_miss 0
Core_1_L1I_writebacks 0
Core_1_L1I_writeback_hit 0 L1I_writeback_Hit Ratio: -nan
Core_1_L1I_writeback_miss 0
Core_1_L1I_prefetch_requested 0
Core_1_L1I_prefetch_issued 0
Core_1_L1I_prefetch_useful 0 L1I_Useful Ratio: -nan
Core_1_L1I_prefetch_useless 0
Core_1_L1I_prefetch_late 0
Core_1_L1I_average_miss_latency 928.64611

Core_1_L2C_total_access 6577161
Core_1_L2C_total_hit 5517474 L2C_total_Hit Ratio: 0.83888
Core_1_L2C_total_miss 1059687
Core_1_L2C_loads 1996567
Core_1_L2C_load_hit 1253622 L2C_load_Hit Ratio: 0.62789
Core_1_L2C_load_miss 742945
Core_1_L2C_RFOs 197430
Core_1_L2C_RFO_hit 629 L2C_RFO_Hit Ratio: 0.00319
Core_1_L2C_RFO_miss 196801
Core_1_L2C_prefetches 3642378
Core_1_L2C_prefetch_hit 3522442 L2C_prefetch_Hit Ratio: 0.96707
Core_1_L2C_prefetch_miss 119936
Core_1_L2C_writebacks 740786
Core_1_L2C_writeback_hit 740781 L2C_writeback_Hit Ratio: 0.99999
Core_1_L2C_writeback_miss 5
Core_1_L2C_prefetch_requested 11423430
Core_1_L2C_prefetch_issued 11015239
Core_1_L2C_prefetch_useful 121653 L2C_Useful Ratio: 0.01104
Core_1_L2C_prefetch_useless 207
Core_1_L2C_prefetch_late 144551
Core_1_L2C_average_miss_latency 606.88246

Core_1_LLC_total_access 3522413
Core_1_LLC_total_hit 2429792 LLC_total_Hit Ratio: 0.68981
Core_1_LLC_total_miss 1092621
Core_1_LLC_loads 598552
Core_1_LLC_load_hit 299418 LLC_load_Hit Ratio: 0.50024
Core_1_LLC_load_miss 299134
Core_1_LLC_RFOs 196801
Core_1_LLC_RFO_hit 48 LLC_RFO_Hit Ratio: 0.00024
Core_1_LLC_RFO_miss 196753
Core_1_LLC_prefetches 2116483
Core_1_LLC_prefetch_hit 1551481 LLC_prefetch_Hit Ratio: 0.73305
Core_1_LLC_prefetch_miss 565002
Core_1_LLC_writebacks 610577
Core_1_LLC_writeback_hit 578845 LLC_writeback_Hit Ratio: 0.94803
Core_1_LLC_writeback_miss 31732
Core_1_LLC_prefetch_requested 0
Core_1_LLC_prefetch_issued 0
Core_1_LLC_prefetch_useful 1234131 LLC_Useful Ratio: inf
Core_1_LLC_prefetch_useless 981516
Core_1_LLC_prefetch_late 383419
Core_1_LLC_average_miss_latency 3527.69427

Core_1_major_page_fault 0
Core_1_minor_page_fault 8629

Core_2_instructions 120000003
Core_2_cycles 194623941
Core_2_IPC 0.61657

Core_2_branch_prediction_accuracy 99.19531
Core_2_branch_MPKI 0.23961
Core_2_average_ROB_occupancy_at_mispredict 444.99914

Core_2_L1D_total_access 37867724
Core_2_L1D_total_hit 35560885 L1D_total_Hit Ratio: 0.93908
Core_2_L1D_total_miss 2306839
Core_2_L1D_loads 34655969
Core_2_L1D_load_hit 32546529 L1D_load_Hit Ratio: 0.93913
Core_2_L1D_load_miss 2109440
Core_2_L1D_RFOs 3211755
Core_2_L1D_RFO_hit 3014356 L1D_RFO_Hit Ratio: 0.93854
Core_2_L1D_RFO_miss 197399
Core_2_L1D_prefetches 0
Core_2_L1D_prefetch_hit 0 L1D_prefetch_Hit Ratio: -nan
Core_2_L1D_prefetch_miss 0
Core_2_L1D_writebacks 0
Core_2_L1D_writeback_hit 0 L1D_writeback_Hit Ratio: -nan
Core_2_L1D_writeback_miss 0
Core_2_L1D_prefetch_requested 0
Core_2_L1D_prefetch_issued 0
Core_2_L1D_prefetch_useful 0 L1D_Useful Ratio: -nan
Core_2_L1D_prefetch_useless 0
Core_2_L1D_prefetch_late 0
Core_2_L1D_average_miss_latency 283.56218

Core_2_L1I_total_access 18093794
Core_2_L1I_total_hit 18091859 L1I_total_Hit Ratio: 0.99989
Core_2_L1I_total_miss 1935
Core_2_L1I_loads 18093794
Core_2_L1I_load_hit 18091859 L1I_load_Hit Ratio: 0.99989
Core_2_L1I_load_miss 1935
Core_2_L1I_RFOs 0
Core_2_L1I_RFO_hit 0 L1I_RFO_Hit Ratio: -nan
Core_2_L1I_RFO_miss 0
Core_2_L1I_prefetches 0
Core_2_L1I_prefetch_hit 0 L1I_prefetch_Hit Ratio: -nan
Core_2_L1I_prefetch_miss 0
Core_2_L1I_writebacks 0
Core_2_L1I_writeback_hit 0 L1I_writeback_Hit Ratio: -nan
Core_2_L1I_writeback_miss 0
Core_2_L1I_prefetch_requested 0
Core_2_L1I_prefetch_issued 0
Core_2_L1I_prefetch_useful 0 L1I_Useful Ratio: -nan
Core_2_L1I_prefetch_useless 0
Core_2_L1I_prefetch_late 0
Core_2_L1I_average_miss_latency 976.91318

Core_2_L2C_total_access 7450649
Core_2_L2C_total_hit 6391070 L2C_total_Hit Ratio: 0.85779
Core_2_L2C_total_miss 1059579
Core_2_L2C_loads 2111375
Core_2_L2C_load_hit 1366991 L2C_load_Hit Ratio: 0.64744
Core_2_L2C_load_miss 744384
Core_2_L2C_RFOs 197399
Core_2_L2C_RFO_hit 598 L2C_RFO_Hit Ratio: 0.00303
Core_2_L2C_RFO_miss 196801
Core_2_L2C_prefetches 4400747
Core_2_L2C_prefetch_hit 4282358 L2C_prefetch_Hit Ratio: 0.97310
Core_2_L2C_prefetch_miss 118389
Core_2_L2C_writebacks 741128
Core_2_L2C_writeback_hit 741123 L2C_writeback_Hit Ratio: 0.99999
Core_2_L2C_writeback_miss 5
Core_2_L2C_prefetch_requested 12536456
Core_2_L2C_prefetch_issued 12100665
Core_2_L2C_prefetch_useful 120968 L2C_Useful Ratio: 0.01000
Core_2_L2C_prefetch_useless 202
Core_2_L2C_prefetch_late 143987
Core_2_L2C_average_miss_latency 599.14655

Core_2_LLC_total_access 3509875
Core_2_LLC_total_hit 2412224 LLC_total_Hit Ratio: 0.68727
Core_2_LLC_total_miss 1097651
Core_2_LLC_loads 600770
Core_2_LLC_load_hit 299472 LLC_load_Hit Ratio: 0.49848
Core_2_LLC_load_miss 301298
Core_2_LLC_RFOs 196801
Core_2_LLC_RFO_hit 49 LLC_RFO_Hit Ratio: 0.00025
Core_2_LLC_RFO_miss 196752
Core_2_LLC_prefetches 2104771
Core_2_LLC_prefetch_hit 1544861 LLC_prefetch_Hit Ratio: 0.73398
Core_2_LLC_prefetch_miss 559910
Core_2_LLC_writebacks 607533
Core_2_LLC_writeback_hit 567842 LLC_writeback_Hit Ratio: 0.93467
Core_2_LLC_writeback_miss 39691
Core_2_LLC_prefetch_requested 0
Core_2_LLC_prefetch_issued 0
Core_2_LLC_prefetch_useful 1234131 LLC_Useful Ratio: inf
Core_2_LLC_prefetch_useless 981516
Core_2_LLC_prefetch_late 383419
Core_2_LLC_average_miss_latency 3511.52857

Core_2_major_page_fault 0
Core_2_minor_page_fault 8646

Core_3_instructions 120000002
Core_3_cycles 191124699
Core_3_IPC 0.62786

Core_3_branch_prediction_accuracy 99.18441
Core_3_branch_MPKI 0.23625
Core_3_average_ROB_occupancy_at_mispredict 435.99646

Core_3_L1D_total_access 37865567
Core_3_L1D_total_hit 35590543 L1D_total_Hit Ratio: 0.93992
Core_3_L1D_total_miss 2275024
Core_3_L1D_loads 34654504
Core_3_L1D_load_hit 32576870 L1D_load_Hit Ratio: 0.94005
Core_3_L1D_load_miss 2077634
Core_3_L1D_RFOs 3211063
Core_3_L1D_RFO_hit 3013673 L1D_RFO_Hit Ratio: 0.93853
Core_3_L1D_RFO_miss 197390
Core_3_L1D_prefetches 0
Core_3_L1D_prefetch_hit 0 L1D_prefetch_Hit Ratio: -nan
Core_3_L1D_prefetch_miss 0
Core_3_L1D_writebacks 0
Core_3_L1D_writeback_hit 0 L1D_writeback_Hit Ratio: -nan
Core_3_L1D_writeback_miss 0
Core_3_L1D_prefetch_requested 0
Core_3_L1D_prefetch_issued 0
Core_3_L1D_prefetch_useful 0 L1D_Useful Ratio: -nan
Core_3_L1D_prefetch_useless 0
Core_3_L1D_prefetch_late 0
Core_3_L1D_average_miss_latency 275.43324

Core_3_L1I_total_access 18133439
Core_3_L1I_total_hit 18131498 L1I_total_Hit Ratio: 0.99989
Core_3_L1I_total_miss 1941
Core_3_L1I_loads 18133439
Core_3_L1I_load_hit 18131498 L1I_load_Hit Ratio: 0.99989
Core_3_L1I_load_miss 1941
Core_3_L1I_RFOs 0
Core_3_L1I_RFO_hit 0 L1I_RFO_Hit Ratio: -nan
Core_3_L1I_RFO_miss 0
Core_3_L1I_prefetches 0
Core_3_L1I_prefetch_hit 0 L1I_prefetch_Hit Ratio: -nan
Core_3_L1I_prefetch_miss 0
Core_3_L1I_writebacks 0
Core_3_L1I_writeback_hit 0 L1I_writeback_Hit Ratio: -nan
Core_3_L1I_writeback_miss 0
Core_3_L1I_prefetch_requested 0
Core_3_L1I_prefetch_issued 0
Core_3_L1I_prefetch_useful 0 L1I_Useful Ratio: -nan
Core_3_L1I_prefetch_useless 0
Core_3_L1I_prefetch_late 0
Core_3_L1I_average_miss_latency 1551.96806

Core_3_L2C_total_access 7140413
Core_3_L2C_total_hit 6081358 L2C_total_Hit Ratio: 0.85168
Core_3_L2C_total_miss 1059055
Core_3_L2C_loads 2079571
Core_3_L2C_load_hit 1337534 L2C_load_Hit Ratio: 0.64318
Core_3_L2C_load_miss 742037
Core_3_L2C_RFOs 197390
Core_3_L2C_RFO_hit 590 L2C_RFO_Hit Ratio: 0.00299
Core_3_L2C_RFO_miss 196800
Core_3_L2C_prefetches 4122596
Core_3_L2C_prefetch_hit 4002384 L2C_prefetch_Hit Ratio: 0.97084
Core_3_L2C_prefetch_miss 120212
Core_3_L2C_writebacks 740856
Core_3_L2C_writeback_hit 740850 L2C_writeback_Hit Ratio: 0.99999
Core_3_L2C_writeback_miss 6
Core_3_L2C_prefetch_requested 12683963
Core_3_L2C_prefetch_issued 12238184
Core_3_L2C_prefetch_useful 125454 L2C_Useful Ratio: 0.01025
Core_3_L2C_prefetch_useless 174
Core_3_L2C_prefetch_late 143894
Core_3_L2C_average_miss_latency 570.38364

Core_3_LLC_total_access 3495582
Core_3_LLC_total_hit 2403675 LLC_total_Hit Ratio: 0.68763
Core_3_LLC_total_miss 1091907
Core_3_LLC_loads 599470
Core_3_LLC_load_hit 297651 LLC_load_Hit Ratio: 0.49652
Core_3_LLC_load_miss 301819
Core_3_LLC_RFOs 196800
Core_3_LLC_RFO_hit 60 LLC_RFO_Hit Ratio: 0.00030
Core_3_LLC_RFO_miss 196740
Core_3_LLC_prefetches 2090587
Core_3_LLC_prefetch_hit 1531012 LLC_prefetch_Hit Ratio: 0.73234
Core_3_LLC_prefetch_miss 559575
Core_3_LLC_writebacks 608725
Core_3_LLC_writeback_hit 574952 LLC_writeback_Hit Ratio: 0.94452
Core_3_LLC_writeback_miss 33773
Core_3_LLC_prefetch_requested 0
Core_3_LLC_prefetch_issued 0
Core_3_LLC_prefetch_useful 1234131 LLC_Useful Ratio: inf
Core_3_LLC_prefetch_useless 981516
Core_3_LLC_prefetch_late 383419
Core_3_LLC_average_miss_latency 3530.00104

Core_3_major_page_fault 0
Core_3_minor_page_fault 8740

 All Calls: 8533104
 Critical Calls: 8533104
------------------
Depth Distribution
------------------
depth 0: 0
depth 1: 7879430
depth 2: 7296948
depth 3: 6545918
depth 4: 5835425
depth 5: 5068446
depth 6: 4333426
depth 7: 3633399
depth 8: 2541512
depth 9: 1659738
depth 10: 1034885
depth 11: 604279
depth 12: 267182
depth 13: 118317
depth 14: 3354
depth 15: 3293
depth 16: 0
depth 17: 0
depth 18: 0
depth 19: 0
depth 20: 0
depth 21: 0
depth 22: 0
depth 23: 0
depth 24: 0
depth 25: 0
depth 26: 0
depth 27: 0
depth 28: 0
depth 29: 0
Total: 46825552
-----------------------------
-----------------------------
	Captured at Filter
-----------------------------
depth 0: 0
depth 1: 345941
depth 2: 302637
depth 3: 289688
depth 4: 247331
depth 5: 216871
depth 6: 145064
depth 7: 116882
depth 8: 71459
depth 9: 33398
depth 10: 12936
depth 11: 5687
depth 12: 2195
depth 13: 675
depth 14: 18
depth 15: 23
depth 16: 0
depth 17: 0
depth 18: 0
depth 19: 0
depth 20: 0
depth 21: 0
depth 22: 0
depth 23: 0
depth 24: 0
depth 25: 0
depth 26: 0
depth 27: 0
depth 28: 0
depth 29: 0
-----------------------------
-----------------------------
		Lost at Page
-----------------------------
depth 0: 0
depth 1: 377342
depth 2: 474459
depth 3: 561332
depth 4: 566141
depth 5: 513728
depth 6: 472105
depth 7: 447334
depth 8: 382260
depth 9: 298581
depth 10: 206537
depth 11: 133408
depth 12: 63978
depth 13: 31183
depth 14: 953
depth 15: 1006
depth 16: 0
depth 17: 0
depth 18: 0
depth 19: 0
depth 20: 0
depth 21: 0
depth 22: 0
depth 23: 0
depth 24: 0
depth 25: 0
depth 26: 0
depth 27: 0
depth 28: 0
depth 29: 0
-----------------------------
-----------------------------
	Lost due to PQ Size
-----------------------------
1722495
-----------------------------
ST read accesses: 8034512
ST write accesses: 356725
PT read accesses: 317527966
PT write accesses: 11738385
FILTER read accesses: 62250604
FILTER write accesses: 12644611
GHR read accesses: 29619336
GHR write accesses: 4465358
GHR counter read accesses: 264604850
GHR counter write accesses: 16890420
ST tag read accesses: 3409965501
ST tag write accesses: 142010491
 All Calls: 8533104
 Critical Calls: 8533104
------------------
Depth Distribution
------------------
depth 0: 0
depth 1: 7879430
depth 2: 7296948
depth 3: 6545918
depth 4: 5835425
depth 5: 5068446
depth 6: 4333426
depth 7: 3633399
depth 8: 2541512
depth 9: 1659738
depth 10: 1034885
depth 11: 604279
depth 12: 267182
depth 13: 118317
depth 14: 3354
depth 15: 3293
depth 16: 0
depth 17: 0
depth 18: 0
depth 19: 0
depth 20: 0
depth 21: 0
depth 22: 0
depth 23: 0
depth 24: 0
depth 25: 0
depth 26: 0
depth 27: 0
depth 28: 0
depth 29: 0
Total: 46825552
-----------------------------
-----------------------------
	Captured at Filter
-----------------------------
depth 0: 0
depth 1: 345941
depth 2: 302637
depth 3: 289688
depth 4: 247331
depth 5: 216871
depth 6: 145064
depth 7: 116882
depth 8: 71459
depth 9: 33398
depth 10: 12936
depth 11: 5687
depth 12: 2195
depth 13: 675
depth 14: 18
depth 15: 23
depth 16: 0
depth 17: 0
depth 18: 0
depth 19: 0
depth 20: 0
depth 21: 0
depth 22: 0
depth 23: 0
depth 24: 0
depth 25: 0
depth 26: 0
depth 27: 0
depth 28: 0
depth 29: 0
-----------------------------
-----------------------------
		Lost at Page
-----------------------------
depth 0: 0
depth 1: 377342
depth 2: 474459
depth 3: 561332
depth 4: 566141
depth 5: 513728
depth 6: 472105
depth 7: 447334
depth 8: 382260
depth 9: 298581
depth 10: 206537
depth 11: 133408
depth 12: 63978
depth 13: 31183
depth 14: 953
depth 15: 1006
depth 16: 0
depth 17: 0
depth 18: 0
depth 19: 0
depth 20: 0
depth 21: 0
depth 22: 0
depth 23: 0
depth 24: 0
depth 25: 0
depth 26: 0
depth 27: 0
depth 28: 0
depth 29: 0
-----------------------------
-----------------------------
	Lost due to PQ Size
-----------------------------
1722495
-----------------------------
ST read accesses: 8034512
ST write accesses: 356725
PT read accesses: 317527966
PT write accesses: 11738385
FILTER read accesses: 62250604
FILTER write accesses: 12644611
GHR read accesses: 29619336
GHR write accesses: 4465358
GHR counter read accesses: 264604850
GHR counter write accesses: 16890420
ST tag read accesses: 3409965501
ST tag write accesses: 142010491
 All Calls: 8533104
 Critical Calls: 8533104
------------------
Depth Distribution
------------------
depth 0: 0
depth 1: 7879430
depth 2: 7296948
depth 3: 6545918
depth 4: 5835425
depth 5: 5068446
depth 6: 4333426
depth 7: 3633399
depth 8: 2541512
depth 9: 1659738
depth 10: 1034885
depth 11: 604279
depth 12: 267182
depth 13: 118317
depth 14: 3354
depth 15: 3293
depth 16: 0
depth 17: 0
depth 18: 0
depth 19: 0
depth 20: 0
depth 21: 0
depth 22: 0
depth 23: 0
depth 24: 0
depth 25: 0
depth 26: 0
depth 27: 0
depth 28: 0
depth 29: 0
Total: 46825552
-----------------------------
-----------------------------
	Captured at Filter
-----------------------------
depth 0: 0
depth 1: 345941
depth 2: 302637
depth 3: 289688
depth 4: 247331
depth 5: 216871
depth 6: 145064
depth 7: 116882
depth 8: 71459
depth 9: 33398
depth 10: 12936
depth 11: 5687
depth 12: 2195
depth 13: 675
depth 14: 18
depth 15: 23
depth 16: 0
depth 17: 0
depth 18: 0
depth 19: 0
depth 20: 0
depth 21: 0
depth 22: 0
depth 23: 0
depth 24: 0
depth 25: 0
depth 26: 0
depth 27: 0
depth 28: 0
depth 29: 0
-----------------------------
-----------------------------
		Lost at Page
-----------------------------
depth 0: 0
depth 1: 377342
depth 2: 474459
depth 3: 561332
depth 4: 566141
depth 5: 513728
depth 6: 472105
depth 7: 447334
depth 8: 382260
depth 9: 298581
depth 10: 206537
depth 11: 133408
depth 12: 63978
depth 13: 31183
depth 14: 953
depth 15: 1006
depth 16: 0
depth 17: 0
depth 18: 0
depth 19: 0
depth 20: 0
depth 21: 0
depth 22: 0
depth 23: 0
depth 24: 0
depth 25: 0
depth 26: 0
depth 27: 0
depth 28: 0
depth 29: 0
-----------------------------
-----------------------------
	Lost due to PQ Size
-----------------------------
1722495
-----------------------------
ST read accesses: 8034512
ST write accesses: 356725
PT read accesses: 317527966
PT write accesses: 11738385
FILTER read accesses: 62250604
FILTER write accesses: 12644611
GHR read accesses: 29619336
GHR write accesses: 4465358
GHR counter read accesses: 264604850
GHR counter write accesses: 16890420
ST tag read accesses: 3409965501
ST tag write accesses: 142010491
 All Calls: 8533104
 Critical Calls: 8533104
------------------
Depth Distribution
------------------
depth 0: 0
depth 1: 7879430
depth 2: 7296948
depth 3: 6545918
depth 4: 5835425
depth 5: 5068446
depth 6: 4333426
depth 7: 3633399
depth 8: 2541512
depth 9: 1659738
depth 10: 1034885
depth 11: 604279
depth 12: 267182
depth 13: 118317
depth 14: 3354
depth 15: 3293
depth 16: 0
depth 17: 0
depth 18: 0
depth 19: 0
depth 20: 0
depth 21: 0
depth 22: 0
depth 23: 0
depth 24: 0
depth 25: 0
depth 26: 0
depth 27: 0
depth 28: 0
depth 29: 0
Total: 46825552
-----------------------------
-----------------------------
	Captured at Filter
-----------------------------
depth 0: 0
depth 1: 345941
depth 2: 302637
depth 3: 289688
depth 4: 247331
depth 5: 216871
depth 6: 145064
depth 7: 116882
depth 8: 71459
depth 9: 33398
depth 10: 12936
depth 11: 5687
depth 12: 2195
depth 13: 675
depth 14: 18
depth 15: 23
depth 16: 0
depth 17: 0
depth 18: 0
depth 19: 0
depth 20: 0
depth 21: 0
depth 22: 0
depth 23: 0
depth 24: 0
depth 25: 0
depth 26: 0
depth 27: 0
depth 28: 0
depth 29: 0
-----------------------------
-----------------------------
		Lost at Page
-----------------------------
depth 0: 0
depth 1: 377342
depth 2: 474459
depth 3: 561332
depth 4: 566141
depth 5: 513728
depth 6: 472105
depth 7: 447334
depth 8: 382260
depth 9: 298581
depth 10: 206537
depth 11: 133408
depth 12: 63978
depth 13: 31183
depth 14: 953
depth 15: 1006
depth 16: 0
depth 17: 0
depth 18: 0
depth 19: 0
depth 20: 0
depth 21: 0
depth 22: 0
depth 23: 0
depth 24: 0
depth 25: 0
depth 26: 0
depth 27: 0
depth 28: 0
depth 29: 0
-----------------------------
-----------------------------
	Lost due to PQ Size
-----------------------------
1722495
-----------------------------
ST read accesses: 8034512
ST write accesses: 356725
PT read accesses: 317527966
PT write accesses: 11738385
FILTER read accesses: 62250604
FILTER write accesses: 12644611
GHR read accesses: 29619336
GHR write accesses: 4465358
GHR counter read accesses: 264604850
GHR counter write accesses: 16890420
ST tag read accesses: 3409965501
ST tag write accesses: 142010491
Channel_0_RQ_row_buffer_hit 1819870
Channel_0_RQ_row_buffer_miss 2459460
Channel_0_WQ_row_buffer_hit 692891
Channel_0_WQ_row_buffer_miss 1703934
Channel_0_WQ_full 13163
Channel_0_dbus_congested 4166322

avg_congested_cycle 8

EzSearch AVG IPC :0.61454: L2-Pf-HR :0.96925 : L2-HR :0.84680 Uful:0.01064
EzSearch AVG IPC :0.61435: L2-Pf-HR :0.96707 : L2-HR :0.83888 Uful:0.01104
EzSearch AVG IPC :0.61657: L2-Pf-HR :0.97310 : L2-HR :0.85812 Uful:0.01000
EzSearch AVG IPC :0.62786: L2-Pf-HR :0.97084 : L2-HR :0.85529 Uful:0.01025
     > Finished combination: TraceType=770-tot Sim:120000000 Prefetcher=L2spp_berti_src L1=no
