TRACE: [32000000]_FE_[OPT-125M]_[h12]_[s256]_[d64] Warmup: 2000000 NumTraces: 32000000
L1:bingo_dpc3:L2:bingo_dpc3
*************************************************
   ChampSim Multicore Out-of-Order Simulator
   Last compiled: Oct 29 2024 06:17:41
*************************************************

trace_0 770-tot_memTraces_v3/memTraces[32000000]_FE_[OPT-125M]_[h12]_[s256]_[d64].champsim.xz
trace_1 770-tot_memTraces_v3/memTraces[32000000]_FE_[OPT-125M]_[h12]_[s256]_[d64].champsim.xz
trace_2 770-tot_memTraces_v3/memTraces[32000000]_FE_[OPT-125M]_[h12]_[s256]_[d64].champsim.xz
trace_3 770-tot_memTraces_v3/memTraces[32000000]_FE_[OPT-125M]_[h12]_[s256]_[d64].champsim.xz
Bingo PHT WAYS: 16 and PHT_SIZE: 16384
Bingo2 PHT WAYS: 16 and PHT_SIZE: 16384
Bingo PHT WAYS: 16 and PHT_SIZE: 16384
Bingo2 PHT WAYS: 16 and PHT_SIZE: 16384
Bingo PHT WAYS: 16 and PHT_SIZE: 16384
Bingo2 PHT WAYS: 16 and PHT_SIZE: 16384
Bingo PHT WAYS: 16 and PHT_SIZE: 16384
Bingo2 PHT WAYS: 16 and PHT_SIZE: 16384
MAIN.cc ln 751 stats print skipped
CPU  1 inst:    1000000 cyc:     498537 now IPC :2.00587: AVG IPC :2.00587: L2-Pf-HR :0.71346: L2-HR :0.58288: (Sim:0h0m47s) 
CPU  2 inst:    1000000 cyc:     498641 now IPC :2.00545: AVG IPC :2.00545: L2-Pf-HR :0.67344: L2-HR :0.54796: (Sim:0h0m47s) 
CPU  3 inst:    1000000 cyc:     498673 now IPC :2.00532: AVG IPC :2.00532: L2-Pf-HR :0.72196: L2-HR :0.59791: (Sim:0h0m47s) 
CPU  0 inst:    1000000 cyc:     498755 now IPC :2.00499: AVG IPC :2.00499: L2-Pf-HR :0.72928: L2-HR :0.60773: (Sim:0h0m47s) 
CPU  1 inst:    2000004 cyc:     985748 now IPC :2.05251: AVG IPC :2.02892: L2-Pf-HR :0.71685: L2-HR :0.68301: (Sim:0h1m37s) 
CPU  2 inst:    2000004 cyc:     986003 now IPC :2.05187: AVG IPC :2.02840: L2-Pf-HR :0.69725: L2-HR :0.67200: (Sim:0h1m37s) 
CPU  3 inst:    2000004 cyc:     986187 now IPC :2.05123: AVG IPC :2.02802: L2-Pf-HR :0.71057: L2-HR :0.68504: (Sim:0h1m37s) 
CPU  0 inst:    2000004 cyc:     986222 now IPC :2.05143: AVG IPC :2.02795: L2-Pf-HR :0.74115: L2-HR :0.70210: (Sim:0h1m37s) 

Warmup complete CPU  0 instructions:    2000004 cycles:     986222 (Simulation time: 0 hr 1 min 37 sec) 
Warmup complete CPU  1 instructions:    2000912 cycles:     986221 (Simulation time: 0 hr 1 min 37 sec) 
Warmup complete CPU  2 instructions:    2000398 cycles:     986221 (Simulation time: 0 hr 1 min 37 sec) 
Warmup complete CPU  3 instructions:    2000098 cycles:     986221 (Simulation time: 0 hr 1 min 37 sec) 

CPU  2 inst:    3000001 cyc:    1677144 now IPC :1.44688: AVG IPC :1.44676: L2-Pf-HR :0.69828: L2-HR :0.75767: (Sim:0h2m23s) 
CPU  3 inst:    3000001 cyc:    1678815 now IPC :1.44377: AVG IPC :1.44371: L2-Pf-HR :0.74069: L2-HR :0.77537: (Sim:0h2m23s) 
CPU  0 inst:    3000001 cyc:    1693398 now IPC :1.41407: AVG IPC :1.41407: L2-Pf-HR :0.76544: L2-HR :0.78396: (Sim:0h2m24s) 
CPU  1 inst:    3000004 cyc:    1693591 now IPC :1.41274: AVG IPC :1.41240: L2-Pf-HR :0.73592: L2-HR :0.77507: (Sim:0h2m24s) 
CPU  2 inst:    4000000 cyc:    2333906 now IPC :1.52262: AVG IPC :1.48373: L2-Pf-HR :0.70247: L2-HR :0.76547: (Sim:0h3m10s) 
CPU  0 inst:    4000000 cyc:    2343535 now IPC :1.53814: AVG IPC :1.47350: L2-Pf-HR :0.76747: L2-HR :0.79571: (Sim:0h3m10s) 
CPU  3 inst:    4000000 cyc:    2357269 now IPC :1.47394: AVG IPC :1.45867: L2-Pf-HR :0.73767: L2-HR :0.77731: (Sim:0h3m11s) 
CPU  1 inst:    4000000 cyc:    2360773 now IPC :1.49884: AVG IPC :1.45436: L2-Pf-HR :0.73326: L2-HR :0.77978: (Sim:0h3m12s) 
CPU  2 inst:    5000005 cyc:    2971871 now IPC :1.56749: AVG IPC :1.51064: L2-Pf-HR :0.70554: L2-HR :0.76876: (Sim:0h3m56s) 
CPU  0 inst:    5000001 cyc:    2991345 now IPC :1.54366: AVG IPC :1.49617: L2-Pf-HR :0.76699: L2-HR :0.79763: (Sim:0h3m58s) 
CPU  1 inst:    5000005 cyc:    3000345 now IPC :1.56355: AVG IPC :1.48903: L2-Pf-HR :0.73308: L2-HR :0.78385: (Sim:0h3m58s) 
CPU  3 inst:    5000001 cyc:    3000442 now IPC :1.55479: AVG IPC :1.48936: L2-Pf-HR :0.73982: L2-HR :0.78323: (Sim:0h3m58s) 
CPU  2 inst:    6000004 cyc:    3609634 now IPC :1.56798: AVG IPC :1.52458: L2-Pf-HR :0.70972: L2-HR :0.77139: (Sim:0h4m23s) 
CPU  0 inst:    6000004 cyc:    3623933 now IPC :1.58081: AVG IPC :1.51647: L2-Pf-HR :0.76277: L2-HR :0.79813: (Sim:0h4m24s) 
CPU  3 inst:    6000004 cyc:    3637592 now IPC :1.56949: AVG IPC :1.50862: L2-Pf-HR :0.73588: L2-HR :0.78378: (Sim:0h4m24s) 
CPU  1 inst:    6000004 cyc:    3642711 now IPC :1.55674: AVG IPC :1.50540: L2-Pf-HR :0.72740: L2-HR :0.78174: (Sim:0h4m25s) 
CPU  2 inst:    7000000 cyc:    4248290 now IPC :1.56578: AVG IPC :1.53265: L2-Pf-HR :0.71119: L2-HR :0.77366: (Sim:0h4m55s) 
CPU  0 inst:    7000000 cyc:    4263735 now IPC :1.56298: AVG IPC :1.52555: L2-Pf-HR :0.76214: L2-HR :0.79985: (Sim:0h4m55s) 
CPU  3 inst:    7000000 cyc:    4272530 now IPC :1.57495: AVG IPC :1.52143: L2-Pf-HR :0.73586: L2-HR :0.78504: (Sim:0h4m56s) 
CPU  1 inst:    7000000 cyc:    4278916 now IPC :1.57181: AVG IPC :1.51824: L2-Pf-HR :0.73067: L2-HR :0.78446: (Sim:0h4m56s) 
CPU  2 inst:    8000002 cyc:    4878030 now IPC :1.58796: AVG IPC :1.54160: L2-Pf-HR :0.71145: L2-HR :0.77434: (Sim:0h5m21s) 
CPU  1 inst:    8000002 cyc:    4911588 now IPC :1.58060: AVG IPC :1.52829: L2-Pf-HR :0.73377: L2-HR :0.78704: (Sim:0h5m22s) 
CPU  0 inst:    8000002 cyc:    4912203 now IPC :1.54210: AVG IPC :1.52828: L2-Pf-HR :0.76110: L2-HR :0.80010: (Sim:0h5m22s) 
CPU  3 inst:    8000002 cyc:    4912990 now IPC :1.56138: AVG IPC :1.52795: L2-Pf-HR :0.73867: L2-HR :0.78822: (Sim:0h5m22s) 
CPU  2 inst:    9000005 cyc:    5499727 now IPC :1.60851: AVG IPC :1.55081: L2-Pf-HR :0.71268: L2-HR :0.77637: (Sim:0h5m47s) 
CPU  0 inst:    9000005 cyc:    5558121 now IPC :1.54819: AVG IPC :1.53109: L2-Pf-HR :0.75871: L2-HR :0.79954: (Sim:0h5m49s) 
CPU  3 inst:    9000005 cyc:    5563680 now IPC :1.53683: AVG IPC :1.52921: L2-Pf-HR :0.73545: L2-HR :0.78694: (Sim:0h5m50s) 
CPU  1 inst:    9000005 cyc:    5573112 now IPC :1.51167: AVG IPC :1.52589: L2-Pf-HR :0.73415: L2-HR :0.78734: (Sim:0h5m50s) 
CPU  2 inst:   10000000 cyc:    6108608 now IPC :1.64235: AVG IPC :1.56169: L2-Pf-HR :0.71479: L2-HR :0.77827: (Sim:0h6m13s) 
CPU  0 inst:   10000000 cyc:    6182566 now IPC :1.60141: AVG IPC :1.53954: L2-Pf-HR :0.75790: L2-HR :0.80005: (Sim:0h6m16s) 
CPU  3 inst:   10000000 cyc:    6187702 now IPC :1.60250: AVG IPC :1.53800: L2-Pf-HR :0.73443: L2-HR :0.78720: (Sim:0h6m17s) 
CPU  1 inst:   10000000 cyc:    6198741 now IPC :1.59838: AVG IPC :1.53459: L2-Pf-HR :0.73174: L2-HR :0.78650: (Sim:0h6m17s) 
CPU  2 inst:   11000001 cyc:    6721759 now IPC :1.63092: AVG IPC :1.56909: L2-Pf-HR :0.71509: L2-HR :0.77919: (Sim:0h6m40s) 
CPU  0 inst:   11000001 cyc:    6793552 now IPC :1.63670: AVG IPC :1.54976: L2-Pf-HR :0.75641: L2-HR :0.79945: (Sim:0h6m43s) 
CPU  3 inst:   11000001 cyc:    6799595 now IPC :1.63427: AVG IPC :1.54814: L2-Pf-HR :0.73395: L2-HR :0.78753: (Sim:0h6m43s) 
CPU  1 inst:   11000001 cyc:    6813911 now IPC :1.62557: AVG IPC :1.54419: L2-Pf-HR :0.73082: L2-HR :0.78660: (Sim:0h6m44s) 
CPU  2 inst:   12000001 cyc:    7340493 now IPC :1.61620: AVG IPC :1.57368: L2-Pf-HR :0.71400: L2-HR :0.77899: (Sim:0h7m6s) 
CPU  0 inst:   12000001 cyc:    7409676 now IPC :1.62305: AVG IPC :1.55679: L2-Pf-HR :0.75668: L2-HR :0.80010: (Sim:0h7m10s) 
CPU  1 inst:   12000001 cyc:    7420041 now IPC :1.64981: AVG IPC :1.55414: L2-Pf-HR :0.73036: L2-HR :0.78724: (Sim:0h7m11s) 
CPU  3 inst:   12000001 cyc:    7420386 now IPC :1.61085: AVG IPC :1.55419: L2-Pf-HR :0.73350: L2-HR :0.78766: (Sim:0h7m11s) 
CPU  2 inst:   13000002 cyc:    8057525 now IPC :1.39464: AVG IPC :1.55553: L2-Pf-HR :0.70853: L2-HR :0.76046: (Sim:0h7m49s) 
CPU  0 inst:   13000002 cyc:    8124015 now IPC :1.39990: AVG IPC :1.54109: L2-Pf-HR :0.75724: L2-HR :0.79140: (Sim:0h7m57s) 
CPU  3 inst:   13000002 cyc:    8132093 now IPC :1.40507: AVG IPC :1.53934: L2-Pf-HR :0.73040: L2-HR :0.77218: (Sim:0h7m58s) 
CPU  1 inst:   13000002 cyc:    8140820 now IPC :1.38739: AVG IPC :1.53735: L2-Pf-HR :0.72811: L2-HR :0.77368: (Sim:0h7m59s) 
CPU  2 inst:   14000000 cyc:   10342090 now IPC :0.43772: AVG IPC :1.28257: L2-Pf-HR :0.70010: L2-HR :0.76139: (Sim:0h8m42s) 
CPU  0 inst:   14000000 cyc:   10407631 now IPC :0.43790: AVG IPC :1.27369: L2-Pf-HR :0.74619: L2-HR :0.78870: (Sim:0h8m43s) 
CPU  3 inst:   14000001 cyc:   10418687 now IPC :0.43733: AVG IPC :1.27219: L2-Pf-HR :0.71836: L2-HR :0.76946: (Sim:0h8m44s) 
CPU  1 inst:   14000001 cyc:   10421509 now IPC :0.43846: AVG IPC :1.27172: L2-Pf-HR :0.72781: L2-HR :0.78033: (Sim:0h8m44s) 
CPU  2 inst:   15000000 cyc:   13309035 now IPC :0.33705: AVG IPC :1.05492: L2-Pf-HR :0.67461: L2-HR :0.74970: (Sim:0h9m27s) 
CPU  0 inst:   15000000 cyc:   13374438 now IPC :0.33706: AVG IPC :1.04938: L2-Pf-HR :0.72488: L2-HR :0.77867: (Sim:0h9m28s) 
CPU  3 inst:   15000000 cyc:   13386106 now IPC :0.33699: AVG IPC :1.04839: L2-Pf-HR :0.68774: L2-HR :0.75505: (Sim:0h9m28s) 
CPU  1 inst:   15000000 cyc:   13388370 now IPC :0.33706: AVG IPC :1.04813: L2-Pf-HR :0.70381: L2-HR :0.76940: (Sim:0h9m28s) 
CPU  2 inst:   16000000 cyc:   16276256 now IPC :0.33702: AVG IPC :0.91560: L2-Pf-HR :0.64120: L2-HR :0.73305: (Sim:0h10m11s) 
CPU  0 inst:   16000000 cyc:   16340916 now IPC :0.33710: AVG IPC :0.91177: L2-Pf-HR :0.70037: L2-HR :0.76614: (Sim:0h10m12s) 
CPU  3 inst:   16000000 cyc:   16352601 now IPC :0.33710: AVG IPC :0.91107: L2-Pf-HR :0.66612: L2-HR :0.74457: (Sim:0h10m12s) 
CPU  1 inst:   16000000 cyc:   16355201 now IPC :0.33706: AVG IPC :0.91087: L2-Pf-HR :0.67744: L2-HR :0.75624: (Sim:0h10m12s) 
CPU  2 inst:   17000001 cyc:   19243850 now IPC :0.33697: AVG IPC :0.82155: L2-Pf-HR :0.61362: L2-HR :0.71859: (Sim:0h10m55s) 
CPU  0 inst:   17000000 cyc:   19308760 now IPC :0.33694: AVG IPC :0.81866: L2-Pf-HR :0.66947: L2-HR :0.74945: (Sim:0h10m56s) 
CPU  3 inst:   17000001 cyc:   19320230 now IPC :0.33697: AVG IPC :0.81815: L2-Pf-HR :0.63750: L2-HR :0.72982: (Sim:0h10m56s) 
CPU  1 inst:   17000001 cyc:   19322841 now IPC :0.33697: AVG IPC :0.81799: L2-Pf-HR :0.64788: L2-HR :0.74059: (Sim:0h10m56s) 
CPU  2 inst:   18000000 cyc:   22211627 now IPC :0.33695: AVG IPC :0.75379: L2-Pf-HR :0.58754: L2-HR :0.70472: (Sim:0h11m48s) 
CPU  0 inst:   18000000 cyc:   22276548 now IPC :0.33695: AVG IPC :0.75151: L2-Pf-HR :0.63925: L2-HR :0.73285: (Sim:0h11m49s) 
CPU  3 inst:   18000000 cyc:   22287846 now IPC :0.33697: AVG IPC :0.75111: L2-Pf-HR :0.60933: L2-HR :0.71492: (Sim:0h11m49s) 
CPU  1 inst:   18000000 cyc:   22290636 now IPC :0.33695: AVG IPC :0.75098: L2-Pf-HR :0.61782: L2-HR :0.72452: (Sim:0h11m49s) 
CPU  2 inst:   19000000 cyc:   25179291 now IPC :0.33697: AVG IPC :0.70266: L2-Pf-HR :0.56123: L2-HR :0.69018: (Sim:0h12m32s) 
CPU  0 inst:   19000000 cyc:   25244238 now IPC :0.33696: AVG IPC :0.70080: L2-Pf-HR :0.61152: L2-HR :0.71721: (Sim:0h12m34s) 
CPU  3 inst:   19000000 cyc:   25255329 now IPC :0.33699: AVG IPC :0.70047: L2-Pf-HR :0.58442: L2-HR :0.70126: (Sim:0h12m34s) 
CPU  1 inst:   19000000 cyc:   25258166 now IPC :0.33698: AVG IPC :0.70036: L2-Pf-HR :0.59024: L2-HR :0.70913: (Sim:0h12m35s) 
CPU  2 inst:   20000004 cyc:   26916560 now IPC :0.57562: AVG IPC :0.69415: L2-Pf-HR :0.55709: L2-HR :0.68392: (Sim:0h13m37s) 
CPU  0 inst:   20000004 cyc:   26996014 now IPC :0.57085: AVG IPC :0.69205: L2-Pf-HR :0.60449: L2-HR :0.70934: (Sim:0h13m46s) 
CPU  3 inst:   20000004 cyc:   27023740 now IPC :0.56548: AVG IPC :0.69131: L2-Pf-HR :0.58172: L2-HR :0.69715: (Sim:0h13m49s) 
CPU  1 inst:   20000004 cyc:   27023854 now IPC :0.56635: AVG IPC :0.69127: L2-Pf-HR :0.58386: L2-HR :0.70150: (Sim:0h13m49s) 
CPU  2 inst:   21000005 cyc:   27463718 now IPC :1.82763: AVG IPC :0.71758: L2-Pf-HR :0.56741: L2-HR :0.68761: (Sim:0h14m33s) 
CPU  0 inst:   21000005 cyc:   27543150 now IPC :1.82770: AVG IPC :0.71544: L2-Pf-HR :0.60986: L2-HR :0.71038: (Sim:0h14m41s) 
CPU  3 inst:   21000005 cyc:   27579406 now IPC :1.79964: AVG IPC :0.71447: L2-Pf-HR :0.58791: L2-HR :0.69882: (Sim:0h14m43s) 
CPU  1 inst:   21000005 cyc:   27584513 now IPC :1.78362: AVG IPC :0.71430: L2-Pf-HR :0.59139: L2-HR :0.70334: (Sim:0h14m43s) 
CPU  2 inst:   22000003 cyc:   28006222 now IPC :1.84330: AVG IPC :0.74018: L2-Pf-HR :0.57635: L2-HR :0.69115: (Sim:0h15m19s) 
CPU  0 inst:   22000003 cyc:   28066701 now IPC :1.91003: AVG IPC :0.73854: L2-Pf-HR :0.61551: L2-HR :0.71196: (Sim:0h15m25s) 
CPU  3 inst:   22000003 cyc:   28119697 now IPC :1.85085: AVG IPC :0.73709: L2-Pf-HR :0.59540: L2-HR :0.70108: (Sim:0h15m30s) 
CPU  1 inst:   22000003 cyc:   28124451 now IPC :1.85206: AVG IPC :0.73693: L2-Pf-HR :0.59862: L2-HR :0.70575: (Sim:0h15m31s) 
CPU  2 inst:   23000000 cyc:   28559259 now IPC :1.80819: AVG IPC :0.76160: L2-Pf-HR :0.58576: L2-HR :0.69481: (Sim:0h16m11s) 
CPU  0 inst:   23000000 cyc:   28597713 now IPC :1.88319: AVG IPC :0.76055: L2-Pf-HR :0.62243: L2-HR :0.71488: (Sim:0h16m14s) 
CPU  3 inst:   23000000 cyc:   28688076 now IPC :1.75938: AVG IPC :0.75807: L2-Pf-HR :0.60475: L2-HR :0.70506: (Sim:0h16m23s) 
CPU  1 inst:   23000000 cyc:   28690427 now IPC :1.76685: AVG IPC :0.75797: L2-Pf-HR :0.60695: L2-HR :0.70872: (Sim:0h16m24s) 
CPU  2 inst:   24000003 cyc:   29083053 now IPC :1.90915: AVG IPC :0.78299: L2-Pf-HR :0.59275: L2-HR :0.69738: (Sim:0h17m1s) 
CPU  0 inst:   24000003 cyc:   29121049 now IPC :1.91082: AVG IPC :0.78195: L2-Pf-HR :0.62812: L2-HR :0.71705: (Sim:0h17m5s) 
CPU  3 inst:   24000003 cyc:   29219962 now IPC :1.88011: AVG IPC :0.77921: L2-Pf-HR :0.61181: L2-HR :0.70779: (Sim:0h17m15s) 
CPU  1 inst:   24000003 cyc:   29225724 now IPC :1.86813: AVG IPC :0.77902: L2-Pf-HR :0.61372: L2-HR :0.71119: (Sim:0h17m16s) 
CPU  2 inst:   25000002 cyc:   29618231 now IPC :1.86854: AVG IPC :0.80328: L2-Pf-HR :0.59864: L2-HR :0.69911: (Sim:0h17m52s) 
CPU  0 inst:   25000002 cyc:   29665407 now IPC :1.83702: AVG IPC :0.80198: L2-Pf-HR :0.63219: L2-HR :0.71849: (Sim:0h17m57s) 
CPU  3 inst:   25000002 cyc:   29764604 now IPC :1.83607: AVG IPC :0.79921: L2-Pf-HR :0.61709: L2-HR :0.70926: (Sim:0h18m7s) 
CPU  1 inst:   25000002 cyc:   29778155 now IPC :1.81018: AVG IPC :0.79880: L2-Pf-HR :0.61906: L2-HR :0.71283: (Sim:0h18m8s) 
CPU  2 inst:   26000001 cyc:   30155598 now IPC :1.86092: AVG IPC :0.82277: L2-Pf-HR :0.60432: L2-HR :0.70128: (Sim:0h18m32s) 
CPU  0 inst:   26000001 cyc:   30217365 now IPC :1.81173: AVG IPC :0.82104: L2-Pf-HR :0.63573: L2-HR :0.71999: (Sim:0h18m36s) 
CPU  3 inst:   26000001 cyc:   30311924 now IPC :1.82708: AVG IPC :0.81839: L2-Pf-HR :0.62150: L2-HR :0.71054: (Sim:0h18m41s) 
CPU  1 inst:   26000001 cyc:   30329466 now IPC :1.81386: AVG IPC :0.81787: L2-Pf-HR :0.62342: L2-HR :0.71372: (Sim:0h18m42s) 
CPU  2 inst:   27000002 cyc:   30677201 now IPC :1.91717: AVG IPC :0.84199: L2-Pf-HR :0.61010: L2-HR :0.70341: (Sim:0h19m2s) 
CPU  0 inst:   27000002 cyc:   30754913 now IPC :1.86030: AVG IPC :0.83981: L2-Pf-HR :0.63949: L2-HR :0.72242: (Sim:0h19m9s) 
CPU  3 inst:   27000002 cyc:   30844849 now IPC :1.87644: AVG IPC :0.83728: L2-Pf-HR :0.62572: L2-HR :0.71172: (Sim:0h19m19s) 
CPU  1 inst:   27000002 cyc:   30867305 now IPC :1.85929: AVG IPC :0.83662: L2-Pf-HR :0.62731: L2-HR :0.71465: (Sim:0h19m21s) 
CPU  2 inst:   28000004 cyc:   31206594 now IPC :1.88896: AVG IPC :0.86033: L2-Pf-HR :0.61568: L2-HR :0.70561: (Sim:0h19m54s) 
CPU  0 inst:   28000004 cyc:   31288958 now IPC :1.87251: AVG IPC :0.85801: L2-Pf-HR :0.64338: L2-HR :0.72373: (Sim:0h20m2s) 
CPU  3 inst:   28000004 cyc:   31368325 now IPC :1.91031: AVG IPC :0.85576: L2-Pf-HR :0.63085: L2-HR :0.71378: (Sim:0h20m9s) 
CPU  1 inst:   28000004 cyc:   31399617 now IPC :1.87860: AVG IPC :0.85486: L2-Pf-HR :0.63251: L2-HR :0.71674: (Sim:0h20m12s) 
CPU  2 inst:   29000002 cyc:   31734196 now IPC :1.89536: AVG IPC :0.87809: L2-Pf-HR :0.61966: L2-HR :0.70703: (Sim:0h20m45s) 
Finished CPU 2 instr: 27000003 cyc: 30748147 AVG IPC: 0.87810 (Sim time: 0h20m45s)
CPU  0 inst:   29000002 cyc:   31826015 now IPC :1.86200: AVG IPC :0.87549: L2-Pf-HR :0.64586: L2-HR :0.72430: (Sim:0h20m54s) 
Finished CPU 0 instr: 27000004 cyc: 30839794 AVG IPC: 0.87549 (Sim time: 0h20m54s)
CPU  3 inst:   29000002 cyc:   31899383 now IPC :1.88303: AVG IPC :0.87341: L2-Pf-HR :0.63438: L2-HR :0.71508: (Sim:0h21m1s) 
Finished CPU 3 instr: 27000003 cyc: 30913285 AVG IPC: 0.87341 (Sim time: 0h21m1s)
CPU  1 inst:   29000002 cyc:   31940151 now IPC :1.85002: AVG IPC :0.87223: L2-Pf-HR :0.63556: L2-HR :0.71760: (Sim:0h21m5s) 
Finished CPU 1 instr: 27000003 cyc: 30954402 AVG IPC: 0.87225 (Sim time: 0h21m5s)

ChampSim completed all CPUs

Total Simulation Statistics (not including warmup)

CPU 0 cumulative IPC: 0.87942 instructions: 27221830 cycles: 30954401
Core_0_L1D_total_access 9145205
Core_0_L1D_total_hit 8599460
Core_0_L1D_total_miss 545745
Core_0_L1D_loads 7841599
Core_0_L1D_load_hit 7660834
Core_0_L1D_load_miss 180765
Core_0_L1D_RFOs 869347
Core_0_L1D_RFO_hit 866362
Core_0_L1D_RFO_miss 2985
Core_0_L1D_prefetches 434259
Core_0_L1D_prefetch_hit 72264
Core_0_L1D_prefetch_miss 361995
Core_0_L1D_writebacks 0
Core_0_L1D_writeback_hit 0
Core_0_L1D_writeback_miss 0

Core_0_L1I_total_access 4017443
Core_0_L1I_total_hit 4015539
Core_0_L1I_total_miss 1904
Core_0_L1I_loads 4017443
Core_0_L1I_load_hit 4015539
Core_0_L1I_load_miss 1904
Core_0_L1I_RFOs 0
Core_0_L1I_RFO_hit 0
Core_0_L1I_RFO_miss 0
Core_0_L1I_prefetches 0
Core_0_L1I_prefetch_hit 0
Core_0_L1I_prefetch_miss 0
Core_0_L1I_writebacks 0
Core_0_L1I_writeback_hit 0
Core_0_L1I_writeback_miss 0

Core_0_L2C_total_access 822356
Core_0_L2C_total_hit 596076
Core_0_L2C_total_miss 226280
Core_0_L2C_loads 131698
Core_0_L2C_load_hit 89376
Core_0_L2C_load_miss 42322
Core_0_L2C_RFOs 2984
Core_0_L2C_RFO_hit 237
Core_0_L2C_RFO_miss 2747
Core_0_L2C_prefetches 513297
Core_0_L2C_prefetch_hit 332092
Core_0_L2C_prefetch_miss 181205
Core_0_L2C_writebacks 174377
Core_0_L2C_writeback_hit 174371
Core_0_L2C_writeback_miss 6

[Bingo] PHT Access: 41306
[Bingo] PHT Hit PC+Addr: 10805
[Bingo] PHT Hit PC+Offs: 28628
[Bingo] PHT Miss: 1873
[Bingo] Prefetch PC+Addr: 0
[Bingo] Prefetch PC+Offs: 0
[Bingo] Useful PC+Addr: 0
[Bingo] Useful PC+Offs: 0
[Bingo] Useless PC+Addr: 0
[Bingo] Useless PC+Offs: 0
[Bingo] L1 Prefetch per Region: 16.03857
[Bingo] L2 Prefetch per Region: 0.77679
[Bingo] L3 Prefetch per Region: 0.00000
[Bingo] No Prefetch per Region: 15.18464
[Bingo] Number of Voters Mean: 15.27697
[Bingo] Number of Voters SD: 2.82064
PHT read accesses: 529689
PHT write accesses: 39639
AT read accesses: 8090212
AT write accesses: 8090338
FT read accesses: 1133057
FT write accesses: 41306
PS read accesses: 363233
PS write accesses: 39433
PHT tag read accesses: 1647598
PHT tag write accesses: 50444
AT tag read accesses: 174371089
AT tag write accesses: 8129913
FT tag read accesses: 46086000
FT tag write accesses: 628361
PS tag read accesses: 138873882
PS tag write accesses: 401068
[Bingo2] PHT Access: 17246
[Bingo2] PHT Hit PC+Addr: 722
[Bingo2] PHT Hit PC+Offs: 13345
[Bingo2] PHT Miss: 3179
[Bingo2] Prefetch PC+Addr: 0
[Bingo2] Prefetch PC+Offs: 0
[Bingo2] Useful PC+Addr: 0
[Bingo2] Useful PC+Offs: 0
[Bingo2] Useless PC+Addr: 0
[Bingo2] Useless PC+Offs: 0
[Bingo2] L1 Prefetch per Region: 0.00000
[Bingo2] L2 Prefetch per Region: 14.84844
[Bingo2] L3 Prefetch per Region: 0.00000
[Bingo2] No Prefetch per Region: 17.15156
[Bingo2] Number of Voters Mean: 14.06429
[Bingo2] Number of Voters SD: 4.52647
PHT read accesses: 198247
PHT write accesses: 13818
AT read accesses: 122686
AT write accesses: 136498
FT read accesses: 51111
FT write accesses: 17246
PS read accesses: 45594
PS write accesses: 14067
PHT tag read accesses: 684186
PHT tag write accesses: 14540
AT tag read accesses: 14356386
AT tag write accesses: 136632
FT tag read accesses: 12616376
FT tag write accesses: 49785
PS tag read accesses: 2793043
PS tag write accesses: 58624
Core_0_LLC_total_access 344267
Core_0_LLC_total_hit 209515
Core_0_LLC_total_miss 134752
Core_0_LLC_loads 32070
Core_0_LLC_load_hit 12471
Core_0_LLC_load_miss 19599
Core_0_LLC_RFOs 2747
Core_0_LLC_RFO_hit 112
Core_0_LLC_RFO_miss 2635
Core_0_LLC_prefetches 191457
Core_0_LLC_prefetch_hit 80087
Core_0_LLC_prefetch_miss 111370
Core_0_LLC_writebacks 117993
Core_0_LLC_writeback_hit 116845
Core_0_LLC_writeback_miss 1148


CPU 1 cumulative IPC: 0.87225 instructions: 27000003 cycles: 30954402
Core_1_L1D_total_access 9051971
Core_1_L1D_total_hit 8540115
Core_1_L1D_total_miss 511856
Core_1_L1D_loads 7764494
Core_1_L1D_load_hit 7590848
Core_1_L1D_load_miss 173646
Core_1_L1D_RFOs 869205
Core_1_L1D_RFO_hit 866110
Core_1_L1D_RFO_miss 3095
Core_1_L1D_prefetches 418272
Core_1_L1D_prefetch_hit 83157
Core_1_L1D_prefetch_miss 335115
Core_1_L1D_writebacks 0
Core_1_L1D_writeback_hit 0
Core_1_L1D_writeback_miss 0

Core_1_L1I_total_access 3997396
Core_1_L1I_total_hit 3995525
Core_1_L1I_total_miss 1871
Core_1_L1I_loads 3997396
Core_1_L1I_load_hit 3995525
Core_1_L1I_load_miss 1871
Core_1_L1I_RFOs 0
Core_1_L1I_RFO_hit 0
Core_1_L1I_RFO_miss 0
Core_1_L1I_prefetches 0
Core_1_L1I_prefetch_hit 0
Core_1_L1I_prefetch_miss 0
Core_1_L1I_writebacks 0
Core_1_L1I_writeback_hit 0
Core_1_L1I_writeback_miss 0

Core_1_L2C_total_access 790601
Core_1_L2C_total_hit 567351
Core_1_L2C_total_miss 223250
Core_1_L2C_loads 123904
Core_1_L2C_load_hit 81899
Core_1_L2C_load_miss 42005
Core_1_L2C_RFOs 3093
Core_1_L2C_RFO_hit 242
Core_1_L2C_RFO_miss 2851
Core_1_L2C_prefetches 489527
Core_1_L2C_prefetch_hit 311139
Core_1_L2C_prefetch_miss 178388
Core_1_L2C_writebacks 174077
Core_1_L2C_writeback_hit 174071
Core_1_L2C_writeback_miss 6

[Bingo] PHT Access: 36119
[Bingo] PHT Hit PC+Addr: 9486
[Bingo] PHT Hit PC+Offs: 25321
[Bingo] PHT Miss: 1312
[Bingo] Prefetch PC+Addr: 0
[Bingo] Prefetch PC+Offs: 0
[Bingo] Useful PC+Addr: 0
[Bingo] Useful PC+Offs: 0
[Bingo] Useless PC+Addr: 0
[Bingo] Useless PC+Offs: 0
[Bingo] L1 Prefetch per Region: 16.61890
[Bingo] L2 Prefetch per Region: 0.89697
[Bingo] L3 Prefetch per Region: 0.00000
[Bingo] No Prefetch per Region: 14.48413
[Bingo] Number of Voters Mean: 15.40141
[Bingo] Number of Voters SD: 5.57370
PHT read accesses: 466831
PHT write accesses: 34836
AT read accesses: 7329389
AT write accesses: 7329392
FT read accesses: 1084793
FT write accesses: 36119
PS read accesses: 339227
PS write accesses: 34807
PHT tag read accesses: 1452142
PHT tag write accesses: 44322
AT tag read accesses: 159837626
AT tag write accesses: 7364206
FT tag read accesses: 43573564
FT tag write accesses: 596507
PS tag read accesses: 126271857
PS tag write accesses: 372792
[Bingo2] PHT Access: 15863
[Bingo2] PHT Hit PC+Addr: 888
[Bingo2] PHT Hit PC+Offs: 13598
[Bingo2] PHT Miss: 1377
[Bingo2] Prefetch PC+Addr: 0
[Bingo2] Prefetch PC+Offs: 0
[Bingo2] Useful PC+Addr: 0
[Bingo2] Useful PC+Offs: 0
[Bingo2] Useless PC+Addr: 0
[Bingo2] Useless PC+Offs: 0
[Bingo2] L1 Prefetch per Region: 0.00000
[Bingo2] L2 Prefetch per Region: 14.06047
[Bingo2] L3 Prefetch per Region: 0.00000
[Bingo2] No Prefetch per Region: 17.93953
[Bingo2] Number of Voters Mean: 14.60560
[Bingo2] Number of Voters SD: 5.47117
PHT read accesses: 208769
PHT write accesses: 13036
AT read accesses: 104873
AT write accesses: 117780
FT read accesses: 45735
FT write accesses: 15863
PS read accesses: 46056
PS write accesses: 14486
PHT tag read accesses: 641476
PHT tag write accesses: 13924
AT tag read accesses: 13985537
AT tag write accesses: 117909
FT tag read accesses: 12506930
FT tag write accesses: 45256
PS tag read accesses: 2470715
PS tag write accesses: 59294
Core_1_LLC_total_access 338823
Core_1_LLC_total_hit 205139
Core_1_LLC_total_miss 133684
Core_1_LLC_loads 31278
Core_1_LLC_load_hit 11663
Core_1_LLC_load_miss 19615
Core_1_LLC_RFOs 2851
Core_1_LLC_RFO_hit 75
Core_1_LLC_RFO_miss 2776
Core_1_LLC_prefetches 189115
Core_1_LLC_prefetch_hit 78409
Core_1_LLC_prefetch_miss 110706
Core_1_LLC_writebacks 115579
Core_1_LLC_writeback_hit 114992
Core_1_LLC_writeback_miss 587


CPU 2 cumulative IPC: 0.88520 instructions: 27400799 cycles: 30954402
Core_2_L1D_total_access 9213131
Core_2_L1D_total_hit 8701427
Core_2_L1D_total_miss 511704
Core_2_L1D_loads 7907714
Core_2_L1D_load_hit 7729935
Core_2_L1D_load_miss 177779
Core_2_L1D_RFOs 869730
Core_2_L1D_RFO_hit 866615
Core_2_L1D_RFO_miss 3115
Core_2_L1D_prefetches 435687
Core_2_L1D_prefetch_hit 104877
Core_2_L1D_prefetch_miss 330810
Core_2_L1D_writebacks 0
Core_2_L1D_writeback_hit 0
Core_2_L1D_writeback_miss 0

Core_2_L1I_total_access 4036583
Core_2_L1I_total_hit 4034708
Core_2_L1I_total_miss 1875
Core_2_L1I_loads 4036583
Core_2_L1I_load_hit 4034708
Core_2_L1I_load_miss 1875
Core_2_L1I_RFOs 0
Core_2_L1I_RFO_hit 0
Core_2_L1I_RFO_miss 0
Core_2_L1I_prefetches 0
Core_2_L1I_prefetch_hit 0
Core_2_L1I_prefetch_miss 0
Core_2_L1I_writebacks 0
Core_2_L1I_writeback_hit 0
Core_2_L1I_writeback_miss 0

Core_2_L2C_total_access 792736
Core_2_L2C_total_hit 561122
Core_2_L2C_total_miss 231614
Core_2_L2C_loads 128613
Core_2_L2C_load_hit 84064
Core_2_L2C_load_miss 44549
Core_2_L2C_RFOs 3115
Core_2_L2C_RFO_hit 255
Core_2_L2C_RFO_miss 2860
Core_2_L2C_prefetches 486938
Core_2_L2C_prefetch_hit 302739
Core_2_L2C_prefetch_miss 184199
Core_2_L2C_writebacks 174070
Core_2_L2C_writeback_hit 174064
Core_2_L2C_writeback_miss 6

[Bingo] PHT Access: 41850
[Bingo] PHT Hit PC+Addr: 11352
[Bingo] PHT Hit PC+Offs: 28466
[Bingo] PHT Miss: 2032
[Bingo] Prefetch PC+Addr: 0
[Bingo] Prefetch PC+Offs: 0
[Bingo] Useful PC+Addr: 0
[Bingo] Useful PC+Offs: 0
[Bingo] Useless PC+Addr: 0
[Bingo] Useless PC+Offs: 0
[Bingo] L1 Prefetch per Region: 15.76792
[Bingo] L2 Prefetch per Region: 0.92051
[Bingo] L3 Prefetch per Region: 0.00000
[Bingo] No Prefetch per Region: 15.31157
[Bingo] Number of Voters Mean: 15.23821
[Bingo] Number of Voters SD: 2.90008
PHT read accesses: 529298
PHT write accesses: 40127
AT read accesses: 8153533
AT write accesses: 8153712
FT read accesses: 1140221
FT write accesses: 41850
PS read accesses: 360464
PS write accesses: 39818
PHT tag read accesses: 1662529
PHT tag write accesses: 51479
AT tag read accesses: 175444143
AT tag write accesses: 8193718
FT tag read accesses: 46159431
FT tag write accesses: 632764
PS tag read accesses: 139946516
PS tag write accesses: 399106
[Bingo2] PHT Access: 18691
[Bingo2] PHT Hit PC+Addr: 720
[Bingo2] PHT Hit PC+Offs: 14749
[Bingo2] PHT Miss: 3222
[Bingo2] Prefetch PC+Addr: 0
[Bingo2] Prefetch PC+Offs: 0
[Bingo2] Useful PC+Addr: 0
[Bingo2] Useful PC+Offs: 0
[Bingo2] Useless PC+Addr: 0
[Bingo2] Useless PC+Offs: 0
[Bingo2] L1 Prefetch per Region: 0.00000
[Bingo2] L2 Prefetch per Region: 14.00187
[Bingo2] L3 Prefetch per Region: 0.00000
[Bingo2] No Prefetch per Region: 17.99813
[Bingo2] Number of Voters Mean: 14.68283
[Bingo2] Number of Voters SD: 3.94618
PHT read accesses: 225168
PHT write accesses: 15063
AT read accesses: 119536
AT write accesses: 134601
FT read accesses: 52813
FT write accesses: 18691
PS read accesses: 49349
PS write accesses: 15469
PHT tag read accesses: 745007
PHT tag write accesses: 15783
AT tag read accesses: 14372806
AT tag write accesses: 134727
FT tag read accesses: 12695945
FT tag write accesses: 52702
PS tag read accesses: 2793508
PS tag write accesses: 63674
Core_2_LLC_total_access 351771
Core_2_LLC_total_hit 217463
Core_2_LLC_total_miss 134308
Core_2_LLC_loads 32497
Core_2_LLC_load_hit 13330
Core_2_LLC_load_miss 19167
Core_2_LLC_RFOs 2860
Core_2_LLC_RFO_hit 120
Core_2_LLC_RFO_miss 2740
Core_2_LLC_prefetches 196251
Core_2_LLC_prefetch_hit 84580
Core_2_LLC_prefetch_miss 111671
Core_2_LLC_writebacks 120163
Core_2_LLC_writeback_hit 119433
Core_2_LLC_writeback_miss 730


CPU 3 cumulative IPC: 0.87478 instructions: 27078282 cycles: 30954402
Core_3_L1D_total_access 9083949
Core_3_L1D_total_hit 8565272
Core_3_L1D_total_miss 518677
Core_3_L1D_loads 7791369
Core_3_L1D_load_hit 7614737
Core_3_L1D_load_miss 176632
Core_3_L1D_RFOs 869429
Core_3_L1D_RFO_hit 866296
Core_3_L1D_RFO_miss 3133
Core_3_L1D_prefetches 423151
Core_3_L1D_prefetch_hit 84239
Core_3_L1D_prefetch_miss 338912
Core_3_L1D_writebacks 0
Core_3_L1D_writeback_hit 0
Core_3_L1D_writeback_miss 0

Core_3_L1I_total_access 4005123
Core_3_L1I_total_hit 4003152
Core_3_L1I_total_miss 1971
Core_3_L1I_loads 4005123
Core_3_L1I_load_hit 4003152
Core_3_L1I_load_miss 1971
Core_3_L1I_RFOs 0
Core_3_L1I_RFO_hit 0
Core_3_L1I_RFO_miss 0
Core_3_L1I_prefetches 0
Core_3_L1I_prefetch_hit 0
Core_3_L1I_prefetch_miss 0
Core_3_L1I_writebacks 0
Core_3_L1I_writeback_hit 0
Core_3_L1I_writeback_miss 0

Core_3_L2C_total_access 796694
Core_3_L2C_total_hit 569319
Core_3_L2C_total_miss 227375
Core_3_L2C_loads 127958
Core_3_L2C_load_hit 83251
Core_3_L2C_load_miss 44707
Core_3_L2C_RFOs 3133
Core_3_L2C_RFO_hit 224
Core_3_L2C_RFO_miss 2909
Core_3_L2C_prefetches 490921
Core_3_L2C_prefetch_hit 311168
Core_3_L2C_prefetch_miss 179753
Core_3_L2C_writebacks 174682
Core_3_L2C_writeback_hit 174676
Core_3_L2C_writeback_miss 6

[Bingo] PHT Access: 40444
[Bingo] PHT Hit PC+Addr: 10456
[Bingo] PHT Hit PC+Offs: 28017
[Bingo] PHT Miss: 1971
[Bingo] Prefetch PC+Addr: 0
[Bingo] Prefetch PC+Offs: 0
[Bingo] Useful PC+Addr: 0
[Bingo] Useful PC+Offs: 0
[Bingo] Useless PC+Addr: 0
[Bingo] Useless PC+Offs: 0
[Bingo] L1 Prefetch per Region: 16.05905
[Bingo] L2 Prefetch per Region: 0.83219
[Bingo] L3 Prefetch per Region: 0.00000
[Bingo] No Prefetch per Region: 15.10875
[Bingo] Number of Voters Mean: 15.29568
[Bingo] Number of Voters SD: 2.79271
PHT read accesses: 513507
PHT write accesses: 38861
AT read accesses: 8037850
AT write accesses: 8037944
FT read accesses: 1134695
FT write accesses: 40444
PS read accesses: 355234
PS write accesses: 38473
PHT tag read accesses: 1620934
PHT tag write accesses: 49317
AT tag read accesses: 173531923
AT tag write accesses: 8076773
FT tag read accesses: 46056515
FT tag write accesses: 627888
PS tag read accesses: 138034702
PS tag write accesses: 392688
[Bingo2] PHT Access: 17921
[Bingo2] PHT Hit PC+Addr: 826
[Bingo2] PHT Hit PC+Offs: 13851
[Bingo2] PHT Miss: 3244
[Bingo2] Prefetch PC+Addr: 0
[Bingo2] Prefetch PC+Offs: 0
[Bingo2] Useful PC+Addr: 0
[Bingo2] Useful PC+Offs: 0
[Bingo2] Useless PC+Addr: 0
[Bingo2] Useless PC+Offs: 0
[Bingo2] L1 Prefetch per Region: 0.00000
[Bingo2] L2 Prefetch per Region: 14.18669
[Bingo2] L3 Prefetch per Region: 0.00000
[Bingo2] No Prefetch per Region: 17.81331
[Bingo2] Number of Voters Mean: 14.47599
[Bingo2] Number of Voters SD: 4.27975
PHT read accesses: 209689
PHT write accesses: 14457
AT read accesses: 119191
AT write accesses: 133647
FT read accesses: 51590
FT write accesses: 17921
PS read accesses: 47823
PS write accesses: 14677
PHT tag read accesses: 712177
PHT tag write accesses: 15283
AT tag read accesses: 14330509
AT tag write accesses: 133776
FT tag read accesses: 12652272
FT tag write accesses: 51023
PS tag read accesses: 2757206
PS tag write accesses: 61350
Core_3_LLC_total_access 346047
Core_3_LLC_total_hit 211493
Core_3_LLC_total_miss 134554
Core_3_LLC_loads 32263
Core_3_LLC_load_hit 12772
Core_3_LLC_load_miss 19491
Core_3_LLC_RFOs 2909
Core_3_LLC_RFO_hit 113
Core_3_LLC_RFO_miss 2796
Core_3_LLC_prefetches 192197
Core_3_LLC_prefetch_hit 81052
Core_3_LLC_prefetch_miss 111145
Core_3_LLC_writebacks 118678
Core_3_LLC_writeback_hit 117556
Core_3_LLC_writeback_miss 1122


[ROI Statistics]
Core_0_instructions 27000004
Core_0_cycles 30839794
Core_0_IPC 0.87549

Core_0_branch_prediction_accuracy 98.38014
Core_0_branch_MPKI 0.53042
Core_0_average_ROB_occupancy_at_mispredict 329.05319

Core_0_L1D_total_access 9062219
Core_0_L1D_total_hit 8521009 L1D_total_Hit Ratio: 0.94028
Core_0_L1D_total_miss 541210
Core_0_L1D_loads 7763829
Core_0_L1D_load_hit 7584034 L1D_load_Hit Ratio: 0.97684
Core_0_L1D_load_miss 179795
Core_0_L1D_RFOs 868839
Core_0_L1D_RFO_hit 865854 L1D_RFO_Hit Ratio: 0.99656
Core_0_L1D_RFO_miss 2985
Core_0_L1D_prefetches 429551
Core_0_L1D_prefetch_hit 71121 L1D_prefetch_Hit Ratio: 0.16557
Core_0_L1D_prefetch_miss 358430
Core_0_L1D_writebacks 0
Core_0_L1D_writeback_hit 0 L1D_writeback_Hit Ratio: -nan
Core_0_L1D_writeback_miss 0
Core_0_L1D_prefetch_requested 563439
Core_0_L1D_prefetch_issued 563439
Core_0_L1D_prefetch_useful 373711 L1D_Useful Ratio: 0.66327
Core_0_L1D_prefetch_useless 11659
Core_0_L1D_prefetch_late 52083
Core_0_L1D_average_miss_latency 743041.02712

Core_0_L1I_total_access 3995170
Core_0_L1I_total_hit 3993266 L1I_total_Hit Ratio: 0.99952
Core_0_L1I_total_miss 1904
Core_0_L1I_loads 3995170
Core_0_L1I_load_hit 3993266 L1I_load_Hit Ratio: 0.99952
Core_0_L1I_load_miss 1904
Core_0_L1I_RFOs 0
Core_0_L1I_RFO_hit 0 L1I_RFO_Hit Ratio: -nan
Core_0_L1I_RFO_miss 0
Core_0_L1I_prefetches 0
Core_0_L1I_prefetch_hit 0 L1I_prefetch_Hit Ratio: -nan
Core_0_L1I_prefetch_miss 0
Core_0_L1I_writebacks 0
Core_0_L1I_writeback_hit 0 L1I_writeback_Hit Ratio: -nan
Core_0_L1I_writeback_miss 0
Core_0_L1I_prefetch_requested 0
Core_0_L1I_prefetch_issued 0
Core_0_L1I_prefetch_useful 0 L1I_Useful Ratio: -nan
Core_0_L1I_prefetch_useless 0
Core_0_L1I_prefetch_late 0
Core_0_L1I_average_miss_latency 243.76155

Core_0_L2C_total_access 817277
Core_0_L2C_total_hit 591957 L2C_total_Hit Ratio: 0.72430
Core_0_L2C_total_miss 225320
Core_0_L2C_loads 130795
Core_0_L2C_load_hit 88578 L2C_load_Hit Ratio: 0.67723
Core_0_L2C_load_miss 42217
Core_0_L2C_RFOs 2984
Core_0_L2C_RFO_hit 237 L2C_RFO_Hit Ratio: 0.07942
Core_0_L2C_RFO_miss 2747
Core_0_L2C_prefetches 509263
Core_0_L2C_prefetch_hit 328913 L2C_prefetch_Hit Ratio: 0.64586
Core_0_L2C_prefetch_miss 180350
Core_0_L2C_writebacks 174235
Core_0_L2C_writeback_hit 174229 L2C_writeback_Hit Ratio: 0.99997
Core_0_L2C_writeback_miss 6
Core_0_L2C_prefetch_requested 148677
Core_0_L2C_prefetch_issued 148677
Core_0_L2C_prefetch_useful 45098 L2C_Useful Ratio: 0.30333
Core_0_L2C_prefetch_useless 100267
Core_0_L2C_prefetch_late 10401
Core_0_L2C_average_miss_latency 182.44090

Core_0_LLC_total_access 342894
Core_0_LLC_total_hit 208334 LLC_total_Hit Ratio: 0.60758
Core_0_LLC_total_miss 134560
Core_0_LLC_loads 31980
Core_0_LLC_load_hit 12423 LLC_load_Hit Ratio: 0.38846
Core_0_LLC_load_miss 19557
Core_0_LLC_RFOs 2747
Core_0_LLC_RFO_hit 112 LLC_RFO_Hit Ratio: 0.04077
Core_0_LLC_RFO_miss 2635
Core_0_LLC_prefetches 190587
Core_0_LLC_prefetch_hit 79367 LLC_prefetch_Hit Ratio: 0.41643
Core_0_LLC_prefetch_miss 111220
Core_0_LLC_writebacks 117580
Core_0_LLC_writeback_hit 116432 LLC_writeback_Hit Ratio: 0.99024
Core_0_LLC_writeback_miss 1148
Core_0_LLC_prefetch_requested 0
Core_0_LLC_prefetch_issued 0
Core_0_LLC_prefetch_useful 31701 LLC_Useful Ratio: inf
Core_0_LLC_prefetch_useless 49304
Core_0_LLC_prefetch_late 0
Core_0_LLC_average_miss_latency 973.25670

Core_0_major_page_fault 0
Core_0_minor_page_fault 3173

Core_1_instructions 27000003
Core_1_cycles 30954402
Core_1_IPC 0.87225

Core_1_branch_prediction_accuracy 98.37820
Core_1_branch_MPKI 0.53454
Core_1_average_ROB_occupancy_at_mispredict 329.12298

Core_1_L1D_total_access 9051971
Core_1_L1D_total_hit 8540115 L1D_total_Hit Ratio: 0.94345
Core_1_L1D_total_miss 511856
Core_1_L1D_loads 7764494
Core_1_L1D_load_hit 7590848 L1D_load_Hit Ratio: 0.97764
Core_1_L1D_load_miss 173646
Core_1_L1D_RFOs 869205
Core_1_L1D_RFO_hit 866110 L1D_RFO_Hit Ratio: 0.99644
Core_1_L1D_RFO_miss 3095
Core_1_L1D_prefetches 418272
Core_1_L1D_prefetch_hit 83157 L1D_prefetch_Hit Ratio: 0.19881
Core_1_L1D_prefetch_miss 335115
Core_1_L1D_writebacks 0
Core_1_L1D_writeback_hit 0 L1D_writeback_Hit Ratio: -nan
Core_1_L1D_writeback_miss 0
Core_1_L1D_prefetch_requested 545760
Core_1_L1D_prefetch_issued 545760
Core_1_L1D_prefetch_useful 345176 L1D_Useful Ratio: 0.63247
Core_1_L1D_prefetch_useless 9011
Core_1_L1D_prefetch_late 52788
Core_1_L1D_average_miss_latency 788010.79283

Core_1_L1I_total_access 3997396
Core_1_L1I_total_hit 3995525 L1I_total_Hit Ratio: 0.99953
Core_1_L1I_total_miss 1871
Core_1_L1I_loads 3997396
Core_1_L1I_load_hit 3995525 L1I_load_Hit Ratio: 0.99953
Core_1_L1I_load_miss 1871
Core_1_L1I_RFOs 0
Core_1_L1I_RFO_hit 0 L1I_RFO_Hit Ratio: -nan
Core_1_L1I_RFO_miss 0
Core_1_L1I_prefetches 0
Core_1_L1I_prefetch_hit 0 L1I_prefetch_Hit Ratio: -nan
Core_1_L1I_prefetch_miss 0
Core_1_L1I_writebacks 0
Core_1_L1I_writeback_hit 0 L1I_writeback_Hit Ratio: -nan
Core_1_L1I_writeback_miss 0
Core_1_L1I_prefetch_requested 0
Core_1_L1I_prefetch_issued 0
Core_1_L1I_prefetch_useful 0 L1I_Useful Ratio: -nan
Core_1_L1I_prefetch_useless 0
Core_1_L1I_prefetch_late 0
Core_1_L1I_average_miss_latency 249.43773

Core_1_L2C_total_access 790601
Core_1_L2C_total_hit 567351 L2C_total_Hit Ratio: 0.71762
Core_1_L2C_total_miss 223250
Core_1_L2C_loads 123904
Core_1_L2C_load_hit 81899 L2C_load_Hit Ratio: 0.66099
Core_1_L2C_load_miss 42005
Core_1_L2C_RFOs 3093
Core_1_L2C_RFO_hit 242 L2C_RFO_Hit Ratio: 0.07824
Core_1_L2C_RFO_miss 2851
Core_1_L2C_prefetches 489527
Core_1_L2C_prefetch_hit 311139 L2C_prefetch_Hit Ratio: 0.63559
Core_1_L2C_prefetch_miss 178388
Core_1_L2C_writebacks 174077
Core_1_L2C_writeback_hit 174071 L2C_writeback_Hit Ratio: 0.99997
Core_1_L2C_writeback_miss 6
Core_1_L2C_prefetch_requested 152631
Core_1_L2C_prefetch_issued 152631
Core_1_L2C_prefetch_useful 45197 L2C_Useful Ratio: 0.29612
Core_1_L2C_prefetch_useless 97453
Core_1_L2C_prefetch_late 10749
Core_1_L2C_average_miss_latency 190.05796

Core_1_LLC_total_access 338823
Core_1_LLC_total_hit 205139 LLC_total_Hit Ratio: 0.60545
Core_1_LLC_total_miss 133684
Core_1_LLC_loads 31278
Core_1_LLC_load_hit 11663 LLC_load_Hit Ratio: 0.37288
Core_1_LLC_load_miss 19615
Core_1_LLC_RFOs 2851
Core_1_LLC_RFO_hit 75 LLC_RFO_Hit Ratio: 0.02631
Core_1_LLC_RFO_miss 2776
Core_1_LLC_prefetches 189115
Core_1_LLC_prefetch_hit 78409 LLC_prefetch_Hit Ratio: 0.41461
Core_1_LLC_prefetch_miss 110706
Core_1_LLC_writebacks 115579
Core_1_LLC_writeback_hit 114992 LLC_writeback_Hit Ratio: 0.99492
Core_1_LLC_writeback_miss 587
Core_1_LLC_prefetch_requested 0
Core_1_LLC_prefetch_issued 0
Core_1_LLC_prefetch_useful 31701 LLC_Useful Ratio: inf
Core_1_LLC_prefetch_useless 49304
Core_1_LLC_prefetch_late 0
Core_1_LLC_average_miss_latency 979.63422

Core_1_major_page_fault 0
Core_1_minor_page_fault 3170

Core_2_instructions 27000003
Core_2_cycles 30748147
Core_2_IPC 0.87810

Core_2_branch_prediction_accuracy 98.38157
Core_2_branch_MPKI 0.52717
Core_2_average_ROB_occupancy_at_mispredict 329.16656

Core_2_L1D_total_access 9063703
Core_2_L1D_total_hit 8559766 L1D_total_Hit Ratio: 0.94440
Core_2_L1D_total_miss 503937
Core_2_L1D_loads 7767147
Core_2_L1D_load_hit 7590935 L1D_load_Hit Ratio: 0.97731
Core_2_L1D_load_miss 176212
Core_2_L1D_RFOs 868805
Core_2_L1D_RFO_hit 865690 L1D_RFO_Hit Ratio: 0.99641
Core_2_L1D_RFO_miss 3115
Core_2_L1D_prefetches 427751
Core_2_L1D_prefetch_hit 103141 L1D_prefetch_Hit Ratio: 0.24112
Core_2_L1D_prefetch_miss 324610
Core_2_L1D_writebacks 0
Core_2_L1D_writeback_hit 0 L1D_writeback_Hit Ratio: -nan
Core_2_L1D_writeback_miss 0
Core_2_L1D_prefetch_requested 563651
Core_2_L1D_prefetch_issued 563651
Core_2_L1D_prefetch_useful 338382 L1D_Useful Ratio: 0.60034
Core_2_L1D_prefetch_useless 9497
Core_2_L1D_prefetch_late 52162
Core_2_L1D_average_miss_latency 788167.00465

Core_2_L1I_total_access 3996362
Core_2_L1I_total_hit 3994487 L1I_total_Hit Ratio: 0.99953
Core_2_L1I_total_miss 1875
Core_2_L1I_loads 3996362
Core_2_L1I_load_hit 3994487 L1I_load_Hit Ratio: 0.99953
Core_2_L1I_load_miss 1875
Core_2_L1I_RFOs 0
Core_2_L1I_RFO_hit 0 L1I_RFO_Hit Ratio: -nan
Core_2_L1I_RFO_miss 0
Core_2_L1I_prefetches 0
Core_2_L1I_prefetch_hit 0 L1I_prefetch_Hit Ratio: -nan
Core_2_L1I_prefetch_miss 0
Core_2_L1I_writebacks 0
Core_2_L1I_writeback_hit 0 L1I_writeback_Hit Ratio: -nan
Core_2_L1I_writeback_miss 0
Core_2_L1I_prefetch_requested 0
Core_2_L1I_prefetch_issued 0
Core_2_L1I_prefetch_useful 0 L1I_Useful Ratio: -nan
Core_2_L1I_prefetch_useless 0
Core_2_L1I_prefetch_late 0
Core_2_L1I_average_miss_latency 234.50187

Core_2_L2C_total_access 784039
Core_2_L2C_total_hit 554353 L2C_total_Hit Ratio: 0.70705
Core_2_L2C_total_miss 229686
Core_2_L2C_loads 127165
Core_2_L2C_load_hit 82824 L2C_load_Hit Ratio: 0.65131
Core_2_L2C_load_miss 44341
Core_2_L2C_RFOs 3115
Core_2_L2C_RFO_hit 255 L2C_RFO_Hit Ratio: 0.08186
Core_2_L2C_RFO_miss 2860
Core_2_L2C_prefetches 479821
Core_2_L2C_prefetch_hit 297342 L2C_prefetch_Hit Ratio: 0.61969
Core_2_L2C_prefetch_miss 182479
Core_2_L2C_writebacks 173938
Core_2_L2C_writeback_hit 173932 L2C_writeback_Hit Ratio: 0.99997
Core_2_L2C_writeback_miss 6
Core_2_L2C_prefetch_requested 152916
Core_2_L2C_prefetch_issued 152916
Core_2_L2C_prefetch_useful 45980 L2C_Useful Ratio: 0.30069
Core_2_L2C_prefetch_useless 102651
Core_2_L2C_prefetch_late 12104
Core_2_L2C_average_miss_latency 178.10041

Core_2_LLC_total_access 349174
Core_2_LLC_total_hit 215260 LLC_total_Hit Ratio: 0.61648
Core_2_LLC_total_miss 133914
Core_2_LLC_loads 32304
Core_2_LLC_load_hit 13221 LLC_load_Hit Ratio: 0.40927
Core_2_LLC_load_miss 19083
Core_2_LLC_RFOs 2860
Core_2_LLC_RFO_hit 120 LLC_RFO_Hit Ratio: 0.04196
Core_2_LLC_RFO_miss 2740
Core_2_LLC_prefetches 194516
Core_2_LLC_prefetch_hit 83155 LLC_prefetch_Hit Ratio: 0.42750
Core_2_LLC_prefetch_miss 111361
Core_2_LLC_writebacks 119494
Core_2_LLC_writeback_hit 118764 LLC_writeback_Hit Ratio: 0.99389
Core_2_LLC_writeback_miss 730
Core_2_LLC_prefetch_requested 0
Core_2_LLC_prefetch_issued 0
Core_2_LLC_prefetch_useful 31701 LLC_Useful Ratio: inf
Core_2_LLC_prefetch_useless 49304
Core_2_LLC_prefetch_late 0
Core_2_LLC_average_miss_latency 977.95168

Core_2_major_page_fault 0
Core_2_minor_page_fault 3176

Core_3_instructions 27000003
Core_3_cycles 30913285
Core_3_IPC 0.87341

Core_3_branch_prediction_accuracy 98.37890
Core_3_branch_MPKI 0.53308
Core_3_average_ROB_occupancy_at_mispredict 329.03949

Core_3_L1D_total_access 9055354
Core_3_L1D_total_hit 8538034 L1D_total_Hit Ratio: 0.94287
Core_3_L1D_total_miss 517320
Core_3_L1D_loads 7764229
Core_3_L1D_load_hit 7587893 L1D_load_Hit Ratio: 0.97729
Core_3_L1D_load_miss 176336
Core_3_L1D_RFOs 869242
Core_3_L1D_RFO_hit 866109 L1D_RFO_Hit Ratio: 0.99640
Core_3_L1D_RFO_miss 3133
Core_3_L1D_prefetches 421883
Core_3_L1D_prefetch_hit 84032 L1D_prefetch_Hit Ratio: 0.19918
Core_3_L1D_prefetch_miss 337851
Core_3_L1D_writebacks 0
Core_3_L1D_writeback_hit 0 L1D_writeback_Hit Ratio: -nan
Core_3_L1D_writeback_miss 0
Core_3_L1D_prefetch_requested 551216
Core_3_L1D_prefetch_issued 551216
Core_3_L1D_prefetch_useful 349591 L1D_Useful Ratio: 0.63422
Core_3_L1D_prefetch_useless 8694
Core_3_L1D_prefetch_late 51898
Core_3_L1D_average_miss_latency 765773.18894

Core_3_L1I_total_access 3997242
Core_3_L1I_total_hit 3995271 L1I_total_Hit Ratio: 0.99951
Core_3_L1I_total_miss 1971
Core_3_L1I_loads 3997242
Core_3_L1I_load_hit 3995271 L1I_load_Hit Ratio: 0.99951
Core_3_L1I_load_miss 1971
Core_3_L1I_RFOs 0
Core_3_L1I_RFO_hit 0 L1I_RFO_Hit Ratio: -nan
Core_3_L1I_RFO_miss 0
Core_3_L1I_prefetches 0
Core_3_L1I_prefetch_hit 0 L1I_prefetch_Hit Ratio: -nan
Core_3_L1I_prefetch_miss 0
Core_3_L1I_writebacks 0
Core_3_L1I_writeback_hit 0 L1I_writeback_Hit Ratio: -nan
Core_3_L1I_writeback_miss 0
Core_3_L1I_prefetch_requested 0
Core_3_L1I_prefetch_issued 0
Core_3_L1I_prefetch_useful 0 L1I_Useful Ratio: -nan
Core_3_L1I_prefetch_useless 0
Core_3_L1I_prefetch_late 0
Core_3_L1I_average_miss_latency 242.93455

Core_3_L2C_total_access 795061
Core_3_L2C_total_hit 568541 L2C_total_Hit Ratio: 0.71509
Core_3_L2C_total_miss 226520
Core_3_L2C_loads 127693
Core_3_L2C_load_hit 83085 L2C_load_Hit Ratio: 0.65066
Core_3_L2C_load_miss 44608
Core_3_L2C_RFOs 3133
Core_3_L2C_RFO_hit 224 L2C_RFO_Hit Ratio: 0.07150
Core_3_L2C_RFO_miss 2909
Core_3_L2C_prefetches 489603
Core_3_L2C_prefetch_hit 310606 L2C_prefetch_Hit Ratio: 0.63440
Core_3_L2C_prefetch_miss 178997
Core_3_L2C_writebacks 174632
Core_3_L2C_writeback_hit 174626 L2C_writeback_Hit Ratio: 0.99997
Core_3_L2C_writeback_miss 6
Core_3_L2C_prefetch_requested 151529
Core_3_L2C_prefetch_issued 151529
Core_3_L2C_prefetch_useful 45384 L2C_Useful Ratio: 0.29951
Core_3_L2C_prefetch_useless 99746
Core_3_L2C_prefetch_late 12545
Core_3_L2C_average_miss_latency 185.06727

Core_3_LLC_total_access 345007
Core_3_LLC_total_hit 210621 LLC_total_Hit Ratio: 0.61048
Core_3_LLC_total_miss 134386
Core_3_LLC_loads 32178
Core_3_LLC_load_hit 12728 LLC_load_Hit Ratio: 0.39555
Core_3_LLC_load_miss 19450
Core_3_LLC_RFOs 2909
Core_3_LLC_RFO_hit 113 LLC_RFO_Hit Ratio: 0.03884
Core_3_LLC_RFO_miss 2796
Core_3_LLC_prefetches 191427
Core_3_LLC_prefetch_hit 80409 LLC_prefetch_Hit Ratio: 0.42005
Core_3_LLC_prefetch_miss 111018
Core_3_LLC_writebacks 118493
Core_3_LLC_writeback_hit 117371 LLC_writeback_Hit Ratio: 0.99053
Core_3_LLC_writeback_miss 1122
Core_3_LLC_prefetch_requested 0
Core_3_LLC_prefetch_issued 0
Core_3_LLC_prefetch_useful 31701 LLC_Useful Ratio: inf
Core_3_LLC_prefetch_useless 49304
Core_3_LLC_prefetch_late 0
Core_3_LLC_average_miss_latency 974.51685

Core_3_major_page_fault 0
Core_3_minor_page_fault 3173

[Bingo] PHT Access: 41306
[Bingo] PHT Hit PC+Addr: 10805
[Bingo] PHT Hit PC+Offs: 28628
[Bingo] PHT Miss: 1873
[Bingo] Prefetch PC+Addr: 0
[Bingo] Prefetch PC+Offs: 0
[Bingo] Useful PC+Addr: 0
[Bingo] Useful PC+Offs: 0
[Bingo] Useless PC+Addr: 0
[Bingo] Useless PC+Offs: 0
[Bingo] L1 Prefetch per Region: 16.03857
[Bingo] L2 Prefetch per Region: 0.77679
[Bingo] L3 Prefetch per Region: 0.00000
[Bingo] No Prefetch per Region: 15.18464
[Bingo] Number of Voters Mean: 15.27697
[Bingo] Number of Voters SD: 2.82064
PHT read accesses: 529689
PHT write accesses: 39639
AT read accesses: 8090212
AT write accesses: 8090338
FT read accesses: 1133057
FT write accesses: 41306
PS read accesses: 363233
PS write accesses: 39433
PHT tag read accesses: 1647598
PHT tag write accesses: 50444
AT tag read accesses: 174371089
AT tag write accesses: 8129913
FT tag read accesses: 46086000
FT tag write accesses: 628361
PS tag read accesses: 138873882
PS tag write accesses: 401068
[Bingo2] PHT Access: 17246
[Bingo2] PHT Hit PC+Addr: 722
[Bingo2] PHT Hit PC+Offs: 13345
[Bingo2] PHT Miss: 3179
[Bingo2] Prefetch PC+Addr: 0
[Bingo2] Prefetch PC+Offs: 0
[Bingo2] Useful PC+Addr: 0
[Bingo2] Useful PC+Offs: 0
[Bingo2] Useless PC+Addr: 0
[Bingo2] Useless PC+Offs: 0
[Bingo2] L1 Prefetch per Region: 0.00000
[Bingo2] L2 Prefetch per Region: 14.84844
[Bingo2] L3 Prefetch per Region: 0.00000
[Bingo2] No Prefetch per Region: 17.15156
[Bingo2] Number of Voters Mean: 14.06429
[Bingo2] Number of Voters SD: 4.52647
PHT read accesses: 198247
PHT write accesses: 13818
AT read accesses: 122686
AT write accesses: 136498
FT read accesses: 51111
FT write accesses: 17246
PS read accesses: 45594
PS write accesses: 14067
PHT tag read accesses: 684186
PHT tag write accesses: 14540
AT tag read accesses: 14356386
AT tag write accesses: 136632
FT tag read accesses: 12616376
FT tag write accesses: 49785
PS tag read accesses: 2793043
PS tag write accesses: 58624
[Bingo] PHT Access: 36119
[Bingo] PHT Hit PC+Addr: 9486
[Bingo] PHT Hit PC+Offs: 25321
[Bingo] PHT Miss: 1312
[Bingo] Prefetch PC+Addr: 0
[Bingo] Prefetch PC+Offs: 0
[Bingo] Useful PC+Addr: 0
[Bingo] Useful PC+Offs: 0
[Bingo] Useless PC+Addr: 0
[Bingo] Useless PC+Offs: 0
[Bingo] L1 Prefetch per Region: 16.61890
[Bingo] L2 Prefetch per Region: 0.89697
[Bingo] L3 Prefetch per Region: 0.00000
[Bingo] No Prefetch per Region: 14.48413
[Bingo] Number of Voters Mean: 15.40141
[Bingo] Number of Voters SD: 5.57370
PHT read accesses: 466831
PHT write accesses: 34836
AT read accesses: 7329389
AT write accesses: 7329392
FT read accesses: 1084793
FT write accesses: 36119
PS read accesses: 339227
PS write accesses: 34807
PHT tag read accesses: 1452142
PHT tag write accesses: 44322
AT tag read accesses: 159837626
AT tag write accesses: 7364206
FT tag read accesses: 43573564
FT tag write accesses: 596507
PS tag read accesses: 126271857
PS tag write accesses: 372792
[Bingo2] PHT Access: 15863
[Bingo2] PHT Hit PC+Addr: 888
[Bingo2] PHT Hit PC+Offs: 13598
[Bingo2] PHT Miss: 1377
[Bingo2] Prefetch PC+Addr: 0
[Bingo2] Prefetch PC+Offs: 0
[Bingo2] Useful PC+Addr: 0
[Bingo2] Useful PC+Offs: 0
[Bingo2] Useless PC+Addr: 0
[Bingo2] Useless PC+Offs: 0
[Bingo2] L1 Prefetch per Region: 0.00000
[Bingo2] L2 Prefetch per Region: 14.06047
[Bingo2] L3 Prefetch per Region: 0.00000
[Bingo2] No Prefetch per Region: 17.93953
[Bingo2] Number of Voters Mean: 14.60560
[Bingo2] Number of Voters SD: 5.47117
PHT read accesses: 208769
PHT write accesses: 13036
AT read accesses: 104873
AT write accesses: 117780
FT read accesses: 45735
FT write accesses: 15863
PS read accesses: 46056
PS write accesses: 14486
PHT tag read accesses: 641476
PHT tag write accesses: 13924
AT tag read accesses: 13985537
AT tag write accesses: 117909
FT tag read accesses: 12506930
FT tag write accesses: 45256
PS tag read accesses: 2470715
PS tag write accesses: 59294
[Bingo] PHT Access: 41850
[Bingo] PHT Hit PC+Addr: 11352
[Bingo] PHT Hit PC+Offs: 28466
[Bingo] PHT Miss: 2032
[Bingo] Prefetch PC+Addr: 0
[Bingo] Prefetch PC+Offs: 0
[Bingo] Useful PC+Addr: 0
[Bingo] Useful PC+Offs: 0
[Bingo] Useless PC+Addr: 0
[Bingo] Useless PC+Offs: 0
[Bingo] L1 Prefetch per Region: 15.76792
[Bingo] L2 Prefetch per Region: 0.92051
[Bingo] L3 Prefetch per Region: 0.00000
[Bingo] No Prefetch per Region: 15.31157
[Bingo] Number of Voters Mean: 15.23821
[Bingo] Number of Voters SD: 2.90008
PHT read accesses: 529298
PHT write accesses: 40127
AT read accesses: 8153533
AT write accesses: 8153712
FT read accesses: 1140221
FT write accesses: 41850
PS read accesses: 360464
PS write accesses: 39818
PHT tag read accesses: 1662529
PHT tag write accesses: 51479
AT tag read accesses: 175444143
AT tag write accesses: 8193718
FT tag read accesses: 46159431
FT tag write accesses: 632764
PS tag read accesses: 139946516
PS tag write accesses: 399106
[Bingo2] PHT Access: 18691
[Bingo2] PHT Hit PC+Addr: 720
[Bingo2] PHT Hit PC+Offs: 14749
[Bingo2] PHT Miss: 3222
[Bingo2] Prefetch PC+Addr: 0
[Bingo2] Prefetch PC+Offs: 0
[Bingo2] Useful PC+Addr: 0
[Bingo2] Useful PC+Offs: 0
[Bingo2] Useless PC+Addr: 0
[Bingo2] Useless PC+Offs: 0
[Bingo2] L1 Prefetch per Region: 0.00000
[Bingo2] L2 Prefetch per Region: 14.00187
[Bingo2] L3 Prefetch per Region: 0.00000
[Bingo2] No Prefetch per Region: 17.99813
[Bingo2] Number of Voters Mean: 14.68283
[Bingo2] Number of Voters SD: 3.94618
PHT read accesses: 225168
PHT write accesses: 15063
AT read accesses: 119536
AT write accesses: 134601
FT read accesses: 52813
FT write accesses: 18691
PS read accesses: 49349
PS write accesses: 15469
PHT tag read accesses: 745007
PHT tag write accesses: 15783
AT tag read accesses: 14372806
AT tag write accesses: 134727
FT tag read accesses: 12695945
FT tag write accesses: 52702
PS tag read accesses: 2793508
PS tag write accesses: 63674
[Bingo] PHT Access: 40444
[Bingo] PHT Hit PC+Addr: 10456
[Bingo] PHT Hit PC+Offs: 28017
[Bingo] PHT Miss: 1971
[Bingo] Prefetch PC+Addr: 0
[Bingo] Prefetch PC+Offs: 0
[Bingo] Useful PC+Addr: 0
[Bingo] Useful PC+Offs: 0
[Bingo] Useless PC+Addr: 0
[Bingo] Useless PC+Offs: 0
[Bingo] L1 Prefetch per Region: 16.05905
[Bingo] L2 Prefetch per Region: 0.83219
[Bingo] L3 Prefetch per Region: 0.00000
[Bingo] No Prefetch per Region: 15.10875
[Bingo] Number of Voters Mean: 15.29568
[Bingo] Number of Voters SD: 2.79271
PHT read accesses: 513507
PHT write accesses: 38861
AT read accesses: 8037850
AT write accesses: 8037944
FT read accesses: 1134695
FT write accesses: 40444
PS read accesses: 355234
PS write accesses: 38473
PHT tag read accesses: 1620934
PHT tag write accesses: 49317
AT tag read accesses: 173531923
AT tag write accesses: 8076773
FT tag read accesses: 46056515
FT tag write accesses: 627888
PS tag read accesses: 138034702
PS tag write accesses: 392688
[Bingo2] PHT Access: 17921
[Bingo2] PHT Hit PC+Addr: 826
[Bingo2] PHT Hit PC+Offs: 13851
[Bingo2] PHT Miss: 3244
[Bingo2] Prefetch PC+Addr: 0
[Bingo2] Prefetch PC+Offs: 0
[Bingo2] Useful PC+Addr: 0
[Bingo2] Useful PC+Offs: 0
[Bingo2] Useless PC+Addr: 0
[Bingo2] Useless PC+Offs: 0
[Bingo2] L1 Prefetch per Region: 0.00000
[Bingo2] L2 Prefetch per Region: 14.18669
[Bingo2] L3 Prefetch per Region: 0.00000
[Bingo2] No Prefetch per Region: 17.81331
[Bingo2] Number of Voters Mean: 14.47599
[Bingo2] Number of Voters SD: 4.27975
PHT read accesses: 209689
PHT write accesses: 14457
AT read accesses: 119191
AT write accesses: 133647
FT read accesses: 51590
FT write accesses: 17921
PS read accesses: 47823
PS write accesses: 14677
PHT tag read accesses: 712177
PHT tag write accesses: 15283
AT tag read accesses: 14330509
AT tag write accesses: 133776
FT tag read accesses: 12652272
FT tag write accesses: 51023
PS tag read accesses: 2757206
PS tag write accesses: 61350
Channel_0_RQ_row_buffer_hit 437797
Channel_0_RQ_row_buffer_miss 95910
Channel_0_WQ_row_buffer_hit 6645
Channel_0_WQ_row_buffer_miss 15012
Channel_0_WQ_full 0
Channel_0_dbus_congested 379145

avg_congested_cycle 8

EzSearch AVG IPC :0.87549: L2-Pf-HR :0.64586 : L2-HR :0.72484 Uful:0.30333
EzSearch AVG IPC :0.87225: L2-Pf-HR :0.63559 : L2-HR :0.71762 Uful:0.29612
EzSearch AVG IPC :0.87810: L2-Pf-HR :0.61969 : L2-HR :0.70783 Uful:0.30069
EzSearch AVG IPC :0.87341: L2-Pf-HR :0.63440 : L2-HR :0.71460 Uful:0.29951
     > Finished combination: TraceType=770-tot Sim:27000000 Prefetcher=L2bingo_dpc3 L1=bingo_dpc3
