TRACE: [167000000][OPT-350M]_[h16][s512][d64] Warmup: 2000000 NumTraces: 167000000
L1:ipcp:L2:ipcp
*************************************************
   ChampSim Multicore Out-of-Order Simulator
   Last compiled: Oct 29 2024 03:18:22
*************************************************

trace_0 770-tot_memTraces_v3/memTraces[167000000][OPT-350M]_[h16][s512][d64].champsim.xz
trace_1 770-tot_memTraces_v3/memTraces[167000000][OPT-350M]_[h16][s512][d64].champsim.xz
trace_2 770-tot_memTraces_v3/memTraces[167000000][OPT-350M]_[h16][s512][d64].champsim.xz
trace_3 770-tot_memTraces_v3/memTraces[167000000][OPT-350M]_[h16][s512][d64].champsim.xz
MAIN.cc ln 751 stats print skipped
CPU  1 inst:    1000000 cyc:     499637 now IPC :2.00145: AVG IPC :2.00145: L2-Pf-HR :0.79065: L2-HR :0.72679: (Sim:0h0m26s) 
CPU  2 inst:    1000000 cyc:     499639 now IPC :2.00145: AVG IPC :2.00145: L2-Pf-HR :0.80332: L2-HR :0.73163: (Sim:0h0m26s) 
CPU  0 inst:    1000000 cyc:     499866 now IPC :2.00054: AVG IPC :2.00054: L2-Pf-HR :0.79002: L2-HR :0.74350: (Sim:0h0m26s) 
CPU  3 inst:    1000000 cyc:     500010 now IPC :1.99996: AVG IPC :1.99996: L2-Pf-HR :0.82617: L2-HR :0.74167: (Sim:0h0m26s) 
CPU  1 inst:    2000002 cyc:     982898 now IPC :2.06928: AVG IPC :2.03480: L2-Pf-HR :0.86046: L2-HR :0.79107: (Sim:0h0m55s) 
CPU  2 inst:    2000002 cyc:     982907 now IPC :2.06925: AVG IPC :2.03478: L2-Pf-HR :0.87131: L2-HR :0.79855: (Sim:0h0m55s) 
CPU  0 inst:    2000002 cyc:     982980 now IPC :2.06991: AVG IPC :2.03463: L2-Pf-HR :0.85150: L2-HR :0.80601: (Sim:0h0m55s) 
CPU  3 inst:    2000002 cyc:     983016 now IPC :2.07037: AVG IPC :2.03456: L2-Pf-HR :0.88040: L2-HR :0.79789: (Sim:0h0m55s) 

Warmup complete CPU  0 instructions:    2000109 cycles:     983016 (Simulation time: 0 hr 0 min 55 sec) 
Warmup complete CPU  1 instructions:    2000283 cycles:     983016 (Simulation time: 0 hr 0 min 55 sec) 
Warmup complete CPU  2 instructions:    2000283 cycles:     983016 (Simulation time: 0 hr 0 min 55 sec) 
Warmup complete CPU  3 instructions:    2000002 cycles:     983016 (Simulation time: 0 hr 0 min 55 sec) 

CPU  1 inst:    3000000 cyc:    1782764 now IPC :1.25021: AVG IPC :1.25004: L2-Pf-HR :0.94924: L2-HR :0.84516: (Sim:0h1m22s) 
CPU  0 inst:    3000000 cyc:    1783058 now IPC :1.24988: AVG IPC :1.24980: L2-Pf-HR :0.93696: L2-HR :0.85530: (Sim:0h1m22s) 
CPU  3 inst:    3000000 cyc:    1795217 now IPC :1.23122: AVG IPC :1.23122: L2-Pf-HR :0.95008: L2-HR :0.85071: (Sim:0h1m22s) 
CPU  2 inst:    3000000 cyc:    1797399 now IPC :1.22776: AVG IPC :1.22758: L2-Pf-HR :0.91834: L2-HR :0.85446: (Sim:0h1m22s) 
CPU  1 inst:    4000001 cyc:    2509476 now IPC :1.37606: AVG IPC :1.31004: L2-Pf-HR :0.93968: L2-HR :0.83088: (Sim:0h1m48s) 
CPU  0 inst:    4000001 cyc:    2520321 now IPC :1.35637: AVG IPC :1.30091: L2-Pf-HR :0.94764: L2-HR :0.84704: (Sim:0h1m48s) 
CPU  2 inst:    4000001 cyc:    2520574 now IPC :1.38279: AVG IPC :1.30058: L2-Pf-HR :0.91123: L2-HR :0.83244: (Sim:0h1m48s) 
CPU  3 inst:    4000001 cyc:    2521029 now IPC :1.37777: AVG IPC :1.30038: L2-Pf-HR :0.94686: L2-HR :0.83133: (Sim:0h1m48s) 
CPU  1 inst:    5000002 cyc:    3283954 now IPC :1.29119: AVG IPC :1.30369: L2-Pf-HR :0.94031: L2-HR :0.82981: (Sim:0h2m15s) 
CPU  0 inst:    5000002 cyc:    3292742 now IPC :1.29463: AVG IPC :1.29881: L2-Pf-HR :0.93915: L2-HR :0.84360: (Sim:0h2m15s) 
CPU  2 inst:    5000002 cyc:    3296357 now IPC :1.28902: AVG IPC :1.29670: L2-Pf-HR :0.91216: L2-HR :0.83265: (Sim:0h2m15s) 
CPU  3 inst:    5000002 cyc:    3299787 now IPC :1.28410: AVG IPC :1.29491: L2-Pf-HR :0.94463: L2-HR :0.83365: (Sim:0h2m15s) 
CPU  1 inst:    6000000 cyc:    4043856 now IPC :1.31596: AVG IPC :1.30674: L2-Pf-HR :0.94855: L2-HR :0.83697: (Sim:0h2m42s) 
CPU  0 inst:    6000000 cyc:    4059917 now IPC :1.30348: AVG IPC :1.29997: L2-Pf-HR :0.94443: L2-HR :0.85333: (Sim:0h2m42s) 
CPU  2 inst:    6000000 cyc:    4070063 now IPC :1.29248: AVG IPC :1.29564: L2-Pf-HR :0.92152: L2-HR :0.84188: (Sim:0h2m43s) 
CPU  3 inst:    6000000 cyc:    4075246 now IPC :1.28956: AVG IPC :1.29356: L2-Pf-HR :0.95424: L2-HR :0.84192: (Sim:0h2m43s) 
CPU  1 inst:    7000004 cyc:    4830052 now IPC :1.27195: AVG IPC :1.29963: L2-Pf-HR :0.95478: L2-HR :0.84174: (Sim:0h3m9s) 
CPU  0 inst:    7000004 cyc:    4851989 now IPC :1.26252: AVG IPC :1.29231: L2-Pf-HR :0.94966: L2-HR :0.85676: (Sim:0h3m10s) 
CPU  2 inst:    7000004 cyc:    4864019 now IPC :1.25952: AVG IPC :1.28825: L2-Pf-HR :0.92639: L2-HR :0.84530: (Sim:0h3m10s) 
CPU  3 inst:    7000004 cyc:    4867770 now IPC :1.26180: AVG IPC :1.28708: L2-Pf-HR :0.95960: L2-HR :0.84535: (Sim:0h3m10s) 
CPU  1 inst:    8000003 cyc:    5534213 now IPC :1.42013: AVG IPC :1.31827: L2-Pf-HR :0.95555: L2-HR :0.84114: (Sim:0h3m36s) 
CPU  0 inst:    8000000 cyc:    5553918 now IPC :1.42464: AVG IPC :1.31263: L2-Pf-HR :0.95201: L2-HR :0.85557: (Sim:0h3m37s) 
CPU  2 inst:    8000002 cyc:    5558375 now IPC :1.44018: AVG IPC :1.31131: L2-Pf-HR :0.92575: L2-HR :0.84236: (Sim:0h3m37s) 
CPU  3 inst:    8000003 cyc:    5560355 now IPC :1.44386: AVG IPC :1.31081: L2-Pf-HR :0.95878: L2-HR :0.84283: (Sim:0h3m37s) 
CPU  1 inst:    9000000 cyc:    6279342 now IPC :1.34205: AVG IPC :1.32162: L2-Pf-HR :0.95322: L2-HR :0.83866: (Sim:0h4m4s) 
CPU  0 inst:    9000000 cyc:    6309415 now IPC :1.32363: AVG IPC :1.31419: L2-Pf-HR :0.94851: L2-HR :0.85298: (Sim:0h4m5s) 
CPU  2 inst:    9000000 cyc:    6311152 now IPC :1.32841: AVG IPC :1.31373: L2-Pf-HR :0.92325: L2-HR :0.84016: (Sim:0h4m5s) 
CPU  3 inst:    9000000 cyc:    6314915 now IPC :1.32527: AVG IPC :1.31285: L2-Pf-HR :0.95677: L2-HR :0.84126: (Sim:0h4m5s) 
CPU  1 inst:   10000004 cyc:    7015839 now IPC :1.35778: AVG IPC :1.32603: L2-Pf-HR :0.95666: L2-HR :0.84141: (Sim:0h4m31s) 
CPU  0 inst:   10000004 cyc:    7049366 now IPC :1.35145: AVG IPC :1.31873: L2-Pf-HR :0.95039: L2-HR :0.85614: (Sim:0h4m32s) 
CPU  2 inst:   10000004 cyc:    7049923 now IPC :1.35360: AVG IPC :1.31858: L2-Pf-HR :0.92624: L2-HR :0.84371: (Sim:0h4m32s) 
CPU  3 inst:   10000004 cyc:    7058015 now IPC :1.34572: AVG IPC :1.31687: L2-Pf-HR :0.95994: L2-HR :0.84441: (Sim:0h4m32s) 
CPU  1 inst:   11000003 cyc:    7758866 now IPC :1.34584: AVG IPC :1.32821: L2-Pf-HR :0.95954: L2-HR :0.84326: (Sim:0h4m59s) 
CPU  0 inst:   11000003 cyc:    7786202 now IPC :1.35715: AVG IPC :1.32289: L2-Pf-HR :0.95078: L2-HR :0.85794: (Sim:0h5m0s) 
CPU  2 inst:   11000003 cyc:    7789083 now IPC :1.35289: AVG IPC :1.32231: L2-Pf-HR :0.92862: L2-HR :0.84619: (Sim:0h5m0s) 
CPU  3 inst:   11000003 cyc:    7798413 now IPC :1.35062: AVG IPC :1.32054: L2-Pf-HR :0.96228: L2-HR :0.84598: (Sim:0h5m0s) 
CPU  1 inst:   12000000 cyc:    8452890 now IPC :1.44087: AVG IPC :1.33867: L2-Pf-HR :0.95986: L2-HR :0.84320: (Sim:0h5m26s) 
CPU  0 inst:   12000000 cyc:    8477172 now IPC :1.44724: AVG IPC :1.33436: L2-Pf-HR :0.95197: L2-HR :0.85735: (Sim:0h5m27s) 
CPU  2 inst:   12000000 cyc:    8477801 now IPC :1.45197: AVG IPC :1.33422: L2-Pf-HR :0.92850: L2-HR :0.84512: (Sim:0h5m27s) 
CPU  3 inst:   12000000 cyc:    8482877 now IPC :1.46099: AVG IPC :1.33336: L2-Pf-HR :0.96237: L2-HR :0.84519: (Sim:0h5m27s) 
CPU  1 inst:   13000001 cyc:    9195132 now IPC :1.34727: AVG IPC :1.33945: L2-Pf-HR :0.95778: L2-HR :0.84095: (Sim:0h5m53s) 
CPU  2 inst:   13000001 cyc:    9217082 now IPC :1.35267: AVG IPC :1.33588: L2-Pf-HR :0.92624: L2-HR :0.84272: (Sim:0h5m53s) 
CPU  0 inst:   13000004 cyc:    9224127 now IPC :1.33877: AVG IPC :1.33476: L2-Pf-HR :0.95030: L2-HR :0.85554: (Sim:0h5m54s) 
CPU  3 inst:   13000001 cyc:    9230196 now IPC :1.33812: AVG IPC :1.33379: L2-Pf-HR :0.95979: L2-HR :0.84332: (Sim:0h5m54s) 
CPU  1 inst:   14000005 cyc:    9937265 now IPC :1.34747: AVG IPC :1.34011: L2-Pf-HR :0.95970: L2-HR :0.84215: (Sim:0h6m20s) 
CPU  2 inst:   14000005 cyc:    9960759 now IPC :1.34468: AVG IPC :1.33661: L2-Pf-HR :0.92821: L2-HR :0.84478: (Sim:0h6m21s) 
CPU  0 inst:   14000005 cyc:    9977611 now IPC :1.32717: AVG IPC :1.33412: L2-Pf-HR :0.95127: L2-HR :0.85680: (Sim:0h6m21s) 
CPU  3 inst:   14000005 cyc:    9979925 now IPC :1.33382: AVG IPC :1.33379: L2-Pf-HR :0.96186: L2-HR :0.84512: (Sim:0h6m21s) 
CPU  1 inst:   15000000 cyc:   10660621 now IPC :1.38244: AVG IPC :1.34328: L2-Pf-HR :0.96144: L2-HR :0.84392: (Sim:0h6m47s) 
CPU  2 inst:   15000000 cyc:   10681016 now IPC :1.38839: AVG IPC :1.34045: L2-Pf-HR :0.92990: L2-HR :0.84707: (Sim:0h6m48s) 
CPU  0 inst:   15000000 cyc:   10697821 now IPC :1.38848: AVG IPC :1.33815: L2-Pf-HR :0.95194: L2-HR :0.85853: (Sim:0h6m48s) 
CPU  3 inst:   15000000 cyc:   10703882 now IPC :1.38129: AVG IPC :1.33733: L2-Pf-HR :0.96339: L2-HR :0.84720: (Sim:0h6m49s) 
CPU  1 inst:   16000000 cyc:   11361482 now IPC :1.42682: AVG IPC :1.34892: L2-Pf-HR :0.96152: L2-HR :0.84402: (Sim:0h7m14s) 
CPU  2 inst:   16000000 cyc:   11379185 now IPC :1.43232: AVG IPC :1.34662: L2-Pf-HR :0.93029: L2-HR :0.84664: (Sim:0h7m15s) 
CPU  0 inst:   16000000 cyc:   11399293 now IPC :1.42557: AVG IPC :1.34404: L2-Pf-HR :0.95235: L2-HR :0.85800: (Sim:0h7m16s) 
CPU  3 inst:   16000000 cyc:   11399486 now IPC :1.43760: AVG IPC :1.34403: L2-Pf-HR :0.96321: L2-HR :0.84701: (Sim:0h7m16s) 
CPU  1 inst:   17000002 cyc:   12080021 now IPC :1.39172: AVG IPC :1.35169: L2-Pf-HR :0.95962: L2-HR :0.84151: (Sim:0h7m42s) 
CPU  2 inst:   17000002 cyc:   12091054 now IPC :1.40476: AVG IPC :1.35035: L2-Pf-HR :0.92845: L2-HR :0.84396: (Sim:0h7m42s) 
CPU  0 inst:   17000002 cyc:   12116116 now IPC :1.39505: AVG IPC :1.34732: L2-Pf-HR :0.95068: L2-HR :0.85632: (Sim:0h7m43s) 
CPU  3 inst:   17000002 cyc:   12116356 now IPC :1.39496: AVG IPC :1.34730: L2-Pf-HR :0.96119: L2-HR :0.84457: (Sim:0h7m43s) 
CPU  1 inst:   18000002 cyc:   12812417 now IPC :1.36538: AVG IPC :1.35254: L2-Pf-HR :0.96079: L2-HR :0.84277: (Sim:0h8m9s) 
CPU  2 inst:   18000002 cyc:   12827354 now IPC :1.35814: AVG IPC :1.35083: L2-Pf-HR :0.92971: L2-HR :0.84587: (Sim:0h8m9s) 
CPU  0 inst:   18000002 cyc:   12851964 now IPC :1.35898: AVG IPC :1.34805: L2-Pf-HR :0.95057: L2-HR :0.85772: (Sim:0h8m10s) 
CPU  3 inst:   18000002 cyc:   12858978 now IPC :1.34658: AVG IPC :1.34726: L2-Pf-HR :0.96218: L2-HR :0.84636: (Sim:0h8m10s) 
CPU  1 inst:   19000002 cyc:   13565825 now IPC :1.32730: AVG IPC :1.35103: L2-Pf-HR :0.96195: L2-HR :0.84346: (Sim:0h8m36s) 
CPU  2 inst:   19000002 cyc:   13588541 now IPC :1.31374: AVG IPC :1.34859: L2-Pf-HR :0.93100: L2-HR :0.84705: (Sim:0h8m37s) 
CPU  0 inst:   19000002 cyc:   13612442 now IPC :1.31496: AVG IPC :1.34605: L2-Pf-HR :0.95124: L2-HR :0.85843: (Sim:0h8m38s) 
CPU  3 inst:   19000002 cyc:   13616886 now IPC :1.31942: AVG IPC :1.34559: L2-Pf-HR :0.96348: L2-HR :0.84741: (Sim:0h8m38s) 
CPU  1 inst:   20000000 cyc:   14275981 now IPC :1.40814: AVG IPC :1.35408: L2-Pf-HR :0.96194: L2-HR :0.84439: (Sim:0h9m3s) 
CPU  2 inst:   20000000 cyc:   14298601 now IPC :1.40833: AVG IPC :1.35178: L2-Pf-HR :0.93154: L2-HR :0.84754: (Sim:0h9m4s) 
CPU  0 inst:   20000000 cyc:   14319637 now IPC :1.41403: AVG IPC :1.34966: L2-Pf-HR :0.95162: L2-HR :0.85838: (Sim:0h9m5s) 
CPU  3 inst:   20000000 cyc:   14321761 now IPC :1.41869: AVG IPC :1.34945: L2-Pf-HR :0.96328: L2-HR :0.84783: (Sim:0h9m5s) 
CPU  1 inst:   21000000 cyc:   14998034 now IPC :1.38494: AVG IPC :1.35567: L2-Pf-HR :0.96020: L2-HR :0.84244: (Sim:0h9m30s) 
CPU  2 inst:   21000001 cyc:   15012968 now IPC :1.39984: AVG IPC :1.35423: L2-Pf-HR :0.92961: L2-HR :0.84531: (Sim:0h9m30s) 
CPU  0 inst:   21000005 cyc:   15059926 now IPC :1.35083: AVG IPC :1.34972: L2-Pf-HR :0.95056: L2-HR :0.85705: (Sim:0h9m32s) 
CPU  3 inst:   21000001 cyc:   15061061 now IPC :1.35263: AVG IPC :1.34962: L2-Pf-HR :0.96151: L2-HR :0.84587: (Sim:0h9m32s) 
CPU  1 inst:   22000000 cyc:   15745591 now IPC :1.33769: AVG IPC :1.35476: L2-Pf-HR :0.96122: L2-HR :0.84301: (Sim:0h9m57s) 
CPU  2 inst:   22000000 cyc:   15760815 now IPC :1.33717: AVG IPC :1.35336: L2-Pf-HR :0.93059: L2-HR :0.84634: (Sim:0h9m58s) 
CPU  0 inst:   22000000 cyc:   15811139 now IPC :1.33117: AVG IPC :1.34878: L2-Pf-HR :0.95112: L2-HR :0.85779: (Sim:0h10m0s) 
CPU  3 inst:   22000000 cyc:   15811900 now IPC :1.33184: AVG IPC :1.34872: L2-Pf-HR :0.96241: L2-HR :0.84700: (Sim:0h10m0s) 
CPU  1 inst:   23000000 cyc:   16469220 now IPC :1.38192: AVG IPC :1.35603: L2-Pf-HR :0.96218: L2-HR :0.84412: (Sim:0h10m24s) 
CPU  2 inst:   23000001 cyc:   16482262 now IPC :1.38610: AVG IPC :1.35489: L2-Pf-HR :0.93158: L2-HR :0.84766: (Sim:0h10m25s) 
CPU  0 inst:   23000000 cyc:   16546701 now IPC :1.35950: AVG IPC :1.34929: L2-Pf-HR :0.95147: L2-HR :0.85889: (Sim:0h10m27s) 
CPU  3 inst:   23000000 cyc:   16551300 now IPC :1.35245: AVG IPC :1.34890: L2-Pf-HR :0.96335: L2-HR :0.84814: (Sim:0h10m27s) 
CPU  1 inst:   24000000 cyc:   17265526 now IPC :1.25580: AVG IPC :1.35113: L2-Pf-HR :0.96275: L2-HR :0.84473: (Sim:0h10m52s) 
CPU  2 inst:   24000000 cyc:   17270414 now IPC :1.26879: AVG IPC :1.35072: L2-Pf-HR :0.93232: L2-HR :0.84799: (Sim:0h10m52s) 
CPU  0 inst:   24000000 cyc:   17345343 now IPC :1.25213: AVG IPC :1.34455: L2-Pf-HR :0.95186: L2-HR :0.85876: (Sim:0h10m55s) 
CPU  3 inst:   24000000 cyc:   17348353 now IPC :1.25462: AVG IPC :1.34430: L2-Pf-HR :0.96348: L2-HR :0.84836: (Sim:0h10m55s) 
CPU  1 inst:   25000004 cyc:   18019888 now IPC :1.32563: AVG IPC :1.35000: L2-Pf-HR :0.96087: L2-HR :0.84249: (Sim:0h11m20s) 
CPU  2 inst:   25000005 cyc:   18029994 now IPC :1.31652: AVG IPC :1.34920: L2-Pf-HR :0.93072: L2-HR :0.84593: (Sim:0h11m20s) 
CPU  0 inst:   25000005 cyc:   18124011 now IPC :1.28425: AVG IPC :1.34181: L2-Pf-HR :0.95107: L2-HR :0.85731: (Sim:0h11m23s) 
CPU  3 inst:   25000004 cyc:   18139659 now IPC :1.26374: AVG IPC :1.34059: L2-Pf-HR :0.96194: L2-HR :0.84650: (Sim:0h11m24s) 
CPU  2 inst:   26000000 cyc:   18891135 now IPC :1.16124: AVG IPC :1.34016: L2-Pf-HR :0.93143: L2-HR :0.84679: (Sim:0h11m48s) 
CPU  1 inst:   26000000 cyc:   18891712 now IPC :1.14702: AVG IPC :1.34012: L2-Pf-HR :0.96150: L2-HR :0.84321: (Sim:0h11m48s) 
CPU  0 inst:   26000005 cyc:   18985625 now IPC :1.16061: AVG IPC :1.33313: L2-Pf-HR :0.95117: L2-HR :0.85807: (Sim:0h11m51s) 
CPU  3 inst:   26000000 cyc:   18996600 now IPC :1.16694: AVG IPC :1.33233: L2-Pf-HR :0.96278: L2-HR :0.84752: (Sim:0h11m52s) 
CPU  2 inst:   27000002 cyc:   19783965 now IPC :1.12004: AVG IPC :1.32971: L2-Pf-HR :0.93218: L2-HR :0.84776: (Sim:0h12m16s) 
CPU  1 inst:   27000002 cyc:   19819762 now IPC :1.07753: AVG IPC :1.32718: L2-Pf-HR :0.96217: L2-HR :0.84393: (Sim:0h12m17s) 
CPU  0 inst:   27000002 cyc:   19881176 now IPC :1.11663: AVG IPC :1.32287: L2-Pf-HR :0.95163: L2-HR :0.85885: (Sim:0h12m19s) 
CPU  3 inst:   27000002 cyc:   19889889 now IPC :1.11946: AVG IPC :1.32227: L2-Pf-HR :0.96352: L2-HR :0.84809: (Sim:0h12m20s) 
CPU  2 inst:   28000000 cyc:   20625610 now IPC :1.18815: AVG IPC :1.32364: L2-Pf-HR :0.93295: L2-HR :0.84834: (Sim:0h12m43s) 
CPU  1 inst:   28000000 cyc:   20789908 now IPC :1.03077: AVG IPC :1.31266: L2-Pf-HR :0.96257: L2-HR :0.84474: (Sim:0h12m48s) 
CPU  0 inst:   28000000 cyc:   20849128 now IPC :1.03311: AVG IPC :1.30876: L2-Pf-HR :0.95200: L2-HR :0.85910: (Sim:0h12m49s) 
CPU  3 inst:   28000000 cyc:   20861923 now IPC :1.02877: AVG IPC :1.30792: L2-Pf-HR :0.96373: L2-HR :0.84838: (Sim:0h12m50s) 
CPU  2 inst:   29000004 cyc:   21781213 now IPC :0.86535: AVG IPC :1.29818: L2-Pf-HR :0.93131: L2-HR :0.84634: (Sim:0h13m15s) 
CPU  1 inst:   29000004 cyc:   21833898 now IPC :0.95787: AVG IPC :1.29490: L2-Pf-HR :0.96130: L2-HR :0.84272: (Sim:0h13m16s) 
CPU  0 inst:   29000005 cyc:   21996535 now IPC :0.87153: AVG IPC :1.28488: L2-Pf-HR :0.95120: L2-HR :0.85777: (Sim:0h13m20s) 
CPU  3 inst:   29000004 cyc:   22036290 now IPC :0.85153: AVG IPC :1.28246: L2-Pf-HR :0.96213: L2-HR :0.84656: (Sim:0h13m21s) 
CPU  2 inst:   30000004 cyc:   22958193 now IPC :0.84963: AVG IPC :1.27415: L2-Pf-HR :0.93203: L2-HR :0.84708: (Sim:0h13m45s) 
CPU  1 inst:   30000004 cyc:   23109212 now IPC :0.78412: AVG IPC :1.26546: L2-Pf-HR :0.96179: L2-HR :0.84333: (Sim:0h13m50s) 
CPU  0 inst:   30000004 cyc:   23134911 now IPC :0.87844: AVG IPC :1.26400: L2-Pf-HR :0.95109: L2-HR :0.85834: (Sim:0h13m50s) 
CPU  3 inst:   30000004 cyc:   23156369 now IPC :0.89279: AVG IPC :1.26278: L2-Pf-HR :0.96201: L2-HR :0.84757: (Sim:0h13m51s) 
CPU  2 inst:   31000000 cyc:   23885001 now IPC :1.07897: AVG IPC :1.26625: L2-Pf-HR :0.93287: L2-HR :0.84775: (Sim:0h14m10s) 
CPU  1 inst:   31000000 cyc:   24295269 now IPC :0.84313: AVG IPC :1.24397: L2-Pf-HR :0.96225: L2-HR :0.84392: (Sim:0h14m22s) 
CPU  0 inst:   31000000 cyc:   24390334 now IPC :0.79654: AVG IPC :1.23892: L2-Pf-HR :0.95143: L2-HR :0.85899: (Sim:0h14m24s) 
CPU  3 inst:   31000000 cyc:   24412295 now IPC :0.79622: AVG IPC :1.23777: L2-Pf-HR :0.96241: L2-HR :0.84798: (Sim:0h14m25s) 
CPU  2 inst:   32000001 cyc:   24838578 now IPC :1.04868: AVG IPC :1.25756: L2-Pf-HR :0.93370: L2-HR :0.84855: (Sim:0h14m37s) 
CPU  1 inst:   32000004 cyc:   25434910 now IPC :0.87747: AVG IPC :1.22689: L2-Pf-HR :0.96261: L2-HR :0.84470: (Sim:0h14m53s) 
CPU  0 inst:   32000001 cyc:   25611768 now IPC :0.81871: AVG IPC :1.21808: L2-Pf-HR :0.95194: L2-HR :0.85939: (Sim:0h14m58s) 
CPU  3 inst:   32000001 cyc:   25619853 now IPC :0.82812: AVG IPC :1.21769: L2-Pf-HR :0.96256: L2-HR :0.84867: (Sim:0h14m58s) 
CPU  2 inst:   33000001 cyc:   26004858 now IPC :0.85743: AVG IPC :1.23891: L2-Pf-HR :0.93254: L2-HR :0.84678: (Sim:0h15m8s) 
CPU  1 inst:   33000004 cyc:   26576315 now IPC :0.87611: AVG IPC :1.21124: L2-Pf-HR :0.96148: L2-HR :0.84331: (Sim:0h15m24s) 
CPU  0 inst:   33000000 cyc:   26696282 now IPC :0.92207: AVG IPC :1.20560: L2-Pf-HR :0.95164: L2-HR :0.85829: (Sim:0h15m27s) 
CPU  3 inst:   33000001 cyc:   26896696 now IPC :0.78318: AVG IPC :1.19628: L2-Pf-HR :0.96181: L2-HR :0.84698: (Sim:0h15m31s) 
CPU  2 inst:   34000003 cyc:   27206000 now IPC :0.83254: AVG IPC :1.22029: L2-Pf-HR :0.93286: L2-HR :0.84704: (Sim:0h15m40s) 
CPU  1 inst:   34000000 cyc:   27730353 now IPC :0.86652: AVG IPC :1.19637: L2-Pf-HR :0.96148: L2-HR :0.84349: (Sim:0h15m55s) 
CPU  0 inst:   34000000 cyc:   27803060 now IPC :0.90352: AVG IPC :1.19313: L2-Pf-HR :0.95113: L2-HR :0.85832: (Sim:0h15m57s) 
CPU  3 inst:   34000003 cyc:   27986281 now IPC :0.91778: AVG IPC :1.18504: L2-Pf-HR :0.96217: L2-HR :0.84750: (Sim:0h16m3s) 
CPU  2 inst:   35000004 cyc:   28163513 now IPC :1.04437: AVG IPC :1.21410: L2-Pf-HR :0.93349: L2-HR :0.84791: (Sim:0h16m9s) 
CPU  1 inst:   35000004 cyc:   28807317 now IPC :0.92854: AVG IPC :1.18600: L2-Pf-HR :0.96202: L2-HR :0.84421: (Sim:0h16m27s) 
CPU  0 inst:   35000004 cyc:   28867146 now IPC :0.93978: AVG IPC :1.18347: L2-Pf-HR :0.95128: L2-HR :0.85916: (Sim:0h16m28s) 
CPU  3 inst:   35000004 cyc:   28990261 now IPC :0.99604: AVG IPC :1.17827: L2-Pf-HR :0.96261: L2-HR :0.84814: (Sim:0h16m31s) 
CPU  2 inst:   36000004 cyc:   29285924 now IPC :0.89094: AVG IPC :1.20128: L2-Pf-HR :0.93405: L2-HR :0.84808: (Sim:0h16m39s) 
CPU  1 inst:   36000004 cyc:   29941630 now IPC :0.88159: AVG IPC :1.17408: L2-Pf-HR :0.96259: L2-HR :0.84449: (Sim:0h16m57s) 
CPU  0 inst:   36000004 cyc:   30046224 now IPC :0.84812: AVG IPC :1.16986: L2-Pf-HR :0.95137: L2-HR :0.85936: (Sim:0h17m0s) 
CPU  3 inst:   36000004 cyc:   30108954 now IPC :0.89390: AVG IPC :1.16734: L2-Pf-HR :0.96281: L2-HR :0.84843: (Sim:0h17m2s) 
CPU  2 inst:   37000003 cyc:   30307320 now IPC :0.97905: AVG IPC :1.19354: L2-Pf-HR :0.93339: L2-HR :0.84710: (Sim:0h17m8s) 
CPU  1 inst:   37000003 cyc:   30965126 now IPC :0.97704: AVG IPC :1.16735: L2-Pf-HR :0.96210: L2-HR :0.84387: (Sim:0h17m26s) 
CPU  0 inst:   37000003 cyc:   31111470 now IPC :0.93875: AVG IPC :1.16169: L2-Pf-HR :0.95153: L2-HR :0.85893: (Sim:0h17m31s) 
CPU  3 inst:   37000003 cyc:   31195162 now IPC :0.92063: AVG IPC :1.15847: L2-Pf-HR :0.96248: L2-HR :0.84760: (Sim:0h17m32s) 
CPU  2 inst:   38000000 cyc:   31642691 now IPC :0.74885: AVG IPC :1.17417: L2-Pf-HR :0.93312: L2-HR :0.84700: (Sim:0h17m42s) 
CPU  1 inst:   38000000 cyc:   32184385 now IPC :0.82017: AVG IPC :1.15379: L2-Pf-HR :0.96136: L2-HR :0.84365: (Sim:0h17m57s) 
CPU  0 inst:   38000003 cyc:   32517854 now IPC :0.71104: AVG IPC :1.14159: L2-Pf-HR :0.95066: L2-HR :0.85858: (Sim:0h18m6s) 
CPU  3 inst:   38000003 cyc:   32561827 now IPC :0.73171: AVG IPC :1.14000: L2-Pf-HR :0.96204: L2-HR :0.84761: (Sim:0h18m7s) 
CPU  2 inst:   39000004 cyc:   32852027 now IPC :0.82690: AVG IPC :1.16099: L2-Pf-HR :0.93362: L2-HR :0.84754: (Sim:0h18m15s) 
CPU  1 inst:   39000004 cyc:   33156519 now IPC :1.02867: AVG IPC :1.15001: L2-Pf-HR :0.96191: L2-HR :0.84406: (Sim:0h18m23s) 
CPU  0 inst:   39000004 cyc:   33703786 now IPC :0.84322: AVG IPC :1.13078: L2-Pf-HR :0.95101: L2-HR :0.85903: (Sim:0h18m38s) 
CPU  3 inst:   39000004 cyc:   33780110 now IPC :0.82083: AVG IPC :1.12815: L2-Pf-HR :0.96239: L2-HR :0.84807: (Sim:0h18m40s) 
CPU  2 inst:   40000004 cyc:   33981723 now IPC :0.88519: AVG IPC :1.15155: L2-Pf-HR :0.93408: L2-HR :0.84810: (Sim:0h18m45s) 
CPU  1 inst:   40000004 cyc:   34166190 now IPC :0.99042: AVG IPC :1.14515: L2-Pf-HR :0.96241: L2-HR :0.84460: (Sim:0h18m50s) 
CPU  0 inst:   40000002 cyc:   34828727 now IPC :0.88893: AVG IPC :1.12274: L2-Pf-HR :0.95138: L2-HR :0.85944: (Sim:0h19m8s) 
CPU  3 inst:   40000004 cyc:   34943361 now IPC :0.85966: AVG IPC :1.11895: L2-Pf-HR :0.96234: L2-HR :0.84875: (Sim:0h19m11s) 
CPU  2 inst:   41000005 cyc:   35077667 now IPC :0.91246: AVG IPC :1.14387: L2-Pf-HR :0.93382: L2-HR :0.84737: (Sim:0h19m15s) 
CPU  1 inst:   41000005 cyc:   35247143 now IPC :0.92511: AVG IPC :1.13821: L2-Pf-HR :0.96232: L2-HR :0.84408: (Sim:0h19m20s) 
CPU  0 inst:   41000005 cyc:   35849648 now IPC :0.97951: AVG IPC :1.11854: L2-Pf-HR :0.95154: L2-HR :0.85916: (Sim:0h19m37s) 
CPU  3 inst:   41000005 cyc:   35971602 now IPC :0.97254: AVG IPC :1.11465: L2-Pf-HR :0.96216: L2-HR :0.84810: (Sim:0h19m40s) 
CPU  2 inst:   42000001 cyc:   36211504 now IPC :0.88196: AVG IPC :1.13544: L2-Pf-HR :0.93347: L2-HR :0.84704: (Sim:0h19m46s) 
CPU  1 inst:   42000001 cyc:   36437939 now IPC :0.83977: AVG IPC :1.12819: L2-Pf-HR :0.96164: L2-HR :0.84367: (Sim:0h19m52s) 
CPU  0 inst:   42000001 cyc:   37032339 now IPC :0.84553: AVG IPC :1.10959: L2-Pf-HR :0.95100: L2-HR :0.85865: (Sim:0h20m9s) 
CPU  3 inst:   42000001 cyc:   37200056 now IPC :0.81403: AVG IPC :1.10445: L2-Pf-HR :0.96173: L2-HR :0.84789: (Sim:0h20m13s) 
CPU  2 inst:   43000005 cyc:   37313584 now IPC :0.90738: AVG IPC :1.12852: L2-Pf-HR :0.93384: L2-HR :0.84754: (Sim:0h20m16s) 
CPU  1 inst:   43000005 cyc:   37507077 now IPC :0.93534: AVG IPC :1.12254: L2-Pf-HR :0.96205: L2-HR :0.84412: (Sim:0h20m22s) 
CPU  0 inst:   43000005 cyc:   38057239 now IPC :0.97571: AVG IPC :1.10589: L2-Pf-HR :0.95118: L2-HR :0.85913: (Sim:0h20m38s) 
CPU  3 inst:   43000005 cyc:   38257718 now IPC :0.94549: AVG IPC :1.09994: L2-Pf-HR :0.96214: L2-HR :0.84839: (Sim:0h20m44s) 
CPU  2 inst:   44000004 cyc:   38297217 now IPC :1.01664: AVG IPC :1.12557: L2-Pf-HR :0.93421: L2-HR :0.84796: (Sim:0h20m45s) 
CPU  1 inst:   44000004 cyc:   38533023 now IPC :0.97471: AVG IPC :1.11850: L2-Pf-HR :0.96252: L2-HR :0.84451: (Sim:0h20m52s) 
CPU  0 inst:   44000004 cyc:   39075799 now IPC :0.98178: AVG IPC :1.10257: L2-Pf-HR :0.95143: L2-HR :0.85943: (Sim:0h21m7s) 
CPU  3 inst:   44000004 cyc:   39301785 now IPC :0.95779: AVG IPC :1.09607: L2-Pf-HR :0.96220: L2-HR :0.84887: (Sim:0h21m14s) 
CPU  2 inst:   45000000 cyc:   39338843 now IPC :0.96003: AVG IPC :1.12107: L2-Pf-HR :0.93403: L2-HR :0.84748: (Sim:0h21m15s) 
CPU  1 inst:   45000000 cyc:   39646461 now IPC :0.89812: AVG IPC :1.11215: L2-Pf-HR :0.96235: L2-HR :0.84425: (Sim:0h21m23s) 
CPU  0 inst:   45000000 cyc:   40204663 now IPC :0.88584: AVG IPC :1.09633: L2-Pf-HR :0.95163: L2-HR :0.85923: (Sim:0h21m38s) 
CPU  3 inst:   45000000 cyc:   40467463 now IPC :0.85787: AVG IPC :1.08904: L2-Pf-HR :0.96219: L2-HR :0.84847: (Sim:0h21m45s) 
CPU  2 inst:   46000002 cyc:   40498415 now IPC :0.86239: AVG IPC :1.11348: L2-Pf-HR :0.93359: L2-HR :0.84702: (Sim:0h21m46s) 
CPU  1 inst:   46000002 cyc:   40773766 now IPC :0.88707: AVG IPC :1.10578: L2-Pf-HR :0.96162: L2-HR :0.84388: (Sim:0h21m53s) 
CPU  0 inst:   46000002 cyc:   41339993 now IPC :0.88080: AVG IPC :1.09027: L2-Pf-HR :0.95103: L2-HR :0.85877: (Sim:0h22m9s) 
CPU  2 inst:   47000000 cyc:   41541229 now IPC :0.95894: AVG IPC :1.10951: L2-Pf-HR :0.93404: L2-HR :0.84753: (Sim:0h22m15s) 
CPU  3 inst:   46000002 cyc:   41635126 now IPC :0.85641: AVG IPC :1.08235: L2-Pf-HR :0.96186: L2-HR :0.84809: (Sim:0h22m18s) 
CPU  1 inst:   47000000 cyc:   41812501 now IPC :0.96271: AVG IPC :1.10214: L2-Pf-HR :0.96195: L2-HR :0.84429: (Sim:0h22m24s) 
CPU  0 inst:   47000000 cyc:   42330046 now IPC :1.01004: AVG IPC :1.08835: L2-Pf-HR :0.95115: L2-HR :0.85919: (Sim:0h22m39s) 
CPU  2 inst:   48000004 cyc:   42517146 now IPC :1.02468: AVG IPC :1.10752: L2-Pf-HR :0.93442: L2-HR :0.84795: (Sim:0h22m45s) 
CPU  3 inst:   47000000 cyc:   42645407 now IPC :0.98982: AVG IPC :1.08011: L2-Pf-HR :0.96227: L2-HR :0.84857: (Sim:0h22m49s) 
CPU  1 inst:   48000004 cyc:   42828522 now IPC :0.98424: AVG IPC :1.09928: L2-Pf-HR :0.96234: L2-HR :0.84461: (Sim:0h22m55s) 
CPU  0 inst:   48000004 cyc:   43272992 now IPC :1.06051: AVG IPC :1.08773: L2-Pf-HR :0.95131: L2-HR :0.85945: (Sim:0h23m9s) 
CPU  2 inst:   49000004 cyc:   43448627 now IPC :1.07356: AVG IPC :1.10677: L2-Pf-HR :0.93433: L2-HR :0.84770: (Sim:0h23m14s) 
CPU  3 inst:   48000004 cyc:   43632408 now IPC :1.01317: AVG IPC :1.07856: L2-Pf-HR :0.96235: L2-HR :0.84895: (Sim:0h23m20s) 
CPU  1 inst:   49000004 cyc:   43789645 now IPC :1.04045: AVG IPC :1.09795: L2-Pf-HR :0.96228: L2-HR :0.84453: (Sim:0h23m25s) 
CPU  0 inst:   49000004 cyc:   44285348 now IPC :0.98779: AVG IPC :1.08539: L2-Pf-HR :0.95141: L2-HR :0.85939: (Sim:0h23m39s) 
CPU  2 inst:   50000000 cyc:   44528385 now IPC :0.92613: AVG IPC :1.10229: L2-Pf-HR :0.93387: L2-HR :0.84719: (Sim:0h23m46s) 
CPU  3 inst:   49000004 cyc:   44683382 now IPC :0.95150: AVG IPC :1.07551: L2-Pf-HR :0.96233: L2-HR :0.84879: (Sim:0h23m50s) 
CPU  1 inst:   50000000 cyc:   44937467 now IPC :0.87121: AVG IPC :1.09203: L2-Pf-HR :0.96148: L2-HR :0.84411: (Sim:0h23m57s) 
CPU  0 inst:   50000003 cyc:   45410494 now IPC :0.88877: AVG IPC :1.08041: L2-Pf-HR :0.95107: L2-HR :0.85896: (Sim:0h24m10s) 
CPU  2 inst:   51000000 cyc:   45592210 now IPC :0.94000: AVG IPC :1.09842: L2-Pf-HR :0.93431: L2-HR :0.84758: (Sim:0h24m16s) 
CPU  3 inst:   50000000 cyc:   45780878 now IPC :0.91116: AVG IPC :1.07148: L2-Pf-HR :0.96179: L2-HR :0.84833: (Sim:0h24m22s) 
CPU  1 inst:   51000005 cyc:   45967924 now IPC :0.97045: AVG IPC :1.08925: L2-Pf-HR :0.96175: L2-HR :0.84435: (Sim:0h24m27s) 
CPU  0 inst:   51000004 cyc:   46413786 now IPC :0.99672: AVG IPC :1.07856: L2-Pf-HR :0.95138: L2-HR :0.85916: (Sim:0h24m41s) 
CPU  2 inst:   52000002 cyc:   46591207 now IPC :1.00101: AVG IPC :1.09629: L2-Pf-HR :0.93467: L2-HR :0.84813: (Sim:0h24m46s) 
CPU  3 inst:   51000005 cyc:   46816969 now IPC :0.96517: AVG IPC :1.06908: L2-Pf-HR :0.96215: L2-HR :0.84870: (Sim:0h24m53s) 
CPU  1 inst:   52000002 cyc:   46961972 now IPC :1.00598: AVG IPC :1.08745: L2-Pf-HR :0.96199: L2-HR :0.84478: (Sim:0h24m58s) 
CPU  0 inst:   52000002 cyc:   47390544 now IPC :1.02379: AVG IPC :1.07741: L2-Pf-HR :0.95163: L2-HR :0.85955: (Sim:0h25m10s) 
CPU  2 inst:   53000004 cyc:   47608474 now IPC :0.98303: AVG IPC :1.09382: L2-Pf-HR :0.93467: L2-HR :0.84798: (Sim:0h25m16s) 
CPU  3 inst:   52000002 cyc:   47846146 now IPC :0.97165: AVG IPC :1.06694: L2-Pf-HR :0.96208: L2-HR :0.84903: (Sim:0h25m23s) 
CPU  1 inst:   53000004 cyc:   48068681 now IPC :0.90358: AVG IPC :1.08313: L2-Pf-HR :0.96204: L2-HR :0.84475: (Sim:0h25m30s) 
CPU  0 inst:   53000004 cyc:   48420808 now IPC :0.97063: AVG IPC :1.07509: L2-Pf-HR :0.95168: L2-HR :0.85942: (Sim:0h25m40s) 
CPU  2 inst:   54000005 cyc:   48782867 now IPC :0.85150: AVG IPC :1.08786: L2-Pf-HR :0.93411: L2-HR :0.84722: (Sim:0h25m49s) 
CPU  3 inst:   53000004 cyc:   49046247 now IPC :0.83326: AVG IPC :1.06110: L2-Pf-HR :0.96208: L2-HR :0.84891: (Sim:0h25m57s) 
CPU  1 inst:   54000005 cyc:   49223678 now IPC :0.86580: AVG IPC :1.07792: L2-Pf-HR :0.96122: L2-HR :0.84406: (Sim:0h26m1s) 
CPU  0 inst:   54000005 cyc:   49634380 now IPC :0.82401: AVG IPC :1.06883: L2-Pf-HR :0.95113: L2-HR :0.85891: (Sim:0h26m13s) 
CPU  2 inst:   55000001 cyc:   49865225 now IPC :0.92391: AVG IPC :1.08423: L2-Pf-HR :0.93446: L2-HR :0.84771: (Sim:0h26m19s) 
CPU  3 inst:   54000005 cyc:   50228327 now IPC :0.84597: AVG IPC :1.05594: L2-Pf-HR :0.96147: L2-HR :0.84821: (Sim:0h26m30s) 
CPU  1 inst:   55000001 cyc:   50234894 now IPC :0.98890: AVG IPC :1.07610: L2-Pf-HR :0.96152: L2-HR :0.84444: (Sim:0h26m30s) 
CPU  0 inst:   55000001 cyc:   50678808 now IPC :0.95746: AVG IPC :1.06649: L2-Pf-HR :0.95109: L2-HR :0.85924: (Sim:0h26m43s) 
CPU  2 inst:   56000000 cyc:   50907059 now IPC :0.95984: AVG IPC :1.08164: L2-Pf-HR :0.93475: L2-HR :0.84804: (Sim:0h26m50s) 
CPU  1 inst:   56000001 cyc:   51235352 now IPC :0.99954: AVG IPC :1.07457: L2-Pf-HR :0.96188: L2-HR :0.84468: (Sim:0h27m0s) 
CPU  3 inst:   55000001 cyc:   51305025 now IPC :0.92876: AVG IPC :1.05322: L2-Pf-HR :0.96181: L2-HR :0.84871: (Sim:0h27m2s) 
CPU  0 inst:   56000000 cyc:   51746822 now IPC :0.93632: AVG IPC :1.06375: L2-Pf-HR :0.95124: L2-HR :0.85952: (Sim:0h27m14s) 
CPU  2 inst:   57000001 cyc:   51977708 now IPC :0.93401: AVG IPC :1.07854: L2-Pf-HR :0.93486: L2-HR :0.84813: (Sim:0h27m21s) 
CPU  1 inst:   57000001 cyc:   52287904 now IPC :0.95007: AVG IPC :1.07202: L2-Pf-HR :0.96207: L2-HR :0.84492: (Sim:0h27m30s) 
CPU  3 inst:   56000001 cyc:   52423509 now IPC :0.89407: AVG IPC :1.04976: L2-Pf-HR :0.96187: L2-HR :0.84890: (Sim:0h27m34s) 
CPU  0 inst:   57000001 cyc:   52799562 now IPC :0.94990: AVG IPC :1.06143: L2-Pf-HR :0.95127: L2-HR :0.85951: (Sim:0h27m45s) 
CPU  2 inst:   58000000 cyc:   53101263 now IPC :0.89003: AVG IPC :1.07447: L2-Pf-HR :0.93428: L2-HR :0.84737: (Sim:0h27m53s) 
CPU  1 inst:   58000000 cyc:   53398212 now IPC :0.90065: AVG IPC :1.06839: L2-Pf-HR :0.96126: L2-HR :0.84419: (Sim:0h28m3s) 
CPU  3 inst:   57000001 cyc:   53434991 now IPC :0.98865: AVG IPC :1.04858: L2-Pf-HR :0.96198: L2-HR :0.84899: (Sim:0h28m4s) 
CPU  0 inst:   58000000 cyc:   53926389 now IPC :0.88745: AVG IPC :1.05773: L2-Pf-HR :0.95094: L2-HR :0.85907: (Sim:0h28m20s) 
CPU  2 inst:   59000004 cyc:   54119719 now IPC :0.98188: AVG IPC :1.07270: L2-Pf-HR :0.93464: L2-HR :0.84768: (Sim:0h28m27s) 
CPU  1 inst:   59000004 cyc:   54421941 now IPC :0.97682: AVG IPC :1.06663: L2-Pf-HR :0.96156: L2-HR :0.84442: (Sim:0h28m35s) 
CPU  3 inst:   58000001 cyc:   54645867 now IPC :0.82585: AVG IPC :1.04355: L2-Pf-HR :0.96143: L2-HR :0.84819: (Sim:0h28m41s) 
CPU  0 inst:   59000004 cyc:   55036996 now IPC :0.90041: AVG IPC :1.05450: L2-Pf-HR :0.95106: L2-HR :0.85927: (Sim:0h28m53s) 
CPU  2 inst:   60000000 cyc:   55218658 now IPC :0.90996: AVG IPC :1.06940: L2-Pf-HR :0.93490: L2-HR :0.84803: (Sim:0h28m58s) 
CPU  1 inst:   60000003 cyc:   55411451 now IPC :1.01060: AVG IPC :1.06561: L2-Pf-HR :0.96188: L2-HR :0.84473: (Sim:0h29m3s) 
CPU  3 inst:   59000004 cyc:   55791035 now IPC :0.87324: AVG IPC :1.03999: L2-Pf-HR :0.96156: L2-HR :0.84841: (Sim:0h29m14s) 
CPU  0 inst:   60000004 cyc:   56201439 now IPC :0.85878: AVG IPC :1.05037: L2-Pf-HR :0.95109: L2-HR :0.85962: (Sim:0h29m25s) 
CPU  2 inst:   61000005 cyc:   56305358 now IPC :0.92022: AVG IPC :1.06647: L2-Pf-HR :0.93504: L2-HR :0.84804: (Sim:0h29m28s) 
CPU  1 inst:   61000005 cyc:   56506338 now IPC :0.91334: AVG IPC :1.06261: L2-Pf-HR :0.96212: L2-HR :0.84502: (Sim:0h29m34s) 
CPU  3 inst:   60000005 cyc:   56956137 now IPC :0.85829: AVG IPC :1.03621: L2-Pf-HR :0.96139: L2-HR :0.84863: (Sim:0h29m47s) 
CPU  0 inst:   61000005 cyc:   57325115 now IPC :0.88994: AVG IPC :1.04717: L2-Pf-HR :0.95104: L2-HR :0.85963: (Sim:0h29m57s) 
CPU  2 inst:   62000002 cyc:   57426265 now IPC :0.89213: AVG IPC :1.06301: L2-Pf-HR :0.93438: L2-HR :0.84727: (Sim:0h29m59s) 
CPU  1 inst:   62000002 cyc:   57668808 now IPC :0.86023: AVG IPC :1.05846: L2-Pf-HR :0.96149: L2-HR :0.84424: (Sim:0h30m6s) 
CPU  3 inst:   61000005 cyc:   58036332 now IPC :0.92576: AVG IPC :1.03412: L2-Pf-HR :0.96155: L2-HR :0.84879: (Sim:0h30m18s) 
CPU  2 inst:   63000003 cyc:   58410154 now IPC :1.01638: AVG IPC :1.06221: L2-Pf-HR :0.93470: L2-HR :0.84759: (Sim:0h30m28s) 
CPU  0 inst:   62000002 cyc:   58479675 now IPC :0.86613: AVG IPC :1.04354: L2-Pf-HR :0.95088: L2-HR :0.85912: (Sim:0h30m29s) 
CPU  1 inst:   63000003 cyc:   58820801 now IPC :0.86806: AVG IPC :1.05467: L2-Pf-HR :0.96179: L2-HR :0.84447: (Sim:0h30m39s) 
CPU  3 inst:   62000002 cyc:   59237886 now IPC :0.83225: AVG IPC :1.02996: L2-Pf-HR :0.96115: L2-HR :0.84800: (Sim:0h30m51s) 
CPU  2 inst:   64000002 cyc:   59360212 now IPC :1.05257: AVG IPC :1.06205: L2-Pf-HR :0.93507: L2-HR :0.84799: (Sim:0h30m54s) 
CPU  0 inst:   63000003 cyc:   59636851 now IPC :0.86417: AVG IPC :1.04000: L2-Pf-HR :0.95111: L2-HR :0.85931: (Sim:0h31m2s) 
CPU  1 inst:   64000003 cyc:   60017503 now IPC :0.83563: AVG IPC :1.05023: L2-Pf-HR :0.96206: L2-HR :0.84476: (Sim:0h31m13s) 
CPU  3 inst:   63000003 cyc:   60241183 now IPC :0.99671: AVG IPC :1.02939: L2-Pf-HR :0.96122: L2-HR :0.84822: (Sim:0h31m20s) 
CPU  2 inst:   65000000 cyc:   60381208 now IPC :0.97943: AVG IPC :1.06063: L2-Pf-HR :0.93531: L2-HR :0.84820: (Sim:0h31m24s) 
CPU  0 inst:   64000003 cyc:   60710455 now IPC :0.93144: AVG IPC :1.03805: L2-Pf-HR :0.95117: L2-HR :0.85966: (Sim:0h31m34s) 
CPU  1 inst:   65000000 cyc:   61121695 now IPC :0.90564: AVG IPC :1.04757: L2-Pf-HR :0.96224: L2-HR :0.84508: (Sim:0h31m46s) 
CPU  3 inst:   64000003 cyc:   61234353 now IPC :1.00688: AVG IPC :1.02902: L2-Pf-HR :0.96101: L2-HR :0.84840: (Sim:0h31m49s) 
CPU  0 inst:   65000000 cyc:   61834850 now IPC :0.88936: AVG IPC :1.03530: L2-Pf-HR :0.95133: L2-HR :0.85971: (Sim:0h32m2s) 
CPU  2 inst:   66000004 cyc:   62329839 now IPC :0.51318: AVG IPC :1.04324: L2-Pf-HR :0.93174: L2-HR :0.84330: (Sim:0h32m12s) 
CPU  3 inst:   65000000 cyc:   62764644 now IPC :0.65347: AVG IPC :1.01972: L2-Pf-HR :0.96117: L2-HR :0.84862: (Sim:0h32m19s) 
CPU  1 inst:   66000001 cyc:   63962861 now IPC :0.35197: AVG IPC :1.01619: L2-Pf-HR :0.95866: L2-HR :0.84011: (Sim:0h32m37s) 
CPU  0 inst:   66000001 cyc:   65655136 now IPC :0.26176: AVG IPC :0.98961: L2-Pf-HR :0.94842: L2-HR :0.85530: (Sim:0h32m57s) 
CPU  3 inst:   66000004 cyc:   67402298 now IPC :0.21563: AVG IPC :0.96358: L2-Pf-HR :0.95733: L2-HR :0.84373: (Sim:0h33m22s) 
CPU  2 inst:   67000003 cyc:   78604274 now IPC :0.06145: AVG IPC :0.83740: L2-Pf-HR :0.90748: L2-HR :0.81075: (Sim:0h36m5s) 
CPU  1 inst:   67000000 cyc:   81557304 now IPC :0.05684: AVG IPC :0.80671: L2-Pf-HR :0.93283: L2-HR :0.80727: (Sim:0h36m50s) 
CPU  0 inst:   67000001 cyc:   83939806 now IPC :0.05469: AVG IPC :0.78354: L2-Pf-HR :0.92618: L2-HR :0.82395: (Sim:0h37m25s) 
CPU  3 inst:   67000000 cyc:   85805717 now IPC :0.05434: AVG IPC :0.76630: L2-Pf-HR :0.93258: L2-HR :0.81122: (Sim:0h37m51s) 
CPU  2 inst:   68000005 cyc:   98413690 now IPC :0.05048: AVG IPC :0.67740: L2-Pf-HR :0.88462: L2-HR :0.78387: (Sim:0h40m56s) 
CPU  1 inst:   68000002 cyc:  101743354 now IPC :0.04954: AVG IPC :0.65502: L2-Pf-HR :0.90854: L2-HR :0.78026: (Sim:0h41m49s) 
CPU  0 inst:   68000002 cyc:  104128735 now IPC :0.04953: AVG IPC :0.63987: L2-Pf-HR :0.90510: L2-HR :0.79772: (Sim:0h42m51s) 
CPU  3 inst:   68000005 cyc:  105870682 now IPC :0.04984: AVG IPC :0.62924: L2-Pf-HR :0.90922: L2-HR :0.78437: (Sim:0h43m40s) 
CPU  2 inst:   69000000 cyc:  108535175 now IPC :0.09880: AVG IPC :0.62295: L2-Pf-HR :0.87399: L2-HR :0.77460: (Sim:0h44m52s) 
CPU  1 inst:   69000000 cyc:  110392392 now IPC :0.11562: AVG IPC :0.61238: L2-Pf-HR :0.89731: L2-HR :0.77099: (Sim:0h45m46s) 
CPU  0 inst:   69000000 cyc:  111446565 now IPC :0.13665: AVG IPC :0.60653: L2-Pf-HR :0.89531: L2-HR :0.78866: (Sim:0h46m17s) 
CPU  3 inst:   69000000 cyc:  112169542 now IPC :0.15876: AVG IPC :0.60259: L2-Pf-HR :0.89836: L2-HR :0.77513: (Sim:0h46m39s) 
CPU  2 inst:   70000000 cyc:  112618427 now IPC :0.24490: AVG IPC :0.60912: L2-Pf-HR :0.86785: L2-HR :0.77069: (Sim:0h46m52s) 
CPU  1 inst:   70000000 cyc:  114284360 now IPC :0.25694: AVG IPC :0.60017: L2-Pf-HR :0.89076: L2-HR :0.76700: (Sim:0h47m41s) 
CPU  0 inst:   70000000 cyc:  115350827 now IPC :0.25613: AVG IPC :0.59457: L2-Pf-HR :0.88958: L2-HR :0.78486: (Sim:0h48m13s) 
CPU  3 inst:   70000000 cyc:  116058481 now IPC :0.25714: AVG IPC :0.59092: L2-Pf-HR :0.89205: L2-HR :0.77119: (Sim:0h48m34s) 
CPU  2 inst:   71000002 cyc:  116495007 now IPC :0.25796: AVG IPC :0.59734: L2-Pf-HR :0.86180: L2-HR :0.76683: (Sim:0h48m47s) 
CPU  1 inst:   71000002 cyc:  118155255 now IPC :0.25834: AVG IPC :0.58887: L2-Pf-HR :0.88432: L2-HR :0.76313: (Sim:0h49m37s) 
CPU  0 inst:   71000002 cyc:  119260653 now IPC :0.25577: AVG IPC :0.58337: L2-Pf-HR :0.88394: L2-HR :0.78109: (Sim:0h50m9s) 
CPU  3 inst:   71000002 cyc:  120022394 now IPC :0.25228: AVG IPC :0.57964: L2-Pf-HR :0.88583: L2-HR :0.76731: (Sim:0h50m31s) 
CPU  2 inst:   72000004 cyc:  120410302 now IPC :0.25541: AVG IPC :0.58613: L2-Pf-HR :0.85584: L2-HR :0.76302: (Sim:0h50m43s) 
CPU  1 inst:   72000004 cyc:  122107605 now IPC :0.25301: AVG IPC :0.57792: L2-Pf-HR :0.87799: L2-HR :0.75929: (Sim:0h51m33s) 
CPU  0 inst:   72000004 cyc:  123175768 now IPC :0.25542: AVG IPC :0.57286: L2-Pf-HR :0.87837: L2-HR :0.77741: (Sim:0h52m5s) 
CPU  3 inst:   72000004 cyc:  123931968 now IPC :0.25578: AVG IPC :0.56934: L2-Pf-HR :0.87971: L2-HR :0.76355: (Sim:0h52m28s) 
CPU  2 inst:   73000003 cyc:  124292031 now IPC :0.25762: AVG IPC :0.57579: L2-Pf-HR :0.84999: L2-HR :0.75930: (Sim:0h52m38s) 
CPU  1 inst:   73000003 cyc:  125982543 now IPC :0.25807: AVG IPC :0.56800: L2-Pf-HR :0.87175: L2-HR :0.75554: (Sim:0h53m29s) 
CPU  0 inst:   73000003 cyc:  127044174 now IPC :0.25850: AVG IPC :0.56322: L2-Pf-HR :0.87289: L2-HR :0.77377: (Sim:0h54m1s) 
CPU  3 inst:   73000003 cyc:  127785969 now IPC :0.25947: AVG IPC :0.55992: L2-Pf-HR :0.87369: L2-HR :0.75980: (Sim:0h54m23s) 
CPU  2 inst:   74000000 cyc:  128139642 now IPC :0.25990: AVG IPC :0.56623: L2-Pf-HR :0.84422: L2-HR :0.75564: (Sim:0h54m33s) 
CPU  1 inst:   74000000 cyc:  129820259 now IPC :0.26057: AVG IPC :0.55884: L2-Pf-HR :0.86562: L2-HR :0.75184: (Sim:0h55m23s) 
CPU  0 inst:   74000000 cyc:  130877955 now IPC :0.26084: AVG IPC :0.55429: L2-Pf-HR :0.86748: L2-HR :0.77018: (Sim:0h55m55s) 
CPU  3 inst:   74000000 cyc:  131616682 now IPC :0.26105: AVG IPC :0.55116: L2-Pf-HR :0.86775: L2-HR :0.75615: (Sim:0h56m17s) 
CPU  2 inst:   75000005 cyc:  131996697 now IPC :0.25927: AVG IPC :0.55719: L2-Pf-HR :0.83853: L2-HR :0.75202: (Sim:0h56m28s) 
CPU  1 inst:   75000005 cyc:  133624625 now IPC :0.26286: AVG IPC :0.55035: L2-Pf-HR :0.85956: L2-HR :0.74822: (Sim:0h57m17s) 
CPU  0 inst:   75000005 cyc:  134668131 now IPC :0.26384: AVG IPC :0.54606: L2-Pf-HR :0.86213: L2-HR :0.76668: (Sim:0h57m48s) 
CPU  3 inst:   75000005 cyc:  135360759 now IPC :0.26709: AVG IPC :0.54324: L2-Pf-HR :0.86189: L2-HR :0.75254: (Sim:0h58m9s) 
CPU  2 inst:   76000000 cyc:  135767393 now IPC :0.26520: AVG IPC :0.54902: L2-Pf-HR :0.83292: L2-HR :0.74848: (Sim:0h58m21s) 
CPU  1 inst:   76000000 cyc:  137379000 now IPC :0.26635: AVG IPC :0.54254: L2-Pf-HR :0.85361: L2-HR :0.74466: (Sim:0h59m9s) 
CPU  0 inst:   76000000 cyc:  138410688 now IPC :0.26720: AVG IPC :0.53846: L2-Pf-HR :0.85686: L2-HR :0.76323: (Sim:0h59m40s) 
CPU  3 inst:   76000000 cyc:  139115237 now IPC :0.26635: AVG IPC :0.53572: L2-Pf-HR :0.85613: L2-HR :0.74903: (Sim:1h0m1s) 
CPU  2 inst:   77000000 cyc:  139539707 now IPC :0.26509: AVG IPC :0.54129: L2-Pf-HR :0.82741: L2-HR :0.74500: (Sim:1h0m14s) 
CPU  1 inst:   77000000 cyc:  141078831 now IPC :0.27028: AVG IPC :0.53535: L2-Pf-HR :0.84776: L2-HR :0.74120: (Sim:1h1m0s) 
CPU  0 inst:   77000000 cyc:  142104128 now IPC :0.27075: AVG IPC :0.53146: L2-Pf-HR :0.85167: L2-HR :0.75979: (Sim:1h1m31s) 
CPU  3 inst:   77000000 cyc:  142786721 now IPC :0.27237: AVG IPC :0.52890: L2-Pf-HR :0.85045: L2-HR :0.74551: (Sim:1h1m51s) 
CPU  2 inst:   78000000 cyc:  143206932 now IPC :0.27269: AVG IPC :0.53437: L2-Pf-HR :0.82196: L2-HR :0.74159: (Sim:1h2m4s) 
CPU  1 inst:   78000000 cyc:  144721293 now IPC :0.27454: AVG IPC :0.52874: L2-Pf-HR :0.84198: L2-HR :0.73777: (Sim:1h2m49s) 
CPU  0 inst:   78000000 cyc:  145732989 now IPC :0.27557: AVG IPC :0.52504: L2-Pf-HR :0.84653: L2-HR :0.75648: (Sim:1h3m20s) 
CPU  3 inst:   78000000 cyc:  146365507 now IPC :0.27942: AVG IPC :0.52276: L2-Pf-HR :0.84485: L2-HR :0.74210: (Sim:1h3m39s) 
CPU  2 inst:   79000000 cyc:  146785935 now IPC :0.27941: AVG IPC :0.52811: L2-Pf-HR :0.81659: L2-HR :0.73825: (Sim:1h3m52s) 
CPU  1 inst:   79000000 cyc:  148253790 now IPC :0.28309: AVG IPC :0.52284: L2-Pf-HR :0.83629: L2-HR :0.73437: (Sim:1h4m37s) 
CPU  0 inst:   79000000 cyc:  149234972 now IPC :0.28555: AVG IPC :0.51939: L2-Pf-HR :0.84147: L2-HR :0.75316: (Sim:1h5m7s) 
CPU  3 inst:   79000000 cyc:  149860635 now IPC :0.28611: AVG IPC :0.51720: L2-Pf-HR :0.83934: L2-HR :0.73875: (Sim:1h5m26s) 
CPU  2 inst:   80000004 cyc:  150270988 now IPC :0.28694: AVG IPC :0.52248: L2-Pf-HR :0.81130: L2-HR :0.73496: (Sim:1h5m39s) 
CPU  1 inst:   80000004 cyc:  151726176 now IPC :0.28799: AVG IPC :0.51743: L2-Pf-HR :0.83069: L2-HR :0.73104: (Sim:1h6m23s) 
CPU  0 inst:   80000004 cyc:  152750721 now IPC :0.28444: AVG IPC :0.51394: L2-Pf-HR :0.83647: L2-HR :0.74997: (Sim:1h6m54s) 
CPU  3 inst:   80000004 cyc:  153409906 now IPC :0.28175: AVG IPC :0.51172: L2-Pf-HR :0.83390: L2-HR :0.73548: (Sim:1h7m6s) 
CPU  2 inst:   81000004 cyc:  153838863 now IPC :0.28028: AVG IPC :0.51682: L2-Pf-HR :0.80609: L2-HR :0.73170: (Sim:1h7m14s) 
CPU  1 inst:   81000004 cyc:  155290638 now IPC :0.28055: AVG IPC :0.51196: L2-Pf-HR :0.82517: L2-HR :0.72782: (Sim:1h7m38s) 
CPU  0 inst:   81000004 cyc:  156309560 now IPC :0.28099: AVG IPC :0.50861: L2-Pf-HR :0.83154: L2-HR :0.74673: (Sim:1h7m56s) 
CPU  3 inst:   81000004 cyc:  156949862 now IPC :0.28249: AVG IPC :0.50652: L2-Pf-HR :0.82854: L2-HR :0.73223: (Sim:1h8m7s) 
CPU  2 inst:   82000000 cyc:  157380183 now IPC :0.28238: AVG IPC :0.51152: L2-Pf-HR :0.80095: L2-HR :0.72849: (Sim:1h8m14s) 
CPU  1 inst:   82000000 cyc:  158833353 now IPC :0.28227: AVG IPC :0.50681: L2-Pf-HR :0.81974: L2-HR :0.72465: (Sim:1h8m39s) 
CPU  0 inst:   82000000 cyc:  159820842 now IPC :0.28480: AVG IPC :0.50366: L2-Pf-HR :0.82667: L2-HR :0.74364: (Sim:1h8m56s) 
CPU  3 inst:   82000000 cyc:  160444618 now IPC :0.28614: AVG IPC :0.50169: L2-Pf-HR :0.82325: L2-HR :0.72907: (Sim:1h9m7s) 
CPU  2 inst:   83000005 cyc:  160868632 now IPC :0.28666: AVG IPC :0.50661: L2-Pf-HR :0.79589: L2-HR :0.72537: (Sim:1h9m14s) 
CPU  1 inst:   83000005 cyc:  162380443 now IPC :0.28192: AVG IPC :0.50187: L2-Pf-HR :0.81437: L2-HR :0.72148: (Sim:1h9m40s) 
CPU  0 inst:   83000005 cyc:  163391894 now IPC :0.28003: AVG IPC :0.49874: L2-Pf-HR :0.82187: L2-HR :0.74057: (Sim:1h9m58s) 
CPU  3 inst:   83000005 cyc:  164057181 now IPC :0.27681: AVG IPC :0.49671: L2-Pf-HR :0.81804: L2-HR :0.72590: (Sim:1h10m9s) 
CPU  2 inst:   84000001 cyc:  164479240 now IPC :0.27696: AVG IPC :0.50154: L2-Pf-HR :0.79091: L2-HR :0.72233: (Sim:1h10m16s) 
CPU  1 inst:   84000001 cyc:  165984794 now IPC :0.27744: AVG IPC :0.49696: L2-Pf-HR :0.80911: L2-HR :0.71840: (Sim:1h10m42s) 
CPU  0 inst:   84000001 cyc:  166993327 now IPC :0.27767: AVG IPC :0.49394: L2-Pf-HR :0.81713: L2-HR :0.73756: (Sim:1h11m0s) 
CPU  3 inst:   84000001 cyc:  167645662 now IPC :0.27867: AVG IPC :0.49201: L2-Pf-HR :0.81292: L2-HR :0.72284: (Sim:1h11m11s) 
CPU  2 inst:   85000005 cyc:  168041446 now IPC :0.28073: AVG IPC :0.49683: L2-Pf-HR :0.78597: L2-HR :0.71929: (Sim:1h11m19s) 
CPU  1 inst:   85000005 cyc:  169508893 now IPC :0.28376: AVG IPC :0.49250: L2-Pf-HR :0.80389: L2-HR :0.71535: (Sim:1h12m1s) 
CPU  0 inst:   85000005 cyc:  170529706 now IPC :0.28278: AVG IPC :0.48954: L2-Pf-HR :0.81244: L2-HR :0.73457: (Sim:1h12m30s) 
CPU  3 inst:   85000005 cyc:  171154295 now IPC :0.28501: AVG IPC :0.48774: L2-Pf-HR :0.80784: L2-HR :0.71981: (Sim:1h12m48s) 
CPU  2 inst:   86000000 cyc:  171550900 now IPC :0.28494: AVG IPC :0.49247: L2-Pf-HR :0.78113: L2-HR :0.71629: (Sim:1h13m0s) 
CPU  1 inst:   86000000 cyc:  173039077 now IPC :0.28327: AVG IPC :0.48821: L2-Pf-HR :0.79877: L2-HR :0.71239: (Sim:1h13m42s) 
CPU  0 inst:   86000000 cyc:  174040258 now IPC :0.28485: AVG IPC :0.48539: L2-Pf-HR :0.80782: L2-HR :0.73164: (Sim:1h14m11s) 
CPU  3 inst:   86000000 cyc:  174662910 now IPC :0.28501: AVG IPC :0.48365: L2-Pf-HR :0.80287: L2-HR :0.71686: (Sim:1h14m29s) 
CPU  2 inst:   87000002 cyc:  175043439 now IPC :0.28633: AVG IPC :0.48833: L2-Pf-HR :0.77635: L2-HR :0.71336: (Sim:1h14m40s) 
CPU  1 inst:   87000002 cyc:  176520793 now IPC :0.28722: AVG IPC :0.48422: L2-Pf-HR :0.79372: L2-HR :0.70941: (Sim:1h15m22s) 
CPU  0 inst:   87000002 cyc:  177523947 now IPC :0.28705: AVG IPC :0.48147: L2-Pf-HR :0.80326: L2-HR :0.72874: (Sim:1h15m50s) 
CPU  3 inst:   87000002 cyc:  178172963 now IPC :0.28490: AVG IPC :0.47971: L2-Pf-HR :0.79795: L2-HR :0.71393: (Sim:1h16m9s) 
CPU  2 inst:   88000004 cyc:  178534916 now IPC :0.28641: AVG IPC :0.48436: L2-Pf-HR :0.77163: L2-HR :0.71049: (Sim:1h16m19s) 
CPU  1 inst:   88000004 cyc:  180066734 now IPC :0.28201: AVG IPC :0.48022: L2-Pf-HR :0.78873: L2-HR :0.70656: (Sim:1h17m3s) 
CPU  0 inst:   88000004 cyc:  181037649 now IPC :0.28460: AVG IPC :0.47763: L2-Pf-HR :0.79876: L2-HR :0.72585: (Sim:1h17m31s) 
CPU  3 inst:   88000004 cyc:  181664511 now IPC :0.28641: AVG IPC :0.47598: L2-Pf-HR :0.79310: L2-HR :0.71104: (Sim:1h17m49s) 
CPU  2 inst:   89000004 cyc:  182042619 now IPC :0.28509: AVG IPC :0.48050: L2-Pf-HR :0.76698: L2-HR :0.70766: (Sim:1h17m59s) 
CPU  1 inst:   89000004 cyc:  183598673 now IPC :0.28313: AVG IPC :0.47641: L2-Pf-HR :0.78384: L2-HR :0.70374: (Sim:1h18m43s) 
CPU  0 inst:   89000004 cyc:  184577320 now IPC :0.28251: AVG IPC :0.47387: L2-Pf-HR :0.79432: L2-HR :0.72309: (Sim:1h19m12s) 
CPU  3 inst:   89000004 cyc:  185189826 now IPC :0.28366: AVG IPC :0.47230: L2-Pf-HR :0.78832: L2-HR :0.70823: (Sim:1h19m29s) 
CPU  2 inst:   90000000 cyc:  185575231 now IPC :0.28308: AVG IPC :0.47672: L2-Pf-HR :0.76240: L2-HR :0.70489: (Sim:1h19m40s) 
CPU  1 inst:   90000000 cyc:  187104215 now IPC :0.28526: AVG IPC :0.47281: L2-Pf-HR :0.77901: L2-HR :0.70096: (Sim:1h20m24s) 
CPU  0 inst:   90000000 cyc:  188072150 now IPC :0.28614: AVG IPC :0.47036: L2-Pf-HR :0.78994: L2-HR :0.72033: (Sim:1h20m51s) 
CPU  3 inst:   90000000 cyc:  188678479 now IPC :0.28664: AVG IPC :0.46884: L2-Pf-HR :0.78361: L2-HR :0.70542: (Sim:1h21m9s) 
CPU  2 inst:   91000003 cyc:  189068695 now IPC :0.28625: AVG IPC :0.47319: L2-Pf-HR :0.75788: L2-HR :0.70213: (Sim:1h21m20s) 
CPU  1 inst:   91000003 cyc:  190617638 now IPC :0.28462: AVG IPC :0.46932: L2-Pf-HR :0.77425: L2-HR :0.69821: (Sim:1h21m51s) 
CPU  0 inst:   91000003 cyc:  191567931 now IPC :0.28606: AVG IPC :0.46698: L2-Pf-HR :0.78562: L2-HR :0.71760: (Sim:1h22m8s) 
CPU  3 inst:   91000003 cyc:  192168290 now IPC :0.28655: AVG IPC :0.46552: L2-Pf-HR :0.77895: L2-HR :0.70268: (Sim:1h22m18s) 
CPU  2 inst:   92000002 cyc:  192545126 now IPC :0.28765: AVG IPC :0.46982: L2-Pf-HR :0.75343: L2-HR :0.69944: (Sim:1h22m24s) 
CPU  1 inst:   92000002 cyc:  194109616 now IPC :0.28637: AVG IPC :0.46601: L2-Pf-HR :0.76955: L2-HR :0.69551: (Sim:1h23m0s) 
CPU  0 inst:   92000002 cyc:  195029626 now IPC :0.28888: AVG IPC :0.46381: L2-Pf-HR :0.78134: L2-HR :0.71494: (Sim:1h23m28s) 
CPU  3 inst:   92000002 cyc:  195652181 now IPC :0.28704: AVG IPC :0.46232: L2-Pf-HR :0.77437: L2-HR :0.69997: (Sim:1h23m46s) 
CPU  2 inst:   93000003 cyc:  196025074 now IPC :0.28736: AVG IPC :0.46656: L2-Pf-HR :0.74903: L2-HR :0.69677: (Sim:1h23m57s) 
CPU  1 inst:   93000003 cyc:  197564535 now IPC :0.28944: AVG IPC :0.46291: L2-Pf-HR :0.76490: L2-HR :0.69280: (Sim:1h24m43s) 
CPU  0 inst:   93000003 cyc:  198534385 now IPC :0.28533: AVG IPC :0.46064: L2-Pf-HR :0.77712: L2-HR :0.71230: (Sim:1h25m12s) 
CPU  3 inst:   93000003 cyc:  199160658 now IPC :0.28502: AVG IPC :0.45918: L2-Pf-HR :0.76984: L2-HR :0.69734: (Sim:1h25m31s) 
CPU  2 inst:   94000002 cyc:  199540843 now IPC :0.28443: AVG IPC :0.46334: L2-Pf-HR :0.74468: L2-HR :0.69417: (Sim:1h25m42s) 
CPU  1 inst:   94000002 cyc:  201076142 now IPC :0.28477: AVG IPC :0.45978: L2-Pf-HR :0.76032: L2-HR :0.69020: (Sim:1h26m28s) 
CPU  0 inst:   94000002 cyc:  202057927 now IPC :0.28381: AVG IPC :0.45754: L2-Pf-HR :0.77296: L2-HR :0.70972: (Sim:1h26m58s) 
CPU  3 inst:   94000002 cyc:  202685861 now IPC :0.28367: AVG IPC :0.45612: L2-Pf-HR :0.76537: L2-HR :0.69473: (Sim:1h27m17s) 
CPU  2 inst:   95000003 cyc:  203070127 now IPC :0.28334: AVG IPC :0.46020: L2-Pf-HR :0.74039: L2-HR :0.69156: (Sim:1h27m28s) 
CPU  1 inst:   95000003 cyc:  204603611 now IPC :0.28349: AVG IPC :0.45673: L2-Pf-HR :0.75581: L2-HR :0.68762: (Sim:1h28m14s) 
CPU  0 inst:   95000003 cyc:  205578224 now IPC :0.28407: AVG IPC :0.45456: L2-Pf-HR :0.76883: L2-HR :0.70714: (Sim:1h28m43s) 
CPU  3 inst:   95000002 cyc:  206203537 now IPC :0.28428: AVG IPC :0.45317: L2-Pf-HR :0.76096: L2-HR :0.69215: (Sim:1h28m54s) 
CPU  2 inst:   96000004 cyc:  206570679 now IPC :0.28567: AVG IPC :0.45722: L2-Pf-HR :0.73616: L2-HR :0.68905: (Sim:1h29m1s) 
CPU  1 inst:   96000004 cyc:  208102534 now IPC :0.28580: AVG IPC :0.45384: L2-Pf-HR :0.75136: L2-HR :0.68512: (Sim:1h29m27s) 
CPU  0 inst:   96000004 cyc:  209088854 now IPC :0.28485: AVG IPC :0.45169: L2-Pf-HR :0.76476: L2-HR :0.70464: (Sim:1h29m44s) 
CPU  3 inst:   96000004 cyc:  209737355 now IPC :0.28298: AVG IPC :0.45029: L2-Pf-HR :0.75661: L2-HR :0.68960: (Sim:1h29m55s) 
CPU  2 inst:   97000004 cyc:  210104452 now IPC :0.28298: AVG IPC :0.45428: L2-Pf-HR :0.73200: L2-HR :0.68656: (Sim:1h30m1s) 
CPU  1 inst:   97000004 cyc:  211655983 now IPC :0.28142: AVG IPC :0.45093: L2-Pf-HR :0.74697: L2-HR :0.68258: (Sim:1h30m28s) 
CPU  0 inst:   97000004 cyc:  212603702 now IPC :0.28451: AVG IPC :0.44892: L2-Pf-HR :0.76075: L2-HR :0.70216: (Sim:1h30m44s) 
CPU  3 inst:   97000004 cyc:  213252348 now IPC :0.28450: AVG IPC :0.44754: L2-Pf-HR :0.75231: L2-HR :0.68713: (Sim:1h30m55s) 
CPU  2 inst:   98000000 cyc:  213629805 now IPC :0.28366: AVG IPC :0.45145: L2-Pf-HR :0.72789: L2-HR :0.68408: (Sim:1h31m1s) 
CPU  1 inst:   98000000 cyc:  215202828 now IPC :0.28194: AVG IPC :0.44814: L2-Pf-HR :0.74264: L2-HR :0.68015: (Sim:1h31m28s) 
CPU  0 inst:   98000000 cyc:  216145790 now IPC :0.28232: AVG IPC :0.44617: L2-Pf-HR :0.75678: L2-HR :0.69968: (Sim:1h31m44s) 
CPU  3 inst:   98000000 cyc:  216804321 now IPC :0.28153: AVG IPC :0.44481: L2-Pf-HR :0.74807: L2-HR :0.68465: (Sim:1h31m55s) 
CPU  2 inst:   99000003 cyc:  217163970 now IPC :0.28295: AVG IPC :0.44870: L2-Pf-HR :0.72382: L2-HR :0.68169: (Sim:1h32m1s) 
CPU  1 inst:   99000003 cyc:  218744960 now IPC :0.28232: AVG IPC :0.44544: L2-Pf-HR :0.73837: L2-HR :0.67775: (Sim:1h32m28s) 
CPU  0 inst:   99000003 cyc:  219663648 now IPC :0.28426: AVG IPC :0.44357: L2-Pf-HR :0.75286: L2-HR :0.69730: (Sim:1h32m44s) 
CPU  3 inst:   99000003 cyc:  220318591 now IPC :0.28455: AVG IPC :0.44224: L2-Pf-HR :0.74389: L2-HR :0.68225: (Sim:1h32m55s) 
CPU  2 inst:  100000002 cyc:  220678669 now IPC :0.28452: AVG IPC :0.44607: L2-Pf-HR :0.71980: L2-HR :0.67930: (Sim:1h33m1s) 
CPU  1 inst:  100000002 cyc:  222247528 now IPC :0.28550: AVG IPC :0.44291: L2-Pf-HR :0.73416: L2-HR :0.67534: (Sim:1h33m28s) 
CPU  2 inst:  101000002 cyc:  222776808 now IPC :0.47661: AVG IPC :0.44636: L2-Pf-HR :0.71889: L2-HR :0.67879: (Sim:1h33m39s) 
CPU  0 inst:  100000002 cyc:  223213964 now IPC :0.28166: AVG IPC :0.44098: L2-Pf-HR :0.74900: L2-HR :0.69488: (Sim:1h33m50s) 
CPU  2 inst:  102000003 cyc:  223467089 now IPC :1.44869: AVG IPC :0.44947: L2-Pf-HR :0.72167: L2-HR :0.68062: (Sim:1h33m57s) 
CPU  3 inst:  100000002 cyc:  223938934 now IPC :0.27622: AVG IPC :0.43955: L2-Pf-HR :0.73978: L2-HR :0.67983: (Sim:1h34m13s) 
CPU  2 inst:  103000005 cyc:  224250637 now IPC :1.27625: AVG IPC :0.45237: L2-Pf-HR :0.72476: L2-HR :0.68261: (Sim:1h34m27s) 
CPU  1 inst:  101000003 cyc:  224465379 now IPC :0.45089: AVG IPC :0.44299: L2-Pf-HR :0.73326: L2-HR :0.67498: (Sim:1h34m39s) 
CPU  2 inst:  104000002 cyc:  224877805 now IPC :1.59446: AVG IPC :0.45557: L2-Pf-HR :0.72889: L2-HR :0.68521: (Sim:1h34m59s) 
CPU  1 inst:  102000003 cyc:  225245409 now IPC :1.28200: AVG IPC :0.44590: L2-Pf-HR :0.73657: L2-HR :0.67724: (Sim:1h35m11s) 
CPU  0 inst:  101000002 cyc:  225534173 now IPC :0.43100: AVG IPC :0.44088: L2-Pf-HR :0.74778: L2-HR :0.69431: (Sim:1h35m22s) 
CPU  2 inst:  105000002 cyc:  225650297 now IPC :1.29451: AVG IPC :0.45845: L2-Pf-HR :0.73272: L2-HR :0.68780: (Sim:1h35m26s) 
CPU  1 inst:  103000005 cyc:  226172233 now IPC :1.07896: AVG IPC :0.44851: L2-Pf-HR :0.73936: L2-HR :0.67934: (Sim:1h35m44s) 
CPU  0 inst:  102000003 cyc:  226350445 now IPC :1.22508: AVG IPC :0.44372: L2-Pf-HR :0.75046: L2-HR :0.69632: (Sim:1h35m52s) 
CPU  3 inst:  101000003 cyc:  226459869 now IPC :0.39668: AVG IPC :0.43907: L2-Pf-HR :0.73870: L2-HR :0.67947: (Sim:1h35m57s) 
CPU  2 inst:  106000000 cyc:  226476851 now IPC :1.20984: AVG IPC :0.46121: L2-Pf-HR :0.73556: L2-HR :0.68977: (Sim:1h35m58s) 
CPU  1 inst:  104000002 cyc:  226902192 now IPC :1.36994: AVG IPC :0.45149: L2-Pf-HR :0.74386: L2-HR :0.68239: (Sim:1h36m15s) 
CPU  0 inst:  103000005 cyc:  227227987 now IPC :1.13955: AVG IPC :0.44642: L2-Pf-HR :0.75278: L2-HR :0.69812: (Sim:1h36m30s) 
CPU  3 inst:  102000003 cyc:  227271731 now IPC :1.23174: AVG IPC :0.44191: L2-Pf-HR :0.74136: L2-HR :0.68141: (Sim:1h36m33s) 
CPU  2 inst:  107000005 cyc:  227300836 now IPC :1.21362: AVG IPC :0.46395: L2-Pf-HR :0.73834: L2-HR :0.69179: (Sim:1h36m34s) 
CPU  1 inst:  105000002 cyc:  227688754 now IPC :1.27136: AVG IPC :0.45433: L2-Pf-HR :0.74724: L2-HR :0.68483: (Sim:1h36m51s) 
CPU  0 inst:  104000002 cyc:  227936863 now IPC :1.41068: AVG IPC :0.44943: L2-Pf-HR :0.75625: L2-HR :0.70056: (Sim:1h37m3s) 
CPU  2 inst:  108000004 cyc:  227965121 now IPC :1.50538: AVG IPC :0.46700: L2-Pf-HR :0.74236: L2-HR :0.69449: (Sim:1h37m4s) 
CPU  3 inst:  103000005 cyc:  228098746 now IPC :1.20917: AVG IPC :0.44471: L2-Pf-HR :0.74404: L2-HR :0.68344: (Sim:1h37m11s) 
CPU  1 inst:  106000005 cyc:  228475640 now IPC :1.27084: AVG IPC :0.45716: L2-Pf-HR :0.74975: L2-HR :0.68679: (Sim:1h37m29s) 
CPU  0 inst:  105000002 cyc:  228709537 now IPC :1.29421: AVG IPC :0.45230: L2-Pf-HR :0.75915: L2-HR :0.70275: (Sim:1h37m40s) 
CPU  2 inst:  109000000 cyc:  228738221 now IPC :1.29349: AVG IPC :0.46980: L2-Pf-HR :0.74565: L2-HR :0.69685: (Sim:1h37m42s) 
CPU  3 inst:  104000004 cyc:  228818144 now IPC :1.39005: AVG IPC :0.44769: L2-Pf-HR :0.74803: L2-HR :0.68625: (Sim:1h37m46s) 
CPU  1 inst:  107000005 cyc:  229385533 now IPC :1.09903: AVG IPC :0.45971: L2-Pf-HR :0.75251: L2-HR :0.68901: (Sim:1h38m22s) 
CPU  0 inst:  106000005 cyc:  229638234 now IPC :1.07678: AVG IPC :0.45483: L2-Pf-HR :0.76080: L2-HR :0.70417: (Sim:1h38m42s) 
CPU  3 inst:  105000002 cyc:  229643604 now IPC :1.21144: AVG IPC :0.45045: L2-Pf-HR :0.75129: L2-HR :0.68867: (Sim:1h38m42s) 
CPU  2 inst:  110000001 cyc:  229692570 now IPC :1.04784: AVG IPC :0.47221: L2-Pf-HR :0.74770: L2-HR :0.69843: (Sim:1h38m45s) 
CPU  1 inst:  108000004 cyc:  230083792 now IPC :1.43213: AVG IPC :0.46268: L2-Pf-HR :0.75619: L2-HR :0.69169: (Sim:1h39m13s) 
CPU  0 inst:  107000005 cyc:  230439175 now IPC :1.24853: AVG IPC :0.45760: L2-Pf-HR :0.76296: L2-HR :0.70597: (Sim:1h39m40s) 
CPU  3 inst:  106000005 cyc:  230490728 now IPC :1.18047: AVG IPC :0.45314: L2-Pf-HR :0.75351: L2-HR :0.69047: (Sim:1h39m44s) 
CPU  2 inst:  111000001 cyc:  230541914 now IPC :1.17738: AVG IPC :0.47482: L2-Pf-HR :0.75011: L2-HR :0.70027: (Sim:1h39m47s) 
CPU  1 inst:  109000004 cyc:  230850165 now IPC :1.30485: AVG IPC :0.46549: L2-Pf-HR :0.75923: L2-HR :0.69406: (Sim:1h40m9s) 
CPU  0 inst:  108000004 cyc:  231111986 now IPC :1.48630: AVG IPC :0.46061: L2-Pf-HR :0.76620: L2-HR :0.70837: (Sim:1h40m30s) 
CPU  2 inst:  112000005 cyc:  231219639 now IPC :1.47553: AVG IPC :0.47777: L2-Pf-HR :0.75364: L2-HR :0.70282: (Sim:1h40m37s) 
CPU  3 inst:  107000005 cyc:  231304858 now IPC :1.22831: AVG IPC :0.45588: L2-Pf-HR :0.75589: L2-HR :0.69242: (Sim:1h40m45s) 
CPU  1 inst:  110000004 cyc:  231590717 now IPC :1.35034: AVG IPC :0.46833: L2-Pf-HR :0.76114: L2-HR :0.69569: (Sim:1h41m10s) 
CPU  0 inst:  109000004 cyc:  231820309 now IPC :1.41179: AVG IPC :0.46353: L2-Pf-HR :0.76897: L2-HR :0.71057: (Sim:1h41m26s) 
CPU  2 inst:  113000002 cyc:  231923622 now IPC :1.42048: AVG IPC :0.48064: L2-Pf-HR :0.75668: L2-HR :0.70510: (Sim:1h41m33s) 
CPU  3 inst:  108000004 cyc:  231966257 now IPC :1.51195: AVG IPC :0.45891: L2-Pf-HR :0.75935: L2-HR :0.69503: (Sim:1h41m36s) 
CPU  1 inst:  111000001 cyc:  232467680 now IPC :1.14030: AVG IPC :0.47087: L2-Pf-HR :0.76317: L2-HR :0.69751: (Sim:1h42m12s) 
CPU  0 inst:  110000001 cyc:  232651376 now IPC :1.20327: AVG IPC :0.46618: L2-Pf-HR :0.77077: L2-HR :0.71223: (Sim:1h42m24s) 
CPU  2 inst:  114000002 cyc:  232797064 now IPC :1.14490: AVG IPC :0.48314: L2-Pf-HR :0.75844: L2-HR :0.70672: (Sim:1h42m34s) 
CPU  3 inst:  109000000 cyc:  232817905 now IPC :1.17419: AVG IPC :0.46154: L2-Pf-HR :0.76234: L2-HR :0.69745: (Sim:1h42m35s) 
CPU  1 inst:  112000005 cyc:  233179529 now IPC :1.40480: AVG IPC :0.47374: L2-Pf-HR :0.76633: L2-HR :0.69999: (Sim:1h43m2s) 
CPU  0 inst:  111000001 cyc:  233479363 now IPC :1.20775: AVG IPC :0.46882: L2-Pf-HR :0.77261: L2-HR :0.71390: (Sim:1h43m25s) 
CPU  2 inst:  115000000 cyc:  233541636 now IPC :1.34305: AVG IPC :0.48590: L2-Pf-HR :0.76024: L2-HR :0.70821: (Sim:1h43m29s) 
CPU  3 inst:  110000001 cyc:  233641195 now IPC :1.21464: AVG IPC :0.46420: L2-Pf-HR :0.76411: L2-HR :0.69901: (Sim:1h43m37s) 
CPU  1 inst:  113000002 cyc:  233884561 now IPC :1.41837: AVG IPC :0.47660: L2-Pf-HR :0.76932: L2-HR :0.70256: (Sim:1h43m55s) 
CPU  0 inst:  112000005 cyc:  234176728 now IPC :1.43397: AVG IPC :0.47171: L2-Pf-HR :0.77549: L2-HR :0.71616: (Sim:1h44m16s) 
CPU  2 inst:  116000001 cyc:  234329575 now IPC :1.26913: AVG IPC :0.48854: L2-Pf-HR :0.76299: L2-HR :0.71040: (Sim:1h44m26s) 
CPU  3 inst:  111000005 cyc:  234505950 now IPC :1.15640: AVG IPC :0.46676: L2-Pf-HR :0.76591: L2-HR :0.70068: (Sim:1h44m39s) 
CPU  1 inst:  114000002 cyc:  234730284 now IPC :1.18242: AVG IPC :0.47915: L2-Pf-HR :0.77065: L2-HR :0.70398: (Sim:1h44m58s) 
CPU  0 inst:  113000002 cyc:  234905057 now IPC :1.37300: AVG IPC :0.47452: L2-Pf-HR :0.77817: L2-HR :0.71840: (Sim:1h45m11s) 
CPU  2 inst:  117000005 cyc:  234977941 now IPC :1.54234: AVG IPC :0.49146: L2-Pf-HR :0.76573: L2-HR :0.71254: (Sim:1h45m17s) 
CPU  3 inst:  112000005 cyc:  235176073 now IPC :1.49226: AVG IPC :0.46970: L2-Pf-HR :0.76908: L2-HR :0.70315: (Sim:1h45m31s) 
CPU  1 inst:  115000000 cyc:  235508138 now IPC :1.28559: AVG IPC :0.48182: L2-Pf-HR :0.77262: L2-HR :0.70576: (Sim:1h45m56s) 
CPU  0 inst:  114000002 cyc:  235723410 now IPC :1.22197: AVG IPC :0.47712: L2-Pf-HR :0.77942: L2-HR :0.71975: (Sim:1h46m10s) 
CPU  2 inst:  118000003 cyc:  235857480 now IPC :1.13696: AVG IPC :0.49388: L2-Pf-HR :0.76709: L2-HR :0.71388: (Sim:1h46m21s) 
CPU  3 inst:  113000002 cyc:  235910480 now IPC :1.36164: AVG IPC :0.47249: L2-Pf-HR :0.77179: L2-HR :0.70543: (Sim:1h46m25s) 
CPU  1 inst:  116000001 cyc:  236246292 now IPC :1.35473: AVG IPC :0.48456: L2-Pf-HR :0.77493: L2-HR :0.70779: (Sim:1h46m50s) 
CPU  0 inst:  115000000 cyc:  236524094 now IPC :1.24893: AVG IPC :0.47975: L2-Pf-HR :0.78089: L2-HR :0.72119: (Sim:1h47m9s) 
CPU  2 inst:  119000000 cyc:  236662496 now IPC :1.24221: AVG IPC :0.49644: L2-Pf-HR :0.76874: L2-HR :0.71534: (Sim:1h47m17s) 
CPU  3 inst:  114000002 cyc:  236810430 now IPC :1.11117: AVG IPC :0.47492: L2-Pf-HR :0.77333: L2-HR :0.70706: (Sim:1h47m28s) 
CPU  1 inst:  117000004 cyc:  236977436 now IPC :1.36772: AVG IPC :0.48730: L2-Pf-HR :0.77760: L2-HR :0.71007: (Sim:1h47m42s) 
CPU  0 inst:  116000001 cyc:  237242597 now IPC :1.39178: AVG IPC :0.48252: L2-Pf-HR :0.78330: L2-HR :0.72335: (Sim:1h48m3s) 
CPU  2 inst:  120000004 cyc:  237334584 now IPC :1.48791: AVG IPC :0.49926: L2-Pf-HR :0.77111: L2-HR :0.71734: (Sim:1h48m11s) 
CPU  3 inst:  115000000 cyc:  237560038 now IPC :1.33403: AVG IPC :0.47765: L2-Pf-HR :0.77511: L2-HR :0.70876: (Sim:1h48m27s) 
CPU  1 inst:  118000003 cyc:  237832377 now IPC :1.16967: AVG IPC :0.48976: L2-Pf-HR :0.77866: L2-HR :0.71129: (Sim:1h48m47s) 
CPU  0 inst:  117000005 cyc:  237901086 now IPC :1.51863: AVG IPC :0.48540: L2-Pf-HR :0.78575: L2-HR :0.72547: (Sim:1h48m54s) 
CPU  2 inst:  121000003 cyc:  238057198 now IPC :1.38386: AVG IPC :0.50195: L2-Pf-HR :0.77370: L2-HR :0.71943: (Sim:1h49m5s) 
CPU  3 inst:  116000001 cyc:  238334630 now IPC :1.29100: AVG IPC :0.48030: L2-Pf-HR :0.77756: L2-HR :0.71087: (Sim:1h49m24s) 
CPU  1 inst:  119000000 cyc:  238673718 now IPC :1.18858: AVG IPC :0.49224: L2-Pf-HR :0.78015: L2-HR :0.71276: (Sim:1h49m48s) 
CPU  0 inst:  118000003 cyc:  238815386 now IPC :1.09373: AVG IPC :0.48774: L2-Pf-HR :0.78665: L2-HR :0.72656: (Sim:1h49m57s) 
CPU  2 inst:  122000002 cyc:  238950400 now IPC :1.11957: AVG IPC :0.50427: L2-Pf-HR :0.77519: L2-HR :0.72090: (Sim:1h50m6s) 
CPU  3 inst:  117000005 cyc:  239027864 now IPC :1.44252: AVG IPC :0.48310: L2-Pf-HR :0.78008: L2-HR :0.71303: (Sim:1h50m12s) 
CPU  1 inst:  120000003 cyc:  239533547 now IPC :1.16303: AVG IPC :0.49465: L2-Pf-HR :0.78219: L2-HR :0.71461: (Sim:1h50m47s) 
CPU  0 inst:  119000000 cyc:  239650168 now IPC :1.19791: AVG IPC :0.49022: L2-Pf-HR :0.78786: L2-HR :0.72781: (Sim:1h50m55s) 
CPU  2 inst:  123000000 cyc:  239700788 now IPC :1.33264: AVG IPC :0.50687: L2-Pf-HR :0.77653: L2-HR :0.72220: (Sim:1h51m0s) 
CPU  3 inst:  118000003 cyc:  239974347 now IPC :1.05654: AVG IPC :0.48537: L2-Pf-HR :0.78107: L2-HR :0.71423: (Sim:1h51m18s) 
CPU  1 inst:  121000002 cyc:  240202653 now IPC :1.49453: AVG IPC :0.49745: L2-Pf-HR :0.78462: L2-HR :0.71673: (Sim:1h51m37s) 
CPU  0 inst:  120000004 cyc:  240354974 now IPC :1.41884: AVG IPC :0.49296: L2-Pf-HR :0.78968: L2-HR :0.72948: (Sim:1h51m49s) 
CPU  2 inst:  124000000 cyc:  240465868 now IPC :1.30705: AVG IPC :0.50943: L2-Pf-HR :0.77840: L2-HR :0.72384: (Sim:1h51m58s) 
CPU  3 inst:  119000000 cyc:  240722181 now IPC :1.33719: AVG IPC :0.48803: L2-Pf-HR :0.78266: L2-HR :0.71580: (Sim:1h52m18s) 
CPU  1 inst:  122000002 cyc:  241007591 now IPC :1.24233: AVG IPC :0.49995: L2-Pf-HR :0.78583: L2-HR :0.71811: (Sim:1h52m39s) 
CPU  0 inst:  121000003 cyc:  241056035 now IPC :1.42641: AVG IPC :0.49568: L2-Pf-HR :0.79178: L2-HR :0.73133: (Sim:1h52m43s) 
CPU  2 inst:  125000000 cyc:  241092026 now IPC :1.59704: AVG IPC :0.51227: L2-Pf-HR :0.78051: L2-HR :0.72566: (Sim:1h52m46s) 
CPU  3 inst:  120000004 cyc:  241477135 now IPC :1.32459: AVG IPC :0.49066: L2-Pf-HR :0.78475: L2-HR :0.71775: (Sim:1h53m16s) 
CPU  1 inst:  123000001 cyc:  241762936 now IPC :1.32390: AVG IPC :0.50253: L2-Pf-HR :0.78703: L2-HR :0.71941: (Sim:1h53m37s) 
CPU  0 inst:  122000002 cyc:  241817699 now IPC :1.31291: AVG IPC :0.49827: L2-Pf-HR :0.79263: L2-HR :0.73243: (Sim:1h53m41s) 
CPU  2 inst:  126000005 cyc:  241870976 now IPC :1.28379: AVG IPC :0.51476: L2-Pf-HR :0.78196: L2-HR :0.72710: (Sim:1h53m45s) 
CPU  3 inst:  121000005 cyc:  242201559 now IPC :1.38041: AVG IPC :0.49333: L2-Pf-HR :0.78724: L2-HR :0.71997: (Sim:1h54m9s) 
CPU  0 inst:  123000000 cyc:  242551630 now IPC :1.36252: AVG IPC :0.50089: L2-Pf-HR :0.79376: L2-HR :0.73366: (Sim:1h54m35s) 
CPU  1 inst:  124000000 cyc:  242566029 now IPC :1.24518: AVG IPC :0.50500: L2-Pf-HR :0.78872: L2-HR :0.72107: (Sim:1h54m36s) 
CPU  2 inst:  127000001 cyc:  242632201 now IPC :1.31367: AVG IPC :0.51728: L2-Pf-HR :0.78324: L2-HR :0.72836: (Sim:1h54m41s) 
CPU  3 inst:  122000002 cyc:  243061898 now IPC :1.16233: AVG IPC :0.49571: L2-Pf-HR :0.78820: L2-HR :0.72120: (Sim:1h55m12s) 
CPU  0 inst:  124000000 cyc:  243267868 now IPC :1.39618: AVG IPC :0.50354: L2-Pf-HR :0.79529: L2-HR :0.73520: (Sim:1h55m29s) 
CPU  1 inst:  125000002 cyc:  243268215 now IPC :1.42413: AVG IPC :0.50767: L2-Pf-HR :0.79080: L2-HR :0.72300: (Sim:1h55m29s) 
CPU  2 inst:  128000000 cyc:  243401837 now IPC :1.29931: AVG IPC :0.51976: L2-Pf-HR :0.78463: L2-HR :0.72971: (Sim:1h55m40s) 
CPU  3 inst:  123000000 cyc:  243772074 now IPC :1.40810: AVG IPC :0.49837: L2-Pf-HR :0.78942: L2-HR :0.72251: (Sim:1h56m0s) 
CPU  0 inst:  125000002 cyc:  243921756 now IPC :1.52932: AVG IPC :0.50630: L2-Pf-HR :0.79728: L2-HR :0.73704: (Sim:1h56m8s) 
CPU  2 inst:  129000002 cyc:  244011073 now IPC :1.64140: AVG IPC :0.52257: L2-Pf-HR :0.78666: L2-HR :0.73151: (Sim:1h56m12s) 
CPU  1 inst:  126000005 cyc:  244020517 now IPC :1.32926: AVG IPC :0.51021: L2-Pf-HR :0.79196: L2-HR :0.72431: (Sim:1h56m13s) 
CPU  3 inst:  124000000 cyc:  244521715 now IPC :1.33397: AVG IPC :0.50095: L2-Pf-HR :0.79093: L2-HR :0.72403: (Sim:1h56m36s) 
CPU  0 inst:  126000002 cyc:  244667177 now IPC :1.34152: AVG IPC :0.50885: L2-Pf-HR :0.79838: L2-HR :0.73829: (Sim:1h56m44s) 
CPU  2 inst:  130000001 cyc:  244725826 now IPC :1.39908: AVG IPC :0.52514: L2-Pf-HR :0.78818: L2-HR :0.73298: (Sim:1h56m47s) 
CPU  1 inst:  127000001 cyc:  244766404 now IPC :1.34068: AVG IPC :0.51275: L2-Pf-HR :0.79297: L2-HR :0.72549: (Sim:1h56m49s) 
CPU  3 inst:  125000002 cyc:  245121691 now IPC :1.66674: AVG IPC :0.50381: L2-Pf-HR :0.79296: L2-HR :0.72592: (Sim:1h57m9s) 
CPU  0 inst:  127000001 cyc:  245293113 now IPC :1.59761: AVG IPC :0.51164: L2-Pf-HR :0.79928: L2-HR :0.73936: (Sim:1h57m17s) 
CPU  2 inst:  131000003 cyc:  245379060 now IPC :1.53085: AVG IPC :0.52783: L2-Pf-HR :0.78922: L2-HR :0.73408: (Sim:1h57m21s) 
CPU  1 inst:  128000003 cyc:  245470565 now IPC :1.42013: AVG IPC :0.51536: L2-Pf-HR :0.79427: L2-HR :0.72690: (Sim:1h57m26s) 
CPU  3 inst:  126000005 cyc:  245835386 now IPC :1.40116: AVG IPC :0.50643: L2-Pf-HR :0.79424: L2-HR :0.72738: (Sim:1h57m44s) 
CPU  0 inst:  128000000 cyc:  246003195 now IPC :1.40829: AVG IPC :0.51424: L2-Pf-HR :0.80037: L2-HR :0.74056: (Sim:1h57m52s) 
CPU  2 inst:  132000003 cyc:  246078262 now IPC :1.43020: AVG IPC :0.53040: L2-Pf-HR :0.79017: L2-HR :0.73515: (Sim:1h57m57s) 
CPU  1 inst:  129000004 cyc:  246085609 now IPC :1.62590: AVG IPC :0.51815: L2-Pf-HR :0.79607: L2-HR :0.72867: (Sim:1h57m57s) 
CPU  3 inst:  127000001 cyc:  246485058 now IPC :1.53923: AVG IPC :0.50916: L2-Pf-HR :0.79539: L2-HR :0.72868: (Sim:1h58m20s) 
CPU  0 inst:  129000002 cyc:  246570649 now IPC :1.76226: AVG IPC :0.51713: L2-Pf-HR :0.80204: L2-HR :0.74217: (Sim:1h58m23s) 
CPU  2 inst:  133000002 cyc:  246698677 now IPC :1.61182: AVG IPC :0.53314: L2-Pf-HR :0.79192: L2-HR :0.73676: (Sim:1h58m29s) 
CPU  1 inst:  130000001 cyc:  246740898 now IPC :1.52604: AVG IPC :0.52084: L2-Pf-HR :0.79741: L2-HR :0.73013: (Sim:1h58m32s) 
CPU  3 inst:  128000003 cyc:  247158756 now IPC :1.48435: AVG IPC :0.51183: L2-Pf-HR :0.79651: L2-HR :0.72998: (Sim:1h58m53s) 
CPU  0 inst:  130000001 cyc:  247239787 now IPC :1.49446: AVG IPC :0.51978: L2-Pf-HR :0.80332: L2-HR :0.74357: (Sim:1h58m57s) 
CPU  2 inst:  134000000 cyc:  247336921 now IPC :1.56680: AVG IPC :0.53581: L2-Pf-HR :0.79348: L2-HR :0.73829: (Sim:1h59m1s) 
CPU  1 inst:  131000003 cyc:  247415357 now IPC :1.48267: AVG IPC :0.52347: L2-Pf-HR :0.79843: L2-HR :0.73131: (Sim:1h59m5s) 
CPU  3 inst:  129000004 cyc:  247759596 now IPC :1.66434: AVG IPC :0.51464: L2-Pf-HR :0.79838: L2-HR :0.73181: (Sim:1h59m25s) 
CPU  0 inst:  131000003 cyc:  247873153 now IPC :1.57887: AVG IPC :0.52250: L2-Pf-HR :0.80407: L2-HR :0.74453: (Sim:1h59m31s) 
CPU  2 inst:  135000004 cyc:  247953341 now IPC :1.62228: AVG IPC :0.53853: L2-Pf-HR :0.79449: L2-HR :0.73939: (Sim:1h59m35s) 
CPU  1 inst:  132000003 cyc:  248115073 now IPC :1.42915: AVG IPC :0.52603: L2-Pf-HR :0.79935: L2-HR :0.73247: (Sim:1h59m43s) 
CPU  3 inst:  130000001 cyc:  248454923 now IPC :1.43817: AVG IPC :0.51723: L2-Pf-HR :0.79949: L2-HR :0.73308: (Sim:1h59m59s) 
CPU  0 inst:  132000003 cyc:  248582484 now IPC :1.40978: AVG IPC :0.52504: L2-Pf-HR :0.80479: L2-HR :0.74550: (Sim:2h0m6s) 
CPU  2 inst:  136000002 cyc:  248620258 now IPC :1.49943: AVG IPC :0.54111: L2-Pf-HR :0.79519: L2-HR :0.74029: (Sim:2h0m8s) 
CPU  1 inst:  133000002 cyc:  248694606 now IPC :1.72553: AVG IPC :0.52884: L2-Pf-HR :0.80114: L2-HR :0.73427: (Sim:2h0m12s) 
CPU  3 inst:  131000005 cyc:  249052371 now IPC :1.67379: AVG IPC :0.52002: L2-Pf-HR :0.80043: L2-HR :0.73422: (Sim:2h0m34s) 
CPU  0 inst:  133000002 cyc:  249141009 now IPC :1.79043: AVG IPC :0.52789: L2-Pf-HR :0.80627: L2-HR :0.74695: (Sim:2h0m39s) 
CPU  2 inst:  137000000 cyc:  249169888 now IPC :1.81940: AVG IPC :0.54394: L2-Pf-HR :0.79687: L2-HR :0.74190: (Sim:2h0m41s) 
CPU  1 inst:  134000000 cyc:  249307094 now IPC :1.63268: AVG IPC :0.53156: L2-Pf-HR :0.80261: L2-HR :0.73581: (Sim:2h0m47s) 
CPU  3 inst:  132000002 cyc:  249717487 now IPC :1.50349: AVG IPC :0.52265: L2-Pf-HR :0.80122: L2-HR :0.73527: (Sim:2h1m11s) 
CPU  0 inst:  134000003 cyc:  249751789 now IPC :1.63725: AVG IPC :0.53061: L2-Pf-HR :0.80755: L2-HR :0.74830: (Sim:2h1m14s) 
CPU  2 inst:  138000001 cyc:  249754137 now IPC :1.71160: AVG IPC :0.54669: L2-Pf-HR :0.79865: L2-HR :0.74355: (Sim:2h1m14s) 
CPU  1 inst:  135000002 cyc:  249930566 now IPC :1.60392: AVG IPC :0.53425: L2-Pf-HR :0.80341: L2-HR :0.73684: (Sim:2h1m23s) 
CPU  3 inst:  133000002 cyc:  250290887 now IPC :1.74398: AVG IPC :0.52545: L2-Pf-HR :0.80285: L2-HR :0.73689: (Sim:2h1m43s) 
CPU  0 inst:  135000004 cyc:  250381888 now IPC :1.58705: AVG IPC :0.53328: L2-Pf-HR :0.80824: L2-HR :0.74921: (Sim:2h1m48s) 
CPU  2 inst:  139000000 cyc:  250427760 now IPC :1.48451: AVG IPC :0.54922: L2-Pf-HR :0.79926: L2-HR :0.74442: (Sim:2h1m51s) 
CPU  1 inst:  136000000 cyc:  250596436 now IPC :1.50179: AVG IPC :0.53683: L2-Pf-HR :0.80404: L2-HR :0.73775: (Sim:2h2m0s) 
CPU  3 inst:  134000003 cyc:  250886539 now IPC :1.67883: AVG IPC :0.52820: L2-Pf-HR :0.80431: L2-HR :0.73845: (Sim:2h2m25s) 
CPU  0 inst:  136000002 cyc:  251000404 now IPC :1.61677: AVG IPC :0.53596: L2-Pf-HR :0.80870: L2-HR :0.74995: (Sim:2h2m34s) 
CPU  2 inst:  140000000 cyc:  251068555 now IPC :1.56056: AVG IPC :0.55181: L2-Pf-HR :0.79971: L2-HR :0.74510: (Sim:2h2m40s) 
CPU  1 inst:  137000000 cyc:  251196555 now IPC :1.66634: AVG IPC :0.53954: L2-Pf-HR :0.80550: L2-HR :0.73927: (Sim:2h2m51s) 
CPU  3 inst:  135000002 cyc:  251505355 now IPC :1.61599: AVG IPC :0.53089: L2-Pf-HR :0.80514: L2-HR :0.73954: (Sim:2h3m21s) 
CPU  0 inst:  137000000 cyc:  251555114 now IPC :1.80274: AVG IPC :0.53877: L2-Pf-HR :0.81010: L2-HR :0.75138: (Sim:2h3m26s) 
CPU  2 inst:  141000003 cyc:  251636553 now IPC :1.76057: AVG IPC :0.55455: L2-Pf-HR :0.80113: L2-HR :0.74655: (Sim:2h3m35s) 
CPU  1 inst:  138000001 cyc:  251718888 now IPC :1.91449: AVG IPC :0.54240: L2-Pf-HR :0.80714: L2-HR :0.74090: (Sim:2h3m43s) 
CPU  0 inst:  138000001 cyc:  252093600 now IPC :1.85706: AVG IPC :0.54159: L2-Pf-HR :0.81168: L2-HR :0.75293: (Sim:2h4m18s) 
CPU  3 inst:  136000001 cyc:  252108017 now IPC :1.65930: AVG IPC :0.53360: L2-Pf-HR :0.80580: L2-HR :0.74052: (Sim:2h4m19s) 
CPU  2 inst:  142000005 cyc:  252185336 now IPC :1.82222: AVG IPC :0.55732: L2-Pf-HR :0.80255: L2-HR :0.74792: (Sim:2h4m25s) 
CPU  1 inst:  139000000 cyc:  252370561 now IPC :1.53451: AVG IPC :0.54497: L2-Pf-HR :0.80765: L2-HR :0.74173: (Sim:2h4m42s) 
CPU  3 inst:  137000000 cyc:  252685048 now IPC :1.73301: AVG IPC :0.53635: L2-Pf-HR :0.80729: L2-HR :0.74208: (Sim:2h5m11s) 
CPU  0 inst:  139000001 cyc:  252724869 now IPC :1.58411: AVG IPC :0.54421: L2-Pf-HR :0.81201: L2-HR :0.75360: (Sim:2h5m15s) 
CPU  2 inst:  143000005 cyc:  252787142 now IPC :1.66167: AVG IPC :0.55996: L2-Pf-HR :0.80326: L2-HR :0.74881: (Sim:2h5m21s) 
CPU  1 inst:  140000004 cyc:  253001022 now IPC :1.58615: AVG IPC :0.54758: L2-Pf-HR :0.80815: L2-HR :0.74255: (Sim:2h5m41s) 
CPU  3 inst:  138000001 cyc:  253244453 now IPC :1.78762: AVG IPC :0.53912: L2-Pf-HR :0.80887: L2-HR :0.74368: (Sim:2h6m3s) 
CPU  0 inst:  140000004 cyc:  253350001 now IPC :1.59967: AVG IPC :0.54682: L2-Pf-HR :0.81231: L2-HR :0.75423: (Sim:2h6m12s) 
CPU  2 inst:  144000004 cyc:  253378798 now IPC :1.69017: AVG IPC :0.56261: L2-Pf-HR :0.80389: L2-HR :0.74967: (Sim:2h6m14s) 
CPU  1 inst:  141000003 cyc:  253614571 now IPC :1.62986: AVG IPC :0.55021: L2-Pf-HR :0.80931: L2-HR :0.74384: (Sim:2h6m34s) 
CPU  3 inst:  139000000 cyc:  253907923 now IPC :1.50723: AVG IPC :0.54166: L2-Pf-HR :0.80925: L2-HR :0.74441: (Sim:2h7m2s) 
CPU  0 inst:  141000003 cyc:  253957210 now IPC :1.64688: AVG IPC :0.54946: L2-Pf-HR :0.81344: L2-HR :0.75548: (Sim:2h7m6s) 
CPU  2 inst:  145000003 cyc:  253986915 now IPC :1.64442: AVG IPC :0.56521: L2-Pf-HR :0.80505: L2-HR :0.75095: (Sim:2h7m9s) 
CPU  1 inst:  142000005 cyc:  254149028 now IPC :1.87106: AVG IPC :0.55300: L2-Pf-HR :0.81079: L2-HR :0.74537: (Sim:2h7m23s) 
CPU  0 inst:  142000003 cyc:  254492577 now IPC :1.86788: AVG IPC :0.55225: L2-Pf-HR :0.81480: L2-HR :0.75693: (Sim:2h7m43s) 
CPU  3 inst:  140000002 cyc:  254512064 now IPC :1.65525: AVG IPC :0.54432: L2-Pf-HR :0.80978: L2-HR :0.74524: (Sim:2h7m44s) 
CPU  2 inst:  146000003 cyc:  254521386 now IPC :1.87101: AVG IPC :0.56796: L2-Pf-HR :0.80661: L2-HR :0.75252: (Sim:2h7m45s) 
CPU  1 inst:  143000005 cyc:  254786016 now IPC :1.56989: AVG IPC :0.55555: L2-Pf-HR :0.81137: L2-HR :0.74621: (Sim:2h7m58s) 
CPU  3 inst:  141000003 cyc:  255139649 now IPC :1.59341: AVG IPC :0.54691: L2-Pf-HR :0.81090: L2-HR :0.74651: (Sim:2h8m16s) 
CPU  0 inst:  143000005 cyc:  255142261 now IPC :1.53921: AVG IPC :0.55477: L2-Pf-HR :0.81541: L2-HR :0.75779: (Sim:2h8m17s) 
CPU  2 inst:  147000005 cyc:  255183857 now IPC :1.50950: AVG IPC :0.57041: L2-Pf-HR :0.80732: L2-HR :0.75341: (Sim:2h8m19s) 
CPU  1 inst:  144000004 cyc:  255462830 now IPC :1.47751: AVG IPC :0.55800: L2-Pf-HR :0.81197: L2-HR :0.74713: (Sim:2h8m34s) 
CPU  3 inst:  142000005 cyc:  255726246 now IPC :1.70475: AVG IPC :0.54957: L2-Pf-HR :0.81239: L2-HR :0.74805: (Sim:2h8m48s) 
CPU  0 inst:  144000004 cyc:  255727952 now IPC :1.70738: AVG IPC :0.55742: L2-Pf-HR :0.81580: L2-HR :0.75848: (Sim:2h8m48s) 
CPU  2 inst:  148000003 cyc:  255834868 now IPC :1.53607: AVG IPC :0.57288: L2-Pf-HR :0.80778: L2-HR :0.75409: (Sim:2h8m54s) 
CPU  1 inst:  145000003 cyc:  256106479 now IPC :1.55364: AVG IPC :0.56051: L2-Pf-HR :0.81288: L2-HR :0.74825: (Sim:2h9m8s) 
CPU  0 inst:  145000003 cyc:  256345368 now IPC :1.61965: AVG IPC :0.55999: L2-Pf-HR :0.81669: L2-HR :0.75953: (Sim:2h9m22s) 
CPU  3 inst:  143000005 cyc:  256353929 now IPC :1.59316: AVG IPC :0.55214: L2-Pf-HR :0.81304: L2-HR :0.74896: (Sim:2h9m22s) 
CPU  2 inst:  149000005 cyc:  256470349 now IPC :1.57361: AVG IPC :0.57537: L2-Pf-HR :0.80884: L2-HR :0.75529: (Sim:2h9m29s) 
CPU  1 inst:  146000003 cyc:  256678981 now IPC :1.74672: AVG IPC :0.56317: L2-Pf-HR :0.81431: L2-HR :0.74975: (Sim:2h9m41s) 
CPU  0 inst:  146000003 cyc:  256924108 now IPC :1.72789: AVG IPC :0.56263: L2-Pf-HR :0.81789: L2-HR :0.76079: (Sim:2h9m58s) 
CPU  3 inst:  144000004 cyc:  256961998 now IPC :1.64455: AVG IPC :0.55473: L2-Pf-HR :0.81361: L2-HR :0.74987: (Sim:2h10m0s) 
CPU  2 inst:  150000005 cyc:  257049221 now IPC :1.72750: AVG IPC :0.57797: L2-Pf-HR :0.81014: L2-HR :0.75660: (Sim:2h10m6s) 
CPU  1 inst:  147000004 cyc:  257326818 now IPC :1.54360: AVG IPC :0.56565: L2-Pf-HR :0.81496: L2-HR :0.75066: (Sim:2h10m27s) 
CPU  0 inst:  147000005 cyc:  257593504 now IPC :1.49389: AVG IPC :0.56506: L2-Pf-HR :0.81850: L2-HR :0.76164: (Sim:2h10m41s) 
CPU  3 inst:  145000003 cyc:  257617086 now IPC :1.52651: AVG IPC :0.55721: L2-Pf-HR :0.81459: L2-HR :0.75105: (Sim:2h10m42s) 
CPU  2 inst:  151000001 cyc:  257678546 now IPC :1.58900: AVG IPC :0.58045: L2-Pf-HR :0.81094: L2-HR :0.75757: (Sim:2h10m46s) 
CPU  1 inst:  148000003 cyc:  258006827 now IPC :1.47057: AVG IPC :0.56804: L2-Pf-HR :0.81541: L2-HR :0.75141: (Sim:2h11m4s) 
CPU  3 inst:  146000003 cyc:  258191932 now IPC :1.73960: AVG IPC :0.55986: L2-Pf-HR :0.81594: L2-HR :0.75248: (Sim:2h11m14s) 
CPU  0 inst:  148000003 cyc:  258262519 now IPC :1.49473: AVG IPC :0.56748: L2-Pf-HR :0.81892: L2-HR :0.76238: (Sim:2h11m17s) 
CPU  2 inst:  152000002 cyc:  258298068 now IPC :1.61415: AVG IPC :0.58294: L2-Pf-HR :0.81136: L2-HR :0.75821: (Sim:2h11m19s) 
CPU  1 inst:  149000000 cyc:  258681786 now IPC :1.48157: AVG IPC :0.57043: L2-Pf-HR :0.81627: L2-HR :0.75249: (Sim:2h11m45s) 
CPU  3 inst:  147000000 cyc:  258880588 now IPC :1.45210: AVG IPC :0.56224: L2-Pf-HR :0.81661: L2-HR :0.75346: (Sim:2h12m0s) 
CPU  0 inst:  149000000 cyc:  258911472 now IPC :1.54094: AVG IPC :0.56993: L2-Pf-HR :0.81966: L2-HR :0.76331: (Sim:2h12m2s) 
CPU  2 inst:  153000002 cyc:  258951427 now IPC :1.53055: AVG IPC :0.58534: L2-Pf-HR :0.81215: L2-HR :0.75915: (Sim:2h12m5s) 
CPU  1 inst:  150000005 cyc:  259248571 now IPC :1.76435: AVG IPC :0.57305: L2-Pf-HR :0.81757: L2-HR :0.75388: (Sim:2h12m26s) 
CPU  0 inst:  150000005 cyc:  259433891 now IPC :1.91418: AVG IPC :0.57264: L2-Pf-HR :0.82091: L2-HR :0.76466: (Sim:2h12m37s) 
CPU  3 inst:  148000003 cyc:  259470089 now IPC :1.69636: AVG IPC :0.56483: L2-Pf-HR :0.81703: L2-HR :0.75418: (Sim:2h12m39s) 
CPU  2 inst:  154000002 cyc:  259495581 now IPC :1.83772: AVG IPC :0.58798: L2-Pf-HR :0.81333: L2-HR :0.76036: (Sim:2h12m41s) 
CPU  1 inst:  151000001 cyc:  259877989 now IPC :1.58876: AVG IPC :0.57552: L2-Pf-HR :0.81834: L2-HR :0.75496: (Sim:2h13m1s) 
CPU  0 inst:  151000001 cyc:  260096180 now IPC :1.50991: AVG IPC :0.57504: L2-Pf-HR :0.82141: L2-HR :0.76541: (Sim:2h13m12s) 
CPU  2 inst:  155000002 cyc:  260123100 now IPC :1.59358: AVG IPC :0.59041: L2-Pf-HR :0.81405: L2-HR :0.76126: (Sim:2h13m13s) 
CPU  3 inst:  149000000 cyc:  260151787 now IPC :1.46692: AVG IPC :0.56720: L2-Pf-HR :0.81783: L2-HR :0.75522: (Sim:2h13m15s) 
CPU  1 inst:  152000002 cyc:  260525697 now IPC :1.54391: AVG IPC :0.57794: L2-Pf-HR :0.81888: L2-HR :0.75581: (Sim:2h13m35s) 
CPU  3 inst:  150000005 cyc:  260697800 now IPC :1.83147: AVG IPC :0.56986: L2-Pf-HR :0.81912: L2-HR :0.75661: (Sim:2h13m45s) 
CPU  0 inst:  152000002 cyc:  260717008 now IPC :1.61075: AVG IPC :0.57751: L2-Pf-HR :0.82178: L2-HR :0.76604: (Sim:2h13m46s) 
CPU  2 inst:  156000001 cyc:  260757066 now IPC :1.57737: AVG IPC :0.59282: L2-Pf-HR :0.81447: L2-HR :0.76190: (Sim:2h13m48s) 
CPU  1 inst:  153000002 cyc:  261189661 now IPC :1.50611: AVG IPC :0.58031: L2-Pf-HR :0.81964: L2-HR :0.75683: (Sim:2h14m10s) 
CPU  0 inst:  153000002 cyc:  261314940 now IPC :1.67243: AVG IPC :0.58003: L2-Pf-HR :0.82243: L2-HR :0.76693: (Sim:2h14m17s) 
CPU  3 inst:  151000001 cyc:  261334628 now IPC :1.57028: AVG IPC :0.57230: L2-Pf-HR :0.81964: L2-HR :0.75742: (Sim:2h14m18s) 
CPU  2 inst:  157000004 cyc:  261399032 now IPC :1.55772: AVG IPC :0.59520: L2-Pf-HR :0.81500: L2-HR :0.76262: (Sim:2h14m22s) 
CPU  1 inst:  154000002 cyc:  261751477 now IPC :1.77994: AVG IPC :0.58289: L2-Pf-HR :0.82085: L2-HR :0.75815: (Sim:2h14m42s) 
CPU  0 inst:  154000002 cyc:  261870697 now IPC :1.79935: AVG IPC :0.58263: L2-Pf-HR :0.82352: L2-HR :0.76808: (Sim:2h14m49s) 
CPU  2 inst:  158000000 cyc:  261929099 now IPC :1.88655: AVG IPC :0.59782: L2-Pf-HR :0.81611: L2-HR :0.76379: (Sim:2h14m53s) 
CPU  3 inst:  152000002 cyc:  261948327 now IPC :1.62946: AVG IPC :0.57479: L2-Pf-HR :0.81996: L2-HR :0.75804: (Sim:2h14m54s) 
CPU  1 inst:  155000002 cyc:  262363753 now IPC :1.63325: AVG IPC :0.58535: L2-Pf-HR :0.82149: L2-HR :0.75907: (Sim:2h15m18s) 
CPU  0 inst:  155000002 cyc:  262492354 now IPC :1.60860: AVG IPC :0.58506: L2-Pf-HR :0.82403: L2-HR :0.76886: (Sim:2h15m24s) 
CPU  2 inst:  159000001 cyc:  262539937 now IPC :1.63710: AVG IPC :0.60025: L2-Pf-HR :0.81687: L2-HR :0.76471: (Sim:2h15m26s) 
CPU  3 inst:  153000002 cyc:  262578013 now IPC :1.58809: AVG IPC :0.57723: L2-Pf-HR :0.82049: L2-HR :0.75883: (Sim:2h15m28s) 
CPU  1 inst:  156000001 cyc:  263027077 now IPC :1.50756: AVG IPC :0.58769: L2-Pf-HR :0.82203: L2-HR :0.75989: (Sim:2h15m53s) 
[...]


Core_0_LLC_total_access 2250009
Core_0_LLC_total_hit 807339
Core_0_LLC_total_miss 1442670
Core_0_LLC_loads 297669
Core_0_LLC_load_hit 277
Core_0_LLC_load_miss 297392
Core_0_LLC_RFOs 237681
Core_0_LLC_RFO_hit 0
Core_0_LLC_RFO_miss 237681
Core_0_LLC_prefetches 898448
Core_0_LLC_prefetch_hit 474
Core_0_LLC_prefetch_miss 897974
Core_0_LLC_writebacks 816211
Core_0_LLC_writeback_hit 806588
Core_0_LLC_writeback_miss 9623


CPU 1 cumulative IPC: 0.61183 instructions: 164144363 cycles: 268284820
Core_1_L1D_total_access 80469980
Core_1_L1D_total_hit 77218821
Core_1_L1D_total_miss 3251159
Core_1_L1D_loads 47659852
Core_1_L1D_load_hit 46403191
Core_1_L1D_load_miss 1256661
Core_1_L1D_RFOs 4321800
Core_1_L1D_RFO_hit 4079362
Core_1_L1D_RFO_miss 242438
Core_1_L1D_prefetches 28488328
Core_1_L1D_prefetch_hit 26736268
Core_1_L1D_prefetch_miss 1752060
Core_1_L1D_writebacks 0
Core_1_L1D_writeback_hit 0
Core_1_L1D_writeback_miss 0

Core_1_L1I_total_access 24877336
Core_1_L1I_total_hit 24875336
Core_1_L1I_total_miss 2000
Core_1_L1I_loads 24877336
Core_1_L1I_load_hit 24875336
Core_1_L1I_load_miss 2000
Core_1_L1I_RFOs 0
Core_1_L1I_RFO_hit 0
Core_1_L1I_RFO_miss 0
Core_1_L1I_prefetches 0
Core_1_L1I_prefetch_hit 0
Core_1_L1I_prefetch_miss 0
Core_1_L1I_writebacks 0
Core_1_L1I_writeback_hit 0
Core_1_L1I_writeback_miss 0

Core_1_L2C_total_access 6195209
Core_1_L2C_total_hit 4761619
Core_1_L2C_total_miss 1433590
Core_1_L2C_loads 976993
Core_1_L2C_load_hit 464242
Core_1_L2C_load_miss 512751
Core_1_L2C_RFOs 242433
Core_1_L2C_RFO_hit 4660
Core_1_L2C_RFO_miss 237773
Core_1_L2C_prefetches 3979868
Core_1_L2C_prefetch_hit 3296810
Core_1_L2C_prefetch_miss 683058
Core_1_L2C_writebacks 995915
Core_1_L2C_writeback_hit 995907
Core_1_L2C_writeback_miss 8


Core_1_LLC_total_access 2249501
Core_1_LLC_total_hit 804418
Core_1_LLC_total_miss 1445083
Core_1_LLC_loads 323360
Core_1_LLC_load_hit 20
Core_1_LLC_load_miss 323340
Core_1_LLC_RFOs 237771
Core_1_LLC_RFO_hit 0
Core_1_LLC_RFO_miss 237771
Core_1_LLC_prefetches 872451
Core_1_LLC_prefetch_hit 212
Core_1_LLC_prefetch_miss 872239
Core_1_LLC_writebacks 815919
Core_1_LLC_writeback_hit 804186
Core_1_LLC_writeback_miss 11733


CPU 2 cumulative IPC: 0.62263 instructions: 167042196 cycles: 268284820
Core_2_L1D_total_access 81956471
Core_2_L1D_total_hit 78634564
Core_2_L1D_total_miss 3321907
Core_2_L1D_loads 48402873
Core_2_L1D_load_hit 47129115
Core_2_L1D_load_miss 1273758
Core_2_L1D_RFOs 4350713
Core_2_L1D_RFO_hit 4108275
Core_2_L1D_RFO_miss 242438
Core_2_L1D_prefetches 29202885
Core_2_L1D_prefetch_hit 27397174
Core_2_L1D_prefetch_miss 1805711
Core_2_L1D_writebacks 0
Core_2_L1D_writeback_hit 0
Core_2_L1D_writeback_miss 0

Core_2_L1I_total_access 25201935
Core_2_L1I_total_hit 25196957
Core_2_L1I_total_miss 4978
Core_2_L1I_loads 25201935
Core_2_L1I_load_hit 25196957
Core_2_L1I_load_miss 4978
Core_2_L1I_RFOs 0
Core_2_L1I_RFO_hit 0
Core_2_L1I_RFO_miss 0
Core_2_L1I_prefetches 0
Core_2_L1I_prefetch_hit 0
Core_2_L1I_prefetch_miss 0
Core_2_L1I_writebacks 0
Core_2_L1I_writeback_hit 0
Core_2_L1I_writeback_miss 0

Core_2_L2C_total_access 6358303
Core_2_L2C_total_hit 4904797
Core_2_L2C_total_miss 1453506
Core_2_L2C_loads 1002951
Core_2_L2C_load_hit 514651
Core_2_L2C_load_miss 488300
Core_2_L2C_RFOs 242428
Core_2_L2C_RFO_hit 4904
Core_2_L2C_RFO_miss 237524
Core_2_L2C_prefetches 4104104
Core_2_L2C_prefetch_hit 3376428
Core_2_L2C_prefetch_miss 727676
Core_2_L2C_writebacks 1008820
Core_2_L2C_writeback_hit 1008814
Core_2_L2C_writeback_miss 6


Core_2_LLC_total_access 2271253
Core_2_LLC_total_hit 809768
Core_2_LLC_total_miss 1461485
Core_2_LLC_loads 297744
Core_2_LLC_load_hit 0
Core_2_LLC_load_miss 297744
Core_2_LLC_RFOs 237522
Core_2_LLC_RFO_hit 0
Core_2_LLC_RFO_miss 237522
Core_2_LLC_prefetches 918234
Core_2_LLC_prefetch_hit 57
Core_2_LLC_prefetch_miss 918177
Core_2_LLC_writebacks 817753
Core_2_LLC_writeback_hit 809711
Core_2_LLC_writeback_miss 8042


CPU 3 cumulative IPC: 0.60384 instructions: 162000004 cycles: 268284820
Core_3_L1D_total_access 79530378
Core_3_L1D_total_hit 76277284
Core_3_L1D_total_miss 3253094
Core_3_L1D_loads 46910211
Core_3_L1D_load_hit 45664968
Core_3_L1D_load_miss 1245243
Core_3_L1D_RFOs 4315814
Core_3_L1D_RFO_hit 4072446
Core_3_L1D_RFO_miss 243368
Core_3_L1D_prefetches 28304353
Core_3_L1D_prefetch_hit 26539870
Core_3_L1D_prefetch_miss 1764483
Core_3_L1D_writebacks 0
Core_3_L1D_writeback_hit 0
Core_3_L1D_writeback_miss 0

Core_3_L1I_total_access 24671495
Core_3_L1I_total_hit 24669497
Core_3_L1I_total_miss 1998
Core_3_L1I_loads 24671495
Core_3_L1I_load_hit 24669497
Core_3_L1I_load_miss 1998
Core_3_L1I_RFOs 0
Core_3_L1I_RFO_hit 0
Core_3_L1I_RFO_miss 0
Core_3_L1I_prefetches 0
Core_3_L1I_prefetch_hit 0
Core_3_L1I_prefetch_miss 0
Core_3_L1I_writebacks 0
Core_3_L1I_writeback_hit 0
Core_3_L1I_writeback_miss 0

Core_3_L2C_total_access 6159147
Core_3_L2C_total_hit 4735888
Core_3_L2C_total_miss 1423259
Core_3_L2C_loads 971259
Core_3_L2C_load_hit 464985
Core_3_L2C_load_miss 506274
Core_3_L2C_RFOs 243365
Core_3_L2C_RFO_hit 5707
Core_3_L2C_RFO_miss 237658
Core_3_L2C_prefetches 3948113
Core_3_L2C_prefetch_hit 3268791
Core_3_L2C_prefetch_miss 679322
Core_3_L2C_writebacks 996410
Core_3_L2C_writeback_hit 996405
Core_3_L2C_writeback_miss 5


Core_3_LLC_total_access 2238109
Core_3_LLC_total_hit 807417
Core_3_LLC_total_miss 1430692
Core_3_LLC_loads 317543
Core_3_LLC_load_hit 3
Core_3_LLC_load_miss 317540
Core_3_LLC_RFOs 237657
Core_3_LLC_RFO_hit 0
Core_3_LLC_RFO_miss 237657
Core_3_LLC_prefetches 868054
Core_3_LLC_prefetch_hit 73
Core_3_LLC_prefetch_miss 867981
Core_3_LLC_writebacks 814855
Core_3_LLC_writeback_hit 807341
Core_3_LLC_writeback_miss 7514


[ROI Statistics]
Core_0_instructions 162000005
Core_0_cycles 266907645
Core_0_IPC 0.60695

Core_0_branch_prediction_accuracy 99.21109
Core_0_branch_MPKI 0.23209
Core_0_average_ROB_occupancy_at_mispredict 448.98386

Core_0_L1D_total_access 79829074
Core_0_L1D_total_hit 76519447 L1D_total_Hit Ratio: 0.95854
Core_0_L1D_total_miss 3309627
Core_0_L1D_loads 46908985
Core_0_L1D_load_hit 45609119 L1D_load_Hit Ratio: 0.97229
Core_0_L1D_load_miss 1299866
Core_0_L1D_RFOs 4316773
Core_0_L1D_RFO_hit 4074325 L1D_RFO_Hit Ratio: 0.94384
Core_0_L1D_RFO_miss 242448
Core_0_L1D_prefetches 28603316
Core_0_L1D_prefetch_hit 26836003 L1D_prefetch_Hit Ratio: 0.93821
Core_0_L1D_prefetch_miss 1767313
Core_0_L1D_writebacks 0
Core_0_L1D_writeback_hit 0 L1D_writeback_Hit Ratio: -nan
Core_0_L1D_writeback_miss 0
Core_0_L1D_prefetch_requested 62212657
Core_0_L1D_prefetch_issued 42620017
Core_0_L1D_prefetch_useful 1696580 L1D_Useful Ratio: 0.03981
Core_0_L1D_prefetch_useless 121922
Core_0_L1D_prefetch_late 280302
Core_0_L1D_average_miss_latency 11877469.51608

Core_0_L1I_total_access 24618321
Core_0_L1I_total_hit 24616331 L1I_total_Hit Ratio: 0.99992
Core_0_L1I_total_miss 1990
Core_0_L1I_loads 24618321
Core_0_L1I_load_hit 24616331 L1I_load_Hit Ratio: 0.99992
Core_0_L1I_load_miss 1990
Core_0_L1I_RFOs 0
Core_0_L1I_RFO_hit 0 L1I_RFO_Hit Ratio: -nan
Core_0_L1I_RFO_miss 0
Core_0_L1I_prefetches 0
Core_0_L1I_prefetch_hit 0 L1I_prefetch_Hit Ratio: -nan
Core_0_L1I_prefetch_miss 0
Core_0_L1I_writebacks 0
Core_0_L1I_writeback_hit 0 L1I_writeback_Hit Ratio: -nan
Core_0_L1I_writeback_miss 0
Core_0_L1I_prefetch_requested 0
Core_0_L1I_prefetch_issued 0
Core_0_L1I_prefetch_useful 0 L1I_Useful Ratio: -nan
Core_0_L1I_prefetch_useless 0
Core_0_L1I_prefetch_late 0
Core_0_L1I_average_miss_latency 1057.22965

Core_0_L2C_total_access 6351949
Core_0_L2C_total_hit 4928789 L2C_total_Hit Ratio: 0.77595
Core_0_L2C_total_miss 1423160
Core_0_L2C_loads 1024237
Core_0_L2C_load_hit 537714 L2C_load_Hit Ratio: 0.52499
Core_0_L2C_load_miss 486523
Core_0_L2C_RFOs 242438
Core_0_L2C_RFO_hit 4754 L2C_RFO_Hit Ratio: 0.01961
Core_0_L2C_RFO_miss 237684
Core_0_L2C_prefetches 4091486
Core_0_L2C_prefetch_hit 3392539 L2C_prefetch_Hit Ratio: 0.82917
Core_0_L2C_prefetch_miss 698947
Core_0_L2C_writebacks 993788
Core_0_L2C_writeback_hit 993782 L2C_writeback_Hit Ratio: 0.99999
Core_0_L2C_writeback_miss 6
Core_0_L2C_prefetch_requested 4120536
Core_0_L2C_prefetch_issued 4102284
Core_0_L2C_prefetch_useful 89897 L2C_Useful Ratio: 0.02191
Core_0_L2C_prefetch_useless 575354
Core_0_L2C_prefetch_late 190775
Core_0_L2C_average_miss_latency 833.51777

Core_0_LLC_total_access 2238396
Core_0_LLC_total_hit 806455 LLC_total_Hit Ratio: 0.36028
Core_0_LLC_total_miss 1431941
Core_0_LLC_loads 296595
Core_0_LLC_load_hit 277 LLC_load_Hit Ratio: 0.00093
Core_0_LLC_load_miss 296318
Core_0_LLC_RFOs 237681
Core_0_LLC_RFO_hit 0 LLC_RFO_Hit Ratio: 0.00000
Core_0_LLC_RFO_miss 237681
Core_0_LLC_prefetches 888878
Core_0_LLC_prefetch_hit 474 LLC_prefetch_Hit Ratio: 0.00053
Core_0_LLC_prefetch_miss 888404
Core_0_LLC_writebacks 815242
Core_0_LLC_writeback_hit 805704 LLC_writeback_Hit Ratio: 0.98830
Core_0_LLC_writeback_miss 9538
Core_0_LLC_prefetch_requested 0
Core_0_LLC_prefetch_issued 0
Core_0_LLC_prefetch_useful 0 LLC_Useful Ratio: -nan
Core_0_LLC_prefetch_useless 3127824
Core_0_LLC_prefetch_late 0
Core_0_LLC_average_miss_latency 3211.69851

Core_0_major_page_fault 0
Core_0_minor_page_fault 11231

Core_1_instructions 162000003
Core_1_cycles 266904509
Core_1_IPC 0.60696

Core_1_branch_prediction_accuracy 99.21108
Core_1_branch_MPKI 0.23214
Core_1_average_ROB_occupancy_at_mispredict 449.09177

Core_1_L1D_total_access 79391322
Core_1_L1D_total_hit 76183819 L1D_total_Hit Ratio: 0.95960
Core_1_L1D_total_miss 3207503
Core_1_L1D_loads 46913856
Core_1_L1D_load_hit 45666814 L1D_load_Hit Ratio: 0.97342
Core_1_L1D_load_miss 1247042
Core_1_L1D_RFOs 4316799
Core_1_L1D_RFO_hit 4074361 L1D_RFO_Hit Ratio: 0.94384
Core_1_L1D_RFO_miss 242438
Core_1_L1D_prefetches 28160667
Core_1_L1D_prefetch_hit 26442644 L1D_prefetch_Hit Ratio: 0.93899
Core_1_L1D_prefetch_miss 1718023
Core_1_L1D_writebacks 0
Core_1_L1D_writeback_hit 0 L1D_writeback_Hit Ratio: -nan
Core_1_L1D_writeback_miss 0
Core_1_L1D_prefetch_requested 59338708
Core_1_L1D_prefetch_issued 42474008
Core_1_L1D_prefetch_useful 1660525 L1D_Useful Ratio: 0.03910
Core_1_L1D_prefetch_useless 106768
Core_1_L1D_prefetch_late 281762
Core_1_L1D_average_miss_latency 12873265.55651

Core_1_L1I_total_access 24661950
Core_1_L1I_total_hit 24659950 L1I_total_Hit Ratio: 0.99992
Core_1_L1I_total_miss 2000
Core_1_L1I_loads 24661950
Core_1_L1I_load_hit 24659950 L1I_load_Hit Ratio: 0.99992
Core_1_L1I_load_miss 2000
Core_1_L1I_RFOs 0
Core_1_L1I_RFO_hit 0 L1I_RFO_Hit Ratio: -nan
Core_1_L1I_RFO_miss 0
Core_1_L1I_prefetches 0
Core_1_L1I_prefetch_hit 0 L1I_prefetch_Hit Ratio: -nan
Core_1_L1I_prefetch_miss 0
Core_1_L1I_writebacks 0
Core_1_L1I_writeback_hit 0 L1I_writeback_Hit Ratio: -nan
Core_1_L1I_writeback_miss 0
Core_1_L1I_prefetch_requested 0
Core_1_L1I_prefetch_issued 0
Core_1_L1I_prefetch_useful 0 L1I_Useful Ratio: -nan
Core_1_L1I_prefetch_useless 0
Core_1_L1I_prefetch_late 0
Core_1_L1I_average_miss_latency 891.28200

Core_1_L2C_total_access 6108404
Core_1_L2C_total_hit 4685319 L2C_total_Hit Ratio: 0.76703
Core_1_L2C_total_miss 1423085
Core_1_L2C_loads 970115
Core_1_L2C_load_hit 458687 L2C_load_Hit Ratio: 0.47282
Core_1_L2C_load_miss 511428
Core_1_L2C_RFOs 242433
Core_1_L2C_RFO_hit 4660 L2C_RFO_Hit Ratio: 0.01922
Core_1_L2C_RFO_miss 237773
Core_1_L2C_prefetches 3902200
Core_1_L2C_prefetch_hit 3228324 L2C_prefetch_Hit Ratio: 0.82731
Core_1_L2C_prefetch_miss 673876
Core_1_L2C_writebacks 993656
Core_1_L2C_writeback_hit 993648 L2C_writeback_Hit Ratio: 0.99999
Core_1_L2C_writeback_miss 8
Core_1_L2C_prefetch_requested 3860346
Core_1_L2C_prefetch_issued 3848720
Core_1_L2C_prefetch_useful 61698 L2C_Useful Ratio: 0.01603
Core_1_L2C_prefetch_useless 576758
Core_1_L2C_prefetch_late 189952
Core_1_L2C_average_miss_latency 823.31574

Core_1_LLC_total_access 2238228
Core_1_LLC_total_hit 803650 LLC_total_Hit Ratio: 0.35906
Core_1_LLC_total_miss 1434578
Core_1_LLC_loads 322113
Core_1_LLC_load_hit 20 LLC_load_Hit Ratio: 0.00006
Core_1_LLC_load_miss 322093
Core_1_LLC_RFOs 237771
Core_1_LLC_RFO_hit 0 LLC_RFO_Hit Ratio: 0.00000
Core_1_LLC_RFO_miss 237771
Core_1_LLC_prefetches 863193
Core_1_LLC_prefetch_hit 212 LLC_prefetch_Hit Ratio: 0.00025
Core_1_LLC_prefetch_miss 862981
Core_1_LLC_writebacks 815151
Core_1_LLC_writeback_hit 803418 LLC_writeback_Hit Ratio: 0.98561
Core_1_LLC_writeback_miss 11733
Core_1_LLC_prefetch_requested 0
Core_1_LLC_prefetch_issued 0
Core_1_LLC_prefetch_useful 0 LLC_Useful Ratio: -nan
Core_1_LLC_prefetch_useless 3127824
Core_1_LLC_prefetch_late 0
Core_1_LLC_average_miss_latency 3205.79486

Core_1_major_page_fault 0
Core_1_minor_page_fault 11231

Core_2_instructions 162000003
Core_2_cycles 264604764
Core_2_IPC 0.61223

Core_2_branch_prediction_accuracy 99.19893
Core_2_branch_MPKI 0.23328
Core_2_average_ROB_occupancy_at_mispredict 441.60985

Core_2_L1D_total_access 79541626
Core_2_L1D_total_hit 76322028 L1D_total_Hit Ratio: 0.95952
Core_2_L1D_total_miss 3219598
Core_2_L1D_loads 46908229
Core_2_L1D_load_hit 45667522 L1D_load_Hit Ratio: 0.97355
Core_2_L1D_load_miss 1240707
Core_2_L1D_RFOs 4316616
Core_2_L1D_RFO_hit 4074273 L1D_RFO_Hit Ratio: 0.94386
Core_2_L1D_RFO_miss 242343
Core_2_L1D_prefetches 28316781
Core_2_L1D_prefetch_hit 26580233 L1D_prefetch_Hit Ratio: 0.93867
Core_2_L1D_prefetch_miss 1736548
Core_2_L1D_writebacks 0
Core_2_L1D_writeback_hit 0 L1D_writeback_Hit Ratio: -nan
Core_2_L1D_writeback_miss 0
Core_2_L1D_prefetch_requested 62288425
Core_2_L1D_prefetch_issued 43343608
Core_2_L1D_prefetch_useful 1696738 L1D_Useful Ratio: 0.03915
Core_2_L1D_prefetch_useless 125385
Core_2_L1D_prefetch_late 275971
Core_2_L1D_average_miss_latency 12312052.30980

Core_2_L1I_total_access 24663359
Core_2_L1I_total_hit 24661381 L1I_total_Hit Ratio: 0.99992
Core_2_L1I_total_miss 1978
Core_2_L1I_loads 24663359
Core_2_L1I_load_hit 24661381 L1I_load_Hit Ratio: 0.99992
Core_2_L1I_load_miss 1978
Core_2_L1I_RFOs 0
Core_2_L1I_RFO_hit 0 L1I_RFO_Hit Ratio: -nan
Core_2_L1I_RFO_miss 0
Core_2_L1I_prefetches 0
Core_2_L1I_prefetch_hit 0 L1I_prefetch_Hit Ratio: -nan
Core_2_L1I_prefetch_miss 0
Core_2_L1I_writebacks 0
Core_2_L1I_writeback_hit 0 L1I_writeback_Hit Ratio: -nan
Core_2_L1I_writeback_miss 0
Core_2_L1I_prefetch_requested 0
Core_2_L1I_prefetch_issued 0
Core_2_L1I_prefetch_useful 0 L1I_Useful Ratio: -nan
Core_2_L1I_prefetch_useless 0
Core_2_L1I_prefetch_late 0
Core_2_L1I_average_miss_latency 1237.17037

Core_2_L2C_total_access 6152877
Core_2_L2C_total_hit 4729818 L2C_total_Hit Ratio: 0.76872
Core_2_L2C_total_miss 1423059
Core_2_L2C_loads 972450
Core_2_L2C_load_hit 496791 L2C_load_Hit Ratio: 0.51087
Core_2_L2C_load_miss 475659
Core_2_L2C_RFOs 242337
Core_2_L2C_RFO_hit 4873 L2C_RFO_Hit Ratio: 0.02011
Core_2_L2C_RFO_miss 237464
Core_2_L2C_prefetches 3943498
Core_2_L2C_prefetch_hit 3233568 L2C_prefetch_Hit Ratio: 0.81997
Core_2_L2C_prefetch_miss 709930
Core_2_L2C_writebacks 994592
Core_2_L2C_writeback_hit 994586 L2C_writeback_Hit Ratio: 0.99999
Core_2_L2C_writeback_miss 6
Core_2_L2C_prefetch_requested 3920145
Core_2_L2C_prefetch_issued 3904384
Core_2_L2C_prefetch_useful 101517 L2C_Useful Ratio: 0.02600
Core_2_L2C_prefetch_useless 591671
Core_2_L2C_prefetch_late 191223
Core_2_L2C_average_miss_latency 819.02030

Core_2_LLC_total_access 2237384
Core_2_LLC_total_hit 806369 LLC_total_Hit Ratio: 0.36041
Core_2_LLC_total_miss 1431015
Core_2_LLC_loads 286943
Core_2_LLC_load_hit 0 LLC_load_Hit Ratio: 0.00000
Core_2_LLC_load_miss 286943
Core_2_LLC_RFOs 237463
Core_2_LLC_RFO_hit 0 LLC_RFO_Hit Ratio: 0.00000
Core_2_LLC_RFO_miss 237463
Core_2_LLC_prefetches 898647
Core_2_LLC_prefetch_hit 56 LLC_prefetch_Hit Ratio: 0.00006
Core_2_LLC_prefetch_miss 898591
Core_2_LLC_writebacks 814331
Core_2_LLC_writeback_hit 806313 LLC_writeback_Hit Ratio: 0.99015
Core_2_LLC_writeback_miss 8018
Core_2_LLC_prefetch_requested 0
Core_2_LLC_prefetch_issued 0
Core_2_LLC_prefetch_useful 0 LLC_Useful Ratio: -nan
Core_2_LLC_prefetch_useless 3127824
Core_2_LLC_prefetch_late 0
Core_2_LLC_average_miss_latency 3213.77678

Core_2_major_page_fault 0
Core_2_minor_page_fault 11304

Core_3_instructions 162000004
Core_3_cycles 268284820
Core_3_IPC 0.60384

Core_3_branch_prediction_accuracy 99.21038
Core_3_branch_MPKI 0.23475
Core_3_average_ROB_occupancy_at_mispredict 449.21904

Core_3_L1D_total_access 79530378
Core_3_L1D_total_hit 76277284 L1D_total_Hit Ratio: 0.95910
Core_3_L1D_total_miss 3253094
Core_3_L1D_loads 46910211
Core_3_L1D_load_hit 45664968 L1D_load_Hit Ratio: 0.97345
Core_3_L1D_load_miss 1245243
Core_3_L1D_RFOs 4315814
Core_3_L1D_RFO_hit 4072446 L1D_RFO_Hit Ratio: 0.94361
Core_3_L1D_RFO_miss 243368
Core_3_L1D_prefetches 28304353
Core_3_L1D_prefetch_hit 26539870 L1D_prefetch_Hit Ratio: 0.93766
Core_3_L1D_prefetch_miss 1764483
Core_3_L1D_writebacks 0
Core_3_L1D_writeback_hit 0 L1D_writeback_Hit Ratio: -nan
Core_3_L1D_writeback_miss 0
Core_3_L1D_prefetch_requested 59428748
Core_3_L1D_prefetch_issued 41934211
Core_3_L1D_prefetch_useful 1673681 L1D_Useful Ratio: 0.03991
Core_3_L1D_prefetch_useless 106736
Core_3_L1D_prefetch_late 276117
Core_3_L1D_average_miss_latency 12602422.88653

Core_3_L1I_total_access 24671495
Core_3_L1I_total_hit 24669497 L1I_total_Hit Ratio: 0.99992
Core_3_L1I_total_miss 1998
Core_3_L1I_loads 24671495
Core_3_L1I_load_hit 24669497 L1I_load_Hit Ratio: 0.99992
Core_3_L1I_load_miss 1998
Core_3_L1I_RFOs 0
Core_3_L1I_RFO_hit 0 L1I_RFO_Hit Ratio: -nan
Core_3_L1I_RFO_miss 0
Core_3_L1I_prefetches 0
Core_3_L1I_prefetch_hit 0 L1I_prefetch_Hit Ratio: -nan
Core_3_L1I_prefetch_miss 0
Core_3_L1I_writebacks 0
Core_3_L1I_writeback_hit 0 L1I_writeback_Hit Ratio: -nan
Core_3_L1I_writeback_miss 0
Core_3_L1I_prefetch_requested 0
Core_3_L1I_prefetch_issued 0
Core_3_L1I_prefetch_useful 0 L1I_Useful Ratio: -nan
Core_3_L1I_prefetch_useless 0
Core_3_L1I_prefetch_late 0
Core_3_L1I_average_miss_latency 1207.84484

Core_3_L2C_total_access 6159147
Core_3_L2C_total_hit 4735888 L2C_total_Hit Ratio: 0.76892
Core_3_L2C_total_miss 1423259
Core_3_L2C_loads 971259
Core_3_L2C_load_hit 464985 L2C_load_Hit Ratio: 0.47874
Core_3_L2C_load_miss 506274
Core_3_L2C_RFOs 243365
Core_3_L2C_RFO_hit 5707 L2C_RFO_Hit Ratio: 0.02345
Core_3_L2C_RFO_miss 237658
Core_3_L2C_prefetches 3948113
Core_3_L2C_prefetch_hit 3268791 L2C_prefetch_Hit Ratio: 0.82794
Core_3_L2C_prefetch_miss 679322
Core_3_L2C_writebacks 996410
Core_3_L2C_writeback_hit 996405 L2C_writeback_Hit Ratio: 0.99999
Core_3_L2C_writeback_miss 5
Core_3_L2C_prefetch_requested 3843775
Core_3_L2C_prefetch_issued 3834947
Core_3_L2C_prefetch_useful 66424 L2C_Useful Ratio: 0.01732
Core_3_L2C_prefetch_useless 567728
Core_3_L2C_prefetch_late 189421
Core_3_L2C_average_miss_latency 821.59789

Core_3_LLC_total_access 2238109
Core_3_LLC_total_hit 807417 LLC_total_Hit Ratio: 0.36076
Core_3_LLC_total_miss 1430692
Core_3_LLC_loads 317543
Core_3_LLC_load_hit 3 LLC_load_Hit Ratio: 0.00001
Core_3_LLC_load_miss 317540
Core_3_LLC_RFOs 237657
Core_3_LLC_RFO_hit 0 LLC_RFO_Hit Ratio: 0.00000
Core_3_LLC_RFO_miss 237657
Core_3_LLC_prefetches 868054
Core_3_LLC_prefetch_hit 73 LLC_prefetch_Hit Ratio: 0.00008
Core_3_LLC_prefetch_miss 867981
Core_3_LLC_writebacks 814855
Core_3_LLC_writeback_hit 807341 LLC_writeback_Hit Ratio: 0.99078
Core_3_LLC_writeback_miss 7514
Core_3_LLC_prefetch_requested 0
Core_3_LLC_prefetch_issued 0
Core_3_LLC_prefetch_useful 0 LLC_Useful Ratio: -nan
Core_3_LLC_prefetch_useless 3127824
Core_3_LLC_prefetch_late 0
Core_3_LLC_average_miss_latency 3214.50234

Core_3_major_page_fault 0
Core_3_minor_page_fault 11197





Channel_0_RQ_row_buffer_hit 2220963
Channel_0_RQ_row_buffer_miss 3522055
Channel_0_WQ_row_buffer_hit 994410
Channel_0_WQ_row_buffer_miss 2243846
Channel_0_WQ_full 637
Channel_0_dbus_congested 5431004

avg_congested_cycle 8

EzSearch AVG IPC :0.60695: L2-Pf-HR :0.82917 : L2-HR :0.77730 Uful:0.02191
EzSearch AVG IPC :0.60696: L2-Pf-HR :0.82731 : L2-HR :0.76860 Uful:0.01603
EzSearch AVG IPC :0.61223: L2-Pf-HR :0.81997 : L2-HR :0.77140 Uful:0.02600
EzSearch AVG IPC :0.60384: L2-Pf-HR :0.82794 : L2-HR :0.76892 Uful:0.01732
     > Finished combination: TraceType=770-tot Sim:162000000 Prefetcher=L2ipcp L1=ipcp
