TRACE: [21000000]_FE_[Pythia-70M]_[h8]_[s256]_[d64] Warmup: 2000000 NumTraces: 21000000
L1:isb_ideal:L2:isb_ideal
*************************************************
   ChampSim Multicore Out-of-Order Simulator
   Last compiled: Oct 29 2024 05:52:35
*************************************************

trace_0 770-tot_memTraces_v3/memTraces[21000000]_FE_[Pythia-70M]_[h8]_[s256]_[d64].champsim.xz
trace_1 770-tot_memTraces_v3/memTraces[21000000]_FE_[Pythia-70M]_[h8]_[s256]_[d64].champsim.xz
trace_2 770-tot_memTraces_v3/memTraces[21000000]_FE_[Pythia-70M]_[h8]_[s256]_[d64].champsim.xz
trace_3 770-tot_memTraces_v3/memTraces[21000000]_FE_[Pythia-70M]_[h8]_[s256]_[d64].champsim.xz
L1D: Ideal ISB Prefetching
Ideal ISB Prefetching
L1D: Ideal ISB Prefetching
Ideal ISB Prefetching
L1D: Ideal ISB Prefetching
Ideal ISB Prefetching
L1D: Ideal ISB Prefetching
Ideal ISB Prefetching
MAIN.cc ln 751 stats print skipped
CPU  1 inst:    1000001 cyc:     499133 now IPC :2.00348: AVG IPC :2.00348: L2-Pf-HR :1.00000: L2-HR :0.74615: (Sim:0h0m50s) 
CPU  0 inst:    1000001 cyc:     499339 now IPC :2.00265: AVG IPC :2.00265: L2-Pf-HR :1.00000: L2-HR :0.70012: (Sim:0h0m50s) 
CPU  3 inst:    1000001 cyc:     499368 now IPC :2.00253: AVG IPC :2.00253: L2-Pf-HR :1.00000: L2-HR :0.70898: (Sim:0h0m50s) 
CPU  2 inst:    1000001 cyc:     499387 now IPC :2.00246: AVG IPC :2.00246: L2-Pf-HR :1.00000: L2-HR :0.75630: (Sim:0h0m50s) 
CPU  1 inst:    2000003 cyc:     987192 now IPC :2.04894: AVG IPC :2.02595: L2-Pf-HR :1.00000: L2-HR :0.78033: (Sim:0h1m40s) 
CPU  0 inst:    2000003 cyc:     987487 now IPC :2.04856: AVG IPC :2.02535: L2-Pf-HR :1.00000: L2-HR :0.72614: (Sim:0h1m40s) 
CPU  2 inst:    2000003 cyc:     987508 now IPC :2.04868: AVG IPC :2.02530: L2-Pf-HR :1.00000: L2-HR :0.78544: (Sim:0h1m40s) 
CPU  3 inst:    2000003 cyc:     987555 now IPC :2.04840: AVG IPC :2.02521: L2-Pf-HR :1.00000: L2-HR :0.73202: (Sim:0h1m40s) 

Warmup complete CPU  0 instructions:    2000202 cycles:     987555 (Simulation time: 0 hr 1 min 40 sec) 
Warmup complete CPU  1 instructions:    2000819 cycles:     987555 (Simulation time: 0 hr 1 min 40 sec) 
Warmup complete CPU  2 instructions:    2000141 cycles:     987555 (Simulation time: 0 hr 1 min 40 sec) 
Warmup complete CPU  3 instructions:    2000003 cycles:     987555 (Simulation time: 0 hr 1 min 40 sec) 

CPU  1 inst:    3000005 cyc:    1750288 now IPC :1.31045: AVG IPC :1.31001: L2-Pf-HR :1.00000: L2-HR :0.81106: (Sim:0h2m25s) 
CPU  2 inst:    3000005 cyc:    1750949 now IPC :1.30986: AVG IPC :1.30976: L2-Pf-HR :1.00000: L2-HR :0.81864: (Sim:0h2m25s) 
CPU  0 inst:    3000005 cyc:    1754443 now IPC :1.30386: AVG IPC :1.30371: L2-Pf-HR :1.00000: L2-HR :0.77744: (Sim:0h2m25s) 
CPU  3 inst:    3000005 cyc:    1754747 now IPC :1.30346: AVG IPC :1.30346: L2-Pf-HR :1.00000: L2-HR :0.77880: (Sim:0h2m25s) 
CPU  1 inst:    4000005 cyc:    2525324 now IPC :1.29026: AVG IPC :1.30006: L2-Pf-HR :1.00000: L2-HR :0.81433: (Sim:0h3m17s) 
CPU  0 inst:    4000005 cyc:    2527252 now IPC :1.29398: AVG IPC :1.29883: L2-Pf-HR :1.00000: L2-HR :0.77691: (Sim:0h3m17s) 
CPU  3 inst:    4000005 cyc:    2530271 now IPC :1.28945: AVG IPC :1.29642: L2-Pf-HR :1.00000: L2-HR :0.77080: (Sim:0h3m17s) 
CPU  2 inst:    4000005 cyc:    2531083 now IPC :1.28183: AVG IPC :1.29564: L2-Pf-HR :1.00000: L2-HR :0.82108: (Sim:0h3m17s) 
CPU  0 inst:    5000000 cyc:    3295833 now IPC :1.30109: AVG IPC :1.29958: L2-Pf-HR :1.00000: L2-HR :0.77527: (Sim:0h4m9s) 
CPU  1 inst:    5000000 cyc:    3296545 now IPC :1.29664: AVG IPC :1.29891: L2-Pf-HR :1.00000: L2-HR :0.81441: (Sim:0h4m9s) 
CPU  3 inst:    5000001 cyc:    3300386 now IPC :1.29850: AVG IPC :1.29711: L2-Pf-HR :1.00000: L2-HR :0.76723: (Sim:0h4m9s) 
CPU  2 inst:    5000001 cyc:    3308139 now IPC :1.28690: AVG IPC :1.29272: L2-Pf-HR :1.00000: L2-HR :0.82222: (Sim:0h4m10s) 
CPU  1 inst:    6000003 cyc:    4062042 now IPC :1.30634: AVG IPC :1.30076: L2-Pf-HR :1.00000: L2-HR :0.81400: (Sim:0h5m2s) 
CPU  0 inst:    6000003 cyc:    4065278 now IPC :1.29964: AVG IPC :1.29960: L2-Pf-HR :1.00000: L2-HR :0.77600: (Sim:0h5m3s) 
CPU  3 inst:    6000003 cyc:    4065582 now IPC :1.30686: AVG IPC :1.29953: L2-Pf-HR :1.00000: L2-HR :0.76787: (Sim:0h5m3s) 
CPU  2 inst:    6000003 cyc:    4074651 now IPC :1.30461: AVG IPC :1.29567: L2-Pf-HR :1.00000: L2-HR :0.82214: (Sim:0h5m3s) 
CPU  1 inst:    7000003 cyc:    4842724 now IPC :1.28093: AVG IPC :1.29675: L2-Pf-HR :1.00000: L2-HR :0.81498: (Sim:0h5m55s) 
CPU  3 inst:    7000003 cyc:    4843436 now IPC :1.28559: AVG IPC :1.29672: L2-Pf-HR :1.00000: L2-HR :0.76840: (Sim:0h5m55s) 
CPU  0 inst:    7000003 cyc:    4849747 now IPC :1.27475: AVG IPC :1.29455: L2-Pf-HR :1.00000: L2-HR :0.77419: (Sim:0h5m56s) 
CPU  2 inst:    7000003 cyc:    4853190 now IPC :1.28446: AVG IPC :1.29341: L2-Pf-HR :1.00000: L2-HR :0.82255: (Sim:0h5m56s) 
CPU  1 inst:    8000003 cyc:    5606748 now IPC :1.30886: AVG IPC :1.29875: L2-Pf-HR :1.00000: L2-HR :0.81493: (Sim:0h6m47s) 
CPU  3 inst:    8000003 cyc:    5611057 now IPC :1.30273: AVG IPC :1.29772: L2-Pf-HR :1.00000: L2-HR :0.76750: (Sim:0h6m48s) 
CPU  0 inst:    8000003 cyc:    5618329 now IPC :1.30110: AVG IPC :1.29564: L2-Pf-HR :1.00000: L2-HR :0.77282: (Sim:0h6m48s) 
CPU  2 inst:    8000003 cyc:    5622467 now IPC :1.29992: AVG IPC :1.29449: L2-Pf-HR :1.00000: L2-HR :0.82163: (Sim:0h6m48s) 
CPU  3 inst:    9000000 cyc:    6654316 now IPC :0.95853: AVG IPC :1.23527: L2-Pf-HR :0.99996: L2-HR :0.82388: (Sim:0h7m43s) 
CPU  0 inst:    9000000 cyc:    6661941 now IPC :0.95821: AVG IPC :1.23358: L2-Pf-HR :1.00000: L2-HR :0.82931: (Sim:0h7m43s) 
CPU  2 inst:    9000000 cyc:    6669812 now IPC :0.95479: AVG IPC :1.23188: L2-Pf-HR :1.00000: L2-HR :0.84912: (Sim:0h7m44s) 
CPU  1 inst:    9000000 cyc:    6671929 now IPC :0.93880: AVG IPC :1.23130: L2-Pf-HR :1.00000: L2-HR :0.81589: (Sim:0h7m44s) 
CPU  0 inst:   10000000 cyc:    9687908 now IPC :0.33047: AVG IPC :0.91948: L2-Pf-HR :1.00000: L2-HR :0.81487: (Sim:0h9m10s) 
CPU  3 inst:   10000000 cyc:    9693492 now IPC :0.32904: AVG IPC :0.91891: L2-Pf-HR :0.99996: L2-HR :0.80787: (Sim:0h9m10s) 
CPU  2 inst:   10000000 cyc:    9695006 now IPC :0.33056: AVG IPC :0.91874: L2-Pf-HR :1.00000: L2-HR :0.83523: (Sim:0h9m10s) 
CPU  1 inst:   10000000 cyc:    9707731 now IPC :0.32940: AVG IPC :0.91732: L2-Pf-HR :1.00000: L2-HR :0.80299: (Sim:0h9m10s) 
CPU  0 inst:   11000000 cyc:   12718027 now IPC :0.33002: AVG IPC :0.76722: L2-Pf-HR :1.00000: L2-HR :0.80092: (Sim:0h10m32s) 
CPU  2 inst:   11000000 cyc:   12729269 now IPC :0.32957: AVG IPC :0.76649: L2-Pf-HR :1.00000: L2-HR :0.82174: (Sim:0h10m32s) 
CPU  3 inst:   11000000 cyc:   12768889 now IPC :0.32516: AVG IPC :0.76392: L2-Pf-HR :0.99996: L2-HR :0.78810: (Sim:0h10m33s) 
CPU  1 inst:   11000000 cyc:   12779314 now IPC :0.32557: AVG IPC :0.76318: L2-Pf-HR :0.99997: L2-HR :0.78650: (Sim:0h10m33s) 
CPU  2 inst:   12000000 cyc:   15790438 now IPC :0.32667: AVG IPC :0.67553: L2-Pf-HR :0.99998: L2-HR :0.80737: (Sim:0h11m23s) 
CPU  0 inst:   12000000 cyc:   15822193 now IPC :0.32215: AVG IPC :0.67408: L2-Pf-HR :1.00000: L2-HR :0.78030: (Sim:0h11m24s) 
CPU  3 inst:   12000000 cyc:   15833073 now IPC :0.32635: AVG IPC :0.67360: L2-Pf-HR :0.99991: L2-HR :0.77312: (Sim:0h11m24s) 
CPU  1 inst:   12000000 cyc:   15918242 now IPC :0.31858: AVG IPC :0.66971: L2-Pf-HR :0.99997: L2-HR :0.76488: (Sim:0h11m26s) 
CPU  2 inst:   13000000 cyc:   18903194 now IPC :0.32126: AVG IPC :0.61398: L2-Pf-HR :0.99976: L2-HR :0.78900: (Sim:0h12m14s) 
CPU  3 inst:   13000000 cyc:   18956129 now IPC :0.32020: AVG IPC :0.61218: L2-Pf-HR :0.99991: L2-HR :0.75325: (Sim:0h12m15s) 
CPU  0 inst:   13000000 cyc:   18969798 now IPC :0.31770: AVG IPC :0.61170: L2-Pf-HR :0.99979: L2-HR :0.75694: (Sim:0h12m15s) 
CPU  1 inst:   13000000 cyc:   19061392 now IPC :0.31815: AVG IPC :0.60857: L2-Pf-HR :0.99995: L2-HR :0.74571: (Sim:0h12m17s) 
CPU  2 inst:   14000002 cyc:   19571262 now IPC :1.49686: AVG IPC :0.64572: L2-Pf-HR :0.99972: L2-HR :0.78966: (Sim:0h12m46s) 
CPU  3 inst:   14000002 cyc:   19631893 now IPC :1.47981: AVG IPC :0.64363: L2-Pf-HR :0.99984: L2-HR :0.75403: (Sim:0h12m50s) 
CPU  0 inst:   14000002 cyc:   19647219 now IPC :1.47619: AVG IPC :0.64309: L2-Pf-HR :0.99964: L2-HR :0.75679: (Sim:0h12m51s) 
CPU  1 inst:   14000002 cyc:   19726831 now IPC :1.50277: AVG IPC :0.64032: L2-Pf-HR :0.99992: L2-HR :0.75115: (Sim:0h12m55s) 
CPU  2 inst:   15000000 cyc:   20146888 now IPC :1.73724: AVG IPC :0.67851: L2-Pf-HR :0.99976: L2-HR :0.78981: (Sim:0h13m22s) 
CPU  3 inst:   15000000 cyc:   20205072 now IPC :1.74465: AVG IPC :0.67647: L2-Pf-HR :0.99988: L2-HR :0.76485: (Sim:0h13m26s) 
CPU  0 inst:   15000000 cyc:   20222917 now IPC :1.73702: AVG IPC :0.67583: L2-Pf-HR :0.99972: L2-HR :0.75925: (Sim:0h13m27s) 
CPU  1 inst:   15000000 cyc:   20295786 now IPC :1.75760: AVG IPC :0.67325: L2-Pf-HR :0.99993: L2-HR :0.75355: (Sim:0h13m31s) 
CPU  2 inst:   16000003 cyc:   20717239 now IPC :1.75331: AVG IPC :0.70958: L2-Pf-HR :0.99978: L2-HR :0.78902: (Sim:0h13m57s) 
CPU  3 inst:   16000003 cyc:   20774225 now IPC :1.75700: AVG IPC :0.70755: L2-Pf-HR :0.99991: L2-HR :0.77480: (Sim:0h14m1s) 
CPU  0 inst:   16000003 cyc:   20792670 now IPC :1.75515: AVG IPC :0.70688: L2-Pf-HR :0.99977: L2-HR :0.76256: (Sim:0h14m2s) 
CPU  1 inst:   16000003 cyc:   20860807 now IPC :1.76985: AVG IPC :0.70442: L2-Pf-HR :0.99994: L2-HR :0.76031: (Sim:0h14m8s) 
CPU  2 inst:   17000002 cyc:   21287630 now IPC :1.75318: AVG IPC :0.73891: L2-Pf-HR :0.99981: L2-HR :0.79538: (Sim:0h14m53s) 
CPU  3 inst:   17000004 cyc:   21344395 now IPC :1.75386: AVG IPC :0.73685: L2-Pf-HR :0.99992: L2-HR :0.77863: (Sim:0h14m59s) 
CPU  0 inst:   17000004 cyc:   21362084 now IPC :1.75619: AVG IPC :0.73620: L2-Pf-HR :0.99979: L2-HR :0.76779: (Sim:0h15m1s) 
CPU  1 inst:   17000004 cyc:   21429711 now IPC :1.75777: AVG IPC :0.73374: L2-Pf-HR :0.99995: L2-HR :0.76400: (Sim:0h15m8s) 
CPU  2 inst:   18000003 cyc:   21856965 now IPC :1.75644: AVG IPC :0.76667: L2-Pf-HR :0.99983: L2-HR :0.80097: (Sim:0h15m53s) 
Finished CPU 2 instr: 16000005 cyc: 20869558 AVG IPC: 0.76667 (Sim time: 0h15m53s)
CPU  3 inst:   18000003 cyc:   21914347 now IPC :1.75453: AVG IPC :0.76457: L2-Pf-HR :0.99993: L2-HR :0.78607: (Sim:0h15m59s) 
Finished CPU 3 instr: 16000000 cyc: 20926792 AVG IPC: 0.76457 (Sim time: 0h15m59s)
CPU  0 inst:   18000003 cyc:   21931809 now IPC :1.75523: AVG IPC :0.76392: L2-Pf-HR :0.99981: L2-HR :0.76945: (Sim:0h16m1s) 
Finished CPU 0 instr: 16000004 cyc: 20944414 AVG IPC: 0.76393 (Sim time: 0h16m1s)
CPU  1 inst:   18000003 cyc:   21994632 now IPC :1.77016: AVG IPC :0.76161: L2-Pf-HR :0.99995: L2-HR :0.77037: (Sim:0h16m8s) 
Finished CPU 1 instr: 16000002 cyc: 21007559 AVG IPC: 0.76163 (Sim time: 0h16m8s)

ChampSim completed all CPUs

Total Simulation Statistics (not including warmup)

CPU 0 cumulative IPC: 0.76683 instructions: 16109141 cycles: 21007559
Core_0_L1D_total_access 5117197
Core_0_L1D_total_hit 4821109
Core_0_L1D_total_miss 296088
Core_0_L1D_loads 4547201
Core_0_L1D_load_hit 4284499
Core_0_L1D_load_miss 262702
Core_0_L1D_RFOs 560676
Core_0_L1D_RFO_hit 527290
Core_0_L1D_RFO_miss 33386
Core_0_L1D_prefetches 9320
Core_0_L1D_prefetch_hit 9320
Core_0_L1D_prefetch_miss 0
Core_0_L1D_writebacks 0
Core_0_L1D_writeback_hit 0
Core_0_L1D_writeback_miss 0

Core_0_L1I_total_access 2397220
Core_0_L1I_total_hit 2395408
Core_0_L1I_total_miss 1812
Core_0_L1I_loads 2397220
Core_0_L1I_load_hit 2395408
Core_0_L1I_load_miss 1812
Core_0_L1I_RFOs 0
Core_0_L1I_RFO_hit 0
Core_0_L1I_RFO_miss 0
Core_0_L1I_prefetches 0
Core_0_L1I_prefetch_hit 0
Core_0_L1I_prefetch_miss 0
Core_0_L1I_writebacks 0
Core_0_L1I_writeback_hit 0
Core_0_L1I_writeback_miss 0

Core_0_L2C_total_access 472977
Core_0_L2C_total_hit 363502
Core_0_L2C_total_miss 109475
Core_0_L2C_loads 264514
Core_0_L2C_load_hit 187941
Core_0_L2C_load_miss 76573
Core_0_L2C_RFOs 33386
Core_0_L2C_RFO_hit 500
Core_0_L2C_RFO_miss 32886
Core_0_L2C_prefetches 63561
Core_0_L2C_prefetch_hit 63549
Core_0_L2C_prefetch_miss 12
Core_0_L2C_writebacks 111516
Core_0_L2C_writeback_hit 111512
Core_0_L2C_writeback_miss 4

CPU 0 L1D next line prefetcher final stats
Prefetcher final stats
Training Unit Size: 4500
Addr table size: 317425 317425


Triggers: 368474
No Prediction: 317450 86.15262
Stream end: 2172
No translation: 1851787 502.55568
Predictions: 11 0.00299


Stream divergence: 14 0.00380
Stream divergence -- new stream: 0
Core_0_LLC_total_access 149126
Core_0_LLC_total_hit 66719
Core_0_LLC_total_miss 82407
Core_0_LLC_loads 76573
Core_0_LLC_load_hit 26972
Core_0_LLC_load_miss 49601
Core_0_LLC_RFOs 32886
Core_0_LLC_RFO_hit 90
Core_0_LLC_RFO_miss 32796
Core_0_LLC_prefetches 12
Core_0_LLC_prefetch_hit 12
Core_0_LLC_prefetch_miss 0
Core_0_LLC_writebacks 39655
Core_0_LLC_writeback_hit 39645
Core_0_LLC_writeback_miss 10


CPU 1 cumulative IPC: 0.76163 instructions: 16000002 cycles: 21007559
Core_1_L1D_total_access 5077291
Core_1_L1D_total_hit 4758311
Core_1_L1D_total_miss 318980
Core_1_L1D_loads 4508235
Core_1_L1D_load_hit 4222380
Core_1_L1D_load_miss 285855
Core_1_L1D_RFOs 561399
Core_1_L1D_RFO_hit 528274
Core_1_L1D_RFO_miss 33125
Core_1_L1D_prefetches 7657
Core_1_L1D_prefetch_hit 7657
Core_1_L1D_prefetch_miss 0
Core_1_L1D_writebacks 0
Core_1_L1D_writeback_hit 0
Core_1_L1D_writeback_miss 0

Core_1_L1I_total_access 2367217
Core_1_L1I_total_hit 2365354
Core_1_L1I_total_miss 1863
Core_1_L1I_loads 2367217
Core_1_L1I_load_hit 2365354
Core_1_L1I_load_miss 1863
Core_1_L1I_RFOs 0
Core_1_L1I_RFO_hit 0
Core_1_L1I_RFO_miss 0
Core_1_L1I_prefetches 0
Core_1_L1I_prefetch_hit 0
Core_1_L1I_prefetch_miss 0
Core_1_L1I_writebacks 0
Core_1_L1I_writeback_hit 0
Core_1_L1I_writeback_miss 0

Core_1_L2C_total_access 519301
Core_1_L2C_total_hit 400060
Core_1_L2C_total_miss 119241
Core_1_L2C_loads 287718
Core_1_L2C_load_hit 201309
Core_1_L2C_load_miss 86409
Core_1_L2C_RFOs 33125
Core_1_L2C_RFO_hit 301
Core_1_L2C_RFO_miss 32824
Core_1_L2C_prefetches 87911
Core_1_L2C_prefetch_hit 87907
Core_1_L2C_prefetch_miss 4
Core_1_L2C_writebacks 110547
Core_1_L2C_writeback_hit 110543
Core_1_L2C_writeback_miss 4

CPU 1 L1D next line prefetcher final stats
Prefetcher final stats
Training Unit Size: 4500
Addr table size: 317425 317425


Triggers: 368474
No Prediction: 317450 86.15262
Stream end: 2172
No translation: 1851787 502.55568
Predictions: 11 0.00299


Stream divergence: 14 0.00380
Stream divergence -- new stream: 0
Core_1_LLC_total_access 167696
Core_1_LLC_total_hit 85524
Core_1_LLC_total_miss 82172
Core_1_LLC_loads 86409
Core_1_LLC_load_hit 37035
Core_1_LLC_load_miss 49374
Core_1_LLC_RFOs 32824
Core_1_LLC_RFO_hit 28
Core_1_LLC_RFO_miss 32796
Core_1_LLC_prefetches 4
Core_1_LLC_prefetch_hit 4
Core_1_LLC_prefetch_miss 0
Core_1_LLC_writebacks 48459
Core_1_LLC_writeback_hit 48457
Core_1_LLC_writeback_miss 2


CPU 2 cumulative IPC: 0.77310 instructions: 16240884 cycles: 21007559
Core_2_L1D_total_access 5160475
Core_2_L1D_total_hit 4830713
Core_2_L1D_total_miss 329762
Core_2_L1D_loads 4592147
Core_2_L1D_load_hit 4295779
Core_2_L1D_load_miss 296368
Core_2_L1D_RFOs 561626
Core_2_L1D_RFO_hit 528232
Core_2_L1D_RFO_miss 33394
Core_2_L1D_prefetches 6702
Core_2_L1D_prefetch_hit 6702
Core_2_L1D_prefetch_miss 0
Core_2_L1D_writebacks 0
Core_2_L1D_writeback_hit 0
Core_2_L1D_writeback_miss 0

Core_2_L1I_total_access 2397150
Core_2_L1I_total_hit 2395291
Core_2_L1I_total_miss 1859
Core_2_L1I_loads 2397150
Core_2_L1I_load_hit 2395291
Core_2_L1I_load_miss 1859
Core_2_L1I_RFOs 0
Core_2_L1I_RFO_hit 0
Core_2_L1I_RFO_miss 0
Core_2_L1I_prefetches 0
Core_2_L1I_prefetch_hit 0
Core_2_L1I_prefetch_miss 0
Core_2_L1I_writebacks 0
Core_2_L1I_writeback_hit 0
Core_2_L1I_writeback_miss 0

Core_2_L2C_total_access 531879
Core_2_L2C_total_hit 426273
Core_2_L2C_total_miss 105606
Core_2_L2C_loads 298227
Core_2_L2C_load_hit 225509
Core_2_L2C_load_miss 72718
Core_2_L2C_RFOs 33394
Core_2_L2C_RFO_hit 526
Core_2_L2C_RFO_miss 32868
Core_2_L2C_prefetches 88879
Core_2_L2C_prefetch_hit 88864
Core_2_L2C_prefetch_miss 15
Core_2_L2C_writebacks 111379
Core_2_L2C_writeback_hit 111374
Core_2_L2C_writeback_miss 5

CPU 2 L1D next line prefetcher final stats
Prefetcher final stats
Training Unit Size: 4500
Addr table size: 317425 317425


Triggers: 368474
No Prediction: 317450 86.15262
Stream end: 2172
No translation: 1851787 502.55568
Predictions: 11 0.00299


Stream divergence: 14 0.00380
Stream divergence -- new stream: 0
Core_2_LLC_total_access 143591
Core_2_LLC_total_hit 60882
Core_2_LLC_total_miss 82709
Core_2_LLC_loads 72717
Core_2_LLC_load_hit 22807
Core_2_LLC_load_miss 49910
Core_2_LLC_RFOs 32868
Core_2_LLC_RFO_hit 72
Core_2_LLC_RFO_miss 32796
Core_2_LLC_prefetches 16
Core_2_LLC_prefetch_hit 16
Core_2_LLC_prefetch_miss 0
Core_2_LLC_writebacks 37990
Core_2_LLC_writeback_hit 37987
Core_2_LLC_writeback_miss 3


CPU 3 cumulative IPC: 0.76827 instructions: 16139454 cycles: 21007559
Core_3_L1D_total_access 5133194
Core_3_L1D_total_hit 4837227
Core_3_L1D_total_miss 295967
Core_3_L1D_loads 4562053
Core_3_L1D_load_hit 4299234
Core_3_L1D_load_miss 262819
Core_3_L1D_RFOs 561587
Core_3_L1D_RFO_hit 528439
Core_3_L1D_RFO_miss 33148
Core_3_L1D_prefetches 9554
Core_3_L1D_prefetch_hit 9554
Core_3_L1D_prefetch_miss 0
Core_3_L1D_writebacks 0
Core_3_L1D_writeback_hit 0
Core_3_L1D_writeback_miss 0

Core_3_L1I_total_access 2399965
Core_3_L1I_total_hit 2398121
Core_3_L1I_total_miss 1844
Core_3_L1I_loads 2399965
Core_3_L1I_load_hit 2398121
Core_3_L1I_load_miss 1844
Core_3_L1I_RFOs 0
Core_3_L1I_RFO_hit 0
Core_3_L1I_RFO_miss 0
Core_3_L1I_prefetches 0
Core_3_L1I_prefetch_hit 0
Core_3_L1I_prefetch_miss 0
Core_3_L1I_writebacks 0
Core_3_L1I_writeback_hit 0
Core_3_L1I_writeback_miss 0

Core_3_L2C_total_access 482592
Core_3_L2C_total_hit 379423
Core_3_L2C_total_miss 103169
Core_3_L2C_loads 264663
Core_3_L2C_load_hit 194368
Core_3_L2C_load_miss 70295
Core_3_L2C_RFOs 33148
Core_3_L2C_RFO_hit 280
Core_3_L2C_RFO_miss 32868
Core_3_L2C_prefetches 73662
Core_3_L2C_prefetch_hit 73657
Core_3_L2C_prefetch_miss 5
Core_3_L2C_writebacks 111119
Core_3_L2C_writeback_hit 111118
Core_3_L2C_writeback_miss 1

CPU 3 L1D next line prefetcher final stats
Prefetcher final stats
Training Unit Size: 4500
Addr table size: 317425 317425


Triggers: 368474
No Prediction: 317450 86.15262
Stream end: 2172
No translation: 1851787 502.55568
Predictions: 11 0.00299


Stream divergence: 14 0.00380
Stream divergence -- new stream: 0
Core_3_LLC_total_access 136493
Core_3_LLC_total_hit 53991
Core_3_LLC_total_miss 82502
Core_3_LLC_loads 70295
Core_3_LLC_load_hit 20603
Core_3_LLC_load_miss 49692
Core_3_LLC_RFOs 32868
Core_3_LLC_RFO_hit 72
Core_3_LLC_RFO_miss 32796
Core_3_LLC_prefetches 5
Core_3_LLC_prefetch_hit 5
Core_3_LLC_prefetch_miss 0
Core_3_LLC_writebacks 33325
Core_3_LLC_writeback_hit 33311
Core_3_LLC_writeback_miss 14


[ROI Statistics]
Core_0_instructions 16000004
Core_0_cycles 20944414
Core_0_IPC 0.76393

Core_0_branch_prediction_accuracy 98.24717
Core_0_branch_MPKI 0.62721
Core_0_average_ROB_occupancy_at_mispredict 315.84778

Core_0_L1D_total_access 5079358
Core_0_L1D_total_hit 4785441 L1D_total_Hit Ratio: 0.94214
Core_0_L1D_total_miss 293917
Core_0_L1D_loads 4509594
Core_0_L1D_load_hit 4249063 L1D_load_Hit Ratio: 0.94223
Core_0_L1D_load_miss 260531
Core_0_L1D_RFOs 560444
Core_0_L1D_RFO_hit 527058 L1D_RFO_Hit Ratio: 0.94043
Core_0_L1D_RFO_miss 33386
Core_0_L1D_prefetches 9320
Core_0_L1D_prefetch_hit 9320 L1D_prefetch_Hit Ratio: 1.00000
Core_0_L1D_prefetch_miss 0
Core_0_L1D_writebacks 0
Core_0_L1D_writeback_hit 0 L1D_writeback_Hit Ratio: -nan
Core_0_L1D_writeback_miss 0
Core_0_L1D_prefetch_requested 919653
Core_0_L1D_prefetch_issued 102424
Core_0_L1D_prefetch_useful 0 L1D_Useful Ratio: 0.00000
Core_0_L1D_prefetch_useless 0
Core_0_L1D_prefetch_late 0
Core_0_L1D_average_miss_latency 89.95697

Core_0_L1I_total_access 2386182
Core_0_L1I_total_hit 2384370 L1I_total_Hit Ratio: 0.99924
Core_0_L1I_total_miss 1812
Core_0_L1I_loads 2386182
Core_0_L1I_load_hit 2384370 L1I_load_Hit Ratio: 0.99924
Core_0_L1I_load_miss 1812
Core_0_L1I_RFOs 0
Core_0_L1I_RFO_hit 0 L1I_RFO_Hit Ratio: -nan
Core_0_L1I_RFO_miss 0
Core_0_L1I_prefetches 0
Core_0_L1I_prefetch_hit 0 L1I_prefetch_Hit Ratio: -nan
Core_0_L1I_prefetch_miss 0
Core_0_L1I_writebacks 0
Core_0_L1I_writeback_hit 0 L1I_writeback_Hit Ratio: -nan
Core_0_L1I_writeback_miss 0
Core_0_L1I_prefetch_requested 0
Core_0_L1I_prefetch_issued 0
Core_0_L1I_prefetch_useful 0 L1I_Useful Ratio: -nan
Core_0_L1I_prefetch_useless 0
Core_0_L1I_prefetch_late 0
Core_0_L1I_average_miss_latency 216.07947

Core_0_L2C_total_access 470327
Core_0_L2C_total_hit 361888 L2C_total_Hit Ratio: 0.76944
Core_0_L2C_total_miss 108439
Core_0_L2C_loads 262343
Core_0_L2C_load_hit 186806 L2C_load_Hit Ratio: 0.71207
Core_0_L2C_load_miss 75537
Core_0_L2C_RFOs 33386
Core_0_L2C_RFO_hit 500 L2C_RFO_Hit Ratio: 0.01498
Core_0_L2C_RFO_miss 32886
Core_0_L2C_prefetches 63213
Core_0_L2C_prefetch_hit 63201 L2C_prefetch_Hit Ratio: 0.99981
Core_0_L2C_prefetch_miss 12
Core_0_L2C_writebacks 111385
Core_0_L2C_writeback_hit 111381 L2C_writeback_Hit Ratio: 0.99996
Core_0_L2C_writeback_miss 4
Core_0_L2C_prefetch_requested 72519
Core_0_L2C_prefetch_issued 4
Core_0_L2C_prefetch_useful 10 L2C_Useful Ratio: 2.50000
Core_0_L2C_prefetch_useless 0
Core_0_L2C_prefetch_late 0
Core_0_L2C_average_miss_latency 194.52153

Core_0_LLC_total_access 147493
Core_0_LLC_total_hit 65313 LLC_total_Hit Ratio: 0.44282
Core_0_LLC_total_miss 82180
Core_0_LLC_loads 75537
Core_0_LLC_load_hit 26163 LLC_load_Hit Ratio: 0.34636
Core_0_LLC_load_miss 49374
Core_0_LLC_RFOs 32886
Core_0_LLC_RFO_hit 90 LLC_RFO_Hit Ratio: 0.00274
Core_0_LLC_RFO_miss 32796
Core_0_LLC_prefetches 12
Core_0_LLC_prefetch_hit 12 LLC_prefetch_Hit Ratio: 1.00000
Core_0_LLC_prefetch_miss 0
Core_0_LLC_writebacks 39058
Core_0_LLC_writeback_hit 39048 LLC_writeback_Hit Ratio: 0.99974
Core_0_LLC_writeback_miss 10
Core_0_LLC_prefetch_requested 0
Core_0_LLC_prefetch_issued 0
Core_0_LLC_prefetch_useful 0 LLC_Useful Ratio: -nan
Core_0_LLC_prefetch_useless 0
Core_0_LLC_prefetch_late 0
Core_0_LLC_average_miss_latency 807.12757

Core_0_major_page_fault 0
Core_0_minor_page_fault 2391

Core_1_instructions 16000002
Core_1_cycles 21007559
Core_1_IPC 0.76163

Core_1_branch_prediction_accuracy 98.24555
Core_1_branch_MPKI 0.63128
Core_1_average_ROB_occupancy_at_mispredict 315.79170

Core_1_L1D_total_access 5077291
Core_1_L1D_total_hit 4758311 L1D_total_Hit Ratio: 0.93718
Core_1_L1D_total_miss 318980
Core_1_L1D_loads 4508235
Core_1_L1D_load_hit 4222380 L1D_load_Hit Ratio: 0.93659
Core_1_L1D_load_miss 285855
Core_1_L1D_RFOs 561399
Core_1_L1D_RFO_hit 528274 L1D_RFO_Hit Ratio: 0.94100
Core_1_L1D_RFO_miss 33125
Core_1_L1D_prefetches 7657
Core_1_L1D_prefetch_hit 7657 L1D_prefetch_Hit Ratio: 1.00000
Core_1_L1D_prefetch_miss 0
Core_1_L1D_writebacks 0
Core_1_L1D_writeback_hit 0 L1D_writeback_Hit Ratio: -nan
Core_1_L1D_writeback_miss 0
Core_1_L1D_prefetch_requested 990784
Core_1_L1D_prefetch_issued 132759
Core_1_L1D_prefetch_useful 0 L1D_Useful Ratio: 0.00000
Core_1_L1D_prefetch_useless 0
Core_1_L1D_prefetch_late 0
Core_1_L1D_average_miss_latency 84.31241

Core_1_L1I_total_access 2367217
Core_1_L1I_total_hit 2365354 L1I_total_Hit Ratio: 0.99921
Core_1_L1I_total_miss 1863
Core_1_L1I_loads 2367217
Core_1_L1I_load_hit 2365354 L1I_load_Hit Ratio: 0.99921
Core_1_L1I_load_miss 1863
Core_1_L1I_RFOs 0
Core_1_L1I_RFO_hit 0 L1I_RFO_Hit Ratio: -nan
Core_1_L1I_RFO_miss 0
Core_1_L1I_prefetches 0
Core_1_L1I_prefetch_hit 0 L1I_prefetch_Hit Ratio: -nan
Core_1_L1I_prefetch_miss 0
Core_1_L1I_writebacks 0
Core_1_L1I_writeback_hit 0 L1I_writeback_Hit Ratio: -nan
Core_1_L1I_writeback_miss 0
Core_1_L1I_prefetch_requested 0
Core_1_L1I_prefetch_issued 0
Core_1_L1I_prefetch_useful 0 L1I_Useful Ratio: -nan
Core_1_L1I_prefetch_useless 0
Core_1_L1I_prefetch_late 0
Core_1_L1I_average_miss_latency 211.76704

Core_1_L2C_total_access 519301
Core_1_L2C_total_hit 400060 L2C_total_Hit Ratio: 0.77038
Core_1_L2C_total_miss 119241
Core_1_L2C_loads 287718
Core_1_L2C_load_hit 201309 L2C_load_Hit Ratio: 0.69967
Core_1_L2C_load_miss 86409
Core_1_L2C_RFOs 33125
Core_1_L2C_RFO_hit 301 L2C_RFO_Hit Ratio: 0.00909
Core_1_L2C_RFO_miss 32824
Core_1_L2C_prefetches 87911
Core_1_L2C_prefetch_hit 87907 L2C_prefetch_Hit Ratio: 0.99995
Core_1_L2C_prefetch_miss 4
Core_1_L2C_writebacks 110547
Core_1_L2C_writeback_hit 110543 L2C_writeback_Hit Ratio: 0.99996
Core_1_L2C_writeback_miss 4
Core_1_L2C_prefetch_requested 181704
Core_1_L2C_prefetch_issued 1
Core_1_L2C_prefetch_useful 3 L2C_Useful Ratio: 3.00000
Core_1_L2C_prefetch_useless 0
Core_1_L2C_prefetch_late 0
Core_1_L2C_average_miss_latency 177.00847

Core_1_LLC_total_access 167696
Core_1_LLC_total_hit 85524 LLC_total_Hit Ratio: 0.50999
Core_1_LLC_total_miss 82172
Core_1_LLC_loads 86409
Core_1_LLC_load_hit 37035 LLC_load_Hit Ratio: 0.42860
Core_1_LLC_load_miss 49374
Core_1_LLC_RFOs 32824
Core_1_LLC_RFO_hit 28 LLC_RFO_Hit Ratio: 0.00085
Core_1_LLC_RFO_miss 32796
Core_1_LLC_prefetches 4
Core_1_LLC_prefetch_hit 4 LLC_prefetch_Hit Ratio: 1.00000
Core_1_LLC_prefetch_miss 0
Core_1_LLC_writebacks 48459
Core_1_LLC_writeback_hit 48457 LLC_writeback_Hit Ratio: 0.99996
Core_1_LLC_writeback_miss 2
Core_1_LLC_prefetch_requested 0
Core_1_LLC_prefetch_issued 0
Core_1_LLC_prefetch_useful 0 LLC_Useful Ratio: -nan
Core_1_LLC_prefetch_useless 0
Core_1_LLC_prefetch_late 0
Core_1_LLC_average_miss_latency 807.20615

Core_1_major_page_fault 0
Core_1_minor_page_fault 2382

Core_2_instructions 16000005
Core_2_cycles 20869558
Core_2_IPC 0.76667

Core_2_branch_prediction_accuracy 98.24891
Core_2_branch_MPKI 0.62244
Core_2_average_ROB_occupancy_at_mispredict 315.94431

Core_2_L1D_total_access 5076106
Core_2_L1D_total_hit 4751204 L1D_total_Hit Ratio: 0.93599
Core_2_L1D_total_miss 324902
Core_2_L1D_loads 4508470
Core_2_L1D_load_hit 4216962 L1D_load_Hit Ratio: 0.93534
Core_2_L1D_load_miss 291508
Core_2_L1D_RFOs 561112
Core_2_L1D_RFO_hit 527718 L1D_RFO_Hit Ratio: 0.94049
Core_2_L1D_RFO_miss 33394
Core_2_L1D_prefetches 6524
Core_2_L1D_prefetch_hit 6524 L1D_prefetch_Hit Ratio: 1.00000
Core_2_L1D_prefetch_miss 0
Core_2_L1D_writebacks 0
Core_2_L1D_writeback_hit 0 L1D_writeback_Hit Ratio: -nan
Core_2_L1D_writeback_miss 0
Core_2_L1D_prefetch_requested 981938
Core_2_L1D_prefetch_issued 132577
Core_2_L1D_prefetch_useful 0 L1D_Useful Ratio: 0.00000
Core_2_L1D_prefetch_useless 0
Core_2_L1D_prefetch_late 0
Core_2_L1D_average_miss_latency 82.54162

Core_2_L1I_total_access 2372907
Core_2_L1I_total_hit 2371048 L1I_total_Hit Ratio: 0.99922
Core_2_L1I_total_miss 1859
Core_2_L1I_loads 2372907
Core_2_L1I_load_hit 2371048 L1I_load_Hit Ratio: 0.99922
Core_2_L1I_load_miss 1859
Core_2_L1I_RFOs 0
Core_2_L1I_RFO_hit 0 L1I_RFO_Hit Ratio: -nan
Core_2_L1I_RFO_miss 0
Core_2_L1I_prefetches 0
Core_2_L1I_prefetch_hit 0 L1I_prefetch_Hit Ratio: -nan
Core_2_L1I_prefetch_miss 0
Core_2_L1I_writebacks 0
Core_2_L1I_writeback_hit 0 L1I_writeback_Hit Ratio: -nan
Core_2_L1I_writeback_miss 0
Core_2_L1I_prefetch_requested 0
Core_2_L1I_prefetch_issued 0
Core_2_L1I_prefetch_useful 0 L1I_Useful Ratio: -nan
Core_2_L1I_prefetch_useless 0
Core_2_L1I_prefetch_late 0
Core_2_L1I_average_miss_latency 207.88004

Core_2_L2C_total_access 524735
Core_2_L2C_total_hit 420293 L2C_total_Hit Ratio: 0.80096
Core_2_L2C_total_miss 104442
Core_2_L2C_loads 293367
Core_2_L2C_load_hit 221813 L2C_load_Hit Ratio: 0.75609
Core_2_L2C_load_miss 71554
Core_2_L2C_RFOs 33394
Core_2_L2C_RFO_hit 526 L2C_RFO_Hit Ratio: 0.01575
Core_2_L2C_RFO_miss 32868
Core_2_L2C_prefetches 86827
Core_2_L2C_prefetch_hit 86812 L2C_prefetch_Hit Ratio: 0.99983
Core_2_L2C_prefetch_miss 15
Core_2_L2C_writebacks 111147
Core_2_L2C_writeback_hit 111142 L2C_writeback_Hit Ratio: 0.99996
Core_2_L2C_writeback_miss 5
Core_2_L2C_prefetch_requested 65025
Core_2_L2C_prefetch_issued 4
Core_2_L2C_prefetch_useful 14 L2C_Useful Ratio: 3.50000
Core_2_L2C_prefetch_useless 1
Core_2_L2C_prefetch_late 1
Core_2_L2C_average_miss_latency 199.32118

Core_2_LLC_total_access 141948
Core_2_LLC_total_hit 59776 LLC_total_Hit Ratio: 0.42111
Core_2_LLC_total_miss 82172
Core_2_LLC_loads 71553
Core_2_LLC_load_hit 22179 LLC_load_Hit Ratio: 0.30997
Core_2_LLC_load_miss 49374
Core_2_LLC_RFOs 32868
Core_2_LLC_RFO_hit 72 LLC_RFO_Hit Ratio: 0.00219
Core_2_LLC_RFO_miss 32796
Core_2_LLC_prefetches 16
Core_2_LLC_prefetch_hit 16 LLC_prefetch_Hit Ratio: 1.00000
Core_2_LLC_prefetch_miss 0
Core_2_LLC_writebacks 37511
Core_2_LLC_writeback_hit 37509 LLC_writeback_Hit Ratio: 0.99995
Core_2_LLC_writeback_miss 2
Core_2_LLC_prefetch_requested 0
Core_2_LLC_prefetch_issued 0
Core_2_LLC_prefetch_useful 0 LLC_Useful Ratio: -nan
Core_2_LLC_prefetch_useless 0
Core_2_LLC_prefetch_late 0
Core_2_LLC_average_miss_latency 807.20615

Core_2_major_page_fault 0
Core_2_minor_page_fault 2391

Core_3_instructions 16000000
Core_3_cycles 20926792
Core_3_IPC 0.76457

Core_3_branch_prediction_accuracy 98.24745
Core_3_branch_MPKI 0.62617
Core_3_average_ROB_occupancy_at_mispredict 315.79606

Core_3_L1D_total_access 5084405
Core_3_L1D_total_hit 4791314 L1D_total_Hit Ratio: 0.94235
Core_3_L1D_total_miss 293091
Core_3_L1D_loads 4513708
Core_3_L1D_load_hit 4253765 L1D_load_Hit Ratio: 0.94241
Core_3_L1D_load_miss 259943
Core_3_L1D_RFOs 561292
Core_3_L1D_RFO_hit 528144 L1D_RFO_Hit Ratio: 0.94094
Core_3_L1D_RFO_miss 33148
Core_3_L1D_prefetches 9405
Core_3_L1D_prefetch_hit 9405 L1D_prefetch_Hit Ratio: 1.00000
Core_3_L1D_prefetch_miss 0
Core_3_L1D_writebacks 0
Core_3_L1D_writeback_hit 0 L1D_writeback_Hit Ratio: -nan
Core_3_L1D_writeback_miss 0
Core_3_L1D_prefetch_requested 952273
Core_3_L1D_prefetch_issued 115487
Core_3_L1D_prefetch_useful 0 L1D_Useful Ratio: 0.00000
Core_3_L1D_prefetch_useless 0
Core_3_L1D_prefetch_late 0
Core_3_L1D_average_miss_latency 89.39923

Core_3_L1I_total_access 2385896
Core_3_L1I_total_hit 2384052 L1I_total_Hit Ratio: 0.99923
Core_3_L1I_total_miss 1844
Core_3_L1I_loads 2385896
Core_3_L1I_load_hit 2384052 L1I_load_Hit Ratio: 0.99923
Core_3_L1I_load_miss 1844
Core_3_L1I_RFOs 0
Core_3_L1I_RFO_hit 0 L1I_RFO_Hit Ratio: -nan
Core_3_L1I_RFO_miss 0
Core_3_L1I_prefetches 0
Core_3_L1I_prefetch_hit 0 L1I_prefetch_Hit Ratio: -nan
Core_3_L1I_prefetch_miss 0
Core_3_L1I_writebacks 0
Core_3_L1I_writeback_hit 0 L1I_writeback_Hit Ratio: -nan
Core_3_L1I_writeback_miss 0
Core_3_L1I_prefetch_requested 0
Core_3_L1I_prefetch_issued 0
Core_3_L1I_prefetch_useful 0 L1I_Useful Ratio: -nan
Core_3_L1I_prefetch_useless 0
Core_3_L1I_prefetch_late 0
Core_3_L1I_average_miss_latency 212.40347

Core_3_L2C_total_access 478206
Core_3_L2C_total_hit 375904 L2C_total_Hit Ratio: 0.78607
Core_3_L2C_total_miss 102302
Core_3_L2C_loads 261787
Core_3_L2C_load_hit 192359 L2C_load_Hit Ratio: 0.73479
Core_3_L2C_load_miss 69428
Core_3_L2C_RFOs 33148
Core_3_L2C_RFO_hit 280 L2C_RFO_Hit Ratio: 0.00845
Core_3_L2C_RFO_miss 32868
Core_3_L2C_prefetches 72259
Core_3_L2C_prefetch_hit 72254 L2C_prefetch_Hit Ratio: 0.99993
Core_3_L2C_prefetch_miss 5
Core_3_L2C_writebacks 111012
Core_3_L2C_writeback_hit 111011 L2C_writeback_Hit Ratio: 0.99999
Core_3_L2C_writeback_miss 1
Core_3_L2C_prefetch_requested 76547
Core_3_L2C_prefetch_issued 2
Core_3_L2C_prefetch_useful 5 L2C_Useful Ratio: 2.50000
Core_3_L2C_prefetch_useless 0
Core_3_L2C_prefetch_late 0
Core_3_L2C_average_miss_latency 203.87548

Core_3_LLC_total_access 135083
Core_3_LLC_total_hit 52891 LLC_total_Hit Ratio: 0.39154
Core_3_LLC_total_miss 82192
Core_3_LLC_loads 69428
Core_3_LLC_load_hit 20046 LLC_load_Hit Ratio: 0.28873
Core_3_LLC_load_miss 49382
Core_3_LLC_RFOs 32868
Core_3_LLC_RFO_hit 72 LLC_RFO_Hit Ratio: 0.00219
Core_3_LLC_RFO_miss 32796
Core_3_LLC_prefetches 5
Core_3_LLC_prefetch_hit 5 LLC_prefetch_Hit Ratio: 1.00000
Core_3_LLC_prefetch_miss 0
Core_3_LLC_writebacks 32782
Core_3_LLC_writeback_hit 32768 LLC_writeback_Hit Ratio: 0.99957
Core_3_LLC_writeback_miss 14
Core_3_LLC_prefetch_requested 0
Core_3_LLC_prefetch_issued 0
Core_3_LLC_prefetch_useful 0 LLC_Useful Ratio: -nan
Core_3_LLC_prefetch_useless 0
Core_3_LLC_prefetch_late 0
Core_3_LLC_average_miss_latency 807.00973

Core_3_major_page_fault 0
Core_3_minor_page_fault 2391

CPU 0 L1D next line prefetcher final stats
Prefetcher final stats
Training Unit Size: 4500
Addr table size: 317425 317425


Triggers: 368474
No Prediction: 317450 86.15262
Stream end: 2172
No translation: 1851787 502.55568
Predictions: 11 0.00299


Stream divergence: 14 0.00380
Stream divergence -- new stream: 0
CPU 1 L1D next line prefetcher final stats
Prefetcher final stats
Training Unit Size: 4500
Addr table size: 317425 317425


Triggers: 368474
No Prediction: 317450 86.15262
Stream end: 2172
No translation: 1851787 502.55568
Predictions: 11 0.00299


Stream divergence: 14 0.00380
Stream divergence -- new stream: 0
CPU 2 L1D next line prefetcher final stats
Prefetcher final stats
Training Unit Size: 4500
Addr table size: 317425 317425


Triggers: 368474
No Prediction: 317450 86.15262
Stream end: 2172
No translation: 1851787 502.55568
Predictions: 11 0.00299


Stream divergence: 14 0.00380
Stream divergence -- new stream: 0
CPU 3 L1D next line prefetcher final stats
Prefetcher final stats
Training Unit Size: 4500
Addr table size: 317425 317425


Triggers: 368474
No Prediction: 317450 86.15262
Stream end: 2172
No translation: 1851787 502.55568
Predictions: 11 0.00299


Stream divergence: 14 0.00380
Stream divergence -- new stream: 0
Channel_0_RQ_row_buffer_hit 288817
Channel_0_RQ_row_buffer_miss 40945
Channel_0_WQ_row_buffer_hit 39
Channel_0_WQ_row_buffer_miss 159
Channel_0_WQ_full 0
Channel_0_dbus_congested 49967

avg_congested_cycle 7

EzSearch AVG IPC :0.76393: L2-Pf-HR :0.99981 : L2-HR :0.76854 Uful:2.50000
EzSearch AVG IPC :0.76163: L2-Pf-HR :0.99995 : L2-HR :0.77038 Uful:3.00000
EzSearch AVG IPC :0.76667: L2-Pf-HR :0.99983 : L2-HR :0.80145 Uful:3.50000
EzSearch AVG IPC :0.76457: L2-Pf-HR :0.99993 : L2-HR :0.78622 Uful:2.50000
     > Finished combination: TraceType=770-tot Sim:16000000 Prefetcher=L2isb_ideal L1=isb_ideal
