TRACE: [662000000][OPT-350M]_[h16][s1024][d64] Warmup: 2000000 NumTraces: 662000000
L1:berti_concurso:L2:berti_concurso
*************************************************
   ChampSim Multicore Out-of-Order Simulator
   Last compiled: Oct 29 2024 05:04:06
*************************************************

trace_0 770-tot_memTraces_v3/memTraces[662000000][OPT-350M]_[h16][s1024][d64].champsim.xz
trace_1 770-tot_memTraces_v3/memTraces[662000000][OPT-350M]_[h16][s1024][d64].champsim.xz
trace_2 770-tot_memTraces_v3/memTraces[662000000][OPT-350M]_[h16][s1024][d64].champsim.xz
trace_3 770-tot_memTraces_v3/memTraces[662000000][OPT-350M]_[h16][s1024][d64].champsim.xz
CPU 0 L1D Berti prefetcher
CPU 0 L2C Berti prefetcher
CPU 1 L1D Berti prefetcher
CPU 1 L2C Berti prefetcher
CPU 2 L1D Berti prefetcher
CPU 2 L2C Berti prefetcher
CPU 3 L1D Berti prefetcher
CPU 3 L2C Berti prefetcher
MAIN.cc ln 751 stats print skipped
CPU  0 inst:    1000001 cyc:     497663 now IPC :2.00939: AVG IPC :2.00939: L2-Pf-HR :0.74792: L2-HR :0.69626: (Sim:0h0m48s) 
CPU  1 inst:    1000001 cyc:     497714 now IPC :2.00919: AVG IPC :2.00919: L2-Pf-HR :0.70224: L2-HR :0.66284: (Sim:0h0m48s) 
CPU  3 inst:    1000001 cyc:     498087 now IPC :2.00768: AVG IPC :2.00768: L2-Pf-HR :0.64657: L2-HR :0.63022: (Sim:0h0m48s) 
CPU  2 inst:    1000001 cyc:     498133 now IPC :2.00750: AVG IPC :2.00750: L2-Pf-HR :0.72244: L2-HR :0.67840: (Sim:0h0m48s) 
CPU  0 inst:    2000000 cyc:     979618 now IPC :2.07488: AVG IPC :2.04161: L2-Pf-HR :0.81217: L2-HR :0.76957: (Sim:0h1m38s) 
CPU  1 inst:    2000000 cyc:     979619 now IPC :2.07510: AVG IPC :2.04161: L2-Pf-HR :0.77526: L2-HR :0.74171: (Sim:0h1m38s) 
CPU  3 inst:    2000000 cyc:     980022 now IPC :2.07497: AVG IPC :2.04077: L2-Pf-HR :0.69579: L2-HR :0.69063: (Sim:0h1m38s) 
CPU  2 inst:    2000000 cyc:     980051 now IPC :2.07504: AVG IPC :2.04071: L2-Pf-HR :0.77834: L2-HR :0.74408: (Sim:0h1m38s) 

Warmup complete CPU  0 instructions:    2000912 cycles:     980052 (Simulation time: 0 hr 1 min 38 sec) 
Warmup complete CPU  1 instructions:    2000912 cycles:     980052 (Simulation time: 0 hr 1 min 38 sec) 
Warmup complete CPU  2 instructions:    2000001 cycles:     980052 (Simulation time: 0 hr 1 min 38 sec) 
Warmup complete CPU  3 instructions:    2000083 cycles:     980051 (Simulation time: 0 hr 1 min 38 sec) 

CPU  0 inst:    3000005 cyc:    1833390 now IPC :1.17128: AVG IPC :1.17081: L2-Pf-HR :0.94735: L2-HR :0.85391: (Sim:0h2m19s) 
CPU  3 inst:    3000005 cyc:    1833694 now IPC :1.17142: AVG IPC :1.17136: L2-Pf-HR :0.91990: L2-HR :0.81081: (Sim:0h2m19s) 
CPU  1 inst:    3000000 cyc:    1845680 now IPC :1.15465: AVG IPC :1.15418: L2-Pf-HR :0.92448: L2-HR :0.81803: (Sim:0h2m20s) 
CPU  2 inst:    3000000 cyc:    1845884 now IPC :1.15496: AVG IPC :1.15496: L2-Pf-HR :0.92534: L2-HR :0.81376: (Sim:0h2m20s) 
CPU  0 inst:    4000002 cyc:    2683372 now IPC :1.17649: AVG IPC :1.17364: L2-Pf-HR :0.94999: L2-HR :0.84946: (Sim:0h2m50s) 
CPU  3 inst:    4000002 cyc:    2683676 now IPC :1.17649: AVG IPC :1.17392: L2-Pf-HR :0.92741: L2-HR :0.81447: (Sim:0h2m50s) 
CPU  1 inst:    4000002 cyc:    2702385 now IPC :1.16727: AVG IPC :1.16069: L2-Pf-HR :0.91155: L2-HR :0.79155: (Sim:0h2m51s) 
CPU  2 inst:    4000002 cyc:    2702589 now IPC :1.16727: AVG IPC :1.16108: L2-Pf-HR :0.93197: L2-HR :0.81437: (Sim:0h2m51s) 
CPU  0 inst:    5000005 cyc:    3514850 now IPC :1.20268: AVG IPC :1.18317: L2-Pf-HR :0.95023: L2-HR :0.85018: (Sim:0h3m21s) 
CPU  3 inst:    5000005 cyc:    3518194 now IPC :1.19830: AVG IPC :1.18194: L2-Pf-HR :0.93083: L2-HR :0.81874: (Sim:0h3m21s) 
CPU  1 inst:    5000005 cyc:    3546492 now IPC :1.18469: AVG IPC :1.16858: L2-Pf-HR :0.90808: L2-HR :0.78381: (Sim:0h3m22s) 
CPU  2 inst:    5000005 cyc:    3546796 now IPC :1.18455: AVG IPC :1.16880: L2-Pf-HR :0.93589: L2-HR :0.81911: (Sim:0h3m22s) 
CPU  0 inst:    6000004 cyc:    4361394 now IPC :1.18127: AVG IPC :1.18269: L2-Pf-HR :0.94922: L2-HR :0.84734: (Sim:0h3m52s) 
CPU  3 inst:    6000004 cyc:    4371626 now IPC :1.17174: AVG IPC :1.17937: L2-Pf-HR :0.93614: L2-HR :0.82503: (Sim:0h3m53s) 
CPU  1 inst:    6000004 cyc:    4402834 now IPC :1.16776: AVG IPC :1.16837: L2-Pf-HR :0.91444: L2-HR :0.78970: (Sim:0h3m54s) 
CPU  2 inst:    6000004 cyc:    4403138 now IPC :1.16776: AVG IPC :1.16854: L2-Pf-HR :0.93352: L2-HR :0.81375: (Sim:0h3m54s) 
CPU  0 inst:    7000001 cyc:    5247426 now IPC :1.12862: AVG IPC :1.17147: L2-Pf-HR :0.95052: L2-HR :0.84553: (Sim:0h4m23s) 
CPU  3 inst:    7000001 cyc:    5269441 now IPC :1.11381: AVG IPC :1.16565: L2-Pf-HR :0.93692: L2-HR :0.82294: (Sim:0h4m24s) 
CPU  1 inst:    7000001 cyc:    5282009 now IPC :1.13743: AVG IPC :1.16205: L2-Pf-HR :0.91993: L2-HR :0.79404: (Sim:0h4m24s) 
CPU  2 inst:    7000001 cyc:    5285561 now IPC :1.13324: AVG IPC :1.16130: L2-Pf-HR :0.93928: L2-HR :0.81690: (Sim:0h4m24s) 
CPU  0 inst:    8000001 cyc:    6007108 now IPC :1.31634: AVG IPC :1.19336: L2-Pf-HR :0.95604: L2-HR :0.84913: (Sim:0h4m52s) 
CPU  3 inst:    8000001 cyc:    6064069 now IPC :1.25845: AVG IPC :1.18015: L2-Pf-HR :0.94066: L2-HR :0.81914: (Sim:0h4m54s) 
CPU  1 inst:    8000001 cyc:    6070483 now IPC :1.26827: AVG IPC :1.17850: L2-Pf-HR :0.93230: L2-HR :0.80263: (Sim:0h4m54s) 
CPU  2 inst:    8000001 cyc:    6071848 now IPC :1.27180: AVG IPC :1.17837: L2-Pf-HR :0.94735: L2-HR :0.82149: (Sim:0h4m54s) 
CPU  0 inst:    9000003 cyc:    6708324 now IPC :1.42610: AVG IPC :1.22185: L2-Pf-HR :0.95998: L2-HR :0.85226: (Sim:0h5m19s) 
CPU  3 inst:    9000003 cyc:    6811136 now IPC :1.33857: AVG IPC :1.20045: L2-Pf-HR :0.94584: L2-HR :0.82051: (Sim:0h5m24s) 
CPU  1 inst:    9000003 cyc:    6819323 now IPC :1.33540: AVG IPC :1.19862: L2-Pf-HR :0.94050: L2-HR :0.80822: (Sim:0h5m24s) 
CPU  2 inst:    9000003 cyc:    6820131 now IPC :1.33640: AVG IPC :1.19861: L2-Pf-HR :0.95236: L2-HR :0.82380: (Sim:0h5m24s) 
CPU  0 inst:   10000000 cyc:    7346868 now IPC :1.56606: AVG IPC :1.25637: L2-Pf-HR :0.96324: L2-HR :0.85408: (Sim:0h5m49s) 
CPU  3 inst:   10000000 cyc:    7517104 now IPC :1.41649: AVG IPC :1.22378: L2-Pf-HR :0.95151: L2-HR :0.82432: (Sim:0h5m57s) 
CPU  2 inst:   10000000 cyc:    7532067 now IPC :1.40462: AVG IPC :1.22100: L2-Pf-HR :0.95678: L2-HR :0.82619: (Sim:0h5m58s) 
CPU  1 inst:   10000000 cyc:    7532571 now IPC :1.40203: AVG IPC :1.22077: L2-Pf-HR :0.94425: L2-HR :0.80726: (Sim:0h5m58s) 
CPU  0 inst:   11000005 cyc:    7982841 now IPC :1.57240: AVG IPC :1.28507: L2-Pf-HR :0.96624: L2-HR :0.85687: (Sim:0h6m17s) 
CPU  3 inst:   11000005 cyc:    8211899 now IPC :1.43928: AVG IPC :1.24448: L2-Pf-HR :0.95586: L2-HR :0.82791: (Sim:0h6m27s) 
CPU  2 inst:   11000005 cyc:    8232686 now IPC :1.42732: AVG IPC :1.24093: L2-Pf-HR :0.96063: L2-HR :0.82982: (Sim:0h6m28s) 
CPU  1 inst:   11000005 cyc:    8234493 now IPC :1.42467: AVG IPC :1.24049: L2-Pf-HR :0.94710: L2-HR :0.80678: (Sim:0h6m28s) 
CPU  0 inst:   12000002 cyc:    8618791 now IPC :1.57245: AVG IPC :1.30900: L2-Pf-HR :0.96795: L2-HR :0.85731: (Sim:0h6m44s) 
CPU  3 inst:   12000002 cyc:    8920691 now IPC :1.41085: AVG IPC :1.25933: L2-Pf-HR :0.96026: L2-HR :0.83168: (Sim:0h6m57s) 
CPU  2 inst:   12000002 cyc:    8957465 now IPC :1.37973: AVG IPC :1.25354: L2-Pf-HR :0.96309: L2-HR :0.83016: (Sim:0h6m58s) 
CPU  1 inst:   12000002 cyc:    8959237 now IPC :1.37979: AVG IPC :1.25315: L2-Pf-HR :0.95206: L2-HR :0.80999: (Sim:0h6m58s) 
CPU  0 inst:   13000004 cyc:    9371837 now IPC :1.32794: AVG IPC :1.31070: L2-Pf-HR :0.96728: L2-HR :0.85522: (Sim:0h7m13s) 
CPU  3 inst:   13000004 cyc:    9735003 now IPC :1.22803: AVG IPC :1.25642: L2-Pf-HR :0.95975: L2-HR :0.83091: (Sim:0h7m28s) 
CPU  1 inst:   13000004 cyc:    9763482 now IPC :1.24340: AVG IPC :1.25225: L2-Pf-HR :0.95373: L2-HR :0.81130: (Sim:0h7m29s) 
CPU  2 inst:   13000004 cyc:    9763787 now IPC :1.24020: AVG IPC :1.25232: L2-Pf-HR :0.96339: L2-HR :0.83072: (Sim:0h7m29s) 
CPU  0 inst:   14000005 cyc:   10093923 now IPC :1.38488: AVG IPC :1.31657: L2-Pf-HR :0.96797: L2-HR :0.85284: (Sim:0h7m43s) 
CPU  3 inst:   14000000 cyc:   10473272 now IPC :1.35451: AVG IPC :1.26405: L2-Pf-HR :0.95909: L2-HR :0.82479: (Sim:0h7m59s) 
CPU  1 inst:   14000000 cyc:   10495973 now IPC :1.36520: AVG IPC :1.26095: L2-Pf-HR :0.95581: L2-HR :0.81133: (Sim:0h7m59s) 
CPU  2 inst:   14000000 cyc:   10496277 now IPC :1.36520: AVG IPC :1.26100: L2-Pf-HR :0.96539: L2-HR :0.83158: (Sim:0h7m59s) 
CPU  0 inst:   15000005 cyc:   10795633 now IPC :1.42509: AVG IPC :1.32433: L2-Pf-HR :0.96870: L2-HR :0.85132: (Sim:0h8m12s) 
CPU  3 inst:   15000005 cyc:   11201029 now IPC :1.37409: AVG IPC :1.27189: L2-Pf-HR :0.95932: L2-HR :0.82104: (Sim:0h8m35s) 
CPU  1 inst:   15000005 cyc:   11214340 now IPC :1.39205: AVG IPC :1.27015: L2-Pf-HR :0.95775: L2-HR :0.81210: (Sim:0h8m36s) 
CPU  2 inst:   15000005 cyc:   11214649 now IPC :1.39204: AVG IPC :1.27020: L2-Pf-HR :0.96712: L2-HR :0.83294: (Sim:0h8m36s) 
CPU  0 inst:   16000000 cyc:   11455074 now IPC :1.51643: AVG IPC :1.33643: L2-Pf-HR :0.96937: L2-HR :0.84977: (Sim:0h8m53s) 
CPU  3 inst:   16000000 cyc:   11933856 now IPC :1.36457: AVG IPC :1.27809: L2-Pf-HR :0.95918: L2-HR :0.81691: (Sim:0h9m23s) 
CPU  2 inst:   16000000 cyc:   11956879 now IPC :1.34728: AVG IPC :1.27541: L2-Pf-HR :0.96853: L2-HR :0.83349: (Sim:0h9m24s) 
CPU  1 inst:   16000000 cyc:   11957083 now IPC :1.34635: AVG IPC :1.27531: L2-Pf-HR :0.95948: L2-HR :0.81240: (Sim:0h9m24s) 
CPU  0 inst:   17000005 cyc:   12249609 now IPC :1.25860: AVG IPC :1.33094: L2-Pf-HR :0.96744: L2-HR :0.84733: (Sim:0h9m41s) 
CPU  3 inst:   17000005 cyc:   12836659 now IPC :1.10767: AVG IPC :1.26511: L2-Pf-HR :0.95701: L2-HR :0.81387: (Sim:0h10m14s) 
CPU  2 inst:   17000005 cyc:   12891079 now IPC :1.07044: AVG IPC :1.25934: L2-Pf-HR :0.96644: L2-HR :0.83152: (Sim:0h10m17s) 
CPU  1 inst:   17000005 cyc:   12892191 now IPC :1.06940: AVG IPC :1.25914: L2-Pf-HR :0.95750: L2-HR :0.81110: (Sim:0h10m17s) 
CPU  0 inst:   18000000 cyc:   13126971 now IPC :1.13977: AVG IPC :1.31713: L2-Pf-HR :0.96792: L2-HR :0.84841: (Sim:0h10m31s) 
CPU  3 inst:   18000000 cyc:   13603331 now IPC :1.30433: AVG IPC :1.26749: L2-Pf-HR :0.95641: L2-HR :0.81241: (Sim:0h11m1s) 
CPU  1 inst:   18000000 cyc:   13696639 now IPC :1.24308: AVG IPC :1.25813: L2-Pf-HR :0.95863: L2-HR :0.81349: (Sim:0h11m7s) 
CPU  2 inst:   18000000 cyc:   13696799 now IPC :1.24112: AVG IPC :1.25818: L2-Pf-HR :0.96714: L2-HR :0.83291: (Sim:0h11m7s) 
CPU  0 inst:   19000002 cyc:   13897899 now IPC :1.29714: AVG IPC :1.31594: L2-Pf-HR :0.96885: L2-HR :0.84956: (Sim:0h11m20s) 
CPU  3 inst:   19000002 cyc:   14272640 now IPC :1.49408: AVG IPC :1.27890: L2-Pf-HR :0.95714: L2-HR :0.81250: (Sim:0h11m46s) 
CPU  1 inst:   19000002 cyc:   14425681 now IPC :1.37167: AVG IPC :1.26428: L2-Pf-HR :0.95961: L2-HR :0.81506: (Sim:0h11m56s) 
CPU  2 inst:   19000002 cyc:   14426389 now IPC :1.37064: AVG IPC :1.26428: L2-Pf-HR :0.96744: L2-HR :0.83277: (Sim:0h11m56s) 
CPU  0 inst:   20000001 cyc:   14634058 now IPC :1.35840: AVG IPC :1.31823: L2-Pf-HR :0.96964: L2-HR :0.85066: (Sim:0h12m10s) 
CPU  3 inst:   20000001 cyc:   14940219 now IPC :1.49795: AVG IPC :1.28938: L2-Pf-HR :0.95840: L2-HR :0.81506: (Sim:0h12m31s) 
CPU  1 inst:   20000001 cyc:   15151683 now IPC :1.37741: AVG IPC :1.27008: L2-Pf-HR :0.95946: L2-HR :0.81407: (Sim:0h12m46s) 
CPU  2 inst:   20000000 cyc:   15152314 now IPC :1.37755: AVG IPC :1.27009: L2-Pf-HR :0.96754: L2-HR :0.83349: (Sim:0h12m46s) 
CPU  0 inst:   21000003 cyc:   15366035 now IPC :1.36617: AVG IPC :1.32067: L2-Pf-HR :0.97030: L2-HR :0.85150: (Sim:0h13m0s) 
CPU  3 inst:   21000003 cyc:   15612224 now IPC :1.48809: AVG IPC :1.29850: L2-Pf-HR :0.95955: L2-HR :0.81665: (Sim:0h13m17s) 
CPU  1 inst:   21000003 cyc:   15896742 now IPC :1.34218: AVG IPC :1.27368: L2-Pf-HR :0.95934: L2-HR :0.81258: (Sim:0h13m37s) 
CPU  2 inst:   21000003 cyc:   15897416 now IPC :1.34210: AVG IPC :1.27368: L2-Pf-HR :0.96773: L2-HR :0.83408: (Sim:0h13m37s) 
CPU  0 inst:   22000001 cyc:   16101560 now IPC :1.35957: AVG IPC :1.32256: L2-Pf-HR :0.97080: L2-HR :0.85203: (Sim:0h13m51s) 
CPU  3 inst:   22000001 cyc:   16285455 now IPC :1.48537: AVG IPC :1.30672: L2-Pf-HR :0.96080: L2-HR :0.81929: (Sim:0h14m4s) 
CPU  1 inst:   22000001 cyc:   16622257 now IPC :1.37833: AVG IPC :1.27853: L2-Pf-HR :0.95997: L2-HR :0.81355: (Sim:0h14m26s) 
CPU  2 inst:   22000001 cyc:   16622569 now IPC :1.37902: AVG IPC :1.27857: L2-Pf-HR :0.96775: L2-HR :0.83391: (Sim:0h14m26s) 
CPU  0 inst:   23000002 cyc:   16914752 now IPC :1.22972: AVG IPC :1.31782: L2-Pf-HR :0.97058: L2-HR :0.85160: (Sim:0h14m44s) 
CPU  3 inst:   23000002 cyc:   17126953 now IPC :1.18836: AVG IPC :1.30055: L2-Pf-HR :0.96073: L2-HR :0.81968: (Sim:0h14m55s) 
CPU  2 inst:   23000002 cyc:   17627553 now IPC :0.99504: AVG IPC :1.26145: L2-Pf-HR :0.96624: L2-HR :0.83334: (Sim:0h15m24s) 
CPU  1 inst:   23000002 cyc:   17640542 now IPC :0.98204: AVG IPC :1.26041: L2-Pf-HR :0.95996: L2-HR :0.81381: (Sim:0h15m24s) 
CPU  0 inst:   24000005 cyc:   17868331 now IPC :1.04868: AVG IPC :1.30262: L2-Pf-HR :0.97153: L2-HR :0.85241: (Sim:0h15m37s) 
CPU  3 inst:   24000005 cyc:   17980547 now IPC :1.17152: AVG IPC :1.29408: L2-Pf-HR :0.96130: L2-HR :0.81880: (Sim:0h15m43s) 
CPU  2 inst:   24000005 cyc:   18584721 now IPC :1.04475: AVG IPC :1.24967: L2-Pf-HR :0.96679: L2-HR :0.83353: (Sim:0h16m18s) 
CPU  1 inst:   24000005 cyc:   18598331 now IPC :1.04407: AVG IPC :1.24865: L2-Pf-HR :0.96133: L2-HR :0.81519: (Sim:0h16m19s) 
CPU  0 inst:   25000005 cyc:   18756451 now IPC :1.12597: AVG IPC :1.29380: L2-Pf-HR :0.97250: L2-HR :0.85329: (Sim:0h16m27s) 
CPU  3 inst:   25000005 cyc:   18903830 now IPC :1.08309: AVG IPC :1.28321: L2-Pf-HR :0.96227: L2-HR :0.81884: (Sim:0h16m36s) 
CPU  0 inst:   26000002 cyc:   19526592 now IPC :1.29846: AVG IPC :1.29399: L2-Pf-HR :0.97339: L2-HR :0.85436: (Sim:0h17m11s) 
CPU  2 inst:   25000005 cyc:   19555829 now IPC :1.02975: AVG IPC :1.23817: L2-Pf-HR :0.96770: L2-HR :0.83375: (Sim:0h17m13s) 
CPU  1 inst:   25000005 cyc:   19590541 now IPC :1.00785: AVG IPC :1.23581: L2-Pf-HR :0.96275: L2-HR :0.81663: (Sim:0h17m15s) 
CPU  3 inst:   26000002 cyc:   19870822 now IPC :1.03413: AVG IPC :1.27046: L2-Pf-HR :0.96359: L2-HR :0.82051: (Sim:0h17m31s) 
CPU  0 inst:   27000003 cyc:   20257228 now IPC :1.36867: AVG IPC :1.29682: L2-Pf-HR :0.97417: L2-HR :0.85500: (Sim:0h17m54s) 
CPU  2 inst:   26000002 cyc:   20488281 now IPC :1.07244: AVG IPC :1.23025: L2-Pf-HR :0.96820: L2-HR :0.83415: (Sim:0h18m8s) 
CPU  1 inst:   26000002 cyc:   20527408 now IPC :1.06738: AVG IPC :1.22774: L2-Pf-HR :0.96334: L2-HR :0.81648: (Sim:0h18m10s) 
CPU  3 inst:   27000003 cyc:   20802989 now IPC :1.07277: AVG IPC :1.26116: L2-Pf-HR :0.96480: L2-HR :0.82163: (Sim:0h18m26s) 
CPU  0 inst:   28000003 cyc:   21099436 now IPC :1.18736: AVG IPC :1.29224: L2-Pf-HR :0.97493: L2-HR :0.85582: (Sim:0h18m42s) 
CPU  2 inst:   27000003 cyc:   21285280 now IPC :1.25471: AVG IPC :1.23121: L2-Pf-HR :0.96891: L2-HR :0.83458: (Sim:0h18m49s) 
CPU  1 inst:   27000003 cyc:   21430119 now IPC :1.10778: AVG IPC :1.22245: L2-Pf-HR :0.96380: L2-HR :0.81550: (Sim:0h18m55s) 
CPU  3 inst:   28000003 cyc:   21678293 now IPC :1.14246: AVG IPC :1.25614: L2-Pf-HR :0.96619: L2-HR :0.82361: (Sim:0h19m5s) 
CPU  0 inst:   29000004 cyc:   21999739 now IPC :1.11074: AVG IPC :1.28447: L2-Pf-HR :0.97462: L2-HR :0.85516: (Sim:0h19m18s) 
CPU  2 inst:   28000003 cyc:   22019924 now IPC :1.36120: AVG IPC :1.23575: L2-Pf-HR :0.96960: L2-HR :0.83493: (Sim:0h19m18s) 
CPU  1 inst:   28000003 cyc:   22252922 now IPC :1.21536: AVG IPC :1.22217: L2-Pf-HR :0.96489: L2-HR :0.81660: (Sim:0h19m31s) 
CPU  3 inst:   29000004 cyc:   22563198 now IPC :1.13007: AVG IPC :1.25097: L2-Pf-HR :0.96619: L2-HR :0.82379: (Sim:0h19m49s) 
CPU  0 inst:   30000005 cyc:   22805420 now IPC :1.24119: AVG IPC :1.28287: L2-Pf-HR :0.97484: L2-HR :0.85432: (Sim:0h20m4s) 
CPU  2 inst:   29000004 cyc:   22876916 now IPC :1.16687: AVG IPC :1.23305: L2-Pf-HR :0.96947: L2-HR :0.83475: (Sim:0h20m9s) 
CPU  1 inst:   29000004 cyc:   23103128 now IPC :1.17619: AVG IPC :1.22040: L2-Pf-HR :0.96507: L2-HR :0.81667: (Sim:0h20m23s) 
CPU  3 inst:   30000005 cyc:   23302834 now IPC :1.35202: AVG IPC :1.25432: L2-Pf-HR :0.96600: L2-HR :0.82151: (Sim:0h20m31s) 
CPU  0 inst:   31000002 cyc:   23532430 now IPC :1.37549: AVG IPC :1.28586: L2-Pf-HR :0.97506: L2-HR :0.85356: (Sim:0h20m41s) 
CPU  2 inst:   30000005 cyc:   23632365 now IPC :1.32372: AVG IPC :1.23608: L2-Pf-HR :0.97012: L2-HR :0.83520: (Sim:0h20m45s) 
CPU  1 inst:   30000005 cyc:   23817296 now IPC :1.40023: AVG IPC :1.22603: L2-Pf-HR :0.96573: L2-HR :0.81684: (Sim:0h20m52s) 
CPU  3 inst:   31000001 cyc:   24055208 now IPC :1.32912: AVG IPC :1.25676: L2-Pf-HR :0.96597: L2-HR :0.81987: (Sim:0h21m2s) 
CPU  0 inst:   32000005 cyc:   24267666 now IPC :1.36011: AVG IPC :1.28820: L2-Pf-HR :0.97526: L2-HR :0.85270: (Sim:0h21m10s) 
CPU  2 inst:   31000002 cyc:   24408227 now IPC :1.28889: AVG IPC :1.23783: L2-Pf-HR :0.97076: L2-HR :0.83559: (Sim:0h21m16s) 
CPU  1 inst:   31000002 cyc:   24553665 now IPC :1.35801: AVG IPC :1.23015: L2-Pf-HR :0.96637: L2-HR :0.81710: (Sim:0h21m21s) 
CPU  3 inst:   32000002 cyc:   24896380 now IPC :1.18882: AVG IPC :1.25437: L2-Pf-HR :0.96584: L2-HR :0.81788: (Sim:0h21m33s) 
CPU  0 inst:   33000000 cyc:   25228699 now IPC :1.04054: AVG IPC :1.27838: L2-Pf-HR :0.97427: L2-HR :0.85156: (Sim:0h21m45s) 
CPU  2 inst:   32000005 cyc:   25267764 now IPC :1.16342: AVG IPC :1.23519: L2-Pf-HR :0.97131: L2-HR :0.83574: (Sim:0h21m46s) 
CPU  1 inst:   32000000 cyc:   25446746 now IPC :1.11972: AVG IPC :1.22612: L2-Pf-HR :0.96689: L2-HR :0.81685: (Sim:0h21m52s) 
CPU  3 inst:   33000000 cyc:   26078065 now IPC :0.84625: AVG IPC :1.23515: L2-Pf-HR :0.96423: L2-HR :0.81641: (Sim:0h22m10s) 
CPU  2 inst:   33000000 cyc:   26358606 now IPC :0.91672: AVG IPC :1.22150: L2-Pf-HR :0.97062: L2-HR :0.83544: (Sim:0h22m18s) 
CPU  0 inst:   34000003 cyc:   26388017 now IPC :0.86258: AVG IPC :1.25941: L2-Pf-HR :0.97441: L2-HR :0.85165: (Sim:0h22m19s) 
CPU  1 inst:   33000000 cyc:   26575803 now IPC :0.88569: AVG IPC :1.21110: L2-Pf-HR :0.96586: L2-HR :0.81652: (Sim:0h22m25s) 
CPU  3 inst:   34000003 cyc:   27199971 now IPC :0.89134: AVG IPC :1.22044: L2-Pf-HR :0.96396: L2-HR :0.81541: (Sim:0h22m51s) 
CPU  2 inst:   34000003 cyc:   27381135 now IPC :0.97797: AVG IPC :1.21207: L2-Pf-HR :0.97096: L2-HR :0.83562: (Sim:0h23m0s) 
CPU  0 inst:   35000003 cyc:   27476766 now IPC :0.91849: AVG IPC :1.24540: L2-Pf-HR :0.97459: L2-HR :0.85222: (Sim:0h23m5s) 
CPU  1 inst:   34000003 cyc:   27549638 now IPC :1.02687: AVG IPC :1.20435: L2-Pf-HR :0.96613: L2-HR :0.81703: (Sim:0h23m9s) 
CPU  3 inst:   35000002 cyc:   28336707 now IPC :0.87971: AVG IPC :1.20628: L2-Pf-HR :0.96396: L2-HR :0.81518: (Sim:0h23m50s) 
CPU  2 inst:   35000003 cyc:   28485814 now IPC :0.90524: AVG IPC :1.19975: L2-Pf-HR :0.97111: L2-HR :0.83572: (Sim:0h23m57s) 
CPU  1 inst:   35000003 cyc:   28575989 now IPC :0.97433: AVG IPC :1.19580: L2-Pf-HR :0.96643: L2-HR :0.81804: (Sim:0h24m1s) 
CPU  0 inst:   36000005 cyc:   28602484 now IPC :0.88832: AVG IPC :1.23085: L2-Pf-HR :0.97478: L2-HR :0.85260: (Sim:0h24m3s) 
CPU  3 inst:   36000005 cyc:   29493401 now IPC :0.86454: AVG IPC :1.19242: L2-Pf-HR :0.96440: L2-HR :0.81617: (Sim:0h24m38s) 
CPU  2 inst:   36000005 cyc:   29672125 now IPC :0.84295: AVG IPC :1.18500: L2-Pf-HR :0.97128: L2-HR :0.83592: (Sim:0h24m44s) 
CPU  1 inst:   36000005 cyc:   29708187 now IPC :0.88324: AVG IPC :1.18348: L2-Pf-HR :0.96634: L2-HR :0.81732: (Sim:0h24m45s) 
CPU  0 inst:   37000002 cyc:   29746604 now IPC :0.87403: AVG IPC :1.21666: L2-Pf-HR :0.97502: L2-HR :0.85310: (Sim:0h24m46s) 
CPU  3 inst:   37000004 cyc:   30613472 now IPC :0.89280: AVG IPC :1.18110: L2-Pf-HR :0.96482: L2-HR :0.81712: (Sim:0h25m12s) 
CPU  1 inst:   37000004 cyc:   30891765 now IPC :0.84489: AVG IPC :1.17008: L2-Pf-HR :0.96601: L2-HR :0.81645: (Sim:0h25m20s) 
CPU  2 inst:   37000004 cyc:   30903575 now IPC :0.81205: AVG IPC :1.16965: L2-Pf-HR :0.97143: L2-HR :0.83649: (Sim:0h25m20s) 
CPU  0 inst:   38000002 cyc:   30931343 now IPC :0.84407: AVG IPC :1.20192: L2-Pf-HR :0.97518: L2-HR :0.85335: (Sim:0h25m21s) 
CPU  3 inst:   38000002 cyc:   31796929 now IPC :0.84498: AVG IPC :1.16819: L2-Pf-HR :0.96531: L2-HR :0.81814: (Sim:0h25m46s) 
CPU  1 inst:   38000002 cyc:   32174972 now IPC :0.77930: AVG IPC :1.15400: L2-Pf-HR :0.96606: L2-HR :0.81655: (Sim:0h25m56s) 
CPU  2 inst:   38000002 cyc:   32218050 now IPC :0.76076: AVG IPC :1.15244: L2-Pf-HR :0.97152: L2-HR :0.83645: (Sim:0h25m58s) 
CPU  0 inst:   39000003 cyc:   32316381 now IPC :0.72200: AVG IPC :1.18071: L2-Pf-HR :0.97491: L2-HR :0.85307: (Sim:0h26m0s) 
CPU  3 inst:   39000003 cyc:   32946535 now IPC :0.86986: AVG IPC :1.15746: L2-Pf-HR :0.96520: L2-HR :0.81863: (Sim:0h26m21s) 
CPU  0 inst:   40000003 cyc:   33483717 now IPC :0.85665: AVG IPC :1.16907: L2-Pf-HR :0.97534: L2-HR :0.85343: (Sim:0h26m36s) 
CPU  1 inst:   39000003 cyc:   33573097 now IPC :0.71524: AVG IPC :1.13518: L2-Pf-HR :0.96569: L2-HR :0.81671: (Sim:0h26m40s) 
CPU  2 inst:   39000003 cyc:   33640029 now IPC :0.70325: AVG IPC :1.13289: L2-Pf-HR :0.97100: L2-HR :0.83620: (Sim:0h26m42s) 
CPU  3 inst:   40000003 cyc:   34061204 now IPC :0.89713: AVG IPC :1.14869: L2-Pf-HR :0.96549: L2-HR :0.81817: (Sim:0h26m55s) 
CPU  0 inst:   41000003 cyc:   34506708 now IPC :0.97753: AVG IPC :1.16323: L2-Pf-HR :0.97578: L2-HR :0.85402: (Sim:0h27m8s) 
CPU  1 inst:   40000003 cyc:   34632659 now IPC :0.94379: AVG IPC :1.12916: L2-Pf-HR :0.96632: L2-HR :0.81737: (Sim:0h27m12s) 
CPU  2 inst:   40000003 cyc:   34898149 now IPC :0.79484: AVG IPC :1.12035: L2-Pf-HR :0.97137: L2-HR :0.83630: (Sim:0h27m20s) 
CPU  3 inst:   41000003 cyc:   35334523 now IPC :0.78535: AVG IPC :1.13522: L2-Pf-HR :0.96588: L2-HR :0.81813: (Sim:0h27m34s) 
CPU  1 inst:   41000003 cyc:   35607006 now IPC :1.02633: AVG IPC :1.12626: L2-Pf-HR :0.96694: L2-HR :0.81825: (Sim:0h27m42s) 
CPU  0 inst:   42000001 cyc:   35714529 now IPC :0.82794: AVG IPC :1.15157: L2-Pf-HR :0.97625: L2-HR :0.85445: (Sim:0h27m45s) 
CPU  2 inst:   41000003 cyc:   35975466 now IPC :0.92823: AVG IPC :1.11443: L2-Pf-HR :0.97173: L2-HR :0.83650: (Sim:0h27m54s) 
CPU  3 inst:   42000001 cyc:   36439640 now IPC :0.90488: AVG IPC :1.12804: L2-Pf-HR :0.96663: L2-HR :0.81897: (Sim:0h28m8s) 
CPU  1 inst:   42000001 cyc:   36666756 now IPC :0.94362: AVG IPC :1.12084: L2-Pf-HR :0.96729: L2-HR :0.81796: (Sim:0h28m15s) 
CPU  0 inst:   43000003 cyc:   36805890 now IPC :0.91629: AVG IPC :1.14440: L2-Pf-HR :0.97667: L2-HR :0.85505: (Sim:0h28m20s) 
CPU  2 inst:   42000001 cyc:   36944996 now IPC :1.03143: AVG IPC :1.11219: L2-Pf-HR :0.97211: L2-HR :0.83652: (Sim:0h28m24s) 
CPU  3 inst:   43000000 cyc:   37433608 now IPC :1.00607: AVG IPC :1.12472: L2-Pf-HR :0.96732: L2-HR :0.81997: (Sim:0h28m41s) 
CPU  1 inst:   43000001 cyc:   37683687 now IPC :0.98335: AVG IPC :1.11703: L2-Pf-HR :0.96754: L2-HR :0.81768: (Sim:0h28m50s) 
CPU  2 inst:   43000003 cyc:   37881630 now IPC :1.06766: AVG IPC :1.11106: L2-Pf-HR :0.97248: L2-HR :0.83697: (Sim:0h28m57s) 
CPU  0 inst:   44000000 cyc:   37881695 now IPC :0.92953: AVG IPC :1.13814: L2-Pf-HR :0.97707: L2-HR :0.85541: (Sim:0h28m57s) 
CPU  3 inst:   44000000 cyc:   38368763 now IPC :1.06934: AVG IPC :1.12333: L2-Pf-HR :0.96808: L2-HR :0.82099: (Sim:0h29m13s) 
CPU  1 inst:   44000000 cyc:   38811130 now IPC :0.88696: AVG IPC :1.11017: L2-Pf-HR :0.96803: L2-HR :0.81792: (Sim:0h29m27s) 
CPU  2 inst:   44000000 cyc:   38965188 now IPC :0.92288: AVG IPC :1.10570: L2-Pf-HR :0.97285: L2-HR :0.83705: (Sim:0h29m34s) 
CPU  0 inst:   45000005 cyc:   39119942 now IPC :0.80760: AVG IPC :1.12740: L2-Pf-HR :0.97683: L2-HR :0.85513: (Sim:0h29m42s) 
CPU  3 inst:   45000005 cyc:   39518209 now IPC :0.86999: AVG IPC :1.11578: L2-Pf-HR :0.96800: L2-HR :0.82142: (Sim:0h30m1s) 
CPU  1 inst:   45000005 cyc:   40084763 now IPC :0.78516: AVG IPC :1.09959: L2-Pf-HR :0.96807: L2-HR :0.81811: (Sim:0h30m26s) 
CPU  2 inst:   45000005 cyc:   40270416 now IPC :0.76615: AVG IPC :1.09442: L2-Pf-HR :0.97268: L2-HR :0.83681: (Sim:0h30m35s) 
CPU  0 inst:   46000002 cyc:   40294886 now IPC :0.85110: AVG IPC :1.11915: L2-Pf-HR :0.97694: L2-HR :0.85458: (Sim:0h30m36s) 
CPU  3 inst:   46000002 cyc:   40868686 now IPC :0.74048: AVG IPC :1.10307: L2-Pf-HR :0.96794: L2-HR :0.82029: (Sim:0h31m3s) 
CPU  1 inst:   46000002 cyc:   41064422 now IPC :1.02076: AVG IPC :1.09766: L2-Pf-HR :0.96838: L2-HR :0.81817: (Sim:0h31m13s) 
CPU  2 inst:   46000002 cyc:   41605513 now IPC :0.74901: AVG IPC :1.08306: L2-Pf-HR :0.97303: L2-HR :0.83713: (Sim:0h31m29s) 
CPU  0 inst:   47000005 cyc:   41614846 now IPC :0.75760: AVG IPC :1.10740: L2-Pf-HR :0.97708: L2-HR :0.85405: (Sim:0h31m29s) 
CPU  3 inst:   47000005 cyc:   42017220 now IPC :0.87068: AVG IPC :1.09657: L2-Pf-HR :0.96790: L2-HR :0.81904: (Sim:0h31m41s) 
CPU  1 inst:   47000005 cyc:   42334211 now IPC :0.78753: AVG IPC :1.08814: L2-Pf-HR :0.96874: L2-HR :0.81818: (Sim:0h31m50s) 
CPU  0 inst:   48000000 cyc:   42868694 now IPC :0.79754: AVG IPC :1.09813: L2-Pf-HR :0.97719: L2-HR :0.85355: (Sim:0h32m5s) 
CPU  2 inst:   47000005 cyc:   43002931 now IPC :0.71561: AVG IPC :1.07085: L2-Pf-HR :0.97335: L2-HR :0.83718: (Sim:0h32m9s) 
CPU  3 inst:   48000003 cyc:   43078166 now IPC :0.94255: AVG IPC :1.09268: L2-Pf-HR :0.96783: L2-HR :0.81788: (Sim:0h32m11s) 
CPU  1 inst:   48000000 cyc:   43743932 now IPC :0.70936: AVG IPC :1.07565: L2-Pf-HR :0.96900: L2-HR :0.81812: (Sim:0h32m28s) 
CPU  0 inst:   49000005 cyc:   44033597 now IPC :0.85844: AVG IPC :1.09164: L2-Pf-HR :0.97658: L2-HR :0.85265: (Sim:0h32m36s) 
CPU  3 inst:   49000001 cyc:   44414925 now IPC :0.74808: AVG IPC :1.08208: L2-Pf-HR :0.96693: L2-HR :0.81652: (Sim:0h32m48s) 
CPU  2 inst:   48000003 cyc:   44419569 now IPC :0.70590: AVG IPC :1.05894: L2-Pf-HR :0.97364: L2-HR :0.83732: (Sim:0h32m49s) 
CPU  1 inst:   49000001 cyc:   45184022 now IPC :0.69440: AVG IPC :1.06323: L2-Pf-HR :0.96835: L2-HR :0.81769: (Sim:0h33m9s) 
CPU  0 inst:   50000003 cyc:   45316452 now IPC :0.77951: AVG IPC :1.08261: L2-Pf-HR :0.97657: L2-HR :0.85274: (Sim:0h33m13s) 
CPU  3 inst:   50000003 cyc:   45598140 now IPC :0.84516: AVG IPC :1.07580: L2-Pf-HR :0.96676: L2-HR :0.81600: (Sim:0h33m22s) 
CPU  2 inst:   49000005 cyc:   45709569 now IPC :0.77520: AVG IPC :1.05076: L2-Pf-HR :0.97311: L2-HR :0.83695: (Sim:0h33m25s) 
CPU  1 inst:   50000003 cyc:   46371148 now IPC :0.84237: AVG IPC :1.05746: L2-Pf-HR :0.96840: L2-HR :0.81803: (Sim:0h33m45s) 
CPU  0 inst:   51000002 cyc:   46452980 now IPC :0.87987: AVG IPC :1.07754: L2-Pf-HR :0.97660: L2-HR :0.85301: (Sim:0h33m47s) 
CPU  3 inst:   51000002 cyc:   46762438 now IPC :0.85889: AVG IPC :1.07028: L2-Pf-HR :0.96669: L2-HR :0.81552: (Sim:0h33m57s) 
CPU  2 inst:   50000003 cyc:   46778084 now IPC :0.93588: AVG IPC :1.04808: L2-Pf-HR :0.97312: L2-HR :0.83706: (Sim:0h33m58s) 
CPU  0 inst:   52000000 cyc:   47525579 now IPC :0.93231: AVG IPC :1.07420: L2-Pf-HR :0.97663: L2-HR :0.85327: (Sim:0h34m22s) 
CPU  1 inst:   51000002 cyc:   47599448 now IPC :0.81413: AVG IPC :1.05105: L2-Pf-HR :0.96861: L2-HR :0.81860: (Sim:0h34m25s) 
CPU  2 inst:   51000002 cyc:   47850198 now IPC :0.93274: AVG IPC :1.04544: L2-Pf-HR :0.97322: L2-HR :0.83704: (Sim:0h34m36s) 
CPU  3 inst:   52000000 cyc:   47974927 now IPC :0.82475: AVG IPC :1.06394: L2-Pf-HR :0.96691: L2-HR :0.81628: (Sim:0h34m40s) 
CPU  0 inst:   53000003 cyc:   48595727 now IPC :0.93445: AVG IPC :1.07106: L2-Pf-HR :0.97673: L2-HR :0.85356: (Sim:0h34m59s) 
CPU  1 inst:   52000000 cyc:   48805360 now IPC :0.82925: AVG IPC :1.04545: L2-Pf-HR :0.96847: L2-HR :0.81821: (Sim:0h35m7s) 
CPU  2 inst:   52000000 cyc:   48987488 now IPC :0.87928: AVG IPC :1.04151: L2-Pf-HR :0.97333: L2-HR :0.83712: (Sim:0h35m14s) 
CPU  3 inst:   53000003 cyc:   49196730 now IPC :0.81846: AVG IPC :1.05772: L2-Pf-HR :0.96710: L2-HR :0.81687: (Sim:0h35m24s) 
CPU  0 inst:   54000000 cyc:   49695975 now IPC :0.90888: AVG IPC :1.06739: L2-Pf-HR :0.97668: L2-HR :0.85367: (Sim:0h35m48s) 
CPU  1 inst:   53000003 cyc:   49928680 now IPC :0.89022: AVG IPC :1.04189: L2-Pf-HR :0.96833: L2-HR :0.81766: (Sim:0h36m0s) 
CPU  2 inst:   53000003 cyc:   50169141 now IPC :0.84627: AVG IPC :1.03682: L2-Pf-HR :0.97342: L2-HR :0.83728: (Sim:0h36m9s) 
CPU  3 inst:   54000000 cyc:   50403839 now IPC :0.82842: AVG IPC :1.05212: L2-Pf-HR :0.96736: L2-HR :0.81772: (Sim:0h36m17s) 
CPU  0 inst:   55000001 cyc:   50921026 now IPC :0.81629: AVG IPC :1.06123: L2-Pf-HR :0.97640: L2-HR :0.85344: (Sim:0h36m34s) 
CPU  1 inst:   54000000 cyc:   51022205 now IPC :0.91447: AVG IPC :1.03911: L2-Pf-HR :0.96834: L2-HR :0.81772: (Sim:0h36m39s) 
CPU  2 inst:   54000000 cyc:   51397847 now IPC :0.81386: AVG IPC :1.03138: L2-Pf-HR :0.97346: L2-HR :0.83731: (Sim:0h36m50s) 
CPU  3 inst:   55000001 cyc:   51779730 now IPC :0.72680: AVG IPC :1.04331: L2-Pf-HR :0.96712: L2-HR :0.81820: (Sim:0h37m7s) 
CPU  0 inst:   56000001 cyc:   52084195 now IPC :0.85972: AVG IPC :1.05665: L2-Pf-HR :0.97666: L2-HR :0.85366: (Sim:0h37m21s) 
CPU  1 inst:   55000001 cyc:   52266218 now IPC :0.80385: AVG IPC :1.03340: L2-Pf-HR :0.96788: L2-HR :0.81778: (Sim:0h37m29s) 
CPU  2 inst:   55000001 cyc:   52756967 now IPC :0.73577: AVG IPC :1.02362: L2-Pf-HR :0.97317: L2-HR :0.83706: (Sim:0h37m52s) 
CPU  3 inst:   56000001 cyc:   53087760 now IPC :0.76451: AVG IPC :1.03631: L2-Pf-HR :0.96729: L2-HR :0.81794: (Sim:0h38m7s) 
CPU  1 inst:   56000001 cyc:   53259154 now IPC :1.00711: AVG IPC :1.03290: L2-Pf-HR :0.96825: L2-HR :0.81817: (Sim:0h38m15s) 
CPU  0 inst:   57000001 cyc:   53468461 now IPC :0.72240: AVG IPC :1.04783: L2-Pf-HR :0.97691: L2-HR :0.85395: (Sim:0h38m24s) 
CPU  2 inst:   56000001 cyc:   54279972 now IPC :0.65660: AVG IPC :1.01313: L2-Pf-HR :0.97344: L2-HR :0.83716: (Sim:0h38m54s) 
CPU  3 inst:   57000001 cyc:   54319790 now IPC :0.81167: AVG IPC :1.03112: L2-Pf-HR :0.96748: L2-HR :0.81765: (Sim:0h38m55s) 
CPU  1 inst:   57000001 cyc:   54582324 now IPC :0.75576: AVG IPC :1.02606: L2-Pf-HR :0.96873: L2-HR :0.81886: (Sim:0h39m6s) 
CPU  0 inst:   58000005 cyc:   54892278 now IPC :0.70234: AVG IPC :1.03871: L2-Pf-HR :0.97717: L2-HR :0.85438: (Sim:0h39m19s) 
CPU  3 inst:   58000005 cyc:   55266268 now IPC :1.05655: AVG IPC :1.03157: L2-Pf-HR :0.96797: L2-HR :0.81846: (Sim:0h39m34s) 
CPU  2 inst:   57000001 cyc:   55627409 now IPC :0.74215: AVG IPC :1.00645: L2-Pf-HR :0.97369: L2-HR :0.83727: (Sim:0h39m50s) 
CPU  1 inst:   58000005 cyc:   55865218 now IPC :0.77949: AVG IPC :1.02030: L2-Pf-HR :0.96894: L2-HR :0.81892: (Sim:0h39m59s) 
CPU  0 inst:   59000005 cyc:   56174492 now IPC :0.77990: AVG IPC :1.03270: L2-Pf-HR :0.97748: L2-HR :0.85467: (Sim:0h40m10s) 
CPU  3 inst:   59000005 cyc:   56354226 now IPC :0.91915: AVG IPC :1.02936: L2-Pf-HR :0.96848: L2-HR :0.81903: (Sim:0h40m17s) 
CPU  2 inst:   58000003 cyc:   56952201 now IPC :0.75484: AVG IPC :1.00050: L2-Pf-HR :0.97394: L2-HR :0.83745: (Sim:0h40m39s) 
CPU  0 inst:   60000005 cyc:   57176880 now IPC :0.99762: AVG IPC :1.03207: L2-Pf-HR :0.97766: L2-HR :0.85500: (Sim:0h40m46s) 
CPU  1 inst:   59000005 cyc:   57255113 now IPC :0.71948: AVG IPC :1.01287: L2-Pf-HR :0.96913: L2-HR :0.81849: (Sim:0h40m49s) 
CPU  3 inst:   60000005 cyc:   57652077 now IPC :0.77050: AVG IPC :1.02343: L2-Pf-HR :0.96901: L2-HR :0.81991: (Sim:0h41m4s) 
CPU  0 inst:   61000005 cyc:   58268850 now IPC :0.91578: AVG IPC :1.02985: L2-Pf-HR :0.97752: L2-HR :0.85490: (Sim:0h41m32s) 
CPU  2 inst:   59000005 cyc:   58329840 now IPC :0.72588: AVG IPC :0.99390: L2-Pf-HR :0.97423: L2-HR :0.83758: (Sim:0h41m35s) 
CPU  1 inst:   60000000 cyc:   58745301 now IPC :0.67105: AVG IPC :1.00405: L2-Pf-HR :0.96941: L2-HR :0.81868: (Sim:0h41m52s) 
CPU  3 inst:   61000005 cyc:   59156745 now IPC :0.66460: AVG IPC :1.01415: L2-Pf-HR :0.96902: L2-HR :0.82038: (Sim:0h42m12s) 
CPU  0 inst:   62000000 cyc:   59413245 now IPC :0.87382: AVG IPC :1.02680: L2-Pf-HR :0.97759: L2-HR :0.85442: (Sim:0h42m25s) 
CPU  2 inst:   60000001 cyc:   59718789 now IPC :0.71997: AVG IPC :0.98742: L2-Pf-HR :0.97448: L2-HR :0.83779: (Sim:0h42m40s) 
CPU  1 inst:   61000005 cyc:   60136464 now IPC :0.71883: AVG IPC :0.99734: L2-Pf-HR :0.96942: L2-HR :0.81879: (Sim:0h43m1s) 
CPU  3 inst:   62000000 cyc:   60241985 now IPC :0.92145: AVG IPC :1.01245: L2-Pf-HR :0.96904: L2-HR :0.81966: (Sim:0h43m6s) 
CPU  0 inst:   63000001 cyc:   60497906 now IPC :0.92195: AVG IPC :1.02489: L2-Pf-HR :0.97767: L2-HR :0.85401: (Sim:0h43m19s) 
CPU  2 inst:   61000005 cyc:   60926352 now IPC :0.82812: AVG IPC :0.98421: L2-Pf-HR :0.97433: L2-HR :0.83765: (Sim:0h43m43s) 
CPU  1 inst:   62000000 cyc:   61177048 now IPC :0.96099: AVG IPC :0.99671: L2-Pf-HR :0.96968: L2-HR :0.81888: (Sim:0h43m57s) 
CPU  3 inst:   63000001 cyc:   61269574 now IPC :0.97315: AVG IPC :1.01178: L2-Pf-HR :0.96897: L2-HR :0.81873: (Sim:0h44m1s) 
CPU  0 inst:   64000001 cyc:   61512048 now IPC :0.98606: AVG IPC :1.02424: L2-Pf-HR :0.97777: L2-HR :0.85372: (Sim:0h44m15s) 
CPU  2 inst:   62000000 cyc:   61937869 now IPC :0.98861: AVG IPC :0.98429: L2-Pf-HR :0.97458: L2-HR :0.83779: (Sim:0h44m39s) 
CPU  1 inst:   63000001 cyc:   62198026 now IPC :0.97945: AVG IPC :0.99642: L2-Pf-HR :0.96992: L2-HR :0.81889: (Sim:0h44m53s) 
CPU  3 inst:   64000001 cyc:   62313091 now IPC :0.95830: AVG IPC :1.01087: L2-Pf-HR :0.96895: L2-HR :0.81797: (Sim:0h44m58s) 
CPU  0 inst:   65000002 cyc:   62735577 now IPC :0.81731: AVG IPC :1.02014: L2-Pf-HR :0.97720: L2-HR :0.85303: (Sim:0h45m18s) 
CPU  2 inst:   63000001 cyc:   62982726 now IPC :0.95707: AVG IPC :0.98383: L2-Pf-HR :0.97480: L2-HR :0.83784: (Sim:0h45m31s) 
CPU  1 inst:   64000001 cyc:   63290532 now IPC :0.91533: AVG IPC :0.99500: L2-Pf-HR :0.97013: L2-HR :0.81889: (Sim:0h45m45s) 
CPU  3 inst:   65000002 cyc:   63577517 now IPC :0.79087: AVG IPC :1.00643: L2-Pf-HR :0.96809: L2-HR :0.81675: (Sim:0h45m58s) 
CPU  0 inst:   66000002 cyc:   64002336 now IPC :0.78942: AVG IPC :1.01550: L2-Pf-HR :0.97726: L2-HR :0.85300: (Sim:0h46m15s) 
CPU  2 inst:   64000001 cyc:   64041070 now IPC :0.94487: AVG IPC :0.98317: L2-Pf-HR :0.97502: L2-HR :0.83801: (Sim:0h46m16s) 
CPU  1 inst:   65000002 cyc:   64710215 now IPC :0.70438: AVG IPC :0.98853: L2-Pf-HR :0.96967: L2-HR :0.81850: (Sim:0h46m34s) 
CPU  3 inst:   66000000 cyc:   65022308 now IPC :0.69214: AVG IPC :0.99934: L2-Pf-HR :0.96805: L2-HR :0.81650: (Sim:0h46m48s) 
CPU  2 inst:   65000002 cyc:   65431445 now IPC :0.71923: AVG IPC :0.97748: L2-Pf-HR :0.97456: L2-HR :0.83769: (Sim:0h47m9s) 
CPU  0 inst:   67000001 cyc:   65467512 now IPC :0.68251: AVG IPC :1.00793: L2-Pf-HR :0.97722: L2-HR :0.85327: (Sim:0h47m11s) 
CPU  1 inst:   66000000 cyc:   66076103 now IPC :0.73212: AVG IPC :0.98315: L2-Pf-HR :0.96973: L2-HR :0.81862: (Sim:0h47m29s) 
CPU  3 inst:   67000001 cyc:   66383056 now IPC :0.73489: AVG IPC :0.99384: L2-Pf-HR :0.96784: L2-HR :0.81609: (Sim:0h47m38s) 
CPU  2 inst:   66000002 cyc:   66442214 now IPC :0.98935: AVG IPC :0.97766: L2-Pf-HR :0.97461: L2-HR :0.83760: (Sim:0h47m40s) 
CPU  0 inst:   68000005 cyc:   66810139 now IPC :0.74481: AVG IPC :1.00257: L2-Pf-HR :0.97731: L2-HR :0.85343: (Sim:0h47m54s) 
CPU  1 inst:   67000001 cyc:   67332116 now IPC :0.79617: AVG IPC :0.97961: L2-Pf-HR :0.96979: L2-HR :0.81916: (Sim:0h48m19s) 
CPU  2 inst:   67000001 cyc:   67591224 now IPC :0.87031: AVG IPC :0.97581: L2-Pf-HR :0.97466: L2-HR :0.83773: (Sim:0h48m31s) 
CPU  3 inst:   68000001 cyc:   67771320 now IPC :0.72032: AVG IPC :0.98815: L2-Pf-HR :0.96801: L2-HR :0.81661: (Sim:0h48m39s) 
CPU  0 inst:   69000000 cyc:   68214966 now IPC :0.71183: AVG IPC :0.99649: L2-Pf-HR :0.97735: L2-HR :0.85362: (Sim:0h49m0s) 
CPU  1 inst:   68000001 cyc:   68459172 now IPC :0.88727: AVG IPC :0.97807: L2-Pf-HR :0.96966: L2-HR :0.81896: (Sim:0h49m12s) 
CPU  2 inst:   68000001 cyc:   68900157 now IPC :0.76398: AVG IPC :0.97173: L2-Pf-HR :0.97467: L2-HR :0.83765: (Sim:0h49m34s) 
CPU  3 inst:   69000000 cyc:   69027538 now IPC :0.79604: AVG IPC :0.98461: L2-Pf-HR :0.96812: L2-HR :0.81707: (Sim:0h49m40s) 
CPU  1 inst:   69000000 cyc:   69497764 now IPC :0.96284: AVG IPC :0.97784: L2-Pf-HR :0.96950: L2-HR :0.81855: (Sim:0h50m3s) 
CPU  0 inst:   70000004 cyc:   69531378 now IPC :0.75964: AVG IPC :0.99194: L2-Pf-HR :0.97738: L2-HR :0.85381: (Sim:0h50m5s) 
CPU  3 inst:   70000004 cyc:   70128650 now IPC :0.90818: AVG IPC :0.98339: L2-Pf-HR :0.96827: L2-HR :0.81763: (Sim:0h50m35s) 
CPU  2 inst:   69000000 cyc:   70176982 now IPC :0.78319: AVG IPC :0.96825: L2-Pf-HR :0.97466: L2-HR :0.83780: (Sim:0h50m38s) 
CPU  1 inst:   70000004 cyc:   70706153 now IPC :0.82755: AVG IPC :0.97523: L2-Pf-HR :0.96950: L2-HR :0.81838: (Sim:0h51m2s) 
CPU  0 inst:   71000004 cyc:   70933773 now IPC :0.71307: AVG IPC :0.98635: L2-Pf-HR :0.97715: L2-HR :0.85364: (Sim:0h51m14s) 
CPU  3 inst:   71000003 cyc:   71335026 now IPC :0.82893: AVG IPC :0.98074: L2-Pf-HR :0.96807: L2-HR :0.81816: (Sim:0h51m33s) 
CPU  2 inst:   70000004 cyc:   71361110 now IPC :0.84451: AVG IPC :0.96617: L2-Pf-HR :0.97465: L2-HR :0.83780: (Sim:0h51m35s) 
CPU  1 inst:   71000001 cyc:   71999689 now IPC :0.77307: AVG IPC :0.97155: L2-Pf-HR :0.96917: L2-HR :0.81839: (Sim:0h52m7s) 
CPU  0 inst:   72000002 cyc:   72069490 now IPC :0.88050: AVG IPC :0.98466: L2-Pf-HR :0.97736: L2-HR :0.85377: (Sim:0h52m11s) 
CPU  3 inst:   72000002 cyc:   72441409 now IPC :0.90385: AVG IPC :0.97955: L2-Pf-HR :0.96824: L2-HR :0.81794: (Sim:0h52m28s) 
CPU  2 inst:   71000003 cyc:   72556217 now IPC :0.83674: AVG IPC :0.96401: L2-Pf-HR :0.97431: L2-HR :0.83758: (Sim:0h52m34s) 
CPU  1 inst:   72000002 cyc:   73122573 now IPC :0.89056: AVG IPC :0.97029: L2-Pf-HR :0.96945: L2-HR :0.81861: (Sim:0h53m5s) 
CPU  0 inst:   73000002 cyc:   73135190 now IPC :0.93835: AVG IPC :0.98398: L2-Pf-HR :0.97758: L2-HR :0.85412: (Sim:0h53m5s) 
CPU  3 inst:   73000002 cyc:   73490980 now IPC :0.95277: AVG IPC :0.97916: L2-Pf-HR :0.96834: L2-HR :0.81773: (Sim:0h53m24s) 
CPU  2 inst:   72000002 cyc:   73609105 now IPC :0.94977: AVG IPC :0.96380: L2-Pf-HR :0.97451: L2-HR :0.83761: (Sim:0h53m30s) 
CPU  0 inst:   74000002 cyc:   74199648 now IPC :0.93945: AVG IPC :0.98333: L2-Pf-HR :0.97781: L2-HR :0.85436: (Sim:0h54m1s) 
CPU  1 inst:   73000002 cyc:   74204951 now IPC :0.92389: AVG IPC :0.96960: L2-Pf-HR :0.96980: L2-HR :0.81923: (Sim:0h54m1s) 
CPU  3 inst:   74000002 cyc:   74565530 now IPC :0.93062: AVG IPC :0.97845: L2-Pf-HR :0.96870: L2-HR :0.81818: (Sim:0h54m19s) 
CPU  2 inst:   73000002 cyc:   74653610 now IPC :0.95739: AVG IPC :0.96371: L2-Pf-HR :0.97468: L2-HR :0.83778: (Sim:0h54m24s) 
CPU  0 inst:   75000003 cyc:   75256860 now IPC :0.94589: AVG IPC :0.98280: L2-Pf-HR :0.97806: L2-HR :0.85475: (Sim:0h54m56s) 
CPU  1 inst:   74000002 cyc:   75294592 now IPC :0.91773: AVG IPC :0.96884: L2-Pf-HR :0.97001: L2-HR :0.81923: (Sim:0h54m58s) 
CPU  3 inst:   75000003 cyc:   75644953 now IPC :0.92642: AVG IPC :0.97770: L2-Pf-HR :0.96909: L2-HR :0.81879: (Sim:0h55m16s) 
CPU  2 inst:   74000002 cyc:   75738025 now IPC :0.92216: AVG IPC :0.96311: L2-Pf-HR :0.97484: L2-HR :0.83773: (Sim:0h55m21s) 
CPU  0 inst:   76000000 cyc:   76326685 now IPC :0.93473: AVG IPC :0.98212: L2-Pf-HR :0.97827: L2-HR :0.85497: (Sim:0h55m52s) 
CPU  1 inst:   75000003 cyc:   76364714 now IPC :0.93447: AVG IPC :0.96835: L2-Pf-HR :0.97016: L2-HR :0.81907: (Sim:0h55m54s) 
CPU  3 inst:   76000000 cyc:   76719802 now IPC :0.93036: AVG IPC :0.97703: L2-Pf-HR :0.96947: L2-HR :0.81929: (Sim:0h56m13s) 
CPU  2 inst:   75000003 cyc:   76766056 now IPC :0.97273: AVG IPC :0.96324: L2-Pf-HR :0.97506: L2-HR :0.83795: (Sim:0h56m15s) 
CPU  1 inst:   76000000 cyc:   77446366 now IPC :0.92451: AVG IPC :0.96773: L2-Pf-HR :0.97036: L2-HR :0.81905: (Sim:0h56m51s) 
CPU  0 inst:   77000002 cyc:   77447025 now IPC :0.89259: AVG IPC :0.98080: L2-Pf-HR :0.97815: L2-HR :0.85504: (Sim:0h56m51s) 
CPU  2 inst:   76000000 cyc:   77807821 now IPC :0.95991: AVG IPC :0.96319: L2-Pf-HR :0.97526: L2-HR :0.83809: (Sim:0h57m9s) 
CPU  3 inst:   77000002 cyc:   77885343 now IPC :0.85797: AVG IPC :0.97522: L2-Pf-HR :0.96951: L2-HR :0.81989: (Sim:0h57m13s) 
CPU  0 inst:   78000004 cyc:   78567565 now IPC :0.89243: AVG IPC :0.97953: L2-Pf-HR :0.97819: L2-HR :0.85461: (Sim:0h57m45s) 
CPU  1 inst:   77000002 cyc:   78629975 now IPC :0.84488: AVG IPC :0.96586: L2-Pf-HR :0.97032: L2-HR :0.81920: (Sim:0h57m48s) 
CPU  2 inst:   77000002 cyc:   78921626 now IPC :0.89783: AVG IPC :0.96226: L2-Pf-HR :0.97512: L2-HR :0.83800: (Sim:0h58m2s) 
CPU  3 inst:   78000004 cyc:   78977439 now IPC :0.91567: AVG IPC :0.97439: L2-Pf-HR :0.96954: L2-HR :0.81941: (Sim:0h58m4s) 
CPU  0 inst:   79000000 cyc:   79670589 now IPC :0.90659: AVG IPC :0.97851: L2-Pf-HR :0.97827: L2-HR :0.85435: (Sim:0h58m29s) 
CPU  1 inst:   78000004 cyc:   79733743 now IPC :0.90599: AVG IPC :0.96502: L2-Pf-HR :0.97050: L2-HR :0.81923: (Sim:0h58m33s) 
CPU  2 inst:   78000004 cyc:   80031029 now IPC :0.90139: AVG IPC :0.96140: L2-Pf-HR :0.97529: L2-HR :0.83805: (Sim:0h58m48s) 
CPU  3 inst:   79000000 cyc:   80034307 now IPC :0.94619: AVG IPC :0.97401: L2-Pf-HR :0.96949: L2-HR :0.81870: (Sim:0h58m48s) 
CPU  0 inst:   80000000 cyc:   80715629 now IPC :0.95690: AVG IPC :0.97822: L2-Pf-HR :0.97833: L2-HR :0.85406: (Sim:0h59m22s) 
CPU  1 inst:   79000000 cyc:   80786686 now IPC :0.94972: AVG IPC :0.96482: L2-Pf-HR :0.97069: L2-HR :0.81931: (Sim:0h59m26s) 
CPU  3 inst:   80000000 cyc:   81126738 now IPC :0.91539: AVG IPC :0.97321: L2-Pf-HR :0.96949: L2-HR :0.81807: (Sim:0h59m43s) 
CPU  2 inst:   79000000 cyc:   81142562 now IPC :0.89965: AVG IPC :0.96055: L2-Pf-HR :0.97547: L2-HR :0.83817: (Sim:0h59m44s) 
CPU  1 inst:   80000000 cyc:   81887064 now IPC :0.90878: AVG IPC :0.96406: L2-Pf-HR :0.97086: L2-HR :0.81927: (Sim:1h0m18s) 
CPU  0 inst:   81000005 cyc:   81956886 now IPC :0.80564: AVG IPC :0.97558: L2-Pf-HR :0.97796: L2-HR :0.85344: (Sim:1h0m22s) 
CPU  2 inst:   80000000 cyc:   82389616 now IPC :0.80189: AVG IPC :0.95812: L2-Pf-HR :0.97562: L2-HR :0.83824: (Sim:1h0m42s) 
CPU  3 inst:   81000005 cyc:   82491852 now IPC :0.73254: AVG IPC :0.96918: L2-Pf-HR :0.96884: L2-HR :0.81701: (Sim:1h0m47s) 
CPU  0 inst:   82000001 cyc:   83062921 now IPC :0.90413: AVG IPC :0.97461: L2-Pf-HR :0.97794: L2-HR :0.85343: (Sim:1h1m14s) 
CPU  1 inst:   81000005 cyc:   83171756 now IPC :0.77840: AVG IPC :0.96116: L2-Pf-HR :0.97051: L2-HR :0.81896: (Sim:1h1m20s) 
CPU  3 inst:   82000001 cyc:   83629783 now IPC :0.87878: AVG IPC :0.96794: L2-Pf-HR :0.96870: L2-HR :0.81681: (Sim:1h1m41s) 
CPU  2 inst:   81000005 cyc:   83690807 now IPC :0.76853: AVG IPC :0.95514: L2-Pf-HR :0.97536: L2-HR :0.83798: (Sim:1h1m44s) 
CPU  0 inst:   83000004 cyc:   84256836 now IPC :0.83758: AVG IPC :0.97265: L2-Pf-HR :0.97797: L2-HR :0.85361: (Sim:1h2m11s) 
CPU  1 inst:   82000001 cyc:   84353336 now IPC :0.84632: AVG IPC :0.95953: L2-Pf-HR :0.97049: L2-HR :0.81909: (Sim:1h2m16s) 
CPU  3 inst:   83000004 cyc:   84769834 now IPC :0.87716: AVG IPC :0.96670: L2-Pf-HR :0.96851: L2-HR :0.81641: (Sim:1h2m35s) 
CPU  2 inst:   82000001 cyc:   84915193 now IPC :0.81673: AVG IPC :0.95312: L2-Pf-HR :0.97538: L2-HR :0.83808: (Sim:1h2m42s) 
CPU  0 inst:   84000000 cyc:   85488187 now IPC :0.81211: AVG IPC :0.97031: L2-Pf-HR :0.97800: L2-HR :0.85378: (Sim:1h3m9s) 
CPU  1 inst:   83000004 cyc:   85547544 now IPC :0.83738: AVG IPC :0.95780: L2-Pf-HR :0.97059: L2-HR :0.81944: (Sim:1h3m12s) 
CPU  3 inst:   84000000 cyc:   85962482 now IPC :0.83847: AVG IPC :0.96490: L2-Pf-HR :0.96860: L2-HR :0.81674: (Sim:1h3m32s) 
CPU  2 inst:   83000004 cyc:   86137936 now IPC :0.81784: AVG IPC :0.95117: L2-Pf-HR :0.97542: L2-HR :0.83819: (Sim:1h3m40s) 
CPU  0 inst:   85000000 cyc:   86711136 now IPC :0.81770: AVG IPC :0.96813: L2-Pf-HR :0.97807: L2-HR :0.85393: (Sim:1h4m8s) 
CPU  1 inst:   84000000 cyc:   86744303 now IPC :0.83559: AVG IPC :0.95610: L2-Pf-HR :0.97054: L2-HR :0.81940: (Sim:1h4m9s) 
CPU  3 inst:   85000002 cyc:   87158449 now IPC :0.83615: AVG IPC :0.96312: L2-Pf-HR :0.96874: L2-HR :0.81714: (Sim:1h4m29s) 
CPU  2 inst:   84000000 cyc:   87363773 now IPC :0.81577: AVG IPC :0.94925: L2-Pf-HR :0.97537: L2-HR :0.83813: (Sim:1h4m38s) 
CPU  0 inst:   86000001 cyc:   87934096 now IPC :0.81769: AVG IPC :0.96602: L2-Pf-HR :0.97809: L2-HR :0.85402: (Sim:1h5m6s) 
CPU  1 inst:   85000005 cyc:   87961776 now IPC :0.82138: AVG IPC :0.95421: L2-Pf-HR :0.97043: L2-HR :0.81900: (Sim:1h5m7s) 
CPU  3 inst:   86000001 cyc:   88361962 now IPC :0.83090: AVG IPC :0.96130: L2-Pf-HR :0.96885: L2-HR :0.81753: (Sim:1h5m26s) 
CPU  2 inst:   85000001 cyc:   88542261 now IPC :0.84855: AVG IPC :0.94790: L2-Pf-HR :0.97541: L2-HR :0.83832: (Sim:1h5m35s) 
CPU  1 inst:   86000001 cyc:   89203692 now IPC :0.80520: AVG IPC :0.95212: L2-Pf-HR :0.97033: L2-HR :0.81877: (Sim:1h6m5s) 
CPU  0 inst:   87000003 cyc:   89264826 now IPC :0.75147: AVG IPC :0.96278: L2-Pf-HR :0.97774: L2-HR :0.85384: (Sim:1h6m8s) 
CPU  3 inst:   87000003 cyc:   89668227 now IPC :0.76554: AVG IPC :0.95841: L2-Pf-HR :0.96869: L2-HR :0.81802: (Sim:1h6m27s) 
CPU  2 inst:   86000001 cyc:   89695776 now IPC :0.86692: AVG IPC :0.94684: L2-Pf-HR :0.97548: L2-HR :0.83849: (Sim:1h6m29s) 
CPU  0 inst:   88000002 cyc:   90318044 now IPC :0.94947: AVG IPC :0.96263: L2-Pf-HR :0.97790: L2-HR :0.85395: (Sim:1h7m1s) 
CPU  1 inst:   87000003 cyc:   90414206 now IPC :0.82610: AVG IPC :0.95041: L2-Pf-HR :0.97005: L2-HR :0.81878: (Sim:1h7m6s) 
CPU  3 inst:   88000000 cyc:   90777798 now IPC :0.90125: AVG IPC :0.95771: L2-Pf-HR :0.96884: L2-HR :0.81798: (Sim:1h7m23s) 
CPU  2 inst:   87000003 cyc:   90827606 now IPC :0.88353: AVG IPC :0.94605: L2-Pf-HR :0.97506: L2-HR :0.83820: (Sim:1h7m25s) 
CPU  0 inst:   89000002 cyc:   91401233 now IPC :0.92320: AVG IPC :0.96215: L2-Pf-HR :0.97808: L2-HR :0.85415: (Sim:1h7m54s) 
CPU  1 inst:   88000002 cyc:   91590092 now IPC :0.85042: AVG IPC :0.94911: L2-Pf-HR :0.97026: L2-HR :0.81900: (Sim:1h8m3s) 
CPU  3 inst:   89000005 cyc:   91889640 now IPC :0.89941: AVG IPC :0.95699: L2-Pf-HR :0.96891: L2-HR :0.81769: (Sim:1h8m18s) 
CPU  2 inst:   88000002 cyc:   91927644 now IPC :0.90906: AVG IPC :0.94560: L2-Pf-HR :0.97519: L2-HR :0.83831: (Sim:1h8m20s) 
CPU  0 inst:   90000001 cyc:   92473663 now IPC :0.93246: AVG IPC :0.96181: L2-Pf-HR :0.97824: L2-HR :0.85444: (Sim:1h8m48s) 
CPU  1 inst:   89000003 cyc:   92685937 now IPC :0.91254: AVG IPC :0.94868: L2-Pf-HR :0.97053: L2-HR :0.81937: (Sim:1h8m59s) 
CPU  3 inst:   90000001 cyc:   92966413 now IPC :0.92870: AVG IPC :0.95666: L2-Pf-HR :0.96917: L2-HR :0.81814: (Sim:1h9m13s) 
CPU  2 inst:   89000004 cyc:   93036775 now IPC :0.90161: AVG IPC :0.94507: L2-Pf-HR :0.97532: L2-HR :0.83837: (Sim:1h9m16s) 
CPU  0 inst:   91000000 cyc:   93568977 now IPC :0.91298: AVG IPC :0.96123: L2-Pf-HR :0.97843: L2-HR :0.85464: (Sim:1h9m42s) 
CPU  1 inst:   90000001 cyc:   93776135 now IPC :0.91726: AVG IPC :0.94831: L2-Pf-HR :0.97069: L2-HR :0.81952: (Sim:1h9m53s) 
CPU  3 inst:   91000000 cyc:   94073013 now IPC :0.90367: AVG IPC :0.95603: L2-Pf-HR :0.96947: L2-HR :0.81850: (Sim:1h10m8s) 
CPU  2 inst:   90000001 cyc:   94099370 now IPC :0.94109: AVG IPC :0.94502: L2-Pf-HR :0.97545: L2-HR :0.83844: (Sim:1h10m9s) 
CPU  0 inst:   92000004 cyc:   94647450 now IPC :0.92724: AVG IPC :0.96084: L2-Pf-HR :0.97860: L2-HR :0.85489: (Sim:1h10m37s) 
CPU  1 inst:   91000000 cyc:   94875713 now IPC :0.90944: AVG IPC :0.94785: L2-Pf-HR :0.97079: L2-HR :0.81927: (Sim:1h10m48s) 
CPU  3 inst:   92000004 cyc:   95177077 now IPC :0.90575: AVG IPC :0.95544: L2-Pf-HR :0.96978: L2-HR :0.81899: (Sim:1h11m3s) 
CPU  2 inst:   91000000 cyc:   95195020 now IPC :0.91270: AVG IPC :0.94465: L2-Pf-HR :0.97560: L2-HR :0.83848: (Sim:1h11m4s) 
CPU  0 inst:   93000005 cyc:   95821595 now IPC :0.85168: AVG IPC :0.95949: L2-Pf-HR :0.97852: L2-HR :0.85493: (Sim:1h11m35s) 
CPU  1 inst:   92000004 cyc:   95987196 now IPC :0.89970: AVG IPC :0.94729: L2-Pf-HR :0.97094: L2-HR :0.81926: (Sim:1h11m43s) 
CPU  2 inst:   92000004 cyc:   96288787 now IPC :0.91428: AVG IPC :0.94430: L2-Pf-HR :0.97577: L2-HR :0.83867: (Sim:1h11m58s) 
CPU  3 inst:   93000002 cyc:   96388837 now IPC :0.82524: AVG IPC :0.95379: L2-Pf-HR :0.97000: L2-HR :0.81949: (Sim:1h12m3s) 
CPU  0 inst:   94000002 cyc:   96978101 now IPC :0.86467: AVG IPC :0.95834: L2-Pf-HR :0.97856: L2-HR :0.85464: (Sim:1h12m30s) 
CPU  1 inst:   93000002 cyc:   97228239 now IPC :0.80577: AVG IPC :0.94546: L2-Pf-HR :0.97088: L2-HR :0.81934: (Sim:1h12m42s) 
CPU  2 inst:   93000004 cyc:   97326511 now IPC :0.96365: AVG IPC :0.94451: L2-Pf-HR :0.97565: L2-HR :0.83853: (Sim:1h12m47s) 
CPU  3 inst:   94000002 cyc:   97521317 now IPC :0.88302: AVG IPC :0.95296: L2-Pf-HR :0.97004: L2-HR :0.81919: (Sim:1h12m58s) 
CPU  0 inst:   95000003 cyc:   98049846 now IPC :0.93306: AVG IPC :0.95806: L2-Pf-HR :0.97861: L2-HR :0.85442: (Sim:1h13m28s) 
CPU  1 inst:   94000002 cyc:   98143577 now IPC :1.09249: AVG IPC :0.94685: L2-Pf-HR :0.97101: L2-HR :0.81940: (Sim:1h13m33s) 
CPU  2 inst:   94000002 cyc:   98215177 now IPC :1.12528: AVG IPC :0.94616: L2-Pf-HR :0.97579: L2-HR :0.83864: (Sim:1h13m35s) 
CPU  3 inst:   95000003 cyc:   98558561 now IPC :0.96409: AVG IPC :0.95308: L2-Pf-HR :0.96998: L2-HR :0.81854: (Sim:1h13m45s) 
CPU  0 inst:   96000004 cyc:   99182942 now IPC :0.88254: AVG IPC :0.95719: L2-Pf-HR :0.97867: L2-HR :0.85417: (Sim:1h14m3s) 
CPU  1 inst:   95000003 cyc:   99280189 now IPC :0.87981: AVG IPC :0.94607: L2-Pf-HR :0.97116: L2-HR :0.81942: (Sim:1h14m6s) 
CPU  2 inst:   95000003 cyc:   99296045 now IPC :0.92518: AVG IPC :0.94593: L2-Pf-HR :0.97593: L2-HR :0.83867: (Sim:1h14m7s) 
CPU  3 inst:   96000004 cyc:   99483518 now IPC :1.08113: AVG IPC :0.95428: L2-Pf-HR :0.96997: L2-HR :0.81799: (Sim:1h14m16s) 
CPU  0 inst:   97000002 cyc:  100199101 now IPC :0.98410: AVG IPC :0.95747: L2-Pf-HR :0.97838: L2-HR :0.85370: (Sim:1h14m53s) 
CPU  1 inst:   96000004 cyc:  100392394 now IPC :0.89912: AVG IPC :0.94555: L2-Pf-HR :0.97129: L2-HR :0.81934: (Sim:1h15m3s) 
CPU  2 inst:   96000004 cyc:  100446110 now IPC :0.86952: AVG IPC :0.94505: L2-Pf-HR :0.97606: L2-HR :0.83875: (Sim:1h15m5s) 
CPU  3 inst:   97000002 cyc:  100621924 now IPC :0.87842: AVG IPC :0.95341: L2-Pf-HR :0.96946: L2-HR :0.81704: (Sim:1h15m12s) 
CPU  0 inst:   98000000 cyc:  101401604 now IPC :0.83160: AVG IPC :0.95596: L2-Pf-HR :0.97835: L2-HR :0.85362: (Sim:1h15m52s) 
CPU  3 inst:   98000000 cyc:  101705803 now IPC :0.92261: AVG IPC :0.95308: L2-Pf-HR :0.96942: L2-HR :0.81694: (Sim:1h16m6s) 
CPU  1 inst:   97000002 cyc:  101733256 now IPC :0.74579: AVG IPC :0.94289: L2-Pf-HR :0.97101: L2-HR :0.81910: (Sim:1h16m7s) 
CPU  2 inst:   97000002 cyc:  101794001 now IPC :0.74190: AVG IPC :0.94233: L2-Pf-HR :0.97580: L2-HR :0.83852: (Sim:1h16m10s) 
CPU  0 inst:   99000001 cyc:  102582369 now IPC :0.84691: AVG IPC :0.95469: L2-Pf-HR :0.97838: L2-HR :0.85377: (Sim:1h16m50s) 
CPU  3 inst:   99000001 cyc:  102731124 now IPC :0.97531: AVG IPC :0.95331: L2-Pf-HR :0.96926: L2-HR :0.81663: (Sim:1h16m58s) 
CPU  1 inst:   98000000 cyc:  102936928 now IPC :0.83079: AVG IPC :0.94157: L2-Pf-HR :0.97101: L2-HR :0.81915: (Sim:1h17m8s) 
CPU  2 inst:   98000000 cyc:  103043559 now IPC :0.80028: AVG IPC :0.94059: L2-Pf-HR :0.97581: L2-HR :0.83861: (Sim:1h17m13s) 
CPU  0 inst:  100000002 cyc:  103832389 now IPC :0.79999: AVG IPC :0.95281: L2-Pf-HR :0.97842: L2-HR :0.85391: (Sim:1h17m52s) 
CPU  3 inst:  100000002 cyc:  103875987 now IPC :0.87347: AVG IPC :0.95242: L2-Pf-HR :0.96926: L2-HR :0.81682: (Sim:1h17m54s) 
CPU  1 inst:   99000001 cyc:  104041274 now IPC :0.90551: AVG IPC :0.94118: L2-Pf-HR :0.97106: L2-HR :0.81950: (Sim:1h18m2s) 
CPU  2 inst:   99000001 cyc:  104200539 now IPC :0.86432: AVG IPC :0.93974: L2-Pf-HR :0.97582: L2-HR :0.83872: (Sim:1h18m10s) 
CPU  0 inst:  101000001 cyc:  105041967 now IPC :0.82673: AVG IPC :0.95135: L2-Pf-HR :0.97843: L2-HR :0.85404: (Sim:1h18m53s) 
CPU  3 inst:  101000001 cyc:  105089966 now IPC :0.82374: AVG IPC :0.95092: L2-Pf-HR :0.96935: L2-HR :0.81714: (Sim:1h18m55s) 
CPU  1 inst:  100000005 cyc:  105114415 now IPC :0.93185: AVG IPC :0.94108: L2-Pf-HR :0.97103: L2-HR :0.81952: (Sim:1h18m57s) 
CPU  2 inst:  100000002 cyc:  105274353 now IPC :0.93126: AVG IPC :0.93965: L2-Pf-HR :0.97577: L2-HR :0.83863: (Sim:1h19m5s) 
CPU  1 inst:  101000001 cyc:  106228697 now IPC :0.89744: AVG IPC :0.94062: L2-Pf-HR :0.97088: L2-HR :0.81923: (Sim:1h19m52s) 
CPU  0 inst:  102000000 cyc:  106286669 now IPC :0.80340: AVG IPC :0.94960: L2-Pf-HR :0.97847: L2-HR :0.85415: (Sim:1h19m55s) 
CPU  3 inst:  102000003 cyc:  106341652 now IPC :0.79892: AVG IPC :0.94911: L2-Pf-HR :0.96947: L2-HR :0.81747: (Sim:1h19m58s) 
CPU  2 inst:  101000001 cyc:  106354858 now IPC :0.92549: AVG IPC :0.93950: L2-Pf-HR :0.97577: L2-HR :0.83875: (Sim:1h19m59s) 
CPU  0 inst:  103000003 cyc:  107442542 now IPC :0.86515: AVG IPC :0.94868: L2-Pf-HR :0.97850: L2-HR :0.85423: (Sim:1h20m52s) 
CPU  1 inst:  102000000 cyc:  107518550 now IPC :0.77528: AVG IPC :0.93862: L2-Pf-HR :0.97078: L2-HR :0.81901: (Sim:1h20m55s) 
CPU  2 inst:  102000002 cyc:  107587348 now IPC :0.81137: AVG IPC :0.93802: L2-Pf-HR :0.97582: L2-HR :0.83890: (Sim:1h20m58s) 
CPU  3 inst:  103000003 cyc:  107601165 now IPC :0.79396: AVG IPC :0.94728: L2-Pf-HR :0.96964: L2-HR :0.81808: (Sim:1h20m58s) 
CPU  0 inst:  104000001 cyc:  108634986 now IPC :0.83861: AVG IPC :0.94746: L2-Pf-HR :0.97838: L2-HR :0.85402: (Sim:1h21m45s) 
CPU  3 inst:  104000001 cyc:  108974757 now IPC :0.72802: AVG IPC :0.94449: L2-Pf-HR :0.96943: L2-HR :0.81787: (Sim:1h22m2s) 
CPU  1 inst:  103000003 cyc:  108987678 now IPC :0.68068: AVG IPC :0.93511: L2-Pf-HR :0.97085: L2-HR :0.81921: (Sim:1h22m3s) 
CPU  2 inst:  103000003 cyc:  109006332 now IPC :0.70473: AVG IPC :0.93496: L2-Pf-HR :0.97581: L2-HR :0.83888: (Sim:1h22m4s) 
CPU  0 inst:  105000000 cyc:  109860309 now IPC :0.81611: AVG IPC :0.94598: L2-Pf-HR :0.97853: L2-HR :0.85424: (Sim:1h22m42s) 
CPU  3 inst:  105000005 cyc:  110044126 now IPC :0.93513: AVG IPC :0.94440: L2-Pf-HR :0.96950: L2-HR :0.81772: (Sim:1h22m50s) 
CPU  1 inst:  104000001 cyc:  110626434 now IPC :0.61022: AVG IPC :0.93025: L2-Pf-HR :0.97074: L2-HR :0.81912: (Sim:1h23m15s) 
CPU  2 inst:  104000001 cyc:  110646876 now IPC :0.60955: AVG IPC :0.93009: L2-Pf-HR :0.97565: L2-HR :0.83871: (Sim:1h23m15s) 
CPU  0 inst:  106000005 cyc:  111459668 now IPC :0.62525: AVG IPC :0.94134: L2-Pf-HR :0.97867: L2-HR :0.85440: (Sim:1h23m48s) 
CPU  3 inst:  106000005 cyc:  111521259 now IPC :0.67699: AVG IPC :0.94082: L2-Pf-HR :0.96970: L2-HR :0.81788: (Sim:1h23m50s) 
CPU  1 inst:  105000000 cyc:  112239220 now IPC :0.62004: AVG IPC :0.92576: L2-Pf-HR :0.97097: L2-HR :0.81948: (Sim:1h24m19s) 
CPU  2 inst:  105000000 cyc:  112382847 now IPC :0.57605: AVG IPC :0.92457: L2-Pf-HR :0.97579: L2-HR :0.83886: (Sim:1h24m25s) 
CPU  0 inst:  107000005 cyc:  113092576 now IPC :0.61240: AVG IPC :0.93655: L2-Pf-HR :0.97881: L2-HR :0.85465: (Sim:1h24m57s) 
CPU  3 inst:  107000005 cyc:  113129959 now IPC :0.62162: AVG IPC :0.93625: L2-Pf-HR :0.96993: L2-HR :0.81829: (Sim:1h24m58s) 
CPU  1 inst:  106000005 cyc:  113358435 now IPC :0.89349: AVG IPC :0.92544: L2-Pf-HR :0.97113: L2-HR :0.81957: (Sim:1h25m9s) 
CPU  2 inst:  106000005 cyc:  113874572 now IPC :0.67037: AVG IPC :0.92121: L2-Pf-HR :0.97589: L2-HR :0.83880: (Sim:1h25m33s) 
CPU  1 inst:  107000005 cyc:  114385693 now IPC :0.97347: AVG IPC :0.92587: L2-Pf-HR :0.97120: L2-HR :0.81948: (Sim:1h25m55s) 
CPU  0 inst:  108000003 cyc:  114579305 now IPC :0.67262: AVG IPC :0.93310: L2-Pf-HR :0.97897: L2-HR :0.85485: (Sim:1h26m2s) 
CPU  3 inst:  108000003 cyc:  114675680 now IPC :0.64695: AVG IPC :0.93231: L2-Pf-HR :0.97016: L2-HR :0.81858: (Sim:1h26m6s) 
CPU  2 inst:  107000005 cyc:  115447908 now IPC :0.63559: AVG IPC :0.91729: L2-Pf-HR :0.97602: L2-HR :0.83894: (Sim:1h26m38s) 
CPU  0 inst:  109000000 cyc:  115641553 now IPC :0.94140: AVG IPC :0.93317: L2-Pf-HR :0.97912: L2-HR :0.85506: (Sim:1h26m47s) 
CPU  1 inst:  108000003 cyc:  115807982 now IPC :0.70309: AVG IPC :0.92311: L2-Pf-HR :0.97130: L2-HR :0.81934: (Sim:1h26m54s) 
CPU  3 inst:  109000004 cyc:  116146222 now IPC :0.68002: AVG IPC :0.92909: L2-Pf-HR :0.97049: L2-HR :0.81924: (Sim:1h27m10s) 
CPU  2 inst:  108000003 cyc:  116914968 now IPC :0.68163: AVG IPC :0.91431: L2-Pf-HR :0.97616: L2-HR :0.83906: (Sim:1h27m43s) 
CPU  0 inst:  110000000 cyc:  117025853 now IPC :0.72239: AVG IPC :0.93066: L2-Pf-HR :0.97897: L2-HR :0.85473: (Sim:1h27m48s) 
CPU  1 inst:  109000000 cyc:  117186162 now IPC :0.72559: AVG IPC :0.92077: L2-Pf-HR :0.97152: L2-HR :0.81965: (Sim:1h27m55s) 
CPU  3 inst:  110000000 cyc:  117587178 now IPC :0.69398: AVG IPC :0.92619: L2-Pf-HR :0.97029: L2-HR :0.81898: (Sim:1h28m13s) 
CPU  2 inst:  109000000 cyc:  118062338 now IPC :0.87156: AVG IPC :0.91389: L2-Pf-HR :0.97627: L2-HR :0.83913: (Sim:1h28m36s) 
CPU  0 inst:  111000004 cyc:  118231518 now IPC :0.82942: AVG IPC :0.92962: L2-Pf-HR :0.97901: L2-HR :0.85450: (Sim:1h28m43s) 
CPU  1 inst:  110000001 cyc:  118349702 now IPC :0.85945: AVG IPC :0.92016: L2-Pf-HR :0.97147: L2-HR :0.81960: (Sim:1h28m48s) 
CPU  3 inst:  111000003 cyc:  118817342 now IPC :0.81290: AVG IPC :0.92500: L2-Pf-HR :0.97022: L2-HR :0.81837: (Sim:1h29m8s) 
CPU  2 inst:  110000001 cyc:  119477060 now IPC :0.70685: AVG IPC :0.91142: L2-Pf-HR :0.97615: L2-HR :0.83902: (Sim:1h29m26s) 
CPU  0 inst:  112000003 cyc:  119594499 now IPC :0.73369: AVG IPC :0.92737: L2-Pf-HR :0.97906: L2-HR :0.85432: (Sim:1h29m31s) 
CPU  1 inst:  111000004 cyc:  119598783 now IPC :0.80059: AVG IPC :0.91890: L2-Pf-HR :0.97158: L2-HR :0.81958: (Sim:1h29m31s) 
CPU  3 inst:  112000003 cyc:  119781179 now IPC :1.03752: AVG IPC :0.92592: L2-Pf-HR :0.97022: L2-HR :0.81795: (Sim:1h29m40s) 
CPU  2 inst:  111000004 cyc:  120479003 now IPC :0.99806: AVG IPC :0.91214: L2-Pf-HR :0.97624: L2-HR :0.83902: (Sim:1h30m3s) 
CPU  1 inst:  112000003 cyc:  120695048 now IPC :0.91219: AVG IPC :0.91884: L2-Pf-HR :0.97169: L2-HR :0.81956: (Sim:1h30m9s) 
CPU  0 inst:  113000002 cyc:  120710571 now IPC :0.89600: AVG IPC :0.92707: L2-Pf-HR :0.97910: L2-HR :0.85413: (Sim:1h30m9s) 
CPU  3 inst:  113000002 cyc:  120786269 now IPC :0.99493: AVG IPC :0.92650: L2-Pf-HR :0.97016: L2-HR :0.81741: (Sim:1h30m11s) 
CPU  2 inst:  112000003 cyc:  121679373 now IPC :0.83308: AVG IPC :0.91136: L2-Pf-HR :0.97636: L2-HR :0.83911: (Sim:1h30m34s) 
CPU  1 inst:  113000002 cyc:  121874045 now IPC :0.84818: AVG IPC :0.91815: L2-Pf-HR :0.97179: L2-HR :0.81956: (Sim:1h30m39s) 
CPU  0 inst:  114000003 cyc:  122147218 now IPC :0.69607: AVG IPC :0.92434: L2-Pf-HR :0.97876: L2-HR :0.85381: (Sim:1h30m46s) 
CPU  3 inst:  114000002 cyc:  122252693 now IPC :0.68193: AVG IPC :0.92354: L2-Pf-HR :0.96975: L2-HR :0.81699: (Sim:1h30m48s) 
CPU  2 inst:  113000002 cyc:  122809178 now IPC :0.88511: AVG IPC :0.91111: L2-Pf-HR :0.97645: L2-HR :0.83913: (Sim:1h31m3s) 
CPU  0 inst:  115000000 cyc:  123209231 now IPC :0.94161: AVG IPC :0.92449: L2-Pf-HR :0.97878: L2-HR :0.85392: (Sim:1h31m13s) 
CPU  1 inst:  114000005 cyc:  123327575 now IPC :0.68798: AVG IPC :0.91542: L2-Pf-HR :0.97142: L2-HR :0.81937: (Sim:1h31m16s) 
CPU  3 inst:  115000000 cyc:  123587165 now IPC :0.74936: AVG IPC :0.92164: L2-Pf-HR :0.96961: L2-HR :0.81671: (Sim:1h31m22s) 
CPU  0 inst:  116000002 cyc:  124237053 now IPC :0.97293: AVG IPC :0.92489: L2-Pf-HR :0.97878: L2-HR :0.85405: (Sim:1h31m39s) 
CPU  2 inst:  114000001 cyc:  124358511 now IPC :0.64544: AVG IPC :0.90778: L2-Pf-HR :0.97615: L2-HR :0.83886: (Sim:1h31m42s) 
CPU  1 inst:  115000000 cyc:  124713432 now IPC :0.72157: AVG IPC :0.91325: L2-Pf-HR :0.97146: L2-HR :0.81962: (Sim:1h31m50s) 
CPU  3 inst:  116000002 cyc:  125035602 now IPC :0.69040: AVG IPC :0.91894: L2-Pf-HR :0.96961: L2-HR :0.81681: (Sim:1h31m58s) 
CPU  0 inst:  117000000 cyc:  125558921 now IPC :0.75650: AVG IPC :0.92310: L2-Pf-HR :0.97877: L2-HR :0.85416: (Sim:1h32m9s) 
CPU  2 inst:  115000000 cyc:  125944361 now IPC :0.63058: AVG IPC :0.90426: L2-Pf-HR :0.97616: L2-HR :0.83898: (Sim:1h32m18s) 
CPU  1 inst:  116000002 cyc:  126198717 now IPC :0.67327: AVG IPC :0.91040: L2-Pf-HR :0.97147: L2-HR :0.81974: (Sim:1h32m28s) 
CPU  3 inst:  117000000 cyc:  126696429 now IPC :0.60211: AVG IPC :0.91476: L2-Pf-HR :0.96968: L2-HR :0.81708: (Sim:1h32m50s) 
CPU  0 inst:  118000001 cyc:  127157466 now IPC :0.62557: AVG IPC :0.91933: L2-Pf-HR :0.97878: L2-HR :0.85424: (Sim:1h33m10s) 
CPU  1 inst:  117000000 cyc:  127373305 now IPC :0.85136: AVG IPC :0.90985: L2-Pf-HR :0.97137: L2-HR :0.81949: (Sim:1h33m19s) 
CPU  2 inst:  116000002 cyc:  127572563 now IPC :0.61418: AVG IPC :0.90053: L2-Pf-HR :0.97611: L2-HR :0.83896: (Sim:1h33m24s) 
CPU  3 inst:  118000001 cyc:  128236979 now IPC :0.64912: AVG IPC :0.91154: L2-Pf-HR :0.96970: L2-HR :0.81728: (Sim:1h33m39s) 
CPU  1 inst:  118000001 cyc:  128513580 now IPC :0.87698: AVG IPC :0.90956: L2-Pf-HR :0.97127: L2-HR :0.81923: (Sim:1h33m46s) 
CPU  0 inst:  119000001 cyc:  128751059 now IPC :0.62751: AVG IPC :0.91569: L2-Pf-HR :0.97879: L2-HR :0.85431: (Sim:1h33m52s) 
CPU  2 inst:  117000000 cyc:  129137392 now IPC :0.63905: AVG IPC :0.89733: L2-Pf-HR :0.97612: L2-HR :0.83904: (Sim:1h34m1s) 
CPU  3 inst:  119000001 cyc:  129396688 now IPC :0.86229: AVG IPC :0.91110: L2-Pf-HR :0.96985: L2-HR :0.81777: (Sim:1h34m7s) 
CPU  1 inst:  119000001 cyc:  129853289 now IPC :0.74643: AVG IPC :0.90786: L2-Pf-HR :0.97129: L2-HR :0.81936: (Sim:1h34m18s) 
CPU  0 inst:  120000002 cyc:  130230987 now IPC :0.67571: AVG IPC :0.91295: L2-Pf-HR :0.97869: L2-HR :0.85419: (Sim:1h34m28s) 
CPU  2 inst:  118000001 cyc:  130424744 now IPC :0.77679: AVG IPC :0.89614: L2-Pf-HR :0.97613: L2-HR :0.83910: (Sim:1h34m35s) 
CPU  3 inst:  120000002 cyc:  130592863 now IPC :0.83600: AVG IPC :0.91040: L2-Pf-HR :0.96971: L2-HR :0.81774: (Sim:1h34m43s) 
CPU  1 inst:  120000002 cyc:  131112610 now IPC :0.79408: AVG IPC :0.90676: L2-Pf-HR :0.97120: L2-HR :0.81940: (Sim:1h35m9s) 
CPU  0 inst:  121000002 cyc:  131362655 now IPC :0.88365: AVG IPC :0.91269: L2-Pf-HR :0.97880: L2-HR :0.85429: (Sim:1h35m21s) 
CPU  2 inst:  119000000 cyc:  131455309 now IPC :0.97034: AVG IPC :0.89672: L2-Pf-HR :0.97607: L2-HR :0.83904: (Sim:1h35m26s) 
CPU  3 inst:  121000002 cyc:  131571183 now IPC :1.02216: AVG IPC :0.91124: L2-Pf-HR :0.96977: L2-HR :0.81752: (Sim:1h35m31s) 
CPU  1 inst:  121000002 cyc:  132310287 now IPC :0.83495: AVG IPC :0.90611: L2-Pf-HR :0.97138: L2-HR :0.81959: (Sim:1h35m58s) 
CPU  0 inst:  122000001 cyc:  132527340 now IPC :0.85860: AVG IPC :0.91221: L2-Pf-HR :0.97894: L2-HR :0.85452: (Sim:1h36m4s) 
CPU  3 inst:  122000002 cyc:  132672190 now IPC :0.90826: AVG IPC :0.91122: L2-Pf-HR :0.96993: L2-HR :0.81773: (Sim:1h36m8s) 
CPU  2 inst:  120000002 cyc:  132696519 now IPC :0.80567: AVG IPC :0.89586: L2-Pf-HR :0.97595: L2-HR :0.83897: (Sim:1h36m8s) 
CPU  1 inst:  122000000 cyc:  133488542 now IPC :0.84871: AVG IPC :0.90560: L2-Pf-HR :0.97154: L2-HR :0.81983: (Sim:1h36m31s) 
CPU  0 inst:  123000000 cyc:  133645755 now IPC :0.89412: AVG IPC :0.91206: L2-Pf-HR :0.97906: L2-HR :0.85466: (Sim:1h36m35s) 
CPU  2 inst:  121000002 cyc:  133651746 now IPC :1.04687: AVG IPC :0.89695: L2-Pf-HR :0.97603: L2-HR :0.83898: (Sim:1h36m35s) 
CPU  3 inst:  123000000 cyc:  133829027 now IPC :0.86442: AVG IPC :0.91081: L2-Pf-HR :0.97013: L2-HR :0.81803: (Sim:1h36m41s) 
CPU  2 inst:  122000001 cyc:  134575652 now IPC :1.08236: AVG IPC :0.89823: L2-Pf-HR :0.97611: L2-HR :0.83901: (Sim:1h37m7s) 
CPU  1 inst:  123000000 cyc:  134588471 now IPC :0.90915: AVG IPC :0.90562: L2-Pf-HR :0.97160: L2-HR :0.81965: (Sim:1h37m8s) 
CPU  0 inst:  124000000 cyc:  134632954 now IPC :1.01297: AVG IPC :0.91281: L2-Pf-HR :0.97918: L2-HR :0.85486: (Sim:1h37m10s) 
CPU  3 inst:  124000000 cyc:  134956533 now IPC :0.88691: AVG IPC :0.91061: L2-Pf-HR :0.97033: L2-HR :0.81831: (Sim:1h37m27s) 
CPU  0 inst:  125000000 cyc:  135565503 now IPC :1.07233: AVG IPC :0.91391: L2-Pf-HR :0.97931: L2-HR :0.85502: (Sim:1h37m51s) 
CPU  2 inst:  123000000 cyc:  135601638 now IPC :0.97467: AVG IPC :0.89882: L2-Pf-HR :0.97620: L2-HR :0.83906: (Sim:1h37m53s) 
CPU  1 inst:  124000000 cyc:  135647385 now IPC :0.94436: AVG IPC :0.90593: L2-Pf-HR :0.97165: L2-HR :0.81952: (Sim:1h37m56s) 
CPU  3 inst:  125000000 cyc:  136087463 now IPC :0.88423: AVG IPC :0.91039: L2-Pf-HR :0.97060: L2-HR :0.81879: (Sim:1h38m17s) 
CPU  1 inst:  125000000 cyc:  136563416 now IPC :1.09167: AVG IPC :0.90718: L2-Pf-HR :0.97183: L2-HR :0.81972: (Sim:1h38m30s) 
CPU  0 inst:  126000001 cyc:  136677660 now IPC :0.89915: AVG IPC :0.91379: L2-Pf-HR :0.97919: L2-HR :0.85479: (Sim:1h38m33s) 
CPU  2 inst:  124000000 cyc:  136736123 now IPC :0.88146: AVG IPC :0.89867: L2-Pf-HR :0.97632: L2-HR :0.83919: (Sim:1h38m35s) 
CPU  3 inst:  126000001 cyc:  137239654 now IPC :0.86791: AVG IPC :0.91003: L2-Pf-HR :0.97049: L2-HR :0.81876: (Sim:1h38m51s) 
CPU  1 inst:  126000001 cyc:  137564946 now IPC :0.99847: AVG IPC :0.90785: L2-Pf-HR :0.97178: L2-HR :0.81969: (Sim:1h39m1s) 
CPU  2 inst:  125000000 cyc:  137627048 now IPC :1.12243: AVG IPC :0.90013: L2-Pf-HR :0.97640: L2-HR :0.83918: (Sim:1h39m3s) 
CPU  0 inst:  127000005 cyc:  137693021 now IPC :0.98488: AVG IPC :0.91432: L2-Pf-HR :0.97923: L2-HR :0.85463: (Sim:1h39m5s) 
CPU  3 inst:  127000005 cyc:  138342329 now IPC :0.90689: AVG IPC :0.91000: L2-Pf-HR :0.97044: L2-HR :0.81823: (Sim:1h39m22s) 
CPU  1 inst:  127000004 cyc:  138519681 now IPC :1.04741: AVG IPC :0.90882: L2-Pf-HR :0.97187: L2-HR :0.81971: (Sim:1h39m27s) 
CPU  0 inst:  128000004 cyc:  138963696 now IPC :0.78698: AVG IPC :0.91315: L2-Pf-HR :0.97927: L2-HR :0.85448: (Sim:1h39m38s) 
CPU  2 inst:  126000001 cyc:  138996667 now IPC :0.73013: AVG IPC :0.89844: L2-Pf-HR :0.97631: L2-HR :0.83911: (Sim:1h39m39s) 
CPU  3 inst:  128000000 cyc:  139728773 now IPC :0.72127: AVG IPC :0.90812: L2-Pf-HR :0.97043: L2-HR :0.81786: (Sim:1h39m57s) 
CPU  1 inst:  128000003 cyc:  139751208 now IPC :0.81200: AVG IPC :0.90796: L2-Pf-HR :0.97197: L2-HR :0.81971: (Sim:1h39m58s) 
CPU  0 inst:  129000002 cyc:  140108048 now IPC :0.87386: AVG IPC :0.91282: L2-Pf-HR :0.97930: L2-HR :0.85426: (Sim:1h40m8s) 
CPU  2 inst:  127000005 cyc:  140195459 now IPC :0.83418: AVG IPC :0.89789: L2-Pf-HR :0.97640: L2-HR :0.83915: (Sim:1h40m11s) 
CPU  3 inst:  129000001 cyc:  140967358 now IPC :0.80737: AVG IPC :0.90722: L2-Pf-HR :0.97040: L2-HR :0.81737: (Sim:1h40m30s) 
CPU  1 inst:  129000002 cyc:  141009252 now IPC :0.79488: AVG IPC :0.90695: L2-Pf-HR :0.97206: L2-HR :0.81965: (Sim:1h40m32s) 
CPU  2 inst:  128000000 cyc:  141178371 now IPC :1.01738: AVG IPC :0.89873: L2-Pf-HR :0.97651: L2-HR :0.83922: (Sim:1h40m37s) 
CPU  0 inst:  130000000 cyc:  141571148 now IPC :0.68348: AVG IPC :0.91044: L2-Pf-HR :0.97910: L2-HR :0.85402: (Sim:1h40m44s) 
CPU  2 inst:  129000002 cyc:  142459412 now IPC :0.78062: AVG IPC :0.89766: L2-Pf-HR :0.97660: L2-HR :0.83923: (Sim:1h41m6s) 
CPU  3 inst:  130000000 cyc:  142486360 now IPC :0.65833: AVG IPC :0.90455: L2-Pf-HR :0.97005: L2-HR :0.81708: (Sim:1h41m7s) 
CPU  1 inst:  130000000 cyc:  142632542 now IPC :0.61603: AVG IPC :0.90361: L2-Pf-HR :0.97179: L2-HR :0.81953: (Sim:1h41m11s) 
CPU  0 inst:  131000000 cyc:  143041021 now IPC :0.68033: AVG IPC :0.90805: L2-Pf-HR :0.97907: L2-HR :0.85407: (Sim:1h41m20s) 
CPU  3 inst:  131000001 cyc:  143584066 now IPC :0.91099: AVG IPC :0.90460: L2-Pf-HR :0.96993: L2-HR :0.81679: (Sim:1h41m35s) 
CPU  2 inst:  130000000 cyc:  143851742 now IPC :0.71822: AVG IPC :0.89591: L2-Pf-HR :0.97634: L2-HR :0.83912: (Sim:1h41m41s) 
CPU  1 inst:  131000003 cyc:  144024474 now IPC :0.71843: AVG IPC :0.90181: L2-Pf-HR :0.97178: L2-HR :0.81971: (Sim:1h41m46s) 
CPU  0 inst:  132000005 cyc:  144471761 now IPC :0.69894: AVG IPC :0.90597: L2-Pf-HR :0.97909: L2-HR :0.85420: (Sim:1h41m57s) 
CPU  3 inst:  132000005 cyc:  144678701 now IPC :0.91355: AVG IPC :0.90467: L2-Pf-HR :0.96990: L2-HR :0.81679: (Sim:1h42m2s) 
CPU  2 inst:  131000003 cyc:  145240534 now IPC :0.72005: AVG IPC :0.89422: L2-Pf-HR :0.97633: L2-HR :0.83916: (Sim:1h42m16s) 
CPU  1 inst:  132000005 cyc:  145304875 now IPC :0.78101: AVG IPC :0.90074: L2-Pf-HR :0.97178: L2-HR :0.81991: (Sim:1h42m18s) 
CPU  0 inst:  133000000 cyc:  145874677 now IPC :0.71280: AVG IPC :0.90410: L2-Pf-HR :0.97908: L2-HR :0.85429: (Sim:1h42m33s) 
CPU  3 inst:  133000000 cyc:  145974668 now IPC :0.77162: AVG IPC :0.90348: L2-Pf-HR :0.96993: L2-HR :0.81702: (Sim:1h42m35s) 
CPU  1 inst:  133000000 cyc:  146387310 now IPC :0.92384: AVG IPC :0.90091: L2-Pf-HR :0.97171: L2-HR :0.81968: (Sim:1h42m46s) 
CPU  2 inst:  132000005 cyc:  146575092 now IPC :0.74931: AVG IPC :0.89289: L2-Pf-HR :0.97631: L2-HR :0.83911: (Sim:1h42m51s) 
CPU  0 inst:  134000000 cyc:  147293053 now IPC :0.70503: AVG IPC :0.90217: L2-Pf-HR :0.97909: L2-HR :0.85440: (Sim:1h43m9s) 
CPU  3 inst:  134000000 cyc:  147358870 now IPC :0.72244: AVG IPC :0.90177: L2-Pf-HR :0.96999: L2-HR :0.81727: (Sim:1h43m11s) 
CPU  1 inst:  134000000 cyc:  147476731 now IPC :0.91792: AVG IPC :0.90104: L2-Pf-HR :0.97161: L2-HR :0.81945: (Sim:1h43m14s) 
CPU  2 inst:  133000000 cyc:  147929382 now IPC :0.73839: AVG IPC :0.89146: L2-Pf-HR :0.97633: L2-HR :0.83918: (Sim:1h43m24s) 
CPU  0 inst:  135000002 cyc:  148646597 now IPC :0.73880: AVG IPC :0.90067: L2-Pf-HR :0.97909: L2-HR :0.85442: (Sim:1h43m42s) 
CPU  3 inst:  135000002 cyc:  148826701 now IPC :0.68128: AVG IPC :0.89958: L2-Pf-HR :0.97011: L2-HR :0.81768: (Sim:1h43m46s) 
CPU  1 inst:  135000002 cyc:  148846069 now IPC :0.73028: AVG IPC :0.89946: L2-Pf-HR :0.97163: L2-HR :0.81951: (Sim:1h43m47s) 
CPU  2 inst:  134000000 cyc:  149200493 now IPC :0.78671: AVG IPC :0.89057: L2-Pf-HR :0.97638: L2-HR :0.83933: (Sim:1h43m55s) 
CPU  0 inst:  136000001 cyc:  149955551 now IPC :0.76397: AVG IPC :0.89947: L2-Pf-HR :0.97898: L2-HR :0.85432: (Sim:1h44m14s) 
CPU  3 inst:  136000001 cyc:  150263570 now IPC :0.69596: AVG IPC :0.89762: L2-Pf-HR :0.97002: L2-HR :0.81771: (Sim:1h44m23s) 
CPU  1 inst:  136000001 cyc:  150274150 now IPC :0.70024: AVG IPC :0.89755: L2-Pf-HR :0.97156: L2-HR :0.81951: (Sim:1h44m23s) 
CPU  2 inst:  135000002 cyc:  150325573 now IPC :0.88883: AVG IPC :0.89055: L2-Pf-HR :0.97638: L2-HR :0.83927: (Sim:1h44m25s) 
CPU  0 inst:  137000001 cyc:  151014969 now IPC :0.94391: AVG IPC :0.89978: L2-Pf-HR :0.97907: L2-HR :0.85446: (Sim:1h44m43s) 
CPU  3 inst:  137000001 cyc:  151454439 now IPC :0.83972: AVG IPC :0.89716: L2-Pf-HR :0.97006: L2-HR :0.81760: (Sim:1h44m55s) 
CPU  1 inst:  137000001 cyc:  151472018 now IPC :0.83482: AVG IPC :0.89705: L2-Pf-HR :0.97169: L2-HR :0.81974: (Sim:1h44m56s) 
CPU  2 inst:  136000001 cyc:  151552069 now IPC :0.81533: AVG IPC :0.88994: L2-Pf-HR :0.97623: L2-HR :0.83919: (Sim:1h44m58s) 
CPU  0 inst:  138000001 cyc:  152163740 now IPC :0.87050: AVG IPC :0.89956: L2-Pf-HR :0.97918: L2-HR :0.85457: (Sim:1h45m15s) 
CPU  3 inst:  138000001 cyc:  152554384 now IPC :0.90914: AVG IPC :0.89725: L2-Pf-HR :0.97019: L2-HR :0.81762: (Sim:1h45m26s) 
CPU  1 inst:  138000001 cyc:  152564204 now IPC :0.91559: AVG IPC :0.89719: L2-Pf-HR :0.97184: L2-HR :0.81992: (Sim:1h45m26s) 
CPU  2 inst:  137000001 cyc:  152644894 now IPC :0.91506: AVG IPC :0.89012: L2-Pf-HR :0.97631: L2-HR :0.83927: (Sim:1h45m29s) 
CPU  0 inst:  139000005 cyc:  153251371 now IPC :0.91943: AVG IPC :0.89970: L2-Pf-HR :0.97930: L2-HR :0.85474: (Sim:1h45m46s) 
CPU  3 inst:  139000003 cyc:  153673332 now IPC :0.89370: AVG IPC :0.89722: L2-Pf-HR :0.97038: L2-HR :0.81796: (Sim:1h45m58s) 
CPU  1 inst:  139000003 cyc:  153685407 now IPC :0.89190: AVG IPC :0.89715: L2-Pf-HR :0.97190: L2-HR :0.81984: (Sim:1h45m58s) 
CPU  2 inst:  138000001 cyc:  153723955 now IPC :0.92673: AVG IPC :0.89038: L2-Pf-HR :0.97639: L2-HR :0.83924: (Sim:1h45m59s) 
CPU  0 inst:  140000003 cyc:  154333476 now IPC :0.92412: AVG IPC :0.89988: L2-Pf-HR :0.97940: L2-HR :0.85488: (Sim:1h46m16s) 
CPU  3 inst:  140000000 cyc:  154757051 now IPC :0.92275: AVG IPC :0.89740: L2-Pf-HR :0.97055: L2-HR :0.81820: (Sim:1h46m29s) 
CPU  2 inst:  139000000 cyc:  154763865 now IPC :0.96162: AVG IPC :0.89086: L2-Pf-HR :0.97649: L2-HR :0.83933: (Sim:1h46m29s) 
CPU  1 inst:  140000003 cyc:  154767582 now IPC :0.92406: AVG IPC :0.89734: L2-Pf-HR :0.97194: L2-HR :0.81968: (Sim:1h46m29s) 
CPU  0 inst:  141000005 cyc:  155405004 now IPC :0.93325: AVG IPC :0.90011: L2-Pf-HR :0.97950: L2-HR :0.85499: (Sim:1h46m47s) 
CPU  2 inst:  140000002 cyc:  155847426 now IPC :0.92288: AVG IPC :0.89109: L2-Pf-HR :0.97658: L2-HR :0.83941: (Sim:1h46m58s) 
CPU  1 inst:  141000005 cyc:  155905443 now IPC :0.87884: AVG IPC :0.89720: L2-Pf-HR :0.97208: L2-HR :0.81983: (Sim:1h47m0s) 
CPU  3 inst:  141000005 cyc:  155986706 now IPC :0.81324: AVG IPC :0.89674: L2-Pf-HR :0.97078: L2-HR :0.81859: (Sim:1h47m2s) 
CPU  0 inst:  142000003 cyc:  156658768 now IPC :0.79760: AVG IPC :0.89928: L2-Pf-HR :0.97941: L2-HR :0.85484: (Sim:1h47m19s) 
CPU  2 inst:  141000005 cyc:  157034323 now IPC :0.84254: AVG IPC :0.89072: L2-Pf-HR :0.97667: L2-HR :0.83942: (Sim:1h47m29s) 
CPU  1 inst:  142000003 cyc:  157159403 now IPC :0.79747: AVG IPC :0.89640: L2-Pf-HR :0.97202: L2-HR :0.81983: (Sim:1h47m33s) 
CPU  3 inst:  142000003 cyc:  157276695 now IPC :0.77520: AVG IPC :0.89573: L2-Pf-HR :0.97075: L2-HR :0.81866: (Sim:1h47m36s) 
CPU  0 inst:  143000000 cyc:  157812254 now IPC :0.86693: AVG IPC :0.89904: L2-Pf-HR :0.97944: L2-HR :0.85469: (Sim:1h47m51s) 
CPU  2 inst:  142000003 cyc:  158116079 now IPC :0.92442: AVG IPC :0.89095: L2-Pf-HR :0.97660: L2-HR :0.83935: (Sim:1h47m59s) 
CPU  1 inst:  143000000 cyc:  158244326 now IPC :0.92172: AVG IPC :0.89657: L2-Pf-HR :0.97211: L2-HR :0.81985: (Sim:1h48m3s) 
CPU  3 inst:  143000000 cyc:  158370453 now IPC :0.91428: AVG IPC :0.89586: L2-Pf-HR :0.97071: L2-HR :0.81825: (Sim:1h48m7s) 
CPU  0 inst:  144000003 cyc:  158898107 now IPC :0.92094: AVG IPC :0.89919: L2-Pf-HR :0.97947: L2-HR :0.85453: (Sim:1h48m22s) 
CPU  2 inst:  143000000 cyc:  159098874 now IPC :1.01750: AVG IPC :0.89173: L2-Pf-HR :0.97668: L2-HR :0.83943: (Sim:1h48m28s) 
CPU  1 inst:  144000002 cyc:  159223065 now IPC :1.02172: AVG IPC :0.89735: L2-Pf-HR :0.97219: L2-HR :0.81987: (Sim:1h48m32s) 
CPU  3 inst:  144000003 cyc:  159448261 now IPC :0.92781: AVG IPC :0.89608: L2-Pf-HR :0.97070: L2-HR :0.81789: (Sim:1h48m39s) 
CPU  0 inst:  145000003 cyc:  159937764 now IPC :0.96186: AVG IPC :0.89960: L2-Pf-HR :0.97951: L2-HR :0.85436: (Sim:1h48m53s) 
CPU  2 inst:  144000003 cyc:  160096530 now IPC :1.00235: AVG IPC :0.89243: L2-Pf-HR :0.97676: L2-HR :0.83946: (Sim:1h48m58s) 
CPU  1 inst:  145000004 cyc:  160195938 now IPC :1.02789: AVG IPC :0.89815: L2-Pf-HR :0.97229: L2-HR :0.81985: (Sim:1h49m1s) 
CPU  3 inst:  145000004 cyc:  160529286 now IPC :0.92505: AVG IPC :0.89627: L2-Pf-HR :0.97068: L2-HR :0.81750: (Sim:1h49m9s) 
CPU  0 inst:  146000003 cyc:  161177645 now IPC :0.80653: AVG IPC :0.89888: L2-Pf-HR :0.97927: L2-HR :0.85408: (Sim:1h49m26s) 
CPU  2 inst:  145000004 cyc:  161273343 now IPC :0.84975: AVG IPC :0.89211: L2-Pf-HR :0.97685: L2-HR :0.83949: (Sim:1h49m29s) 
CPU  1 inst:  146000003 cyc:  161403567 now IPC :0.82807: AVG IPC :0.89762: L2-Pf-HR :0.97202: L2-HR :0.81973: (Sim:1h49m33s) 
CPU  3 inst:  146000003 cyc:  161772498 now IPC :0.80437: AVG IPC :0.89556: L2-Pf-HR :0.97033: L2-HR :0.81719: (Sim:1h49m44s) 
CPU  0 inst:  147000005 cyc:  162216694 now IPC :0.96242: AVG IPC :0.89929: L2-Pf-HR :0.97925: L2-HR :0.85412: (Sim:1h49m57s) 
CPU  1 inst:  147000005 cyc:  162449602 now IPC :0.95599: AVG IPC :0.89800: L2-Pf-HR :0.97201: L2-HR :0.81987: (Sim:1h50m4s) 
CPU  2 inst:  146000003 cyc:  162509336 now IPC :0.80907: AVG IPC :0.89148: L2-Pf-HR :0.97663: L2-HR :0.83934: (Sim:1h50m5s) 
CPU  3 inst:  147000005 cyc:  162965455 now IPC :0.83825: AVG IPC :0.89514: L2-Pf-HR :0.97022: L2-HR :0.81697: (Sim:1h50m18s) 
CPU  0 inst:  148000005 cyc:  163359997 now IPC :0.87466: AVG IPC :0.89912: L2-Pf-HR :0.97927: L2-HR :0.85423: (Sim:1h50m29s) 
CPU  1 inst:  148000002 cyc:  163501393 now IPC :0.95076: AVG IPC :0.89834: L2-Pf-HR :0.97203: L2-HR :0.82003: (Sim:1h50m36s) 
CPU  2 inst:  147000005 cyc:  163631327 now IPC :0.89127: AVG IPC :0.89148: L2-Pf-HR :0.97662: L2-HR :0.83936: (Sim:1h50m43s) 
CPU  3 inst:  148000003 cyc:  164194282 now IPC :0.81378: AVG IPC :0.89453: L2-Pf-HR :0.97016: L2-HR :0.81688: (Sim:1h51m10s) 
CPU  0 inst:  149000000 cyc:  164646628 now IPC :0.77722: AVG IPC :0.89816: L2-Pf-HR :0.97929: L2-HR :0.85434: (Sim:1h51m29s) 
CPU  2 inst:  148000005 cyc:  164704170 now IPC :0.93210: AVG IPC :0.89174: L2-Pf-HR :0.97661: L2-HR :0.83932: (Sim:1h51m31s) 
CPU  1 inst:  149000000 cyc:  164706476 now IPC :0.82982: AVG IPC :0.89783: L2-Pf-HR :0.97194: L2-HR :0.81987: (Sim:1h51m31s) 
CPU  3 inst:  149000000 cyc:  165364469 now IPC :0.85456: AVG IPC :0.89424: L2-Pf-HR :0.97022: L2-HR :0.81716: (Sim:1h51m52s) 
CPU  2 inst:  149000000 cyc:  165824700 now IPC :0.89243: AVG IPC :0.89175: L2-Pf-HR :0.97663: L2-HR :0.83943: (Sim:1h52m11s) 
CPU  0 inst:  150000001 cyc:  165951930 now IPC :0.76611: AVG IPC :0.89712: L2-Pf-HR :0.97928: L2-HR :0.85440: (Sim:1h52m17s) 
CPU  1 inst:  150000003 cyc:  165967582 now IPC :0.79296: AVG IPC :0.89703: L2-Pf-HR :0.97185: L2-HR :0.81964: (Sim:1h52m18s) 
CPU  3 inst:  150000003 cyc:  166436811 now IPC :0.93254: AVG IPC :0.89449: L2-Pf-HR :0.97025: L2-HR :0.81735: (Sim:1h52m30s) 
CPU  2 inst:  150000000 cyc:  167111976 now IPC :0.77683: AVG IPC :0.89086: L2-Pf-HR :0.97665: L2-HR :0.83952: (Sim:1h52m48s) 
CPU  0 inst:  151000000 cyc:  167288461 now IPC :0.74820: AVG IPC :0.89592: L2-Pf-HR :0.97929: L2-HR :0.85446: (Sim:1h52m53s) 
CPU  1 inst:  151000000 cyc:  167344616 now IPC :0.72620: AVG IPC :0.89562: L2-Pf-HR :0.97181: L2-HR :0.81965: (Sim:1h52m54s) 
CPU  3 inst:  151000000 cyc:  167536161 now IPC :0.90963: AVG IPC :0.89459: L2-Pf-HR :0.97035: L2-HR :0.81773: (Sim:1h53m3s) 
CPU  2 inst:  151000000 cyc:  168564791 now IPC :0.68832: AVG IPC :0.88910: L2-Pf-HR :0.97665: L2-HR :0.83949: (Sim:1h53m29s) 
CPU  0 inst:  152000000 cyc:  168863747 now IPC :0.63481: AVG IPC :0.89347: L2-Pf-HR :0.97915: L2-HR :0.85436: (Sim:1h53m36s) 
CPU  1 inst:  152000000 cyc:  168985820 now IPC :0.60931: AVG IPC :0.89282: L2-Pf-HR :0.97165: L2-HR :0.81964: (Sim:1h53m40s) 
CPU  3 inst:  152000000 cyc:  169030122 now IPC :0.66936: AVG IPC :0.89259: L2-Pf-HR :0.97022: L2-HR :0.81782: (Sim:1h53m41s) 
CPU  0 inst:  153000005 cyc:  169915577 now IPC :0.95073: AVG IPC :0.89383: L2-Pf-HR :0.97922: L2-HR :0.85440: (Sim:1h54m13s) 
CPU  2 inst:  152000000 cyc:  170134840 now IPC :0.63692: AVG IPC :0.88676: L2-Pf-HR :0.97653: L2-HR :0.83942: (Sim:1h54m21s) 
CPU  1 inst:  153000005 cyc:  170439939 now IPC :0.68771: AVG IPC :0.89106: L2-Pf-HR :0.97176: L2-HR :0.81975: (Sim:1h54m33s) 
CPU  3 inst:  153000005 cyc:  170462355 now IPC :0.69821: AVG IPC :0.89095: L2-Pf-HR :0.97026: L2-HR :0.81766: (Sim:1h54m33s) 
CPU  0 inst:  154000005 cyc:  170962782 now IPC :0.95492: AVG IPC :0.89420: L2-Pf-HR :0.97930: L2-HR :0.85457: (Sim:1h54m46s) 
CPU  2 inst:  153000005 cyc:  171573784 now IPC :0.69496: AVG IPC :0.88514: L2-Pf-HR :0.97659: L2-HR :0.83939: (Sim:1h55m0s) 
CPU  1 inst:  154000005 cyc:  171744208 now IPC :0.76671: AVG IPC :0.89011: L2-Pf-HR :0.97190: L2-HR :0.82000: (Sim:1h55m4s) 
CPU  3 inst:  154000005 cyc:  171929267 now IPC :0.68170: AVG IPC :0.88915: L2-Pf-HR :0.97034: L2-HR :0.81770: (Sim:1h55m9s) 
CPU  0 inst:  155000001 cyc:  172341234 now IPC :0.72545: AVG IPC :0.89285: L2-Pf-HR :0.97939: L2-HR :0.85468: (Sim:1h55m20s) 
CPU  1 inst:  155000001 cyc:  172718741 now IPC :1.02613: AVG IPC :0.89088: L2-Pf-HR :0.97197: L2-HR :0.81990: (Sim:1h55m29s) 
CPU  2 inst:  154000005 cyc:  172875606 now IPC :0.76815: AVG IPC :0.88426: L2-Pf-HR :0.97665: L2-HR :0.83944: (Sim:1h55m34s) 
CPU  3 inst:  155000001 cyc:  173251920 now IPC :0.75605: AVG IPC :0.88813: L2-Pf-HR :0.97053: L2-HR :0.81796: (Sim:1h55m44s) 
CPU  0 inst:  156000004 cyc:  173623993 now IPC :0.77957: AVG IPC :0.89200: L2-Pf-HR :0.97949: L2-HR :0.85483: (Sim:1h55m53s) 
CPU  1 inst:  156000001 cyc:  173770737 now IPC :0.95057: AVG IPC :0.89125: L2-Pf-HR :0.97201: L2-HR :0.81978: (Sim:1h55m56s) 
[...]
Core_1_L1D_writeback_hit 0
Core_1_L1D_writeback_miss 0

Core_1_L1I_total_access 104599398
Core_1_L1I_total_hit 104597421
Core_1_L1I_total_miss 1977
Core_1_L1I_loads 104599398
Core_1_L1I_load_hit 104597421
Core_1_L1I_load_miss 1977
Core_1_L1I_RFOs 0
Core_1_L1I_RFO_hit 0
Core_1_L1I_RFO_miss 0
Core_1_L1I_prefetches 0
Core_1_L1I_prefetch_hit 0
Core_1_L1I_prefetch_miss 0
Core_1_L1I_writebacks 0
Core_1_L1I_writeback_hit 0
Core_1_L1I_writeback_miss 0

Core_1_L2C_total_access 19695241
Core_1_L2C_total_hit 14093110
Core_1_L2C_total_miss 5602131
Core_1_L2C_loads 3728625
Core_1_L2C_load_hit 1847019
Core_1_L2C_load_miss 1881606
Core_1_L2C_RFOs 1027141
Core_1_L2C_RFO_hit 9004
Core_1_L2C_RFO_miss 1018137
Core_1_L2C_prefetches 11066934
Core_1_L2C_prefetch_hit 8364551
Core_1_L2C_prefetch_miss 2702383
Core_1_L2C_writebacks 3872541
Core_1_L2C_writeback_hit 3872536
Core_1_L2C_writeback_miss 5

CPU 1 L1D berti prefetcher final stats
CPU 1 L2C berti prefetcher final stats
Core_1_LLC_total_access 8832709
Core_1_LLC_total_hit 3300440
Core_1_LLC_total_miss 5532269
Core_1_LLC_loads 1429669
Core_1_LLC_load_hit 53993
Core_1_LLC_load_miss 1375676
Core_1_LLC_RFOs 1018136
Core_1_LLC_RFO_hit 179
Core_1_LLC_RFO_miss 1017957
Core_1_LLC_prefetches 3154320
Core_1_LLC_prefetch_hit 55543
Core_1_LLC_prefetch_miss 3098777
Core_1_LLC_writebacks 3230584
Core_1_LLC_writeback_hit 3190725
Core_1_LLC_writeback_miss 39859


CPU 2 cumulative IPC: 0.60286 instructions: 661770427 cycles: 1097719496
Core_2_L1D_total_access 224462378
Core_2_L1D_total_hit 211372246
Core_2_L1D_total_miss 13090132
Core_2_L1D_loads 192755435
Core_2_L1D_load_hit 188172914
Core_2_L1D_load_miss 4582521
Core_2_L1D_RFOs 16884183
Core_2_L1D_RFO_hit 15855784
Core_2_L1D_RFO_miss 1028399
Core_2_L1D_prefetches 14822760
Core_2_L1D_prefetch_hit 7343548
Core_2_L1D_prefetch_miss 7479212
Core_2_L1D_writebacks 0
Core_2_L1D_writeback_hit 0
Core_2_L1D_writeback_miss 0

Core_2_L1I_total_access 105099145
Core_2_L1I_total_hit 105094131
Core_2_L1I_total_miss 5014
Core_2_L1I_loads 105099145
Core_2_L1I_load_hit 105094131
Core_2_L1I_load_miss 5014
Core_2_L1I_RFOs 0
Core_2_L1I_RFO_hit 0
Core_2_L1I_RFO_miss 0
Core_2_L1I_prefetches 0
Core_2_L1I_prefetch_hit 0
Core_2_L1I_prefetch_miss 0
Core_2_L1I_writebacks 0
Core_2_L1I_writeback_hit 0
Core_2_L1I_writeback_miss 0

Core_2_L2C_total_access 20660242
Core_2_L2C_total_hit 15017816
Core_2_L2C_total_miss 5642426
Core_2_L2C_loads 3793485
Core_2_L2C_load_hit 1892367
Core_2_L2C_load_miss 1901118
Core_2_L2C_RFOs 1028393
Core_2_L2C_RFO_hit 10386
Core_2_L2C_RFO_miss 1018007
Core_2_L2C_prefetches 11948017
Core_2_L2C_prefetch_hit 9224720
Core_2_L2C_prefetch_miss 2723297
Core_2_L2C_writebacks 3890347
Core_2_L2C_writeback_hit 3890343
Core_2_L2C_writeback_miss 4

CPU 2 L1D berti prefetcher final stats
CPU 2 L2C berti prefetcher final stats
Core_2_LLC_total_access 8879693
Core_2_LLC_total_hit 3319078
Core_2_LLC_total_miss 5560615
Core_2_LLC_loads 1450167
Core_2_LLC_load_hit 59683
Core_2_LLC_load_miss 1390484
Core_2_LLC_RFOs 1018005
Core_2_LLC_RFO_hit 239
Core_2_LLC_RFO_miss 1017766
Core_2_LLC_prefetches 3174249
Core_2_LLC_prefetch_hit 64240
Core_2_LLC_prefetch_miss 3110009
Core_2_LLC_writebacks 3237272
Core_2_LLC_writeback_hit 3194916
Core_2_LLC_writeback_miss 42356


CPU 3 cumulative IPC: 0.59920 instructions: 657757044 cycles: 1097719497
Core_3_L1D_total_access 223210248
Core_3_L1D_total_hit 210666471
Core_3_L1D_total_miss 12543777
Core_3_L1D_loads 191610243
Core_3_L1D_load_hit 187088634
Core_3_L1D_load_miss 4521609
Core_3_L1D_RFOs 16855665
Core_3_L1D_RFO_hit 15828594
Core_3_L1D_RFO_miss 1027071
Core_3_L1D_prefetches 14744340
Core_3_L1D_prefetch_hit 7749243
Core_3_L1D_prefetch_miss 6995097
Core_3_L1D_writebacks 0
Core_3_L1D_writeback_hit 0
Core_3_L1D_writeback_miss 0

Core_3_L1I_total_access 104680351
Core_3_L1I_total_hit 104678389
Core_3_L1I_total_miss 1962
Core_3_L1I_loads 104680351
Core_3_L1I_load_hit 104678389
Core_3_L1I_load_miss 1962
Core_3_L1I_RFOs 0
Core_3_L1I_RFO_hit 0
Core_3_L1I_RFO_miss 0
Core_3_L1I_prefetches 0
Core_3_L1I_prefetch_hit 0
Core_3_L1I_prefetch_miss 0
Core_3_L1I_writebacks 0
Core_3_L1I_writeback_hit 0
Core_3_L1I_writeback_miss 0

Core_3_L2C_total_access 19605616
Core_3_L2C_total_hit 13992624
Core_3_L2C_total_miss 5612992
Core_3_L2C_loads 3742986
Core_3_L2C_load_hit 1856676
Core_3_L2C_load_miss 1886310
Core_3_L2C_RFOs 1027065
Core_3_L2C_RFO_hit 8603
Core_3_L2C_RFO_miss 1018462
Core_3_L2C_prefetches 10964548
Core_3_L2C_prefetch_hit 8256333
Core_3_L2C_prefetch_miss 2708215
Core_3_L2C_writebacks 3871017
Core_3_L2C_writeback_hit 3871012
Core_3_L2C_writeback_miss 5

CPU 3 L1D berti prefetcher final stats
CPU 3 L2C berti prefetcher final stats
Core_3_LLC_total_access 8845886
Core_3_LLC_total_hit 3302777
Core_3_LLC_total_miss 5543109
Core_3_LLC_loads 1434652
Core_3_LLC_load_hit 56552
Core_3_LLC_load_miss 1378100
Core_3_LLC_RFOs 1018462
Core_3_LLC_RFO_hit 205
Core_3_LLC_RFO_miss 1018257
Core_3_LLC_prefetches 3159872
Core_3_LLC_prefetch_hit 61518
Core_3_LLC_prefetch_miss 3098354
Core_3_LLC_writebacks 3232900
Core_3_LLC_writeback_hit 3184502
Core_3_LLC_writeback_miss 48398


[ROI Statistics]
Core_0_instructions 657000005
Core_0_cycles 1091873184
Core_0_IPC 0.60172

Core_0_branch_prediction_accuracy 99.58653
Core_0_branch_MPKI 0.11911
Core_0_average_ROB_occupancy_at_mispredict 566.59305

Core_0_L1D_total_access 222971362
Core_0_L1D_total_hit 209620536 L1D_total_Hit Ratio: 0.94012
Core_0_L1D_total_miss 13350826
Core_0_L1D_loads 191348760
Core_0_L1D_load_hit 186771921 L1D_load_Hit Ratio: 0.97608
Core_0_L1D_load_miss 4576839
Core_0_L1D_RFOs 16853145
Core_0_L1D_RFO_hit 15826578 L1D_RFO_Hit Ratio: 0.93909
Core_0_L1D_RFO_miss 1026567
Core_0_L1D_prefetches 14769457
Core_0_L1D_prefetch_hit 7022037 L1D_prefetch_Hit Ratio: 0.47544
Core_0_L1D_prefetch_miss 7747420
Core_0_L1D_writebacks 0
Core_0_L1D_writeback_hit 0 L1D_writeback_Hit Ratio: -nan
Core_0_L1D_writeback_miss 0
Core_0_L1D_prefetch_requested 19706855
Core_0_L1D_prefetch_issued 17416780
Core_0_L1D_prefetch_useful 7728435 L1D_Useful Ratio: 0.44374
Core_0_L1D_prefetch_useless 144914
Core_0_L1D_prefetch_late 803200
Core_0_L1D_average_miss_latency 35888075.49997

Core_0_L1I_total_access 104580098
Core_0_L1I_total_hit 104578159 L1I_total_Hit Ratio: 0.99998
Core_0_L1I_total_miss 1939
Core_0_L1I_loads 104580098
Core_0_L1I_load_hit 104578159 L1I_load_Hit Ratio: 0.99998
Core_0_L1I_load_miss 1939
Core_0_L1I_RFOs 0
Core_0_L1I_RFO_hit 0 L1I_RFO_Hit Ratio: -nan
Core_0_L1I_RFO_miss 0
Core_0_L1I_prefetches 0
Core_0_L1I_prefetch_hit 0 L1I_prefetch_Hit Ratio: -nan
Core_0_L1I_prefetch_miss 0
Core_0_L1I_writebacks 0
Core_0_L1I_writeback_hit 0 L1I_writeback_Hit Ratio: -nan
Core_0_L1I_writeback_miss 0
Core_0_L1I_prefetch_requested 0
Core_0_L1I_prefetch_issued 0
Core_0_L1I_prefetch_useful 0 L1I_Useful Ratio: -nan
Core_0_L1I_prefetch_useless 0
Core_0_L1I_prefetch_late 0
Core_0_L1I_average_miss_latency 1464.78081

Core_0_L2C_total_access 21249089
Core_0_L2C_total_hit 15639294 L2C_total_Hit Ratio: 0.73600
Core_0_L2C_total_miss 5609795
Core_0_L2C_loads 3782759
Core_0_L2C_load_hit 1901335 L2C_load_Hit Ratio: 0.50263
Core_0_L2C_load_miss 1881424
Core_0_L2C_RFOs 1026560
Core_0_L2C_RFO_hit 8544 L2C_RFO_Hit Ratio: 0.00832
Core_0_L2C_RFO_miss 1018016
Core_0_L2C_prefetches 12569003
Core_0_L2C_prefetch_hit 9858658 L2C_prefetch_Hit Ratio: 0.78436
Core_0_L2C_prefetch_miss 2710345
Core_0_L2C_writebacks 3870767
Core_0_L2C_writeback_hit 3870757 L2C_writeback_Hit Ratio: 1.00000
Core_0_L2C_writeback_miss 10
Core_0_L2C_prefetch_requested 7736908
Core_0_L2C_prefetch_issued 6304762
Core_0_L2C_prefetch_useful 322171 L2C_Useful Ratio: 0.05110
Core_0_L2C_prefetch_useless 2389751
Core_0_L2C_prefetch_late 454646
Core_0_L2C_average_miss_latency 927.38583

Core_0_LLC_total_access 8843279
Core_0_LLC_total_hit 3309406 LLC_total_Hit Ratio: 0.37423
Core_0_LLC_total_miss 5533873
Core_0_LLC_loads 1428652
Core_0_LLC_load_hit 55908 LLC_load_Hit Ratio: 0.03913
Core_0_LLC_load_miss 1372744
Core_0_LLC_RFOs 1018016
Core_0_LLC_RFO_hit 177 LLC_RFO_Hit Ratio: 0.00017
Core_0_LLC_RFO_miss 1017839
Core_0_LLC_prefetches 3163117
Core_0_LLC_prefetch_hit 60615 LLC_prefetch_Hit Ratio: 0.01916
Core_0_LLC_prefetch_miss 3102502
Core_0_LLC_writebacks 3233494
Core_0_LLC_writeback_hit 3192706 LLC_writeback_Hit Ratio: 0.98739
Core_0_LLC_writeback_miss 40788
Core_0_LLC_prefetch_requested 0
Core_0_LLC_prefetch_issued 0
Core_0_LLC_prefetch_useful 196058 LLC_Useful Ratio: inf
Core_0_LLC_prefetch_useless 11850209
Core_0_LLC_prefetch_late 0
Core_0_LLC_average_miss_latency 3555.32063

Core_0_major_page_fault 0
Core_0_minor_page_fault 37966

Core_1_instructions 657000005
Core_1_cycles 1097719496
Core_1_IPC 0.59851

Core_1_branch_prediction_accuracy 99.58944
Core_1_branch_MPKI 0.11916
Core_1_average_ROB_occupancy_at_mispredict 571.51724

Core_1_L1D_total_access 222887658
Core_1_L1D_total_hit 210285595 L1D_total_Hit Ratio: 0.94346
Core_1_L1D_total_miss 12602063
Core_1_L1D_loads 191351734
Core_1_L1D_load_hit 186851009 L1D_load_Hit Ratio: 0.97648
Core_1_L1D_load_miss 4500725
Core_1_L1D_RFOs 16853592
Core_1_L1D_RFO_hit 15826445 L1D_RFO_Hit Ratio: 0.93905
Core_1_L1D_RFO_miss 1027147
Core_1_L1D_prefetches 14682332
Core_1_L1D_prefetch_hit 7608141 L1D_prefetch_Hit Ratio: 0.51818
Core_1_L1D_prefetch_miss 7074191
Core_1_L1D_writebacks 0
Core_1_L1D_writeback_hit 0 L1D_writeback_Hit Ratio: -nan
Core_1_L1D_writeback_miss 0
Core_1_L1D_prefetch_requested 19338951
Core_1_L1D_prefetch_issued 17107434
Core_1_L1D_prefetch_useful 6954166 L1D_Useful Ratio: 0.40650
Core_1_L1D_prefetch_useless 142244
Core_1_L1D_prefetch_late 775062
Core_1_L1D_average_miss_latency 37634014.07302

Core_1_L1I_total_access 104599398
Core_1_L1I_total_hit 104597421 L1I_total_Hit Ratio: 0.99998
Core_1_L1I_total_miss 1977
Core_1_L1I_loads 104599398
Core_1_L1I_load_hit 104597421 L1I_load_Hit Ratio: 0.99998
Core_1_L1I_load_miss 1977
Core_1_L1I_RFOs 0
Core_1_L1I_RFO_hit 0 L1I_RFO_Hit Ratio: -nan
Core_1_L1I_RFO_miss 0
Core_1_L1I_prefetches 0
Core_1_L1I_prefetch_hit 0 L1I_prefetch_Hit Ratio: -nan
Core_1_L1I_prefetch_miss 0
Core_1_L1I_writebacks 0
Core_1_L1I_writeback_hit 0 L1I_writeback_Hit Ratio: -nan
Core_1_L1I_writeback_miss 0
Core_1_L1I_prefetch_requested 0
Core_1_L1I_prefetch_issued 0
Core_1_L1I_prefetch_useful 0 L1I_Useful Ratio: -nan
Core_1_L1I_prefetch_useless 0
Core_1_L1I_prefetch_late 0
Core_1_L1I_average_miss_latency 1569.30501

Core_1_L2C_total_access 19695241
Core_1_L2C_total_hit 14093110 L2C_total_Hit Ratio: 0.71556
Core_1_L2C_total_miss 5602131
Core_1_L2C_loads 3728625
Core_1_L2C_load_hit 1847019 L2C_load_Hit Ratio: 0.49536
Core_1_L2C_load_miss 1881606
Core_1_L2C_RFOs 1027141
Core_1_L2C_RFO_hit 9004 L2C_RFO_Hit Ratio: 0.00877
Core_1_L2C_RFO_miss 1018137
Core_1_L2C_prefetches 11066934
Core_1_L2C_prefetch_hit 8364551 L2C_prefetch_Hit Ratio: 0.75581
Core_1_L2C_prefetch_miss 2702383
Core_1_L2C_writebacks 3872541
Core_1_L2C_writeback_hit 3872536 L2C_writeback_Hit Ratio: 1.00000
Core_1_L2C_writeback_miss 5
Core_1_L2C_prefetch_requested 6309917
Core_1_L2C_prefetch_issued 5362971
Core_1_L2C_prefetch_useful 313465 L2C_Useful Ratio: 0.05845
Core_1_L2C_prefetch_useless 2351072
Core_1_L2C_prefetch_late 452385
Core_1_L2C_average_miss_latency 930.20927

Core_1_LLC_total_access 8832709
Core_1_LLC_total_hit 3300440 LLC_total_Hit Ratio: 0.37366
Core_1_LLC_total_miss 5532269
Core_1_LLC_loads 1429669
Core_1_LLC_load_hit 53993 LLC_load_Hit Ratio: 0.03777
Core_1_LLC_load_miss 1375676
Core_1_LLC_RFOs 1018136
Core_1_LLC_RFO_hit 179 LLC_RFO_Hit Ratio: 0.00018
Core_1_LLC_RFO_miss 1017957
Core_1_LLC_prefetches 3154320
Core_1_LLC_prefetch_hit 55543 LLC_prefetch_Hit Ratio: 0.01761
Core_1_LLC_prefetch_miss 3098777
Core_1_LLC_writebacks 3230584
Core_1_LLC_writeback_hit 3190725 LLC_writeback_Hit Ratio: 0.98766
Core_1_LLC_writeback_miss 39859
Core_1_LLC_prefetch_requested 0
Core_1_LLC_prefetch_issued 0
Core_1_LLC_prefetch_useful 196058 LLC_Useful Ratio: inf
Core_1_LLC_prefetch_useless 11850209
Core_1_LLC_prefetch_late 0
Core_1_LLC_average_miss_latency 3556.35145

Core_1_major_page_fault 0
Core_1_minor_page_fault 37887

Core_2_instructions 657000005
Core_2_cycles 1094357595
Core_2_IPC 0.60035

Core_2_branch_prediction_accuracy 99.58568
Core_2_branch_MPKI 0.11967
Core_2_average_ROB_occupancy_at_mispredict 566.59082

Core_2_L1D_total_access 222878412
Core_2_L1D_total_hit 209881339 L1D_total_Hit Ratio: 0.94169
Core_2_L1D_total_miss 12997073
Core_2_L1D_loads 191328652
Core_2_L1D_load_hit 186779439 L1D_load_Hit Ratio: 0.97622
Core_2_L1D_load_miss 4549213
Core_2_L1D_RFOs 16852665
Core_2_L1D_RFO_hit 15824390 L1D_RFO_Hit Ratio: 0.93898
Core_2_L1D_RFO_miss 1028275
Core_2_L1D_prefetches 14697095
Core_2_L1D_prefetch_hit 7277510 L1D_prefetch_Hit Ratio: 0.49517
Core_2_L1D_prefetch_miss 7419585
Core_2_L1D_writebacks 0
Core_2_L1D_writeback_hit 0 L1D_writeback_Hit Ratio: -nan
Core_2_L1D_writeback_miss 0
Core_2_L1D_prefetch_requested 19541380
Core_2_L1D_prefetch_issued 17281853
Core_2_L1D_prefetch_useful 7357059 L1D_Useful Ratio: 0.42571
Core_2_L1D_prefetch_useless 144393
Core_2_L1D_prefetch_late 795038
Core_2_L1D_average_miss_latency 36758965.07353

Core_2_L1I_total_access 104586796
Core_2_L1I_total_hit 104584793 L1I_total_Hit Ratio: 0.99998
Core_2_L1I_total_miss 2003
Core_2_L1I_loads 104586796
Core_2_L1I_load_hit 104584793 L1I_load_Hit Ratio: 0.99998
Core_2_L1I_load_miss 2003
Core_2_L1I_RFOs 0
Core_2_L1I_RFO_hit 0 L1I_RFO_Hit Ratio: -nan
Core_2_L1I_RFO_miss 0
Core_2_L1I_prefetches 0
Core_2_L1I_prefetch_hit 0 L1I_prefetch_Hit Ratio: -nan
Core_2_L1I_prefetch_miss 0
Core_2_L1I_writebacks 0
Core_2_L1I_writeback_hit 0 L1I_writeback_Hit Ratio: -nan
Core_2_L1I_writeback_miss 0
Core_2_L1I_prefetch_requested 0
Core_2_L1I_prefetch_issued 0
Core_2_L1I_prefetch_useful 0 L1I_Useful Ratio: -nan
Core_2_L1I_prefetch_useless 0
Core_2_L1I_prefetch_late 0
Core_2_L1I_average_miss_latency 1575.15876

Core_2_L2C_total_access 20520458
Core_2_L2C_total_hit 14906810 L2C_total_Hit Ratio: 0.72644
Core_2_L2C_total_miss 5613648
Core_2_L2C_loads 3761257
Core_2_L2C_load_hit 1873213 L2C_load_Hit Ratio: 0.49803
Core_2_L2C_load_miss 1888044
Core_2_L2C_RFOs 1028269
Core_2_L2C_RFO_hit 10332 L2C_RFO_Hit Ratio: 0.01005
Core_2_L2C_RFO_miss 1017937
Core_2_L2C_prefetches 11853291
Core_2_L2C_prefetch_hit 9145628 L2C_prefetch_Hit Ratio: 0.77157
Core_2_L2C_prefetch_miss 2707663
Core_2_L2C_writebacks 3877641
Core_2_L2C_writeback_hit 3877637 L2C_writeback_Hit Ratio: 1.00000
Core_2_L2C_writeback_miss 4
Core_2_L2C_prefetch_requested 7055901
Core_2_L2C_prefetch_issued 5853290
Core_2_L2C_prefetch_useful 312882 L2C_Useful Ratio: 0.05345
Core_2_L2C_prefetch_useless 2381317
Core_2_L2C_prefetch_late 451378
Core_2_L2C_average_miss_latency 929.05468

Core_2_LLC_total_access 8849399
Core_2_LLC_total_hit 3315218 LLC_total_Hit Ratio: 0.37463
Core_2_LLC_total_miss 5534181
Core_2_LLC_loads 1438043
Core_2_LLC_load_hit 58499 LLC_load_Hit Ratio: 0.04068
Core_2_LLC_load_miss 1379544
Core_2_LLC_RFOs 1017935
Core_2_LLC_RFO_hit 229 LLC_RFO_Hit Ratio: 0.00022
Core_2_LLC_RFO_miss 1017706
Core_2_LLC_prefetches 3157665
Core_2_LLC_prefetch_hit 62564 LLC_prefetch_Hit Ratio: 0.01981
Core_2_LLC_prefetch_miss 3095101
Core_2_LLC_writebacks 3235756
Core_2_LLC_writeback_hit 3193926 LLC_writeback_Hit Ratio: 0.98707
Core_2_LLC_writeback_miss 41830
Core_2_LLC_prefetch_requested 0
Core_2_LLC_prefetch_issued 0
Core_2_LLC_prefetch_useful 196058 LLC_Useful Ratio: inf
Core_2_LLC_prefetch_useless 11850209
Core_2_LLC_prefetch_late 0
Core_2_LLC_average_miss_latency 3555.12276

Core_2_major_page_fault 0
Core_2_minor_page_fault 37966

Core_3_instructions 657000001
Core_3_cycles 1097277251
Core_3_IPC 0.59875

Core_3_branch_prediction_accuracy 99.58943
Core_3_branch_MPKI 0.11906
Core_3_average_ROB_occupancy_at_mispredict 571.56461

Core_3_L1D_total_access 222922030
Core_3_L1D_total_hit 210393938 L1D_total_Hit Ratio: 0.94380
Core_3_L1D_total_miss 12528092
Core_3_L1D_loads 191347453
Core_3_L1D_load_hit 186830749 L1D_load_Hit Ratio: 0.97640
Core_3_L1D_load_miss 4516704
Core_3_L1D_RFOs 16853909
Core_3_L1D_RFO_hit 15826838 L1D_RFO_Hit Ratio: 0.93906
Core_3_L1D_RFO_miss 1027071
Core_3_L1D_prefetches 14720668
Core_3_L1D_prefetch_hit 7736351 L1D_prefetch_Hit Ratio: 0.52554
Core_3_L1D_prefetch_miss 6984317
Core_3_L1D_writebacks 0
Core_3_L1D_writeback_hit 0 L1D_writeback_Hit Ratio: -nan
Core_3_L1D_writeback_miss 0
Core_3_L1D_prefetch_requested 19392505
Core_3_L1D_prefetch_issued 17179497
Core_3_L1D_prefetch_useful 6870811 L1D_Useful Ratio: 0.39994
Core_3_L1D_prefetch_useless 141796
Core_3_L1D_prefetch_late 781503
Core_3_L1D_average_miss_latency 37950607.24951

Core_3_L1I_total_access 104604084
Core_3_L1I_total_hit 104602122 L1I_total_Hit Ratio: 0.99998
Core_3_L1I_total_miss 1962
Core_3_L1I_loads 104604084
Core_3_L1I_load_hit 104602122 L1I_load_Hit Ratio: 0.99998
Core_3_L1I_load_miss 1962
Core_3_L1I_RFOs 0
Core_3_L1I_RFO_hit 0 L1I_RFO_Hit Ratio: -nan
Core_3_L1I_RFO_miss 0
Core_3_L1I_prefetches 0
Core_3_L1I_prefetch_hit 0 L1I_prefetch_Hit Ratio: -nan
Core_3_L1I_prefetch_miss 0
Core_3_L1I_writebacks 0
Core_3_L1I_writeback_hit 0 L1I_writeback_Hit Ratio: -nan
Core_3_L1I_writeback_miss 0
Core_3_L1I_prefetch_requested 0
Core_3_L1I_prefetch_issued 0
Core_3_L1I_prefetch_useful 0 L1I_Useful Ratio: -nan
Core_3_L1I_prefetch_useless 0
Core_3_L1I_prefetch_late 0
Core_3_L1I_average_miss_latency 1340.72426

Core_3_L2C_total_access 19585498
Core_3_L2C_total_hit 13975673 L2C_total_Hit Ratio: 0.71357
Core_3_L2C_total_miss 5609825
Core_3_L2C_loads 3738900
Core_3_L2C_load_hit 1853083 L2C_load_Hit Ratio: 0.49562
Core_3_L2C_load_miss 1885817
Core_3_L2C_RFOs 1027065
Core_3_L2C_RFO_hit 8603 L2C_RFO_Hit Ratio: 0.00838
Core_3_L2C_RFO_miss 1018462
Core_3_L2C_prefetches 10949199
Core_3_L2C_prefetch_hit 8243658 L2C_prefetch_Hit Ratio: 0.75290
Core_3_L2C_prefetch_miss 2705541
Core_3_L2C_writebacks 3870334
Core_3_L2C_writeback_hit 3870329 L2C_writeback_Hit Ratio: 1.00000
Core_3_L2C_writeback_miss 5
Core_3_L2C_prefetch_requested 6259427
Core_3_L2C_prefetch_issued 5325848
Core_3_L2C_prefetch_useful 317827 L2C_Useful Ratio: 0.05968
Core_3_L2C_prefetch_useless 2352228
Core_3_L2C_prefetch_late 452116
Core_3_L2C_average_miss_latency 930.26477

Core_3_LLC_total_access 8842600
Core_3_LLC_total_hit 3302162 LLC_total_Hit Ratio: 0.37344
Core_3_LLC_total_miss 5540438
Core_3_LLC_loads 1434178
Core_3_LLC_load_hit 56317 LLC_load_Hit Ratio: 0.03927
Core_3_LLC_load_miss 1377861
Core_3_LLC_RFOs 1018462
Core_3_LLC_RFO_hit 205 LLC_RFO_Hit Ratio: 0.00020
Core_3_LLC_RFO_miss 1018257
Core_3_LLC_prefetches 3157179
Core_3_LLC_prefetch_hit 61217 LLC_prefetch_Hit Ratio: 0.01939
Core_3_LLC_prefetch_miss 3095962
Core_3_LLC_writebacks 3232781
Core_3_LLC_writeback_hit 3184423 LLC_writeback_Hit Ratio: 0.98504
Core_3_LLC_writeback_miss 48358
Core_3_LLC_prefetch_requested 0
Core_3_LLC_prefetch_issued 0
Core_3_LLC_prefetch_useful 196058 LLC_Useful Ratio: inf
Core_3_LLC_prefetch_useless 11850209
Core_3_LLC_prefetch_late 0
Core_3_LLC_average_miss_latency 3551.10785

Core_3_major_page_fault 0
Core_3_minor_page_fault 37887

CPU 0 L1D berti prefetcher final stats
CPU 0 L2C berti prefetcher final stats
CPU 1 L1D berti prefetcher final stats
CPU 1 L2C berti prefetcher final stats
CPU 2 L1D berti prefetcher final stats
CPU 2 L2C berti prefetcher final stats
CPU 3 L1D berti prefetcher final stats
CPU 3 L2C berti prefetcher final stats
Channel_0_RQ_row_buffer_hit 8199847
Channel_0_RQ_row_buffer_miss 13841749
Channel_0_WQ_row_buffer_hit 4565872
Channel_0_WQ_row_buffer_miss 8280672
Channel_0_WQ_full 7937
Channel_0_dbus_congested 20029946

avg_congested_cycle 8

EzSearch AVG IPC :0.60172: L2-Pf-HR :0.78436 : L2-HR :0.73707 Uful:0.05110
EzSearch AVG IPC :0.59851: L2-Pf-HR :0.75581 : L2-HR :0.71556 Uful:0.05845
EzSearch AVG IPC :0.60035: L2-Pf-HR :0.77157 : L2-HR :0.72689 Uful:0.05345
EzSearch AVG IPC :0.59875: L2-Pf-HR :0.75290 : L2-HR :0.71370 Uful:0.05968
     > Finished combination: TraceType=770-tot Sim:657000000 Prefetcher=L2berti_concurso L1=berti_concurso
