TRACE: [662000000][OPT-350M]_[h16][s1024][d64] Warmup: 2000000 NumTraces: 662000000
L1:no:L2:spp_berti_src
Initialize SIGNATURE TABLE
ST_SET: 1
ST_WAY: 256
ST_TAG_BIT: 16
ST_TAG_MASK: ffff

Initialize PATTERN TABLE
PT_SET: 512
PT_WAY: 4
SIG_DELTA_BIT: 7
C_SIG_BIT: 4
C_DELTA_BIT: 4

Initialize PREFETCH FILTER
FILTER_SET: 1024
*************************************************
   ChampSim Multicore Out-of-Order Simulator
   Last compiled: Oct 29 2024 05:22:55
*************************************************

trace_0 770-tot_memTraces_v3/memTraces[662000000][OPT-350M]_[h16][s1024][d64].champsim.xz
trace_1 770-tot_memTraces_v3/memTraces[662000000][OPT-350M]_[h16][s1024][d64].champsim.xz
trace_2 770-tot_memTraces_v3/memTraces[662000000][OPT-350M]_[h16][s1024][d64].champsim.xz
trace_3 770-tot_memTraces_v3/memTraces[662000000][OPT-350M]_[h16][s1024][d64].champsim.xz
ST_WAYS: 256
PT_SETS: 512
ST_WAYS: 256
PT_SETS: 512
ST_WAYS: 256
PT_SETS: 512
ST_WAYS: 256
PT_SETS: 512
MAIN.cc ln 751 stats print skipped
CPU  2 inst:    1000001 cyc:     498702 now IPC :2.00521: AVG IPC :2.00521: L2-Pf-HR :0.96030: L2-HR :0.85295: (Sim:0h0m47s) 
CPU  0 inst:    1000001 cyc:     498983 now IPC :2.00408: AVG IPC :2.00408: L2-Pf-HR :0.95548: L2-HR :0.84457: (Sim:0h0m47s) 
CPU  3 inst:    1000001 cyc:     499101 now IPC :2.00360: AVG IPC :2.00360: L2-Pf-HR :0.95535: L2-HR :0.84218: (Sim:0h0m47s) 
CPU  1 inst:    1000001 cyc:     499113 now IPC :2.00356: AVG IPC :2.00356: L2-Pf-HR :0.95047: L2-HR :0.82877: (Sim:0h0m47s) 
CPU  2 inst:    2000000 cyc:     981370 now IPC :2.07182: AVG IPC :2.03797: L2-Pf-HR :0.96446: L2-HR :0.89333: (Sim:0h1m36s) 
CPU  0 inst:    2000000 cyc:     981626 now IPC :2.07192: AVG IPC :2.03744: L2-Pf-HR :0.96178: L2-HR :0.88859: (Sim:0h1m36s) 
CPU  3 inst:    2000000 cyc:     981761 now IPC :2.07185: AVG IPC :2.03716: L2-Pf-HR :0.95937: L2-HR :0.88176: (Sim:0h1m37s) 
CPU  1 inst:    2000000 cyc:     981762 now IPC :2.07190: AVG IPC :2.03715: L2-Pf-HR :0.95488: L2-HR :0.87207: (Sim:0h1m37s) 

Warmup complete CPU  0 instructions:    2000280 cycles:     981763 (Simulation time: 0 hr 1 min 37 sec) 
Warmup complete CPU  1 instructions:    2000001 cycles:     981763 (Simulation time: 0 hr 1 min 37 sec) 
Warmup complete CPU  2 instructions:    2000888 cycles:     981762 (Simulation time: 0 hr 1 min 37 sec) 
Warmup complete CPU  3 instructions:    2000001 cycles:     981762 (Simulation time: 0 hr 1 min 37 sec) 

CPU  3 inst:    3000004 cyc:    1541155 now IPC :1.78766: AVG IPC :1.78766: L2-Pf-HR :0.96508: L2-HR :0.90344: (Sim:0h2m21s) 
CPU  1 inst:    3000004 cyc:    1541299 now IPC :1.78720: AVG IPC :1.78720: L2-Pf-HR :0.96291: L2-HR :0.90335: (Sim:0h2m21s) 
CPU  0 inst:    3000004 cyc:    1543647 now IPC :1.77930: AVG IPC :1.77924: L2-Pf-HR :0.96844: L2-HR :0.91585: (Sim:0h2m21s) 
CPU  2 inst:    3000004 cyc:    1543694 now IPC :1.77834: AVG IPC :1.77800: L2-Pf-HR :0.97034: L2-HR :0.91667: (Sim:0h2m21s) 
CPU  0 inst:    4000002 cyc:    2188891 now IPC :1.54980: AVG IPC :1.65659: L2-Pf-HR :0.95182: L2-HR :0.90685: (Sim:0h3m7s) 
CPU  1 inst:    4000002 cyc:    2190638 now IPC :1.54002: AVG IPC :1.65443: L2-Pf-HR :0.94483: L2-HR :0.89584: (Sim:0h3m7s) 
CPU  3 inst:    4000002 cyc:    2191620 now IPC :1.53736: AVG IPC :1.65309: L2-Pf-HR :0.94609: L2-HR :0.88776: (Sim:0h3m7s) 
CPU  2 inst:    4000002 cyc:    2191996 now IPC :1.54249: AVG IPC :1.65184: L2-Pf-HR :0.95638: L2-HR :0.90800: (Sim:0h3m8s) 
CPU  1 inst:    5000003 cyc:    2828963 now IPC :1.56660: AVG IPC :1.62408: L2-Pf-HR :0.93932: L2-HR :0.89251: (Sim:0h3m54s) 
CPU  0 inst:    5000005 cyc:    2830245 now IPC :1.55921: AVG IPC :1.62280: L2-Pf-HR :0.94699: L2-HR :0.90367: (Sim:0h3m54s) 
CPU  2 inst:    5000003 cyc:    2830304 now IPC :1.56664: AVG IPC :1.62242: L2-Pf-HR :0.95242: L2-HR :0.90462: (Sim:0h3m54s) 
CPU  3 inst:    5000005 cyc:    2830754 now IPC :1.56462: AVG IPC :1.62251: L2-Pf-HR :0.93972: L2-HR :0.88152: (Sim:0h3m54s) 
CPU  3 inst:    6000004 cyc:    3447548 now IPC :1.62129: AVG IPC :1.62220: L2-Pf-HR :0.93758: L2-HR :0.88054: (Sim:0h4m40s) 
CPU  1 inst:    6000004 cyc:    3450011 now IPC :1.61018: AVG IPC :1.62058: L2-Pf-HR :0.93862: L2-HR :0.89315: (Sim:0h4m40s) 
CPU  0 inst:    6000004 cyc:    3450151 now IPC :1.61315: AVG IPC :1.62038: L2-Pf-HR :0.94592: L2-HR :0.90388: (Sim:0h4m40s) 
CPU  2 inst:    6000004 cyc:    3450419 now IPC :1.61261: AVG IPC :1.61996: L2-Pf-HR :0.95162: L2-HR :0.90547: (Sim:0h4m40s) 
CPU  3 inst:    7000001 cyc:    4138918 now IPC :1.44640: AVG IPC :1.58370: L2-Pf-HR :0.94563: L2-HR :0.88735: (Sim:0h5m25s) 
CPU  2 inst:    7000001 cyc:    4142318 now IPC :1.44529: AVG IPC :1.58172: L2-Pf-HR :0.95694: L2-HR :0.90934: (Sim:0h5m26s) 
CPU  1 inst:    7000001 cyc:    4145374 now IPC :1.43809: AVG IPC :1.58047: L2-Pf-HR :0.94493: L2-HR :0.89577: (Sim:0h5m26s) 
CPU  0 inst:    7000001 cyc:    4146549 now IPC :1.43596: AVG IPC :1.57980: L2-Pf-HR :0.95191: L2-HR :0.90679: (Sim:0h5m26s) 
CPU  1 inst:    8000001 cyc:    4653647 now IPC :1.96745: AVG IPC :1.63404: L2-Pf-HR :0.94422: L2-HR :0.89725: (Sim:0h6m10s) 
CPU  0 inst:    8000001 cyc:    4663271 now IPC :1.93528: AVG IPC :1.62969: L2-Pf-HR :0.95147: L2-HR :0.90825: (Sim:0h6m10s) 
CPU  2 inst:    8000001 cyc:    4663766 now IPC :1.91774: AVG IPC :1.62931: L2-Pf-HR :0.95595: L2-HR :0.90964: (Sim:0h6m10s) 
CPU  3 inst:    8000001 cyc:    4672841 now IPC :1.87293: AVG IPC :1.62554: L2-Pf-HR :0.94498: L2-HR :0.88892: (Sim:0h6m11s) 
CPU  1 inst:    9000004 cyc:    5227077 now IPC :1.74390: AVG IPC :1.64888: L2-Pf-HR :0.94273: L2-HR :0.89818: (Sim:0h6m46s) 
CPU  2 inst:    9000004 cyc:    5227434 now IPC :1.77410: AVG IPC :1.64853: L2-Pf-HR :0.95513: L2-HR :0.90993: (Sim:0h6m46s) 
CPU  0 inst:    9000004 cyc:    5242984 now IPC :1.72500: AVG IPC :1.64266: L2-Pf-HR :0.95057: L2-HR :0.90908: (Sim:0h6m47s) 
CPU  3 inst:    9000003 cyc:    5245635 now IPC :1.74583: AVG IPC :1.64170: L2-Pf-HR :0.94463: L2-HR :0.88964: (Sim:0h6m47s) 
CPU  0 inst:   10000000 cyc:    5753433 now IPC :1.95905: AVG IPC :1.67650: L2-Pf-HR :0.94787: L2-HR :0.90900: (Sim:0h7m14s) 
CPU  1 inst:   10000000 cyc:    5761730 now IPC :1.87036: AVG IPC :1.67365: L2-Pf-HR :0.94064: L2-HR :0.89874: (Sim:0h7m14s) 
CPU  2 inst:   10000004 cyc:    5766058 now IPC :1.85658: AVG IPC :1.67195: L2-Pf-HR :0.95322: L2-HR :0.90964: (Sim:0h7m14s) 
CPU  3 inst:   10000004 cyc:    5773756 now IPC :1.89351: AVG IPC :1.66945: L2-Pf-HR :0.94217: L2-HR :0.88859: (Sim:0h7m15s) 
CPU  0 inst:   11000005 cyc:    6283447 now IPC :1.88675: AVG IPC :1.69752: L2-Pf-HR :0.94604: L2-HR :0.90944: (Sim:0h7m41s) 
CPU  1 inst:   11000005 cyc:    6291720 now IPC :1.88684: AVG IPC :1.69493: L2-Pf-HR :0.93888: L2-HR :0.89905: (Sim:0h7m42s) 
CPU  2 inst:   11000005 cyc:    6307943 now IPC :1.84541: AVG IPC :1.68960: L2-Pf-HR :0.95174: L2-HR :0.90952: (Sim:0h7m43s) 
CPU  3 inst:   11000005 cyc:    6320792 now IPC :1.82804: AVG IPC :1.68570: L2-Pf-HR :0.94054: L2-HR :0.88823: (Sim:0h7m43s) 
CPU  0 inst:   12000005 cyc:    6796063 now IPC :1.95078: AVG IPC :1.71985: L2-Pf-HR :0.94522: L2-HR :0.90958: (Sim:0h8m9s) 
CPU  1 inst:   12000005 cyc:    6814435 now IPC :1.91309: AVG IPC :1.71448: L2-Pf-HR :0.93833: L2-HR :0.89936: (Sim:0h8m10s) 
CPU  2 inst:   12000005 cyc:    6818468 now IPC :1.95877: AVG IPC :1.71314: L2-Pf-HR :0.95136: L2-HR :0.90989: (Sim:0h8m10s) 
CPU  3 inst:   12000005 cyc:    6832886 now IPC :1.95277: AVG IPC :1.70907: L2-Pf-HR :0.93963: L2-HR :0.88824: (Sim:0h8m11s) 
CPU  0 inst:   13000004 cyc:    7457665 now IPC :1.51148: AVG IPC :1.69856: L2-Pf-HR :0.95138: L2-HR :0.91248: (Sim:0h8m53s) 
CPU  1 inst:   13000004 cyc:    7466417 now IPC :1.53378: AVG IPC :1.69631: L2-Pf-HR :0.94193: L2-HR :0.89868: (Sim:0h8m53s) 
CPU  2 inst:   13000004 cyc:    7474005 now IPC :1.52547: AVG IPC :1.69419: L2-Pf-HR :0.95712: L2-HR :0.91345: (Sim:0h8m54s) 
CPU  3 inst:   13000004 cyc:    7478629 now IPC :1.54860: AVG IPC :1.69312: L2-Pf-HR :0.94616: L2-HR :0.89199: (Sim:0h8m54s) 
CPU  0 inst:   14000001 cyc:    7990144 now IPC :1.87800: AVG IPC :1.71220: L2-Pf-HR :0.94988: L2-HR :0.91201: (Sim:0h9m38s) 
CPU  1 inst:   14000001 cyc:    7994351 now IPC :1.89417: AVG IPC :1.71121: L2-Pf-HR :0.93829: L2-HR :0.89600: (Sim:0h9m38s) 
CPU  2 inst:   14000001 cyc:    8001265 now IPC :1.89659: AVG IPC :1.70940: L2-Pf-HR :0.95538: L2-HR :0.91270: (Sim:0h9m38s) 
CPU  3 inst:   14000001 cyc:    8008649 now IPC :1.88672: AVG IPC :1.70773: L2-Pf-HR :0.94447: L2-HR :0.89145: (Sim:0h9m39s) 
CPU  0 inst:   15000005 cyc:    8481658 now IPC :2.03454: AVG IPC :1.73332: L2-Pf-HR :0.94878: L2-HR :0.91201: (Sim:0h10m22s) 
CPU  1 inst:   15000005 cyc:    8483599 now IPC :2.04396: AVG IPC :1.73291: L2-Pf-HR :0.93621: L2-HR :0.89509: (Sim:0h10m22s) 
CPU  2 inst:   15000005 cyc:    8494198 now IPC :2.02868: AVG IPC :1.73035: L2-Pf-HR :0.95437: L2-HR :0.91289: (Sim:0h10m23s) 
CPU  3 inst:   15000005 cyc:    8515319 now IPC :1.97368: AVG IPC :1.72561: L2-Pf-HR :0.94298: L2-HR :0.89145: (Sim:0h10m25s) 
CPU  0 inst:   16000000 cyc:    8958960 now IPC :2.09510: AVG IPC :1.75497: L2-Pf-HR :0.94862: L2-HR :0.91211: (Sim:0h10m59s) 
CPU  1 inst:   16000000 cyc:    8962675 now IPC :2.08734: AVG IPC :1.75419: L2-Pf-HR :0.93511: L2-HR :0.89413: (Sim:0h10m59s) 
CPU  2 inst:   16000000 cyc:    8980798 now IPC :2.05507: AVG IPC :1.75010: L2-Pf-HR :0.95407: L2-HR :0.91311: (Sim:0h11m0s) 
CPU  3 inst:   16000000 cyc:    9001237 now IPC :2.05795: AVG IPC :1.74575: L2-Pf-HR :0.94262: L2-HR :0.89195: (Sim:0h11m1s) 
CPU  1 inst:   17000002 cyc:    9699875 now IPC :1.35649: AVG IPC :1.72056: L2-Pf-HR :0.93688: L2-HR :0.89310: (Sim:0h11m28s) 
CPU  0 inst:   17000002 cyc:    9700171 now IPC :1.34915: AVG IPC :1.72047: L2-Pf-HR :0.94996: L2-HR :0.91126: (Sim:0h11m28s) 
CPU  2 inst:   17000002 cyc:    9702715 now IPC :1.38520: AVG IPC :1.71989: L2-Pf-HR :0.95531: L2-HR :0.91265: (Sim:0h11m29s) 
CPU  3 inst:   17000005 cyc:    9734801 now IPC :1.36321: AVG IPC :1.71369: L2-Pf-HR :0.94434: L2-HR :0.89216: (Sim:0h11m30s) 
CPU  0 inst:   18000000 cyc:   10391084 now IPC :1.44736: AVG IPC :1.70041: L2-Pf-HR :0.94963: L2-HR :0.91146: (Sim:0h11m58s) 
CPU  1 inst:   18000000 cyc:   10399001 now IPC :1.43035: AVG IPC :1.69901: L2-Pf-HR :0.93694: L2-HR :0.89375: (Sim:0h11m58s) 
CPU  2 inst:   18000000 cyc:   10399883 now IPC :1.43437: AVG IPC :1.69876: L2-Pf-HR :0.95485: L2-HR :0.91243: (Sim:0h11m58s) 
CPU  3 inst:   18000000 cyc:   10410727 now IPC :1.47944: AVG IPC :1.69690: L2-Pf-HR :0.94452: L2-HR :0.89279: (Sim:0h11m59s) 
CPU  1 inst:   19000001 cyc:   10991309 now IPC :1.68831: AVG IPC :1.69838: L2-Pf-HR :0.93680: L2-HR :0.89360: (Sim:0h12m33s) 
CPU  0 inst:   19000001 cyc:   10993053 now IPC :1.66122: AVG IPC :1.69806: L2-Pf-HR :0.94914: L2-HR :0.91092: (Sim:0h12m33s) 
CPU  2 inst:   19000001 cyc:   11000980 now IPC :1.66363: AVG IPC :1.69665: L2-Pf-HR :0.95441: L2-HR :0.91147: (Sim:0h12m33s) 
CPU  3 inst:   19000001 cyc:   11008885 now IPC :1.67180: AVG IPC :1.69540: L2-Pf-HR :0.94449: L2-HR :0.89212: (Sim:0h12m34s) 
CPU  1 inst:   20000005 cyc:   11592729 now IPC :1.66274: AVG IPC :1.69636: L2-Pf-HR :0.93602: L2-HR :0.89360: (Sim:0h13m13s) 
CPU  0 inst:   20000001 cyc:   11594533 now IPC :1.66257: AVG IPC :1.69604: L2-Pf-HR :0.94797: L2-HR :0.91033: (Sim:0h13m13s) 
CPU  2 inst:   20000005 cyc:   11601560 now IPC :1.66506: AVG IPC :1.69486: L2-Pf-HR :0.95363: L2-HR :0.91075: (Sim:0h13m14s) 
CPU  3 inst:   20000001 cyc:   11602928 now IPC :1.68338: AVG IPC :1.69473: L2-Pf-HR :0.94342: L2-HR :0.89107: (Sim:0h13m14s) 
CPU  1 inst:   21000003 cyc:   12203814 now IPC :1.63643: AVG IPC :1.69310: L2-Pf-HR :0.93578: L2-HR :0.89331: (Sim:0h13m56s) 
CPU  0 inst:   21000000 cyc:   12203841 now IPC :1.64120: AVG IPC :1.69307: L2-Pf-HR :0.94737: L2-HR :0.90971: (Sim:0h13m56s) 
CPU  2 inst:   21000000 cyc:   12208032 now IPC :1.64887: AVG IPC :1.69238: L2-Pf-HR :0.95338: L2-HR :0.90993: (Sim:0h13m56s) 
CPU  3 inst:   21000000 cyc:   12276485 now IPC :1.48465: AVG IPC :1.68220: L2-Pf-HR :0.94294: L2-HR :0.88976: (Sim:0h14m0s) 
CPU  0 inst:   22000004 cyc:   12776699 now IPC :1.74564: AVG IPC :1.69562: L2-Pf-HR :0.94744: L2-HR :0.90994: (Sim:0h14m41s) 
CPU  1 inst:   22000001 cyc:   12778407 now IPC :1.74036: AVG IPC :1.69540: L2-Pf-HR :0.93602: L2-HR :0.89394: (Sim:0h14m42s) 
CPU  2 inst:   22000004 cyc:   12782839 now IPC :1.73972: AVG IPC :1.69469: L2-Pf-HR :0.95329: L2-HR :0.91025: (Sim:0h14m42s) 
CPU  3 inst:   22000004 cyc:   12848020 now IPC :1.74968: AVG IPC :1.68545: L2-Pf-HR :0.94293: L2-HR :0.89023: (Sim:0h14m48s) 
CPU  1 inst:   23000001 cyc:   13665917 now IPC :1.12675: AVG IPC :1.65561: L2-Pf-HR :0.93896: L2-HR :0.89518: (Sim:0h15m32s) 
CPU  0 inst:   23000002 cyc:   13676254 now IPC :1.11166: AVG IPC :1.65424: L2-Pf-HR :0.94938: L2-HR :0.91051: (Sim:0h15m33s) 
CPU  2 inst:   23000001 cyc:   13681022 now IPC :1.11336: AVG IPC :1.65357: L2-Pf-HR :0.95516: L2-HR :0.91116: (Sim:0h15m34s) 
CPU  3 inst:   23000002 cyc:   13727142 now IPC :1.13750: AVG IPC :1.64766: L2-Pf-HR :0.94495: L2-HR :0.89137: (Sim:0h15m37s) 
CPU  2 inst:   24000005 cyc:   14522263 now IPC :1.18872: AVG IPC :1.62469: L2-Pf-HR :0.95509: L2-HR :0.91157: (Sim:0h16m25s) 
CPU  1 inst:   24000005 cyc:   14527125 now IPC :1.16116: AVG IPC :1.62417: L2-Pf-HR :0.93908: L2-HR :0.89603: (Sim:0h16m25s) 
CPU  3 inst:   24000005 cyc:   14533211 now IPC :1.24059: AVG IPC :1.62344: L2-Pf-HR :0.94498: L2-HR :0.89214: (Sim:0h16m26s) 
CPU  0 inst:   24000005 cyc:   14535471 now IPC :1.16385: AVG IPC :1.62315: L2-Pf-HR :0.94995: L2-HR :0.91136: (Sim:0h16m26s) 
CPU  0 inst:   25000005 cyc:   15242085 now IPC :1.41520: AVG IPC :1.61285: L2-Pf-HR :0.94943: L2-HR :0.91124: (Sim:0h17m14s) 
CPU  2 inst:   25000005 cyc:   15266951 now IPC :1.34284: AVG IPC :1.61000: L2-Pf-HR :0.95468: L2-HR :0.91114: (Sim:0h17m16s) 
CPU  3 inst:   25000005 cyc:   15272604 now IPC :1.35246: AVG IPC :1.60942: L2-Pf-HR :0.94459: L2-HR :0.89180: (Sim:0h17m16s) 
CPU  1 inst:   25000005 cyc:   15275068 now IPC :1.33700: AVG IPC :1.60915: L2-Pf-HR :0.93854: L2-HR :0.89591: (Sim:0h17m16s) 
CPU  0 inst:   26000002 cyc:   15989248 now IPC :1.33839: AVG IPC :1.59918: L2-Pf-HR :0.94836: L2-HR :0.91095: (Sim:0h18m5s) 
CPU  1 inst:   26000002 cyc:   15991926 now IPC :1.39497: AVG IPC :1.59892: L2-Pf-HR :0.93759: L2-HR :0.89588: (Sim:0h18m5s) 
CPU  2 inst:   26000002 cyc:   16002745 now IPC :1.35907: AVG IPC :1.59771: L2-Pf-HR :0.95377: L2-HR :0.91073: (Sim:0h18m6s) 
CPU  3 inst:   26000002 cyc:   16011451 now IPC :1.35346: AVG IPC :1.59684: L2-Pf-HR :0.94361: L2-HR :0.89126: (Sim:0h18m6s) 
CPU  0 inst:   27000003 cyc:   16771919 now IPC :1.27768: AVG IPC :1.58325: L2-Pf-HR :0.94747: L2-HR :0.91058: (Sim:0h18m56s) 
CPU  1 inst:   27000003 cyc:   16774791 now IPC :1.27736: AVG IPC :1.58298: L2-Pf-HR :0.93678: L2-HR :0.89558: (Sim:0h18m56s) 
CPU  2 inst:   27000003 cyc:   16783569 now IPC :1.28070: AVG IPC :1.58204: L2-Pf-HR :0.95293: L2-HR :0.91022: (Sim:0h18m57s) 
CPU  3 inst:   27000003 cyc:   16788604 now IPC :1.28675: AVG IPC :1.58159: L2-Pf-HR :0.94249: L2-HR :0.89060: (Sim:0h18m57s) 
CPU  0 inst:   28000003 cyc:   17487350 now IPC :1.39776: AVG IPC :1.57521: L2-Pf-HR :0.94686: L2-HR :0.91048: (Sim:0h19m46s) 
CPU  1 inst:   28000003 cyc:   17487549 now IPC :1.40300: AVG IPC :1.57521: L2-Pf-HR :0.93635: L2-HR :0.89565: (Sim:0h19m46s) 
CPU  2 inst:   28000003 cyc:   17492614 now IPC :1.41035: AVG IPC :1.57467: L2-Pf-HR :0.95241: L2-HR :0.91006: (Sim:0h19m47s) 
CPU  3 inst:   28000003 cyc:   17496353 now IPC :1.41293: AVG IPC :1.57437: L2-Pf-HR :0.94175: L2-HR :0.89029: (Sim:0h19m47s) 
CPU  0 inst:   29000004 cyc:   18360781 now IPC :1.14491: AVG IPC :1.55358: L2-Pf-HR :0.94780: L2-HR :0.91098: (Sim:0h20m38s) 
CPU  1 inst:   29000004 cyc:   18375560 now IPC :1.12611: AVG IPC :1.55228: L2-Pf-HR :0.93726: L2-HR :0.89565: (Sim:0h20m39s) 
CPU  2 inst:   29000001 cyc:   18380349 now IPC :1.12646: AVG IPC :1.55180: L2-Pf-HR :0.95358: L2-HR :0.91076: (Sim:0h20m39s) 
CPU  3 inst:   29000004 cyc:   18383248 now IPC :1.12753: AVG IPC :1.55159: L2-Pf-HR :0.94305: L2-HR :0.89100: (Sim:0h20m39s) 
CPU  0 inst:   30000005 cyc:   19194197 now IPC :1.19988: AVG IPC :1.53740: L2-Pf-HR :0.94726: L2-HR :0.91080: (Sim:0h21m30s) 
CPU  1 inst:   30000002 cyc:   19196543 now IPC :1.21805: AVG IPC :1.53721: L2-Pf-HR :0.93584: L2-HR :0.89453: (Sim:0h21m31s) 
CPU  3 inst:   30000005 cyc:   19198522 now IPC :1.22658: AVG IPC :1.53705: L2-Pf-HR :0.94235: L2-HR :0.89069: (Sim:0h21m31s) 
CPU  2 inst:   30000002 cyc:   19202430 now IPC :1.21643: AVG IPC :1.53667: L2-Pf-HR :0.95300: L2-HR :0.91032: (Sim:0h21m31s) 
CPU  0 inst:   31000003 cyc:   20038235 now IPC :1.18478: AVG IPC :1.52178: L2-Pf-HR :0.94633: L2-HR :0.91041: (Sim:0h22m19s) 
CPU  2 inst:   31000003 cyc:   20058944 now IPC :1.16752: AVG IPC :1.52009: L2-Pf-HR :0.95242: L2-HR :0.90986: (Sim:0h22m20s) 
CPU  3 inst:   31000003 cyc:   20066436 now IPC :1.15219: AVG IPC :1.51954: L2-Pf-HR :0.94163: L2-HR :0.89006: (Sim:0h22m20s) 
CPU  1 inst:   31000005 cyc:   20068944 now IPC :1.14627: AVG IPC :1.51934: L2-Pf-HR :0.93449: L2-HR :0.89368: (Sim:0h22m20s) 
CPU  0 inst:   32000000 cyc:   20915530 now IPC :1.13986: AVG IPC :1.50497: L2-Pf-HR :0.94598: L2-HR :0.91008: (Sim:0h22m53s) 
CPU  1 inst:   32000004 cyc:   20937471 now IPC :1.15137: AVG IPC :1.50333: L2-Pf-HR :0.93380: L2-HR :0.89285: (Sim:0h22m55s) 
CPU  2 inst:   32000000 cyc:   20940478 now IPC :1.13438: AVG IPC :1.50306: L2-Pf-HR :0.95228: L2-HR :0.90949: (Sim:0h22m55s) 
CPU  3 inst:   32000005 cyc:   20950209 now IPC :1.13151: AVG IPC :1.50237: L2-Pf-HR :0.94143: L2-HR :0.88958: (Sim:0h22m56s) 
CPU  1 inst:   33000005 cyc:   22248168 now IPC :0.76295: AVG IPC :1.45770: L2-Pf-HR :0.93524: L2-HR :0.89262: (Sim:0h23m43s) 
CPU  0 inst:   33000005 cyc:   22260809 now IPC :0.74334: AVG IPC :1.45682: L2-Pf-HR :0.94727: L2-HR :0.91002: (Sim:0h23m44s) 
CPU  3 inst:   33000005 cyc:   22261770 now IPC :0.76245: AVG IPC :1.45677: L2-Pf-HR :0.94316: L2-HR :0.89006: (Sim:0h23m44s) 
CPU  2 inst:   33000005 cyc:   22261787 now IPC :0.75683: AVG IPC :1.45672: L2-Pf-HR :0.95354: L2-HR :0.90965: (Sim:0h23m44s) 
CPU  3 inst:   34000003 cyc:   23513865 now IPC :0.79866: AVG IPC :1.42020: L2-Pf-HR :0.94500: L2-HR :0.89037: (Sim:0h24m45s) 
CPU  1 inst:   34000003 cyc:   23518479 now IPC :0.78721: AVG IPC :1.41991: L2-Pf-HR :0.93755: L2-HR :0.89309: (Sim:0h24m46s) 
CPU  2 inst:   34000003 cyc:   23548969 now IPC :0.77689: AVG IPC :1.41795: L2-Pf-HR :0.95494: L2-HR :0.90969: (Sim:0h24m48s) 
CPU  0 inst:   34000003 cyc:   23551632 now IPC :0.77470: AVG IPC :1.41781: L2-Pf-HR :0.94893: L2-HR :0.91026: (Sim:0h24m48s) 
CPU  3 inst:   35000004 cyc:   24598210 now IPC :0.92222: AVG IPC :1.39733: L2-Pf-HR :0.94657: L2-HR :0.89050: (Sim:0h25m43s) 
CPU  1 inst:   35000004 cyc:   24604057 now IPC :0.92117: AVG IPC :1.39699: L2-Pf-HR :0.93962: L2-HR :0.89356: (Sim:0h25m44s) 
CPU  0 inst:   35000002 cyc:   24604266 now IPC :0.95000: AVG IPC :1.39696: L2-Pf-HR :0.95042: L2-HR :0.91029: (Sim:0h25m44s) 
CPU  2 inst:   35000004 cyc:   24618691 now IPC :0.93482: AVG IPC :1.39608: L2-Pf-HR :0.95621: L2-HR :0.90961: (Sim:0h25m45s) 
CPU  0 inst:   36000005 cyc:   25892067 now IPC :0.77652: AVG IPC :1.36489: L2-Pf-HR :0.95117: L2-HR :0.90977: (Sim:0h26m48s) 
CPU  1 inst:   36000005 cyc:   25894400 now IPC :0.77499: AVG IPC :1.36477: L2-Pf-HR :0.94086: L2-HR :0.89337: (Sim:0h26m49s) 
CPU  2 inst:   36000005 cyc:   25896528 now IPC :0.78257: AVG IPC :1.36462: L2-Pf-HR :0.95683: L2-HR :0.90907: (Sim:0h26m49s) 
CPU  3 inst:   36000005 cyc:   25901578 now IPC :0.76724: AVG IPC :1.36438: L2-Pf-HR :0.94718: L2-HR :0.88976: (Sim:0h26m49s) 
CPU  0 inst:   37000002 cyc:   27069422 now IPC :0.84936: AVG IPC :1.34162: L2-Pf-HR :0.95164: L2-HR :0.90924: (Sim:0h27m47s) 
CPU  2 inst:   37000002 cyc:   27119306 now IPC :0.81781: AVG IPC :1.33904: L2-Pf-HR :0.95715: L2-HR :0.90843: (Sim:0h27m50s) 
CPU  3 inst:   37000001 cyc:   27129003 now IPC :0.81471: AVG IPC :1.33857: L2-Pf-HR :0.94753: L2-HR :0.88893: (Sim:0h27m50s) 
CPU  1 inst:   37000002 cyc:   27153571 now IPC :0.79417: AVG IPC :1.33732: L2-Pf-HR :0.94144: L2-HR :0.89284: (Sim:0h27m51s) 
CPU  1 inst:   38000004 cyc:   28390970 now IPC :0.80815: AVG IPC :1.31343: L2-Pf-HR :0.94287: L2-HR :0.89287: (Sim:0h28m51s) 
CPU  0 inst:   38000001 cyc:   28403705 now IPC :0.74947: AVG IPC :1.31281: L2-Pf-HR :0.95279: L2-HR :0.90908: (Sim:0h28m52s) 
CPU  3 inst:   38000001 cyc:   28424894 now IPC :0.77167: AVG IPC :1.31180: L2-Pf-HR :0.94857: L2-HR :0.88857: (Sim:0h28m53s) 
CPU  2 inst:   38000001 cyc:   28436128 now IPC :0.75940: AVG IPC :1.31123: L2-Pf-HR :0.95809: L2-HR :0.90829: (Sim:0h28m54s) 
CPU  0 inst:   39000000 cyc:   29967478 now IPC :0.63948: AVG IPC :1.27648: L2-Pf-HR :0.95396: L2-HR :0.90927: (Sim:0h29m56s) 
CPU  3 inst:   39000000 cyc:   29980297 now IPC :0.64292: AVG IPC :1.27593: L2-Pf-HR :0.94990: L2-HR :0.88908: (Sim:0h29m57s) 
CPU  2 inst:   39000000 cyc:   29985889 now IPC :0.64526: AVG IPC :1.27565: L2-Pf-HR :0.95919: L2-HR :0.90873: (Sim:0h29m57s) 
CPU  1 inst:   39000000 cyc:   29986887 now IPC :0.62660: AVG IPC :1.27564: L2-Pf-HR :0.94446: L2-HR :0.89343: (Sim:0h29m57s) 
CPU  0 inst:   40000000 cyc:   31127411 now IPC :0.86212: AVG IPC :1.26054: L2-Pf-HR :0.95564: L2-HR :0.91019: (Sim:0h30m52s) 
CPU  2 inst:   40000000 cyc:   31133746 now IPC :0.87119: AVG IPC :1.26025: L2-Pf-HR :0.96085: L2-HR :0.90978: (Sim:0h30m52s) 
CPU  3 inst:   40000002 cyc:   31137902 now IPC :0.86385: AVG IPC :1.26011: L2-Pf-HR :0.95223: L2-HR :0.89074: (Sim:0h30m53s) 
CPU  1 inst:   40000000 cyc:   31143730 now IPC :0.86442: AVG IPC :1.25986: L2-Pf-HR :0.94663: L2-HR :0.89459: (Sim:0h30m53s) 
CPU  0 inst:   41000000 cyc:   32155336 now IPC :0.97283: AVG IPC :1.25105: L2-Pf-HR :0.95705: L2-HR :0.91081: (Sim:0h31m47s) 
CPU  2 inst:   41000000 cyc:   32181360 now IPC :0.95455: AVG IPC :1.24999: L2-Pf-HR :0.96213: L2-HR :0.91042: (Sim:0h31m49s) 
CPU  1 inst:   41000003 cyc:   32181795 now IPC :0.96333: AVG IPC :1.25000: L2-Pf-HR :0.94832: L2-HR :0.89533: (Sim:0h31m49s) 
CPU  3 inst:   41000000 cyc:   32186479 now IPC :0.95367: AVG IPC :1.24981: L2-Pf-HR :0.95384: L2-HR :0.89154: (Sim:0h31m49s) 
CPU  0 inst:   42000003 cyc:   33342685 now IPC :0.84221: AVG IPC :1.23605: L2-Pf-HR :0.95837: L2-HR :0.91125: (Sim:0h32m45s) 
CPU  2 inst:   42000003 cyc:   33346622 now IPC :0.85818: AVG IPC :1.23588: L2-Pf-HR :0.96348: L2-HR :0.91114: (Sim:0h32m45s) 
CPU  1 inst:   42000001 cyc:   33348567 now IPC :0.85706: AVG IPC :1.23583: L2-Pf-HR :0.95015: L2-HR :0.89617: (Sim:0h32m45s) 
CPU  3 inst:   42000003 cyc:   33351656 now IPC :0.85824: AVG IPC :1.23572: L2-Pf-HR :0.95545: L2-HR :0.89233: (Sim:0h32m45s) 
CPU  0 inst:   43000003 cyc:   34345966 now IPC :0.99673: AVG IPC :1.22885: L2-Pf-HR :0.95974: L2-HR :0.91206: (Sim:0h33m37s) 
CPU  1 inst:   43000004 cyc:   34353820 now IPC :0.99478: AVG IPC :1.22857: L2-Pf-HR :0.95194: L2-HR :0.89731: (Sim:0h33m38s) 
CPU  3 inst:   43000003 cyc:   34354423 now IPC :0.99724: AVG IPC :1.22855: L2-Pf-HR :0.95695: L2-HR :0.89327: (Sim:0h33m38s) 
CPU  2 inst:   43000003 cyc:   34359315 now IPC :0.98747: AVG IPC :1.22834: L2-Pf-HR :0.96479: L2-HR :0.91210: (Sim:0h33m38s) 
CPU  1 inst:   44000004 cyc:   35369688 now IPC :0.98438: AVG IPC :1.22136: L2-Pf-HR :0.95376: L2-HR :0.89836: (Sim:0h34m31s) 
CPU  0 inst:   44000000 cyc:   35373503 now IPC :0.97320: AVG IPC :1.22122: L2-Pf-HR :0.96116: L2-HR :0.91284: (Sim:0h34m31s) 
CPU  3 inst:   44000000 cyc:   35378563 now IPC :0.97643: AVG IPC :1.22104: L2-Pf-HR :0.95847: L2-HR :0.89413: (Sim:0h34m31s) 
CPU  2 inst:   44000004 cyc:   35378932 now IPC :0.98076: AVG IPC :1.22100: L2-Pf-HR :0.96615: L2-HR :0.91305: (Sim:0h34m31s) 
CPU  1 inst:   45000005 cyc:   36681710 now IPC :0.76218: AVG IPC :1.20448: L2-Pf-HR :0.95467: L2-HR :0.89859: (Sim:0h35m30s) 
CPU  2 inst:   45000005 cyc:   36714375 now IPC :0.74882: AVG IPC :1.20336: L2-Pf-HR :0.96695: L2-HR :0.91358: (Sim:0h35m32s) 
CPU  0 inst:   45000005 cyc:   36714815 now IPC :0.74554: AVG IPC :1.20336: L2-Pf-HR :0.96193: L2-HR :0.91315: (Sim:0h35m32s) 
CPU  3 inst:   45000005 cyc:   36719585 now IPC :0.74570: AVG IPC :1.20321: L2-Pf-HR :0.95936: L2-HR :0.89463: (Sim:0h35m32s) 
CPU  1 inst:   46000002 cyc:   37925561 now IPC :0.80395: AVG IPC :1.19100: L2-Pf-HR :0.95441: L2-HR :0.89778: (Sim:0h36m24s) 
CPU  0 inst:   46000002 cyc:   37940954 now IPC :0.81557: AVG IPC :1.19049: L2-Pf-HR :0.96205: L2-HR :0.91301: (Sim:0h36m25s) 
CPU  2 inst:   46000002 cyc:   37943669 now IPC :0.81347: AVG IPC :1.19039: L2-Pf-HR :0.96696: L2-HR :0.91334: (Sim:0h36m25s) 
CPU  3 inst:   46000002 cyc:   37972290 now IPC :0.79827: AVG IPC :1.18949: L2-Pf-HR :0.95944: L2-HR :0.89439: (Sim:0h36m25s) 
CPU  3 inst:   47000005 cyc:   39149417 now IPC :0.84953: AVG IPC :1.17901: L2-Pf-HR :0.95922: L2-HR :0.89391: (Sim:0h37m1s) 
CPU  1 inst:   47000005 cyc:   39160510 now IPC :0.80975: AVG IPC :1.17867: L2-Pf-HR :0.95415: L2-HR :0.89703: (Sim:0h37m1s) 
CPU  0 inst:   47000005 cyc:   39173504 now IPC :0.81133: AVG IPC :1.17826: L2-Pf-HR :0.96189: L2-HR :0.91261: (Sim:0h37m2s) 
CPU  2 inst:   47000005 cyc:   39174598 now IPC :0.81240: AVG IPC :1.17821: L2-Pf-HR :0.96687: L2-HR :0.91294: (Sim:0h37m2s) 
CPU  0 inst:   48000005 cyc:   40340034 now IPC :0.85724: AVG IPC :1.16874: L2-Pf-HR :0.96206: L2-HR :0.91240: (Sim:0h37m51s) 
CPU  2 inst:   48000004 cyc:   40341634 now IPC :0.85687: AVG IPC :1.16868: L2-Pf-HR :0.96705: L2-HR :0.91270: (Sim:0h37m51s) 
CPU  1 inst:   48000000 cyc:   40360642 now IPC :0.83324: AVG IPC :1.16814: L2-Pf-HR :0.95429: L2-HR :0.89660: (Sim:0h37m52s) 
CPU  3 inst:   48000005 cyc:   40366228 now IPC :0.82182: AVG IPC :1.16797: L2-Pf-HR :0.95936: L2-HR :0.89361: (Sim:0h37m53s) 
CPU  2 inst:   49000002 cyc:   41871520 now IPC :0.65364: AVG IPC :1.14941: L2-Pf-HR :0.96737: L2-HR :0.91259: (Sim:0h38m57s) 
CPU  0 inst:   49000002 cyc:   41876891 now IPC :0.65068: AVG IPC :1.14927: L2-Pf-HR :0.96242: L2-HR :0.91221: (Sim:0h38m57s) 
CPU  1 inst:   49000002 cyc:   41877042 now IPC :0.65946: AVG IPC :1.14928: L2-Pf-HR :0.95460: L2-HR :0.89611: (Sim:0h38m57s) 
CPU  3 inst:   49000001 cyc:   41877461 now IPC :0.66171: AVG IPC :1.14927: L2-Pf-HR :0.95981: L2-HR :0.89358: (Sim:0h38m57s) 
CPU  2 inst:   50000000 cyc:   43110628 now IPC :0.80703: AVG IPC :1.13934: L2-Pf-HR :0.96785: L2-HR :0.91261: (Sim:0h39m56s) 
CPU  0 inst:   50000003 cyc:   43115030 now IPC :0.80766: AVG IPC :1.13924: L2-Pf-HR :0.96305: L2-HR :0.91229: (Sim:0h39m56s) 
CPU  1 inst:   50000000 cyc:   43115243 now IPC :0.80762: AVG IPC :1.13924: L2-Pf-HR :0.95551: L2-HR :0.89640: (Sim:0h39m56s) 
CPU  3 inst:   50000000 cyc:   43116897 now IPC :0.80682: AVG IPC :1.13919: L2-Pf-HR :0.96061: L2-HR :0.89386: (Sim:0h39m56s) 
CPU  0 inst:   51000001 cyc:   44352868 now IPC :0.80786: AVG IPC :1.12978: L2-Pf-HR :0.96370: L2-HR :0.91233: (Sim:0h40m55s) 
CPU  3 inst:   51000001 cyc:   44392309 now IPC :0.78406: AVG IPC :1.12876: L2-Pf-HR :0.96143: L2-HR :0.89396: (Sim:0h40m57s) 
CPU  1 inst:   51000002 cyc:   44397844 now IPC :0.77967: AVG IPC :1.12861: L2-Pf-HR :0.95642: L2-HR :0.89653: (Sim:0h40m58s) 
CPU  2 inst:   51000001 cyc:   44414070 now IPC :0.76720: AVG IPC :1.12817: L2-Pf-HR :0.96841: L2-HR :0.91257: (Sim:0h40m58s) 
CPU  2 inst:   52000005 cyc:   45734895 now IPC :0.75711: AVG IPC :1.11722: L2-Pf-HR :0.96910: L2-HR :0.91271: (Sim:0h41m58s) 
CPU  3 inst:   52000005 cyc:   45742920 now IPC :0.74041: AVG IPC :1.11704: L2-Pf-HR :0.96234: L2-HR :0.89421: (Sim:0h41m59s) 
CPU  1 inst:   52000000 cyc:   45745977 now IPC :0.74177: AVG IPC :1.11696: L2-Pf-HR :0.95745: L2-HR :0.89684: (Sim:0h41m59s) 
CPU  0 inst:   52000005 cyc:   45747529 now IPC :0.71702: AVG IPC :1.11692: L2-Pf-HR :0.96450: L2-HR :0.91245: (Sim:0h41m59s) 
CPU  0 inst:   53000003 cyc:   47097684 now IPC :0.74065: AVG IPC :1.10590: L2-Pf-HR :0.96508: L2-HR :0.91229: (Sim:0h43m0s) 
CPU  1 inst:   53000003 cyc:   47113643 now IPC :0.73117: AVG IPC :1.10553: L2-Pf-HR :0.95825: L2-HR :0.89682: (Sim:0h43m1s) 
CPU  2 inst:   53000003 cyc:   47128110 now IPC :0.71776: AVG IPC :1.10516: L2-Pf-HR :0.96961: L2-HR :0.91259: (Sim:0h43m1s) 
CPU  3 inst:   53000003 cyc:   47133377 now IPC :0.71919: AVG IPC :1.10505: L2-Pf-HR :0.96291: L2-HR :0.89396: (Sim:0h43m2s) 
CPU  1 inst:   54000000 cyc:   48387548 now IPC :0.78499: AVG IPC :1.09691: L2-Pf-HR :0.95914: L2-HR :0.89700: (Sim:0h43m51s) 
CPU  0 inst:   54000000 cyc:   48391109 now IPC :0.77314: AVG IPC :1.09682: L2-Pf-HR :0.96573: L2-HR :0.91230: (Sim:0h43m51s) 
CPU  3 inst:   54000000 cyc:   48415170 now IPC :0.78015: AVG IPC :1.09627: L2-Pf-HR :0.96354: L2-HR :0.89395: (Sim:0h43m51s) 
CPU  2 inst:   54000000 cyc:   48433412 now IPC :0.76610: AVG IPC :1.09583: L2-Pf-HR :0.97020: L2-HR :0.91265: (Sim:0h43m52s) 
CPU  2 inst:   55000004 cyc:   50188784 now IPC :0.56968: AVG IPC :1.07706: L2-Pf-HR :0.97075: L2-HR :0.91292: (Sim:0h44m35s) 
CPU  1 inst:   55000004 cyc:   50189390 now IPC :0.55499: AVG IPC :1.07707: L2-Pf-HR :0.95998: L2-HR :0.89746: (Sim:0h44m35s) 
CPU  3 inst:   55000004 cyc:   50189529 now IPC :0.56359: AVG IPC :1.07707: L2-Pf-HR :0.96418: L2-HR :0.89415: (Sim:0h44m35s) 
CPU  0 inst:   55000004 cyc:   50193107 now IPC :0.55494: AVG IPC :1.07698: L2-Pf-HR :0.96633: L2-HR :0.91251: (Sim:0h44m35s) 
CPU  0 inst:   56000004 cyc:   51323585 now IPC :0.88458: AVG IPC :1.07266: L2-Pf-HR :0.96603: L2-HR :0.91237: (Sim:0h45m10s) 
CPU  1 inst:   56000004 cyc:   51330804 now IPC :0.87611: AVG IPC :1.07251: L2-Pf-HR :0.95968: L2-HR :0.89730: (Sim:0h45m10s) 
CPU  2 inst:   56000004 cyc:   51335583 now IPC :0.87199: AVG IPC :1.07239: L2-Pf-HR :0.97051: L2-HR :0.91269: (Sim:0h45m10s) 
CPU  3 inst:   56000001 cyc:   51376607 now IPC :0.84240: AVG IPC :1.07154: L2-Pf-HR :0.96389: L2-HR :0.89399: (Sim:0h45m12s) 
CPU  0 inst:   57000004 cyc:   52570023 now IPC :0.80229: AVG IPC :1.06613: L2-Pf-HR :0.96561: L2-HR :0.91221: (Sim:0h45m47s) 
CPU  2 inst:   57000004 cyc:   52594421 now IPC :0.79438: AVG IPC :1.06561: L2-Pf-HR :0.97011: L2-HR :0.91236: (Sim:0h45m47s) 
CPU  1 inst:   57000004 cyc:   52603753 now IPC :0.78558: AVG IPC :1.06544: L2-Pf-HR :0.95920: L2-HR :0.89707: (Sim:0h45m48s) 
CPU  3 inst:   57000001 cyc:   52655194 now IPC :0.78211: AVG IPC :1.06438: L2-Pf-HR :0.96360: L2-HR :0.89369: (Sim:0h45m49s) 
CPU  0 inst:   58000004 cyc:   53824642 now IPC :0.79705: AVG IPC :1.05974: L2-Pf-HR :0.96507: L2-HR :0.91197: (Sim:0h46m24s) 
CPU  1 inst:   58000004 cyc:   53844175 now IPC :0.80618: AVG IPC :1.05935: L2-Pf-HR :0.95870: L2-HR :0.89691: (Sim:0h46m24s) 
CPU  2 inst:   58000004 cyc:   53861914 now IPC :0.78896: AVG IPC :1.05898: L2-Pf-HR :0.96968: L2-HR :0.91208: (Sim:0h46m25s) 
CPU  3 inst:   58000005 cyc:   53879794 now IPC :0.81660: AVG IPC :1.05864: L2-Pf-HR :0.96307: L2-HR :0.89337: (Sim:0h46m25s) 
CPU  2 inst:   59000005 cyc:   55149317 now IPC :0.77676: AVG IPC :1.05227: L2-Pf-HR :0.96943: L2-HR :0.91175: (Sim:0h47m0s) 
CPU  1 inst:   59000005 cyc:   55160669 now IPC :0.75959: AVG IPC :1.05207: L2-Pf-HR :0.95827: L2-HR :0.89667: (Sim:0h47m0s) 
CPU  0 inst:   59000005 cyc:   55167815 now IPC :0.74451: AVG IPC :1.05193: L2-Pf-HR :0.96469: L2-HR :0.91171: (Sim:0h47m1s) 
CPU  3 inst:   59000005 cyc:   55168872 now IPC :0.77575: AVG IPC :1.05191: L2-Pf-HR :0.96276: L2-HR :0.89300: (Sim:0h47m1s) 
CPU  0 inst:   60000005 cyc:   56391083 now IPC :0.81748: AVG IPC :1.04675: L2-Pf-HR :0.96423: L2-HR :0.91150: (Sim:0h47m35s) 
CPU  2 inst:   60000001 cyc:   56407880 now IPC :0.79455: AVG IPC :1.04642: L2-Pf-HR :0.96906: L2-HR :0.91152: (Sim:0h47m36s) 
CPU  1 inst:   60000000 cyc:   56413431 now IPC :0.79823: AVG IPC :1.04633: L2-Pf-HR :0.95787: L2-HR :0.89654: (Sim:0h47m36s) 
CPU  3 inst:   60000001 cyc:   56429524 now IPC :0.79324: AVG IPC :1.04603: L2-Pf-HR :0.96227: L2-HR :0.89271: (Sim:0h47m37s) 
CPU  0 inst:   61000005 cyc:   57721658 now IPC :0.75155: AVG IPC :1.03983: L2-Pf-HR :0.96459: L2-HR :0.91165: (Sim:0h48m10s) 
CPU  1 inst:   61000005 cyc:   57799453 now IPC :0.72149: AVG IPC :1.03841: L2-Pf-HR :0.95818: L2-HR :0.89660: (Sim:0h48m13s) 
CPU  2 inst:   61000005 cyc:   57802919 now IPC :0.71683: AVG IPC :1.03833: L2-Pf-HR :0.96935: L2-HR :0.91172: (Sim:0h48m13s) 
CPU  3 inst:   61000005 cyc:   57817086 now IPC :0.72069: AVG IPC :1.03809: L2-Pf-HR :0.96252: L2-HR :0.89288: (Sim:0h48m15s) 
CPU  1 inst:   62000000 cyc:   58947914 now IPC :0.87073: AVG IPC :1.03509: L2-Pf-HR :0.95786: L2-HR :0.89595: (Sim:0h48m55s) 
CPU  0 inst:   62000000 cyc:   58962214 now IPC :0.80609: AVG IPC :1.03483: L2-Pf-HR :0.96457: L2-HR :0.91154: (Sim:0h48m55s) 
CPU  2 inst:   62000000 cyc:   58964905 now IPC :0.86059: AVG IPC :1.03477: L2-Pf-HR :0.96927: L2-HR :0.91148: (Sim:0h48m55s) 
CPU  3 inst:   62000000 cyc:   58971366 now IPC :0.86634: AVG IPC :1.03467: L2-Pf-HR :0.96244: L2-HR :0.89263: (Sim:0h48m56s) 
CPU  1 inst:   63000001 cyc:   60152862 now IPC :0.82991: AVG IPC :1.03091: L2-Pf-HR :0.95768: L2-HR :0.89551: (Sim:0h49m30s) 
CPU  0 inst:   63000001 cyc:   60177342 now IPC :0.82296: AVG IPC :1.03048: L2-Pf-HR :0.96452: L2-HR :0.91139: (Sim:0h49m31s) 
CPU  2 inst:   63000001 cyc:   60180030 now IPC :0.82296: AVG IPC :1.03042: L2-Pf-HR :0.96916: L2-HR :0.91136: (Sim:0h49m31s) 
CPU  3 inst:   63000001 cyc:   60188097 now IPC :0.82188: AVG IPC :1.03030: L2-Pf-HR :0.96227: L2-HR :0.89243: (Sim:0h49m31s) 
CPU  1 inst:   64000001 cyc:   61130802 now IPC :1.02256: AVG IPC :1.03077: L2-Pf-HR :0.95779: L2-HR :0.89517: (Sim:0h50m12s) 
CPU  0 inst:   64000001 cyc:   61139730 now IPC :1.03908: AVG IPC :1.03062: L2-Pf-HR :0.96467: L2-HR :0.91129: (Sim:0h50m12s) 
CPU  2 inst:   64000001 cyc:   61153096 now IPC :1.02768: AVG IPC :1.03038: L2-Pf-HR :0.96927: L2-HR :0.91122: (Sim:0h50m13s) 
CPU  3 inst:   64000001 cyc:   61190782 now IPC :0.99732: AVG IPC :1.02975: L2-Pf-HR :0.96238: L2-HR :0.89224: (Sim:0h50m14s) 
CPU  3 inst:   65000002 cyc:   62679169 now IPC :0.67187: AVG IPC :1.02111: L2-Pf-HR :0.96262: L2-HR :0.89212: (Sim:0h51m4s) 
CPU  1 inst:   65000005 cyc:   62681485 now IPC :0.64488: AVG IPC :1.02107: L2-Pf-HR :0.95792: L2-HR :0.89477: (Sim:0h51m4s) 
CPU  2 inst:   65000005 cyc:   62689200 now IPC :0.65100: AVG IPC :1.02093: L2-Pf-HR :0.96946: L2-HR :0.91110: (Sim:0h51m4s) 
CPU  0 inst:   65000002 cyc:   62711078 now IPC :0.63640: AVG IPC :1.02058: L2-Pf-HR :0.96491: L2-HR :0.91110: (Sim:0h51m6s) 
CPU  0 inst:   66000002 cyc:   63972996 now IPC :0.79244: AVG IPC :1.01601: L2-Pf-HR :0.96468: L2-HR :0.91088: (Sim:0h52m9s) 
CPU  1 inst:   66000002 cyc:   63980036 now IPC :0.77009: AVG IPC :1.01590: L2-Pf-HR :0.95776: L2-HR :0.89462: (Sim:0h52m9s) 
CPU  2 inst:   66000002 cyc:   63982379 now IPC :0.77329: AVG IPC :1.01585: L2-Pf-HR :0.96924: L2-HR :0.91081: (Sim:0h52m9s) 
CPU  3 inst:   66000002 cyc:   63986989 now IPC :0.76463: AVG IPC :1.01579: L2-Pf-HR :0.96235: L2-HR :0.89198: (Sim:0h52m10s) 
CPU  1 inst:   67000001 cyc:   65304873 now IPC :0.75481: AVG IPC :1.01052: L2-Pf-HR :0.95744: L2-HR :0.89445: (Sim:0h53m15s) 
CPU  0 inst:   67000001 cyc:   65338722 now IPC :0.73221: AVG IPC :1.00999: L2-Pf-HR :0.96435: L2-HR :0.91069: (Sim:0h53m17s) 
CPU  2 inst:   67000001 cyc:   65415802 now IPC :0.69763: AVG IPC :1.00877: L2-Pf-HR :0.96893: L2-HR :0.91050: (Sim:0h53m20s) 
CPU  3 inst:   67000001 cyc:   65418244 now IPC :0.69869: AVG IPC :1.00875: L2-Pf-HR :0.96199: L2-HR :0.89163: (Sim:0h53m21s) 
CPU  0 inst:   68000005 cyc:   66732563 now IPC :0.71744: AVG IPC :1.00379: L2-Pf-HR :0.96433: L2-HR :0.91040: (Sim:0h54m26s) 
CPU  1 inst:   68000001 cyc:   66742333 now IPC :0.69567: AVG IPC :1.00364: L2-Pf-HR :0.95762: L2-HR :0.89432: (Sim:0h54m26s) 
CPU  2 inst:   68000005 cyc:   66745695 now IPC :0.75194: AVG IPC :1.00358: L2-Pf-HR :0.96891: L2-HR :0.91017: (Sim:0h54m27s) 
CPU  3 inst:   68000000 cyc:   66761566 now IPC :0.74442: AVG IPC :1.00335: L2-Pf-HR :0.96200: L2-HR :0.89134: (Sim:0h54m28s) 
CPU  1 inst:   69000000 cyc:   68118747 now IPC :0.72652: AVG IPC :0.99796: L2-Pf-HR :0.95742: L2-HR :0.89406: (Sim:0h55m24s) 
CPU  0 inst:   69000000 cyc:   68118785 now IPC :0.72138: AVG IPC :0.99795: L2-Pf-HR :0.96422: L2-HR :0.91011: (Sim:0h55m24s) 
CPU  3 inst:   69000000 cyc:   68134323 now IPC :0.72846: AVG IPC :0.99773: L2-Pf-HR :0.96183: L2-HR :0.89087: (Sim:0h55m24s) 
CPU  2 inst:   69000000 cyc:   68146812 now IPC :0.71371: AVG IPC :0.99753: L2-Pf-HR :0.96870: L2-HR :0.90980: (Sim:0h55m24s) 
CPU  0 inst:   70000001 cyc:   69534476 now IPC :0.70637: AVG IPC :0.99193: L2-Pf-HR :0.96386: L2-HR :0.90981: (Sim:0h56m3s) 
CPU  1 inst:   70000001 cyc:   69537152 now IPC :0.70502: AVG IPC :0.99190: L2-Pf-HR :0.95704: L2-HR :0.89382: (Sim:0h56m3s) 
CPU  2 inst:   70000001 cyc:   69552488 now IPC :0.71140: AVG IPC :0.99166: L2-Pf-HR :0.96840: L2-HR :0.90949: (Sim:0h56m3s) 
CPU  3 inst:   70000001 cyc:   69568795 now IPC :0.69712: AVG IPC :0.99144: L2-Pf-HR :0.96144: L2-HR :0.89048: (Sim:0h56m4s) 
CPU  0 inst:   71000004 cyc:   71356388 now IPC :0.54888: AVG IPC :0.98046: L2-Pf-HR :0.96426: L2-HR :0.90971: (Sim:0h56m48s) 
CPU  1 inst:   71000004 cyc:   71397062 now IPC :0.53766: AVG IPC :0.97990: L2-Pf-HR :0.95749: L2-HR :0.89383: (Sim:0h56m51s) 
CPU  2 inst:   71000005 cyc:   71400030 now IPC :0.54126: AVG IPC :0.97985: L2-Pf-HR :0.96869: L2-HR :0.90943: (Sim:0h56m51s) 
CPU  3 inst:   71000005 cyc:   71409809 now IPC :0.54318: AVG IPC :0.97972: L2-Pf-HR :0.96168: L2-HR :0.89039: (Sim:0h56m51s) 
CPU  0 inst:   72000002 cyc:   72413680 now IPC :0.94581: AVG IPC :0.97995: L2-Pf-HR :0.96394: L2-HR :0.90962: (Sim:0h57m44s) 
CPU  1 inst:   72000002 cyc:   72426121 now IPC :0.97176: AVG IPC :0.97978: L2-Pf-HR :0.95705: L2-HR :0.89383: (Sim:0h57m45s) 
CPU  2 inst:   72000002 cyc:   72441831 now IPC :0.95987: AVG IPC :0.97956: L2-Pf-HR :0.96829: L2-HR :0.90934: (Sim:0h57m45s) 
CPU  3 inst:   72000002 cyc:   72496829 now IPC :0.91994: AVG IPC :0.97881: L2-Pf-HR :0.96129: L2-HR :0.89038: (Sim:0h57m48s) 
CPU  0 inst:   73000002 cyc:   73674763 now IPC :0.79297: AVG IPC :0.97671: L2-Pf-HR :0.96365: L2-HR :0.90958: (Sim:0h58m44s) 
CPU  2 inst:   73000002 cyc:   73683293 now IPC :0.80550: AVG IPC :0.97658: L2-Pf-HR :0.96804: L2-HR :0.90923: (Sim:0h58m45s) 
CPU  1 inst:   73000002 cyc:   73705695 now IPC :0.78151: AVG IPC :0.97629: L2-Pf-HR :0.95676: L2-HR :0.89380: (Sim:0h58m46s) 
CPU  3 inst:   73000002 cyc:   73868179 now IPC :0.72921: AVG IPC :0.97412: L2-Pf-HR :0.96106: L2-HR :0.89029: (Sim:0h58m51s) 
CPU  0 inst:   74000002 cyc:   75024280 now IPC :0.74101: AVG IPC :0.97241: L2-Pf-HR :0.96318: L2-HR :0.90935: (Sim:0h59m46s) 
CPU  1 inst:   74000002 cyc:   75044427 now IPC :0.74698: AVG IPC :0.97215: L2-Pf-HR :0.95624: L2-HR :0.89365: (Sim:0h59m47s) 
CPU  3 inst:   74000002 cyc:   75056844 now IPC :0.84128: AVG IPC :0.97199: L2-Pf-HR :0.96056: L2-HR :0.89008: (Sim:0h59m47s) 
CPU  2 inst:   74000002 cyc:   75064461 now IPC :0.72402: AVG IPC :0.97187: L2-Pf-HR :0.96765: L2-HR :0.90899: (Sim:0h59m48s) 
CPU  0 inst:   75000003 cyc:   76325114 now IPC :0.76874: AVG IPC :0.96889: L2-Pf-HR :0.96271: L2-HR :0.90919: (Sim:1h0m47s) 
CPU  3 inst:   75000003 cyc:   76369482 now IPC :0.76183: AVG IPC :0.96833: L2-Pf-HR :0.96019: L2-HR :0.88981: (Sim:1h0m49s) 
CPU  2 inst:   75000003 cyc:   76369589 now IPC :0.76621: AVG IPC :0.96831: L2-Pf-HR :0.96730: L2-HR :0.90880: (Sim:1h0m49s) 
CPU  1 inst:   75000003 cyc:   76380593 now IPC :0.74841: AVG IPC :0.96818: L2-Pf-HR :0.95574: L2-HR :0.89355: (Sim:1h0m50s) 
CPU  0 inst:   76000000 cyc:   77626725 now IPC :0.76828: AVG IPC :0.96549: L2-Pf-HR :0.96229: L2-HR :0.90897: (Sim:1h1m52s) 
CPU  3 inst:   76000000 cyc:   77632125 now IPC :0.79199: AVG IPC :0.96542: L2-Pf-HR :0.95976: L2-HR :0.88955: (Sim:1h1m52s) 
CPU  2 inst:   76000000 cyc:   77636070 now IPC :0.78959: AVG IPC :0.96536: L2-Pf-HR :0.96700: L2-HR :0.90857: (Sim:1h1m52s) 
CPU  1 inst:   76000000 cyc:   77640184 now IPC :0.79391: AVG IPC :0.96532: L2-Pf-HR :0.95538: L2-HR :0.89339: (Sim:1h1m52s) 
CPU  1 inst:   77000000 cyc:   79161380 now IPC :0.65738: AVG IPC :0.95933: L2-Pf-HR :0.95548: L2-HR :0.89344: (Sim:1h2m57s) 
CPU  3 inst:   77000000 cyc:   79196323 now IPC :0.63931: AVG IPC :0.95890: L2-Pf-HR :0.95978: L2-HR :0.88960: (Sim:1h3m0s) 
CPU  0 inst:   77000000 cyc:   79200625 now IPC :0.63536: AVG IPC :0.95884: L2-Pf-HR :0.96232: L2-HR :0.90903: (Sim:1h3m0s) 
CPU  2 inst:   77000000 cyc:   79216642 now IPC :0.63268: AVG IPC :0.95864: L2-Pf-HR :0.96706: L2-HR :0.90871: (Sim:1h3m1s) 
CPU  2 inst:   78000004 cyc:   80336091 now IPC :0.89330: AVG IPC :0.95772: L2-Pf-HR :0.96682: L2-HR :0.90849: (Sim:1h3m58s) 
CPU  1 inst:   78000003 cyc:   80341632 now IPC :0.84728: AVG IPC :0.95766: L2-Pf-HR :0.95501: L2-HR :0.89293: (Sim:1h3m58s) 
CPU  0 inst:   78000003 cyc:   80380059 now IPC :0.84787: AVG IPC :0.95720: L2-Pf-HR :0.96201: L2-HR :0.90884: (Sim:1h4m0s) 
CPU  3 inst:   78000001 cyc:   80381749 now IPC :0.84358: AVG IPC :0.95718: L2-Pf-HR :0.95950: L2-HR :0.88936: (Sim:1h4m0s) 
CPU  0 inst:   79000000 cyc:   81540903 now IPC :0.86144: AVG IPC :0.95582: L2-Pf-HR :0.96160: L2-HR :0.90869: (Sim:1h4m59s) 
CPU  1 inst:   79000000 cyc:   81573343 now IPC :0.81188: AVG IPC :0.95543: L2-Pf-HR :0.95447: L2-HR :0.89251: (Sim:1h5m1s) 
CPU  2 inst:   79000000 cyc:   81579020 now IPC :0.80455: AVG IPC :0.95536: L2-Pf-HR :0.96645: L2-HR :0.90826: (Sim:1h5m1s) 
CPU  3 inst:   79000000 cyc:   81600735 now IPC :0.82035: AVG IPC :0.95511: L2-Pf-HR :0.95909: L2-HR :0.88913: (Sim:1h5m2s) 
CPU  0 inst:   80000005 cyc:   82729144 now IPC :0.84158: AVG IPC :0.95416: L2-Pf-HR :0.96121: L2-HR :0.90849: (Sim:1h6m0s) 
CPU  1 inst:   80000000 cyc:   82741798 now IPC :0.85583: AVG IPC :0.95401: L2-Pf-HR :0.95401: L2-HR :0.89217: (Sim:1h6m0s) 
CPU  2 inst:   80000005 cyc:   82766061 now IPC :0.84244: AVG IPC :0.95372: L2-Pf-HR :0.96620: L2-HR :0.90808: (Sim:1h6m2s) 
CPU  3 inst:   80000005 cyc:   82802297 now IPC :0.83225: AVG IPC :0.95331: L2-Pf-HR :0.95877: L2-HR :0.88889: (Sim:1h6m3s) 
CPU  1 inst:   81000005 cyc:   84454786 now IPC :0.58378: AVG IPC :0.94641: L2-Pf-HR :0.95401: L2-HR :0.89176: (Sim:1h7m0s) 
CPU  0 inst:   81000005 cyc:   84480057 now IPC :0.57113: AVG IPC :0.94612: L2-Pf-HR :0.96132: L2-HR :0.90829: (Sim:1h7m2s) 
CPU  2 inst:   81000005 cyc:   84486352 now IPC :0.58130: AVG IPC :0.94605: L2-Pf-HR :0.96631: L2-HR :0.90792: (Sim:1h7m2s) 
CPU  3 inst:   81000005 cyc:   84489024 now IPC :0.59286: AVG IPC :0.94603: L2-Pf-HR :0.95892: L2-HR :0.88870: (Sim:1h7m2s) 
CPU  0 inst:   82000000 cyc:   85671766 now IPC :0.83913: AVG IPC :0.94462: L2-Pf-HR :0.96110: L2-HR :0.90820: (Sim:1h8m2s) 
CPU  2 inst:   82000000 cyc:   85682838 now IPC :0.83578: AVG IPC :0.94449: L2-Pf-HR :0.96610: L2-HR :0.90780: (Sim:1h8m2s) 
CPU  1 inst:   82000001 cyc:   85722669 now IPC :0.78871: AVG IPC :0.94405: L2-Pf-HR :0.95378: L2-HR :0.89172: (Sim:1h8m4s) 
CPU  3 inst:   82000000 cyc:   85737630 now IPC :0.80089: AVG IPC :0.94389: L2-Pf-HR :0.95867: L2-HR :0.88865: (Sim:1h8m5s) 
CPU  0 inst:   83000004 cyc:   87125341 now IPC :0.68796: AVG IPC :0.94029: L2-Pf-HR :0.96115: L2-HR :0.90805: (Sim:1h9m10s) 
CPU  2 inst:   83000004 cyc:   87146805 now IPC :0.68308: AVG IPC :0.94005: L2-Pf-HR :0.96607: L2-HR :0.90752: (Sim:1h9m11s) 
CPU  1 inst:   83000004 cyc:   87157737 now IPC :0.69683: AVG IPC :0.93994: L2-Pf-HR :0.95378: L2-HR :0.89152: (Sim:1h9m12s) 
CPU  3 inst:   83000004 cyc:   87170083 now IPC :0.69811: AVG IPC :0.93980: L2-Pf-HR :0.95858: L2-HR :0.88837: (Sim:1h9m13s) 
CPU  0 inst:   84000000 cyc:   88481439 now IPC :0.73741: AVG IPC :0.93714: L2-Pf-HR :0.96117: L2-HR :0.90782: (Sim:1h10m9s) 
CPU  1 inst:   84000005 cyc:   88540557 now IPC :0.72316: AVG IPC :0.93651: L2-Pf-HR :0.95363: L2-HR :0.89133: (Sim:1h10m11s) 
CPU  2 inst:   84000005 cyc:   88548297 now IPC :0.71353: AVG IPC :0.93642: L2-Pf-HR :0.96593: L2-HR :0.90721: (Sim:1h10m11s) 
CPU  3 inst:   84000000 cyc:   88576055 now IPC :0.71125: AVG IPC :0.93613: L2-Pf-HR :0.95851: L2-HR :0.88813: (Sim:1h10m13s) 
CPU  0 inst:   85000000 cyc:   89991557 now IPC :0.66220: AVG IPC :0.93248: L2-Pf-HR :0.96106: L2-HR :0.90754: (Sim:1h11m11s) 
CPU  1 inst:   85000002 cyc:   90017734 now IPC :0.67696: AVG IPC :0.93221: L2-Pf-HR :0.95364: L2-HR :0.89113: (Sim:1h11m13s) 
CPU  2 inst:   85000005 cyc:   90030237 now IPC :0.67479: AVG IPC :0.93207: L2-Pf-HR :0.96577: L2-HR :0.90691: (Sim:1h11m13s) 
CPU  3 inst:   85000000 cyc:   90033166 now IPC :0.68629: AVG IPC :0.93205: L2-Pf-HR :0.95822: L2-HR :0.88770: (Sim:1h11m14s) 
CPU  2 inst:   86000001 cyc:   91451354 now IPC :0.70367: AVG IPC :0.92848: L2-Pf-HR :0.96571: L2-HR :0.90661: (Sim:1h12m21s) 
CPU  1 inst:   86000001 cyc:   91460131 now IPC :0.69329: AVG IPC :0.92840: L2-Pf-HR :0.95370: L2-HR :0.89090: (Sim:1h12m21s) 
CPU  0 inst:   86000001 cyc:   91461163 now IPC :0.68046: AVG IPC :0.92839: L2-Pf-HR :0.96109: L2-HR :0.90726: (Sim:1h12m21s) 
CPU  3 inst:   86000001 cyc:   91514278 now IPC :0.67517: AVG IPC :0.92784: L2-Pf-HR :0.95820: L2-HR :0.88734: (Sim:1h12m24s) 
CPU  0 inst:   87000000 cyc:   93218417 now IPC :0.56907: AVG IPC :0.92154: L2-Pf-HR :0.96133: L2-HR :0.90715: (Sim:1h13m35s) 
CPU  1 inst:   87000000 cyc:   93262549 now IPC :0.55481: AVG IPC :0.92110: L2-Pf-HR :0.95406: L2-HR :0.89090: (Sim:1h13m36s) 
CPU  3 inst:   87000000 cyc:   93309522 now IPC :0.55703: AVG IPC :0.92063: L2-Pf-HR :0.95841: L2-HR :0.88724: (Sim:1h13m38s) 
CPU  2 inst:   87000000 cyc:   93322613 now IPC :0.53440: AVG IPC :0.92049: L2-Pf-HR :0.96593: L2-HR :0.90656: (Sim:1h13m38s) 
CPU  0 inst:   88000000 cyc:   94349915 now IPC :0.88378: AVG IPC :0.92108: L2-Pf-HR :0.96112: L2-HR :0.90717: (Sim:1h14m20s) 
CPU  1 inst:   88000000 cyc:   94385234 now IPC :0.89072: AVG IPC :0.92074: L2-Pf-HR :0.95378: L2-HR :0.89097: (Sim:1h14m21s) 
CPU  3 inst:   88000003 cyc:   94386666 now IPC :0.92838: AVG IPC :0.92072: L2-Pf-HR :0.95816: L2-HR :0.88734: (Sim:1h14m22s) 
CPU  2 inst:   88000000 cyc:   94388650 now IPC :0.93805: AVG IPC :0.92069: L2-Pf-HR :0.96569: L2-HR :0.90660: (Sim:1h14m22s) 
CPU  0 inst:   89000000 cyc:   95638359 now IPC :0.77613: AVG IPC :0.91911: L2-Pf-HR :0.96084: L2-HR :0.90707: (Sim:1h14m54s) 
CPU  3 inst:   89000000 cyc:   95678002 now IPC :0.77439: AVG IPC :0.91873: L2-Pf-HR :0.95784: L2-HR :0.88718: (Sim:1h14m55s) 
CPU  1 inst:   89000005 cyc:   95682259 now IPC :0.77100: AVG IPC :0.91869: L2-Pf-HR :0.95338: L2-HR :0.89088: (Sim:1h14m55s) 
CPU  2 inst:   89000004 cyc:   95692514 now IPC :0.76695: AVG IPC :0.91858: L2-Pf-HR :0.96538: L2-HR :0.90639: (Sim:1h14m56s) 
CPU  0 inst:   90000001 cyc:   96884144 now IPC :0.80271: AVG IPC :0.91760: L2-Pf-HR :0.96054: L2-HR :0.90696: (Sim:1h15m29s) 
CPU  1 inst:   90000004 cyc:   96931567 now IPC :0.80044: AVG IPC :0.91715: L2-Pf-HR :0.95304: L2-HR :0.89082: (Sim:1h15m30s) 
CPU  2 inst:   90000001 cyc:   96938861 now IPC :0.80234: AVG IPC :0.91707: L2-Pf-HR :0.96516: L2-HR :0.90624: (Sim:1h15m30s) 
CPU  3 inst:   90000004 cyc:   96944472 now IPC :0.78960: AVG IPC :0.91702: L2-Pf-HR :0.95766: L2-HR :0.88705: (Sim:1h15m30s) 
CPU  0 inst:   91000004 cyc:   98203603 now IPC :0.75789: AVG IPC :0.91543: L2-Pf-HR :0.96019: L2-HR :0.90675: (Sim:1h16m3s) 
CPU  2 inst:   91000004 cyc:   98210510 now IPC :0.78638: AVG IPC :0.91536: L2-Pf-HR :0.96486: L2-HR :0.90604: (Sim:1h16m4s) 
CPU  3 inst:   91000004 cyc:   98210793 now IPC :0.78969: AVG IPC :0.91536: L2-Pf-HR :0.95729: L2-HR :0.88677: (Sim:1h16m4s) 
CPU  1 inst:   91000004 cyc:   98213651 now IPC :0.77998: AVG IPC :0.91534: L2-Pf-HR :0.95264: L2-HR :0.89069: (Sim:1h16m4s) 
CPU  0 inst:   92000004 cyc:   99452474 now IPC :0.80072: AVG IPC :0.91397: L2-Pf-HR :0.95986: L2-HR :0.90665: (Sim:1h16m37s) 
CPU  1 inst:   92000004 cyc:   99454293 now IPC :0.80603: AVG IPC :0.91396: L2-Pf-HR :0.95231: L2-HR :0.89064: (Sim:1h16m37s) 
CPU  3 inst:   92000004 cyc:   99474754 now IPC :0.79116: AVG IPC :0.91377: L2-Pf-HR :0.95701: L2-HR :0.88661: (Sim:1h16m38s) 
CPU  2 inst:   92000004 cyc:   99505818 now IPC :0.77202: AVG IPC :0.91347: L2-Pf-HR :0.96460: L2-HR :0.90589: (Sim:1h16m39s) 
CPU  0 inst:   93000002 cyc:  100996119 now IPC :0.64782: AVG IPC :0.90987: L2-Pf-HR :0.95995: L2-HR :0.90668: (Sim:1h17m28s) 
CPU  1 inst:   93000005 cyc:  101011173 now IPC :0.64231: AVG IPC :0.90973: L2-Pf-HR :0.95247: L2-HR :0.89072: (Sim:1h17m28s) 
CPU  2 inst:   93000004 cyc:  101020326 now IPC :0.66028: AVG IPC :0.90964: L2-Pf-HR :0.96473: L2-HR :0.90596: (Sim:1h17m29s) 
CPU  3 inst:   93000002 cyc:  101028962 now IPC :0.64341: AVG IPC :0.90957: L2-Pf-HR :0.95710: L2-HR :0.88659: (Sim:1h17m29s) 
CPU  0 inst:   94000001 cyc:  102057487 now IPC :0.94218: AVG IPC :0.91021: L2-Pf-HR :0.95992: L2-HR :0.90666: (Sim:1h18m8s) 
CPU  1 inst:   94000002 cyc:  102072143 now IPC :0.94253: AVG IPC :0.91008: L2-Pf-HR :0.95230: L2-HR :0.89039: (Sim:1h18m8s) 
CPU  3 inst:   94000001 cyc:  102089259 now IPC :0.94313: AVG IPC :0.90992: L2-Pf-HR :0.95711: L2-HR :0.88654: (Sim:1h18m10s) 
CPU  2 inst:   94000001 cyc:  102091277 now IPC :0.93375: AVG IPC :0.90990: L2-Pf-HR :0.96473: L2-HR :0.90590: (Sim:1h18m10s) 
CPU  0 inst:   95000002 cyc:  103238412 now IPC :0.84679: AVG IPC :0.90947: L2-Pf-HR :0.95985: L2-HR :0.90655: (Sim:1h19m7s) 
CPU  1 inst:   95000002 cyc:  103245496 now IPC :0.85226: AVG IPC :0.90941: L2-Pf-HR :0.95215: L2-HR :0.89001: (Sim:1h19m7s) 
CPU  3 inst:   95000002 cyc:  103248482 now IPC :0.86265: AVG IPC :0.90939: L2-Pf-HR :0.95715: L2-HR :0.88636: (Sim:1h19m8s) 
CPU  2 inst:   95000002 cyc:  103248524 now IPC :0.86412: AVG IPC :0.90938: L2-Pf-HR :0.96478: L2-HR :0.90575: (Sim:1h19m8s) 
CPU  0 inst:   96000004 cyc:  104345891 now IPC :0.90295: AVG IPC :0.90940: L2-Pf-HR :0.95983: L2-HR :0.90643: (Sim:1h19m44s) 
CPU  2 inst:   96000004 cyc:  104348901 now IPC :0.90878: AVG IPC :0.90937: L2-Pf-HR :0.96482: L2-HR :0.90562: (Sim:1h19m44s) 
CPU  1 inst:   96000003 cyc:  104388490 now IPC :0.87490: AVG IPC :0.90903: L2-Pf-HR :0.95209: L2-HR :0.88973: (Sim:1h19m45s) 
CPU  3 inst:   96000003 cyc:  104393468 now IPC :0.87337: AVG IPC :0.90899: L2-Pf-HR :0.95712: L2-HR :0.88615: (Sim:1h19m45s) 
CPU  2 inst:   97000002 cyc:  105865351 now IPC :0.65943: AVG IPC :0.90576: L2-Pf-HR :0.96507: L2-HR :0.90548: (Sim:1h20m29s) 
CPU  3 inst:   97000002 cyc:  105873590 now IPC :0.67562: AVG IPC :0.90569: L2-Pf-HR :0.95741: L2-HR :0.88601: (Sim:1h20m29s) 
CPU  1 inst:   97000002 cyc:  105883555 now IPC :0.66887: AVG IPC :0.90561: L2-Pf-HR :0.95226: L2-HR :0.88935: (Sim:1h20m30s) 
CPU  0 inst:   97000002 cyc:  105893200 now IPC :0.64628: AVG IPC :0.90552: L2-Pf-HR :0.96005: L2-HR :0.90628: (Sim:1h20m30s) 
CPU  0 inst:   98000003 cyc:  107114596 now IPC :0.81874: AVG IPC :0.90452: L2-Pf-HR :0.96009: L2-HR :0.90622: (Sim:1h21m27s) 
CPU  2 inst:   98000003 cyc:  107199545 now IPC :0.74952: AVG IPC :0.90380: L2-Pf-HR :0.96506: L2-HR :0.90543: (Sim:1h21m31s) 
CPU  1 inst:   98000000 cyc:  107220664 now IPC :0.74788: AVG IPC :0.90362: L2-Pf-HR :0.95229: L2-HR :0.88937: (Sim:1h21m32s) 
CPU  3 inst:   98000003 cyc:  107242997 now IPC :0.73024: AVG IPC :0.90343: L2-Pf-HR :0.95741: L2-HR :0.88603: (Sim:1h21m34s) 
CPU  1 inst:   99000001 cyc:  108493810 now IPC :0.78546: AVG IPC :0.90222: L2-Pf-HR :0.95248: L2-HR :0.88929: (Sim:1h22m16s) 
CPU  0 inst:   99000001 cyc:  108512077 now IPC :0.71557: AVG IPC :0.90207: L2-Pf-HR :0.96029: L2-HR :0.90614: (Sim:1h22m17s) 
CPU  2 inst:   99000001 cyc:  108536323 now IPC :0.74807: AVG IPC :0.90186: L2-Pf-HR :0.96511: L2-HR :0.90520: (Sim:1h22m18s) 
CPU  3 inst:   99000001 cyc:  108623195 now IPC :0.72453: AVG IPC :0.90114: L2-Pf-HR :0.95739: L2-HR :0.88586: (Sim:1h22m19s) 
CPU  0 inst:  100000005 cyc:  109947330 now IPC :0.69674: AVG IPC :0.89936: L2-Pf-HR :0.96043: L2-HR :0.90599: (Sim:1h22m52s) 
CPU  1 inst:  100000002 cyc:  109974200 now IPC :0.67550: AVG IPC :0.89914: L2-Pf-HR :0.95257: L2-HR :0.88913: (Sim:1h22m53s) 
CPU  2 inst:  100000002 cyc:  110038765 now IPC :0.66558: AVG IPC :0.89860: L2-Pf-HR :0.96507: L2-HR :0.90498: (Sim:1h22m55s) 
CPU  3 inst:  100000005 cyc:  110064999 now IPC :0.69358: AVG IPC :0.89840: L2-Pf-HR :0.95731: L2-HR :0.88570: (Sim:1h22m55s) 
CPU  0 inst:  101000000 cyc:  111419412 now IPC :0.67931: AVG IPC :0.89643: L2-Pf-HR :0.96047: L2-HR :0.90577: (Sim:1h23m29s) 
CPU  1 inst:  101000000 cyc:  111463624 now IPC :0.67140: AVG IPC :0.89607: L2-Pf-HR :0.95265: L2-HR :0.88898: (Sim:1h23m30s) 
CPU  2 inst:  101000000 cyc:  111466415 now IPC :0.70045: AVG IPC :0.89604: L2-Pf-HR :0.96508: L2-HR :0.90477: (Sim:1h23m31s) 
CPU  3 inst:  101000000 cyc:  111477918 now IPC :0.70775: AVG IPC :0.89596: L2-Pf-HR :0.95726: L2-HR :0.88538: (Sim:1h23m31s) 
CPU  0 inst:  102000003 cyc:  112887719 now IPC :0.68106: AVG IPC :0.89360: L2-Pf-HR :0.96045: L2-HR :0.90558: (Sim:1h24m6s) 
CPU  1 inst:  102000003 cyc:  112893458 now IPC :0.69938: AVG IPC :0.89356: L2-Pf-HR :0.95258: L2-HR :0.88885: (Sim:1h24m6s) 
CPU  2 inst:  102000003 cyc:  112931782 now IPC :0.68242: AVG IPC :0.89325: L2-Pf-HR :0.96502: L2-HR :0.90457: (Sim:1h24m7s) 
CPU  3 inst:  102000003 cyc:  112942984 now IPC :0.68257: AVG IPC :0.89317: L2-Pf-HR :0.95721: L2-HR :0.88514: (Sim:1h24m8s) 
CPU  0 inst:  103000000 cyc:  114398903 now IPC :0.66173: AVG IPC :0.89052: L2-Pf-HR :0.96081: L2-HR :0.90564: (Sim:1h24m43s) 
CPU  1 inst:  103000000 cyc:  114441853 now IPC :0.64583: AVG IPC :0.89018: L2-Pf-HR :0.95300: L2-HR :0.88898: (Sim:1h24m43s) 
CPU  3 inst:  103000000 cyc:  114462573 now IPC :0.65807: AVG IPC :0.89002: L2-Pf-HR :0.95750: L2-HR :0.88516: (Sim:1h24m44s) 
CPU  2 inst:  103000000 cyc:  114469207 now IPC :0.65044: AVG IPC :0.88996: L2-Pf-HR :0.96528: L2-HR :0.90465: (Sim:1h24m44s) 
CPU  0 inst:  104000001 cyc:  115900017 now IPC :0.66617: AVG IPC :0.88759: L2-Pf-HR :0.96079: L2-HR :0.90551: (Sim:1h25m18s) 
CPU  1 inst:  104000004 cyc:  115963013 now IPC :0.65740: AVG IPC :0.88710: L2-Pf-HR :0.95291: L2-HR :0.88886: (Sim:1h25m19s) 
CPU  2 inst:  104000001 cyc:  115968669 now IPC :0.66691: AVG IPC :0.88705: L2-Pf-HR :0.96516: L2-HR :0.90454: (Sim:1h25m19s) 
CPU  3 inst:  104000001 cyc:  115977220 now IPC :0.66022: AVG IPC :0.88699: L2-Pf-HR :0.95738: L2-HR :0.88508: (Sim:1h25m19s) 
CPU  1 inst:  105000000 cyc:  117072319 now IPC :0.90146: AVG IPC :0.88724: L2-Pf-HR :0.95261: L2-HR :0.88892: (Sim:1h25m50s) 
CPU  0 inst:  105000000 cyc:  117077326 now IPC :0.84939: AVG IPC :0.88720: L2-Pf-HR :0.96051: L2-HR :0.90552: (Sim:1h25m50s) 
CPU  3 inst:  105000005 cyc:  117088810 now IPC :0.89962: AVG IPC :0.88711: L2-Pf-HR :0.95711: L2-HR :0.88511: (Sim:1h25m50s) 
CPU  2 inst:  105000000 cyc:  117099132 now IPC :0.88459: AVG IPC :0.88703: L2-Pf-HR :0.96494: L2-HR :0.90448: (Sim:1h25m51s) 
CPU  1 inst:  106000002 cyc:  118375780 now IPC :0.76719: AVG IPC :0.88591: L2-Pf-HR :0.95241: L2-HR :0.88882: (Sim:1h26m24s) 
CPU  3 inst:  106000002 cyc:  118384394 now IPC :0.77185: AVG IPC :0.88584: L2-Pf-HR :0.95694: L2-HR :0.88497: (Sim:1h26m24s) 
CPU  2 inst:  106000002 cyc:  118386592 now IPC :0.77672: AVG IPC :0.88582: L2-Pf-HR :0.96477: L2-HR :0.90431: (Sim:1h26m24s) 
CPU  0 inst:  106000002 cyc:  118396889 now IPC :0.75783: AVG IPC :0.88574: L2-Pf-HR :0.96022: L2-HR :0.90541: (Sim:1h26m24s) 
CPU  0 inst:  107000002 cyc:  119638869 now IPC :0.80517: AVG IPC :0.88490: L2-Pf-HR :0.95994: L2-HR :0.90530: (Sim:1h26m56s) 
CPU  1 inst:  107000002 cyc:  119664585 now IPC :0.77591: AVG IPC :0.88471: L2-Pf-HR :0.95213: L2-HR :0.88878: (Sim:1h26m57s) 
CPU  2 inst:  107000002 cyc:  119669750 now IPC :0.77933: AVG IPC :0.88467: L2-Pf-HR :0.96452: L2-HR :0.90421: (Sim:1h26m57s) 
CPU  3 inst:  107000002 cyc:  119672338 now IPC :0.77643: AVG IPC :0.88465: L2-Pf-HR :0.95656: L2-HR :0.88479: (Sim:1h26m57s) 
CPU  1 inst:  108000003 cyc:  120896364 now IPC :0.81183: AVG IPC :0.88396: L2-Pf-HR :0.95183: L2-HR :0.88867: (Sim:1h27m29s) 
CPU  0 inst:  108000002 cyc:  120913081 now IPC :0.78480: AVG IPC :0.88384: L2-Pf-HR :0.95968: L2-HR :0.90517: (Sim:1h27m30s) 
CPU  3 inst:  108000002 cyc:  120934978 now IPC :0.79199: AVG IPC :0.88368: L2-Pf-HR :0.95622: L2-HR :0.88459: (Sim:1h27m31s) 
CPU  2 inst:  108000002 cyc:  120946556 now IPC :0.78320: AVG IPC :0.88359: L2-Pf-HR :0.96426: L2-HR :0.90405: (Sim:1h27m31s) 
CPU  1 inst:  109000000 cyc:  122056719 now IPC :0.86180: AVG IPC :0.88375: L2-Pf-HR :0.95187: L2-HR :0.88887: (Sim:1h28m1s) 
CPU  0 inst:  109000000 cyc:  122069878 now IPC :0.86445: AVG IPC :0.88365: L2-Pf-HR :0.95971: L2-HR :0.90529: (Sim:1h28m1s) 
CPU  2 inst:  109000000 cyc:  122161467 now IPC :0.82310: AVG IPC :0.88298: L2-Pf-HR :0.96432: L2-HR :0.90421: (Sim:1h28m3s) 
CPU  3 inst:  109000005 cyc:  122197056 now IPC :0.79235: AVG IPC :0.88273: L2-Pf-HR :0.95626: L2-HR :0.88472: (Sim:1h28m4s) 
CPU  1 inst:  110000001 cyc:  123508643 now IPC :0.68874: AVG IPC :0.88144: L2-Pf-HR :0.95165: L2-HR :0.88854: (Sim:1h28m36s) 
CPU  0 inst:  110000002 cyc:  123513813 now IPC :0.69255: AVG IPC :0.88140: L2-Pf-HR :0.95963: L2-HR :0.90520: (Sim:1h28m36s) 
CPU  2 inst:  110000002 cyc:  123516464 now IPC :0.73801: AVG IPC :0.88138: L2-Pf-HR :0.96429: L2-HR :0.90415: (Sim:1h28m36s) 
CPU  3 inst:  110000001 cyc:  123517728 now IPC :0.75719: AVG IPC :0.88137: L2-Pf-HR :0.95620: L2-HR :0.88465: (Sim:1h28m36s) 
CPU  0 inst:  111000005 cyc:  124759506 now IPC :0.80277: AVG IPC :0.88061: L2-Pf-HR :0.95926: L2-HR :0.90508: (Sim:1h29m8s) 
CPU  1 inst:  111000004 cyc:  124766627 now IPC :0.79493: AVG IPC :0.88056: L2-Pf-HR :0.95115: L2-HR :0.88819: (Sim:1h29m8s) 
CPU  2 inst:  111000004 cyc:  124773451 now IPC :0.79555: AVG IPC :0.88050: L2-Pf-HR :0.96399: L2-HR :0.90400: (Sim:1h29m8s) 
CPU  3 inst:  111000005 cyc:  124793747 now IPC :0.78369: AVG IPC :0.88037: L2-Pf-HR :0.95588: L2-HR :0.88448: (Sim:1h29m9s) 
CPU  1 inst:  112000003 cyc:  126040734 now IPC :0.78486: AVG IPC :0.87959: L2-Pf-HR :0.95075: L2-HR :0.88799: (Sim:1h29m41s) 
CPU  0 inst:  112000003 cyc:  126045091 now IPC :0.77785: AVG IPC :0.87955: L2-Pf-HR :0.95894: L2-HR :0.90500: (Sim:1h29m41s) 
CPU  2 inst:  112000003 cyc:  126057768 now IPC :0.77862: AVG IPC :0.87946: L2-Pf-HR :0.96375: L2-HR :0.90390: (Sim:1h29m41s) 
CPU  3 inst:  112000003 cyc:  126080763 now IPC :0.77699: AVG IPC :0.87930: L2-Pf-HR :0.95558: L2-HR :0.88434: (Sim:1h29m42s) 
CPU  2 inst:  113000005 cyc:  127194908 now IPC :0.87940: AVG IPC :0.87946: L2-Pf-HR :0.96375: L2-HR :0.90393: (Sim:1h30m13s) 
CPU  0 inst:  113000002 cyc:  127243300 now IPC :0.83458: AVG IPC :0.87913: L2-Pf-HR :0.95893: L2-HR :0.90502: (Sim:1h30m14s) 
CPU  1 inst:  113000002 cyc:  127262028 now IPC :0.81880: AVG IPC :0.87900: L2-Pf-HR :0.95066: L2-HR :0.88786: (Sim:1h30m14s) 
CPU  3 inst:  113000002 cyc:  127267228 now IPC :0.84284: AVG IPC :0.87896: L2-Pf-HR :0.95562: L2-HR :0.88437: (Sim:1h30m14s) 
CPU  0 inst:  114000005 cyc:  128763690 now IPC :0.65773: AVG IPC :0.87649: L2-Pf-HR :0.95895: L2-HR :0.90488: (Sim:1h30m49s) 
CPU  1 inst:  114000000 cyc:  128814256 now IPC :0.64423: AVG IPC :0.87615: L2-Pf-HR :0.95071: L2-HR :0.88775: (Sim:1h30m50s) 
CPU  2 inst:  114000000 cyc:  128817750 now IPC :0.61620: AVG IPC :0.87612: L2-Pf-HR :0.96375: L2-HR :0.90386: (Sim:1h30m50s) 
CPU  3 inst:  114000005 cyc:  128874415 now IPC :0.62221: AVG IPC :0.87573: L2-Pf-HR :0.95561: L2-HR :0.88436: (Sim:1h30m51s) 
CPU  0 inst:  115000000 cyc:  130265418 now IPC :0.66590: AVG IPC :0.87404: L2-Pf-HR :0.95894: L2-HR :0.90489: (Sim:1h31m25s) 
CPU  1 inst:  115000000 cyc:  130290469 now IPC :0.67741: AVG IPC :0.87388: L2-Pf-HR :0.95073: L2-HR :0.88780: (Sim:1h31m25s) 
CPU  3 inst:  115000000 cyc:  130295054 now IPC :0.70391: AVG IPC :0.87385: L2-Pf-HR :0.95565: L2-HR :0.88436: (Sim:1h31m25s) 
CPU  2 inst:  115000000 cyc:  130296140 now IPC :0.67641: AVG IPC :0.87383: L2-Pf-HR :0.96368: L2-HR :0.90376: (Sim:1h31m25s) 
CPU  0 inst:  116000002 cyc:  131618845 now IPC :0.73887: AVG IPC :0.87264: L2-Pf-HR :0.95908: L2-HR :0.90477: (Sim:1h32m0s) 
CPU  1 inst:  116000002 cyc:  131658129 now IPC :0.73118: AVG IPC :0.87238: L2-Pf-HR :0.95088: L2-HR :0.88771: (Sim:1h32m0s) 
CPU  2 inst:  116000002 cyc:  131688216 now IPC :0.71835: AVG IPC :0.87218: L2-Pf-HR :0.96363: L2-HR :0.90355: (Sim:1h32m1s) 
CPU  3 inst:  116000002 cyc:  131692406 now IPC :0.71564: AVG IPC :0.87216: L2-Pf-HR :0.95564: L2-HR :0.88417: (Sim:1h32m1s) 
CPU  0 inst:  117000003 cyc:  133050714 now IPC :0.69839: AVG IPC :0.87076: L2-Pf-HR :0.95908: L2-HR :0.90459: (Sim:1h32m36s) 
CPU  1 inst:  117000003 cyc:  133080173 now IPC :0.70321: AVG IPC :0.87056: L2-Pf-HR :0.95087: L2-HR :0.88759: (Sim:1h32m36s) 
CPU  2 inst:  117000003 cyc:  133120997 now IPC :0.69794: AVG IPC :0.87029: L2-Pf-HR :0.96348: L2-HR :0.90335: (Sim:1h32m38s) 
CPU  3 inst:  117000000 cyc:  133122737 now IPC :0.69914: AVG IPC :0.87028: L2-Pf-HR :0.95547: L2-HR :0.88391: (Sim:1h32m38s) 
CPU  1 inst:  118000001 cyc:  134464218 now IPC :0.72252: AVG IPC :0.86903: L2-Pf-HR :0.95089: L2-HR :0.88747: (Sim:1h33m12s) 
CPU  0 inst:  118000001 cyc:  134538642 now IPC :0.67207: AVG IPC :0.86854: L2-Pf-HR :0.95908: L2-HR :0.90443: (Sim:1h33m14s) 
CPU  2 inst:  118000001 cyc:  134592997 now IPC :0.67935: AVG IPC :0.86818: L2-Pf-HR :0.96344: L2-HR :0.90316: (Sim:1h33m16s) 
CPU  3 inst:  118000001 cyc:  134627751 now IPC :0.66445: AVG IPC :0.86796: L2-Pf-HR :0.95542: L2-HR :0.88367: (Sim:1h33m17s) 
CPU  2 inst:  119000000 cyc:  135930034 now IPC :0.74792: AVG IPC :0.86699: L2-Pf-HR :0.96350: L2-HR :0.90316: (Sim:1h34m15s) 
CPU  1 inst:  119000000 cyc:  135933178 now IPC :0.68075: AVG IPC :0.86698: L2-Pf-HR :0.95097: L2-HR :0.88753: (Sim:1h34m16s) 
CPU  0 inst:  119000000 cyc:  135954313 now IPC :0.70638: AVG IPC :0.86684: L2-Pf-HR :0.95922: L2-HR :0.90442: (Sim:1h34m17s) 
CPU  3 inst:  119000000 cyc:  135954364 now IPC :0.75380: AVG IPC :0.86684: L2-Pf-HR :0.95545: L2-HR :0.88366: (Sim:1h34m17s) 
CPU  2 inst:  120000002 cyc:  137471803 now IPC :0.64861: AVG IPC :0.86453: L2-Pf-HR :0.96359: L2-HR :0.90329: (Sim:1h35m9s) 
CPU  0 inst:  120000002 cyc:  137482185 now IPC :0.65451: AVG IPC :0.86446: L2-Pf-HR :0.95926: L2-HR :0.90443: (Sim:1h35m9s) 
CPU  1 inst:  120000003 cyc:  137510448 now IPC :0.63401: AVG IPC :0.86429: L2-Pf-HR :0.95111: L2-HR :0.88762: (Sim:1h35m10s) 
CPU  3 inst:  120000002 cyc:  137526145 now IPC :0.63622: AVG IPC :0.86419: L2-Pf-HR :0.95554: L2-HR :0.88377: (Sim:1h35m10s) 
CPU  1 inst:  121000002 cyc:  138773621 now IPC :0.79166: AVG IPC :0.86362: L2-Pf-HR :0.95090: L2-HR :0.88760: (Sim:1h35m43s) 
CPU  3 inst:  121000002 cyc:  138779854 now IPC :0.79763: AVG IPC :0.86358: L2-Pf-HR :0.95535: L2-HR :0.88370: (Sim:1h35m43s) 
CPU  0 inst:  121000002 cyc:  138782778 now IPC :0.76888: AVG IPC :0.86356: L2-Pf-HR :0.95905: L2-HR :0.90438: (Sim:1h35m43s) 
CPU  2 inst:  121000002 cyc:  138791711 now IPC :0.75763: AVG IPC :0.86350: L2-Pf-HR :0.96340: L2-HR :0.90316: (Sim:1h35m43s) 
CPU  0 inst:  122000003 cyc:  140023681 now IPC :0.80587: AVG IPC :0.86305: L2-Pf-HR :0.95887: L2-HR :0.90438: (Sim:1h36m16s) 
CPU  2 inst:  122000003 cyc:  140026597 now IPC :0.80979: AVG IPC :0.86302: L2-Pf-HR :0.96323: L2-HR :0.90311: (Sim:1h36m16s) 
CPU  1 inst:  122000003 cyc:  140045995 now IPC :0.78593: AVG IPC :0.86291: L2-Pf-HR :0.95069: L2-HR :0.88762: (Sim:1h36m16s) 
CPU  3 inst:  122000003 cyc:  140050644 now IPC :0.78691: AVG IPC :0.86288: L2-Pf-HR :0.95517: L2-HR :0.88370: (Sim:1h36m17s) 
CPU  2 inst:  123000000 cyc:  141328591 now IPC :0.76805: AVG IPC :0.86214: L2-Pf-HR :0.96297: L2-HR :0.90297: (Sim:1h36m50s) 
CPU  1 inst:  123000000 cyc:  141337246 now IPC :0.77444: AVG IPC :0.86210: L2-Pf-HR :0.95037: L2-HR :0.88756: (Sim:1h36m50s) 
CPU  0 inst:  123000000 cyc:  141341564 now IPC :0.75879: AVG IPC :0.86207: L2-Pf-HR :0.95856: L2-HR :0.90426: (Sim:1h36m50s) 
CPU  3 inst:  123000000 cyc:  141342840 now IPC :0.77387: AVG IPC :0.86206: L2-Pf-HR :0.95490: L2-HR :0.88350: (Sim:1h36m50s) 
CPU  1 inst:  124000000 cyc:  142550169 now IPC :0.82445: AVG IPC :0.86177: L2-Pf-HR :0.95016: L2-HR :0.88752: (Sim:1h37m23s) 
CPU  0 inst:  124000000 cyc:  142554127 now IPC :0.82470: AVG IPC :0.86175: L2-Pf-HR :0.95832: L2-HR :0.90419: (Sim:1h37m23s) 
CPU  2 inst:  124000000 cyc:  142559829 now IPC :0.81219: AVG IPC :0.86171: L2-Pf-HR :0.96277: L2-HR :0.90288: (Sim:1h37m23s) 
CPU  3 inst:  124000000 cyc:  142594587 now IPC :0.79888: AVG IPC :0.86150: L2-Pf-HR :0.95464: L2-HR :0.88337: (Sim:1h37m24s) 
CPU  0 inst:  125000000 cyc:  143756165 now IPC :0.83192: AVG IPC :0.86150: L2-Pf-HR :0.95811: L2-HR :0.90411: (Sim:1h37m56s) 
CPU  3 inst:  125000000 cyc:  143774688 now IPC :0.84739: AVG IPC :0.86139: L2-Pf-HR :0.95445: L2-HR :0.88328: (Sim:1h37m56s) 
CPU  1 inst:  125000000 cyc:  143782780 now IPC :0.81129: AVG IPC :0.86134: L2-Pf-HR :0.94997: L2-HR :0.88752: (Sim:1h37m57s) 
CPU  2 inst:  125000000 cyc:  143794801 now IPC :0.80973: AVG IPC :0.86126: L2-Pf-HR :0.96261: L2-HR :0.90285: (Sim:1h37m57s) 
CPU  1 inst:  126000001 cyc:  145142800 now IPC :0.73528: AVG IPC :0.86015: L2-Pf-HR :0.94992: L2-HR :0.88739: (Sim:1h38m45s) 
CPU  0 inst:  126000001 cyc:  145148781 now IPC :0.71807: AVG IPC :0.86011: L2-Pf-HR :0.95824: L2-HR :0.90417: (Sim:1h38m45s) 
CPU  3 inst:  126000001 cyc:  145154680 now IPC :0.72464: AVG IPC :0.86008: L2-Pf-HR :0.95451: L2-HR :0.88332: (Sim:1h38m46s) 
CPU  2 inst:  126000001 cyc:  145155358 now IPC :0.73499: AVG IPC :0.86007: L2-Pf-HR :0.96268: L2-HR :0.90292: (Sim:1h38m46s) 
CPU  0 inst:  127000004 cyc:  146341122 now IPC :0.83869: AVG IPC :0.85994: L2-Pf-HR :0.95802: L2-HR :0.90414: (Sim:1h39m17s) 
CPU  1 inst:  127000004 cyc:  146342111 now IPC :0.83381: AVG IPC :0.85993: L2-Pf-HR :0.94953: L2-HR :0.88714: (Sim:1h39m17s) 
CPU  2 inst:  127000004 cyc:  146344131 now IPC :0.84121: AVG IPC :0.85991: L2-Pf-HR :0.96250: L2-HR :0.90285: (Sim:1h39m17s) 
CPU  3 inst:  127000005 cyc:  146356288 now IPC :0.83222: AVG IPC :0.85985: L2-Pf-HR :0.95432: L2-HR :0.88327: (Sim:1h39m17s) 
CPU  0 inst:  128000000 cyc:  147531594 now IPC :0.84000: AVG IPC :0.85977: L2-Pf-HR :0.95783: L2-HR :0.90407: (Sim:1h39m49s) 
CPU  2 inst:  128000000 cyc:  147532233 now IPC :0.84168: AVG IPC :0.85977: L2-Pf-HR :0.96238: L2-HR :0.90280: (Sim:1h39m49s) 
CPU  3 inst:  128000000 cyc:  147535276 now IPC :0.84818: AVG IPC :0.85975: L2-Pf-HR :0.95416: L2-HR :0.88318: (Sim:1h39m49s) 
CPU  1 inst:  128000000 cyc:  147536378 now IPC :0.83733: AVG IPC :0.85975: L2-Pf-HR :0.94932: L2-HR :0.88699: (Sim:1h39m49s) 
CPU  3 inst:  129000003 cyc:  148610386 now IPC :0.93014: AVG IPC :0.86027: L2-Pf-HR :0.95414: L2-HR :0.88308: (Sim:1h40m24s) 
CPU  1 inst:  129000003 cyc:  148611288 now IPC :0.93031: AVG IPC :0.86026: L2-Pf-HR :0.94922: L2-HR :0.88678: (Sim:1h40m24s) 
CPU  0 inst:  129000003 cyc:  148616683 now IPC :0.92159: AVG IPC :0.86023: L2-Pf-HR :0.95778: L2-HR :0.90398: (Sim:1h40m25s) 
CPU  2 inst:  129000002 cyc:  148619743 now IPC :0.91953: AVG IPC :0.86021: L2-Pf-HR :0.96239: L2-HR :0.90270: (Sim:1h40m25s) 
CPU  0 inst:  130000000 cyc:  150124050 now IPC :0.66341: AVG IPC :0.85824: L2-Pf-HR :0.95790: L2-HR :0.90393: (Sim:1h41m2s) 
CPU  1 inst:  130000000 cyc:  150127120 now IPC :0.65970: AVG IPC :0.85822: L2-Pf-HR :0.94935: L2-HR :0.88669: (Sim:1h41m2s) 
CPU  3 inst:  130000000 cyc:  150140279 now IPC :0.65364: AVG IPC :0.85815: L2-Pf-HR :0.95433: L2-HR :0.88312: (Sim:1h41m2s) 
CPU  2 inst:  130000000 cyc:  150146064 now IPC :0.65517: AVG IPC :0.85811: L2-Pf-HR :0.96251: L2-HR :0.90269: (Sim:1h41m3s) 
CPU  0 inst:  131000000 cyc:  151311222 now IPC :0.84234: AVG IPC :0.85811: L2-Pf-HR :0.95826: L2-HR :0.90411: (Sim:1h41m49s) 
CPU  2 inst:  131000000 cyc:  151373050 now IPC :0.81501: AVG IPC :0.85776: L2-Pf-HR :0.96287: L2-HR :0.90283: (Sim:1h41m50s) 
CPU  1 inst:  131000003 cyc:  151435433 now IPC :0.76435: AVG IPC :0.85741: L2-Pf-HR :0.94978: L2-HR :0.88687: (Sim:1h41m51s) 
CPU  3 inst:  131000000 cyc:  151495009 now IPC :0.73815: AVG IPC :0.85707: L2-Pf-HR :0.95480: L2-HR :0.88336: (Sim:1h41m53s) 
CPU  1 inst:  132000005 cyc:  152882801 now IPC :0.69091: AVG IPC :0.85582: L2-Pf-HR :0.95020: L2-HR :0.88709: (Sim:1h42m26s) 
CPU  3 inst:  132000005 cyc:  152909287 now IPC :0.70708: AVG IPC :0.85567: L2-Pf-HR :0.95525: L2-HR :0.88354: (Sim:1h42m27s) 
CPU  2 inst:  132000005 cyc:  152910344 now IPC :0.65050: AVG IPC :0.85566: L2-Pf-HR :0.96316: L2-HR :0.90295: (Sim:1h42m27s) 
CPU  0 inst:  132000005 cyc:  152912346 now IPC :0.62456: AVG IPC :0.85565: L2-Pf-HR :0.95858: L2-HR :0.90425: (Sim:1h42m27s) 
CPU  0 inst:  133000000 cyc:  154213142 now IPC :0.76876: AVG IPC :0.85491: L2-Pf-HR :0.95885: L2-HR :0.90417: (Sim:1h43m9s) 
CPU  2 inst:  133000000 cyc:  154236623 now IPC :0.75399: AVG IPC :0.85478: L2-Pf-HR :0.96336: L2-HR :0.90282: (Sim:1h43m10s) 
CPU  1 inst:  133000000 cyc:  154255418 now IPC :0.72853: AVG IPC :0.85468: L2-Pf-HR :0.95055: L2-HR :0.88706: (Sim:1h43m10s) 
CPU  3 inst:  133000000 cyc:  154273447 now IPC :0.73305: AVG IPC :0.85458: L2-Pf-HR :0.95549: L2-HR :0.88338: (Sim:1h43m11s) 
CPU  0 inst:  134000004 cyc:  155676854 now IPC :0.68320: AVG IPC :0.85329: L2-Pf-HR :0.95912: L2-HR :0.90411: (Sim:1h43m48s) 
CPU  1 inst:  134000004 cyc:  155711252 now IPC :0.68689: AVG IPC :0.85310: L2-Pf-HR :0.95086: L2-HR :0.88700: (Sim:1h43m49s) 
CPU  2 inst:  134000004 cyc:  155721897 now IPC :0.67328: AVG IPC :0.85304: L2-Pf-HR :0.96357: L2-HR :0.90274: (Sim:1h43m50s) 
CPU  3 inst:  134000000 cyc:  155766544 now IPC :0.66975: AVG IPC :0.85280: L2-Pf-HR :0.95573: L2-HR :0.88325: (Sim:1h43m51s) 
CPU  3 inst:  135000002 cyc:  157018458 now IPC :0.79878: AVG IPC :0.85236: L2-Pf-HR :0.95642: L2-HR :0.88364: (Sim:1h44m22s) 
CPU  2 inst:  135000002 cyc:  157053023 now IPC :0.75124: AVG IPC :0.85217: L2-Pf-HR :0.96418: L2-HR :0.90319: (Sim:1h44m23s) 
CPU  0 inst:  135000002 cyc:  157073184 now IPC :0.71616: AVG IPC :0.85206: L2-Pf-HR :0.95969: L2-HR :0.90444: (Sim:1h44m24s) 
CPU  1 inst:  135000002 cyc:  157073286 now IPC :0.73419: AVG IPC :0.85206: L2-Pf-HR :0.95165: L2-HR :0.88748: (Sim:1h44m24s) 
CPU  3 inst:  136000000 cyc:  158356960 now IPC :0.74710: AVG IPC :0.85147: L2-Pf-HR :0.95677: L2-HR :0.88388: (Sim:1h44m56s) 
CPU  2 inst:  136000000 cyc:  158394494 now IPC :0.74545: AVG IPC :0.85126: L2-Pf-HR :0.96442: L2-HR :0.90335: (Sim:1h44m57s) 
CPU  1 inst:  136000000 cyc:  158403382 now IPC :0.75182: AVG IPC :0.85122: L2-Pf-HR :0.95197: L2-HR :0.88768: (Sim:1h44m57s) 
CPU  0 inst:  136000000 cyc:  158415420 now IPC :0.74502: AVG IPC :0.85115: L2-Pf-HR :0.95990: L2-HR :0.90454: (Sim:1h44m57s) 
CPU  0 inst:  137000000 cyc:  159631378 now IPC :0.82240: AVG IPC :0.85093: L2-Pf-HR :0.95977: L2-HR :0.90460: (Sim:1h45m29s) 
CPU  1 inst:  137000000 cyc:  159648733 now IPC :0.80299: AVG IPC :0.85084: L2-Pf-HR :0.95182: L2-HR :0.88776: (Sim:1h45m29s) 
CPU  3 inst:  137000001 cyc:  159654541 now IPC :0.77067: AVG IPC :0.85081: L2-Pf-HR :0.95662: L2-HR :0.88394: (Sim:1h45m30s) 
CPU  2 inst:  137000000 cyc:  159657336 now IPC :0.79186: AVG IPC :0.85079: L2-Pf-HR :0.96430: L2-HR :0.90338: (Sim:1h45m30s) 
CPU  1 inst:  138000004 cyc:  160921118 now IPC :0.78593: AVG IPC :0.85032: L2-Pf-HR :0.95161: L2-HR :0.88767: (Sim:1h46m3s) 
CPU  0 inst:  138000004 cyc:  160927962 now IPC :0.77126: AVG IPC :0.85028: L2-Pf-HR :0.95959: L2-HR :0.90451: (Sim:1h46m3s) 
CPU  3 inst:  138000000 cyc:  160930662 now IPC :0.78362: AVG IPC :0.85027: L2-Pf-HR :0.95648: L2-HR :0.88382: (Sim:1h46m3s) 
CPU  2 inst:  138000004 cyc:  160932778 now IPC :0.78405: AVG IPC :0.85025: L2-Pf-HR :0.96414: L2-HR :0.90324: (Sim:1h46m3s) 
CPU  0 inst:  139000000 cyc:  162164824 now IPC :0.80849: AVG IPC :0.84996: L2-Pf-HR :0.95935: L2-HR :0.90443: (Sim:1h46m36s) 
CPU  3 inst:  139000000 cyc:  162175874 now IPC :0.80308: AVG IPC :0.84991: L2-Pf-HR :0.95623: L2-HR :0.88369: (Sim:1h46m36s) 
CPU  1 inst:  139000001 cyc:  162178549 now IPC :0.79527: AVG IPC :0.84989: L2-Pf-HR :0.95137: L2-HR :0.88765: (Sim:1h46m36s) 
CPU  2 inst:  139000003 cyc:  162194900 now IPC :0.79232: AVG IPC :0.84980: L2-Pf-HR :0.96393: L2-HR :0.90315: (Sim:1h46m37s) 
CPU  0 inst:  140000004 cyc:  163458560 now IPC :0.77296: AVG IPC :0.84935: L2-Pf-HR :0.95916: L2-HR :0.90433: (Sim:1h47m18s) 
CPU  1 inst:  140000000 cyc:  163458868 now IPC :0.78105: AVG IPC :0.84935: L2-Pf-HR :0.95119: L2-HR :0.88758: (Sim:1h47m18s) 
CPU  2 inst:  140000002 cyc:  163468000 now IPC :0.78548: AVG IPC :0.84930: L2-Pf-HR :0.96376: L2-HR :0.90305: (Sim:1h47m18s) 
CPU  3 inst:  140000002 cyc:  163476204 now IPC :0.76904: AVG IPC :0.84926: L2-Pf-HR :0.95602: L2-HR :0.88356: (Sim:1h47m19s) 
CPU  1 inst:  141000004 cyc:  164730833 now IPC :0.78619: AVG IPC :0.84886: L2-Pf-HR :0.95109: L2-HR :0.88765: (Sim:1h47m53s) 
CPU  0 inst:  141000004 cyc:  164733419 now IPC :0.78440: AVG IPC :0.84884: L2-Pf-HR :0.95904: L2-HR :0.90435: (Sim:1h47m53s) 
CPU  3 inst:  141000005 cyc:  164738829 now IPC :0.79200: AVG IPC :0.84882: L2-Pf-HR :0.95592: L2-HR :0.88355: (Sim:1h47m53s) 
CPU  2 inst:  141000004 cyc:  164740073 now IPC :0.78612: AVG IPC :0.84881: L2-Pf-HR :0.96367: L2-HR :0.90306: (Sim:1h47m53s) 
CPU  2 inst:  142000003 cyc:  166043448 now IPC :0.76724: AVG IPC :0.84816: L2-Pf-HR :0.96380: L2-HR :0.90323: (Sim:1h48m30s) 
CPU  1 inst:  142000003 cyc:  166051339 now IPC :0.75728: AVG IPC :0.84813: L2-Pf-HR :0.95124: L2-HR :0.88766: (Sim:1h48m30s) 
CPU  3 inst:  142000000 cyc:  166052257 now IPC :0.76136: AVG IPC :0.84812: L2-Pf-HR :0.95604: L2-HR :0.88370: (Sim:1h48m30s) 
CPU  0 inst:  142000003 cyc:  166053092 now IPC :0.75776: AVG IPC :0.84812: L2-Pf-HR :0.95918: L2-HR :0.90446: (Sim:1h48m30s) 
CPU  0 inst:  143000000 cyc:  167258151 now IPC :0.82983: AVG IPC :0.84798: L2-Pf-HR :0.95911: L2-HR :0.90441: (Sim:1h49m5s) 
CPU  2 inst:  143000000 cyc:  167266638 now IPC :0.81753: AVG IPC :0.84794: L2-Pf-HR :0.96370: L2-HR :0.90315: (Sim:1h49m5s) 
CPU  1 inst:  143000000 cyc:  167270874 now IPC :0.81998: AVG IPC :0.84792: L2-Pf-HR :0.95110: L2-HR :0.88743: (Sim:1h49m5s) 
CPU  3 inst:  143000000 cyc:  167278528 now IPC :0.81548: AVG IPC :0.84788: L2-Pf-HR :0.95594: L2-HR :0.88362: (Sim:1h49m6s) 
CPU  1 inst:  144000002 cyc:  168534671 now IPC :0.79127: AVG IPC :0.84749: L2-Pf-HR :0.95091: L2-HR :0.88723: (Sim:1h49m38s) 
CPU  2 inst:  144000001 cyc:  168544426 now IPC :0.78260: AVG IPC :0.84744: L2-Pf-HR :0.96359: L2-HR :0.90305: (Sim:1h49m38s) 
CPU  0 inst:  144000002 cyc:  168553978 now IPC :0.77171: AVG IPC :0.84739: L2-Pf-HR :0.95901: L2-HR :0.90431: (Sim:1h49m39s) 
CPU  3 inst:  144000001 cyc:  168589165 now IPC :0.76299: AVG IPC :0.84722: L2-Pf-HR :0.95576: L2-HR :0.88349: (Sim:1h49m39s) 
CPU  0 inst:  145000004 cyc:  169768713 now IPC :0.82323: AVG IPC :0.84722: L2-Pf-HR :0.95901: L2-HR :0.90429: (Sim:1h50m10s) 
CPU  3 inst:  145000000 cyc:  169783537 now IPC :0.83726: AVG IPC :0.84715: L2-Pf-HR :0.95569: L2-HR :0.88348: (Sim:1h50m11s) 
CPU  1 inst:  145000000 cyc:  169788270 now IPC :0.79770: AVG IPC :0.84712: L2-Pf-HR :0.95083: L2-HR :0.88712: (Sim:1h50m11s) 
CPU  2 inst:  145000004 cyc:  169789715 now IPC :0.80303: AVG IPC :0.84711: L2-Pf-HR :0.96355: L2-HR :0.90304: (Sim:1h50m11s) 
CPU  0 inst:  146000003 cyc:  171161234 now IPC :0.71812: AVG IPC :0.84616: L2-Pf-HR :0.95917: L2-HR :0.90431: (Sim:1h50m45s) 
CPU  1 inst:  146000000 cyc:  171165046 now IPC :0.72633: AVG IPC :0.84615: L2-Pf-HR :0.95101: L2-HR :0.88708: (Sim:1h50m45s) 
CPU  2 inst:  146000003 cyc:  171174978 now IPC :0.72188: AVG IPC :0.84609: L2-Pf-HR :0.96374: L2-HR :0.90312: (Sim:1h50m45s) 
CPU  3 inst:  146000003 cyc:  171236596 now IPC :0.68821: AVG IPC :0.84579: L2-Pf-HR :0.95591: L2-HR :0.88358: (Sim:1h50m46s) 
CPU  0 inst:  147000004 cyc:  172468904 now IPC :0.76472: AVG IPC :0.84554: L2-Pf-HR :0.95940: L2-HR :0.90432: (Sim:1h51m18s) 
CPU  1 inst:  147000004 cyc:  172505278 now IPC :0.74614: AVG IPC :0.84537: L2-Pf-HR :0.95133: L2-HR :0.88714: (Sim:1h51m19s) 
CPU  3 inst:  147000004 cyc:  172534317 now IPC :0.77058: AVG IPC :0.84522: L2-Pf-HR :0.95626: L2-HR :0.88371: (Sim:1h51m20s) 
CPU  2 inst:  147000004 cyc:  172542149 now IPC :0.73144: AVG IPC :0.84518: L2-Pf-HR :0.96396: L2-HR :0.90312: (Sim:1h51m20s) 
CPU  1 inst:  148000003 cyc:  173897883 now IPC :0.71808: AVG IPC :0.84434: L2-Pf-HR :0.95198: L2-HR :0.88753: (Sim:1h51m53s) 
CPU  0 inst:  148000003 cyc:  173902967 now IPC :0.69732: AVG IPC :0.84431: L2-Pf-HR :0.95989: L2-HR :0.90461: (Sim:1h51m53s) 
CPU  3 inst:  148000003 cyc:  173914994 now IPC :0.72428: AVG IPC :0.84426: L2-Pf-HR :0.95685: L2-HR :0.88408: (Sim:1h51m53s) 
CPU  2 inst:  148000003 cyc:  173919105 now IPC :0.72624: AVG IPC :0.84423: L2-Pf-HR :0.96444: L2-HR :0.90344: (Sim:1h51m53s) 
CPU  0 inst:  149000000 cyc:  175133602 now IPC :0.81259: AVG IPC :0.84409: L2-Pf-HR :0.95999: L2-HR :0.90462: (Sim:1h52m38s) 
CPU  1 inst:  149000000 cyc:  175148858 now IPC :0.79937: AVG IPC :0.84402: L2-Pf-HR :0.95213: L2-HR :0.88759: (Sim:1h52m39s) 
CPU  2 inst:  149000000 cyc:  175202857 now IPC :0.77896: AVG IPC :0.84375: L2-Pf-HR :0.96449: L2-HR :0.90342: (Sim:1h52m42s) 
CPU  3 inst:  149000000 cyc:  175224455 now IPC :0.76367: AVG IPC :0.84365: L2-Pf-HR :0.95692: L2-HR :0.88408: (Sim:1h52m43s) 
CPU  0 inst:  150000004 cyc:  176386493 now IPC :0.79816: AVG IPC :0.84376: L2-Pf-HR :0.96011: L2-HR :0.90465: (Sim:1h53m13s) 
CPU  2 inst:  150000002 cyc:  176430526 now IPC :0.81455: AVG IPC :0.84355: L2-Pf-HR :0.96466: L2-HR :0.90349: (Sim:1h53m15s) 
CPU  1 inst:  150000004 cyc:  176431200 now IPC :0.77983: AVG IPC :0.84355: L2-Pf-HR :0.95234: L2-HR :0.88769: (Sim:1h53m15s) 
CPU  3 inst:  150000003 cyc:  176459079 now IPC :0.80997: AVG IPC :0.84341: L2-Pf-HR :0.95710: L2-HR :0.88412: (Sim:1h53m16s) 
CPU  1 inst:  151000000 cyc:  177809664 now IPC :0.72544: AVG IPC :0.84263: L2-Pf-HR :0.95281: L2-HR :0.88795: (Sim:1h53m48s) 
CPU  0 inst:  151000000 cyc:  177816021 now IPC :0.69953: AVG IPC :0.84260: L2-Pf-HR :0.96045: L2-HR :0.90484: (Sim:1h53m49s) 
CPU  3 inst:  151000000 cyc:  177823492 now IPC :0.73291: AVG IPC :0.84256: L2-Pf-HR :0.95747: L2-HR :0.88428: (Sim:1h53m49s) 
CPU  2 inst:  151000000 cyc:  177833007 now IPC :0.71302: AVG IPC :0.84251: L2-Pf-HR :0.96500: L2-HR :0.90369: (Sim:1h53m49s) 
CPU  1 inst:  152000004 cyc:  179363638 now IPC :0.64351: AVG IPC :0.84089: L2-Pf-HR :0.95314: L2-HR :0.88811: (Sim:1h54m24s) 
CPU  2 inst:  152000004 cyc:  179387005 now IPC :0.64350: AVG IPC :0.84078: L2-Pf-HR :0.96521: L2-HR :0.90380: (Sim:1h54m25s) 
CPU  0 inst:  152000004 cyc:  179388409 now IPC :0.63598: AVG IPC :0.84077: L2-Pf-HR :0.96069: L2-HR :0.90491: (Sim:1h54m25s) 
CPU  3 inst:  152000004 cyc:  179393125 now IPC :0.63709: AVG IPC :0.84075: L2-Pf-HR :0.95773: L2-HR :0.88440: (Sim:1h54m25s) 
CPU  2 inst:  153000004 cyc:  180477771 now IPC :0.91679: AVG IPC :0.84124: L2-Pf-HR :0.96525: L2-HR :0.90378: (Sim:1h54m56s) 
CPU  0 inst:  153000004 cyc:  180489853 now IPC :0.90790: AVG IPC :0.84119: L2-Pf-HR :0.96078: L2-HR :0.90494: (Sim:1h54m57s) 
CPU  1 inst:  153000004 cyc:  180497402 now IPC :0.88202: AVG IPC :0.84115: L2-Pf-HR :0.95324: L2-HR :0.88814: (Sim:1h54m57s) 
CPU  3 inst:  153000005 cyc:  180504097 now IPC :0.90011: AVG IPC :0.84112: L2-Pf-HR :0.95781: L2-HR :0.88444: (Sim:1h54m57s) 
CPU  0 inst:  154000002 cyc:  181677470 now IPC :0.84202: AVG IPC :0.84119: L2-Pf-HR :0.96092: L2-HR :0.90494: (Sim:1h55m37s) 
CPU  2 inst:  154000002 cyc:  181689681 now IPC :0.82514: AVG IPC :0.84113: L2-Pf-HR :0.96535: L2-HR :0.90376: (Sim:1h55m38s) 
CPU  1 inst:  154000002 cyc:  181696489 now IPC :0.83397: AVG IPC :0.84110: L2-Pf-HR :0.95342: L2-HR :0.88818: (Sim:1h55m38s) 
CPU  3 inst:  154000005 cyc:  181699563 now IPC :0.83649: AVG IPC :0.84109: L2-Pf-HR :0.95794: L2-HR :0.88446: (Sim:1h55m38s) 
CPU  2 inst:  155000003 cyc:  182755518 now IPC :0.93823: AVG IPC :0.84170: L2-Pf-HR :0.96548: L2-HR :0.90375: (Sim:1h56m9s) 
CPU  1 inst:  155000003 cyc:  182764917 now IPC :0.93596: AVG IPC :0.84166: L2-Pf-HR :0.95363: L2-HR :0.88823: (Sim:1h56m10s) 
CPU  0 inst:  155000003 cyc:  182781720 now IPC :0.90559: AVG IPC :0.84158: L2-Pf-HR :0.96107: L2-HR :0.90492: (Sim:1h56m10s) 
CPU  3 inst:  155000003 cyc:  182787602 now IPC :0.91908: AVG IPC :0.84156: L2-Pf-HR :0.95809: L2-HR :0.88444: (Sim:1h56m10s) 
[...]
Core_0_LLC_prefetch_miss 3387978
Core_0_LLC_writebacks 3237278
Core_0_LLC_writeback_hit 3169708 LLC_writeback_Hit Ratio: 0.97913
Core_0_LLC_writeback_miss 67570
Core_0_LLC_prefetch_requested 0
Core_0_LLC_prefetch_issued 0
Core_0_LLC_prefetch_useful 5617204 LLC_Useful Ratio: inf
Core_0_LLC_prefetch_useless 7434372
Core_0_LLC_prefetch_late 1437351
Core_0_LLC_average_miss_latency 5956.78837

Core_0_major_page_fault 0
Core_0_minor_page_fault 37887

Core_1_instructions 657000000
Core_1_cycles 1120542569
Core_1_IPC 0.58632

Core_1_branch_prediction_accuracy 99.58944
Core_1_branch_MPKI 0.11916
Core_1_average_ROB_occupancy_at_mispredict 571.75552

Core_1_L1D_total_access 207928157
Core_1_L1D_total_hit 195355620 L1D_total_Hit Ratio: 0.93953
Core_1_L1D_total_miss 12572537
Core_1_L1D_loads 191120411
Core_1_L1D_load_hit 179601715 L1D_load_Hit Ratio: 0.93973
Core_1_L1D_load_miss 11518696
Core_1_L1D_RFOs 16807746
Core_1_L1D_RFO_hit 15753905 L1D_RFO_Hit Ratio: 0.93730
Core_1_L1D_RFO_miss 1053841
Core_1_L1D_prefetches 0
Core_1_L1D_prefetch_hit 0 L1D_prefetch_Hit Ratio: -nan
Core_1_L1D_prefetch_miss 0
Core_1_L1D_writebacks 0
Core_1_L1D_writeback_hit 0 L1D_writeback_Hit Ratio: -nan
Core_1_L1D_writeback_miss 0
Core_1_L1D_prefetch_requested 0
Core_1_L1D_prefetch_issued 0
Core_1_L1D_prefetch_useful 0 L1D_Useful Ratio: -nan
Core_1_L1D_prefetch_useless 0
Core_1_L1D_prefetch_late 0
Core_1_L1D_average_miss_latency 307.42246

Core_1_L1I_total_access 102783631
Core_1_L1I_total_hit 102781597 L1I_total_Hit Ratio: 0.99998
Core_1_L1I_total_miss 2034
Core_1_L1I_loads 102783631
Core_1_L1I_load_hit 102781597 L1I_load_Hit Ratio: 0.99998
Core_1_L1I_load_miss 2034
Core_1_L1I_RFOs 0
Core_1_L1I_RFO_hit 0 L1I_RFO_Hit Ratio: -nan
Core_1_L1I_RFO_miss 0
Core_1_L1I_prefetches 0
Core_1_L1I_prefetch_hit 0 L1I_prefetch_Hit Ratio: -nan
Core_1_L1I_prefetch_miss 0
Core_1_L1I_writebacks 0
Core_1_L1I_writeback_hit 0 L1I_writeback_Hit Ratio: -nan
Core_1_L1I_writeback_miss 0
Core_1_L1I_prefetch_requested 0
Core_1_L1I_prefetch_issued 0
Core_1_L1I_prefetch_useful 0 L1I_Useful Ratio: -nan
Core_1_L1I_prefetch_useless 0
Core_1_L1I_prefetch_late 0
Core_1_L1I_average_miss_latency 977.77188

Core_1_L2C_total_access 34587997
Core_1_L2C_total_hit 28995769 L2C_total_Hit Ratio: 0.83832
Core_1_L2C_total_miss 5592228
Core_1_L2C_loads 11520730
Core_1_L2C_load_hit 8207067 L2C_load_Hit Ratio: 0.71237
Core_1_L2C_load_miss 3313663
Core_1_L2C_RFOs 1053841
Core_1_L2C_RFO_hit 4877 L2C_RFO_Hit Ratio: 0.00463
Core_1_L2C_RFO_miss 1048964
Core_1_L2C_prefetches 18136209
Core_1_L2C_prefetch_hit 16906626 L2C_prefetch_Hit Ratio: 0.93220
Core_1_L2C_prefetch_miss 1229583
Core_1_L2C_writebacks 3877217
Core_1_L2C_writeback_hit 3877199 L2C_writeback_Hit Ratio: 1.00000
Core_1_L2C_writeback_miss 18
Core_1_L2C_prefetch_requested 50494718
Core_1_L2C_prefetch_issued 46526550
Core_1_L2C_prefetch_useful 1200177 L2C_Useful Ratio: 0.02580
Core_1_L2C_prefetch_useless 32447
Core_1_L2C_prefetch_late 753007
Core_1_L2C_average_miss_latency 1079.02107

Core_1_LLC_total_access 20820623
Core_1_LLC_total_hit 15256041 LLC_total_Hit Ratio: 0.73274
Core_1_LLC_total_miss 5564582
Core_1_LLC_loads 2560770
Core_1_LLC_load_hit 1462078 LLC_load_Hit Ratio: 0.57095
Core_1_LLC_load_miss 1098692
Core_1_LLC_RFOs 1048964
Core_1_LLC_RFO_hit 229 LLC_RFO_Hit Ratio: 0.00022
Core_1_LLC_RFO_miss 1048735
Core_1_LLC_prefetches 13974742
Core_1_LLC_prefetch_hit 10626918 LLC_prefetch_Hit Ratio: 0.76044
Core_1_LLC_prefetch_miss 3347824
Core_1_LLC_writebacks 3236147
Core_1_LLC_writeback_hit 3166816 LLC_writeback_Hit Ratio: 0.97858
Core_1_LLC_writeback_miss 69331
Core_1_LLC_prefetch_requested 0
Core_1_LLC_prefetch_issued 0
Core_1_LLC_prefetch_useful 5617204 LLC_Useful Ratio: inf
Core_1_LLC_prefetch_useless 7434372
Core_1_LLC_prefetch_late 1437351
Core_1_LLC_average_miss_latency 5955.55303

Core_1_major_page_fault 0
Core_1_minor_page_fault 37887

Core_2_instructions 657000005
Core_2_cycles 1120472260
Core_2_IPC 0.58636

Core_2_branch_prediction_accuracy 99.58944
Core_2_branch_MPKI 0.11914
Core_2_average_ROB_occupancy_at_mispredict 571.79866

Core_2_L1D_total_access 207887875
Core_2_L1D_total_hit 194577139 L1D_total_Hit Ratio: 0.93597
Core_2_L1D_total_miss 13310736
Core_2_L1D_loads 191079110
Core_2_L1D_load_hit 178821825 L1D_load_Hit Ratio: 0.93585
Core_2_L1D_load_miss 12257285
Core_2_L1D_RFOs 16808765
Core_2_L1D_RFO_hit 15755314 L1D_RFO_Hit Ratio: 0.93733
Core_2_L1D_RFO_miss 1053451
Core_2_L1D_prefetches 0
Core_2_L1D_prefetch_hit 0 L1D_prefetch_Hit Ratio: -nan
Core_2_L1D_prefetch_miss 0
Core_2_L1D_writebacks 0
Core_2_L1D_writeback_hit 0 L1D_writeback_Hit Ratio: -nan
Core_2_L1D_writeback_miss 0
Core_2_L1D_prefetch_requested 0
Core_2_L1D_prefetch_issued 0
Core_2_L1D_prefetch_useful 0 L1D_Useful Ratio: -nan
Core_2_L1D_prefetch_useless 0
Core_2_L1D_prefetch_late 0
Core_2_L1D_average_miss_latency 293.31573

Core_2_L1I_total_access 101960278
Core_2_L1I_total_hit 101958269 L1I_total_Hit Ratio: 0.99998
Core_2_L1I_total_miss 2009
Core_2_L1I_loads 101960278
Core_2_L1I_load_hit 101958269 L1I_load_Hit Ratio: 0.99998
Core_2_L1I_load_miss 2009
Core_2_L1I_RFOs 0
Core_2_L1I_RFO_hit 0 L1I_RFO_Hit Ratio: -nan
Core_2_L1I_RFO_miss 0
Core_2_L1I_prefetches 0
Core_2_L1I_prefetch_hit 0 L1I_prefetch_Hit Ratio: -nan
Core_2_L1I_prefetch_miss 0
Core_2_L1I_writebacks 0
Core_2_L1I_writeback_hit 0 L1I_writeback_Hit Ratio: -nan
Core_2_L1I_writeback_miss 0
Core_2_L1I_prefetch_requested 0
Core_2_L1I_prefetch_issued 0
Core_2_L1I_prefetch_useful 0 L1I_Useful Ratio: -nan
Core_2_L1I_prefetch_useless 0
Core_2_L1I_prefetch_late 0
Core_2_L1I_average_miss_latency 953.63265

Core_2_L2C_total_access 36203093
Core_2_L2C_total_hit 30608730 L2C_total_Hit Ratio: 0.84547
Core_2_L2C_total_miss 5594363
Core_2_L2C_loads 12259294
Core_2_L2C_load_hit 8914726 L2C_load_Hit Ratio: 0.72718
Core_2_L2C_load_miss 3344568
Core_2_L2C_RFOs 1053451
Core_2_L2C_RFO_hit 4414 L2C_RFO_Hit Ratio: 0.00419
Core_2_L2C_RFO_miss 1049037
Core_2_L2C_prefetches 19013281
Core_2_L2C_prefetch_hit 17812565 L2C_prefetch_Hit Ratio: 0.93685
Core_2_L2C_prefetch_miss 1200716
Core_2_L2C_writebacks 3877067
Core_2_L2C_writeback_hit 3877025 L2C_writeback_Hit Ratio: 0.99999
Core_2_L2C_writeback_miss 42
Core_2_L2C_prefetch_requested 52597729
Core_2_L2C_prefetch_issued 47431014
Core_2_L2C_prefetch_useful 1170242 L2C_Useful Ratio: 0.02467
Core_2_L2C_prefetch_useless 33993
Core_2_L2C_prefetch_late 756215
Core_2_L2C_average_miss_latency 1018.84330

Core_2_LLC_total_access 20697411
Core_2_LLC_total_hit 15128157 LLC_total_Hit Ratio: 0.73092
Core_2_LLC_total_miss 5569254
Core_2_LLC_loads 2588468
Core_2_LLC_load_hit 1416859 LLC_load_Hit Ratio: 0.54737
Core_2_LLC_load_miss 1171609
Core_2_LLC_RFOs 1049037
Core_2_LLC_RFO_hit 303 LLC_RFO_Hit Ratio: 0.00029
Core_2_LLC_RFO_miss 1048734
Core_2_LLC_prefetches 13825422
Core_2_LLC_prefetch_hit 10550470 LLC_prefetch_Hit Ratio: 0.76312
Core_2_LLC_prefetch_miss 3274952
Core_2_LLC_writebacks 3234484
Core_2_LLC_writeback_hit 3160525 LLC_writeback_Hit Ratio: 0.97713
Core_2_LLC_writeback_miss 73959
Core_2_LLC_prefetch_requested 0
Core_2_LLC_prefetch_issued 0
Core_2_LLC_prefetch_useful 5617204 LLC_Useful Ratio: inf
Core_2_LLC_prefetch_useless 7434372
Core_2_LLC_prefetch_late 1437351
Core_2_LLC_average_miss_latency 5950.55697

Core_2_major_page_fault 0
Core_2_minor_page_fault 37887

Core_3_instructions 657000000
Core_3_cycles 1120198010
Core_3_IPC 0.58650

Core_3_branch_prediction_accuracy 99.58943
Core_3_branch_MPKI 0.11907
Core_3_average_ROB_occupancy_at_mispredict 571.61576

Core_3_L1D_total_access 207923564
Core_3_L1D_total_hit 195264244 L1D_total_Hit Ratio: 0.93912
Core_3_L1D_total_miss 12659320
Core_3_L1D_loads 191112006
Core_3_L1D_load_hit 179504386 L1D_load_Hit Ratio: 0.93926
Core_3_L1D_load_miss 11607620
Core_3_L1D_RFOs 16811558
Core_3_L1D_RFO_hit 15759858 L1D_RFO_Hit Ratio: 0.93744
Core_3_L1D_RFO_miss 1051700
Core_3_L1D_prefetches 0
Core_3_L1D_prefetch_hit 0 L1D_prefetch_Hit Ratio: -nan
Core_3_L1D_prefetch_miss 0
Core_3_L1D_writebacks 0
Core_3_L1D_writeback_hit 0 L1D_writeback_Hit Ratio: -nan
Core_3_L1D_writeback_miss 0
Core_3_L1D_prefetch_requested 0
Core_3_L1D_prefetch_issued 0
Core_3_L1D_prefetch_useful 0 L1D_Useful Ratio: -nan
Core_3_L1D_prefetch_useless 0
Core_3_L1D_prefetch_late 0
Core_3_L1D_average_miss_latency 306.46181

Core_3_L1I_total_access 102700859
Core_3_L1I_total_hit 102698885 L1I_total_Hit Ratio: 0.99998
Core_3_L1I_total_miss 1974
Core_3_L1I_loads 102700859
Core_3_L1I_load_hit 102698885 L1I_load_Hit Ratio: 0.99998
Core_3_L1I_load_miss 1974
Core_3_L1I_RFOs 0
Core_3_L1I_RFO_hit 0 L1I_RFO_Hit Ratio: -nan
Core_3_L1I_RFO_miss 0
Core_3_L1I_prefetches 0
Core_3_L1I_prefetch_hit 0 L1I_prefetch_Hit Ratio: -nan
Core_3_L1I_prefetch_miss 0
Core_3_L1I_writebacks 0
Core_3_L1I_writeback_hit 0 L1I_writeback_Hit Ratio: -nan
Core_3_L1I_writeback_miss 0
Core_3_L1I_prefetch_requested 0
Core_3_L1I_prefetch_issued 0
Core_3_L1I_prefetch_useful 0 L1I_Useful Ratio: -nan
Core_3_L1I_prefetch_useless 0
Core_3_L1I_prefetch_late 0
Core_3_L1I_average_miss_latency 1065.59068

Core_3_L2C_total_access 34182314
Core_3_L2C_total_hit 28589209 L2C_total_Hit Ratio: 0.83637
Core_3_L2C_total_miss 5593105
Core_3_L2C_loads 11609592
Core_3_L2C_load_hit 8252745 L2C_load_Hit Ratio: 0.71086
Core_3_L2C_load_miss 3356847
Core_3_L2C_RFOs 1051700
Core_3_L2C_RFO_hit 2702 L2C_RFO_Hit Ratio: 0.00257
Core_3_L2C_RFO_miss 1048998
Core_3_L2C_prefetches 17650781
Core_3_L2C_prefetch_hit 16463560 L2C_prefetch_Hit Ratio: 0.93274
Core_3_L2C_prefetch_miss 1187221
Core_3_L2C_writebacks 3870241
Core_3_L2C_writeback_hit 3870202 L2C_writeback_Hit Ratio: 0.99999
Core_3_L2C_writeback_miss 39
Core_3_L2C_prefetch_requested 50726164
Core_3_L2C_prefetch_issued 45761390
Core_3_L2C_prefetch_useful 1159160 L2C_Useful Ratio: 0.02533
Core_3_L2C_prefetch_useless 32349
Core_3_L2C_prefetch_late 756276
Core_3_L2C_average_miss_latency 969.93677

Core_3_LLC_total_access 20641785
Core_3_LLC_total_hit 15077089 LLC_total_Hit Ratio: 0.73042
Core_3_LLC_total_miss 5564696
Core_3_LLC_loads 2600681
Core_3_LLC_load_hit 1387787 LLC_load_Hit Ratio: 0.53362
Core_3_LLC_load_miss 1212894
Core_3_LLC_RFOs 1048997
Core_3_LLC_RFO_hit 265 LLC_RFO_Hit Ratio: 0.00025
Core_3_LLC_RFO_miss 1048732
Core_3_LLC_prefetches 13755458
Core_3_LLC_prefetch_hit 10521773 LLC_prefetch_Hit Ratio: 0.76492
Core_3_LLC_prefetch_miss 3233685
Core_3_LLC_writebacks 3236649
Core_3_LLC_writeback_hit 3167264 LLC_writeback_Hit Ratio: 0.97856
Core_3_LLC_writeback_miss 69385
Core_3_LLC_prefetch_requested 0
Core_3_LLC_prefetch_issued 0
Core_3_LLC_prefetch_useful 5617204 LLC_Useful Ratio: inf
Core_3_LLC_prefetch_useless 7434372
Core_3_LLC_prefetch_late 1437351
Core_3_LLC_average_miss_latency 5955.43103

Core_3_major_page_fault 0
Core_3_minor_page_fault 37887

 All Calls: 47686298
 Critical Calls: 47686298
------------------
Depth Distribution
------------------
depth 0: 0
depth 1: 40881535
depth 2: 37222271
depth 3: 28621095
depth 4: 22546922
depth 5: 18132272
depth 6: 10907921
depth 7: 7972416
depth 8: 6966581
depth 9: 5698916
depth 10: 4254559
depth 11: 2837258
depth 12: 1339134
depth 13: 764575
depth 14: 31989
depth 15: 31264
depth 16: 1
depth 17: 0
depth 18: 0
depth 19: 0
depth 20: 0
depth 21: 0
depth 22: 0
depth 23: 0
depth 24: 0
depth 25: 0
depth 26: 0
depth 27: 0
depth 28: 0
depth 29: 0
Total: 188208709
-----------------------------
-----------------------------
	Captured at Filter
-----------------------------
depth 0: 0
depth 1: 1945560
depth 2: 1659273
depth 3: 1171426
depth 4: 781106
depth 5: 568021
depth 6: 218400
depth 7: 60766
depth 8: 42350
depth 9: 33870
depth 10: 24185
depth 11: 15014
depth 12: 6224
depth 13: 3388
depth 14: 136
depth 15: 126
depth 16: 0
depth 17: 0
depth 18: 0
depth 19: 0
depth 20: 0
depth 21: 0
depth 22: 0
depth 23: 0
depth 24: 0
depth 25: 0
depth 26: 0
depth 27: 0
depth 28: 0
depth 29: 0
-----------------------------
-----------------------------
		Lost at Page
-----------------------------
depth 0: 0
depth 1: 1285796
depth 2: 1660360
depth 3: 1848259
depth 4: 1832360
depth 5: 1875216
depth 6: 1498744
depth 7: 1153109
depth 8: 1086066
depth 9: 1012847
depth 10: 846423
depth 11: 623736
depth 12: 320103
depth 13: 200111
depth 14: 8709
depth 15: 9411
depth 16: 0
depth 17: 0
depth 18: 0
depth 19: 0
depth 20: 0
depth 21: 0
depth 22: 0
depth 23: 0
depth 24: 0
depth 25: 0
depth 26: 0
depth 27: 0
depth 28: 0
depth 29: 0
-----------------------------
-----------------------------
	Lost due to PQ Size
-----------------------------
17970540
-----------------------------
ST read accesses: 43981887
ST write accesses: 3551941
PT read accesses: 1375497434
PT write accesses: 61833164
FILTER read accesses: 282045008
FILTER write accesses: 68307360
GHR read accesses: 111422429
GHR write accesses: 15232051
GHR counter read accesses: 1186914624
GHR counter write accesses: 96942999
ST tag read accesses: 20092450615
ST tag write accesses: 1568009994
 All Calls: 47686298
 Critical Calls: 47686298
------------------
Depth Distribution
------------------
depth 0: 0
depth 1: 40881535
depth 2: 37222271
depth 3: 28621095
depth 4: 22546922
depth 5: 18132272
depth 6: 10907921
depth 7: 7972416
depth 8: 6966581
depth 9: 5698916
depth 10: 4254559
depth 11: 2837258
depth 12: 1339134
depth 13: 764575
depth 14: 31989
depth 15: 31264
depth 16: 1
depth 17: 0
depth 18: 0
depth 19: 0
depth 20: 0
depth 21: 0
depth 22: 0
depth 23: 0
depth 24: 0
depth 25: 0
depth 26: 0
depth 27: 0
depth 28: 0
depth 29: 0
Total: 188208709
-----------------------------
-----------------------------
	Captured at Filter
-----------------------------
depth 0: 0
depth 1: 1945560
depth 2: 1659273
depth 3: 1171426
depth 4: 781106
depth 5: 568021
depth 6: 218400
depth 7: 60766
depth 8: 42350
depth 9: 33870
depth 10: 24185
depth 11: 15014
depth 12: 6224
depth 13: 3388
depth 14: 136
depth 15: 126
depth 16: 0
depth 17: 0
depth 18: 0
depth 19: 0
depth 20: 0
depth 21: 0
depth 22: 0
depth 23: 0
depth 24: 0
depth 25: 0
depth 26: 0
depth 27: 0
depth 28: 0
depth 29: 0
-----------------------------
-----------------------------
		Lost at Page
-----------------------------
depth 0: 0
depth 1: 1285796
depth 2: 1660360
depth 3: 1848259
depth 4: 1832360
depth 5: 1875216
depth 6: 1498744
depth 7: 1153109
depth 8: 1086066
depth 9: 1012847
depth 10: 846423
depth 11: 623736
depth 12: 320103
depth 13: 200111
depth 14: 8709
depth 15: 9411
depth 16: 0
depth 17: 0
depth 18: 0
depth 19: 0
depth 20: 0
depth 21: 0
depth 22: 0
depth 23: 0
depth 24: 0
depth 25: 0
depth 26: 0
depth 27: 0
depth 28: 0
depth 29: 0
-----------------------------
-----------------------------
	Lost due to PQ Size
-----------------------------
17970540
-----------------------------
ST read accesses: 43981887
ST write accesses: 3551941
PT read accesses: 1375497434
PT write accesses: 61833164
FILTER read accesses: 282045008
FILTER write accesses: 68307360
GHR read accesses: 111422429
GHR write accesses: 15232051
GHR counter read accesses: 1186914624
GHR counter write accesses: 96942999
ST tag read accesses: 20092450615
ST tag write accesses: 1568009994
 All Calls: 47686298
 Critical Calls: 47686298
------------------
Depth Distribution
------------------
depth 0: 0
depth 1: 40881535
depth 2: 37222271
depth 3: 28621095
depth 4: 22546922
depth 5: 18132272
depth 6: 10907921
depth 7: 7972416
depth 8: 6966581
depth 9: 5698916
depth 10: 4254559
depth 11: 2837258
depth 12: 1339134
depth 13: 764575
depth 14: 31989
depth 15: 31264
depth 16: 1
depth 17: 0
depth 18: 0
depth 19: 0
depth 20: 0
depth 21: 0
depth 22: 0
depth 23: 0
depth 24: 0
depth 25: 0
depth 26: 0
depth 27: 0
depth 28: 0
depth 29: 0
Total: 188208709
-----------------------------
-----------------------------
	Captured at Filter
-----------------------------
depth 0: 0
depth 1: 1945560
depth 2: 1659273
depth 3: 1171426
depth 4: 781106
depth 5: 568021
depth 6: 218400
depth 7: 60766
depth 8: 42350
depth 9: 33870
depth 10: 24185
depth 11: 15014
depth 12: 6224
depth 13: 3388
depth 14: 136
depth 15: 126
depth 16: 0
depth 17: 0
depth 18: 0
depth 19: 0
depth 20: 0
depth 21: 0
depth 22: 0
depth 23: 0
depth 24: 0
depth 25: 0
depth 26: 0
depth 27: 0
depth 28: 0
depth 29: 0
-----------------------------
-----------------------------
		Lost at Page
-----------------------------
depth 0: 0
depth 1: 1285796
depth 2: 1660360
depth 3: 1848259
depth 4: 1832360
depth 5: 1875216
depth 6: 1498744
depth 7: 1153109
depth 8: 1086066
depth 9: 1012847
depth 10: 846423
depth 11: 623736
depth 12: 320103
depth 13: 200111
depth 14: 8709
depth 15: 9411
depth 16: 0
depth 17: 0
depth 18: 0
depth 19: 0
depth 20: 0
depth 21: 0
depth 22: 0
depth 23: 0
depth 24: 0
depth 25: 0
depth 26: 0
depth 27: 0
depth 28: 0
depth 29: 0
-----------------------------
-----------------------------
	Lost due to PQ Size
-----------------------------
17970540
-----------------------------
ST read accesses: 43981887
ST write accesses: 3551941
PT read accesses: 1375497434
PT write accesses: 61833164
FILTER read accesses: 282045008
FILTER write accesses: 68307360
GHR read accesses: 111422429
GHR write accesses: 15232051
GHR counter read accesses: 1186914624
GHR counter write accesses: 96942999
ST tag read accesses: 20092450615
ST tag write accesses: 1568009994
 All Calls: 47686298
 Critical Calls: 47686298
------------------
Depth Distribution
------------------
depth 0: 0
depth 1: 40881535
depth 2: 37222271
depth 3: 28621095
depth 4: 22546922
depth 5: 18132272
depth 6: 10907921
depth 7: 7972416
depth 8: 6966581
depth 9: 5698916
depth 10: 4254559
depth 11: 2837258
depth 12: 1339134
depth 13: 764575
depth 14: 31989
depth 15: 31264
depth 16: 1
depth 17: 0
depth 18: 0
depth 19: 0
depth 20: 0
depth 21: 0
depth 22: 0
depth 23: 0
depth 24: 0
depth 25: 0
depth 26: 0
depth 27: 0
depth 28: 0
depth 29: 0
Total: 188208709
-----------------------------
-----------------------------
	Captured at Filter
-----------------------------
depth 0: 0
depth 1: 1945560
depth 2: 1659273
depth 3: 1171426
depth 4: 781106
depth 5: 568021
depth 6: 218400
depth 7: 60766
depth 8: 42350
depth 9: 33870
depth 10: 24185
depth 11: 15014
depth 12: 6224
depth 13: 3388
depth 14: 136
depth 15: 126
depth 16: 0
depth 17: 0
depth 18: 0
depth 19: 0
depth 20: 0
depth 21: 0
depth 22: 0
depth 23: 0
depth 24: 0
depth 25: 0
depth 26: 0
depth 27: 0
depth 28: 0
depth 29: 0
-----------------------------
-----------------------------
		Lost at Page
-----------------------------
depth 0: 0
depth 1: 1285796
depth 2: 1660360
depth 3: 1848259
depth 4: 1832360
depth 5: 1875216
depth 6: 1498744
depth 7: 1153109
depth 8: 1086066
depth 9: 1012847
depth 10: 846423
depth 11: 623736
depth 12: 320103
depth 13: 200111
depth 14: 8709
depth 15: 9411
depth 16: 0
depth 17: 0
depth 18: 0
depth 19: 0
depth 20: 0
depth 21: 0
depth 22: 0
depth 23: 0
depth 24: 0
depth 25: 0
depth 26: 0
depth 27: 0
depth 28: 0
depth 29: 0
-----------------------------
-----------------------------
	Lost due to PQ Size
-----------------------------
17970540
-----------------------------
ST read accesses: 43981887
ST write accesses: 3551941
PT read accesses: 1375497434
PT write accesses: 61833164
FILTER read accesses: 282045008
FILTER write accesses: 68307360
GHR read accesses: 111422429
GHR write accesses: 15232051
GHR counter read accesses: 1186914624
GHR counter write accesses: 96942999
ST tag read accesses: 20092450615
ST tag write accesses: 1568009994
Channel_0_RQ_row_buffer_hit 8164369
Channel_0_RQ_row_buffer_miss 13823545
Channel_0_WQ_row_buffer_hit 3840262
Channel_0_WQ_row_buffer_miss 9005819
Channel_0_WQ_full 18550
Channel_0_dbus_congested 20218015

avg_congested_cycle 8

EzSearch AVG IPC :0.58689: L2-Pf-HR :0.93605 : L2-HR :0.84688 Uful:0.02512
EzSearch AVG IPC :0.58632: L2-Pf-HR :0.93220 : L2-HR :0.83832 Uful:0.02580
EzSearch AVG IPC :0.58636: L2-Pf-HR :0.93685 : L2-HR :0.84549 Uful:0.02467
EzSearch AVG IPC :0.58650: L2-Pf-HR :0.93274 : L2-HR :0.83651 Uful:0.02533
     > Finished combination: TraceType=770-tot Sim:657000000 Prefetcher=L2spp_berti_src L1=no
