TRACE: [496000000][OPT-125M]_[h12][s1024][d64] Warmup: 2000000 NumTraces: 496000000
L1:no:L2:spp_berti_src
Initialize SIGNATURE TABLE
ST_SET: 1
ST_WAY: 256
ST_TAG_BIT: 16
ST_TAG_MASK: ffff

Initialize PATTERN TABLE
PT_SET: 512
PT_WAY: 4
SIG_DELTA_BIT: 7
C_SIG_BIT: 4
C_DELTA_BIT: 4

Initialize PREFETCH FILTER
FILTER_SET: 1024
*************************************************
   ChampSim Multicore Out-of-Order Simulator
   Last compiled: Oct 29 2024 03:28:23
*************************************************

trace_0 770-tot_memTraces_v3/memTraces[496000000][OPT-125M]_[h12][s1024][d64].champsim.xz
trace_1 770-tot_memTraces_v3/memTraces[496000000][OPT-125M]_[h12][s1024][d64].champsim.xz
trace_2 770-tot_memTraces_v3/memTraces[496000000][OPT-125M]_[h12][s1024][d64].champsim.xz
trace_3 770-tot_memTraces_v3/memTraces[496000000][OPT-125M]_[h12][s1024][d64].champsim.xz
ST_WAYS: 256
PT_SETS: 512
ST_WAYS: 256
PT_SETS: 512
ST_WAYS: 256
PT_SETS: 512
ST_WAYS: 256
PT_SETS: 512
MAIN.cc ln 751 stats print skipped
CPU  1 inst:    1000002 cyc:     498484 now IPC :2.00609: AVG IPC :2.00609: L2-Pf-HR :0.96548: L2-HR :0.85773: (Sim:0h0m26s) 
CPU  0 inst:    1000002 cyc:     498668 now IPC :2.00535: AVG IPC :2.00535: L2-Pf-HR :0.96255: L2-HR :0.84615: (Sim:0h0m26s) 
CPU  3 inst:    1000002 cyc:     498732 now IPC :2.00509: AVG IPC :2.00509: L2-Pf-HR :0.95005: L2-HR :0.81250: (Sim:0h0m26s) 
CPU  2 inst:    1000002 cyc:     498798 now IPC :2.00482: AVG IPC :2.00482: L2-Pf-HR :0.95301: L2-HR :0.82277: (Sim:0h0m26s) 
CPU  1 inst:    2000000 cyc:     981084 now IPC :2.07211: AVG IPC :2.03856: L2-Pf-HR :0.97350: L2-HR :0.90224: (Sim:0h0m54s) 
CPU  0 inst:    2000000 cyc:     981253 now IPC :2.07217: AVG IPC :2.03821: L2-Pf-HR :0.97253: L2-HR :0.89868: (Sim:0h0m54s) 
CPU  3 inst:    2000000 cyc:     981320 now IPC :2.07216: AVG IPC :2.03807: L2-Pf-HR :0.96485: L2-HR :0.87865: (Sim:0h0m54s) 
CPU  2 inst:    2000000 cyc:     981349 now IPC :2.07232: AVG IPC :2.03801: L2-Pf-HR :0.96204: L2-HR :0.87220: (Sim:0h0m54s) 

Warmup complete CPU  0 instructions:    2000281 cycles:     981350 (Simulation time: 0 hr 0 min 54 sec) 
Warmup complete CPU  1 instructions:    2000462 cycles:     981350 (Simulation time: 0 hr 0 min 54 sec) 
Warmup complete CPU  2 instructions:    2000002 cycles:     981350 (Simulation time: 0 hr 0 min 54 sec) 
Warmup complete CPU  3 instructions:    2000079 cycles:     981349 (Simulation time: 0 hr 0 min 54 sec) 

CPU  3 inst:    3000002 cyc:    1516949 now IPC :1.86697: AVG IPC :1.86692: L2-Pf-HR :0.94966: L2-HR :0.90291: (Sim:0h1m19s) 
CPU  1 inst:    3000002 cyc:    1517212 now IPC :1.86523: AVG IPC :1.86529: L2-Pf-HR :0.95796: L2-HR :0.91563: (Sim:0h1m19s) 
CPU  2 inst:    3000002 cyc:    1517412 now IPC :1.86546: AVG IPC :1.86546: L2-Pf-HR :0.94998: L2-HR :0.90574: (Sim:0h1m19s) 
CPU  0 inst:    3000002 cyc:    1517776 now IPC :1.86386: AVG IPC :1.86367: L2-Pf-HR :0.95794: L2-HR :0.91617: (Sim:0h1m19s) 
CPU  0 inst:    4000000 cyc:    2129617 now IPC :1.63441: AVG IPC :1.74151: L2-Pf-HR :0.94943: L2-HR :0.90949: (Sim:0h1m45s) 
CPU  2 inst:    4000000 cyc:    2130873 now IPC :1.63009: AVG IPC :1.73985: L2-Pf-HR :0.93607: L2-HR :0.89122: (Sim:0h1m45s) 
CPU  1 inst:    4000000 cyc:    2131554 now IPC :1.62775: AVG IPC :1.73842: L2-Pf-HR :0.94947: L2-HR :0.90887: (Sim:0h1m45s) 
CPU  3 inst:    4000000 cyc:    2132515 now IPC :1.62452: AVG IPC :1.73730: L2-Pf-HR :0.93545: L2-HR :0.88874: (Sim:0h1m45s) 
CPU  3 inst:    5000005 cyc:    2689464 now IPC :1.79551: AVG IPC :1.75628: L2-Pf-HR :0.94445: L2-HR :0.88984: (Sim:0h2m10s) 
CPU  2 inst:    5000005 cyc:    2690195 now IPC :1.78789: AVG IPC :1.75557: L2-Pf-HR :0.94729: L2-HR :0.89607: (Sim:0h2m10s) 
CPU  1 inst:    5000005 cyc:    2690986 now IPC :1.78754: AVG IPC :1.75449: L2-Pf-HR :0.95934: L2-HR :0.91485: (Sim:0h2m10s) 
CPU  0 inst:    5000005 cyc:    2690989 now IPC :1.78136: AVG IPC :1.75459: L2-Pf-HR :0.95986: L2-HR :0.91663: (Sim:0h2m10s) 
CPU  0 inst:    6000005 cyc:    3237912 now IPC :1.82841: AVG IPC :1.77249: L2-Pf-HR :0.96210: L2-HR :0.91731: (Sim:0h2m35s) 
CPU  1 inst:    6000005 cyc:    3239162 now IPC :1.82423: AVG IPC :1.77142: L2-Pf-HR :0.96192: L2-HR :0.91657: (Sim:0h2m35s) 
CPU  2 inst:    6000005 cyc:    3241146 now IPC :1.81504: AVG IPC :1.77007: L2-Pf-HR :0.94961: L2-HR :0.89699: (Sim:0h2m35s) 
CPU  3 inst:    6000005 cyc:    3241368 now IPC :1.81191: AVG IPC :1.76986: L2-Pf-HR :0.94656: L2-HR :0.88988: (Sim:0h2m35s) 
CPU  0 inst:    7000005 cyc:    3923480 now IPC :1.45864: AVG IPC :1.69936: L2-Pf-HR :0.96382: L2-HR :0.91659: (Sim:0h3m1s) 
CPU  3 inst:    7000005 cyc:    3924521 now IPC :1.46380: AVG IPC :1.69882: L2-Pf-HR :0.95017: L2-HR :0.89068: (Sim:0h3m1s) 
CPU  1 inst:    7000005 cyc:    3924731 now IPC :1.45864: AVG IPC :1.69857: L2-Pf-HR :0.96410: L2-HR :0.91677: (Sim:0h3m1s) 
CPU  2 inst:    7000005 cyc:    3929271 now IPC :1.45322: AVG IPC :1.69611: L2-Pf-HR :0.95233: L2-HR :0.89663: (Sim:0h3m1s) 
CPU  0 inst:    8000004 cyc:    4427784 now IPC :1.98293: AVG IPC :1.74085: L2-Pf-HR :0.95955: L2-HR :0.91744: (Sim:0h3m26s) 
CPU  1 inst:    8000004 cyc:    4429313 now IPC :1.98184: AVG IPC :1.74003: L2-Pf-HR :0.96022: L2-HR :0.91723: (Sim:0h3m26s) 
CPU  2 inst:    8000004 cyc:    4442288 now IPC :1.94925: AVG IPC :1.73363: L2-Pf-HR :0.94690: L2-HR :0.89552: (Sim:0h3m27s) 
CPU  3 inst:    8000004 cyc:    4463394 now IPC :1.85572: AVG IPC :1.72310: L2-Pf-HR :0.94796: L2-HR :0.89210: (Sim:0h3m28s) 
CPU  0 inst:    9000005 cyc:    4929192 now IPC :1.99439: AVG IPC :1.77305: L2-Pf-HR :0.95838: L2-HR :0.91889: (Sim:0h3m51s) 
CPU  1 inst:    9000005 cyc:    4932961 now IPC :1.98552: AVG IPC :1.77131: L2-Pf-HR :0.95908: L2-HR :0.91829: (Sim:0h3m51s) 
CPU  2 inst:    9000005 cyc:    4934340 now IPC :2.03231: AVG IPC :1.77081: L2-Pf-HR :0.94533: L2-HR :0.89725: (Sim:0h3m51s) 
CPU  3 inst:    9000005 cyc:    4961720 now IPC :2.00672: AVG IPC :1.75861: L2-Pf-HR :0.94680: L2-HR :0.89423: (Sim:0h3m52s) 
CPU  0 inst:   10000000 cyc:    5480003 now IPC :1.81550: AVG IPC :1.77825: L2-Pf-HR :0.95508: L2-HR :0.91799: (Sim:0h4m16s) 
CPU  1 inst:   10000002 cyc:    5487419 now IPC :1.80356: AVG IPC :1.77528: L2-Pf-HR :0.95597: L2-HR :0.91726: (Sim:0h4m17s) 
CPU  2 inst:   10000002 cyc:    5496040 now IPC :1.78030: AVG IPC :1.77199: L2-Pf-HR :0.94137: L2-HR :0.89517: (Sim:0h4m17s) 
CPU  3 inst:   10000002 cyc:    5517266 now IPC :1.80003: AVG IPC :1.76368: L2-Pf-HR :0.94346: L2-HR :0.89241: (Sim:0h4m18s) 
CPU  0 inst:   11000000 cyc:    6001119 now IPC :1.91896: AVG IPC :1.79286: L2-Pf-HR :0.95313: L2-HR :0.91837: (Sim:0h4m41s) 
CPU  1 inst:   11000000 cyc:    6038788 now IPC :1.81366: AVG IPC :1.77947: L2-Pf-HR :0.95396: L2-HR :0.91678: (Sim:0h4m43s) 
CPU  2 inst:   11000000 cyc:    6039985 now IPC :1.83842: AVG IPC :1.77914: L2-Pf-HR :0.93901: L2-HR :0.89470: (Sim:0h4m43s) 
CPU  3 inst:   11000000 cyc:    6065260 now IPC :1.82483: AVG IPC :1.77028: L2-Pf-HR :0.94078: L2-HR :0.89076: (Sim:0h4m44s) 
CPU  0 inst:   12000003 cyc:    6537855 now IPC :1.86312: AVG IPC :1.79964: L2-Pf-HR :0.95192: L2-HR :0.91759: (Sim:0h5m7s) 
CPU  1 inst:   12000003 cyc:    6549774 now IPC :1.95701: AVG IPC :1.79576: L2-Pf-HR :0.95289: L2-HR :0.91656: (Sim:0h5m8s) 
CPU  2 inst:   12000003 cyc:    6554916 now IPC :1.94201: AVG IPC :1.79418: L2-Pf-HR :0.93737: L2-HR :0.89417: (Sim:0h5m8s) 
CPU  3 inst:   12000003 cyc:    6568784 now IPC :1.98601: AVG IPC :1.78972: L2-Pf-HR :0.93870: L2-HR :0.88946: (Sim:0h5m9s) 
CPU  0 inst:   13000005 cyc:    7185589 now IPC :1.54385: AVG IPC :1.77294: L2-Pf-HR :0.95378: L2-HR :0.91767: (Sim:0h5m34s) 
CPU  1 inst:   13000005 cyc:    7192496 now IPC :1.55589: AVG IPC :1.77094: L2-Pf-HR :0.95512: L2-HR :0.91765: (Sim:0h5m34s) 
CPU  2 inst:   13000005 cyc:    7198543 now IPC :1.55370: AVG IPC :1.76929: L2-Pf-HR :0.94045: L2-HR :0.89576: (Sim:0h5m34s) 
CPU  3 inst:   13000005 cyc:    7211532 now IPC :1.55582: AVG IPC :1.76559: L2-Pf-HR :0.93918: L2-HR :0.88825: (Sim:0h5m35s) 
CPU  0 inst:   14000002 cyc:    7682248 now IPC :2.01345: AVG IPC :1.79076: L2-Pf-HR :0.95244: L2-HR :0.91711: (Sim:0h5m59s) 
CPU  1 inst:   14000002 cyc:    7687652 now IPC :2.01956: AVG IPC :1.78929: L2-Pf-HR :0.95403: L2-HR :0.91749: (Sim:0h5m59s) 
CPU  2 inst:   14000002 cyc:    7692027 now IPC :2.02640: AVG IPC :1.78820: L2-Pf-HR :0.93877: L2-HR :0.89497: (Sim:0h5m59s) 
CPU  3 inst:   14000003 cyc:    7704774 now IPC :2.02740: AVG IPC :1.78479: L2-Pf-HR :0.93475: L2-HR :0.88366: (Sim:0h6m0s) 
CPU  0 inst:   15000003 cyc:    8163153 now IPC :2.07941: AVG IPC :1.81009: L2-Pf-HR :0.94991: L2-HR :0.91572: (Sim:0h6m23s) 
CPU  1 inst:   15000003 cyc:    8179977 now IPC :2.03118: AVG IPC :1.80584: L2-Pf-HR :0.95216: L2-HR :0.91710: (Sim:0h6m24s) 
CPU  2 inst:   15000003 cyc:    8185675 now IPC :2.02574: AVG IPC :1.80447: L2-Pf-HR :0.93639: L2-HR :0.89438: (Sim:0h6m25s) 
CPU  3 inst:   15000004 cyc:    8200848 now IPC :2.01583: AVG IPC :1.80067: L2-Pf-HR :0.93080: L2-HR :0.88122: (Sim:0h6m25s) 
CPU  0 inst:   16000002 cyc:    8635765 now IPC :2.11590: AVG IPC :1.82897: L2-Pf-HR :0.94873: L2-HR :0.91481: (Sim:0h6m48s) 
CPU  1 inst:   16000003 cyc:    8657775 now IPC :2.09293: AVG IPC :1.82371: L2-Pf-HR :0.95173: L2-HR :0.91720: (Sim:0h6m49s) 
CPU  2 inst:   16000002 cyc:    8669713 now IPC :2.06595: AVG IPC :1.82093: L2-Pf-HR :0.93581: L2-HR :0.89447: (Sim:0h6m50s) 
CPU  3 inst:   16000002 cyc:    8684671 now IPC :2.06687: AVG IPC :1.81739: L2-Pf-HR :0.92775: L2-HR :0.87887: (Sim:0h6m50s) 
CPU  0 inst:   17000000 cyc:    9345879 now IPC :1.40822: AVG IPC :1.79325: L2-Pf-HR :0.95146: L2-HR :0.91397: (Sim:0h7m16s) 
CPU  1 inst:   17000000 cyc:    9351087 now IPC :1.44235: AVG IPC :1.79212: L2-Pf-HR :0.95478: L2-HR :0.91698: (Sim:0h7m16s) 
CPU  2 inst:   17000000 cyc:    9351087 now IPC :1.46762: AVG IPC :1.79217: L2-Pf-HR :0.93977: L2-HR :0.89447: (Sim:0h7m16s) 
CPU  3 inst:   17000005 cyc:    9360102 now IPC :1.48054: AVG IPC :1.79023: L2-Pf-HR :0.93297: L2-HR :0.87996: (Sim:0h7m16s) 
CPU  0 inst:   18000000 cyc:    9911694 now IPC :1.76736: AVG IPC :1.79161: L2-Pf-HR :0.95211: L2-HR :0.91428: (Sim:0h7m42s) 
CPU  2 inst:   18000000 cyc:    9911847 now IPC :1.78329: AVG IPC :1.79161: L2-Pf-HR :0.93966: L2-HR :0.89372: (Sim:0h7m42s) 
CPU  1 inst:   18000000 cyc:    9913523 now IPC :1.77798: AVG IPC :1.79123: L2-Pf-HR :0.95511: L2-HR :0.91700: (Sim:0h7m42s) 
CPU  3 inst:   18000000 cyc:    9917938 now IPC :1.79263: AVG IPC :1.79038: L2-Pf-HR :0.93397: L2-HR :0.88103: (Sim:0h7m42s) 
CPU  0 inst:   19000005 cyc:   10561819 now IPC :1.53817: AVG IPC :1.77441: L2-Pf-HR :0.95504: L2-HR :0.91531: (Sim:0h8m9s) 
CPU  1 inst:   19000005 cyc:   10564134 now IPC :1.53702: AVG IPC :1.77397: L2-Pf-HR :0.95755: L2-HR :0.91749: (Sim:0h8m9s) 
CPU  2 inst:   19000005 cyc:   10566436 now IPC :1.52768: AVG IPC :1.77359: L2-Pf-HR :0.94368: L2-HR :0.89507: (Sim:0h8m9s) 
CPU  3 inst:   19000005 cyc:   10572501 now IPC :1.52774: AVG IPC :1.77246: L2-Pf-HR :0.93849: L2-HR :0.88298: (Sim:0h8m9s) 
CPU  0 inst:   20000003 cyc:   11127898 now IPC :1.76653: AVG IPC :1.77397: L2-Pf-HR :0.95559: L2-HR :0.91526: (Sim:0h8m35s) 
CPU  1 inst:   20000003 cyc:   11133758 now IPC :1.75554: AVG IPC :1.77293: L2-Pf-HR :0.95792: L2-HR :0.91727: (Sim:0h8m35s) 
CPU  2 inst:   20000003 cyc:   11138514 now IPC :1.74801: AVG IPC :1.77215: L2-Pf-HR :0.94397: L2-HR :0.89469: (Sim:0h8m35s) 
CPU  3 inst:   20000003 cyc:   11139861 now IPC :1.76255: AVG IPC :1.77191: L2-Pf-HR :0.93918: L2-HR :0.88327: (Sim:0h8m35s) 
CPU  0 inst:   21000001 cyc:   11712505 now IPC :1.71055: AVG IPC :1.77052: L2-Pf-HR :0.95885: L2-HR :0.91710: (Sim:0h9m0s) 
CPU  1 inst:   21000001 cyc:   11722383 now IPC :1.69887: AVG IPC :1.76887: L2-Pf-HR :0.96079: L2-HR :0.91867: (Sim:0h9m1s) 
CPU  2 inst:   21000001 cyc:   11733337 now IPC :1.68117: AVG IPC :1.76712: L2-Pf-HR :0.94765: L2-HR :0.89637: (Sim:0h9m1s) 
CPU  3 inst:   21000001 cyc:   11733799 now IPC :1.68367: AVG IPC :1.76703: L2-Pf-HR :0.94319: L2-HR :0.88524: (Sim:0h9m1s) 
CPU  0 inst:   22000001 cyc:   12269497 now IPC :1.79536: AVG IPC :1.77175: L2-Pf-HR :0.95897: L2-HR :0.91696: (Sim:0h9m26s) 
CPU  1 inst:   22000001 cyc:   12269915 now IPC :1.82638: AVG IPC :1.77166: L2-Pf-HR :0.96079: L2-HR :0.91853: (Sim:0h9m26s) 
CPU  2 inst:   22000000 cyc:   12274007 now IPC :1.84956: AVG IPC :1.77106: L2-Pf-HR :0.94776: L2-HR :0.89648: (Sim:0h9m27s) 
CPU  3 inst:   22000000 cyc:   12278497 now IPC :1.83588: AVG IPC :1.77035: L2-Pf-HR :0.94301: L2-HR :0.88500: (Sim:0h9m27s) 
CPU  1 inst:   23000003 cyc:   13064708 now IPC :1.25819: AVG IPC :1.73789: L2-Pf-HR :0.96206: L2-HR :0.91873: (Sim:0h9m54s) 
CPU  2 inst:   23000003 cyc:   13067337 now IPC :1.26051: AVG IPC :1.73755: L2-Pf-HR :0.94956: L2-HR :0.89686: (Sim:0h9m54s) 
CPU  3 inst:   23000003 cyc:   13067838 now IPC :1.26688: AVG IPC :1.73747: L2-Pf-HR :0.94520: L2-HR :0.88595: (Sim:0h9m54s) 
CPU  0 inst:   23000003 cyc:   13068519 now IPC :1.25153: AVG IPC :1.73736: L2-Pf-HR :0.96021: L2-HR :0.91699: (Sim:0h9m54s) 
CPU  1 inst:   24000003 cyc:   13746596 now IPC :1.46652: AVG IPC :1.72339: L2-Pf-HR :0.96102: L2-HR :0.91831: (Sim:0h10m21s) 
CPU  0 inst:   24000003 cyc:   13750169 now IPC :1.46703: AVG IPC :1.72293: L2-Pf-HR :0.95906: L2-HR :0.91670: (Sim:0h10m22s) 
CPU  2 inst:   24000003 cyc:   13750970 now IPC :1.46277: AVG IPC :1.72284: L2-Pf-HR :0.94811: L2-HR :0.89607: (Sim:0h10m22s) 
CPU  3 inst:   24000003 cyc:   13782279 now IPC :1.39970: AVG IPC :1.71862: L2-Pf-HR :0.94438: L2-HR :0.88594: (Sim:0h10m23s) 
CPU  0 inst:   25000003 cyc:   14449451 now IPC :1.43004: AVG IPC :1.70772: L2-Pf-HR :0.95827: L2-HR :0.91652: (Sim:0h10m49s) 
CPU  1 inst:   25000003 cyc:   14457314 now IPC :1.40703: AVG IPC :1.70671: L2-Pf-HR :0.96019: L2-HR :0.91789: (Sim:0h10m50s) 
CPU  2 inst:   25000003 cyc:   14468888 now IPC :1.39292: AVG IPC :1.70528: L2-Pf-HR :0.94720: L2-HR :0.89563: (Sim:0h10m50s) 
CPU  3 inst:   25000003 cyc:   14472540 now IPC :1.44873: AVG IPC :1.70481: L2-Pf-HR :0.94405: L2-HR :0.88592: (Sim:0h10m50s) 
CPU  0 inst:   26000003 cyc:   15123505 now IPC :1.48356: AVG IPC :1.69703: L2-Pf-HR :0.95719: L2-HR :0.91614: (Sim:0h11m18s) 
CPU  1 inst:   26000003 cyc:   15144493 now IPC :1.45522: AVG IPC :1.69451: L2-Pf-HR :0.95908: L2-HR :0.91739: (Sim:0h11m18s) 
CPU  2 inst:   26000003 cyc:   15149560 now IPC :1.46914: AVG IPC :1.69393: L2-Pf-HR :0.94591: L2-HR :0.89492: (Sim:0h11m19s) 
CPU  3 inst:   26000003 cyc:   15169752 now IPC :1.43428: AVG IPC :1.69152: L2-Pf-HR :0.94293: L2-HR :0.88542: (Sim:0h11m19s) 
CPU  1 inst:   27000004 cyc:   15842954 now IPC :1.43172: AVG IPC :1.68216: L2-Pf-HR :0.95826: L2-HR :0.91674: (Sim:0h11m47s) 
CPU  0 inst:   27000004 cyc:   15855168 now IPC :1.36675: AVG IPC :1.68079: L2-Pf-HR :0.95630: L2-HR :0.91571: (Sim:0h11m47s) 
CPU  3 inst:   27000004 cyc:   15859027 now IPC :1.45080: AVG IPC :1.68036: L2-Pf-HR :0.94201: L2-HR :0.88456: (Sim:0h11m48s) 
CPU  2 inst:   27000004 cyc:   15861175 now IPC :1.40526: AVG IPC :1.68013: L2-Pf-HR :0.94505: L2-HR :0.89418: (Sim:0h11m48s) 
CPU  1 inst:   28000000 cyc:   16543472 now IPC :1.42751: AVG IPC :1.67069: L2-Pf-HR :0.95812: L2-HR :0.91680: (Sim:0h12m17s) 
CPU  0 inst:   28000001 cyc:   16545067 now IPC :1.44948: AVG IPC :1.67053: L2-Pf-HR :0.95611: L2-HR :0.91581: (Sim:0h12m17s) 
CPU  2 inst:   28000001 cyc:   16545238 now IPC :1.46185: AVG IPC :1.67053: L2-Pf-HR :0.94499: L2-HR :0.89428: (Sim:0h12m17s) 
CPU  3 inst:   28000000 cyc:   16551005 now IPC :1.44513: AVG IPC :1.66991: L2-Pf-HR :0.94174: L2-HR :0.88434: (Sim:0h12m17s) 
CPU  1 inst:   29000005 cyc:   17545873 now IPC :0.99761: AVG IPC :1.62996: L2-Pf-HR :0.95888: L2-HR :0.91684: (Sim:0h12m48s) 
CPU  0 inst:   29000005 cyc:   17550537 now IPC :0.99456: AVG IPC :1.62951: L2-Pf-HR :0.95669: L2-HR :0.91565: (Sim:0h12m48s) 
CPU  2 inst:   29000005 cyc:   17570582 now IPC :0.97529: AVG IPC :1.62756: L2-Pf-HR :0.94610: L2-HR :0.89453: (Sim:0h12m49s) 
CPU  3 inst:   29000000 cyc:   17577864 now IPC :0.97384: AVG IPC :1.62684: L2-Pf-HR :0.94248: L2-HR :0.88400: (Sim:0h12m49s) 
CPU  0 inst:   30000000 cyc:   18563066 now IPC :0.98762: AVG IPC :1.59255: L2-Pf-HR :0.95586: L2-HR :0.91514: (Sim:0h13m20s) 
CPU  3 inst:   30000004 cyc:   18563110 now IPC :1.01498: AVG IPC :1.59256: L2-Pf-HR :0.94096: L2-HR :0.88211: (Sim:0h13m20s) 
CPU  1 inst:   30000000 cyc:   18573854 now IPC :0.97278: AVG IPC :1.59156: L2-Pf-HR :0.95814: L2-HR :0.91634: (Sim:0h13m20s) 
CPU  2 inst:   30000000 cyc:   18588631 now IPC :0.98227: AVG IPC :1.59025: L2-Pf-HR :0.94523: L2-HR :0.89372: (Sim:0h13m20s) 
CPU  0 inst:   31000001 cyc:   19604940 now IPC :0.95981: AVG IPC :1.55715: L2-Pf-HR :0.95459: L2-HR :0.91422: (Sim:0h13m52s) 
CPU  1 inst:   31000001 cyc:   19606611 now IPC :0.96828: AVG IPC :1.55700: L2-Pf-HR :0.95726: L2-HR :0.91580: (Sim:0h13m52s) 
CPU  3 inst:   31000001 cyc:   19612598 now IPC :0.95284: AVG IPC :1.55652: L2-Pf-HR :0.93949: L2-HR :0.88071: (Sim:0h13m52s) 
CPU  2 inst:   31000001 cyc:   19613816 now IPC :0.97543: AVG IPC :1.55642: L2-Pf-HR :0.94405: L2-HR :0.89304: (Sim:0h13m52s) 
CPU  3 inst:   32000004 cyc:   20565537 now IPC :1.04939: AVG IPC :1.53184: L2-Pf-HR :0.93856: L2-HR :0.87926: (Sim:0h14m22s) 
CPU  0 inst:   32000004 cyc:   20565597 now IPC :1.04096: AVG IPC :1.53183: L2-Pf-HR :0.95386: L2-HR :0.91340: (Sim:0h14m22s) 
CPU  2 inst:   32000004 cyc:   20570369 now IPC :1.04542: AVG IPC :1.53147: L2-Pf-HR :0.94352: L2-HR :0.89235: (Sim:0h14m23s) 
CPU  1 inst:   32000004 cyc:   20575082 now IPC :1.03256: AVG IPC :1.53108: L2-Pf-HR :0.95679: L2-HR :0.91518: (Sim:0h14m23s) 
CPU  0 inst:   33000003 cyc:   21985025 now IPC :0.70451: AVG IPC :1.47592: L2-Pf-HR :0.95442: L2-HR :0.91293: (Sim:0h14m58s) 
CPU  2 inst:   33000000 cyc:   21985264 now IPC :0.70676: AVG IPC :1.47592: L2-Pf-HR :0.94461: L2-HR :0.89222: (Sim:0h14m58s) 
CPU  1 inst:   33000003 cyc:   21985449 now IPC :0.70903: AVG IPC :1.47588: L2-Pf-HR :0.95756: L2-HR :0.91488: (Sim:0h14m58s) 
CPU  3 inst:   33000003 cyc:   21985774 now IPC :0.70411: AVG IPC :1.47588: L2-Pf-HR :0.93941: L2-HR :0.87884: (Sim:0h14m58s) 
CPU  0 inst:   34000000 cyc:   23201527 now IPC :0.82203: AVG IPC :1.44012: L2-Pf-HR :0.95550: L2-HR :0.91252: (Sim:0h15m32s) 
CPU  1 inst:   34000000 cyc:   23220056 now IPC :0.80997: AVG IPC :1.43891: L2-Pf-HR :0.95851: L2-HR :0.91439: (Sim:0h15m32s) 
CPU  2 inst:   34000000 cyc:   23236504 now IPC :0.79921: AVG IPC :1.43787: L2-Pf-HR :0.94545: L2-HR :0.89114: (Sim:0h15m33s) 
CPU  3 inst:   34000005 cyc:   23239795 now IPC :0.79744: AVG IPC :1.43765: L2-Pf-HR :0.94065: L2-HR :0.87851: (Sim:0h15m33s) 
CPU  0 inst:   35000005 cyc:   24514861 now IPC :0.76142: AVG IPC :1.40224: L2-Pf-HR :0.95655: L2-HR :0.91235: (Sim:0h16m8s) 
CPU  1 inst:   35000005 cyc:   24522653 now IPC :0.76770: AVG IPC :1.40177: L2-Pf-HR :0.95932: L2-HR :0.91396: (Sim:0h16m8s) 
CPU  2 inst:   35000005 cyc:   24526021 now IPC :0.77549: AVG IPC :1.40159: L2-Pf-HR :0.94647: L2-HR :0.89064: (Sim:0h16m8s) 
CPU  3 inst:   35000005 cyc:   24537363 now IPC :0.77067: AVG IPC :1.40091: L2-Pf-HR :0.94196: L2-HR :0.87847: (Sim:0h16m8s) 
CPU  0 inst:   36000002 cyc:   25882623 now IPC :0.73112: AVG IPC :1.36538: L2-Pf-HR :0.95732: L2-HR :0.91185: (Sim:0h16m44s) 
CPU  1 inst:   36000002 cyc:   25895323 now IPC :0.72851: AVG IPC :1.36468: L2-Pf-HR :0.95991: L2-HR :0.91329: (Sim:0h16m44s) 
CPU  2 inst:   36000002 cyc:   25915655 now IPC :0.71961: AVG IPC :1.36358: L2-Pf-HR :0.94714: L2-HR :0.88983: (Sim:0h16m45s) 
CPU  3 inst:   36000002 cyc:   25918524 now IPC :0.72403: AVG IPC :1.36342: L2-Pf-HR :0.94271: L2-HR :0.87774: (Sim:0h16m45s) 
CPU  0 inst:   37000004 cyc:   27236828 now IPC :0.73844: AVG IPC :1.33304: L2-Pf-HR :0.95809: L2-HR :0.91145: (Sim:0h17m21s) 
CPU  1 inst:   37000004 cyc:   27248977 now IPC :0.73874: AVG IPC :1.33242: L2-Pf-HR :0.96049: L2-HR :0.91273: (Sim:0h17m21s) 
CPU  2 inst:   37000000 cyc:   27251279 now IPC :0.74871: AVG IPC :1.33232: L2-Pf-HR :0.94796: L2-HR :0.88931: (Sim:0h17m21s) 
CPU  3 inst:   37000000 cyc:   27275165 now IPC :0.73711: AVG IPC :1.33111: L2-Pf-HR :0.94334: L2-HR :0.87696: (Sim:0h17m22s) 
CPU  0 inst:   38000005 cyc:   28572937 now IPC :0.74844: AVG IPC :1.30474: L2-Pf-HR :0.95869: L2-HR :0.91140: (Sim:0h17m56s) 
CPU  3 inst:   38000004 cyc:   28582726 now IPC :0.76479: AVG IPC :1.30428: L2-Pf-HR :0.94381: L2-HR :0.87662: (Sim:0h17m57s) 
CPU  2 inst:   38000005 cyc:   28582737 now IPC :0.75106: AVG IPC :1.30428: L2-Pf-HR :0.94863: L2-HR :0.88929: (Sim:0h17m57s) 
CPU  1 inst:   38000005 cyc:   28584242 now IPC :0.74892: AVG IPC :1.30419: L2-Pf-HR :0.96121: L2-HR :0.91264: (Sim:0h17m57s) 
CPU  0 inst:   39000003 cyc:   30089387 now IPC :0.65943: AVG IPC :1.27112: L2-Pf-HR :0.95984: L2-HR :0.91175: (Sim:0h18m34s) 
CPU  2 inst:   39000004 cyc:   30091584 now IPC :0.66276: AVG IPC :1.27103: L2-Pf-HR :0.95018: L2-HR :0.88990: (Sim:0h18m34s) 
CPU  3 inst:   39000004 cyc:   30093195 now IPC :0.66205: AVG IPC :1.27096: L2-Pf-HR :0.94573: L2-HR :0.87755: (Sim:0h18m34s) 
CPU  1 inst:   39000003 cyc:   30097231 now IPC :0.66094: AVG IPC :1.27077: L2-Pf-HR :0.96225: L2-HR :0.91296: (Sim:0h18m34s) 
CPU  1 inst:   40000001 cyc:   31280801 now IPC :0.84490: AVG IPC :1.25413: L2-Pf-HR :0.96205: L2-HR :0.91270: (Sim:0h19m8s) 
CPU  0 inst:   40000001 cyc:   31288931 now IPC :0.83365: AVG IPC :1.25380: L2-Pf-HR :0.95964: L2-HR :0.91156: (Sim:0h19m9s) 
CPU  2 inst:   40000000 cyc:   31299852 now IPC :0.82763: AVG IPC :1.25336: L2-Pf-HR :0.94979: L2-HR :0.88943: (Sim:0h19m9s) 
CPU  3 inst:   40000000 cyc:   31314839 now IPC :0.81857: AVG IPC :1.25274: L2-Pf-HR :0.94555: L2-HR :0.87756: (Sim:0h19m9s) 
CPU  0 inst:   41000001 cyc:   32385149 now IPC :0.91223: AVG IPC :1.24188: L2-Pf-HR :0.95940: L2-HR :0.91160: (Sim:0h19m42s) 
CPU  1 inst:   41000001 cyc:   32391654 now IPC :0.90021: AVG IPC :1.24162: L2-Pf-HR :0.96172: L2-HR :0.91261: (Sim:0h19m42s) 
CPU  2 inst:   41000001 cyc:   32426588 now IPC :0.88752: AVG IPC :1.24025: L2-Pf-HR :0.94952: L2-HR :0.88928: (Sim:0h19m43s) 
CPU  3 inst:   41000001 cyc:   32435572 now IPC :0.89227: AVG IPC :1.23989: L2-Pf-HR :0.94551: L2-HR :0.87785: (Sim:0h19m43s) 
CPU  1 inst:   42000001 cyc:   33639424 now IPC :0.80143: AVG IPC :1.22480: L2-Pf-HR :0.96116: L2-HR :0.91222: (Sim:0h20m16s) 
CPU  0 inst:   42000001 cyc:   33645214 now IPC :0.79361: AVG IPC :1.22459: L2-Pf-HR :0.95867: L2-HR :0.91129: (Sim:0h20m17s) 
CPU  3 inst:   42000001 cyc:   33650493 now IPC :0.82310: AVG IPC :1.22439: L2-Pf-HR :0.94491: L2-HR :0.87758: (Sim:0h20m17s) 
CPU  2 inst:   42000001 cyc:   33674705 now IPC :0.80121: AVG IPC :1.22349: L2-Pf-HR :0.94882: L2-HR :0.88889: (Sim:0h20m17s) 
CPU  0 inst:   43000005 cyc:   34865157 now IPC :0.81971: AVG IPC :1.21001: L2-Pf-HR :0.95791: L2-HR :0.91116: (Sim:0h20m50s) 
CPU  2 inst:   43000005 cyc:   34901526 now IPC :0.81512: AVG IPC :1.20872: L2-Pf-HR :0.94794: L2-HR :0.88855: (Sim:0h20m51s) 
CPU  1 inst:   43000005 cyc:   34921323 now IPC :0.78010: AVG IPC :1.20800: L2-Pf-HR :0.96051: L2-HR :0.91192: (Sim:0h20m52s) 
CPU  3 inst:   43000005 cyc:   34923127 now IPC :0.78578: AVG IPC :1.20795: L2-Pf-HR :0.94406: L2-HR :0.87718: (Sim:0h20m52s) 
CPU  3 inst:   44000000 cyc:   36155187 now IPC :0.81164: AVG IPC :1.19407: L2-Pf-HR :0.94365: L2-HR :0.87663: (Sim:0h21m25s) 
CPU  2 inst:   44000000 cyc:   36160623 now IPC :0.79422: AVG IPC :1.19388: L2-Pf-HR :0.94750: L2-HR :0.88816: (Sim:0h21m25s) 
CPU  0 inst:   44000000 cyc:   36166086 now IPC :0.76868: AVG IPC :1.19369: L2-Pf-HR :0.95751: L2-HR :0.91089: (Sim:0h21m26s) 
CPU  1 inst:   44000000 cyc:   36166487 now IPC :0.80310: AVG IPC :1.19367: L2-Pf-HR :0.96013: L2-HR :0.91159: (Sim:0h21m26s) 
CPU  1 inst:   45000003 cyc:   37583086 now IPC :0.70592: AVG IPC :1.17480: L2-Pf-HR :0.96067: L2-HR :0.91173: (Sim:0h22m1s) 
CPU  0 inst:   45000003 cyc:   37612546 now IPC :0.69135: AVG IPC :1.17386: L2-Pf-HR :0.95795: L2-HR :0.91086: (Sim:0h22m2s) 
CPU  2 inst:   45000003 cyc:   37621205 now IPC :0.68466: AVG IPC :1.17359: L2-Pf-HR :0.94820: L2-HR :0.88846: (Sim:0h22m2s) 
CPU  3 inst:   45000003 cyc:   37628527 now IPC :0.67873: AVG IPC :1.17335: L2-Pf-HR :0.94422: L2-HR :0.87657: (Sim:0h22m2s) 
CPU  0 inst:   46000000 cyc:   38855068 now IPC :0.80481: AVG IPC :1.16175: L2-Pf-HR :0.95740: L2-HR :0.91071: (Sim:0h22m36s) 
CPU  1 inst:   46000000 cyc:   38870545 now IPC :0.77672: AVG IPC :1.16127: L2-Pf-HR :0.96014: L2-HR :0.91159: (Sim:0h22m37s) 
CPU  2 inst:   46000000 cyc:   38875499 now IPC :0.79726: AVG IPC :1.16113: L2-Pf-HR :0.94751: L2-HR :0.88816: (Sim:0h22m37s) 
CPU  3 inst:   46000000 cyc:   38897326 now IPC :0.78814: AVG IPC :1.16046: L2-Pf-HR :0.94303: L2-HR :0.87550: (Sim:0h22m37s) 
CPU  1 inst:   47000000 cyc:   40122991 now IPC :0.79844: AVG IPC :1.14966: L2-Pf-HR :0.95962: L2-HR :0.91131: (Sim:0h23m12s) 
CPU  0 inst:   47000000 cyc:   40129905 now IPC :0.78441: AVG IPC :1.14946: L2-Pf-HR :0.95667: L2-HR :0.91016: (Sim:0h23m12s) 
CPU  3 inst:   47000000 cyc:   40135085 now IPC :0.80791: AVG IPC :1.14931: L2-Pf-HR :0.94214: L2-HR :0.87453: (Sim:0h23m12s) 
CPU  2 inst:   47000000 cyc:   40155404 now IPC :0.78131: AVG IPC :1.14872: L2-Pf-HR :0.94692: L2-HR :0.88780: (Sim:0h23m13s) 
CPU  0 inst:   48000002 cyc:   41344645 now IPC :0.82322: AVG IPC :1.13964: L2-Pf-HR :0.95617: L2-HR :0.90975: (Sim:0h23m46s) 
CPU  1 inst:   48000002 cyc:   41357108 now IPC :0.81030: AVG IPC :1.13929: L2-Pf-HR :0.95928: L2-HR :0.91106: (Sim:0h23m47s) 
CPU  2 inst:   48000002 cyc:   41358100 now IPC :0.83147: AVG IPC :1.13927: L2-Pf-HR :0.94653: L2-HR :0.88749: (Sim:0h23m47s) 
CPU  3 inst:   48000001 cyc:   41358986 now IPC :0.81706: AVG IPC :1.13924: L2-Pf-HR :0.94133: L2-HR :0.87374: (Sim:0h23m47s) 
CPU  3 inst:   49000003 cyc:   42960531 now IPC :0.62440: AVG IPC :1.11960: L2-Pf-HR :0.94187: L2-HR :0.87339: (Sim:0h24m24s) 
CPU  2 inst:   49000003 cyc:   42978575 now IPC :0.61710: AVG IPC :1.11912: L2-Pf-HR :0.94710: L2-HR :0.88747: (Sim:0h24m25s) 
CPU  0 inst:   49000003 cyc:   42980035 now IPC :0.61148: AVG IPC :1.11908: L2-Pf-HR :0.95648: L2-HR :0.90935: (Sim:0h24m25s) 
CPU  1 inst:   49000003 cyc:   42980075 now IPC :0.61616: AVG IPC :1.11907: L2-Pf-HR :0.95960: L2-HR :0.91089: (Sim:0h24m25s) 
CPU  1 inst:   50000004 cyc:   44269202 now IPC :0.77572: AVG IPC :1.10885: L2-Pf-HR :0.95923: L2-HR :0.91056: (Sim:0h25m1s) 
CPU  0 inst:   50000004 cyc:   44277694 now IPC :0.77062: AVG IPC :1.10863: L2-Pf-HR :0.95604: L2-HR :0.90908: (Sim:0h25m1s) 
CPU  2 inst:   50000004 cyc:   44279196 now IPC :0.76886: AVG IPC :1.10860: L2-Pf-HR :0.94652: L2-HR :0.88689: (Sim:0h25m1s) 
CPU  3 inst:   50000004 cyc:   44320100 now IPC :0.73553: AVG IPC :1.10755: L2-Pf-HR :0.94153: L2-HR :0.87318: (Sim:0h25m2s) 
CPU  1 inst:   51000001 cyc:   45724163 now IPC :0.68730: AVG IPC :1.09514: L2-Pf-HR :0.95901: L2-HR :0.91026: (Sim:0h25m39s) 
CPU  0 inst:   51000001 cyc:   45731786 now IPC :0.68771: AVG IPC :1.09496: L2-Pf-HR :0.95596: L2-HR :0.90897: (Sim:0h25m39s) 
CPU  2 inst:   51000001 cyc:   45736427 now IPC :0.68623: AVG IPC :1.09485: L2-Pf-HR :0.94643: L2-HR :0.88653: (Sim:0h25m39s) 
CPU  3 inst:   51000001 cyc:   45741523 now IPC :0.70352: AVG IPC :1.09472: L2-Pf-HR :0.94146: L2-HR :0.87322: (Sim:0h25m39s) 
CPU  0 inst:   52000003 cyc:   46915860 now IPC :0.84454: AVG IPC :1.08850: L2-Pf-HR :0.95583: L2-HR :0.90878: (Sim:0h26m12s) 
CPU  1 inst:   52000003 cyc:   46962220 now IPC :0.80772: AVG IPC :1.08740: L2-Pf-HR :0.95896: L2-HR :0.91007: (Sim:0h26m13s) 
CPU  3 inst:   52000000 cyc:   46979423 now IPC :0.80782: AVG IPC :1.08700: L2-Pf-HR :0.94152: L2-HR :0.87329: (Sim:0h26m14s) 
CPU  2 inst:   52000000 cyc:   46982367 now IPC :0.80261: AVG IPC :1.08693: L2-Pf-HR :0.94638: L2-HR :0.88634: (Sim:0h26m14s) 
CPU  0 inst:   53000000 cyc:   48330818 now IPC :0.70673: AVG IPC :1.07709: L2-Pf-HR :0.95612: L2-HR :0.90857: (Sim:0h26m49s) 
CPU  1 inst:   53000005 cyc:   48353638 now IPC :0.71869: AVG IPC :1.07657: L2-Pf-HR :0.95911: L2-HR :0.90967: (Sim:0h26m50s) 
CPU  2 inst:   53000005 cyc:   48366940 now IPC :0.72225: AVG IPC :1.07628: L2-Pf-HR :0.94653: L2-HR :0.88585: (Sim:0h26m51s) 
CPU  3 inst:   53000000 cyc:   48388759 now IPC :0.70955: AVG IPC :1.07578: L2-Pf-HR :0.94177: L2-HR :0.87280: (Sim:0h26m51s) 
CPU  0 inst:   54000002 cyc:   49635015 now IPC :0.76676: AVG IPC :1.06877: L2-Pf-HR :0.95620: L2-HR :0.90823: (Sim:0h27m24s) 
CPU  1 inst:   54000002 cyc:   49655168 now IPC :0.76832: AVG IPC :1.06833: L2-Pf-HR :0.95910: L2-HR :0.90932: (Sim:0h27m25s) 
CPU  2 inst:   54000002 cyc:   49685290 now IPC :0.75852: AVG IPC :1.06768: L2-Pf-HR :0.94654: L2-HR :0.88547: (Sim:0h27m26s) 
CPU  3 inst:   54000002 cyc:   49705779 now IPC :0.75929: AVG IPC :1.06722: L2-Pf-HR :0.94177: L2-HR :0.87224: (Sim:0h27m26s) 
CPU  1 inst:   55000005 cyc:   51345201 now IPC :0.59171: AVG IPC :1.05233: L2-Pf-HR :0.95984: L2-HR :0.90937: (Sim:0h28m3s) 
CPU  3 inst:   55000001 cyc:   51347687 now IPC :0.60905: AVG IPC :1.05229: L2-Pf-HR :0.94304: L2-HR :0.87283: (Sim:0h28m3s) 
CPU  0 inst:   55000001 cyc:   51347771 now IPC :0.58385: AVG IPC :1.05228: L2-Pf-HR :0.95705: L2-HR :0.90834: (Sim:0h28m3s) 
CPU  2 inst:   55000001 cyc:   51352330 now IPC :0.59987: AVG IPC :1.05219: L2-Pf-HR :0.94762: L2-HR :0.88571: (Sim:0h28m4s) 
CPU  0 inst:   56000001 cyc:   52443836 now IPC :0.91235: AVG IPC :1.04930: L2-Pf-HR :0.95695: L2-HR :0.90820: (Sim:0h28m35s) 
CPU  2 inst:   56000001 cyc:   52461486 now IPC :0.90159: AVG IPC :1.04895: L2-Pf-HR :0.94741: L2-HR :0.88540: (Sim:0h28m36s) 
CPU  3 inst:   56000005 cyc:   52479582 now IPC :0.88348: AVG IPC :1.04858: L2-Pf-HR :0.94297: L2-HR :0.87274: (Sim:0h28m37s) 
CPU  1 inst:   56000005 cyc:   52482647 now IPC :0.87916: AVG IPC :1.04851: L2-Pf-HR :0.95977: L2-HR :0.90917: (Sim:0h28m37s) 
CPU  1 inst:   57000003 cyc:   53753689 now IPC :0.78675: AVG IPC :1.04220: L2-Pf-HR :0.95936: L2-HR :0.90900: (Sim:0h29m10s) 
CPU  0 inst:   57000004 cyc:   53761456 now IPC :0.75895: AVG IPC :1.04205: L2-Pf-HR :0.95651: L2-HR :0.90810: (Sim:0h29m10s) 
CPU  2 inst:   57000001 cyc:   53775074 now IPC :0.76127: AVG IPC :1.04179: L2-Pf-HR :0.94679: L2-HR :0.88511: (Sim:0h29m10s) 
CPU  3 inst:   57000003 cyc:   53802040 now IPC :0.75617: AVG IPC :1.04126: L2-Pf-HR :0.94267: L2-HR :0.87277: (Sim:0h29m11s) 
CPU  0 inst:   58000005 cyc:   55020760 now IPC :0.79409: AVG IPC :1.03628: L2-Pf-HR :0.95629: L2-HR :0.90800: (Sim:0h29m43s) 
CPU  1 inst:   58000005 cyc:   55027959 now IPC :0.78476: AVG IPC :1.03613: L2-Pf-HR :0.95913: L2-HR :0.90885: (Sim:0h29m44s) 
CPU  3 inst:   58000005 cyc:   55047485 now IPC :0.80293: AVG IPC :1.03577: L2-Pf-HR :0.94256: L2-HR :0.87277: (Sim:0h29m44s) 
CPU  2 inst:   58000005 cyc:   55051978 now IPC :0.78315: AVG IPC :1.03568: L2-Pf-HR :0.94660: L2-HR :0.88501: (Sim:0h29m44s) 
CPU  3 inst:   59000002 cyc:   56359093 now IPC :0.76242: AVG IPC :1.02929: L2-Pf-HR :0.94211: L2-HR :0.87234: (Sim:0h30m19s) 
CPU  2 inst:   59000002 cyc:   56360334 now IPC :0.76432: AVG IPC :1.02927: L2-Pf-HR :0.94615: L2-HR :0.88460: (Sim:0h30m19s) 
CPU  0 inst:   59000002 cyc:   56362740 now IPC :0.74517: AVG IPC :1.02922: L2-Pf-HR :0.95592: L2-HR :0.90776: (Sim:0h30m19s) 
CPU  1 inst:   59000002 cyc:   56371603 now IPC :0.74424: AVG IPC :1.02905: L2-Pf-HR :0.95880: L2-HR :0.90852: (Sim:0h30m19s) 
CPU  1 inst:   60000003 cyc:   57621327 now IPC :0.80018: AVG IPC :1.02400: L2-Pf-HR :0.95840: L2-HR :0.90830: (Sim:0h30m52s) 
CPU  2 inst:   60000003 cyc:   57630714 now IPC :0.78717: AVG IPC :1.02384: L2-Pf-HR :0.94569: L2-HR :0.88439: (Sim:0h30m53s) 
CPU  0 inst:   60000003 cyc:   57647113 now IPC :0.77859: AVG IPC :1.02354: L2-Pf-HR :0.95543: L2-HR :0.90758: (Sim:0h30m53s) 
CPU  3 inst:   60000003 cyc:   57649842 now IPC :0.77474: AVG IPC :1.02350: L2-Pf-HR :0.94151: L2-HR :0.87202: (Sim:0h30m53s) 
CPU  1 inst:   61000002 cyc:   59058426 now IPC :0.69585: AVG IPC :1.01588: L2-Pf-HR :0.95882: L2-HR :0.90849: (Sim:0h31m36s) 
CPU  3 inst:   61000002 cyc:   59065397 now IPC :0.70644: AVG IPC :1.01577: L2-Pf-HR :0.94202: L2-HR :0.87214: (Sim:0h31m37s) 
CPU  0 inst:   61000003 cyc:   59072616 now IPC :0.70151: AVG IPC :1.01564: L2-Pf-HR :0.95576: L2-HR :0.90769: (Sim:0h31m38s) 
CPU  2 inst:   61000002 cyc:   59089681 now IPC :0.68542: AVG IPC :1.01534: L2-Pf-HR :0.94626: L2-HR :0.88468: (Sim:0h31m39s) 
CPU  0 inst:   62000005 cyc:   60358273 now IPC :0.77781: AVG IPC :1.01049: L2-Pf-HR :0.95527: L2-HR :0.90743: (Sim:0h32m39s) 
CPU  3 inst:   62000002 cyc:   60361839 now IPC :0.77134: AVG IPC :1.01043: L2-Pf-HR :0.94121: L2-HR :0.87131: (Sim:0h32m39s) 
CPU  2 inst:   62000005 cyc:   60372476 now IPC :0.77955: AVG IPC :1.01025: L2-Pf-HR :0.94560: L2-HR :0.88438: (Sim:0h32m40s) 
CPU  1 inst:   62000005 cyc:   60373204 now IPC :0.76059: AVG IPC :1.01023: L2-Pf-HR :0.95840: L2-HR :0.90828: (Sim:0h32m40s) 
CPU  0 inst:   63000005 cyc:   61796989 now IPC :0.69506: AVG IPC :1.00303: L2-Pf-HR :0.95486: L2-HR :0.90712: (Sim:0h33m40s) 
CPU  2 inst:   63000005 cyc:   61827634 now IPC :0.68721: AVG IPC :1.00253: L2-Pf-HR :0.94525: L2-HR :0.88421: (Sim:0h33m43s) 
CPU  3 inst:   63000005 cyc:   61836668 now IPC :0.67805: AVG IPC :1.00238: L2-Pf-HR :0.94050: L2-HR :0.87059: (Sim:0h33m43s) 
CPU  1 inst:   63000005 cyc:   61839346 now IPC :0.68206: AVG IPC :1.00233: L2-Pf-HR :0.95809: L2-HR :0.90814: (Sim:0h33m44s) 
CPU  0 inst:   64000002 cyc:   62940111 now IPC :0.87479: AVG IPC :1.00066: L2-Pf-HR :0.95441: L2-HR :0.90684: (Sim:0h34m38s) 
CPU  1 inst:   64000005 cyc:   62977928 now IPC :0.87829: AVG IPC :1.00005: L2-Pf-HR :0.95773: L2-HR :0.90798: (Sim:0h34m40s) 
CPU  3 inst:   64000002 cyc:   62989242 now IPC :0.86762: AVG IPC :0.99987: L2-Pf-HR :0.93985: L2-HR :0.87015: (Sim:0h34m41s) 
CPU  2 inst:   64000002 cyc:   62994505 now IPC :0.85699: AVG IPC :0.99979: L2-Pf-HR :0.94477: L2-HR :0.88402: (Sim:0h34m41s) 
CPU  3 inst:   65000000 cyc:   64640166 now IPC :0.60572: AVG IPC :0.98965: L2-Pf-HR :0.94011: L2-HR :0.86972: (Sim:0h35m48s) 
CPU  1 inst:   65000000 cyc:   64645093 now IPC :0.59982: AVG IPC :0.98957: L2-Pf-HR :0.95800: L2-HR :0.90784: (Sim:0h35m49s) 
CPU  2 inst:   65000000 cyc:   64646470 now IPC :0.60534: AVG IPC :0.98955: L2-Pf-HR :0.94528: L2-HR :0.88403: (Sim:0h35m49s) 
CPU  0 inst:   65000000 cyc:   64647058 now IPC :0.58584: AVG IPC :0.98954: L2-Pf-HR :0.95459: L2-HR :0.90652: (Sim:0h35m49s) 
CPU  0 inst:   66000001 cyc:   66009086 now IPC :0.73420: AVG IPC :0.98419: L2-Pf-HR :0.95475: L2-HR :0.90646: (Sim:0h36m49s) 
CPU  1 inst:   66000001 cyc:   66104647 now IPC :0.68514: AVG IPC :0.98274: L2-Pf-HR :0.95812: L2-HR :0.90775: (Sim:0h36m52s) 
CPU  2 inst:   66000001 cyc:   66148991 now IPC :0.66555: AVG IPC :0.98208: L2-Pf-HR :0.94537: L2-HR :0.88383: (Sim:0h36m54s) 
CPU  3 inst:   66000001 cyc:   66165822 now IPC :0.65546: AVG IPC :0.98183: L2-Pf-HR :0.94040: L2-HR :0.86985: (Sim:0h36m54s) 
CPU  0 inst:   67000005 cyc:   67480654 now IPC :0.67955: AVG IPC :0.97745: L2-Pf-HR :0.95488: L2-HR :0.90655: (Sim:0h37m55s) 
CPU  1 inst:   67000005 cyc:   67485695 now IPC :0.72409: AVG IPC :0.97737: L2-Pf-HR :0.95815: L2-HR :0.90772: (Sim:0h37m56s) 
CPU  2 inst:   67000005 cyc:   67493917 now IPC :0.74354: AVG IPC :0.97726: L2-Pf-HR :0.94539: L2-HR :0.88364: (Sim:0h37m56s) 
CPU  3 inst:   67000005 cyc:   67529288 now IPC :0.73343: AVG IPC :0.97674: L2-Pf-HR :0.94080: L2-HR :0.87015: (Sim:0h37m58s) 
CPU  0 inst:   68000000 cyc:   68805423 now IPC :0.75484: AVG IPC :0.97310: L2-Pf-HR :0.95478: L2-HR :0.90649: (Sim:0h38m57s) 
CPU  1 inst:   68000000 cyc:   68815305 now IPC :0.75210: AVG IPC :0.97296: L2-Pf-HR :0.95801: L2-HR :0.90753: (Sim:0h38m58s) 
CPU  2 inst:   68000000 cyc:   68821139 now IPC :0.75345: AVG IPC :0.97288: L2-Pf-HR :0.94523: L2-HR :0.88353: (Sim:0h38m58s) 
CPU  3 inst:   68000003 cyc:   68860709 now IPC :0.75108: AVG IPC :0.97231: L2-Pf-HR :0.94074: L2-HR :0.87021: (Sim:0h39m1s) 
CPU  0 inst:   69000000 cyc:   70128205 now IPC :0.75598: AVG IPC :0.96895: L2-Pf-HR :0.95461: L2-HR :0.90635: (Sim:0h40m2s) 
CPU  1 inst:   69000000 cyc:   70140416 now IPC :0.75465: AVG IPC :0.96877: L2-Pf-HR :0.95793: L2-HR :0.90730: (Sim:0h40m2s) 
CPU  2 inst:   69000000 cyc:   70221487 now IPC :0.71411: AVG IPC :0.96765: L2-Pf-HR :0.94513: L2-HR :0.88329: (Sim:0h40m6s) 
CPU  3 inst:   69000000 cyc:   70247606 now IPC :0.72103: AVG IPC :0.96728: L2-Pf-HR :0.94055: L2-HR :0.86999: (Sim:0h40m7s) 
CPU  1 inst:   70000002 cyc:   71574978 now IPC :0.69708: AVG IPC :0.96325: L2-Pf-HR :0.95782: L2-HR :0.90693: (Sim:0h41m8s) 
CPU  0 inst:   70000002 cyc:   71577446 now IPC :0.69002: AVG IPC :0.96322: L2-Pf-HR :0.95454: L2-HR :0.90606: (Sim:0h41m8s) 
CPU  2 inst:   70000002 cyc:   71633185 now IPC :0.70837: AVG IPC :0.96247: L2-Pf-HR :0.94493: L2-HR :0.88288: (Sim:0h41m11s) 
CPU  3 inst:   70000002 cyc:   71694728 now IPC :0.69103: AVG IPC :0.96163: L2-Pf-HR :0.94018: L2-HR :0.86948: (Sim:0h41m13s) 
CPU  0 inst:   71000003 cyc:   73403337 now IPC :0.54768: AVG IPC :0.95275: L2-Pf-HR :0.95502: L2-HR :0.90612: (Sim:0h42m20s) 
CPU  2 inst:   71000003 cyc:   73423384 now IPC :0.55860: AVG IPC :0.95249: L2-Pf-HR :0.94567: L2-HR :0.88301: (Sim:0h42m21s) 
CPU  1 inst:   71000003 cyc:   73426836 now IPC :0.54000: AVG IPC :0.95243: L2-Pf-HR :0.95826: L2-HR :0.90697: (Sim:0h42m21s) 
CPU  3 inst:   71000003 cyc:   73433880 now IPC :0.57499: AVG IPC :0.95235: L2-Pf-HR :0.94126: L2-HR :0.87003: (Sim:0h42m21s) 
CPU  0 inst:   72000004 cyc:   74627260 now IPC :0.81705: AVG IPC :0.95049: L2-Pf-HR :0.95480: L2-HR :0.90613: (Sim:0h43m20s) 
CPU  1 inst:   72000004 cyc:   74627517 now IPC :0.83286: AVG IPC :0.95048: L2-Pf-HR :0.95802: L2-HR :0.90700: (Sim:0h43m20s) 
CPU  2 inst:   72000004 cyc:   74659811 now IPC :0.80878: AVG IPC :0.95007: L2-Pf-HR :0.94543: L2-HR :0.88302: (Sim:0h43m21s) 
CPU  3 inst:   72000004 cyc:   74684079 now IPC :0.79987: AVG IPC :0.94976: L2-Pf-HR :0.94106: L2-HR :0.87017: (Sim:0h43m22s) 
CPU  1 inst:   73000005 cyc:   76077538 now IPC :0.68965: AVG IPC :0.94545: L2-Pf-HR :0.95773: L2-HR :0.90707: (Sim:0h44m21s) 
CPU  0 inst:   73000005 cyc:   76078875 now IPC :0.68889: AVG IPC :0.94543: L2-Pf-HR :0.95457: L2-HR :0.90625: (Sim:0h44m22s) 
CPU  2 inst:   73000000 cyc:   76130381 now IPC :0.68001: AVG IPC :0.94479: L2-Pf-HR :0.94503: L2-HR :0.88295: (Sim:0h44m24s) 
CPU  3 inst:   73000003 cyc:   76140581 now IPC :0.68658: AVG IPC :0.94466: L2-Pf-HR :0.94089: L2-HR :0.87058: (Sim:0h44m24s) 
CPU  0 inst:   74000005 cyc:   77276897 now IPC :0.83471: AVG IPC :0.94369: L2-Pf-HR :0.95451: L2-HR :0.90618: (Sim:0h45m20s) 
CPU  1 inst:   74000005 cyc:   77277780 now IPC :0.83317: AVG IPC :0.94368: L2-Pf-HR :0.95760: L2-HR :0.90693: (Sim:0h45m20s) 
CPU  2 inst:   74000005 cyc:   77280657 now IPC :0.86936: AVG IPC :0.94365: L2-Pf-HR :0.94498: L2-HR :0.88291: (Sim:0h45m20s) 
CPU  3 inst:   74000005 cyc:   77287368 now IPC :0.87200: AVG IPC :0.94357: L2-Pf-HR :0.94087: L2-HR :0.87057: (Sim:0h45m21s) 
CPU  0 inst:   75000001 cyc:   78640639 now IPC :0.73327: AVG IPC :0.94000: L2-Pf-HR :0.95412: L2-HR :0.90616: (Sim:0h46m22s) 
CPU  1 inst:   75000001 cyc:   78643241 now IPC :0.73235: AVG IPC :0.93997: L2-Pf-HR :0.95724: L2-HR :0.90679: (Sim:0h46m22s) 
CPU  2 inst:   75000001 cyc:   78645254 now IPC :0.73281: AVG IPC :0.93995: L2-Pf-HR :0.94448: L2-HR :0.88271: (Sim:0h46m23s) 
CPU  3 inst:   75000001 cyc:   78651804 now IPC :0.73290: AVG IPC :0.93987: L2-Pf-HR :0.94041: L2-HR :0.87040: (Sim:0h46m23s) 
CPU  2 inst:   76000005 cyc:   79954848 now IPC :0.76360: AVG IPC :0.93702: L2-Pf-HR :0.94424: L2-HR :0.88253: (Sim:0h47m23s) 
CPU  0 inst:   76000005 cyc:   79977060 now IPC :0.74827: AVG IPC :0.93676: L2-Pf-HR :0.95393: L2-HR :0.90601: (Sim:0h47m24s) 
CPU  1 inst:   76000005 cyc:   79992678 now IPC :0.74105: AVG IPC :0.93657: L2-Pf-HR :0.95709: L2-HR :0.90661: (Sim:0h47m25s) 
CPU  3 inst:   76000005 cyc:   80002732 now IPC :0.74023: AVG IPC :0.93645: L2-Pf-HR :0.94017: L2-HR :0.87012: (Sim:0h47m25s) 
CPU  1 inst:   77000001 cyc:   81542812 now IPC :0.64510: AVG IPC :0.93096: L2-Pf-HR :0.95730: L2-HR :0.90673: (Sim:0h48m30s) 
CPU  3 inst:   77000001 cyc:   81546802 now IPC :0.64764: AVG IPC :0.93092: L2-Pf-HR :0.94045: L2-HR :0.87021: (Sim:0h48m30s) 
CPU  0 inst:   77000001 cyc:   81547859 now IPC :0.63662: AVG IPC :0.93090: L2-Pf-HR :0.95413: L2-HR :0.90612: (Sim:0h48m30s) 
CPU  2 inst:   77000001 cyc:   81549925 now IPC :0.62693: AVG IPC :0.93088: L2-Pf-HR :0.94457: L2-HR :0.88279: (Sim:0h48m30s) 
CPU  0 inst:   78000004 cyc:   82669224 now IPC :0.89177: AVG IPC :0.93037: L2-Pf-HR :0.95381: L2-HR :0.90593: (Sim:0h49m27s) 
CPU  2 inst:   78000005 cyc:   82680144 now IPC :0.88479: AVG IPC :0.93025: L2-Pf-HR :0.94429: L2-HR :0.88258: (Sim:0h49m28s) 
CPU  1 inst:   78000003 cyc:   82702033 now IPC :0.86265: AVG IPC :0.92999: L2-Pf-HR :0.95706: L2-HR :0.90659: (Sim:0h49m29s) 
CPU  3 inst:   78000002 cyc:   82706529 now IPC :0.86227: AVG IPC :0.92994: L2-Pf-HR :0.93990: L2-HR :0.86959: (Sim:0h49m29s) 
CPU  1 inst:   79000000 cyc:   83868326 now IPC :0.85741: AVG IPC :0.92897: L2-Pf-HR :0.95684: L2-HR :0.90649: (Sim:0h50m26s) 
CPU  0 inst:   79000000 cyc:   83868908 now IPC :0.83355: AVG IPC :0.92897: L2-Pf-HR :0.95346: L2-HR :0.90573: (Sim:0h50m26s) 
CPU  2 inst:   79000000 cyc:   83902486 now IPC :0.81810: AVG IPC :0.92859: L2-Pf-HR :0.94393: L2-HR :0.88242: (Sim:0h50m28s) 
CPU  3 inst:   79000000 cyc:   83904273 now IPC :0.83490: AVG IPC :0.92857: L2-Pf-HR :0.93936: L2-HR :0.86894: (Sim:0h50m28s) 
CPU  0 inst:   80000000 cyc:   85058550 now IPC :0.84059: AVG IPC :0.92772: L2-Pf-HR :0.95302: L2-HR :0.90546: (Sim:0h51m26s) 
CPU  3 inst:   80000000 cyc:   85064395 now IPC :0.86198: AVG IPC :0.92765: L2-Pf-HR :0.93886: L2-HR :0.86860: (Sim:0h51m26s) 
CPU  1 inst:   80000003 cyc:   85066640 now IPC :0.83451: AVG IPC :0.92762: L2-Pf-HR :0.95655: L2-HR :0.90633: (Sim:0h51m26s) 
CPU  2 inst:   80000000 cyc:   85078121 now IPC :0.85060: AVG IPC :0.92750: L2-Pf-HR :0.94357: L2-HR :0.88221: (Sim:0h51m27s) 
CPU  3 inst:   81000003 cyc:   86716672 now IPC :0.60523: AVG IPC :0.92144: L2-Pf-HR :0.93918: L2-HR :0.86831: (Sim:0h52m32s) 
CPU  0 inst:   81000003 cyc:   86745189 now IPC :0.59290: AVG IPC :0.92113: L2-Pf-HR :0.95315: L2-HR :0.90522: (Sim:0h52m33s) 
CPU  1 inst:   81000003 cyc:   86756834 now IPC :0.59165: AVG IPC :0.92100: L2-Pf-HR :0.95683: L2-HR :0.90630: (Sim:0h52m34s) 
CPU  2 inst:   81000003 cyc:   86758619 now IPC :0.59506: AVG IPC :0.92099: L2-Pf-HR :0.94404: L2-HR :0.88225: (Sim:0h52m34s) 
CPU  1 inst:   82000000 cyc:   87894616 now IPC :0.87890: AVG IPC :0.92045: L2-Pf-HR :0.95655: L2-HR :0.90614: (Sim:0h53m32s) 
CPU  0 inst:   82000000 cyc:   87898912 now IPC :0.86676: AVG IPC :0.92041: L2-Pf-HR :0.95293: L2-HR :0.90510: (Sim:0h53m32s) 
CPU  2 inst:   82000000 cyc:   87937324 now IPC :0.84839: AVG IPC :0.92001: L2-Pf-HR :0.94369: L2-HR :0.88200: (Sim:0h53m35s) 
CPU  3 inst:   82000003 cyc:   87937371 now IPC :0.81920: AVG IPC :0.92000: L2-Pf-HR :0.93890: L2-HR :0.86816: (Sim:0h53m35s) 
CPU  0 inst:   83000002 cyc:   89222201 now IPC :0.75569: AVG IPC :0.91794: L2-Pf-HR :0.95313: L2-HR :0.90506: (Sim:0h54m36s) 
CPU  1 inst:   83000002 cyc:   89246103 now IPC :0.73993: AVG IPC :0.91769: L2-Pf-HR :0.95662: L2-HR :0.90604: (Sim:0h54m37s) 
CPU  2 inst:   83000002 cyc:   89259873 now IPC :0.75612: AVG IPC :0.91755: L2-Pf-HR :0.94369: L2-HR :0.88173: (Sim:0h54m37s) 
CPU  3 inst:   83000005 cyc:   89316520 now IPC :0.72509: AVG IPC :0.91696: L2-Pf-HR :0.93931: L2-HR :0.86836: (Sim:0h54m40s) 
CPU  0 inst:   84000000 cyc:   90603145 now IPC :0.72414: AVG IPC :0.91495: L2-Pf-HR :0.95289: L2-HR :0.90491: (Sim:0h55m41s) 
CPU  1 inst:   84000000 cyc:   90646992 now IPC :0.71383: AVG IPC :0.91450: L2-Pf-HR :0.95637: L2-HR :0.90579: (Sim:0h55m43s) 
CPU  3 inst:   84000000 cyc:   90660291 now IPC :0.74417: AVG IPC :0.91437: L2-Pf-HR :0.93905: L2-HR :0.86818: (Sim:0h55m43s) 
CPU  2 inst:   84000000 cyc:   90663794 now IPC :0.71229: AVG IPC :0.91434: L2-Pf-HR :0.94353: L2-HR :0.88150: (Sim:0h55m43s) 
CPU  0 inst:   85000001 cyc:   92060100 now IPC :0.68636: AVG IPC :0.91130: L2-Pf-HR :0.95281: L2-HR :0.90469: (Sim:0h56m21s) 
CPU  2 inst:   85000001 cyc:   92085033 now IPC :0.70361: AVG IPC :0.91105: L2-Pf-HR :0.94338: L2-HR :0.88115: (Sim:0h56m22s) 
CPU  1 inst:   85000001 cyc:   92090385 now IPC :0.69281: AVG IPC :0.91099: L2-Pf-HR :0.95621: L2-HR :0.90550: (Sim:0h56m22s) 
CPU  3 inst:   85000001 cyc:   92092377 now IPC :0.69828: AVG IPC :0.91098: L2-Pf-HR :0.93895: L2-HR :0.86786: (Sim:0h56m22s) 
CPU  1 inst:   86000004 cyc:   93363344 now IPC :0.78557: AVG IPC :0.90926: L2-Pf-HR :0.95636: L2-HR :0.90534: (Sim:0h56m59s) 
CPU  0 inst:   86000005 cyc:   93379142 now IPC :0.75813: AVG IPC :0.90911: L2-Pf-HR :0.95306: L2-HR :0.90463: (Sim:0h56m59s) 
CPU  2 inst:   86000004 cyc:   93389813 now IPC :0.76641: AVG IPC :0.90901: L2-Pf-HR :0.94356: L2-HR :0.88095: (Sim:0h56m59s) 
CPU  3 inst:   86000005 cyc:   93401746 now IPC :0.76373: AVG IPC :0.90889: L2-Pf-HR :0.93904: L2-HR :0.86759: (Sim:0h57m0s) 
CPU  0 inst:   87000001 cyc:   95064284 now IPC :0.59342: AVG IPC :0.90346: L2-Pf-HR :0.95371: L2-HR :0.90475: (Sim:0h57m40s) 
CPU  3 inst:   87000001 cyc:   95120734 now IPC :0.58174: AVG IPC :0.90292: L2-Pf-HR :0.94024: L2-HR :0.86807: (Sim:0h57m41s) 
CPU  1 inst:   87000001 cyc:   95141275 now IPC :0.56245: AVG IPC :0.90271: L2-Pf-HR :0.95694: L2-HR :0.90545: (Sim:0h57m41s) 
CPU  2 inst:   87000001 cyc:   95152487 now IPC :0.56732: AVG IPC :0.90261: L2-Pf-HR :0.94443: L2-HR :0.88110: (Sim:0h57m42s) 
CPU  0 inst:   88000001 cyc:   96174491 now IPC :0.90073: AVG IPC :0.90342: L2-Pf-HR :0.95359: L2-HR :0.90477: (Sim:0h58m14s) 
CPU  1 inst:   88000001 cyc:   96190253 now IPC :0.95331: AVG IPC :0.90327: L2-Pf-HR :0.95678: L2-HR :0.90547: (Sim:0h58m14s) 
CPU  2 inst:   88000001 cyc:   96207072 now IPC :0.94824: AVG IPC :0.90312: L2-Pf-HR :0.94422: L2-HR :0.88115: (Sim:0h58m15s) 
CPU  3 inst:   88000001 cyc:   96211974 now IPC :0.91639: AVG IPC :0.90307: L2-Pf-HR :0.94007: L2-HR :0.86817: (Sim:0h58m15s) 
CPU  0 inst:   89000001 cyc:   97404577 now IPC :0.81295: AVG IPC :0.90227: L2-Pf-HR :0.95372: L2-HR :0.90505: (Sim:0h58m48s) 
CPU  3 inst:   89000001 cyc:   97427502 now IPC :0.82269: AVG IPC :0.90206: L2-Pf-HR :0.94049: L2-HR :0.86878: (Sim:0h58m49s) 
CPU  1 inst:   89000001 cyc:   97434985 now IPC :0.80339: AVG IPC :0.90198: L2-Pf-HR :0.95685: L2-HR :0.90569: (Sim:0h58m49s) 
CPU  2 inst:   89000001 cyc:   97444152 now IPC :0.80836: AVG IPC :0.90190: L2-Pf-HR :0.94428: L2-HR :0.88127: (Sim:0h58m49s) 
CPU  0 inst:   90000005 cyc:   98581378 now IPC :0.84976: AVG IPC :0.90164: L2-Pf-HR :0.95356: L2-HR :0.90509: (Sim:0h59m22s) 
CPU  1 inst:   90000005 cyc:   98614585 now IPC :0.84775: AVG IPC :0.90133: L2-Pf-HR :0.95674: L2-HR :0.90571: (Sim:0h59m23s) 
CPU  3 inst:   90000005 cyc:   98622719 now IPC :0.83667: AVG IPC :0.90126: L2-Pf-HR :0.94048: L2-HR :0.86894: (Sim:0h59m23s) 
CPU  2 inst:   90000005 cyc:   98637246 now IPC :0.83816: AVG IPC :0.90112: L2-Pf-HR :0.94425: L2-HR :0.88135: (Sim:0h59m24s) 
CPU  2 inst:   91000004 cyc:   99893305 now IPC :0.79614: AVG IPC :0.89979: L2-Pf-HR :0.94386: L2-HR :0.88114: (Sim:0h59m59s) 
CPU  0 inst:   91000004 cyc:   99900422 now IPC :0.75812: AVG IPC :0.89972: L2-Pf-HR :0.95323: L2-HR :0.90497: (Sim:0h59m59s) 
CPU  1 inst:   91000004 cyc:   99901048 now IPC :0.77732: AVG IPC :0.89972: L2-Pf-HR :0.95643: L2-HR :0.90552: (Sim:0h59m59s) 
CPU  3 inst:   91000004 cyc:   99908628 now IPC :0.77766: AVG IPC :0.89965: L2-Pf-HR :0.94010: L2-HR :0.86874: (Sim:0h59m59s) 
CPU  1 inst:   92000005 cyc:  101158249 now IPC :0.79542: AVG IPC :0.89841: L2-Pf-HR :0.95622: L2-HR :0.90542: (Sim:1h0m33s) 
CPU  3 inst:   92000005 cyc:  101167118 now IPC :0.79460: AVG IPC :0.89833: L2-Pf-HR :0.93977: L2-HR :0.86852: (Sim:1h0m34s) 
CPU  0 inst:   92000005 cyc:  101181472 now IPC :0.78061: AVG IPC :0.89820: L2-Pf-HR :0.95305: L2-HR :0.90490: (Sim:1h0m34s) 
CPU  2 inst:   92000005 cyc:  101194805 now IPC :0.76834: AVG IPC :0.89808: L2-Pf-HR :0.94358: L2-HR :0.88099: (Sim:1h0m35s) 
CPU  1 inst:   93000001 cyc:  102727509 now IPC :0.63724: AVG IPC :0.89438: L2-Pf-HR :0.95638: L2-HR :0.90548: (Sim:1h1m11s) 
CPU  0 inst:   93000001 cyc:  102788405 now IPC :0.62230: AVG IPC :0.89384: L2-Pf-HR :0.95332: L2-HR :0.90499: (Sim:1h1m12s) 
CPU  2 inst:   93000001 cyc:  102816115 now IPC :0.61678: AVG IPC :0.89360: L2-Pf-HR :0.94391: L2-HR :0.88111: (Sim:1h1m12s) 
CPU  3 inst:   93000001 cyc:  102827796 now IPC :0.60216: AVG IPC :0.89350: L2-Pf-HR :0.94014: L2-HR :0.86868: (Sim:1h1m13s) 
CPU  1 inst:   94000005 cyc:  103940600 now IPC :0.82434: AVG IPC :0.89355: L2-Pf-HR :0.95634: L2-HR :0.90545: (Sim:1h1m44s) 
CPU  0 inst:   94000005 cyc:  103963251 now IPC :0.85118: AVG IPC :0.89336: L2-Pf-HR :0.95319: L2-HR :0.90489: (Sim:1h1m45s) 
CPU  3 inst:   94000005 cyc:  103967129 now IPC :0.87771: AVG IPC :0.89333: L2-Pf-HR :0.93977: L2-HR :0.86821: (Sim:1h1m45s) 
CPU  2 inst:   94000005 cyc:  103969711 now IPC :0.86686: AVG IPC :0.89330: L2-Pf-HR :0.94379: L2-HR :0.88107: (Sim:1h1m45s) 
CPU  1 inst:   95000002 cyc:  105292407 now IPC :0.73975: AVG IPC :0.89156: L2-Pf-HR :0.95610: L2-HR :0.90536: (Sim:1h2m20s) 
CPU  0 inst:   95000002 cyc:  105305634 now IPC :0.74494: AVG IPC :0.89145: L2-Pf-HR :0.95287: L2-HR :0.90469: (Sim:1h2m20s) 
CPU  2 inst:   95000002 cyc:  105309827 now IPC :0.74620: AVG IPC :0.89142: L2-Pf-HR :0.94345: L2-HR :0.88090: (Sim:1h2m21s) 
CPU  3 inst:   95000002 cyc:  105325516 now IPC :0.73617: AVG IPC :0.89128: L2-Pf-HR :0.93917: L2-HR :0.86760: (Sim:1h2m21s) 
CPU  0 inst:   96000004 cyc:  106558816 now IPC :0.79797: AVG IPC :0.89034: L2-Pf-HR :0.95260: L2-HR :0.90453: (Sim:1h2m54s) 
CPU  2 inst:   96000001 cyc:  106558996 now IPC :0.80053: AVG IPC :0.89034: L2-Pf-HR :0.94315: L2-HR :0.88085: (Sim:1h2m54s) 
CPU  1 inst:   96000003 cyc:  106562108 now IPC :0.78759: AVG IPC :0.89031: L2-Pf-HR :0.95591: L2-HR :0.90531: (Sim:1h2m55s) 
CPU  3 inst:   96000003 cyc:  106578709 now IPC :0.79796: AVG IPC :0.89017: L2-Pf-HR :0.93873: L2-HR :0.86742: (Sim:1h2m55s) 
CPU  0 inst:   97000001 cyc:  108172570 now IPC :0.61967: AVG IPC :0.88626: L2-Pf-HR :0.95257: L2-HR :0.90424: (Sim:1h3m33s) 
CPU  3 inst:   97000001 cyc:  108202756 now IPC :0.61574: AVG IPC :0.88602: L2-Pf-HR :0.93878: L2-HR :0.86698: (Sim:1h3m34s) 
CPU  1 inst:   97000001 cyc:  108207767 now IPC :0.60766: AVG IPC :0.88597: L2-Pf-HR :0.95600: L2-HR :0.90522: (Sim:1h3m34s) 
CPU  2 inst:   97000000 cyc:  108213955 now IPC :0.60424: AVG IPC :0.88592: L2-Pf-HR :0.94333: L2-HR :0.88078: (Sim:1h3m34s) 
CPU  0 inst:   98000001 cyc:  109467079 now IPC :0.77249: AVG IPC :0.88491: L2-Pf-HR :0.95291: L2-HR :0.90426: (Sim:1h4m11s) 
CPU  2 inst:   98000001 cyc:  109483603 now IPC :0.78762: AVG IPC :0.88477: L2-Pf-HR :0.94366: L2-HR :0.88078: (Sim:1h4m12s) 
CPU  1 inst:   98000001 cyc:  109485919 now IPC :0.78238: AVG IPC :0.88475: L2-Pf-HR :0.95626: L2-HR :0.90519: (Sim:1h4m12s) 
CPU  3 inst:   98000003 cyc:  109493518 now IPC :0.77474: AVG IPC :0.88469: L2-Pf-HR :0.93916: L2-HR :0.86701: (Sim:1h4m12s) 
CPU  0 inst:   99000000 cyc:  110708630 now IPC :0.80544: AVG IPC :0.88401: L2-Pf-HR :0.95405: L2-HR :0.90501: (Sim:1h5m8s) 
CPU  3 inst:   99000000 cyc:  110756037 now IPC :0.79206: AVG IPC :0.88363: L2-Pf-HR :0.94119: L2-HR :0.86846: (Sim:1h5m10s) 
CPU  1 inst:   99000000 cyc:  110894878 now IPC :0.70974: AVG IPC :0.88251: L2-Pf-HR :0.95733: L2-HR :0.90591: (Sim:1h5m16s) 
CPU  2 inst:   99000000 cyc:  110911180 now IPC :0.70049: AVG IPC :0.88238: L2-Pf-HR :0.94496: L2-HR :0.88145: (Sim:1h5m17s) 
CPU  0 inst:  100000003 cyc:  111739240 now IPC :0.97030: AVG IPC :0.88481: L2-Pf-HR :0.95522: L2-HR :0.90583: (Sim:1h5m59s) 
CPU  3 inst:  100000003 cyc:  111884903 now IPC :0.88585: AVG IPC :0.88365: L2-Pf-HR :0.94318: L2-HR :0.87001: (Sim:1h6m6s) 
CPU  2 inst:  100000003 cyc:  112003549 now IPC :0.91544: AVG IPC :0.88271: L2-Pf-HR :0.94653: L2-HR :0.88261: (Sim:1h6m12s) 
CPU  1 inst:  100000003 cyc:  112013085 now IPC :0.89429: AVG IPC :0.88263: L2-Pf-HR :0.95834: L2-HR :0.90665: (Sim:1h6m12s) 
CPU  0 inst:  101000004 cyc:  112835491 now IPC :0.91220: AVG IPC :0.88508: L2-Pf-HR :0.95620: L2-HR :0.90649: (Sim:1h6m56s) 
CPU  3 inst:  101000005 cyc:  112930528 now IPC :0.95637: AVG IPC :0.88433: L2-Pf-HR :0.94442: L2-HR :0.87085: (Sim:1h7m1s) 
CPU  2 inst:  101000004 cyc:  112967351 now IPC :1.03756: AVG IPC :0.88404: L2-Pf-HR :0.94745: L2-HR :0.88311: (Sim:1h7m3s) 
CPU  1 inst:  101000004 cyc:  112991761 now IPC :1.02179: AVG IPC :0.88384: L2-Pf-HR :0.95905: L2-HR :0.90706: (Sim:1h7m4s) 
CPU  0 inst:  102000002 cyc:  113907804 now IPC :0.93256: AVG IPC :0.88553: L2-Pf-HR :0.95715: L2-HR :0.90708: (Sim:1h7m49s) 
CPU  3 inst:  102000002 cyc:  114059790 now IPC :0.88553: AVG IPC :0.88434: L2-Pf-HR :0.94544: L2-HR :0.87143: (Sim:1h7m57s) 
CPU  2 inst:  102000002 cyc:  114159631 now IPC :0.83873: AVG IPC :0.88356: L2-Pf-HR :0.94840: L2-HR :0.88367: (Sim:1h8m3s) 
CPU  1 inst:  102000002 cyc:  114170114 now IPC :0.84864: AVG IPC :0.88348: L2-Pf-HR :0.95974: L2-HR :0.90747: (Sim:1h8m4s) 
CPU  3 inst:  103000001 cyc:  115025999 now IPC :1.03497: AVG IPC :0.88562: L2-Pf-HR :0.94651: L2-HR :0.87226: (Sim:1h8m51s) 
CPU  0 inst:  103000001 cyc:  115031769 now IPC :0.88971: AVG IPC :0.88557: L2-Pf-HR :0.95787: L2-HR :0.90760: (Sim:1h8m51s) 
CPU  2 inst:  103000001 cyc:  115183878 now IPC :0.97633: AVG IPC :0.88439: L2-Pf-HR :0.94934: L2-HR :0.88428: (Sim:1h8m56s) 
CPU  1 inst:  103000001 cyc:  115193830 now IPC :0.97683: AVG IPC :0.88431: L2-Pf-HR :0.96048: L2-HR :0.90800: (Sim:1h8m56s) 
CPU  1 inst:  104000005 cyc:  116474869 now IPC :0.78062: AVG IPC :0.88316: L2-Pf-HR :0.96056: L2-HR :0.90791: (Sim:1h9m57s) 
CPU  0 inst:  104000005 cyc:  116491209 now IPC :0.68520: AVG IPC :0.88304: L2-Pf-HR :0.95796: L2-HR :0.90747: (Sim:1h9m57s) 
CPU  2 inst:  104000005 cyc:  116500528 now IPC :0.75951: AVG IPC :0.88297: L2-Pf-HR :0.94942: L2-HR :0.88417: (Sim:1h9m58s) 
CPU  3 inst:  104000005 cyc:  116585320 now IPC :0.64131: AVG IPC :0.88232: L2-Pf-HR :0.94674: L2-HR :0.87227: (Sim:1h10m1s) 
CPU  0 inst:  105000000 cyc:  117529132 now IPC :0.96346: AVG IPC :0.88376: L2-Pf-HR :0.95830: L2-HR :0.90775: (Sim:1h10m54s) 
CPU  1 inst:  105000000 cyc:  117545024 now IPC :0.93444: AVG IPC :0.88363: L2-Pf-HR :0.96081: L2-HR :0.90811: (Sim:1h10m55s) 
CPU  2 inst:  105000000 cyc:  117545574 now IPC :0.95689: AVG IPC :0.88363: L2-Pf-HR :0.94970: L2-HR :0.88428: (Sim:1h10m55s) 
CPU  3 inst:  105000000 cyc:  117545615 now IPC :1.04134: AVG IPC :0.88363: L2-Pf-HR :0.94728: L2-HR :0.87277: (Sim:1h10m55s) 
CPU  0 inst:  106000003 cyc:  118740661 now IPC :0.82541: AVG IPC :0.88315: L2-Pf-HR :0.95839: L2-HR :0.90770: (Sim:1h11m54s) 
CPU  3 inst:  106000003 cyc:  118761407 now IPC :0.82251: AVG IPC :0.88300: L2-Pf-HR :0.94751: L2-HR :0.87277: (Sim:1h11m55s) 
CPU  1 inst:  106000003 cyc:  118791341 now IPC :0.80237: AVG IPC :0.88277: L2-Pf-HR :0.96091: L2-HR :0.90802: (Sim:1h11m56s) 
CPU  2 inst:  106000000 cyc:  118791517 now IPC :0.80260: AVG IPC :0.88278: L2-Pf-HR :0.94985: L2-HR :0.88422: (Sim:1h11m56s) 
CPU  1 inst:  107000000 cyc:  120009400 now IPC :0.82098: AVG IPC :0.88214: L2-Pf-HR :0.96093: L2-HR :0.90795: (Sim:1h12m58s) 
CPU  0 inst:  107000000 cyc:  120009994 now IPC :0.78781: AVG IPC :0.88214: L2-Pf-HR :0.95840: L2-HR :0.90767: (Sim:1h12m58s) 
CPU  2 inst:  107000004 cyc:  120012000 now IPC :0.81935: AVG IPC :0.88213: L2-Pf-HR :0.94987: L2-HR :0.88413: (Sim:1h12m58s) 
CPU  3 inst:  107000005 cyc:  120015253 now IPC :0.79755: AVG IPC :0.88210: L2-Pf-HR :0.94758: L2-HR :0.87270: (Sim:1h12m58s) 
CPU  0 inst:  108000000 cyc:  121223273 now IPC :0.82421: AVG IPC :0.88155: L2-Pf-HR :0.95837: L2-HR :0.90757: (Sim:1h13m59s) 
CPU  1 inst:  108000000 cyc:  121227327 now IPC :0.82107: AVG IPC :0.88152: L2-Pf-HR :0.96089: L2-HR :0.90783: (Sim:1h13m59s) 
CPU  3 inst:  108000000 cyc:  121234564 now IPC :0.82013: AVG IPC :0.88147: L2-Pf-HR :0.94760: L2-HR :0.87251: (Sim:1h13m59s) 
CPU  2 inst:  108000000 cyc:  121235798 now IPC :0.81713: AVG IPC :0.88146: L2-Pf-HR :0.94986: L2-HR :0.88399: (Sim:1h13m59s) 
CPU  2 inst:  109000005 cyc:  122366917 now IPC :0.88408: AVG IPC :0.88149: L2-Pf-HR :0.95007: L2-HR :0.88417: (Sim:1h14m57s) 
CPU  3 inst:  109000001 cyc:  122392400 now IPC :0.86368: AVG IPC :0.88130: L2-Pf-HR :0.94786: L2-HR :0.87273: (Sim:1h14m58s) 
CPU  0 inst:  109000001 cyc:  122411953 now IPC :0.84127: AVG IPC :0.88116: L2-Pf-HR :0.95852: L2-HR :0.90774: (Sim:1h14m58s) 
CPU  1 inst:  109000001 cyc:  122413443 now IPC :0.84309: AVG IPC :0.88115: L2-Pf-HR :0.96106: L2-HR :0.90799: (Sim:1h14m59s) 
CPU  1 inst:  110000003 cyc:  123871705 now IPC :0.68575: AVG IPC :0.87883: L2-Pf-HR :0.96095: L2-HR :0.90789: (Sim:1h16m4s) 
CPU  3 inst:  110000000 cyc:  123889092 now IPC :0.66814: AVG IPC :0.87871: L2-Pf-HR :0.94760: L2-HR :0.87235: (Sim:1h16m5s) 
CPU  2 inst:  110000000 cyc:  123890783 now IPC :0.65622: AVG IPC :0.87870: L2-Pf-HR :0.94995: L2-HR :0.88411: (Sim:1h16m5s) 
CPU  0 inst:  110000003 cyc:  123893191 now IPC :0.67511: AVG IPC :0.87868: L2-Pf-HR :0.95840: L2-HR :0.90756: (Sim:1h16m5s) 
CPU  0 inst:  111000000 cyc:  125181480 now IPC :0.77622: AVG IPC :0.87761: L2-Pf-HR :0.95814: L2-HR :0.90741: (Sim:1h17m8s) 
CPU  3 inst:  111000001 cyc:  125205808 now IPC :0.75947: AVG IPC :0.87744: L2-Pf-HR :0.94715: L2-HR :0.87182: (Sim:1h17m9s) 
CPU  2 inst:  111000000 cyc:  125206532 now IPC :0.76002: AVG IPC :0.87744: L2-Pf-HR :0.94972: L2-HR :0.88395: (Sim:1h17m9s) 
CPU  1 inst:  111000000 cyc:  125207558 now IPC :0.74858: AVG IPC :0.87743: L2-Pf-HR :0.96076: L2-HR :0.90780: (Sim:1h17m9s) 
CPU  1 inst:  112000005 cyc:  126467906 now IPC :0.79344: AVG IPC :0.87658: L2-Pf-HR :0.96051: L2-HR :0.90781: (Sim:1h18m9s) 
CPU  0 inst:  112000000 cyc:  126490067 now IPC :0.76418: AVG IPC :0.87643: L2-Pf-HR :0.95784: L2-HR :0.90729: (Sim:1h18m10s) 
CPU  2 inst:  112000000 cyc:  126511858 now IPC :0.76609: AVG IPC :0.87628: L2-Pf-HR :0.94942: L2-HR :0.88393: (Sim:1h18m11s) 
CPU  3 inst:  112000005 cyc:  126536856 now IPC :0.75129: AVG IPC :0.87611: L2-Pf-HR :0.94673: L2-HR :0.87165: (Sim:1h18m12s) 
CPU  1 inst:  113000000 cyc:  127748584 now IPC :0.78083: AVG IPC :0.87562: L2-Pf-HR :0.96048: L2-HR :0.90786: (Sim:1h19m12s) 
CPU  3 inst:  113000000 cyc:  127749190 now IPC :0.82485: AVG IPC :0.87562: L2-Pf-HR :0.94644: L2-HR :0.87142: (Sim:1h19m12s) 
CPU  2 inst:  113000000 cyc:  127779748 now IPC :0.78871: AVG IPC :0.87541: L2-Pf-HR :0.94937: L2-HR :0.88401: (Sim:1h19m13s) 
CPU  0 inst:  113000000 cyc:  127786312 now IPC :0.77146: AVG IPC :0.87536: L2-Pf-HR :0.95772: L2-HR :0.90721: (Sim:1h19m13s) 
CPU  0 inst:  114000001 cyc:  129335347 now IPC :0.64556: AVG IPC :0.87258: L2-Pf-HR :0.95780: L2-HR :0.90695: (Sim:1h20m21s) 
CPU  1 inst:  114000001 cyc:  129342520 now IPC :0.62738: AVG IPC :0.87253: L2-Pf-HR :0.96056: L2-HR :0.90764: (Sim:1h20m21s) 
CPU  2 inst:  114000001 cyc:  129351055 now IPC :0.63641: AVG IPC :0.87248: L2-Pf-HR :0.94946: L2-HR :0.88378: (Sim:1h20m22s) 
CPU  3 inst:  114000001 cyc:  129360037 now IPC :0.62079: AVG IPC :0.87242: L2-Pf-HR :0.94657: L2-HR :0.87120: (Sim:1h20m22s) 
CPU  0 inst:  115000004 cyc:  130695740 now IPC :0.73508: AVG IPC :0.87114: L2-Pf-HR :0.95773: L2-HR :0.90689: (Sim:1h21m27s) 
CPU  1 inst:  115000004 cyc:  130699256 now IPC :0.73707: AVG IPC :0.87112: L2-Pf-HR :0.96051: L2-HR :0.90760: (Sim:1h21m27s) 
CPU  3 inst:  115000004 cyc:  130732196 now IPC :0.72878: AVG IPC :0.87090: L2-Pf-HR :0.94657: L2-HR :0.87125: (Sim:1h21m29s) 
CPU  2 inst:  115000004 cyc:  130765277 now IPC :0.70710: AVG IPC :0.87068: L2-Pf-HR :0.94926: L2-HR :0.88357: (Sim:1h21m31s) 
CPU  0 inst:  116000001 cyc:  131973594 now IPC :0.78256: AVG IPC :0.87028: L2-Pf-HR :0.95769: L2-HR :0.90679: (Sim:1h22m32s) 
CPU  2 inst:  116000002 cyc:  132005419 now IPC :0.80636: AVG IPC :0.87007: L2-Pf-HR :0.94923: L2-HR :0.88345: (Sim:1h22m33s) 
CPU  1 inst:  116000001 cyc:  132009749 now IPC :0.76307: AVG IPC :0.87004: L2-Pf-HR :0.96040: L2-HR :0.90744: (Sim:1h22m33s) 
CPU  3 inst:  116000001 cyc:  132032493 now IPC :0.76905: AVG IPC :0.86989: L2-Pf-HR :0.94660: L2-HR :0.87116: (Sim:1h22m34s) 
CPU  0 inst:  117000001 cyc:  133411143 now IPC :0.69563: AVG IPC :0.86838: L2-Pf-HR :0.95749: L2-HR :0.90665: (Sim:1h23m39s) 
CPU  1 inst:  117000001 cyc:  133412364 now IPC :0.71295: AVG IPC :0.86837: L2-Pf-HR :0.96015: L2-HR :0.90730: (Sim:1h23m39s) 
CPU  3 inst:  117000001 cyc:  133458409 now IPC :0.70130: AVG IPC :0.86807: L2-Pf-HR :0.94641: L2-HR :0.87098: (Sim:1h23m41s) 
CPU  2 inst:  117000001 cyc:  133469730 now IPC :0.68291: AVG IPC :0.86800: L2-Pf-HR :0.94893: L2-HR :0.88321: (Sim:1h23m41s) 
CPU  0 inst:  118000002 cyc:  134729405 now IPC :0.75858: AVG IPC :0.86730: L2-Pf-HR :0.95742: L2-HR :0.90658: (Sim:1h24m43s) 
CPU  1 inst:  118000002 cyc:  134747696 now IPC :0.74888: AVG IPC :0.86718: L2-Pf-HR :0.96007: L2-HR :0.90714: (Sim:1h24m44s) 
CPU  2 inst:  118000002 cyc:  134762069 now IPC :0.77379: AVG IPC :0.86709: L2-Pf-HR :0.94881: L2-HR :0.88303: (Sim:1h24m45s) 
CPU  3 inst:  118000001 cyc:  134848992 now IPC :0.71912: AVG IPC :0.86653: L2-Pf-HR :0.94632: L2-HR :0.87077: (Sim:1h24m49s) 
CPU  0 inst:  119000003 cyc:  136007731 now IPC :0.78227: AVG IPC :0.86650: L2-Pf-HR :0.95740: L2-HR :0.90662: (Sim:1h25m48s) 
CPU  2 inst:  119000003 cyc:  136008893 now IPC :0.80204: AVG IPC :0.86649: L2-Pf-HR :0.94889: L2-HR :0.88305: (Sim:1h25m48s) 
CPU  3 inst:  119000003 cyc:  136013355 now IPC :0.85884: AVG IPC :0.86646: L2-Pf-HR :0.94649: L2-HR :0.87081: (Sim:1h25m48s) 
CPU  1 inst:  119000003 cyc:  136018460 now IPC :0.78693: AVG IPC :0.86643: L2-Pf-HR :0.96014: L2-HR :0.90716: (Sim:1h25m49s) 
CPU  1 inst:  120000000 cyc:  137556471 now IPC :0.65019: AVG IPC :0.86399: L2-Pf-HR :0.96026: L2-HR :0.90722: (Sim:1h26m54s) 
CPU  0 inst:  120000000 cyc:  137559643 now IPC :0.64436: AVG IPC :0.86397: L2-Pf-HR :0.95754: L2-HR :0.90665: (Sim:1h26m55s) 
CPU  2 inst:  120000000 cyc:  137565375 now IPC :0.64247: AVG IPC :0.86394: L2-Pf-HR :0.94909: L2-HR :0.88319: (Sim:1h26m55s) 
CPU  3 inst:  120000000 cyc:  137569365 now IPC :0.64267: AVG IPC :0.86391: L2-Pf-HR :0.94669: L2-HR :0.87097: (Sim:1h26m56s) 
CPU  2 inst:  121000000 cyc:  138755770 now IPC :0.84006: AVG IPC :0.86373: L2-Pf-HR :0.94884: L2-HR :0.88313: (Sim:1h27m55s) 
CPU  0 inst:  121000000 cyc:  138762128 now IPC :0.83161: AVG IPC :0.86369: L2-Pf-HR :0.95733: L2-HR :0.90669: (Sim:1h27m56s) 
CPU  1 inst:  121000000 cyc:  138767013 now IPC :0.82608: AVG IPC :0.86366: L2-Pf-HR :0.96006: L2-HR :0.90724: (Sim:1h27m56s) 
CPU  3 inst:  121000000 cyc:  138775058 now IPC :0.82940: AVG IPC :0.86361: L2-Pf-HR :0.94651: L2-HR :0.87117: (Sim:1h27m56s) 
CPU  0 inst:  122000001 cyc:  139955465 now IPC :0.83799: AVG IPC :0.86347: L2-Pf-HR :0.95720: L2-HR :0.90669: (Sim:1h28m55s) 
CPU  2 inst:  122000001 cyc:  139997134 now IPC :0.80557: AVG IPC :0.86321: L2-Pf-HR :0.94871: L2-HR :0.88314: (Sim:1h28m57s) 
CPU  3 inst:  122000001 cyc:  140004187 now IPC :0.81359: AVG IPC :0.86317: L2-Pf-HR :0.94645: L2-HR :0.87125: (Sim:1h28m58s) 
CPU  1 inst:  122000001 cyc:  140005203 now IPC :0.80763: AVG IPC :0.86316: L2-Pf-HR :0.95994: L2-HR :0.90720: (Sim:1h28m58s) 
CPU  2 inst:  123000002 cyc:  141217097 now IPC :0.81970: AVG IPC :0.86283: L2-Pf-HR :0.94845: L2-HR :0.88297: (Sim:1h29m58s) 
CPU  1 inst:  123000002 cyc:  141227628 now IPC :0.81805: AVG IPC :0.86276: L2-Pf-HR :0.95973: L2-HR :0.90709: (Sim:1h29m58s) 
CPU  0 inst:  123000002 cyc:  141237209 now IPC :0.78019: AVG IPC :0.86271: L2-Pf-HR :0.95698: L2-HR :0.90660: (Sim:1h29m59s) 
CPU  3 inst:  123000002 cyc:  141237213 now IPC :0.81101: AVG IPC :0.86271: L2-Pf-HR :0.94622: L2-HR :0.87115: (Sim:1h29m59s) 
CPU  0 inst:  124000002 cyc:  142465680 now IPC :0.81402: AVG IPC :0.86228: L2-Pf-HR :0.95688: L2-HR :0.90659: (Sim:1h30m59s) 
CPU  1 inst:  124000002 cyc:  142496396 now IPC :0.78817: AVG IPC :0.86210: L2-Pf-HR :0.95965: L2-HR :0.90702: (Sim:1h31m1s) 
CPU  3 inst:  124000003 cyc:  142512158 now IPC :0.78435: AVG IPC :0.86200: L2-Pf-HR :0.94604: L2-HR :0.87105: (Sim:1h31m2s) 
CPU  2 inst:  124000003 cyc:  142518400 now IPC :0.76846: AVG IPC :0.86197: L2-Pf-HR :0.94834: L2-HR :0.88290: (Sim:1h31m2s) 
CPU  2 inst:  125000004 cyc:  143645804 now IPC :0.88699: AVG IPC :0.86216: L2-Pf-HR :0.94820: L2-HR :0.88292: (Sim:1h32m0s) 
CPU  3 inst:  125000000 cyc:  143647677 now IPC :0.88065: AVG IPC :0.86215: L2-Pf-HR :0.94588: L2-HR :0.87100: (Sim:1h32m0s) 
CPU  0 inst:  125000004 cyc:  143650676 now IPC :0.84389: AVG IPC :0.86213: L2-Pf-HR :0.95678: L2-HR :0.90660: (Sim:1h32m0s) 
CPU  1 inst:  125000004 cyc:  143651483 now IPC :0.86574: AVG IPC :0.86213: L2-Pf-HR :0.95957: L2-HR :0.90703: (Sim:1h32m0s) 
CPU  0 inst:  126000003 cyc:  145146278 now IPC :0.66863: AVG IPC :0.86012: L2-Pf-HR :0.95680: L2-HR :0.90656: (Sim:1h33m6s) 
CPU  3 inst:  126000004 cyc:  145146990 now IPC :0.66697: AVG IPC :0.86012: L2-Pf-HR :0.94591: L2-HR :0.87087: (Sim:1h33m6s) 
CPU  2 inst:  126000003 cyc:  145161411 now IPC :0.65980: AVG IPC :0.86004: L2-Pf-HR :0.94832: L2-HR :0.88298: (Sim:1h33m7s) 
CPU  1 inst:  126000003 cyc:  145165207 now IPC :0.66062: AVG IPC :0.86001: L2-Pf-HR :0.95963: L2-HR :0.90706: (Sim:1h33m7s) 
CPU  0 inst:  127000004 cyc:  146392671 now IPC :0.80232: AVG IPC :0.85963: L2-Pf-HR :0.95672: L2-HR :0.90657: (Sim:1h34m3s) 
CPU  2 inst:  127000004 cyc:  146397439 now IPC :0.80904: AVG IPC :0.85960: L2-Pf-HR :0.94824: L2-HR :0.88300: (Sim:1h34m3s) 
CPU  1 inst:  127000004 cyc:  146397619 now IPC :0.81142: AVG IPC :0.85960: L2-Pf-HR :0.95957: L2-HR :0.90710: (Sim:1h34m3s) 
CPU  3 inst:  127000004 cyc:  146403087 now IPC :0.79612: AVG IPC :0.85957: L2-Pf-HR :0.94557: L2-HR :0.87045: (Sim:1h34m3s) 
CPU  0 inst:  128000005 cyc:  147679667 now IPC :0.77700: AVG IPC :0.85890: L2-Pf-HR :0.95653: L2-HR :0.90650: (Sim:1h34m39s) 
CPU  2 inst:  128000005 cyc:  147710380 now IPC :0.76165: AVG IPC :0.85873: L2-Pf-HR :0.94812: L2-HR :0.88307: (Sim:1h34m40s) 
CPU  1 inst:  128000005 cyc:  147711755 now IPC :0.76096: AVG IPC :0.85871: L2-Pf-HR :0.95952: L2-HR :0.90718: (Sim:1h34m40s) 
CPU  3 inst:  128000005 cyc:  147715281 now IPC :0.76208: AVG IPC :0.85870: L2-Pf-HR :0.94534: L2-HR :0.87034: (Sim:1h34m40s) 
CPU  0 inst:  129000002 cyc:  148910757 now IPC :0.81229: AVG IPC :0.85852: L2-Pf-HR :0.95637: L2-HR :0.90636: (Sim:1h35m15s) 
CPU  2 inst:  129000002 cyc:  148916793 now IPC :0.82890: AVG IPC :0.85848: L2-Pf-HR :0.94802: L2-HR :0.88301: (Sim:1h35m16s) 
CPU  1 inst:  129000002 cyc:  148924399 now IPC :0.82464: AVG IPC :0.85844: L2-Pf-HR :0.95942: L2-HR :0.90713: (Sim:1h35m16s) 
CPU  3 inst:  129000002 cyc:  148924964 now IPC :0.82666: AVG IPC :0.85843: L2-Pf-HR :0.94512: L2-HR :0.87003: (Sim:1h35m16s) 
CPU  1 inst:  130000004 cyc:  150425733 now IPC :0.66608: AVG IPC :0.85650: L2-Pf-HR :0.95964: L2-HR :0.90709: (Sim:1h36m24s) 
CPU  2 inst:  130000004 cyc:  150426453 now IPC :0.66240: AVG IPC :0.85650: L2-Pf-HR :0.94833: L2-HR :0.88299: (Sim:1h36m24s) 
CPU  0 inst:  130000004 cyc:  150429120 now IPC :0.65861: AVG IPC :0.85648: L2-Pf-HR :0.95655: L2-HR :0.90623: (Sim:1h36m24s) 
CPU  3 inst:  130000004 cyc:  150453134 now IPC :0.65438: AVG IPC :0.85635: L2-Pf-HR :0.94540: L2-HR :0.86997: (Sim:1h36m25s) 
CPU  0 inst:  131000005 cyc:  151735184 now IPC :0.76566: AVG IPC :0.85570: L2-Pf-HR :0.95662: L2-HR :0.90618: (Sim:1h37m27s) 
CPU  2 inst:  131000005 cyc:  151760599 now IPC :0.74954: AVG IPC :0.85556: L2-Pf-HR :0.94826: L2-HR :0.88278: (Sim:1h37m29s) 
CPU  1 inst:  131000005 cyc:  151769655 now IPC :0.74409: AVG IPC :0.85550: L2-Pf-HR :0.95964: L2-HR :0.90698: (Sim:1h37m29s) 
CPU  3 inst:  131000002 cyc:  151787147 now IPC :0.74962: AVG IPC :0.85540: L2-Pf-HR :0.94545: L2-HR :0.86995: (Sim:1h37m30s) 
CPU  0 inst:  132000003 cyc:  153131382 now IPC :0.71623: AVG IPC :0.85442: L2-Pf-HR :0.95648: L2-HR :0.90609: (Sim:1h38m34s) 
CPU  1 inst:  132000003 cyc:  153141707 now IPC :0.72883: AVG IPC :0.85436: L2-Pf-HR :0.95954: L2-HR :0.90682: (Sim:1h38m35s) 
CPU  2 inst:  132000003 cyc:  153151228 now IPC :0.71910: AVG IPC :0.85431: L2-Pf-HR :0.94811: L2-HR :0.88266: (Sim:1h38m35s) 
CPU  3 inst:  132000003 cyc:  153167977 now IPC :0.72420: AVG IPC :0.85421: L2-Pf-HR :0.94533: L2-HR :0.86988: (Sim:1h38m36s) 
CPU  0 inst:  133000001 cyc:  154494375 now IPC :0.73368: AVG IPC :0.85335: L2-Pf-HR :0.95625: L2-HR :0.90593: (Sim:1h39m38s) 
CPU  1 inst:  133000001 cyc:  154523299 now IPC :0.72380: AVG IPC :0.85318: L2-Pf-HR :0.95934: L2-HR :0.90664: (Sim:1h39m39s) 
CPU  2 inst:  133000001 cyc:  154537829 now IPC :0.72119: AVG IPC :0.85311: L2-Pf-HR :0.94786: L2-HR :0.88246: (Sim:1h39m40s) 
CPU  3 inst:  133000001 cyc:  154580403 now IPC :0.70800: AVG IPC :0.85287: L2-Pf-HR :0.94512: L2-HR :0.86975: (Sim:1h39m42s) 
CPU  0 inst:  134000002 cyc:  155933524 now IPC :0.69486: AVG IPC :0.85187: L2-Pf-HR :0.95620: L2-HR :0.90587: (Sim:1h40m44s) 
CPU  1 inst:  134000002 cyc:  155939738 now IPC :0.70600: AVG IPC :0.85184: L2-Pf-HR :0.95926: L2-HR :0.90651: (Sim:1h40m44s) 
CPU  2 inst:  134000003 cyc:  155988819 now IPC :0.68919: AVG IPC :0.85157: L2-Pf-HR :0.94773: L2-HR :0.88231: (Sim:1h40m46s) 
CPU  3 inst:  134000003 cyc:  156003916 now IPC :0.70249: AVG IPC :0.85149: L2-Pf-HR :0.94495: L2-HR :0.86959: (Sim:1h40m46s) 
CPU  0 inst:  135000003 cyc:  157361057 now IPC :0.70051: AVG IPC :0.85049: L2-Pf-HR :0.95609: L2-HR :0.90570: (Sim:1h41m41s) 
CPU  1 inst:  135000001 cyc:  157368857 now IPC :0.69973: AVG IPC :0.85045: L2-Pf-HR :0.95920: L2-HR :0.90638: (Sim:1h41m42s) 
CPU  2 inst:  135000001 cyc:  157396281 now IPC :0.71050: AVG IPC :0.85030: L2-Pf-HR :0.94772: L2-HR :0.88217: (Sim:1h41m43s) 
CPU  3 inst:  135000001 cyc:  157414347 now IPC :0.70900: AVG IPC :0.85020: L2-Pf-HR :0.94491: L2-HR :0.86941: (Sim:1h41m44s) 
CPU  0 inst:  136000003 cyc:  158936083 now IPC :0.63491: AVG IPC :0.84834: L2-Pf-HR :0.95636: L2-HR :0.90579: (Sim:1h42m48s) 
CPU  1 inst:  136000003 cyc:  158937026 now IPC :0.63769: AVG IPC :0.84834: L2-Pf-HR :0.95947: L2-HR :0.90646: (Sim:1h42m49s) 
CPU  2 inst:  136000000 cyc:  158962350 now IPC :0.63854: AVG IPC :0.84820: L2-Pf-HR :0.94811: L2-HR :0.88235: (Sim:1h42m50s) 
CPU  3 inst:  136000000 cyc:  158963972 now IPC :0.64532: AVG IPC :0.84819: L2-Pf-HR :0.94538: L2-HR :0.86967: (Sim:1h42m50s) 
CPU  3 inst:  137000004 cyc:  160266061 now IPC :0.76800: AVG IPC :0.84754: L2-Pf-HR :0.94548: L2-HR :0.87006: (Sim:1h43m51s) 
CPU  2 inst:  137000001 cyc:  160267707 now IPC :0.76607: AVG IPC :0.84753: L2-Pf-HR :0.94806: L2-HR :0.88244: (Sim:1h43m51s) 
CPU  0 inst:  137000004 cyc:  160269049 now IPC :0.75021: AVG IPC :0.84752: L2-Pf-HR :0.95639: L2-HR :0.90593: (Sim:1h43m51s) 
CPU  1 inst:  137000004 cyc:  160271287 now IPC :0.74948: AVG IPC :0.84751: L2-Pf-HR :0.95947: L2-HR :0.90657: (Sim:1h43m51s) 
CPU  1 inst:  138000004 cyc:  161574749 now IPC :0.76719: AVG IPC :0.84686: L2-Pf-HR :0.95928: L2-HR :0.90649: (Sim:1h44m52s) 
CPU  2 inst:  138000004 cyc:  161589365 now IPC :0.75663: AVG IPC :0.84678: L2-Pf-HR :0.94784: L2-HR :0.88239: (Sim:1h44m52s) 
CPU  0 inst:  138000004 cyc:  161591328 now IPC :0.75627: AVG IPC :0.84677: L2-Pf-HR :0.95621: L2-HR :0.90589: (Sim:1h44m52s) 
CPU  3 inst:  138000004 cyc:  161597437 now IPC :0.75110: AVG IPC :0.84674: L2-Pf-HR :0.94534: L2-HR :0.87007: (Sim:1h44m53s) 
CPU  0 inst:  139000005 cyc:  162850782 now IPC :0.79400: AVG IPC :0.84636: L2-Pf-HR :0.95599: L2-HR :0.90584: (Sim:1h45m52s) 
CPU  2 inst:  139000005 cyc:  162897942 now IPC :0.76419: AVG IPC :0.84611: L2-Pf-HR :0.94758: L2-HR :0.88229: (Sim:1h45m55s) 
CPU  1 inst:  139000005 cyc:  162902305 now IPC :0.75326: AVG IPC :0.84609: L2-Pf-HR :0.95907: L2-HR :0.90641: (Sim:1h45m55s) 
CPU  3 inst:  139000005 cyc:  162916791 now IPC :0.75795: AVG IPC :0.84602: L2-Pf-HR :0.94512: L2-HR :0.87001: (Sim:1h45m55s) 
CPU  0 inst:  140000005 cyc:  164170130 now IPC :0.75795: AVG IPC :0.84564: L2-Pf-HR :0.95596: L2-HR :0.90581: (Sim:1h46m55s) 
CPU  1 inst:  140000005 cyc:  164187935 now IPC :0.77783: AVG IPC :0.84555: L2-Pf-HR :0.95901: L2-HR :0.90635: (Sim:1h46m57s) 
CPU  2 inst:  140000005 cyc:  164206429 now IPC :0.76424: AVG IPC :0.84546: L2-Pf-HR :0.94748: L2-HR :0.88222: (Sim:1h46m58s) 
CPU  3 inst:  140000005 cyc:  164212070 now IPC :0.77203: AVG IPC :0.84543: L2-Pf-HR :0.94501: L2-HR :0.86991: (Sim:1h46m58s) 
CPU  0 inst:  141000002 cyc:  165421739 now IPC :0.79897: AVG IPC :0.84529: L2-Pf-HR :0.95580: L2-HR :0.90572: (Sim:1h47m55s) 
CPU  1 inst:  141000002 cyc:  165470936 now IPC :0.77942: AVG IPC :0.84504: L2-Pf-HR :0.95886: L2-HR :0.90626: (Sim:1h47m58s) 
CPU  3 inst:  141000002 cyc:  165482148 now IPC :0.78735: AVG IPC :0.84498: L2-Pf-HR :0.94478: L2-HR :0.86975: (Sim:1h47m58s) 
CPU  2 inst:  141000002 cyc:  165489143 now IPC :0.77959: AVG IPC :0.84494: L2-Pf-HR :0.94730: L2-HR :0.88211: (Sim:1h47m59s) 
CPU  1 inst:  142000001 cyc:  166791721 now IPC :0.75712: AVG IPC :0.84434: L2-Pf-HR :0.95897: L2-HR :0.90633: (Sim:1h48m59s) 
CPU  3 inst:  142000004 cyc:  166796529 now IPC :0.76082: AVG IPC :0.84431: L2-Pf-HR :0.94494: L2-HR :0.86974: (Sim:1h48m59s) 
CPU  0 inst:  142000001 cyc:  166796692 now IPC :0.72730: AVG IPC :0.84431: L2-Pf-HR :0.95592: L2-HR :0.90572: (Sim:1h48m59s) 
CPU  2 inst:  142000001 cyc:  166809210 now IPC :0.75754: AVG IPC :0.84425: L2-Pf-HR :0.94745: L2-HR :0.88222: (Sim:1h49m0s) 
CPU  0 inst:  143000004 cyc:  168022359 now IPC :0.81588: AVG IPC :0.84410: L2-Pf-HR :0.95575: L2-HR :0.90570: (Sim:1h49m59s) 
CPU  1 inst:  143000004 cyc:  168038888 now IPC :0.80182: AVG IPC :0.84402: L2-Pf-HR :0.95880: L2-HR :0.90630: (Sim:1h50m0s) 
CPU  2 inst:  143000004 cyc:  168056969 now IPC :0.80144: AVG IPC :0.84393: L2-Pf-HR :0.94723: L2-HR :0.88213: (Sim:1h50m1s) 
CPU  3 inst:  143000004 cyc:  168063669 now IPC :0.78918: AVG IPC :0.84389: L2-Pf-HR :0.94456: L2-HR :0.86937: (Sim:1h50m1s) 
CPU  0 inst:  144000005 cyc:  169277120 now IPC :0.79697: AVG IPC :0.84375: L2-Pf-HR :0.95547: L2-HR :0.90552: (Sim:1h50m56s) 
CPU  3 inst:  144000005 cyc:  169277731 now IPC :0.82368: AVG IPC :0.84375: L2-Pf-HR :0.94419: L2-HR :0.86909: (Sim:1h50m56s) 
CPU  1 inst:  144000005 cyc:  169281816 now IPC :0.80455: AVG IPC :0.84373: L2-Pf-HR :0.95857: L2-HR :0.90621: (Sim:1h50m56s) 
CPU  2 inst:  144000005 cyc:  169287710 now IPC :0.81252: AVG IPC :0.84370: L2-Pf-HR :0.94693: L2-HR :0.88201: (Sim:1h50m56s) 
CPU  0 inst:  145000000 cyc:  170513301 now IPC :0.80894: AVG IPC :0.84350: L2-Pf-HR :0.95535: L2-HR :0.90539: (Sim:1h51m35s) 
CPU  2 inst:  145000000 cyc:  170515164 now IPC :0.81469: AVG IPC :0.84349: L2-Pf-HR :0.94679: L2-HR :0.88192: (Sim:1h51m36s) 
CPU  1 inst:  145000000 cyc:  170519000 now IPC :0.80828: AVG IPC :0.84347: L2-Pf-HR :0.95846: L2-HR :0.90614: (Sim:1h51m36s) 
CPU  3 inst:  145000000 cyc:  170530493 now IPC :0.79823: AVG IPC :0.84341: L2-Pf-HR :0.94392: L2-HR :0.86880: (Sim:1h51m36s) 
CPU  1 inst:  146000001 cyc:  171952447 now IPC :0.69762: AVG IPC :0.84224: L2-Pf-HR :0.95857: L2-HR :0.90610: (Sim:1h52m14s) 
CPU  3 inst:  146000004 cyc:  171971133 now IPC :0.69414: AVG IPC :0.84216: L2-Pf-HR :0.94400: L2-HR :0.86873: (Sim:1h52m14s) 
CPU  0 inst:  146000001 cyc:  171979168 now IPC :0.68219: AVG IPC :0.84211: L2-Pf-HR :0.95540: L2-HR :0.90526: (Sim:1h52m15s) 
CPU  2 inst:  146000001 cyc:  171997399 now IPC :0.67466: AVG IPC :0.84203: L2-Pf-HR :0.94692: L2-HR :0.88193: (Sim:1h52m15s) 
CPU  0 inst:  147000000 cyc:  173367487 now IPC :0.72029: AVG IPC :0.84113: L2-Pf-HR :0.95539: L2-HR :0.90525: (Sim:1h52m54s) 
CPU  2 inst:  147000002 cyc:  173371827 now IPC :0.72758: AVG IPC :0.84111: L2-Pf-HR :0.94689: L2-HR :0.88182: (Sim:1h52m54s) 
CPU  1 inst:  147000002 cyc:  173380955 now IPC :0.70003: AVG IPC :0.84107: L2-Pf-HR :0.95857: L2-HR :0.90606: (Sim:1h52m54s) 
CPU  3 inst:  147000004 cyc:  173381275 now IPC :0.70915: AVG IPC :0.84107: L2-Pf-HR :0.94408: L2-HR :0.86881: (Sim:1h52m54s) 
CPU  1 inst:  148000000 cyc:  174817402 now IPC :0.69616: AVG IPC :0.83987: L2-Pf-HR :0.95870: L2-HR :0.90612: (Sim:1h53m33s) 
CPU  0 inst:  148000000 cyc:  174817889 now IPC :0.68946: AVG IPC :0.83987: L2-Pf-HR :0.95566: L2-HR :0.90537: (Sim:1h53m33s) 
CPU  3 inst:  148000000 cyc:  174831219 now IPC :0.68968: AVG IPC :0.83980: L2-Pf-HR :0.94444: L2-HR :0.86906: (Sim:1h53m33s) 
CPU  2 inst:  148000000 cyc:  174852777 now IPC :0.67524: AVG IPC :0.83970: L2-Pf-HR :0.94719: L2-HR :0.88193: (Sim:1h53m34s) 
CPU  0 inst:  149000004 cyc:  176155864 now IPC :0.74740: AVG IPC :0.83916: L2-Pf-HR :0.95549: L2-HR :0.90529: (Sim:1h54m29s) 
CPU  1 inst:  149000004 cyc:  176157898 now IPC :0.74600: AVG IPC :0.83915: L2-Pf-HR :0.95853: L2-HR :0.90600: (Sim:1h54m29s) 
CPU  2 inst:  149000004 cyc:  176213693 now IPC :0.73480: AVG IPC :0.83889: L2-Pf-HR :0.94702: L2-HR :0.88179: (Sim:1h54m31s) 
CPU  3 inst:  149000004 cyc:  176214534 now IPC :0.72290: AVG IPC :0.83888: L2-Pf-HR :0.94428: L2-HR :0.86897: (Sim:1h54m31s) 
CPU  0 inst:  150000005 cyc:  177529742 now IPC :0.72787: AVG IPC :0.83830: L2-Pf-HR :0.95534: L2-HR :0.90528: (Sim:1h55m34s) 
CPU  1 inst:  150000005 cyc:  177549559 now IPC :0.71857: AVG IPC :0.83820: L2-Pf-HR :0.95838: L2-HR :0.90595: (Sim:1h55m35s) 
CPU  2 inst:  150000005 cyc:  177599107 now IPC :0.72181: AVG IPC :0.83797: L2-Pf-HR :0.94690: L2-HR :0.88172: (Sim:1h55m36s) 
CPU  3 inst:  150000005 cyc:  177622359 now IPC :0.71032: AVG IPC :0.83786: L2-Pf-HR :0.94413: L2-HR :0.86884: (Sim:1h55m36s) 
CPU  0 inst:  151000000 cyc:  179084089 now IPC :0.64335: AVG IPC :0.83659: L2-Pf-HR :0.95522: L2-HR :0.90522: (Sim:1h56m35s) 
CPU  1 inst:  151000000 cyc:  179092513 now IPC :0.64810: AVG IPC :0.83655: L2-Pf-HR :0.95829: L2-HR :0.90586: (Sim:1h56m36s) 
CPU  3 inst:  151000000 cyc:  179099902 now IPC :0.67680: AVG IPC :0.83652: L2-Pf-HR :0.94392: L2-HR :0.86873: (Sim:1h56m36s) 
CPU  2 inst:  151000000 cyc:  179137746 now IPC :0.64992: AVG IPC :0.83634: L2-Pf-HR :0.94679: L2-HR :0.88166: (Sim:1h56m38s) 
CPU  0 inst:  152000004 cyc:  180622460 now IPC :0.65004: AVG IPC :0.83500: L2-Pf-HR :0.95555: L2-HR :0.90531: (Sim:1h57m33s) 
CPU  3 inst:  152000004 cyc:  180627805 now IPC :0.65449: AVG IPC :0.83497: L2-Pf-HR :0.94437: L2-HR :0.86896: (Sim:1h57m33s) 
CPU  2 inst:  152000004 cyc:  180628765 now IPC :0.67068: AVG IPC :0.83497: L2-Pf-HR :0.94718: L2-HR :0.88182: (Sim:1h57m34s) 
CPU  1 inst:  152000004 cyc:  180632594 now IPC :0.64932: AVG IPC :0.83495: L2-Pf-HR :0.95857: L2-HR :0.90597: (Sim:1h57m34s) 
CPU  1 inst:  153000004 cyc:  181909604 now IPC :0.78308: AVG IPC :0.83458: L2-Pf-HR :0.95889: L2-HR :0.90616: (Sim:1h58m26s) 
CPU  3 inst:  153000002 cyc:  181931826 now IPC :0.76686: AVG IPC :0.83448: L2-Pf-HR :0.94491: L2-HR :0.86936: (Sim:1h58m26s) 
CPU  2 inst:  153000001 cyc:  181942161 now IPC :0.76138: AVG IPC :0.83443: L2-Pf-HR :0.94755: L2-HR :0.88196: (Sim:1h58m27s) 
CPU  0 inst:  153000001 cyc:  181952544 now IPC :0.75183: AVG IPC :0.83439: L2-Pf-HR :0.95588: L2-HR :0.90551: (Sim:1h58m27s) 
CPU  3 inst:  154000003 cyc:  183076948 now IPC :0.87327: AVG IPC :0.83473: L2-Pf-HR :0.94519: L2-HR :0.86957: (Sim:1h59m17s) 
CPU  0 inst:  154000003 cyc:  183081241 now IPC :0.88598: AVG IPC :0.83471: L2-Pf-HR :0.95605: L2-HR :0.90561: (Sim:1h59m17s) 
CPU  2 inst:  154000003 cyc:  183081701 now IPC :0.87755: AVG IPC :0.83470: L2-Pf-HR :0.94773: L2-HR :0.88203: (Sim:1h59m17s) 
CPU  1 inst:  154000003 cyc:  183083478 now IPC :0.85188: AVG IPC :0.83469: L2-Pf-HR :0.95904: L2-HR :0.90625: (Sim:1h59m17s) 
CPU  0 inst:  155000003 cyc:  184240694 now IPC :0.86248: AVG IPC :0.83488: L2-Pf-HR :0.95621: L2-HR :0.90557: (Sim:2h0m15s) 
CPU  2 inst:  155000003 cyc:  184301712 now IPC :0.81966: AVG IPC :0.83460: L2-Pf-HR :0.94780: L2-HR :0.88194: (Sim:2h0m18s) 
CPU  1 inst:  155000003 cyc:  184304542 now IPC :0.81896: AVG IPC :0.83459: L2-Pf-HR :0.95914: L2-HR :0.90618: (Sim:2h0m18s) 
CPU  3 inst:  155000003 cyc:  184323819 now IPC :0.80201: AVG IPC :0.83450: L2-Pf-HR :0.94530: L2-HR :0.86952: (Sim:2h0m19s) 
[...]
Core_0_LLC_prefetches 10521820
Core_0_LLC_prefetch_hit 7982878 LLC_prefetch_Hit Ratio: 0.75870
Core_0_LLC_prefetch_miss 2538942
Core_0_LLC_writebacks 2427518
Core_0_LLC_writeback_hit 2376015 LLC_writeback_Hit Ratio: 0.97878
Core_0_LLC_writeback_miss 51503
Core_0_LLC_prefetch_requested 0
Core_0_LLC_prefetch_issued 0
Core_0_LLC_prefetch_useful 4163930 LLC_Useful Ratio: inf
Core_0_LLC_prefetch_useless 5589347
Core_0_LLC_prefetch_late 1088100
Core_0_LLC_average_miss_latency 5796.93267

Core_0_major_page_fault 0
Core_0_minor_page_fault 28665

Core_1_instructions 491000000
Core_1_cycles 834717329
Core_1_IPC 0.58822

Core_1_branch_prediction_accuracy 99.58586
Core_1_branch_MPKI 0.12051
Core_1_average_ROB_occupancy_at_mispredict 568.35508

Core_1_L1D_total_access 155438461
Core_1_L1D_total_hit 145422917 L1D_total_Hit Ratio: 0.93557
Core_1_L1D_total_miss 10015544
Core_1_L1D_loads 142836122
Core_1_L1D_load_hit 133609221 L1D_load_Hit Ratio: 0.93540
Core_1_L1D_load_miss 9226901
Core_1_L1D_RFOs 12602339
Core_1_L1D_RFO_hit 11813696 L1D_RFO_Hit Ratio: 0.93742
Core_1_L1D_RFO_miss 788643
Core_1_L1D_prefetches 0
Core_1_L1D_prefetch_hit 0 L1D_prefetch_Hit Ratio: -nan
Core_1_L1D_prefetch_miss 0
Core_1_L1D_writebacks 0
Core_1_L1D_writeback_hit 0 L1D_writeback_Hit Ratio: -nan
Core_1_L1D_writeback_miss 0
Core_1_L1D_prefetch_requested 0
Core_1_L1D_prefetch_issued 0
Core_1_L1D_prefetch_useful 0 L1D_Useful Ratio: -nan
Core_1_L1D_prefetch_useless 0
Core_1_L1D_prefetch_late 0
Core_1_L1D_average_miss_latency 287.96798

Core_1_L1I_total_access 76252134
Core_1_L1I_total_hit 76250084 L1I_total_Hit Ratio: 0.99997
Core_1_L1I_total_miss 2050
Core_1_L1I_loads 76252134
Core_1_L1I_load_hit 76250084 L1I_load_Hit Ratio: 0.99997
Core_1_L1I_load_miss 2050
Core_1_L1I_RFOs 0
Core_1_L1I_RFO_hit 0 L1I_RFO_Hit Ratio: -nan
Core_1_L1I_RFO_miss 0
Core_1_L1I_prefetches 0
Core_1_L1I_prefetch_hit 0 L1I_prefetch_Hit Ratio: -nan
Core_1_L1I_prefetch_miss 0
Core_1_L1I_writebacks 0
Core_1_L1I_writeback_hit 0 L1I_writeback_Hit Ratio: -nan
Core_1_L1I_writeback_miss 0
Core_1_L1I_prefetch_requested 0
Core_1_L1I_prefetch_issued 0
Core_1_L1I_prefetch_useful 0 L1I_Useful Ratio: -nan
Core_1_L1I_prefetch_useless 0
Core_1_L1I_prefetch_late 0
Core_1_L1I_average_miss_latency 995.76244

Core_1_L2C_total_access 27639605
Core_1_L2C_total_hit 23450626 L2C_total_Hit Ratio: 0.84844
Core_1_L2C_total_miss 4188979
Core_1_L2C_loads 9228943
Core_1_L2C_load_hit 6760546 L2C_load_Hit Ratio: 0.73254
Core_1_L2C_load_miss 2468397
Core_1_L2C_RFOs 788643
Core_1_L2C_RFO_hit 1844 L2C_RFO_Hit Ratio: 0.00234
Core_1_L2C_RFO_miss 786799
Core_1_L2C_prefetches 14723015
Core_1_L2C_prefetch_hit 13789252 L2C_prefetch_Hit Ratio: 0.93658
Core_1_L2C_prefetch_miss 933763
Core_1_L2C_writebacks 2899004
Core_1_L2C_writeback_hit 2898984 L2C_writeback_Hit Ratio: 0.99999
Core_1_L2C_writeback_miss 20
Core_1_L2C_prefetch_requested 40015653
Core_1_L2C_prefetch_issued 36451533
Core_1_L2C_prefetch_useful 911296 L2C_Useful Ratio: 0.02500
Core_1_L2C_prefetch_useless 24976
Core_1_L2C_prefetch_late 567206
Core_1_L2C_average_miss_latency 1079.89212

Core_1_LLC_total_access 15583077
Core_1_LLC_total_hit 11412924 LLC_total_Hit Ratio: 0.73239
Core_1_LLC_total_miss 4170153
Core_1_LLC_loads 1901253
Core_1_LLC_load_hit 1071301 LLC_load_Hit Ratio: 0.56347
Core_1_LLC_load_miss 829952
Core_1_LLC_RFOs 786799
Core_1_LLC_RFO_hit 200 LLC_RFO_Hit Ratio: 0.00025
Core_1_LLC_RFO_miss 786599
Core_1_LLC_prefetches 10469551
Core_1_LLC_prefetch_hit 7968094 LLC_prefetch_Hit Ratio: 0.76107
Core_1_LLC_prefetch_miss 2501457
Core_1_LLC_writebacks 2425474
Core_1_LLC_writeback_hit 2373329 LLC_writeback_Hit Ratio: 0.97850
Core_1_LLC_writeback_miss 52145
Core_1_LLC_prefetch_requested 0
Core_1_LLC_prefetch_issued 0
Core_1_LLC_prefetch_useful 4163930 LLC_Useful Ratio: inf
Core_1_LLC_prefetch_useless 5589347
Core_1_LLC_prefetch_late 1088100
Core_1_LLC_average_miss_latency 5796.11807

Core_1_major_page_fault 0
Core_1_minor_page_fault 28665

Core_2_instructions 491000001
Core_2_cycles 834647828
Core_2_IPC 0.58827

Core_2_branch_prediction_accuracy 99.58586
Core_2_branch_MPKI 0.12048
Core_2_average_ROB_occupancy_at_mispredict 568.29288

Core_2_L1D_total_access 155466779
Core_2_L1D_total_hit 146060484 L1D_total_Hit Ratio: 0.93950
Core_2_L1D_total_miss 9406295
Core_2_L1D_loads 142864030
Core_2_L1D_load_hit 134246432 L1D_load_Hit Ratio: 0.93968
Core_2_L1D_load_miss 8617598
Core_2_L1D_RFOs 12602749
Core_2_L1D_RFO_hit 11814052 L1D_RFO_Hit Ratio: 0.93742
Core_2_L1D_RFO_miss 788697
Core_2_L1D_prefetches 0
Core_2_L1D_prefetch_hit 0 L1D_prefetch_Hit Ratio: -nan
Core_2_L1D_prefetch_miss 0
Core_2_L1D_writebacks 0
Core_2_L1D_writeback_hit 0 L1D_writeback_Hit Ratio: -nan
Core_2_L1D_writeback_miss 0
Core_2_L1D_prefetch_requested 0
Core_2_L1D_prefetch_issued 0
Core_2_L1D_prefetch_useful 0 L1D_Useful Ratio: -nan
Core_2_L1D_prefetch_useless 0
Core_2_L1D_prefetch_late 0
Core_2_L1D_average_miss_latency 305.96027

Core_2_L1I_total_access 76816344
Core_2_L1I_total_hit 76814299 L1I_total_Hit Ratio: 0.99997
Core_2_L1I_total_miss 2045
Core_2_L1I_loads 76816344
Core_2_L1I_load_hit 76814299 L1I_load_Hit Ratio: 0.99997
Core_2_L1I_load_miss 2045
Core_2_L1I_RFOs 0
Core_2_L1I_RFO_hit 0 L1I_RFO_Hit Ratio: -nan
Core_2_L1I_RFO_miss 0
Core_2_L1I_prefetches 0
Core_2_L1I_prefetch_hit 0 L1I_prefetch_Hit Ratio: -nan
Core_2_L1I_prefetch_miss 0
Core_2_L1I_writebacks 0
Core_2_L1I_writeback_hit 0 L1I_writeback_Hit Ratio: -nan
Core_2_L1I_writeback_miss 0
Core_2_L1I_prefetch_requested 0
Core_2_L1I_prefetch_issued 0
Core_2_L1I_prefetch_useful 0 L1I_Useful Ratio: -nan
Core_2_L1I_prefetch_useless 0
Core_2_L1I_prefetch_late 0
Core_2_L1I_average_miss_latency 1072.61027

Core_2_L2C_total_access 25683749
Core_2_L2C_total_hit 21496681 L2C_total_Hit Ratio: 0.83698
Core_2_L2C_total_miss 4187068
Core_2_L2C_loads 8619640
Core_2_L2C_load_hit 6137974 L2C_load_Hit Ratio: 0.71209
Core_2_L2C_load_miss 2481666
Core_2_L2C_RFOs 788697
Core_2_L2C_RFO_hit 1863 L2C_RFO_Hit Ratio: 0.00236
Core_2_L2C_RFO_miss 786834
Core_2_L2C_prefetches 13376788
Core_2_L2C_prefetch_hit 12458243 L2C_prefetch_Hit Ratio: 0.93133
Core_2_L2C_prefetch_miss 918545
Core_2_L2C_writebacks 2898624
Core_2_L2C_writeback_hit 2898601 L2C_writeback_Hit Ratio: 0.99999
Core_2_L2C_writeback_miss 23
Core_2_L2C_prefetch_requested 38055757
Core_2_L2C_prefetch_issued 34552409
Core_2_L2C_prefetch_useful 897253 L2C_Useful Ratio: 0.02597
Core_2_L2C_prefetch_useless 23832
Core_2_L2C_prefetch_late 567777
Core_2_L2C_average_miss_latency 1037.73567

Core_2_LLC_total_access 15521269
Core_2_LLC_total_hit 11346592 LLC_total_Hit Ratio: 0.73104
Core_2_LLC_total_miss 4174677
Core_2_LLC_loads 1913975
Core_2_LLC_load_hit 1051131 LLC_load_Hit Ratio: 0.54919
Core_2_LLC_load_miss 862844
Core_2_LLC_RFOs 786834
Core_2_LLC_RFO_hit 242 LLC_RFO_Hit Ratio: 0.00031
Core_2_LLC_RFO_miss 786592
Core_2_LLC_prefetches 10393851
Core_2_LLC_prefetch_hit 7925237 LLC_prefetch_Hit Ratio: 0.76249
Core_2_LLC_prefetch_miss 2468614
Core_2_LLC_writebacks 2426609
Core_2_LLC_writeback_hit 2369982 LLC_writeback_Hit Ratio: 0.97666
Core_2_LLC_writeback_miss 56627
Core_2_LLC_prefetch_requested 0
Core_2_LLC_prefetch_issued 0
Core_2_LLC_prefetch_useful 4163930 LLC_Useful Ratio: inf
Core_2_LLC_prefetch_useless 5589347
Core_2_LLC_prefetch_late 1088100
Core_2_LLC_average_miss_latency 5789.83695

Core_2_major_page_fault 0
Core_2_minor_page_fault 28665

Core_3_instructions 491000002
Core_3_cycles 832596384
Core_3_IPC 0.58972

Core_3_branch_prediction_accuracy 99.58498
Core_3_branch_MPKI 0.12005
Core_3_average_ROB_occupancy_at_mispredict 566.99158

Core_3_L1D_total_access 155494374
Core_3_L1D_total_hit 146336658 L1D_total_Hit Ratio: 0.94111
Core_3_L1D_total_miss 9157716
Core_3_L1D_loads 142892377
Core_3_L1D_load_hit 134523703 L1D_load_Hit Ratio: 0.94143
Core_3_L1D_load_miss 8368674
Core_3_L1D_RFOs 12601997
Core_3_L1D_RFO_hit 11812955 L1D_RFO_Hit Ratio: 0.93739
Core_3_L1D_RFO_miss 789042
Core_3_L1D_prefetches 0
Core_3_L1D_prefetch_hit 0 L1D_prefetch_Hit Ratio: -nan
Core_3_L1D_prefetch_miss 0
Core_3_L1D_writebacks 0
Core_3_L1D_writeback_hit 0 L1D_writeback_Hit Ratio: -nan
Core_3_L1D_writeback_miss 0
Core_3_L1D_prefetch_requested 0
Core_3_L1D_prefetch_issued 0
Core_3_L1D_prefetch_useful 0 L1D_Useful Ratio: -nan
Core_3_L1D_prefetch_useless 0
Core_3_L1D_prefetch_late 0
Core_3_L1D_average_miss_latency 312.54225

Core_3_L1I_total_access 77146201
Core_3_L1I_total_hit 77144102 L1I_total_Hit Ratio: 0.99997
Core_3_L1I_total_miss 2099
Core_3_L1I_loads 77146201
Core_3_L1I_load_hit 77144102 L1I_load_Hit Ratio: 0.99997
Core_3_L1I_load_miss 2099
Core_3_L1I_RFOs 0
Core_3_L1I_RFO_hit 0 L1I_RFO_Hit Ratio: -nan
Core_3_L1I_RFO_miss 0
Core_3_L1I_prefetches 0
Core_3_L1I_prefetch_hit 0 L1I_prefetch_Hit Ratio: -nan
Core_3_L1I_prefetch_miss 0
Core_3_L1I_writebacks 0
Core_3_L1I_writeback_hit 0 L1I_writeback_Hit Ratio: -nan
Core_3_L1I_writeback_miss 0
Core_3_L1I_prefetch_requested 0
Core_3_L1I_prefetch_issued 0
Core_3_L1I_prefetch_useful 0 L1I_Useful Ratio: -nan
Core_3_L1I_prefetch_useless 0
Core_3_L1I_prefetch_late 0
Core_3_L1I_average_miss_latency 1039.96379

Core_3_L2C_total_access 24883513
Core_3_L2C_total_hit 20696560 L2C_total_Hit Ratio: 0.83174
Core_3_L2C_total_miss 4186953
Core_3_L2C_loads 8370767
Core_3_L2C_load_hit 5868173 L2C_load_Hit Ratio: 0.70103
Core_3_L2C_load_miss 2502594
Core_3_L2C_RFOs 789042
Core_3_L2C_RFO_hit 2252 L2C_RFO_Hit Ratio: 0.00285
Core_3_L2C_RFO_miss 786790
Core_3_L2C_prefetches 12824381
Core_3_L2C_prefetch_hit 11926826 L2C_prefetch_Hit Ratio: 0.93001
Core_3_L2C_prefetch_miss 897555
Core_3_L2C_writebacks 2899323
Core_3_L2C_writeback_hit 2899309 L2C_writeback_Hit Ratio: 1.00000
Core_3_L2C_writeback_miss 14
Core_3_L2C_prefetch_requested 37672233
Core_3_L2C_prefetch_issued 34096316
Core_3_L2C_prefetch_useful 883191 L2C_Useful Ratio: 0.02590
Core_3_L2C_prefetch_useless 24689
Core_3_L2C_prefetch_late 568434
Core_3_L2C_average_miss_latency 955.40366

Core_3_LLC_total_access 15466241
Core_3_LLC_total_hit 11301240 LLC_total_Hit Ratio: 0.73070
Core_3_LLC_total_miss 4165001
Core_3_LLC_loads 1934451
Core_3_LLC_load_hit 1032664 LLC_load_Hit Ratio: 0.53383
Core_3_LLC_load_miss 901787
Core_3_LLC_RFOs 786789
Core_3_LLC_RFO_hit 195 LLC_RFO_Hit Ratio: 0.00025
Core_3_LLC_RFO_miss 786594
Core_3_LLC_prefetches 10319438
Core_3_LLC_prefetch_hit 7888847 LLC_prefetch_Hit Ratio: 0.76446
Core_3_LLC_prefetch_miss 2430591
Core_3_LLC_writebacks 2425563
Core_3_LLC_writeback_hit 2379534 LLC_writeback_Hit Ratio: 0.98102
Core_3_LLC_writeback_miss 46029
Core_3_LLC_prefetch_requested 0
Core_3_LLC_prefetch_issued 0
Core_3_LLC_prefetch_useful 4163930 LLC_Useful Ratio: inf
Core_3_LLC_prefetch_useless 5589347
Core_3_LLC_prefetch_late 1088100
Core_3_LLC_average_miss_latency 5803.28772

Core_3_major_page_fault 0
Core_3_minor_page_fault 28704

 All Calls: 35539891
 Critical Calls: 35539891
------------------
Depth Distribution
------------------
depth 0: 0
depth 1: 30380408
depth 2: 27862859
depth 3: 21418820
depth 4: 16884679
depth 5: 13654076
depth 6: 8378372
depth 7: 6182610
depth 8: 5399449
depth 9: 4424655
depth 10: 3287148
depth 11: 2185670
depth 12: 1031563
depth 13: 589765
depth 14: 25460
depth 15: 24885
depth 16: 0
depth 17: 0
depth 18: 0
depth 19: 0
depth 20: 0
depth 21: 0
depth 22: 0
depth 23: 0
depth 24: 0
depth 25: 0
depth 26: 0
depth 27: 0
depth 28: 0
depth 29: 0
Total: 141730419
-----------------------------
-----------------------------
	Captured at Filter
-----------------------------
depth 0: 0
depth 1: 1440988
depth 2: 1223689
depth 3: 868718
depth 4: 581716
depth 5: 419457
depth 6: 168063
depth 7: 49046
depth 8: 34377
depth 9: 27389
depth 10: 19238
depth 11: 11924
depth 12: 5011
depth 13: 2615
depth 14: 114
depth 15: 101
depth 16: 0
depth 17: 0
depth 18: 0
depth 19: 0
depth 20: 0
depth 21: 0
depth 22: 0
depth 23: 0
depth 24: 0
depth 25: 0
depth 26: 0
depth 27: 0
depth 28: 0
depth 29: 0
-----------------------------
-----------------------------
		Lost at Page
-----------------------------
depth 0: 0
depth 1: 850224
depth 2: 1223401
depth 3: 1362817
depth 4: 1372447
depth 5: 1424386
depth 6: 1152838
depth 7: 892534
depth 8: 844174
depth 9: 790322
depth 10: 656813
depth 11: 481246
depth 12: 246918
depth 13: 154563
depth 14: 6916
depth 15: 7451
depth 16: 0
depth 17: 0
depth 18: 0
depth 19: 0
depth 20: 0
depth 21: 0
depth 22: 0
depth 23: 0
depth 24: 0
depth 25: 0
depth 26: 0
depth 27: 0
depth 28: 0
depth 29: 0
-----------------------------
-----------------------------
	Lost due to PQ Size
-----------------------------
13715454
-----------------------------
ST read accesses: 32719314
ST write accesses: 2669924
PT read accesses: 1031742624
PT write accesses: 45981935
FILTER read accesses: 211787650
FILTER write accesses: 51367408
GHR read accesses: 88074993
GHR write accesses: 11431570
GHR counter read accesses: 891091256
GHR counter write accesses: 72637858
ST tag read accesses: 14975029823
ST tag write accesses: 1174820477
 All Calls: 35539891
 Critical Calls: 35539891
------------------
Depth Distribution
------------------
depth 0: 0
depth 1: 30380408
depth 2: 27862859
depth 3: 21418820
depth 4: 16884679
depth 5: 13654076
depth 6: 8378372
depth 7: 6182610
depth 8: 5399449
depth 9: 4424655
depth 10: 3287148
depth 11: 2185670
depth 12: 1031563
depth 13: 589765
depth 14: 25460
depth 15: 24885
depth 16: 0
depth 17: 0
depth 18: 0
depth 19: 0
depth 20: 0
depth 21: 0
depth 22: 0
depth 23: 0
depth 24: 0
depth 25: 0
depth 26: 0
depth 27: 0
depth 28: 0
depth 29: 0
Total: 141730419
-----------------------------
-----------------------------
	Captured at Filter
-----------------------------
depth 0: 0
depth 1: 1440988
depth 2: 1223689
depth 3: 868718
depth 4: 581716
depth 5: 419457
depth 6: 168063
depth 7: 49046
depth 8: 34377
depth 9: 27389
depth 10: 19238
depth 11: 11924
depth 12: 5011
depth 13: 2615
depth 14: 114
depth 15: 101
depth 16: 0
depth 17: 0
depth 18: 0
depth 19: 0
depth 20: 0
depth 21: 0
depth 22: 0
depth 23: 0
depth 24: 0
depth 25: 0
depth 26: 0
depth 27: 0
depth 28: 0
depth 29: 0
-----------------------------
-----------------------------
		Lost at Page
-----------------------------
depth 0: 0
depth 1: 850224
depth 2: 1223401
depth 3: 1362817
depth 4: 1372447
depth 5: 1424386
depth 6: 1152838
depth 7: 892534
depth 8: 844174
depth 9: 790322
depth 10: 656813
depth 11: 481246
depth 12: 246918
depth 13: 154563
depth 14: 6916
depth 15: 7451
depth 16: 0
depth 17: 0
depth 18: 0
depth 19: 0
depth 20: 0
depth 21: 0
depth 22: 0
depth 23: 0
depth 24: 0
depth 25: 0
depth 26: 0
depth 27: 0
depth 28: 0
depth 29: 0
-----------------------------
-----------------------------
	Lost due to PQ Size
-----------------------------
13715454
-----------------------------
ST read accesses: 32719314
ST write accesses: 2669924
PT read accesses: 1031742624
PT write accesses: 45981935
FILTER read accesses: 211787650
FILTER write accesses: 51367408
GHR read accesses: 88074993
GHR write accesses: 11431570
GHR counter read accesses: 891091256
GHR counter write accesses: 72637858
ST tag read accesses: 14975029823
ST tag write accesses: 1174820477
 All Calls: 35539891
 Critical Calls: 35539891
------------------
Depth Distribution
------------------
depth 0: 0
depth 1: 30380408
depth 2: 27862859
depth 3: 21418820
depth 4: 16884679
depth 5: 13654076
depth 6: 8378372
depth 7: 6182610
depth 8: 5399449
depth 9: 4424655
depth 10: 3287148
depth 11: 2185670
depth 12: 1031563
depth 13: 589765
depth 14: 25460
depth 15: 24885
depth 16: 0
depth 17: 0
depth 18: 0
depth 19: 0
depth 20: 0
depth 21: 0
depth 22: 0
depth 23: 0
depth 24: 0
depth 25: 0
depth 26: 0
depth 27: 0
depth 28: 0
depth 29: 0
Total: 141730419
-----------------------------
-----------------------------
	Captured at Filter
-----------------------------
depth 0: 0
depth 1: 1440988
depth 2: 1223689
depth 3: 868718
depth 4: 581716
depth 5: 419457
depth 6: 168063
depth 7: 49046
depth 8: 34377
depth 9: 27389
depth 10: 19238
depth 11: 11924
depth 12: 5011
depth 13: 2615
depth 14: 114
depth 15: 101
depth 16: 0
depth 17: 0
depth 18: 0
depth 19: 0
depth 20: 0
depth 21: 0
depth 22: 0
depth 23: 0
depth 24: 0
depth 25: 0
depth 26: 0
depth 27: 0
depth 28: 0
depth 29: 0
-----------------------------
-----------------------------
		Lost at Page
-----------------------------
depth 0: 0
depth 1: 850224
depth 2: 1223401
depth 3: 1362817
depth 4: 1372447
depth 5: 1424386
depth 6: 1152838
depth 7: 892534
depth 8: 844174
depth 9: 790322
depth 10: 656813
depth 11: 481246
depth 12: 246918
depth 13: 154563
depth 14: 6916
depth 15: 7451
depth 16: 0
depth 17: 0
depth 18: 0
depth 19: 0
depth 20: 0
depth 21: 0
depth 22: 0
depth 23: 0
depth 24: 0
depth 25: 0
depth 26: 0
depth 27: 0
depth 28: 0
depth 29: 0
-----------------------------
-----------------------------
	Lost due to PQ Size
-----------------------------
13715454
-----------------------------
ST read accesses: 32719314
ST write accesses: 2669924
PT read accesses: 1031742624
PT write accesses: 45981935
FILTER read accesses: 211787650
FILTER write accesses: 51367408
GHR read accesses: 88074993
GHR write accesses: 11431570
GHR counter read accesses: 891091256
GHR counter write accesses: 72637858
ST tag read accesses: 14975029823
ST tag write accesses: 1174820477
 All Calls: 35539891
 Critical Calls: 35539891
------------------
Depth Distribution
------------------
depth 0: 0
depth 1: 30380408
depth 2: 27862859
depth 3: 21418820
depth 4: 16884679
depth 5: 13654076
depth 6: 8378372
depth 7: 6182610
depth 8: 5399449
depth 9: 4424655
depth 10: 3287148
depth 11: 2185670
depth 12: 1031563
depth 13: 589765
depth 14: 25460
depth 15: 24885
depth 16: 0
depth 17: 0
depth 18: 0
depth 19: 0
depth 20: 0
depth 21: 0
depth 22: 0
depth 23: 0
depth 24: 0
depth 25: 0
depth 26: 0
depth 27: 0
depth 28: 0
depth 29: 0
Total: 141730419
-----------------------------
-----------------------------
	Captured at Filter
-----------------------------
depth 0: 0
depth 1: 1440988
depth 2: 1223689
depth 3: 868718
depth 4: 581716
depth 5: 419457
depth 6: 168063
depth 7: 49046
depth 8: 34377
depth 9: 27389
depth 10: 19238
depth 11: 11924
depth 12: 5011
depth 13: 2615
depth 14: 114
depth 15: 101
depth 16: 0
depth 17: 0
depth 18: 0
depth 19: 0
depth 20: 0
depth 21: 0
depth 22: 0
depth 23: 0
depth 24: 0
depth 25: 0
depth 26: 0
depth 27: 0
depth 28: 0
depth 29: 0
-----------------------------
-----------------------------
		Lost at Page
-----------------------------
depth 0: 0
depth 1: 850224
depth 2: 1223401
depth 3: 1362817
depth 4: 1372447
depth 5: 1424386
depth 6: 1152838
depth 7: 892534
depth 8: 844174
depth 9: 790322
depth 10: 656813
depth 11: 481246
depth 12: 246918
depth 13: 154563
depth 14: 6916
depth 15: 7451
depth 16: 0
depth 17: 0
depth 18: 0
depth 19: 0
depth 20: 0
depth 21: 0
depth 22: 0
depth 23: 0
depth 24: 0
depth 25: 0
depth 26: 0
depth 27: 0
depth 28: 0
depth 29: 0
-----------------------------
-----------------------------
	Lost due to PQ Size
-----------------------------
13715454
-----------------------------
ST read accesses: 32719314
ST write accesses: 2669924
PT read accesses: 1031742624
PT write accesses: 45981935
FILTER read accesses: 211787650
FILTER write accesses: 51367408
GHR read accesses: 88074993
GHR write accesses: 11431570
GHR counter read accesses: 891091256
GHR counter write accesses: 72637858
ST tag read accesses: 14975029823
ST tag write accesses: 1174820477
Channel_0_RQ_row_buffer_hit 6116351
Channel_0_RQ_row_buffer_miss 10368370
Channel_0_WQ_row_buffer_hit 2868330
Channel_0_WQ_row_buffer_miss 6758745
Channel_0_WQ_full 11364
Channel_0_dbus_congested 15309039

avg_congested_cycle 8

EzSearch AVG IPC :0.58854: L2-Pf-HR :0.93552 : L2-HR :0.84780 Uful:0.02538
EzSearch AVG IPC :0.58822: L2-Pf-HR :0.93658 : L2-HR :0.84844 Uful:0.02500
EzSearch AVG IPC :0.58827: L2-Pf-HR :0.93133 : L2-HR :0.83704 Uful:0.02597
EzSearch AVG IPC :0.58972: L2-Pf-HR :0.93001 : L2-HR :0.83283 Uful:0.02590
     > Finished combination: TraceType=770-tot Sim:491000000 Prefetcher=L2spp_berti_src L1=no
