TRACE: [662000000][OPT-350M]_[h16][s1024][d64] Warmup: 2000000 NumTraces: 662000000
L1:no:L2:no
*************************************************
   ChampSim Multicore Out-of-Order Simulator
   Last compiled: Oct 29 2024 05:25:45
*************************************************

trace_0 770-tot_memTraces_v3/memTraces[662000000][OPT-350M]_[h16][s1024][d64].champsim.xz
trace_1 770-tot_memTraces_v3/memTraces[662000000][OPT-350M]_[h16][s1024][d64].champsim.xz
trace_2 770-tot_memTraces_v3/memTraces[662000000][OPT-350M]_[h16][s1024][d64].champsim.xz
trace_3 770-tot_memTraces_v3/memTraces[662000000][OPT-350M]_[h16][s1024][d64].champsim.xz
MAIN.cc ln 751 stats print skipped
CPU  3 inst:    1000001 cyc:     498340 now IPC :2.00666: AVG IPC :2.00666: L2-Pf-HR :-nan: L2-HR :0.54667: (Sim:0h0m47s) 
CPU  2 inst:    1000001 cyc:     498420 now IPC :2.00634: AVG IPC :2.00634: L2-Pf-HR :-nan: L2-HR :0.55524: (Sim:0h0m47s) 
CPU  0 inst:    1000001 cyc:     498517 now IPC :2.00595: AVG IPC :2.00595: L2-Pf-HR :-nan: L2-HR :0.57628: (Sim:0h0m47s) 
CPU  1 inst:    1000001 cyc:     498524 now IPC :2.00592: AVG IPC :2.00592: L2-Pf-HR :-nan: L2-HR :0.56735: (Sim:0h0m47s) 
CPU  3 inst:    2000000 cyc:     981304 now IPC :2.07055: AVG IPC :2.03810: L2-Pf-HR :-nan: L2-HR :0.60513: (Sim:0h1m36s) 
CPU  2 inst:    2000000 cyc:     981440 now IPC :2.07031: AVG IPC :2.03782: L2-Pf-HR :-nan: L2-HR :0.63459: (Sim:0h1m36s) 
CPU  0 inst:    2000000 cyc:     981546 now IPC :2.07027: AVG IPC :2.03760: L2-Pf-HR :-nan: L2-HR :0.62428: (Sim:0h1m36s) 
CPU  1 inst:    2000000 cyc:     981561 now IPC :2.07023: AVG IPC :2.03757: L2-Pf-HR :-nan: L2-HR :0.61639: (Sim:0h1m36s) 

Warmup complete CPU  0 instructions:    2000042 cycles:     981562 (Simulation time: 0 hr 1 min 36 sec) 
Warmup complete CPU  1 instructions:    2000001 cycles:     981562 (Simulation time: 0 hr 1 min 36 sec) 
Warmup complete CPU  2 instructions:    2000280 cycles:     981561 (Simulation time: 0 hr 1 min 36 sec) 
Warmup complete CPU  3 instructions:    2000493 cycles:     981561 (Simulation time: 0 hr 1 min 36 sec) 

CPU  2 inst:    3000000 cyc:    1910809 now IPC :1.07600: AVG IPC :1.07584: L2-Pf-HR :-nan: L2-HR :0.73616: (Sim:0h2m27s) 
CPU  0 inst:    3000000 cyc:    1915465 now IPC :1.07076: AVG IPC :1.07073: L2-Pf-HR :-nan: L2-HR :0.70228: (Sim:0h2m28s) 
CPU  1 inst:    3000000 cyc:    1915669 now IPC :1.07054: AVG IPC :1.07054: L2-Pf-HR :-nan: L2-HR :0.73531: (Sim:0h2m28s) 
CPU  3 inst:    3000000 cyc:    1919209 now IPC :1.06621: AVG IPC :1.06597: L2-Pf-HR :-nan: L2-HR :0.71334: (Sim:0h2m28s) 
CPU  2 inst:    4000002 cyc:    2877729 now IPC :1.03421: AVG IPC :1.05461: L2-Pf-HR :-nan: L2-HR :0.74263: (Sim:0h3m18s) 
CPU  1 inst:    4000002 cyc:    2877949 now IPC :1.03920: AVG IPC :1.05464: L2-Pf-HR :-nan: L2-HR :0.73271: (Sim:0h3m18s) 
CPU  3 inst:    4000002 cyc:    2887953 now IPC :1.03227: AVG IPC :1.04884: L2-Pf-HR :-nan: L2-HR :0.70797: (Sim:0h3m19s) 
CPU  0 inst:    4000002 cyc:    2889067 now IPC :1.02712: AVG IPC :1.04847: L2-Pf-HR :-nan: L2-HR :0.69373: (Sim:0h3m19s) 
CPU  2 inst:    5000005 cyc:    3805829 now IPC :1.07747: AVG IPC :1.06212: L2-Pf-HR :-nan: L2-HR :0.75111: (Sim:0h4m8s) 
CPU  1 inst:    5000003 cyc:    3806856 now IPC :1.07654: AVG IPC :1.06184: L2-Pf-HR :-nan: L2-HR :0.73285: (Sim:0h4m8s) 
CPU  3 inst:    5000005 cyc:    3826273 now IPC :1.06574: AVG IPC :1.05442: L2-Pf-HR :-nan: L2-HR :0.70802: (Sim:0h4m9s) 
CPU  0 inst:    5000005 cyc:    3827185 now IPC :1.06597: AVG IPC :1.05424: L2-Pf-HR :-nan: L2-HR :0.70780: (Sim:0h4m9s) 
CPU  2 inst:    6000004 cyc:    4684357 now IPC :1.13827: AVG IPC :1.08019: L2-Pf-HR :-nan: L2-HR :0.75146: (Sim:0h4m54s) 
CPU  1 inst:    6000004 cyc:    4685140 now IPC :1.13858: AVG IPC :1.08004: L2-Pf-HR :-nan: L2-HR :0.72978: (Sim:0h4m54s) 
CPU  3 inst:    6000004 cyc:    4738978 now IPC :1.09564: AVG IPC :1.06443: L2-Pf-HR :-nan: L2-HR :0.69947: (Sim:0h4m55s) 
CPU  0 inst:    6000004 cyc:    4739291 now IPC :1.09636: AVG IPC :1.06446: L2-Pf-HR :-nan: L2-HR :0.70465: (Sim:0h4m55s) 
CPU  1 inst:    7000001 cyc:    5532281 now IPC :1.18044: AVG IPC :1.09873: L2-Pf-HR :-nan: L2-HR :0.73337: (Sim:0h5m25s) 
CPU  2 inst:    7000001 cyc:    5533020 now IPC :1.17832: AVG IPC :1.09849: L2-Pf-HR :-nan: L2-HR :0.75245: (Sim:0h5m25s) 
CPU  3 inst:    7000001 cyc:    5593508 now IPC :1.17023: AVG IPC :1.08403: L2-Pf-HR :-nan: L2-HR :0.70531: (Sim:0h5m27s) 
CPU  0 inst:    7000001 cyc:    5596852 now IPC :1.16609: AVG IPC :1.08335: L2-Pf-HR :-nan: L2-HR :0.71550: (Sim:0h5m28s) 
CPU  1 inst:    8000001 cyc:    6231610 now IPC :1.42994: AVG IPC :1.14285: L2-Pf-HR :-nan: L2-HR :0.73190: (Sim:0h5m52s) 
CPU  2 inst:    8000001 cyc:    6232516 now IPC :1.42960: AVG IPC :1.14260: L2-Pf-HR :-nan: L2-HR :0.75577: (Sim:0h5m52s) 
CPU  3 inst:    8000001 cyc:    6310667 now IPC :1.39439: AVG IPC :1.12580: L2-Pf-HR :-nan: L2-HR :0.71105: (Sim:0h5m55s) 
CPU  0 inst:    8000001 cyc:    6312779 now IPC :1.39679: AVG IPC :1.12544: L2-Pf-HR :-nan: L2-HR :0.72053: (Sim:0h5m55s) 
CPU  1 inst:    9000003 cyc:    6916116 now IPC :1.46091: AVG IPC :1.17953: L2-Pf-HR :-nan: L2-HR :0.73125: (Sim:0h6m19s) 
CPU  2 inst:    9000003 cyc:    6916900 now IPC :1.46117: AVG IPC :1.17933: L2-Pf-HR :-nan: L2-HR :0.75813: (Sim:0h6m19s) 
CPU  3 inst:    9000003 cyc:    6995524 now IPC :1.46016: AVG IPC :1.16388: L2-Pf-HR :-nan: L2-HR :0.71711: (Sim:0h6m23s) 
CPU  0 inst:    9000003 cyc:    6996175 now IPC :1.46328: AVG IPC :1.16383: L2-Pf-HR :-nan: L2-HR :0.72338: (Sim:0h6m23s) 
CPU  1 inst:   10000000 cyc:    7579158 now IPC :1.50820: AVG IPC :1.21256: L2-Pf-HR :-nan: L2-HR :0.73398: (Sim:0h6m48s) 
CPU  2 inst:   10000000 cyc:    7579943 now IPC :1.50819: AVG IPC :1.21238: L2-Pf-HR :-nan: L2-HR :0.75963: (Sim:0h6m48s) 
CPU  3 inst:   10000000 cyc:    7670256 now IPC :1.48207: AVG IPC :1.19597: L2-Pf-HR :-nan: L2-HR :0.72061: (Sim:0h6m52s) 
CPU  0 inst:   10000000 cyc:    7670903 now IPC :1.48207: AVG IPC :1.19593: L2-Pf-HR :-nan: L2-HR :0.72363: (Sim:0h6m52s) 
CPU  1 inst:   11000005 cyc:    8220008 now IPC :1.56044: AVG IPC :1.24336: L2-Pf-HR :-nan: L2-HR :0.73779: (Sim:0h7m17s) 
CPU  2 inst:   11000005 cyc:    8220440 now IPC :1.56130: AVG IPC :1.24325: L2-Pf-HR :-nan: L2-HR :0.76239: (Sim:0h7m17s) 
CPU  3 inst:   11000005 cyc:    8327297 now IPC :1.52198: AVG IPC :1.22513: L2-Pf-HR :-nan: L2-HR :0.72336: (Sim:0h7m22s) 
CPU  0 inst:   11000005 cyc:    8327611 now IPC :1.52275: AVG IPC :1.22514: L2-Pf-HR :-nan: L2-HR :0.73012: (Sim:0h7m22s) 
CPU  1 inst:   12000005 cyc:    8858462 now IPC :1.56628: AVG IPC :1.26954: L2-Pf-HR :-nan: L2-HR :0.73850: (Sim:0h7m49s) 
CPU  2 inst:   12000005 cyc:    8858924 now IPC :1.56621: AVG IPC :1.26943: L2-Pf-HR :-nan: L2-HR :0.76419: (Sim:0h7m49s) 
CPU  3 inst:   12000005 cyc:    8984127 now IPC :1.52246: AVG IPC :1.24954: L2-Pf-HR :-nan: L2-HR :0.72169: (Sim:0h7m54s) 
CPU  0 inst:   12000005 cyc:    8984431 now IPC :1.52249: AVG IPC :1.24955: L2-Pf-HR :-nan: L2-HR :0.73129: (Sim:0h7m54s) 
CPU  1 inst:   13000004 cyc:    9575751 now IPC :1.39414: AVG IPC :1.27994: L2-Pf-HR :-nan: L2-HR :0.73716: (Sim:0h8m17s) 
CPU  2 inst:   13000004 cyc:    9576354 now IPC :1.39386: AVG IPC :1.27981: L2-Pf-HR :-nan: L2-HR :0.76489: (Sim:0h8m17s) 
CPU  3 inst:   13000004 cyc:    9691629 now IPC :1.41342: AVG IPC :1.26285: L2-Pf-HR :-nan: L2-HR :0.72080: (Sim:0h8m22s) 
CPU  0 inst:   13000004 cyc:    9691848 now IPC :1.41359: AVG IPC :1.26287: L2-Pf-HR :-nan: L2-HR :0.72959: (Sim:0h8m22s) 
CPU  1 inst:   14000003 cyc:   10219628 now IPC :1.55309: AVG IPC :1.29897: L2-Pf-HR :-nan: L2-HR :0.73317: (Sim:0h8m59s) 
CPU  2 inst:   14000000 cyc:   10220209 now IPC :1.55314: AVG IPC :1.29886: L2-Pf-HR :-nan: L2-HR :0.75977: (Sim:0h8m59s) 
CPU  3 inst:   14000000 cyc:   10319049 now IPC :1.59382: AVG IPC :1.28509: L2-Pf-HR :-nan: L2-HR :0.71880: (Sim:0h9m6s) 
CPU  0 inst:   14000000 cyc:   10319727 now IPC :1.59266: AVG IPC :1.28504: L2-Pf-HR :-nan: L2-HR :0.72933: (Sim:0h9m6s) 
CPU  1 inst:   15000005 cyc:   10861012 now IPC :1.55913: AVG IPC :1.31586: L2-Pf-HR :-nan: L2-HR :0.73169: (Sim:0h9m44s) 
CPU  2 inst:   15000005 cyc:   10861679 now IPC :1.55893: AVG IPC :1.31575: L2-Pf-HR :-nan: L2-HR :0.75552: (Sim:0h9m44s) 
CPU  3 inst:   15000005 cyc:   10946656 now IPC :1.59336: AVG IPC :1.30450: L2-Pf-HR :-nan: L2-HR :0.71636: (Sim:0h9m50s) 
CPU  0 inst:   15000005 cyc:   10946969 now IPC :1.59429: AVG IPC :1.30451: L2-Pf-HR :-nan: L2-HR :0.72801: (Sim:0h9m50s) 
CPU  1 inst:   16000000 cyc:   11499621 now IPC :1.56590: AVG IPC :1.33104: L2-Pf-HR :-nan: L2-HR :0.73253: (Sim:0h10m29s) 
CPU  2 inst:   16000000 cyc:   11500125 now IPC :1.56630: AVG IPC :1.33095: L2-Pf-HR :-nan: L2-HR :0.75165: (Sim:0h10m29s) 
CPU  3 inst:   16000000 cyc:   11573491 now IPC :1.59531: AVG IPC :1.32171: L2-Pf-HR :-nan: L2-HR :0.71449: (Sim:0h10m34s) 
CPU  0 inst:   16000000 cyc:   11574013 now IPC :1.59478: AVG IPC :1.32169: L2-Pf-HR :-nan: L2-HR :0.72948: (Sim:0h10m34s) 
CPU  2 inst:   17000005 cyc:   12353602 now IPC :1.17168: AVG IPC :1.31900: L2-Pf-HR :-nan: L2-HR :0.74949: (Sim:0h11m18s) 
CPU  1 inst:   17000002 cyc:   12359335 now IPC :1.16318: AVG IPC :1.31836: L2-Pf-HR :-nan: L2-HR :0.73157: (Sim:0h11m18s) 
CPU  3 inst:   17000005 cyc:   12420632 now IPC :1.18045: AVG IPC :1.31125: L2-Pf-HR :-nan: L2-HR :0.71326: (Sim:0h11m22s) 
CPU  0 inst:   17000002 cyc:   12421658 now IPC :1.17974: AVG IPC :1.31117: L2-Pf-HR :-nan: L2-HR :0.73055: (Sim:0h11m22s) 
CPU  2 inst:   18000000 cyc:   13162786 now IPC :1.23581: AVG IPC :1.31347: L2-Pf-HR :-nan: L2-HR :0.75087: (Sim:0h12m5s) 
CPU  1 inst:   18000000 cyc:   13184926 now IPC :1.21125: AVG IPC :1.31111: L2-Pf-HR :-nan: L2-HR :0.73291: (Sim:0h12m6s) 
CPU  3 inst:   18000000 cyc:   13236687 now IPC :1.22540: AVG IPC :1.30554: L2-Pf-HR :-nan: L2-HR :0.71649: (Sim:0h12m10s) 
CPU  0 inst:   18000000 cyc:   13237295 now IPC :1.22603: AVG IPC :1.30551: L2-Pf-HR :-nan: L2-HR :0.73240: (Sim:0h12m10s) 
CPU  2 inst:   19000001 cyc:   13898188 now IPC :1.35980: AVG IPC :1.31611: L2-Pf-HR :-nan: L2-HR :0.75242: (Sim:0h12m50s) 
CPU  1 inst:   19000001 cyc:   13958533 now IPC :1.29265: AVG IPC :1.31001: L2-Pf-HR :-nan: L2-HR :0.73340: (Sim:0h12m54s) 
CPU  3 inst:   19000001 cyc:   14003499 now IPC :1.30410: AVG IPC :1.30545: L2-Pf-HR :-nan: L2-HR :0.71937: (Sim:0h12m57s) 
CPU  0 inst:   19000001 cyc:   14003909 now IPC :1.30444: AVG IPC :1.30545: L2-Pf-HR :-nan: L2-HR :0.73244: (Sim:0h12m57s) 
CPU  2 inst:   20000001 cyc:   14573785 now IPC :1.48017: AVG IPC :1.32427: L2-Pf-HR :-nan: L2-HR :0.75378: (Sim:0h13m30s) 
CPU  1 inst:   20000001 cyc:   14673587 now IPC :1.39850: AVG IPC :1.31463: L2-Pf-HR :-nan: L2-HR :0.73623: (Sim:0h13m36s) 
CPU  3 inst:   20000001 cyc:   14724434 now IPC :1.38709: AVG IPC :1.30973: L2-Pf-HR :-nan: L2-HR :0.72214: (Sim:0h13m39s) 
CPU  0 inst:   20000001 cyc:   14725965 now IPC :1.38493: AVG IPC :1.30962: L2-Pf-HR :-nan: L2-HR :0.73184: (Sim:0h13m39s) 
CPU  2 inst:   21000000 cyc:   15248735 now IPC :1.48159: AVG IPC :1.33171: L2-Pf-HR :-nan: L2-HR :0.75522: (Sim:0h14m13s) 
CPU  1 inst:   21000003 cyc:   15389243 now IPC :1.39732: AVG IPC :1.31874: L2-Pf-HR :-nan: L2-HR :0.73835: (Sim:0h14m22s) 
CPU  3 inst:   21000003 cyc:   15456390 now IPC :1.36621: AVG IPC :1.31259: L2-Pf-HR :-nan: L2-HR :0.72344: (Sim:0h14m26s) 
CPU  0 inst:   21000003 cyc:   15457198 now IPC :1.36756: AVG IPC :1.31255: L2-Pf-HR :-nan: L2-HR :0.73318: (Sim:0h14m26s) 
CPU  2 inst:   22000004 cyc:   15931327 now IPC :1.46501: AVG IPC :1.33780: L2-Pf-HR :-nan: L2-HR :0.75681: (Sim:0h14m59s) 
CPU  1 inst:   22000001 cyc:   16093878 now IPC :1.41917: AVG IPC :1.32342: L2-Pf-HR :-nan: L2-HR :0.74034: (Sim:0h15m10s) 
CPU  3 inst:   22000004 cyc:   16157725 now IPC :1.42585: AVG IPC :1.31782: L2-Pf-HR :-nan: L2-HR :0.72341: (Sim:0h15m15s) 
CPU  0 inst:   22000001 cyc:   16158131 now IPC :1.42667: AVG IPC :1.31782: L2-Pf-HR :-nan: L2-HR :0.73366: (Sim:0h15m15s) 
CPU  2 inst:   23000001 cyc:   16723085 now IPC :1.26301: AVG IPC :1.33403: L2-Pf-HR :-nan: L2-HR :0.75711: (Sim:0h15m46s) 
CPU  1 inst:   23000001 cyc:   16946619 now IPC :1.17269: AVG IPC :1.31537: L2-Pf-HR :-nan: L2-HR :0.74102: (Sim:0h15m59s) 
CPU  3 inst:   23000001 cyc:   17044146 now IPC :1.12813: AVG IPC :1.30736: L2-Pf-HR :-nan: L2-HR :0.72358: (Sim:0h16m5s) 
CPU  0 inst:   23000002 cyc:   17044797 now IPC :1.12782: AVG IPC :1.30733: L2-Pf-HR :-nan: L2-HR :0.73431: (Sim:0h16m5s) 
CPU  2 inst:   24000005 cyc:   17454024 now IPC :1.36811: AVG IPC :1.33555: L2-Pf-HR :-nan: L2-HR :0.75789: (Sim:0h16m30s) 
CPU  1 inst:   24000005 cyc:   17672842 now IPC :1.37699: AVG IPC :1.31805: L2-Pf-HR :-nan: L2-HR :0.74074: (Sim:0h16m43s) 
CPU  3 inst:   24000005 cyc:   17828678 now IPC :1.27465: AVG IPC :1.30583: L2-Pf-HR :-nan: L2-HR :0.72445: (Sim:0h16m52s) 
CPU  0 inst:   24000005 cyc:   17830961 now IPC :1.27200: AVG IPC :1.30568: L2-Pf-HR :-nan: L2-HR :0.73528: (Sim:0h16m52s) 
CPU  2 inst:   25000005 cyc:   18185949 now IPC :1.36626: AVG IPC :1.33685: L2-Pf-HR :-nan: L2-HR :0.75828: (Sim:0h17m12s) 
CPU  1 inst:   25000005 cyc:   18397608 now IPC :1.37976: AVG IPC :1.32062: L2-Pf-HR :-nan: L2-HR :0.73976: (Sim:0h17m24s) 
CPU  3 inst:   25000005 cyc:   18646291 now IPC :1.22307: AVG IPC :1.30200: L2-Pf-HR :-nan: L2-HR :0.72562: (Sim:0h17m39s) 
CPU  0 inst:   25000005 cyc:   18648871 now IPC :1.22263: AVG IPC :1.30184: L2-Pf-HR :-nan: L2-HR :0.73535: (Sim:0h17m39s) 
CPU  2 inst:   26000002 cyc:   18985673 now IPC :1.25043: AVG IPC :1.33301: L2-Pf-HR :-nan: L2-HR :0.75931: (Sim:0h17m59s) 
CPU  1 inst:   26000002 cyc:   19123215 now IPC :1.37815: AVG IPC :1.32292: L2-Pf-HR :-nan: L2-HR :0.74086: (Sim:0h18m6s) 
CPU  3 inst:   26000002 cyc:   19553756 now IPC :1.10197: AVG IPC :1.29223: L2-Pf-HR :-nan: L2-HR :0.72707: (Sim:0h18m30s) 
CPU  0 inst:   26000002 cyc:   19570412 now IPC :1.08514: AVG IPC :1.29109: L2-Pf-HR :-nan: L2-HR :0.73547: (Sim:0h18m31s) 
CPU  2 inst:   27000003 cyc:   19911543 now IPC :1.08007: AVG IPC :1.32064: L2-Pf-HR :-nan: L2-HR :0.75972: (Sim:0h18m48s) 
CPU  1 inst:   27000003 cyc:   19934735 now IPC :1.23226: AVG IPC :1.31904: L2-Pf-HR :-nan: L2-HR :0.74128: (Sim:0h18m49s) 
CPU  3 inst:   27000003 cyc:   20428775 now IPC :1.14283: AVG IPC :1.28551: L2-Pf-HR :-nan: L2-HR :0.72722: (Sim:0h19m16s) 
CPU  0 inst:   27000003 cyc:   20490437 now IPC :1.08693: AVG IPC :1.28147: L2-Pf-HR :-nan: L2-HR :0.73645: (Sim:0h19m19s) 
CPU  2 inst:   28000003 cyc:   20801301 now IPC :1.12390: AVG IPC :1.31181: L2-Pf-HR :-nan: L2-HR :0.76094: (Sim:0h19m32s) 
CPU  1 inst:   28000003 cyc:   20803614 now IPC :1.15091: AVG IPC :1.31167: L2-Pf-HR :-nan: L2-HR :0.74211: (Sim:0h19m33s) 
CPU  3 inst:   28000003 cyc:   21182473 now IPC :1.32679: AVG IPC :1.28705: L2-Pf-HR :-nan: L2-HR :0.72703: (Sim:0h19m52s) 
CPU  0 inst:   28000003 cyc:   21299696 now IPC :1.23570: AVG IPC :1.27964: L2-Pf-HR :-nan: L2-HR :0.73743: (Sim:0h19m59s) 
CPU  1 inst:   29000004 cyc:   21775958 now IPC :1.02844: AVG IPC :1.29843: L2-Pf-HR :-nan: L2-HR :0.74130: (Sim:0h20m19s) 
CPU  2 inst:   29000001 cyc:   21788705 now IPC :1.01275: AVG IPC :1.29762: L2-Pf-HR :-nan: L2-HR :0.76116: (Sim:0h20m20s) 
CPU  3 inst:   29000004 cyc:   22004610 now IPC :1.21634: AVG IPC :1.28428: L2-Pf-HR :-nan: L2-HR :0.72644: (Sim:0h20m34s) 
CPU  0 inst:   29000004 cyc:   22253558 now IPC :1.04837: AVG IPC :1.26927: L2-Pf-HR :-nan: L2-HR :0.73655: (Sim:0h20m45s) 
CPU  1 inst:   30000005 cyc:   22610478 now IPC :1.19829: AVG IPC :1.29456: L2-Pf-HR :-nan: L2-HR :0.73970: (Sim:0h21m4s) 
CPU  2 inst:   30000005 cyc:   22642468 now IPC :1.17129: AVG IPC :1.29264: L2-Pf-HR :-nan: L2-HR :0.75950: (Sim:0h21m6s) 
CPU  3 inst:   30000005 cyc:   22729387 now IPC :1.37974: AVG IPC :1.28746: L2-Pf-HR :-nan: L2-HR :0.72567: (Sim:0h21m9s) 
CPU  0 inst:   30000005 cyc:   23105178 now IPC :1.17423: AVG IPC :1.26561: L2-Pf-HR :-nan: L2-HR :0.73643: (Sim:0h21m22s) 
CPU  1 inst:   31000000 cyc:   23390376 now IPC :1.28221: AVG IPC :1.29413: L2-Pf-HR :-nan: L2-HR :0.73873: (Sim:0h21m33s) 
CPU  2 inst:   31000000 cyc:   23503512 now IPC :1.16138: AVG IPC :1.28762: L2-Pf-HR :-nan: L2-HR :0.75764: (Sim:0h21m37s) 
CPU  3 inst:   31000002 cyc:   23568440 now IPC :1.19182: AVG IPC :1.28391: L2-Pf-HR :-nan: L2-HR :0.72445: (Sim:0h21m39s) 
CPU  0 inst:   31000002 cyc:   23984869 now IPC :1.13676: AVG IPC :1.26069: L2-Pf-HR :-nan: L2-HR :0.73542: (Sim:0h21m59s) 
CPU  1 inst:   32000005 cyc:   24149025 now IPC :1.31814: AVG IPC :1.29492: L2-Pf-HR :-nan: L2-HR :0.73888: (Sim:0h22m8s) 
CPU  2 inst:   32000005 cyc:   24378452 now IPC :1.14294: AVG IPC :1.28221: L2-Pf-HR :-nan: L2-HR :0.75562: (Sim:0h22m22s) 
CPU  3 inst:   32000005 cyc:   24437323 now IPC :1.15091: AVG IPC :1.27898: L2-Pf-HR :-nan: L2-HR :0.72319: (Sim:0h22m25s) 
CPU  0 inst:   32000004 cyc:   24948273 now IPC :1.03799: AVG IPC :1.25173: L2-Pf-HR :-nan: L2-HR :0.73576: (Sim:0h22m50s) 
CPU  1 inst:   33000005 cyc:   25147879 now IPC :1.00115: AVG IPC :1.28278: L2-Pf-HR :-nan: L2-HR :0.73850: (Sim:0h22m59s) 
CPU  2 inst:   33000000 cyc:   25529723 now IPC :0.86860: AVG IPC :1.26281: L2-Pf-HR :-nan: L2-HR :0.75438: (Sim:0h23m17s) 
CPU  3 inst:   33000000 cyc:   25620708 now IPC :0.84503: AVG IPC :1.25814: L2-Pf-HR :-nan: L2-HR :0.72263: (Sim:0h23m21s) 
CPU  0 inst:   33000005 cyc:   26120636 now IPC :0.85298: AVG IPC :1.23314: L2-Pf-HR :-nan: L2-HR :0.73596: (Sim:0h23m46s) 
CPU  1 inst:   34000003 cyc:   26234197 now IPC :0.92054: AVG IPC :1.26719: L2-Pf-HR :-nan: L2-HR :0.73859: (Sim:0h23m52s) 
CPU  2 inst:   34000003 cyc:   26583563 now IPC :0.94891: AVG IPC :1.24989: L2-Pf-HR :-nan: L2-HR :0.75457: (Sim:0h24m10s) 
CPU  3 inst:   34000003 cyc:   26680657 now IPC :0.94344: AVG IPC :1.24516: L2-Pf-HR :-nan: L2-HR :0.72345: (Sim:0h24m15s) 
CPU  0 inst:   34000003 cyc:   27172353 now IPC :0.95082: AVG IPC :1.22180: L2-Pf-HR :-nan: L2-HR :0.73661: (Sim:0h24m40s) 
CPU  1 inst:   35000002 cyc:   27236184 now IPC :0.99802: AVG IPC :1.25692: L2-Pf-HR :-nan: L2-HR :0.73905: (Sim:0h24m44s) 
CPU  2 inst:   35000003 cyc:   27676461 now IPC :0.91500: AVG IPC :1.23618: L2-Pf-HR :-nan: L2-HR :0.75526: (Sim:0h25m6s) 
CPU  3 inst:   35000000 cyc:   27759320 now IPC :0.92707: AVG IPC :1.23235: L2-Pf-HR :-nan: L2-HR :0.72511: (Sim:0h25m11s) 
CPU  0 inst:   35000003 cyc:   28202229 now IPC :0.97099: AVG IPC :1.21231: L2-Pf-HR :-nan: L2-HR :0.73671: (Sim:0h25m34s) 
CPU  1 inst:   36000005 cyc:   28287162 now IPC :0.95150: AVG IPC :1.24517: L2-Pf-HR :-nan: L2-HR :0.74037: (Sim:0h25m38s) 
CPU  2 inst:   36000005 cyc:   28814214 now IPC :0.87893: AVG IPC :1.22158: L2-Pf-HR :-nan: L2-HR :0.75601: (Sim:0h26m5s) 
CPU  3 inst:   36000005 cyc:   28877120 now IPC :0.89462: AVG IPC :1.21881: L2-Pf-HR :-nan: L2-HR :0.72591: (Sim:0h26m8s) 
CPU  0 inst:   36000005 cyc:   29238260 now IPC :0.96522: AVG IPC :1.20325: L2-Pf-HR :-nan: L2-HR :0.73621: (Sim:0h26m28s) 
CPU  1 inst:   37000002 cyc:   29310328 now IPC :0.97736: AVG IPC :1.23549: L2-Pf-HR :-nan: L2-HR :0.74152: (Sim:0h26m31s) 
CPU  2 inst:   37000002 cyc:   29900133 now IPC :0.92088: AVG IPC :1.21029: L2-Pf-HR :-nan: L2-HR :0.75663: (Sim:0h27m2s) 
CPU  3 inst:   37000002 cyc:   29983381 now IPC :0.90394: AVG IPC :1.20680: L2-Pf-HR :-nan: L2-HR :0.72658: (Sim:0h27m6s) 
CPU  0 inst:   37000000 cyc:   30303431 now IPC :0.93881: AVG IPC :1.19365: L2-Pf-HR :-nan: L2-HR :0.73704: (Sim:0h27m21s) 
CPU  1 inst:   38000001 cyc:   30441889 now IPC :0.88373: AVG IPC :1.22198: L2-Pf-HR :-nan: L2-HR :0.74202: (Sim:0h27m28s) 
CPU  2 inst:   38000001 cyc:   31062183 now IPC :0.86055: AVG IPC :1.19677: L2-Pf-HR :-nan: L2-HR :0.75722: (Sim:0h27m59s) 
CPU  3 inst:   38000004 cyc:   31184508 now IPC :0.83255: AVG IPC :1.19192: L2-Pf-HR :-nan: L2-HR :0.72659: (Sim:0h28m4s) 
CPU  0 inst:   38000001 cyc:   31447645 now IPC :0.87396: AVG IPC :1.18164: L2-Pf-HR :-nan: L2-HR :0.73741: (Sim:0h28m18s) 
CPU  1 inst:   39000000 cyc:   31751817 now IPC :0.76340: AVG IPC :1.20246: L2-Pf-HR :-nan: L2-HR :0.74192: (Sim:0h28m31s) 
CPU  2 inst:   39000000 cyc:   32414080 now IPC :0.73970: AVG IPC :1.17712: L2-Pf-HR :-nan: L2-HR :0.75738: (Sim:0h29m1s) 
CPU  3 inst:   39000003 cyc:   32505038 now IPC :0.75727: AVG IPC :1.17371: L2-Pf-HR :-nan: L2-HR :0.72670: (Sim:0h29m6s) 
CPU  0 inst:   39000000 cyc:   32750854 now IPC :0.76734: AVG IPC :1.16465: L2-Pf-HR :-nan: L2-HR :0.73788: (Sim:0h29m18s) 
CPU  1 inst:   40000000 cyc:   32912138 now IPC :0.86183: AVG IPC :1.19008: L2-Pf-HR :-nan: L2-HR :0.74193: (Sim:0h29m24s) 
CPU  2 inst:   40000003 cyc:   33435450 now IPC :0.97908: AVG IPC :1.17088: L2-Pf-HR :-nan: L2-HR :0.75772: (Sim:0h29m39s) 
CPU  3 inst:   40000002 cyc:   33586159 now IPC :0.92496: AVG IPC :1.16546: L2-Pf-HR :-nan: L2-HR :0.72711: (Sim:0h29m44s) 
CPU  0 inst:   40000000 cyc:   33803382 now IPC :0.95009: AVG IPC :1.15777: L2-Pf-HR :-nan: L2-HR :0.73846: (Sim:0h29m51s) 
CPU  1 inst:   41000003 cyc:   33987226 now IPC :0.93016: AVG IPC :1.18162: L2-Pf-HR :-nan: L2-HR :0.74140: (Sim:0h30m0s) 
CPU  2 inst:   41000003 cyc:   34410436 now IPC :1.02566: AVG IPC :1.16665: L2-Pf-HR :-nan: L2-HR :0.75815: (Sim:0h30m22s) 
CPU  3 inst:   41000000 cyc:   34585235 now IPC :1.00092: AVG IPC :1.16057: L2-Pf-HR :-nan: L2-HR :0.72796: (Sim:0h30m31s) 
CPU  0 inst:   41000003 cyc:   34849468 now IPC :0.95595: AVG IPC :1.15153: L2-Pf-HR :-nan: L2-HR :0.73868: (Sim:0h30m45s) 
CPU  1 inst:   42000003 cyc:   35046813 now IPC :0.94376: AVG IPC :1.17422: L2-Pf-HR :-nan: L2-HR :0.74166: (Sim:0h30m54s) 
CPU  2 inst:   42000001 cyc:   35379674 now IPC :1.03174: AVG IPC :1.16285: L2-Pf-HR :-nan: L2-HR :0.75845: (Sim:0h31m12s) 
CPU  3 inst:   42000003 cyc:   35528081 now IPC :1.06062: AVG IPC :1.15784: L2-Pf-HR :-nan: L2-HR :0.72839: (Sim:0h31m20s) 
CPU  0 inst:   42000001 cyc:   35898603 now IPC :0.95316: AVG IPC :1.14557: L2-Pf-HR :-nan: L2-HR :0.73827: (Sim:0h31m38s) 
CPU  1 inst:   43000002 cyc:   36075791 now IPC :0.97184: AVG IPC :1.16828: L2-Pf-HR :-nan: L2-HR :0.74230: (Sim:0h31m48s) 
CPU  2 inst:   43000002 cyc:   36351617 now IPC :1.02887: AVG IPC :1.15916: L2-Pf-HR :-nan: L2-HR :0.75912: (Sim:0h32m2s) 
CPU  3 inst:   43000003 cyc:   36471882 now IPC :1.05955: AVG IPC :1.15523: L2-Pf-HR :-nan: L2-HR :0.72891: (Sim:0h32m8s) 
CPU  0 inst:   43000000 cyc:   36911604 now IPC :0.98716: AVG IPC :1.14111: L2-Pf-HR :-nan: L2-HR :0.73921: (Sim:0h32m31s) 
CPU  1 inst:   44000004 cyc:   37155327 now IPC :0.92633: AVG IPC :1.16106: L2-Pf-HR :-nan: L2-HR :0.74252: (Sim:0h32m40s) 
CPU  2 inst:   44000004 cyc:   37400179 now IPC :0.95369: AVG IPC :1.15325: L2-Pf-HR :-nan: L2-HR :0.75953: (Sim:0h32m47s) 
CPU  3 inst:   44000000 cyc:   37478732 now IPC :0.99319: AVG IPC :1.15076: L2-Pf-HR :-nan: L2-HR :0.72844: (Sim:0h32m49s) 
CPU  0 inst:   44000000 cyc:   38024956 now IPC :0.89819: AVG IPC :1.13380: L2-Pf-HR :-nan: L2-HR :0.73941: (Sim:0h33m4s) 
CPU  1 inst:   45000005 cyc:   38398641 now IPC :0.80430: AVG IPC :1.14921: L2-Pf-HR :-nan: L2-HR :0.74224: (Sim:0h33m14s) 
CPU  2 inst:   45000005 cyc:   38604521 now IPC :0.83033: AVG IPC :1.14291: L2-Pf-HR :-nan: L2-HR :0.75984: (Sim:0h33m20s) 
CPU  3 inst:   45000005 cyc:   38712522 now IPC :0.81051: AVG IPC :1.13963: L2-Pf-HR :-nan: L2-HR :0.72825: (Sim:0h33m22s) 
CPU  0 inst:   45000005 cyc:   39283114 now IPC :0.79482: AVG IPC :1.12267: L2-Pf-HR :-nan: L2-HR :0.73901: (Sim:0h33m39s) 
CPU  1 inst:   46000002 cyc:   39385723 now IPC :1.01308: AVG IPC :1.14571: L2-Pf-HR :-nan: L2-HR :0.74140: (Sim:0h33m42s) 
CPU  2 inst:   46000002 cyc:   39624535 now IPC :0.98038: AVG IPC :1.13862: L2-Pf-HR :-nan: L2-HR :0.75910: (Sim:0h33m48s) 
CPU  3 inst:   46000002 cyc:   39909581 now IPC :0.83538: AVG IPC :1.13028: L2-Pf-HR :-nan: L2-HR :0.72792: (Sim:0h33m56s) 
CPU  0 inst:   46000002 cyc:   40572987 now IPC :0.77527: AVG IPC :1.11135: L2-Pf-HR :-nan: L2-HR :0.73907: (Sim:0h34m13s) 
CPU  1 inst:   47000005 cyc:   40619943 now IPC :0.81023: AVG IPC :1.13526: L2-Pf-HR :-nan: L2-HR :0.74041: (Sim:0h34m14s) 
CPU  2 inst:   47000005 cyc:   40720118 now IPC :0.91276: AVG IPC :1.13239: L2-Pf-HR :-nan: L2-HR :0.75768: (Sim:0h34m16s) 
CPU  3 inst:   47000005 cyc:   41383046 now IPC :0.67867: AVG IPC :1.11381: L2-Pf-HR :-nan: L2-HR :0.72691: (Sim:0h34m32s) 
CPU  1 inst:   48000000 cyc:   41795922 now IPC :0.85035: AVG IPC :1.12705: L2-Pf-HR :-nan: L2-HR :0.74056: (Sim:0h34m43s) 
CPU  0 inst:   47000005 cyc:   41911617 now IPC :0.74703: AVG IPC :1.09944: L2-Pf-HR :-nan: L2-HR :0.73804: (Sim:0h34m46s) 
CPU  2 inst:   48000000 cyc:   41978441 now IPC :0.79470: AVG IPC :1.12203: L2-Pf-HR :-nan: L2-HR :0.75643: (Sim:0h34m48s) 
CPU  3 inst:   48000000 cyc:   42644116 now IPC :0.79297: AVG IPC :1.10410: L2-Pf-HR :-nan: L2-HR :0.72615: (Sim:0h35m5s) 
CPU  1 inst:   49000001 cyc:   43041246 now IPC :0.80300: AVG IPC :1.11746: L2-Pf-HR :-nan: L2-HR :0.74018: (Sim:0h35m15s) 
CPU  0 inst:   48000000 cyc:   43105521 now IPC :0.83758: AVG IPC :1.09201: L2-Pf-HR :-nan: L2-HR :0.73832: (Sim:0h35m17s) 
CPU  2 inst:   49000000 cyc:   43266935 now IPC :0.77610: AVG IPC :1.11149: L2-Pf-HR :-nan: L2-HR :0.75536: (Sim:0h35m21s) 
CPU  3 inst:   49000004 cyc:   44036948 now IPC :0.71796: AVG IPC :1.09161: L2-Pf-HR :-nan: L2-HR :0.72534: (Sim:0h35m40s) 
CPU  1 inst:   50000000 cyc:   44269864 now IPC :0.81392: AVG IPC :1.10884: L2-Pf-HR :-nan: L2-HR :0.74058: (Sim:0h35m47s) 
CPU  0 inst:   49000000 cyc:   44364256 now IPC :0.79445: AVG IPC :1.08338: L2-Pf-HR :-nan: L2-HR :0.73819: (Sim:0h35m49s) 
CPU  2 inst:   50000003 cyc:   44444604 now IPC :0.84914: AVG IPC :1.10438: L2-Pf-HR :-nan: L2-HR :0.75595: (Sim:0h35m51s) 
CPU  3 inst:   50000003 cyc:   45246324 now IPC :0.82687: AVG IPC :1.08437: L2-Pf-HR :-nan: L2-HR :0.72562: (Sim:0h36m12s) 
CPU  1 inst:   51000002 cyc:   45444993 now IPC :0.85097: AVG IPC :1.10203: L2-Pf-HR :-nan: L2-HR :0.74064: (Sim:0h36m18s) 
CPU  0 inst:   50000003 cyc:   45481549 now IPC :0.89502: AVG IPC :1.07865: L2-Pf-HR :-nan: L2-HR :0.73879: (Sim:0h36m19s) 
CPU  2 inst:   51000001 cyc:   45656980 now IPC :0.82482: AVG IPC :1.09679: L2-Pf-HR :-nan: L2-HR :0.75645: (Sim:0h36m23s) 
CPU  3 inst:   51000002 cyc:   46462867 now IPC :0.82200: AVG IPC :1.07735: L2-Pf-HR :-nan: L2-HR :0.72636: (Sim:0h36m44s) 
CPU  1 inst:   52000005 cyc:   46628797 now IPC :0.84474: AVG IPC :1.09536: L2-Pf-HR :-nan: L2-HR :0.74169: (Sim:0h36m49s) 
CPU  0 inst:   51000002 cyc:   46641627 now IPC :0.86201: AVG IPC :1.07315: L2-Pf-HR :-nan: L2-HR :0.73852: (Sim:0h36m49s) 
CPU  2 inst:   52000005 cyc:   46876244 now IPC :0.82017: AVG IPC :1.08944: L2-Pf-HR :-nan: L2-HR :0.75680: (Sim:0h36m55s) 
CPU  3 inst:   52000000 cyc:   47698131 now IPC :0.80954: AVG IPC :1.07027: L2-Pf-HR :-nan: L2-HR :0.72719: (Sim:0h37m17s) 
CPU  1 inst:   53000003 cyc:   47784017 now IPC :0.86563: AVG IPC :1.08969: L2-Pf-HR :-nan: L2-HR :0.74251: (Sim:0h37m20s) 
CPU  0 inst:   52000000 cyc:   47853019 now IPC :0.82549: AVG IPC :1.06675: L2-Pf-HR :-nan: L2-HR :0.73821: (Sim:0h37m23s) 
CPU  2 inst:   53000003 cyc:   48142482 now IPC :0.78974: AVG IPC :1.08140: L2-Pf-HR :-nan: L2-HR :0.75707: (Sim:0h37m37s) 
CPU  3 inst:   53000003 cyc:   48792481 now IPC :0.91379: AVG IPC :1.06669: L2-Pf-HR :-nan: L2-HR :0.72771: (Sim:0h38m8s) 
CPU  1 inst:   54000000 cyc:   48876257 now IPC :0.91555: AVG IPC :1.08572: L2-Pf-HR :-nan: L2-HR :0.74320: (Sim:0h38m12s) 
CPU  0 inst:   53000003 cyc:   49043632 now IPC :0.83991: AVG IPC :1.06113: L2-Pf-HR :-nan: L2-HR :0.73843: (Sim:0h38m20s) 
CPU  2 inst:   54000000 cyc:   49326112 now IPC :0.84486: AVG IPC :1.07561: L2-Pf-HR :-nan: L2-HR :0.75763: (Sim:0h38m33s) 
CPU  3 inst:   54000000 cyc:   49944072 now IPC :0.86836: AVG IPC :1.06203: L2-Pf-HR :-nan: L2-HR :0.72797: (Sim:0h39m0s) 
CPU  1 inst:   55000001 cyc:   50215638 now IPC :0.74661: AVG IPC :1.07649: L2-Pf-HR :-nan: L2-HR :0.74320: (Sim:0h39m12s) 
CPU  0 inst:   54000000 cyc:   50264919 now IPC :0.81881: AVG IPC :1.05512: L2-Pf-HR :-nan: L2-HR :0.73882: (Sim:0h39m14s) 
CPU  2 inst:   55000001 cyc:   50633535 now IPC :0.76486: AVG IPC :1.06742: L2-Pf-HR :-nan: L2-HR :0.75784: (Sim:0h39m31s) 
CPU  3 inst:   55000001 cyc:   51264941 now IPC :0.75708: AVG IPC :1.05402: L2-Pf-HR :-nan: L2-HR :0.72814: (Sim:0h39m58s) 
CPU  1 inst:   56000004 cyc:   51321944 now IPC :0.90391: AVG IPC :1.07270: L2-Pf-HR :-nan: L2-HR :0.74335: (Sim:0h40m1s) 
CPU  0 inst:   55000001 cyc:   51517380 now IPC :0.79843: AVG IPC :1.04876: L2-Pf-HR :-nan: L2-HR :0.73886: (Sim:0h40m11s) 
CPU  2 inst:   56000001 cyc:   51725633 now IPC :0.91567: AVG IPC :1.06416: L2-Pf-HR :-nan: L2-HR :0.75805: (Sim:0h40m22s) 
CPU  3 inst:   56000001 cyc:   52240310 now IPC :1.02525: AVG IPC :1.05347: L2-Pf-HR :-nan: L2-HR :0.72846: (Sim:0h40m46s) 
CPU  1 inst:   57000004 cyc:   52275063 now IPC :1.04919: AVG IPC :1.07226: L2-Pf-HR :-nan: L2-HR :0.74270: (Sim:0h40m47s) 
CPU  0 inst:   56000004 cyc:   52566739 now IPC :0.95297: AVG IPC :1.04681: L2-Pf-HR :-nan: L2-HR :0.73945: (Sim:0h40m56s) 
CPU  2 inst:   57000001 cyc:   52762661 now IPC :0.96429: AVG IPC :1.06216: L2-Pf-HR :-nan: L2-HR :0.75823: (Sim:0h41m1s) 
CPU  3 inst:   57000004 cyc:   53208177 now IPC :1.03320: AVG IPC :1.05309: L2-Pf-HR :-nan: L2-HR :0.72887: (Sim:0h41m14s) 
CPU  1 inst:   58000004 cyc:   53267124 now IPC :1.00800: AVG IPC :1.07104: L2-Pf-HR :-nan: L2-HR :0.74307: (Sim:0h41m16s) 
CPU  0 inst:   57000001 cyc:   53627356 now IPC :0.94284: AVG IPC :1.04472: L2-Pf-HR :-nan: L2-HR :0.73948: (Sim:0h41m25s) 
CPU  2 inst:   58000004 cyc:   53784235 now IPC :0.97888: AVG IPC :1.06055: L2-Pf-HR :-nan: L2-HR :0.75869: (Sim:0h41m30s) 
CPU  3 inst:   58000005 cyc:   54198064 now IPC :1.01022: AVG IPC :1.05230: L2-Pf-HR :-nan: L2-HR :0.72946: (Sim:0h41m48s) 
CPU  1 inst:   59000005 cyc:   54353279 now IPC :0.92068: AVG IPC :1.06798: L2-Pf-HR :-nan: L2-HR :0.74325: (Sim:0h41m55s) 
CPU  0 inst:   58000004 cyc:   54667970 now IPC :0.96097: AVG IPC :1.04309: L2-Pf-HR :-nan: L2-HR :0.73942: (Sim:0h42m11s) 
CPU  2 inst:   59000005 cyc:   54828998 now IPC :0.95716: AVG IPC :1.05854: L2-Pf-HR :-nan: L2-HR :0.75888: (Sim:0h42m19s) 
CPU  3 inst:   59000005 cyc:   55253255 now IPC :0.94770: AVG IPC :1.05026: L2-Pf-HR :-nan: L2-HR :0.72952: (Sim:0h42m40s) 
CPU  1 inst:   60000001 cyc:   55416064 now IPC :0.94092: AVG IPC :1.06550: L2-Pf-HR :-nan: L2-HR :0.74364: (Sim:0h42m49s) 
CPU  0 inst:   59000005 cyc:   55736905 now IPC :0.93551: AVG IPC :1.04099: L2-Pf-HR :-nan: L2-HR :0.73966: (Sim:0h43m5s) 
CPU  2 inst:   60000001 cyc:   55835128 now IPC :0.99390: AVG IPC :1.05736: L2-Pf-HR :-nan: L2-HR :0.75934: (Sim:0h43m10s) 
CPU  3 inst:   60000005 cyc:   56322892 now IPC :0.93490: AVG IPC :1.04803: L2-Pf-HR :-nan: L2-HR :0.72944: (Sim:0h43m34s) 
CPU  1 inst:   61000005 cyc:   56638676 now IPC :0.81792: AVG IPC :1.06006: L2-Pf-HR :-nan: L2-HR :0.74339: (Sim:0h43m50s) 
CPU  0 inst:   60000004 cyc:   56800909 now IPC :0.93985: AVG IPC :1.03907: L2-Pf-HR :-nan: L2-HR :0.74008: (Sim:0h43m58s) 
CPU  2 inst:   61000005 cyc:   56983553 now IPC :0.87076: AVG IPC :1.05353: L2-Pf-HR :-nan: L2-HR :0.75967: (Sim:0h44m7s) 
CPU  3 inst:   61000005 cyc:   57461524 now IPC :0.87825: AVG IPC :1.04461: L2-Pf-HR :-nan: L2-HR :0.72926: (Sim:0h44m31s) 
CPU  1 inst:   62000000 cyc:   57692595 now IPC :0.94883: AVG IPC :1.05800: L2-Pf-HR :-nan: L2-HR :0.74279: (Sim:0h44m41s) 
CPU  0 inst:   61000005 cyc:   58015884 now IPC :0.82306: AVG IPC :1.03446: L2-Pf-HR :-nan: L2-HR :0.73976: (Sim:0h44m57s) 
CPU  2 inst:   62000000 cyc:   58178124 now IPC :0.83712: AVG IPC :1.04901: L2-Pf-HR :-nan: L2-HR :0.75913: (Sim:0h45m4s) 
CPU  3 inst:   62000000 cyc:   58691569 now IPC :0.81297: AVG IPC :1.03967: L2-Pf-HR :-nan: L2-HR :0.72892: (Sim:0h45m29s) 
CPU  1 inst:   63000001 cyc:   58843351 now IPC :0.86899: AVG IPC :1.05424: L2-Pf-HR :-nan: L2-HR :0.74200: (Sim:0h45m36s) 
CPU  0 inst:   62000000 cyc:   58990696 now IPC :1.02583: AVG IPC :1.03432: L2-Pf-HR :-nan: L2-HR :0.73966: (Sim:0h45m44s) 
CPU  2 inst:   63000001 cyc:   59378765 now IPC :0.83289: AVG IPC :1.04457: L2-Pf-HR :-nan: L2-HR :0.75819: (Sim:0h46m4s) 
CPU  3 inst:   63000001 cyc:   59670028 now IPC :1.02202: AVG IPC :1.03938: L2-Pf-HR :-nan: L2-HR :0.72824: (Sim:0h46m18s) 
CPU  1 inst:   64000001 cyc:   60019181 now IPC :0.85046: AVG IPC :1.05018: L2-Pf-HR :-nan: L2-HR :0.74214: (Sim:0h46m35s) 
CPU  0 inst:   63000001 cyc:   60081445 now IPC :0.91680: AVG IPC :1.03215: L2-Pf-HR :-nan: L2-HR :0.73903: (Sim:0h46m39s) 
CPU  2 inst:   64000001 cyc:   60444134 now IPC :0.93864: AVG IPC :1.04267: L2-Pf-HR :-nan: L2-HR :0.75736: (Sim:0h46m57s) 
CPU  3 inst:   64000001 cyc:   60709256 now IPC :0.96225: AVG IPC :1.03804: L2-Pf-HR :-nan: L2-HR :0.72771: (Sim:0h47m10s) 
CPU  0 inst:   64000001 cyc:   61285886 now IPC :0.83026: AVG IPC :1.02812: L2-Pf-HR :-nan: L2-HR :0.73915: (Sim:0h47m36s) 
CPU  1 inst:   65000002 cyc:   61301485 now IPC :0.77985: AVG IPC :1.04443: L2-Pf-HR :-nan: L2-HR :0.74165: (Sim:0h47m37s) 
CPU  2 inst:   65000005 cyc:   61622651 now IPC :0.84853: AVG IPC :1.03890: L2-Pf-HR :-nan: L2-HR :0.75647: (Sim:0h47m52s) 
CPU  3 inst:   65000002 cyc:   62040005 now IPC :0.75146: AVG IPC :1.03179: L2-Pf-HR :-nan: L2-HR :0.72708: (Sim:0h48m12s) 
CPU  1 inst:   66000002 cyc:   62464382 now IPC :0.85992: AVG IPC :1.04094: L2-Pf-HR :-nan: L2-HR :0.74179: (Sim:0h48m28s) 
CPU  0 inst:   65000005 cyc:   62553425 now IPC :0.78893: AVG IPC :1.02319: L2-Pf-HR :-nan: L2-HR :0.73906: (Sim:0h48m30s) 
CPU  2 inst:   66000002 cyc:   62797891 now IPC :0.85089: AVG IPC :1.03532: L2-Pf-HR :-nan: L2-HR :0.75666: (Sim:0h48m36s) 
CPU  3 inst:   66000000 cyc:   63233156 now IPC :0.83812: AVG IPC :1.02808: L2-Pf-HR :-nan: L2-HR :0.72726: (Sim:0h48m48s) 
CPU  1 inst:   67000001 cyc:   63631570 now IPC :0.85676: AVG IPC :1.03751: L2-Pf-HR :-nan: L2-HR :0.74161: (Sim:0h48m58s) 
CPU  0 inst:   66000002 cyc:   63711216 now IPC :0.86371: AVG IPC :1.02025: L2-Pf-HR :-nan: L2-HR :0.73948: (Sim:0h49m0s) 
CPU  2 inst:   67000001 cyc:   63936602 now IPC :0.87819: AVG IPC :1.03248: L2-Pf-HR :-nan: L2-HR :0.75709: (Sim:0h49m6s) 
CPU  3 inst:   67000001 cyc:   64383903 now IPC :0.86900: AVG IPC :1.02519: L2-Pf-HR :-nan: L2-HR :0.72796: (Sim:0h49m18s) 
CPU  1 inst:   68000004 cyc:   64775907 now IPC :0.87387: AVG IPC :1.03457: L2-Pf-HR :-nan: L2-HR :0.74216: (Sim:0h49m29s) 
CPU  0 inst:   67000001 cyc:   64844382 now IPC :0.88248: AVG IPC :1.01781: L2-Pf-HR :-nan: L2-HR :0.73950: (Sim:0h49m31s) 
CPU  2 inst:   68000001 cyc:   65085264 now IPC :0.87058: AVG IPC :1.02958: L2-Pf-HR :-nan: L2-HR :0.75745: (Sim:0h49m37s) 
CPU  3 inst:   68000001 cyc:   65585575 now IPC :0.83217: AVG IPC :1.02160: L2-Pf-HR :-nan: L2-HR :0.72854: (Sim:0h49m51s) 
CPU  1 inst:   69000000 cyc:   65963949 now IPC :0.84172: AVG IPC :1.03105: L2-Pf-HR :-nan: L2-HR :0.74285: (Sim:0h50m0s) 
CPU  0 inst:   68000001 cyc:   66014656 now IPC :0.85450: AVG IPC :1.01487: L2-Pf-HR :-nan: L2-HR :0.73924: (Sim:0h50m2s) 
CPU  2 inst:   69000000 cyc:   66259208 now IPC :0.85183: AVG IPC :1.02638: L2-Pf-HR :-nan: L2-HR :0.75786: (Sim:0h50m8s) 
CPU  3 inst:   69000000 cyc:   66802233 now IPC :0.82192: AVG IPC :1.01791: L2-Pf-HR :-nan: L2-HR :0.72904: (Sim:0h50m22s) 
CPU  1 inst:   70000001 cyc:   67172353 now IPC :0.82754: AVG IPC :1.02733: L2-Pf-HR :-nan: L2-HR :0.74336: (Sim:0h50m32s) 
CPU  0 inst:   69000000 cyc:   67200998 now IPC :0.84293: AVG IPC :1.01179: L2-Pf-HR :-nan: L2-HR :0.73940: (Sim:0h50m32s) 
CPU  2 inst:   70000001 cyc:   67446294 now IPC :0.84240: AVG IPC :1.02309: L2-Pf-HR :-nan: L2-HR :0.75826: (Sim:0h50m39s) 
CPU  3 inst:   70000004 cyc:   68043650 now IPC :0.80553: AVG IPC :1.01398: L2-Pf-HR :-nan: L2-HR :0.72932: (Sim:0h50m54s) 
CPU  0 inst:   70000004 cyc:   68451536 now IPC :0.79966: AVG IPC :1.00786: L2-Pf-HR :-nan: L2-HR :0.73968: (Sim:0h51m3s) 
CPU  1 inst:   71000003 cyc:   68540755 now IPC :0.73078: AVG IPC :1.02133: L2-Pf-HR :-nan: L2-HR :0.74340: (Sim:0h51m6s) 
CPU  2 inst:   71000004 cyc:   68789355 now IPC :0.74457: AVG IPC :1.01758: L2-Pf-HR :-nan: L2-HR :0.75844: (Sim:0h51m12s) 
CPU  3 inst:   71000001 cyc:   69344782 now IPC :0.76856: AVG IPC :1.00931: L2-Pf-HR :-nan: L2-HR :0.72922: (Sim:0h51m26s) 
CPU  1 inst:   72000002 cyc:   69727061 now IPC :0.84295: AVG IPC :1.01825: L2-Pf-HR :-nan: L2-HR :0.74353: (Sim:0h51m35s) 
CPU  0 inst:   71000002 cyc:   69788591 now IPC :0.74791: AVG IPC :1.00280: L2-Pf-HR :-nan: L2-HR :0.73964: (Sim:0h51m37s) 
CPU  2 inst:   72000002 cyc:   69939379 now IPC :0.86955: AVG IPC :1.01511: L2-Pf-HR :-nan: L2-HR :0.75853: (Sim:0h51m42s) 
CPU  3 inst:   72000002 cyc:   70519273 now IPC :0.85143: AVG IPC :1.00664: L2-Pf-HR :-nan: L2-HR :0.72939: (Sim:0h51m58s) 
CPU  0 inst:   72000002 cyc:   70833448 now IPC :0.95707: AVG IPC :1.00212: L2-Pf-HR :-nan: L2-HR :0.74011: (Sim:0h52m7s) 
CPU  1 inst:   73000002 cyc:   70866802 now IPC :0.87739: AVG IPC :1.01595: L2-Pf-HR :-nan: L2-HR :0.74318: (Sim:0h52m7s) 
CPU  2 inst:   73000002 cyc:   70997098 now IPC :0.94543: AVG IPC :1.01406: L2-Pf-HR :-nan: L2-HR :0.75887: (Sim:0h52m11s) 
CPU  3 inst:   73000002 cyc:   71637969 now IPC :0.89390: AVG IPC :1.00486: L2-Pf-HR :-nan: L2-HR :0.72981: (Sim:0h52m28s) 
CPU  0 inst:   73000002 cyc:   71917645 now IPC :0.92234: AVG IPC :1.00090: L2-Pf-HR :-nan: L2-HR :0.74030: (Sim:0h52m36s) 
CPU  1 inst:   74000002 cyc:   72055596 now IPC :0.84119: AVG IPC :1.01303: L2-Pf-HR :-nan: L2-HR :0.74314: (Sim:0h52m39s) 
CPU  2 inst:   74000002 cyc:   72169328 now IPC :0.85307: AVG IPC :1.01141: L2-Pf-HR :-nan: L2-HR :0.75896: (Sim:0h52m42s) 
CPU  3 inst:   74000002 cyc:   72642115 now IPC :0.99587: AVG IPC :1.00473: L2-Pf-HR :-nan: L2-HR :0.73004: (Sim:0h52m55s) 
CPU  0 inst:   74000002 cyc:   73037935 now IPC :0.89263: AVG IPC :0.99922: L2-Pf-HR :-nan: L2-HR :0.74004: (Sim:0h53m6s) 
CPU  1 inst:   75000003 cyc:   73105020 now IPC :0.95290: AVG IPC :1.01215: L2-Pf-HR :-nan: L2-HR :0.74353: (Sim:0h53m8s) 
CPU  2 inst:   75000003 cyc:   73273082 now IPC :0.90600: AVG IPC :1.00980: L2-Pf-HR :-nan: L2-HR :0.75932: (Sim:0h53m13s) 
CPU  3 inst:   75000003 cyc:   73584742 now IPC :1.06087: AVG IPC :1.00546: L2-Pf-HR :-nan: L2-HR :0.73035: (Sim:0h53m22s) 
CPU  1 inst:   76000000 cyc:   74074156 now IPC :1.03184: AVG IPC :1.01241: L2-Pf-HR :-nan: L2-HR :0.74369: (Sim:0h53m36s) 
CPU  0 inst:   75000003 cyc:   74100883 now IPC :0.94078: AVG IPC :0.99837: L2-Pf-HR :-nan: L2-HR :0.74034: (Sim:0h53m37s) 
CPU  2 inst:   76000000 cyc:   74353078 now IPC :0.92593: AVG IPC :1.00856: L2-Pf-HR :-nan: L2-HR :0.75949: (Sim:0h53m44s) 
CPU  3 inst:   76000000 cyc:   74549997 now IPC :1.03599: AVG IPC :1.00586: L2-Pf-HR :-nan: L2-HR :0.73018: (Sim:0h53m49s) 
CPU  1 inst:   77000002 cyc:   75152229 now IPC :0.92758: AVG IPC :1.01118: L2-Pf-HR :-nan: L2-HR :0.74352: (Sim:0h54m5s) 
CPU  0 inst:   76000000 cyc:   75240748 now IPC :0.87729: AVG IPC :0.99651: L2-Pf-HR :-nan: L2-HR :0.74058: (Sim:0h54m8s) 
CPU  2 inst:   77000002 cyc:   75575381 now IPC :0.81813: AVG IPC :1.00544: L2-Pf-HR :-nan: L2-HR :0.75987: (Sim:0h54m16s) 
CPU  3 inst:   77000002 cyc:   75739297 now IPC :0.84083: AVG IPC :1.00323: L2-Pf-HR :-nan: L2-HR :0.73001: (Sim:0h54m20s) 
CPU  1 inst:   78000004 cyc:   76377230 now IPC :0.81633: AVG IPC :1.00802: L2-Pf-HR :-nan: L2-HR :0.74314: (Sim:0h54m36s) 
CPU  0 inst:   77000002 cyc:   76526835 now IPC :0.77755: AVG IPC :0.99278: L2-Pf-HR :-nan: L2-HR :0.74038: (Sim:0h54m40s) 
CPU  2 inst:   78000004 cyc:   76605714 now IPC :0.97056: AVG IPC :1.00497: L2-Pf-HR :-nan: L2-HR :0.75952: (Sim:0h54m42s) 
CPU  3 inst:   78000003 cyc:   76936058 now IPC :0.83559: AVG IPC :1.00059: L2-Pf-HR :-nan: L2-HR :0.72976: (Sim:0h54m51s) 
CPU  1 inst:   79000000 cyc:   77438460 now IPC :0.94230: AVG IPC :1.00710: L2-Pf-HR :-nan: L2-HR :0.74260: (Sim:0h55m5s) 
CPU  0 inst:   78000003 cyc:   77605210 now IPC :0.92732: AVG IPC :0.99186: L2-Pf-HR :-nan: L2-HR :0.74027: (Sim:0h55m9s) 
CPU  2 inst:   79000000 cyc:   77637565 now IPC :0.96913: AVG IPC :1.00448: L2-Pf-HR :-nan: L2-HR :0.75885: (Sim:0h55m10s) 
CPU  3 inst:   79000000 cyc:   78011800 now IPC :0.92959: AVG IPC :0.99960: L2-Pf-HR :-nan: L2-HR :0.72935: (Sim:0h55m20s) 
CPU  1 inst:   80000000 cyc:   78491059 now IPC :0.95003: AVG IPC :1.00633: L2-Pf-HR :-nan: L2-HR :0.74252: (Sim:0h55m33s) 
CPU  0 inst:   79000000 cyc:   78692271 now IPC :0.91991: AVG IPC :0.99085: L2-Pf-HR :-nan: L2-HR :0.73992: (Sim:0h55m38s) 
CPU  2 inst:   80000000 cyc:   78703625 now IPC :0.93803: AVG IPC :1.00357: L2-Pf-HR :-nan: L2-HR :0.75810: (Sim:0h55m39s) 
CPU  3 inst:   80000000 cyc:   79076769 now IPC :0.93899: AVG IPC :0.99877: L2-Pf-HR :-nan: L2-HR :0.72881: (Sim:0h55m49s) 
CPU  1 inst:   81000005 cyc:   79750803 now IPC :0.79382: AVG IPC :1.00293: L2-Pf-HR :-nan: L2-HR :0.74210: (Sim:0h56m5s) 
CPU  0 inst:   80000000 cyc:   79900180 now IPC :0.82788: AVG IPC :0.98836: L2-Pf-HR :-nan: L2-HR :0.73980: (Sim:0h56m8s) 
CPU  2 inst:   81000005 cyc:   80036634 now IPC :0.75019: AVG IPC :0.99930: L2-Pf-HR :-nan: L2-HR :0.75723: (Sim:0h56m12s) 
CPU  3 inst:   81000005 cyc:   80358877 now IPC :0.77997: AVG IPC :0.99524: L2-Pf-HR :-nan: L2-HR :0.72820: (Sim:0h56m20s) 
CPU  1 inst:   82000001 cyc:   80890857 now IPC :0.87715: AVG IPC :1.00114: L2-Pf-HR :-nan: L2-HR :0.74239: (Sim:0h56m33s) 
CPU  2 inst:   82000000 cyc:   81139884 now IPC :0.90641: AVG IPC :0.99802: L2-Pf-HR :-nan: L2-HR :0.75736: (Sim:0h56m40s) 
CPU  0 inst:   81000005 cyc:   81213370 now IPC :0.76151: AVG IPC :0.98465: L2-Pf-HR :-nan: L2-HR :0.73964: (Sim:0h56m41s) 
CPU  3 inst:   82000000 cyc:   81614016 now IPC :0.79672: AVG IPC :0.99215: L2-Pf-HR :-nan: L2-HR :0.72842: (Sim:0h56m51s) 
CPU  1 inst:   83000004 cyc:   82069838 now IPC :0.84819: AVG IPC :0.99891: L2-Pf-HR :-nan: L2-HR :0.74221: (Sim:0h57m3s) 
CPU  2 inst:   83000004 cyc:   82253590 now IPC :0.89791: AVG IPC :0.99665: L2-Pf-HR :-nan: L2-HR :0.75759: (Sim:0h57m7s) 
CPU  0 inst:   82000001 cyc:   82481692 now IPC :0.78844: AVG IPC :0.98159: L2-Pf-HR :-nan: L2-HR :0.74013: (Sim:0h57m13s) 
CPU  3 inst:   83000004 cyc:   82958991 now IPC :0.74351: AVG IPC :0.98807: L2-Pf-HR :-nan: L2-HR :0.72892: (Sim:0h57m25s) 
CPU  1 inst:   84000005 cyc:   83437528 now IPC :0.73116: AVG IPC :0.99447: L2-Pf-HR :-nan: L2-HR :0.74247: (Sim:0h57m37s) 
CPU  2 inst:   84000005 cyc:   83490430 now IPC :0.80851: AVG IPC :0.99383: L2-Pf-HR :-nan: L2-HR :0.75772: (Sim:0h57m38s) 
CPU  0 inst:   83000004 cyc:   83576282 now IPC :0.91359: AVG IPC :0.98069: L2-Pf-HR :-nan: L2-HR :0.74005: (Sim:0h57m41s) 
CPU  3 inst:   84000000 cyc:   84134898 now IPC :0.85040: AVG IPC :0.98612: L2-Pf-HR :-nan: L2-HR :0.72932: (Sim:0h57m55s) 
CPU  0 inst:   84000000 cyc:   84657749 now IPC :0.92467: AVG IPC :0.97997: L2-Pf-HR :-nan: L2-HR :0.73993: (Sim:0h58m9s) 
CPU  1 inst:   85000002 cyc:   84666919 now IPC :0.81341: AVG IPC :0.99181: L2-Pf-HR :-nan: L2-HR :0.74297: (Sim:0h58m9s) 
CPU  2 inst:   85000002 cyc:   84755574 now IPC :0.79042: AVG IPC :0.99076: L2-Pf-HR :-nan: L2-HR :0.75807: (Sim:0h58m11s) 
CPU  3 inst:   85000000 cyc:   85224145 now IPC :0.91807: AVG IPC :0.98524: L2-Pf-HR :-nan: L2-HR :0.72962: (Sim:0h58m24s) 
CPU  0 inst:   85000005 cyc:   85794178 now IPC :0.87995: AVG IPC :0.97863: L2-Pf-HR :-nan: L2-HR :0.73991: (Sim:0h58m39s) 
CPU  1 inst:   86000001 cyc:   85800476 now IPC :0.88218: AVG IPC :0.99035: L2-Pf-HR :-nan: L2-HR :0.74338: (Sim:0h58m39s) 
CPU  2 inst:   86000001 cyc:   85962937 now IPC :0.82825: AVG IPC :0.98845: L2-Pf-HR :-nan: L2-HR :0.75833: (Sim:0h58m43s) 
CPU  3 inst:   86000001 cyc:   86289137 now IPC :0.93898: AVG IPC :0.98467: L2-Pf-HR :-nan: L2-HR :0.72978: (Sim:0h58m52s) 
CPU  0 inst:   86000001 cyc:   86965496 now IPC :0.85374: AVG IPC :0.97693: L2-Pf-HR :-nan: L2-HR :0.74016: (Sim:0h59m9s) 
CPU  1 inst:   87000000 cyc:   86978253 now IPC :0.84906: AVG IPC :0.98841: L2-Pf-HR :-nan: L2-HR :0.74326: (Sim:0h59m9s) 
CPU  2 inst:   87000000 cyc:   87246963 now IPC :0.77880: AVG IPC :0.98533: L2-Pf-HR :-nan: L2-HR :0.75845: (Sim:0h59m16s) 
CPU  3 inst:   87000000 cyc:   87527554 now IPC :0.80748: AVG IPC :0.98213: L2-Pf-HR :-nan: L2-HR :0.72973: (Sim:0h59m23s) 
CPU  1 inst:   88000001 cyc:   87995947 now IPC :0.98261: AVG IPC :0.98834: L2-Pf-HR :-nan: L2-HR :0.74359: (Sim:0h59m36s) 
CPU  0 inst:   87000000 cyc:   88234861 now IPC :0.78779: AVG IPC :0.97417: L2-Pf-HR :-nan: L2-HR :0.73994: (Sim:0h59m42s) 
CPU  2 inst:   88000001 cyc:   88366322 now IPC :0.89337: AVG IPC :0.98415: L2-Pf-HR :-nan: L2-HR :0.75868: (Sim:0h59m45s) 
CPU  3 inst:   88000005 cyc:   88579318 now IPC :0.95079: AVG IPC :0.98175: L2-Pf-HR :-nan: L2-HR :0.72998: (Sim:0h59m51s) 
CPU  1 inst:   89000004 cyc:   89033594 now IPC :0.96372: AVG IPC :0.98805: L2-Pf-HR :-nan: L2-HR :0.74318: (Sim:1h0m3s) 
CPU  2 inst:   89000005 cyc:   89336843 now IPC :1.03038: AVG IPC :0.98466: L2-Pf-HR :-nan: L2-HR :0.75882: (Sim:1h0m11s) 
CPU  0 inst:   88000002 cyc:   89416532 now IPC :0.84626: AVG IPC :0.97247: L2-Pf-HR :-nan: L2-HR :0.74046: (Sim:1h0m14s) 
CPU  3 inst:   89000005 cyc:   89755608 now IPC :0.85013: AVG IPC :0.98001: L2-Pf-HR :-nan: L2-HR :0.73016: (Sim:1h0m23s) 
CPU  1 inst:   90000004 cyc:   90171350 now IPC :0.87892: AVG IPC :0.98666: L2-Pf-HR :-nan: L2-HR :0.74327: (Sim:1h0m33s) 
CPU  2 inst:   90000004 cyc:   90290911 now IPC :1.04814: AVG IPC :0.98534: L2-Pf-HR :-nan: L2-HR :0.75906: (Sim:1h0m36s) 
CPU  0 inst:   89000004 cyc:   90643494 now IPC :0.81502: AVG IPC :0.97031: L2-Pf-HR :-nan: L2-HR :0.74048: (Sim:1h0m45s) 
CPU  3 inst:   90000001 cyc:   90984736 now IPC :0.81358: AVG IPC :0.97774: L2-Pf-HR :-nan: L2-HR :0.73059: (Sim:1h0m53s) 
CPU  1 inst:   91000004 cyc:   91481860 now IPC :0.76306: AVG IPC :0.98342: L2-Pf-HR :-nan: L2-HR :0.74338: (Sim:1h1m6s) 
CPU  2 inst:   91000004 cyc:   91505410 now IPC :0.82338: AVG IPC :0.98316: L2-Pf-HR :-nan: L2-HR :0.75917: (Sim:1h1m6s) 
CPU  0 inst:   90000001 cyc:   91850313 now IPC :0.82862: AVG IPC :0.96843: L2-Pf-HR :-nan: L2-HR :0.74049: (Sim:1h1m15s) 
CPU  3 inst:   91000004 cyc:   92108815 now IPC :0.88962: AVG IPC :0.97665: L2-Pf-HR :-nan: L2-HR :0.73066: (Sim:1h1m22s) 
CPU  1 inst:   92000004 cyc:   92650268 now IPC :0.85587: AVG IPC :0.98180: L2-Pf-HR :-nan: L2-HR :0.74363: (Sim:1h1m36s) 
CPU  2 inst:   92000004 cyc:   92664007 now IPC :0.86311: AVG IPC :0.98165: L2-Pf-HR :-nan: L2-HR :0.75941: (Sim:1h1m37s) 
CPU  0 inst:   91000004 cyc:   92952037 now IPC :0.90767: AVG IPC :0.96770: L2-Pf-HR :-nan: L2-HR :0.74048: (Sim:1h1m44s) 
CPU  3 inst:   92000004 cyc:   93134942 now IPC :0.97454: AVG IPC :0.97663: L2-Pf-HR :-nan: L2-HR :0.73065: (Sim:1h1m49s) 
CPU  1 inst:   93000005 cyc:   93896080 now IPC :0.80269: AVG IPC :0.97939: L2-Pf-HR :-nan: L2-HR :0.74338: (Sim:1h2m9s) 
CPU  2 inst:   93000005 cyc:   93896779 now IPC :0.81118: AVG IPC :0.97938: L2-Pf-HR :-nan: L2-HR :0.75965: (Sim:1h2m9s) 
CPU  0 inst:   92000004 cyc:   94023077 now IPC :0.93367: AVG IPC :0.96731: L2-Pf-HR :-nan: L2-HR :0.74084: (Sim:1h2m13s) 
CPU  3 inst:   93000005 cyc:   94317659 now IPC :0.84551: AVG IPC :0.97497: L2-Pf-HR :-nan: L2-HR :0.73035: (Sim:1h2m20s) 
CPU  1 inst:   94000002 cyc:   95065680 now IPC :0.85499: AVG IPC :0.97785: L2-Pf-HR :-nan: L2-HR :0.74321: (Sim:1h2m40s) 
CPU  2 inst:   94000002 cyc:   95081652 now IPC :0.84397: AVG IPC :0.97768: L2-Pf-HR :-nan: L2-HR :0.75957: (Sim:1h2m40s) 
CPU  3 inst:   94000002 cyc:   95293159 now IPC :1.02511: AVG IPC :0.97548: L2-Pf-HR :-nan: L2-HR :0.73030: (Sim:1h2m46s) 
CPU  0 inst:   93000004 cyc:   95296963 now IPC :0.78500: AVG IPC :0.96485: L2-Pf-HR :-nan: L2-HR :0.74067: (Sim:1h2m46s) 
CPU  1 inst:   95000003 cyc:   96090389 now IPC :0.97589: AVG IPC :0.97783: L2-Pf-HR :-nan: L2-HR :0.74271: (Sim:1h3m8s) 
CPU  2 inst:   95000003 cyc:   96101745 now IPC :0.98030: AVG IPC :0.97771: L2-Pf-HR :-nan: L2-HR :0.75897: (Sim:1h3m9s) 
CPU  3 inst:   95000003 cyc:   96327955 now IPC :0.96637: AVG IPC :0.97539: L2-Pf-HR :-nan: L2-HR :0.72995: (Sim:1h3m15s) 
CPU  0 inst:   94000002 cyc:   96344608 now IPC :0.95452: AVG IPC :0.96473: L2-Pf-HR :-nan: L2-HR :0.74055: (Sim:1h3m15s) 
CPU  1 inst:   96000004 cyc:   97134135 now IPC :0.95809: AVG IPC :0.97761: L2-Pf-HR :-nan: L2-HR :0.74254: (Sim:1h3m37s) 
CPU  2 inst:   96000004 cyc:   97144930 now IPC :0.95860: AVG IPC :0.97750: L2-Pf-HR :-nan: L2-HR :0.75832: (Sim:1h3m37s) 
CPU  3 inst:   96000004 cyc:   97393396 now IPC :0.93858: AVG IPC :0.97498: L2-Pf-HR :-nan: L2-HR :0.72947: (Sim:1h3m44s) 
CPU  0 inst:   95000003 cyc:   97402768 now IPC :0.94504: AVG IPC :0.96452: L2-Pf-HR :-nan: L2-HR :0.74031: (Sim:1h3m44s) 
CPU  1 inst:   97000002 cyc:   98332673 now IPC :0.83435: AVG IPC :0.97585: L2-Pf-HR :-nan: L2-HR :0.74215: (Sim:1h4m8s) 
CPU  2 inst:   97000002 cyc:   98335042 now IPC :0.84026: AVG IPC :0.97582: L2-Pf-HR :-nan: L2-HR :0.75749: (Sim:1h4m8s) 
CPU  0 inst:   96000004 cyc:   98626340 now IPC :0.81728: AVG IPC :0.96267: L2-Pf-HR :-nan: L2-HR :0.74013: (Sim:1h4m14s) 
CPU  3 inst:   97000002 cyc:   98679394 now IPC :0.77760: AVG IPC :0.97238: L2-Pf-HR :-nan: L2-HR :0.72882: (Sim:1h4m16s) 
CPU  2 inst:   98000003 cyc:   99737322 now IPC :0.71313: AVG IPC :0.97209: L2-Pf-HR :-nan: L2-HR :0.75766: (Sim:1h4m41s) 
CPU  1 inst:   98000003 cyc:   99744455 now IPC :0.70833: AVG IPC :0.97203: L2-Pf-HR :-nan: L2-HR :0.74249: (Sim:1h4m42s) 
CPU  3 inst:   98000000 cyc:   99896627 now IPC :0.82153: AVG IPC :0.97052: L2-Pf-HR :-nan: L2-HR :0.72911: (Sim:1h4m44s) 
CPU  0 inst:   97000002 cyc:   99953910 now IPC :0.75325: AVG IPC :0.95986: L2-Pf-HR :-nan: L2-HR :0.73990: (Sim:1h4m46s) 
CPU  2 inst:   99000001 cyc:  101038906 now IPC :0.76829: AVG IPC :0.96944: L2-Pf-HR :-nan: L2-HR :0.75798: (Sim:1h5m12s) 
CPU  0 inst:   98000003 cyc:  101125132 now IPC :0.85381: AVG IPC :0.95862: L2-Pf-HR :-nan: L2-HR :0.74038: (Sim:1h5m14s) 
CPU  1 inst:   99000001 cyc:  101244217 now IPC :0.66677: AVG IPC :0.96746: L2-Pf-HR :-nan: L2-HR :0.74243: (Sim:1h5m17s) 
CPU  3 inst:   99000001 cyc:  101295089 now IPC :0.71507: AVG IPC :0.96696: L2-Pf-HR :-nan: L2-HR :0.72933: (Sim:1h5m18s) 
CPU  2 inst:  100000005 cyc:  102107924 now IPC :0.93544: AVG IPC :0.96908: L2-Pf-HR :-nan: L2-HR :0.75813: (Sim:1h5m38s) 
CPU  0 inst:   99000001 cyc:  102435949 now IPC :0.76288: AVG IPC :0.95609: L2-Pf-HR :-nan: L2-HR :0.74040: (Sim:1h5m46s) 
CPU  1 inst:  100000005 cyc:  102664295 now IPC :0.70419: AVG IPC :0.96378: L2-Pf-HR :-nan: L2-HR :0.74261: (Sim:1h5m51s) 
CPU  3 inst:  100000005 cyc:  102757825 now IPC :0.68365: AVG IPC :0.96289: L2-Pf-HR :-nan: L2-HR :0.72955: (Sim:1h5m53s) 
CPU  2 inst:  101000000 cyc:  103259043 now IPC :0.86872: AVG IPC :0.96795: L2-Pf-HR :-nan: L2-HR :0.75841: (Sim:1h6m5s) 
CPU  0 inst:  100000005 cyc:  103825897 now IPC :0.71945: AVG IPC :0.95290: L2-Pf-HR :-nan: L2-HR :0.74032: (Sim:1h6m18s) 
CPU  1 inst:  101000000 cyc:  103875371 now IPC :0.82571: AVG IPC :0.96216: L2-Pf-HR :-nan: L2-HR :0.74297: (Sim:1h6m19s) 
CPU  3 inst:  101000001 cyc:  104238751 now IPC :0.67525: AVG IPC :0.95877: L2-Pf-HR :-nan: L2-HR :0.72966: (Sim:1h6m28s) 
CPU  2 inst:  102000003 cyc:  104667652 now IPC :0.70992: AVG IPC :0.96445: L2-Pf-HR :-nan: L2-HR :0.75857: (Sim:1h6m38s) 
CPU  1 inst:  102000002 cyc:  104960506 now IPC :0.92155: AVG IPC :0.96173: L2-Pf-HR :-nan: L2-HR :0.74329: (Sim:1h6m45s) 
CPU  0 inst:  101000000 cyc:  105264557 now IPC :0.69509: AVG IPC :0.94934: L2-Pf-HR :-nan: L2-HR :0.74027: (Sim:1h6m52s) 
CPU  3 inst:  102000003 cyc:  105803434 now IPC :0.63911: AVG IPC :0.95399: L2-Pf-HR :-nan: L2-HR :0.72980: (Sim:1h7m4s) 
CPU  2 inst:  103000000 cyc:  106084146 now IPC :0.70597: AVG IPC :0.96096: L2-Pf-HR :-nan: L2-HR :0.75892: (Sim:1h7m12s) 
CPU  1 inst:  103000003 cyc:  106233273 now IPC :0.78569: AVG IPC :0.95960: L2-Pf-HR :-nan: L2-HR :0.74361: (Sim:1h7m16s) 
CPU  0 inst:  102000002 cyc:  106502037 now IPC :0.80810: AVG IPC :0.94768: L2-Pf-HR :-nan: L2-HR :0.74048: (Sim:1h7m23s) 
CPU  3 inst:  103000000 cyc:  107095342 now IPC :0.77405: AVG IPC :0.95180: L2-Pf-HR :-nan: L2-HR :0.72992: (Sim:1h7m51s) 
CPU  2 inst:  104000001 cyc:  107497694 now IPC :0.70744: AVG IPC :0.95760: L2-Pf-HR :-nan: L2-HR :0.75882: (Sim:1h8m8s) 
CPU  0 inst:  103000003 cyc:  107561022 now IPC :0.94430: AVG IPC :0.94765: L2-Pf-HR :-nan: L2-HR :0.74052: (Sim:1h8m10s) 
CPU  1 inst:  104000001 cyc:  107599352 now IPC :0.73202: AVG IPC :0.95669: L2-Pf-HR :-nan: L2-HR :0.74362: (Sim:1h8m12s) 
CPU  3 inst:  104000001 cyc:  108495524 now IPC :0.71419: AVG IPC :0.94871: L2-Pf-HR :-nan: L2-HR :0.72986: (Sim:1h8m54s) 
CPU  2 inst:  105000004 cyc:  108628764 now IPC :0.88412: AVG IPC :0.95683: L2-Pf-HR :-nan: L2-HR :0.75906: (Sim:1h9m1s) 
CPU  0 inst:  104000001 cyc:  108704330 now IPC :0.87465: AVG IPC :0.94687: L2-Pf-HR :-nan: L2-HR :0.74062: (Sim:1h9m5s) 
CPU  1 inst:  105000000 cyc:  108813996 now IPC :0.82329: AVG IPC :0.95519: L2-Pf-HR :-nan: L2-HR :0.74344: (Sim:1h9m10s) 
CPU  3 inst:  105000000 cyc:  109623806 now IPC :0.88630: AVG IPC :0.94806: L2-Pf-HR :-nan: L2-HR :0.73014: (Sim:1h9m51s) 
CPU  2 inst:  106000002 cyc:  109648551 now IPC :0.98059: AVG IPC :0.95705: L2-Pf-HR :-nan: L2-HR :0.75907: (Sim:1h9m52s) 
CPU  0 inst:  105000000 cyc:  109749277 now IPC :0.95699: AVG IPC :0.94697: L2-Pf-HR :-nan: L2-HR :0.74080: (Sim:1h9m58s) 
CPU  1 inst:  106000005 cyc:  109981874 now IPC :0.85626: AVG IPC :0.95413: L2-Pf-HR :-nan: L2-HR :0.74326: (Sim:1h10m9s) 
CPU  2 inst:  107000005 cyc:  110608980 now IPC :1.04120: AVG IPC :0.95779: L2-Pf-HR :-nan: L2-HR :0.75930: (Sim:1h10m40s) 
CPU  3 inst:  106000005 cyc:  110750119 now IPC :0.88786: AVG IPC :0.94744: L2-Pf-HR :-nan: L2-HR :0.73031: (Sim:1h10m47s) 
CPU  0 inst:  106000005 cyc:  110902971 now IPC :0.86679: AVG IPC :0.94613: L2-Pf-HR :-nan: L2-HR :0.74066: (Sim:1h10m55s) 
CPU  1 inst:  107000002 cyc:  111138018 now IPC :0.86494: AVG IPC :0.95319: L2-Pf-HR :-nan: L2-HR :0.74350: (Sim:1h11m7s) 
CPU  2 inst:  108000002 cyc:  111614819 now IPC :0.99419: AVG IPC :0.95812: L2-Pf-HR :-nan: L2-HR :0.75943: (Sim:1h11m31s) 
CPU  3 inst:  107000005 cyc:  111724756 now IPC :1.02602: AVG IPC :0.94814: L2-Pf-HR :-nan: L2-HR :0.73057: (Sim:1h11m37s) 
CPU  0 inst:  107000002 cyc:  111997028 now IPC :0.91403: AVG IPC :0.94581: L2-Pf-HR :-nan: L2-HR :0.74074: (Sim:1h11m51s) 
CPU  1 inst:  108000002 cyc:  112288690 now IPC :0.86906: AVG IPC :0.95232: L2-Pf-HR :-nan: L2-HR :0.74362: (Sim:1h12m5s) 
CPU  3 inst:  108000002 cyc:  112648822 now IPC :1.08217: AVG IPC :0.94924: L2-Pf-HR :-nan: L2-HR :0.73050: (Sim:1h12m23s) 
CPU  2 inst:  109000004 cyc:  112716241 now IPC :0.90792: AVG IPC :0.95762: L2-Pf-HR :-nan: L2-HR :0.75984: (Sim:1h12m27s) 
CPU  0 inst:  108000002 cyc:  113196236 now IPC :0.83388: AVG IPC :0.94462: L2-Pf-HR :-nan: L2-HR :0.74099: (Sim:1h12m49s) 
CPU  1 inst:  109000000 cyc:  113505547 now IPC :0.82179: AVG IPC :0.95091: L2-Pf-HR :-nan: L2-HR :0.74375: (Sim:1h13m4s) 
CPU  3 inst:  109000000 cyc:  113673623 now IPC :0.97580: AVG IPC :0.94949: L2-Pf-HR :-nan: L2-HR :0.73050: (Sim:1h13m12s) 
CPU  2 inst:  110000001 cyc:  113988281 now IPC :0.78614: AVG IPC :0.95569: L2-Pf-HR :-nan: L2-HR :0.75968: (Sim:1h13m26s) 
CPU  0 inst:  109000003 cyc:  114390665 now IPC :0.83722: AVG IPC :0.94349: L2-Pf-HR :-nan: L2-HR :0.74111: (Sim:1h13m47s) 
CPU  1 inst:  110000000 cyc:  114698315 now IPC :0.83839: AVG IPC :0.94973: L2-Pf-HR :-nan: L2-HR :0.74342: (Sim:1h14m2s) 
CPU  3 inst:  110000005 cyc:  114806629 now IPC :0.88261: AVG IPC :0.94882: L2-Pf-HR :-nan: L2-HR :0.73023: (Sim:1h14m7s) 
CPU  2 inst:  111000002 cyc:  115060079 now IPC :0.93301: AVG IPC :0.95548: L2-Pf-HR :-nan: L2-HR :0.75913: (Sim:1h14m20s) 
CPU  0 inst:  110000000 cyc:  115558073 now IPC :0.85660: AVG IPC :0.94260: L2-Pf-HR :-nan: L2-HR :0.74081: (Sim:1h14m46s) 
CPU  1 inst:  111000004 cyc:  115733673 now IPC :0.96585: AVG IPC :0.94987: L2-Pf-HR :-nan: L2-HR :0.74295: (Sim:1h14m55s) 
CPU  3 inst:  111000002 cyc:  115786984 now IPC :1.02004: AVG IPC :0.94943: L2-Pf-HR :-nan: L2-HR :0.72992: (Sim:1h14m57s) 
CPU  2 inst:  112000003 cyc:  116154159 now IPC :0.91401: AVG IPC :0.95509: L2-Pf-HR :-nan: L2-HR :0.75863: (Sim:1h15m8s) 
CPU  0 inst:  111000004 cyc:  116582062 now IPC :0.97658: AVG IPC :0.94290: L2-Pf-HR :-nan: L2-HR :0.74060: (Sim:1h15m20s) 
CPU  1 inst:  112000003 cyc:  116862524 now IPC :0.88586: AVG IPC :0.94925: L2-Pf-HR :-nan: L2-HR :0.74281: (Sim:1h15m27s) 
CPU  3 inst:  112000003 cyc:  116868274 now IPC :0.92482: AVG IPC :0.94920: L2-Pf-HR :-nan: L2-HR :0.72957: (Sim:1h15m27s) 
CPU  2 inst:  113000002 cyc:  117176583 now IPC :0.97807: AVG IPC :0.95529: L2-Pf-HR :-nan: L2-HR :0.75815: (Sim:1h15m36s) 
CPU  0 inst:  112000003 cyc:  117620672 now IPC :0.96282: AVG IPC :0.94308: L2-Pf-HR :-nan: L2-HR :0.74046: (Sim:1h15m46s) 
CPU  3 inst:  113000002 cyc:  118146090 now IPC :0.78258: AVG IPC :0.94738: L2-Pf-HR :-nan: L2-HR :0.72927: (Sim:1h15m58s) 
CPU  1 inst:  113000002 cyc:  118226795 now IPC :0.73299: AVG IPC :0.94673: L2-Pf-HR :-nan: L2-HR :0.74276: (Sim:1h16m0s) 
CPU  2 inst:  114000002 cyc:  118715404 now IPC :0.64985: AVG IPC :0.95130: L2-Pf-HR :-nan: L2-HR :0.75797: (Sim:1h16m10s) 
CPU  0 inst:  113000002 cyc:  118839316 now IPC :0.82058: AVG IPC :0.94181: L2-Pf-HR :-nan: L2-HR :0.74053: (Sim:1h16m13s) 
CPU  3 inst:  114000002 cyc:  119758167 now IPC :0.62032: AVG IPC :0.94294: L2-Pf-HR :-nan: L2-HR :0.72912: (Sim:1h16m34s) 
CPU  1 inst:  114000002 cyc:  119824186 now IPC :0.62602: AVG IPC :0.94242: L2-Pf-HR :-nan: L2-HR :0.74274: (Sim:1h16m36s) 
CPU  0 inst:  114000005 cyc:  120069435 now IPC :0.81293: AVG IPC :0.94048: L2-Pf-HR :-nan: L2-HR :0.74063: (Sim:1h16m42s) 
CPU  2 inst:  115000000 cyc:  120127372 now IPC :0.70823: AVG IPC :0.94842: L2-Pf-HR :-nan: L2-HR :0.75819: (Sim:1h16m43s) 
CPU  3 inst:  115000000 cyc:  121157219 now IPC :0.71477: AVG IPC :0.94029: L2-Pf-HR :-nan: L2-HR :0.72932: (Sim:1h17m8s) 
CPU  1 inst:  115000000 cyc:  121341897 now IPC :0.65889: AVG IPC :0.93885: L2-Pf-HR :-nan: L2-HR :0.74273: (Sim:1h17m12s) 
CPU  0 inst:  115000000 cyc:  121361840 now IPC :0.77375: AVG IPC :0.93869: L2-Pf-HR :-nan: L2-HR :0.74059: (Sim:1h17m13s) 
CPU  2 inst:  116000002 cyc:  121643573 now IPC :0.65954: AVG IPC :0.94479: L2-Pf-HR :-nan: L2-HR :0.75828: (Sim:1h17m19s) 
CPU  3 inst:  116000002 cyc:  122207054 now IPC :0.95253: AVG IPC :0.94039: L2-Pf-HR :-nan: L2-HR :0.72956: (Sim:1h17m33s) 
CPU  1 inst:  116000002 cyc:  122754061 now IPC :0.70813: AVG IPC :0.93617: L2-Pf-HR :-nan: L2-HR :0.74293: (Sim:1h17m46s) 
CPU  0 inst:  116000002 cyc:  122761988 now IPC :0.71421: AVG IPC :0.93611: L2-Pf-HR :-nan: L2-HR :0.74052: (Sim:1h17m46s) 
CPU  2 inst:  117000003 cyc:  122922744 now IPC :0.78176: AVG IPC :0.94308: L2-Pf-HR :-nan: L2-HR :0.75849: (Sim:1h17m50s) 
CPU  3 inst:  117000003 cyc:  123271941 now IPC :0.93907: AVG IPC :0.94038: L2-Pf-HR :-nan: L2-HR :0.72975: (Sim:1h17m59s) 
CPU  2 inst:  118000001 cyc:  124007360 now IPC :0.92198: AVG IPC :0.94289: L2-Pf-HR :-nan: L2-HR :0.75863: (Sim:1h18m17s) 
CPU  0 inst:  117000003 cyc:  124198549 now IPC :0.69611: AVG IPC :0.93331: L2-Pf-HR :-nan: L2-HR :0.74046: (Sim:1h18m21s) 
CPU  1 inst:  117000003 cyc:  124214473 now IPC :0.68474: AVG IPC :0.93319: L2-Pf-HR :-nan: L2-HR :0.74330: (Sim:1h18m21s) 
CPU  3 inst:  118000001 cyc:  124723317 now IPC :0.68900: AVG IPC :0.93743: L2-Pf-HR :-nan: L2-HR :0.72984: (Sim:1h18m33s) 
CPU  2 inst:  119000000 cyc:  125204977 now IPC :0.83499: AVG IPC :0.94185: L2-Pf-HR :-nan: L2-HR :0.75892: (Sim:1h18m43s) 
CPU  0 inst:  118000001 cyc:  125671123 now IPC :0.67908: AVG IPC :0.93031: L2-Pf-HR :-nan: L2-HR :0.74068: (Sim:1h18m53s) 
CPU  1 inst:  118000001 cyc:  125817581 now IPC :0.62379: AVG IPC :0.92922: L2-Pf-HR :-nan: L2-HR :0.74355: (Sim:1h18m57s) 
CPU  3 inst:  119000000 cyc:  126231376 now IPC :0.66310: AVG IPC :0.93413: L2-Pf-HR :-nan: L2-HR :0.72996: (Sim:1h19m7s) 
CPU  2 inst:  120000003 cyc:  126533385 now IPC :0.75278: AVG IPC :0.93985: L2-Pf-HR :-nan: L2-HR :0.75895: (Sim:1h19m14s) 
CPU  0 inst:  119000000 cyc:  126786964 now IPC :0.89618: AVG IPC :0.93001: L2-Pf-HR :-nan: L2-HR :0.74078: (Sim:1h19m20s) 
CPU  1 inst:  119000000 cyc:  127231696 now IPC :0.70716: AVG IPC :0.92673: L2-Pf-HR :-nan: L2-HR :0.74381: (Sim:1h19m30s) 
CPU  3 inst:  120000003 cyc:  127693661 now IPC :0.68386: AVG IPC :0.93124: L2-Pf-HR :-nan: L2-HR :0.73003: (Sim:1h19m41s) 
CPU  2 inst:  121000002 cyc:  127831731 now IPC :0.77021: AVG IPC :0.93811: L2-Pf-HR :-nan: L2-HR :0.75902: (Sim:1h19m44s) 
CPU  0 inst:  120000002 cyc:  127977429 now IPC :0.84001: AVG IPC :0.92916: L2-Pf-HR :-nan: L2-HR :0.74093: (Sim:1h19m48s) 
CPU  1 inst:  120000002 cyc:  128528642 now IPC :0.77104: AVG IPC :0.92515: L2-Pf-HR :-nan: L2-HR :0.74393: (Sim:1h20m3s) 
CPU  2 inst:  122000002 cyc:  128810559 now IPC :1.02163: AVG IPC :0.93875: L2-Pf-HR :-nan: L2-HR :0.75917: (Sim:1h20m11s) 
CPU  3 inst:  121000002 cyc:  128817476 now IPC :0.88983: AVG IPC :0.93088: L2-Pf-HR :-nan: L2-HR :0.73008: (Sim:1h20m11s) 
CPU  0 inst:  121000002 cyc:  128961754 now IPC :1.01592: AVG IPC :0.92983: L2-Pf-HR :-nan: L2-HR :0.74095: (Sim:1h20m15s) 
CPU  1 inst:  121000002 cyc:  129716710 now IPC :0.84170: AVG IPC :0.92438: L2-Pf-HR :-nan: L2-HR :0.74368: (Sim:1h20m43s) 
CPU  2 inst:  123000000 cyc:  129778685 now IPC :1.03292: AVG IPC :0.93946: L2-Pf-HR :-nan: L2-HR :0.75926: (Sim:1h20m46s) 
CPU  3 inst:  122000001 cyc:  130025062 now IPC :0.82810: AVG IPC :0.92992: L2-Pf-HR :-nan: L2-HR :0.73038: (Sim:1h20m57s) 
CPU  0 inst:  122000002 cyc:  130124013 now IPC :0.86039: AVG IPC :0.92921: L2-Pf-HR :-nan: L2-HR :0.74099: (Sim:1h21m2s) 
CPU  2 inst:  124000000 cyc:  130814880 now IPC :0.96507: AVG IPC :0.93966: L2-Pf-HR :-nan: L2-HR :0.75944: (Sim:1h21m33s) 
CPU  1 inst:  122000000 cyc:  130947886 now IPC :0.81223: AVG IPC :0.92332: L2-Pf-HR :-nan: L2-HR :0.74363: (Sim:1h21m39s) 
CPU  3 inst:  123000000 cyc:  131206111 now IPC :0.84670: AVG IPC :0.92916: L2-Pf-HR :-nan: L2-HR :0.73049: (Sim:1h21m51s) 
CPU  0 inst:  123000000 cyc:  131366396 now IPC :0.80490: AVG IPC :0.92802: L2-Pf-HR :-nan: L2-HR :0.74089: (Sim:1h21m59s) 
CPU  2 inst:  125000000 cyc:  131967421 now IPC :0.86765: AVG IPC :0.93903: L2-Pf-HR :-nan: L2-HR :0.75970: (Sim:1h22m26s) 
CPU  1 inst:  123000000 cyc:  132100277 now IPC :0.86776: AVG IPC :0.92283: L2-Pf-HR :-nan: L2-HR :0.74371: (Sim:1h22m33s) 
CPU  3 inst:  124000000 cyc:  132264415 now IPC :0.94491: AVG IPC :0.92929: L2-Pf-HR :-nan: L2-HR :0.73055: (Sim:1h22m40s) 
CPU  0 inst:  124000000 cyc:  132521793 now IPC :0.86550: AVG IPC :0.92747: L2-Pf-HR :-nan: L2-HR :0.74120: (Sim:1h22m50s) 
CPU  2 inst:  126000001 cyc:  133172279 now IPC :0.82997: AVG IPC :0.93804: L2-Pf-HR :-nan: L2-HR :0.75969: (Sim:1h23m7s) 
CPU  1 inst:  124000000 cyc:  133203622 now IPC :0.90633: AVG IPC :0.92269: L2-Pf-HR :-nan: L2-HR :0.74388: (Sim:1h23m8s) 
CPU  3 inst:  125000000 cyc:  133213513 now IPC :1.05363: AVG IPC :0.93018: L2-Pf-HR :-nan: L2-HR :0.73046: (Sim:1h23m9s) 
CPU  0 inst:  125000000 cyc:  133579958 now IPC :0.94503: AVG IPC :0.92761: L2-Pf-HR :-nan: L2-HR :0.74126: (Sim:1h23m18s) 
CPU  1 inst:  125000000 cyc:  134183772 now IPC :1.02025: AVG IPC :0.92341: L2-Pf-HR :-nan: L2-HR :0.74395: (Sim:1h23m35s) 
CPU  2 inst:  127000005 cyc:  134218798 now IPC :0.95555: AVG IPC :0.93817: L2-Pf-HR :-nan: L2-HR :0.75925: (Sim:1h23m36s) 
CPU  3 inst:  126000001 cyc:  134268729 now IPC :0.94767: AVG IPC :0.93032: L2-Pf-HR :-nan: L2-HR :0.73025: (Sim:1h23m38s) 
CPU  0 inst:  126000001 cyc:  134704750 now IPC :0.88905: AVG IPC :0.92729: L2-Pf-HR :-nan: L2-HR :0.74098: (Sim:1h23m48s) 
CPU  1 inst:  126000001 cyc:  135473341 now IPC :0.77545: AVG IPC :0.92199: L2-Pf-HR :-nan: L2-HR :0.74373: (Sim:1h24m7s) 
CPU  2 inst:  128000000 cyc:  135516176 now IPC :0.77078: AVG IPC :0.93656: L2-Pf-HR :-nan: L2-HR :0.75882: (Sim:1h24m9s) 
CPU  3 inst:  127000002 cyc:  135516748 now IPC :0.80127: AVG IPC :0.92912: L2-Pf-HR :-nan: L2-HR :0.73006: (Sim:1h24m9s) 
CPU  0 inst:  127000004 cyc:  135621558 now IPC :1.09074: AVG IPC :0.92840: L2-Pf-HR :-nan: L2-HR :0.74091: (Sim:1h24m11s) 
CPU  1 inst:  127000003 cyc:  136661830 now IPC :0.84141: AVG IPC :0.92128: L2-Pf-HR :-nan: L2-HR :0.74335: (Sim:1h24m44s) 
CPU  3 inst:  128000000 cyc:  136702689 now IPC :0.84321: AVG IPC :0.92837: L2-Pf-HR :-nan: L2-HR :0.72976: (Sim:1h24m46s) 
CPU  0 inst:  128000004 cyc:  136796351 now IPC :0.85121: AVG IPC :0.92773: L2-Pf-HR :-nan: L2-HR :0.74074: (Sim:1h24m51s) 
CPU  2 inst:  129000003 cyc:  136814292 now IPC :0.77035: AVG IPC :0.93497: L2-Pf-HR :-nan: L2-HR :0.75835: (Sim:1h24m51s) 
CPU  1 inst:  128000005 cyc:  137752467 now IPC :0.91690: AVG IPC :0.92125: L2-Pf-HR :-nan: L2-HR :0.74317: (Sim:1h25m37s) 
CPU  3 inst:  129000002 cyc:  137830331 now IPC :0.88681: AVG IPC :0.92803: L2-Pf-HR :-nan: L2-HR :0.72944: (Sim:1h25m40s) 
CPU  0 inst:  129000003 cyc:  137891741 now IPC :0.91292: AVG IPC :0.92762: L2-Pf-HR :-nan: L2-HR :0.74075: (Sim:1h25m43s) 
CPU  2 inst:  130000000 cyc:  138090404 now IPC :0.78363: AVG IPC :0.93356: L2-Pf-HR :-nan: L2-HR :0.75813: (Sim:1h25m52s) 
CPU  1 inst:  129000003 cyc:  138961569 now IPC :0.82706: AVG IPC :0.92042: L2-Pf-HR :-nan: L2-HR :0.74312: (Sim:1h26m17s) 
CPU  2 inst:  131000003 cyc:  139235521 now IPC :0.87328: AVG IPC :0.93306: L2-Pf-HR :-nan: L2-HR :0.75827: (Sim:1h26m24s) 
CPU  3 inst:  130000000 cyc:  139369710 now IPC :0.64961: AVG IPC :0.92493: L2-Pf-HR :-nan: L2-HR :0.72935: (Sim:1h26m27s) 
CPU  0 inst:  130000000 cyc:  139443273 now IPC :0.64452: AVG IPC :0.92444: L2-Pf-HR :-nan: L2-HR :0.74085: (Sim:1h26m28s) 
CPU  2 inst:  132000005 cyc:  140341144 now IPC :0.90447: AVG IPC :0.93284: L2-Pf-HR :-nan: L2-HR :0.75835: (Sim:1h26m49s) 
CPU  1 inst:  130000000 cyc:  140548954 now IPC :0.62997: AVG IPC :0.91712: L2-Pf-HR :-nan: L2-HR :0.74304: (Sim:1h26m53s) 
CPU  3 inst:  131000002 cyc:  140834795 now IPC :0.68256: AVG IPC :0.92239: L2-Pf-HR :-nan: L2-HR :0.72956: (Sim:1h27m0s) 
CPU  0 inst:  131000001 cyc:  140948520 now IPC :0.66434: AVG IPC :0.92165: L2-Pf-HR :-nan: L2-HR :0.74091: (Sim:1h27m2s) 
CPU  2 inst:  133000000 cyc:  141762223 now IPC :0.70369: AVG IPC :0.93052: L2-Pf-HR :-nan: L2-HR :0.75851: (Sim:1h27m20s) 
CPU  1 inst:  131000002 cyc:  142095752 now IPC :0.64650: AVG IPC :0.91415: L2-Pf-HR :-nan: L2-HR :0.74306: (Sim:1h27m28s) 
CPU  3 inst:  132000005 cyc:  142148414 now IPC :0.76126: AVG IPC :0.92089: L2-Pf-HR :-nan: L2-HR :0.72980: (Sim:1h27m29s) 
CPU  0 inst:  132000005 cyc:  142425732 now IPC :0.67695: AVG IPC :0.91909: L2-Pf-HR :-nan: L2-HR :0.74084: (Sim:1h27m35s) 
CPU  2 inst:  134000004 cyc:  143220528 now IPC :0.68573: AVG IPC :0.92801: L2-Pf-HR :-nan: L2-HR :0.75861: (Sim:1h27m54s) 
CPU  3 inst:  133000000 cyc:  143226405 now IPC :0.92765: AVG IPC :0.92094: L2-Pf-HR :-nan: L2-HR :0.72991: (Sim:1h27m54s) 
CPU  1 inst:  132000005 cyc:  143615582 now IPC :0.65797: AVG IPC :0.91142: L2-Pf-HR :-nan: L2-HR :0.74309: (Sim:1h28m3s) 
CPU  0 inst:  133000000 cyc:  143837796 now IPC :0.70818: AVG IPC :0.91701: L2-Pf-HR :-nan: L2-HR :0.74069: (Sim:1h28m8s) 
CPU  3 inst:  134000000 cyc:  144452729 now IPC :0.81545: AVG IPC :0.92004: L2-Pf-HR :-nan: L2-HR :0.72992: (Sim:1h28m22s) 
CPU  2 inst:  135000002 cyc:  144751804 now IPC :0.65305: AVG IPC :0.92509: L2-Pf-HR :-nan: L2-HR :0.75884: (Sim:1h28m29s) 
CPU  0 inst:  134000004 cyc:  144967135 now IPC :0.88548: AVG IPC :0.91676: L2-Pf-HR :-nan: L2-HR :0.74093: (Sim:1h28m34s) 
CPU  1 inst:  133000000 cyc:  145105710 now IPC :0.67108: AVG IPC :0.90894: L2-Pf-HR :-nan: L2-HR :0.74341: (Sim:1h28m37s) 
CPU  3 inst:  135000002 cyc:  145816933 now IPC :0.73303: AVG IPC :0.91828: L2-Pf-HR :-nan: L2-HR :0.72990: (Sim:1h28m54s) 
CPU  0 inst:  135000002 cyc:  146092717 now IPC :0.88843: AVG IPC :0.91654: L2-Pf-HR :-nan: L2-HR :0.74089: (Sim:1h29m1s) 
CPU  2 inst:  136000001 cyc:  146187407 now IPC :0.69657: AVG IPC :0.92283: L2-Pf-HR :-nan: L2-HR :0.75886: (Sim:1h29m4s) 
CPU  1 inst:  134000004 cyc:  146397497 now IPC :0.77412: AVG IPC :0.90774: L2-Pf-HR :-nan: L2-HR :0.74375: (Sim:1h29m8s) 
CPU  3 inst:  136000001 cyc:  147157571 now IPC :0.74591: AVG IPC :0.91670: L2-Pf-HR :-nan: L2-HR :0.72993: (Sim:1h29m28s) 
CPU  0 inst:  136000000 cyc:  147316045 now IPC :0.81744: AVG IPC :0.91571: L2-Pf-HR :-nan: L2-HR :0.74093: (Sim:1h29m32s) 
CPU  2 inst:  137000000 cyc:  147339124 now IPC :0.86827: AVG IPC :0.92240: L2-Pf-HR :-nan: L2-HR :0.75903: (Sim:1h29m33s) 
CPU  1 inst:  135000002 cyc:  147488712 now IPC :0.91641: AVG IPC :0.90781: L2-Pf-HR :-nan: L2-HR :0.74389: (Sim:1h29m37s) 
CPU  3 inst:  137000000 cyc:  148305610 now IPC :0.87105: AVG IPC :0.91634: L2-Pf-HR :-nan: L2-HR :0.73005: (Sim:1h29m57s) 
CPU  0 inst:  137000001 cyc:  148407517 now IPC :0.91619: AVG IPC :0.91571: L2-Pf-HR :-nan: L2-HR :0.74111: (Sim:1h30m0s) 
CPU  2 inst:  138000003 cyc:  148633213 now IPC :0.77275: AVG IPC :0.92109: L2-Pf-HR :-nan: L2-HR :0.75905: (Sim:1h30m4s) 
CPU  1 inst:  136000001 cyc:  149003698 now IPC :0.66007: AVG IPC :0.90527: L2-Pf-HR :-nan: L2-HR :0.74396: (Sim:1h30m12s) 
CPU  3 inst:  138000003 cyc:  149868097 now IPC :0.64001: AVG IPC :0.91344: L2-Pf-HR :-nan: L2-HR :0.73019: (Sim:1h30m30s) 
CPU  0 inst:  138000003 cyc:  149909400 now IPC :0.66583: AVG IPC :0.91319: L2-Pf-HR :-nan: L2-HR :0.74105: (Sim:1h30m31s) 
CPU  2 inst:  139000005 cyc:  150219481 now IPC :0.63041: AVG IPC :0.91800: L2-Pf-HR :-nan: L2-HR :0.75922: (Sim:1h30m37s) 
CPU  1 inst:  137000001 cyc:  150616002 now IPC :0.62023: AVG IPC :0.90220: L2-Pf-HR :-nan: L2-HR :0.74392: (Sim:1h30m45s) 
CPU  3 inst:  139000005 cyc:  151493173 now IPC :0.61536: AVG IPC :0.91023: L2-Pf-HR :-nan: L2-HR :0.73039: (Sim:1h31m3s) 
CPU  0 inst:  139000004 cyc:  151514906 now IPC :0.62286: AVG IPC :0.91010: L2-Pf-HR :-nan: L2-HR :0.74101: (Sim:1h31m4s) 
CPU  2 inst:  140000002 cyc:  151820891 now IPC :0.62445: AVG IPC :0.91488: L2-Pf-HR :-nan: L2-HR :0.75933: (Sim:1h31m10s) 
CPU  1 inst:  138000003 cyc:  152270833 now IPC :0.60429: AVG IPC :0.89894: L2-Pf-HR :-nan: L2-HR :0.74372: (Sim:1h31m20s) 
CPU  2 inst:  141000004 cyc:  152980407 now IPC :0.86243: AVG IPC :0.91448: L2-Pf-HR :-nan: L2-HR :0.75955: (Sim:1h31m36s) 
CPU  3 inst:  140000001 cyc:  153019470 now IPC :0.65518: AVG IPC :0.90767: L2-Pf-HR :-nan: L2-HR :0.73042: (Sim:1h31m37s) 
CPU  0 inst:  140000002 cyc:  153038647 now IPC :0.65628: AVG IPC :0.90755: L2-Pf-HR :-nan: L2-HR :0.74122: (Sim:1h31m38s) 
CPU  1 inst:  139000005 cyc:  153591407 now IPC :0.75725: AVG IPC :0.89771: L2-Pf-HR :-nan: L2-HR :0.74387: (Sim:1h31m51s) 
CPU  2 inst:  142000000 cyc:  154151923 now IPC :0.85359: AVG IPC :0.91401: L2-Pf-HR :-nan: L2-HR :0.75960: (Sim:1h32m4s) 
CPU  3 inst:  141000005 cyc:  154455672 now IPC :0.69628: AVG IPC :0.90569: L2-Pf-HR :-nan: L2-HR :0.73032: (Sim:1h32m11s) 
CPU  0 inst:  141000005 cyc:  154466758 now IPC :0.70023: AVG IPC :0.90562: L2-Pf-HR :-nan: L2-HR :0.74129: (Sim:1h32m11s) 
CPU  1 inst:  140000000 cyc:  154804100 now IPC :0.82461: AVG IPC :0.89714: L2-Pf-HR :-nan: L2-HR :0.74397: (Sim:1h32m20s) 
CPU  2 inst:  143000000 cyc:  155321559 now IPC :0.85497: AVG IPC :0.91357: L2-Pf-HR :-nan: L2-HR :0.75928: (Sim:1h32m34s) 
CPU  0 inst:  142000000 cyc:  155721890 now IPC :0.79672: AVG IPC :0.90474: L2-Pf-HR :-nan: L2-HR :0.74111: (Sim:1h32m45s) 
CPU  3 inst:  142000000 cyc:  155728865 now IPC :0.78542: AVG IPC :0.90470: L2-Pf-HR :-nan: L2-HR :0.73014: (Sim:1h32m45s) 
CPU  1 inst:  141000005 cyc:  155890301 now IPC :0.92064: AVG IPC :0.89730: L2-Pf-HR :-nan: L2-HR :0.74404: (Sim:1h32m49s) 
CPU  2 inst:  144000003 cyc:  156597271 now IPC :0.78388: AVG IPC :0.91250: L2-Pf-HR :-nan: L2-HR :0.75885: (Sim:1h33m4s) 
CPU  0 inst:  143000000 cyc:  157070032 now IPC :0.74176: AVG IPC :0.90333: L2-Pf-HR :-nan: L2-HR :0.74110: (Sim:1h33m16s) 
CPU  3 inst:  143000000 cyc:  157235470 now IPC :0.66374: AVG IPC :0.90237: L2-Pf-HR :-nan: L2-HR :0.73002: (Sim:1h33m20s) 
CPU  1 inst:  142000000 cyc:  157322890 now IPC :0.69803: AVG IPC :0.89548: L2-Pf-HR :-nan: L2-HR :0.74392: (Sim:1h33m22s) 
CPU  2 inst:  145000003 cyc:  157903217 now IPC :0.76573: AVG IPC :0.91128: L2-Pf-HR :-nan: L2-HR :0.75846: (Sim:1h33m38s) 
CPU  0 inst:  144000000 cyc:  158050867 now IPC :1.01954: AVG IPC :0.90406: L2-Pf-HR :-nan: L2-HR :0.74082: (Sim:1h33m42s) 
CPU  3 inst:  144000002 cyc:  158268199 now IPC :0.96831: AVG IPC :0.90281: L2-Pf-HR :-nan: L2-HR :0.72969: (Sim:1h33m48s) 
CPU  1 inst:  143000000 cyc:  158490185 now IPC :0.85668: AVG IPC :0.89519: L2-Pf-HR :-nan: L2-HR :0.74362: (Sim:1h33m53s) 
CPU  0 inst:  145000004 cyc:  159073793 now IPC :0.97759: AVG IPC :0.90454: L2-Pf-HR :-nan: L2-HR :0.74090: (Sim:1h34m10s) 
CPU  2 inst:  146000003 cyc:  159129204 now IPC :0.81567: AVG IPC :0.91054: L2-Pf-HR :-nan: L2-HR :0.75822: (Sim:1h34m12s) 
CPU  3 inst:  145000004 cyc:  159291349 now IPC :0.97738: AVG IPC :0.90329: L2-Pf-HR :-nan: L2-HR :0.72944: (Sim:1h34m16s) 
CPU  1 inst:  144000003 cyc:  159538582 now IPC :0.95384: AVG IPC :0.89558: L2-Pf-HR :-nan: L2-HR :0.74335: (Sim:1h34m22s) 
CPU  0 inst:  146000000 cyc:  160259440 now IPC :0.84342: AVG IPC :0.90408: L2-Pf-HR :-nan: L2-HR :0.74092: (Sim:1h34m41s) 
CPU  2 inst:  147000004 cyc:  160275668 now IPC :0.87225: AVG IPC :0.91026: L2-Pf-HR :-nan: L2-HR :0.75839: (Sim:1h34m41s) 
CPU  3 inst:  146000003 cyc:  160509933 now IPC :0.82062: AVG IPC :0.90266: L2-Pf-HR :-nan: L2-HR :0.72928: (Sim:1h34m48s) 
CPU  1 inst:  145000004 cyc:  160648218 now IPC :0.90120: AVG IPC :0.89562: L2-Pf-HR :-nan: L2-HR :0.74338: (Sim:1h34m52s) 
CPU  2 inst:  148000002 cyc:  161357663 now IPC :0.92422: AVG IPC :0.91036: L2-Pf-HR :-nan: L2-HR :0.75841: (Sim:1h35m10s) 
CPU  0 inst:  147000004 cyc:  161383838 now IPC :0.88937: AVG IPC :0.90398: L2-Pf-HR :-nan: L2-HR :0.74096: (Sim:1h35m11s) 
CPU  3 inst:  147000004 cyc:  161582690 now IPC :0.93218: AVG IPC :0.90285: L2-Pf-HR :-nan: L2-HR :0.72933: (Sim:1h35m16s) 
CPU  1 inst:  146000003 cyc:  161875001 now IPC :0.81514: AVG IPC :0.89500: L2-Pf-HR :-nan: L2-HR :0.74321: (Sim:1h35m24s) 
CPU  2 inst:  149000000 cyc:  162415439 now IPC :0.94538: AVG IPC :0.91059: L2-Pf-HR :-nan: L2-HR :0.75861: (Sim:1h35m39s) 
CPU  0 inst:  148000004 cyc:  162514471 now IPC :0.88446: AVG IPC :0.90384: L2-Pf-HR :-nan: L2-HR :0.74089: (Sim:1h35m42s) 
CPU  3 inst:  148000002 cyc:  162671736 now IPC :0.91823: AVG IPC :0.90296: L2-Pf-HR :-nan: L2-HR :0.72957: (Sim:1h35m46s) 
CPU  1 inst:  147000005 cyc:  163043287 now IPC :0.85596: AVG IPC :0.89472: L2-Pf-HR :-nan: L2-HR :0.74325: (Sim:1h35m55s) 
CPU  2 inst:  150000003 cyc:  163482692 now IPC :0.93699: AVG IPC :0.91076: L2-Pf-HR :-nan: L2-HR :0.75878: (Sim:1h36m7s) 
CPU  0 inst:  149000000 cyc:  163766399 now IPC :0.79876: AVG IPC :0.90303: L2-Pf-HR :-nan: L2-HR :0.74076: (Sim:1h36m14s) 
CPU  3 inst:  149000000 cyc:  163856683 now IPC :0.84392: AVG IPC :0.90253: L2-Pf-HR :-nan: L2-HR :0.72973: (Sim:1h36m16s) 
CPU  1 inst:  148000003 cyc:  164258510 now IPC :0.82289: AVG IPC :0.89419: L2-Pf-HR :-nan: L2-HR :0.74322: (Sim:1h36m26s) 
CPU  2 inst:  151000000 cyc:  164614371 now IPC :0.88364: AVG IPC :0.91057: L2-Pf-HR :-nan: L2-HR :0.75893: (Sim:1h36m35s) 
CPU  0 inst:  150000003 cyc:  165006829 now IPC :0.80617: AVG IPC :0.90230: L2-Pf-HR :-nan: L2-HR :0.74089: (Sim:1h36m45s) 
CPU  3 inst:  150000001 cyc:  165136316 now IPC :0.78147: AVG IPC :0.90159: L2-Pf-HR :-nan: L2-HR :0.72985: (Sim:1h36m49s) 
CPU  1 inst:  149000000 cyc:  165395697 now IPC :0.87936: AVG IPC :0.89408: L2-Pf-HR :-nan: L2-HR :0.74357: (Sim:1h36m55s) 
CPU  2 inst:  152000004 cyc:  165835349 now IPC :0.81902: AVG IPC :0.90990: L2-Pf-HR :-nan: L2-HR :0.75894: (Sim:1h37m7s) 
CPU  0 inst:  151000000 cyc:  166115211 now IPC :0.90221: AVG IPC :0.90230: L2-Pf-HR :-nan: L2-HR :0.74098: (Sim:1h37m15s) 
CPU  3 inst:  151000000 cyc:  166243333 now IPC :0.90333: AVG IPC :0.90160: L2-Pf-HR :-nan: L2-HR :0.72982: (Sim:1h37m18s) 
CPU  1 inst:  150000001 cyc:  166464355 now IPC :0.93575: AVG IPC :0.89435: L2-Pf-HR :-nan: L2-HR :0.74372: (Sim:1h37m24s) 
CPU  2 inst:  153000004 cyc:  166943159 now IPC :0.90268: AVG IPC :0.90985: L2-Pf-HR :-nan: L2-HR :0.75898: (Sim:1h37m36s) 
CPU  0 inst:  152000000 cyc:  167386156 now IPC :0.78682: AVG IPC :0.90142: L2-Pf-HR :-nan: L2-HR :0.74099: (Sim:1h37m47s) 
CPU  1 inst:  151000000 cyc:  167544647 now IPC :0.92567: AVG IPC :0.89456: L2-Pf-HR :-nan: L2-HR :0.74392: (Sim:1h37m52s) 
CPU  3 inst:  152000000 cyc:  167575937 now IPC :0.75041: AVG IPC :0.90039: L2-Pf-HR :-nan: L2-HR :0.72988: (Sim:1h37m52s) 
CPU  2 inst:  154000005 cyc:  168144778 now IPC :0.83221: AVG IPC :0.90929: L2-Pf-HR :-nan: L2-HR :0.75911: (Sim:1h38m7s) 
CPU  0 inst:  153000005 cyc:  168466869 now IPC :0.92532: AVG IPC :0.90157: L2-Pf-HR :-nan: L2-HR :0.74107: (Sim:1h38m15s) 
CPU  1 inst:  152000000 cyc:  168730487 now IPC :0.84328: AVG IPC :0.89419: L2-Pf-HR :-nan: L2-HR :0.74392: (Sim:1h38m23s) 
CPU  3 inst:  153000004 cyc:  168781145 now IPC :0.82974: AVG IPC :0.89988: L2-Pf-HR :-nan: L2-HR :0.72992: (Sim:1h38m24s) 
CPU  2 inst:  155000003 cyc:  169285284 now IPC :0.87680: AVG IPC :0.90907: L2-Pf-HR :-nan: L2-HR :0.75919: (Sim:1h38m38s) 
CPU  0 inst:  154000005 cyc:  169430886 now IPC :1.03733: AVG IPC :0.90235: L2-Pf-HR :-nan: L2-HR :0.74115: (Sim:1h38m42s) 
CPU  1 inst:  153000005 cyc:  169777399 now IPC :0.95519: AVG IPC :0.89457: L2-Pf-HR :-nan: L2-HR :0.74385: (Sim:1h38m51s) 
CPU  3 inst:  154000005 cyc:  169885834 now IPC :0.90523: AVG IPC :0.89992: L2-Pf-HR :-nan: L2-HR :0.73015: (Sim:1h38m54s) 
CPU  2 inst:  156000001 cyc:  170410529 now IPC :0.88869: AVG IPC :0.90893: L2-Pf-HR :-nan: L2-HR :0.75932: (Sim:1h39m9s) 
CPU  0 inst:  155000001 cyc:  170431628 now IPC :0.99925: AVG IPC :0.90292: L2-Pf-HR :-nan: L2-HR :0.74103: (Sim:1h39m9s) 
CPU  1 inst:  154000005 cyc:  170815172 now IPC :0.96360: AVG IPC :0.89499: L2-Pf-HR :-nan: L2-HR :0.74375: (Sim:1h39m20s) 
CPU  3 inst:  155000003 cyc:  171045147 now IPC :0.86258: AVG IPC :0.89966: L2-Pf-HR :-nan: L2-HR :0.73025: (Sim:1h39m26s) 
CPU  2 inst:  157000001 cyc:  171477716 now IPC :0.93704: AVG IPC :0.90911: L2-Pf-HR :-nan: L2-HR :0.75950: (Sim:1h39m37s) 
CPU  0 inst:  156000004 cyc:  171502872 now IPC :0.93350: AVG IPC :0.90311: L2-Pf-HR :-nan: L2-HR :0.74122: (Sim:1h39m38s) 
CPU  1 inst:  155000003 cyc:  171995116 now IPC :0.84750: AVG IPC :0.89467: L2-Pf-HR :-nan: L2-HR :0.74381: (Sim:1h39m50s) 
CPU  3 inst:  156000002 cyc:  172268121 now IPC :0.81768: AVG IPC :0.89908: L2-Pf-HR :-nan: L2-HR :0.73032: (Sim:1h39m57s) 
CPU  2 inst:  158000000 cyc:  172504002 now IPC :0.97439: AVG IPC :0.90950: L2-Pf-HR :-nan: L2-HR :0.75958: (Sim:1h40m4s) 
CPU  0 inst:  157000001 cyc:  172681426 now IPC :0.84849: AVG IPC :0.90274: L2-Pf-HR :-nan: L2-HR :0.74131: (Sim:1h40m9s) 
CPU  1 inst:  156000001 cyc:  173191250 now IPC :0.83603: AVG IPC :0.89426: L2-Pf-HR :-nan: L2-HR :0.74392: (Sim:1h40m21s) 
CPU  3 inst:  157000001 cyc:  173484518 now IPC :0.82210: AVG IPC :0.89853: L2-Pf-HR :-nan: L2-HR :0.73025: (Sim:1h40m28s) 
CPU  2 inst:  159000003 cyc:  173721088 now IPC :0.82164: AVG IPC :0.90888: L2-Pf-HR :-nan: L2-HR :0.75931: (Sim:1h40m33s) 
CPU  0 inst:  158000000 cyc:  173987548 now IPC :0.76562: AVG IPC :0.90170: L2-Pf-HR :-nan: L2-HR :0.74120: (Sim:1h40m41s) 
CPU  1 inst:  157000004 cyc:  174457750 now IPC :0.78958: AVG IPC :0.89349: L2-Pf-HR :-nan: L2-HR :0.74401: (Sim:1h40m53s) 
CPU  3 inst:  158000000 cyc:  174855174 now IPC :0.72958: AVG IPC :0.89720: L2-Pf-HR :-nan: L2-HR :0.73018: (Sim:1h41m2s) 
CPU  2 inst:  160000005 cyc:  174887694 now IPC :0.85719: AVG IPC :0.90853: L2-Pf-HR :-nan: L2-HR :0.75894: (Sim:1h41m3s) 
CPU  0 inst:  159000003 cyc:  174997605 now IPC :0.99005: AVG IPC :0.90222: L2-Pf-HR :-nan: L2-HR :0.74115: (Sim:1h41m6s) 
CPU  1 inst:  158000000 cyc:  175659817 now IPC :0.83190: AVG IPC :0.89307: L2-Pf-HR :-nan: L2-HR :0.74392: (Sim:1h41m23s) 
CPU  3 inst:  159000003 cyc:  176108117 now IPC :0.79812: AVG IPC :0.89649: L2-Pf-HR :-nan: L2-HR :0.73001: (Sim:1h41m33s) 
CPU  2 inst:  161000002 cyc:  176220624 now IPC :0.75022: AVG IPC :0.90733: L2-Pf-HR :-nan: L2-HR :0.75862: (Sim:1h41m36s) 
CPU  0 inst:  160000005 cyc:  176286732 now IPC :0.77572: AVG IPC :0.90129: L2-Pf-HR :-nan: L2-HR :0.74088: (Sim:1h41m38s) 
[...]
Core_0_L1I_writeback_miss 0

Core_0_L2C_total_access 15636082
Core_0_L2C_total_hit 10069516
Core_0_L2C_total_miss 5566566
Core_0_L2C_loads 10709344
Core_0_L2C_load_hit 6191862
Core_0_L2C_load_miss 4517482
Core_0_L2C_RFOs 1052098
Core_0_L2C_RFO_hit 3019
Core_0_L2C_RFO_miss 1049079
Core_0_L2C_prefetches 0
Core_0_L2C_prefetch_hit 0
Core_0_L2C_prefetch_miss 0
Core_0_L2C_writebacks 3874640
Core_0_L2C_writeback_hit 3874635
Core_0_L2C_writeback_miss 5

Core_0_LLC_total_access 8799078
Core_0_LLC_total_hit 3259353
Core_0_LLC_total_miss 5539725
Core_0_LLC_loads 4517483
Core_0_LLC_load_hit 68045
Core_0_LLC_load_miss 4449438
Core_0_LLC_RFOs 1049079
Core_0_LLC_RFO_hit 295
Core_0_LLC_RFO_miss 1048784
Core_0_LLC_prefetches 0
Core_0_LLC_prefetch_hit 0
Core_0_LLC_prefetch_miss 0
Core_0_LLC_writebacks 3232516
Core_0_LLC_writeback_hit 3191013
Core_0_LLC_writeback_miss 41503


CPU 1 cumulative IPC: 0.46975 instructions: 657000002 cycles: 1398627821
Core_1_L1D_total_access 204549125
Core_1_L1D_total_hit 192799748
Core_1_L1D_total_miss 11749377
Core_1_L1D_loads 187737107
Core_1_L1D_load_hit 177041361
Core_1_L1D_load_miss 10695746
Core_1_L1D_RFOs 16812018
Core_1_L1D_RFO_hit 15758387
Core_1_L1D_RFO_miss 1053631
Core_1_L1D_prefetches 0
Core_1_L1D_prefetch_hit 0
Core_1_L1D_prefetch_miss 0
Core_1_L1D_writebacks 0
Core_1_L1D_writeback_hit 0
Core_1_L1D_writeback_miss 0

Core_1_L1I_total_access 103781757
Core_1_L1I_total_hit 103779770
Core_1_L1I_total_miss 1987
Core_1_L1I_loads 103781757
Core_1_L1I_load_hit 103779770
Core_1_L1I_load_miss 1987
Core_1_L1I_RFOs 0
Core_1_L1I_RFO_hit 0
Core_1_L1I_RFO_miss 0
Core_1_L1I_prefetches 0
Core_1_L1I_prefetch_hit 0
Core_1_L1I_prefetch_miss 0
Core_1_L1I_writebacks 0
Core_1_L1I_writeback_hit 0
Core_1_L1I_writeback_miss 0

Core_1_L2C_total_access 15628210
Core_1_L2C_total_hit 10072429
Core_1_L2C_total_miss 5555781
Core_1_L2C_loads 10697729
Core_1_L2C_load_hit 6191004
Core_1_L2C_load_miss 4506725
Core_1_L2C_RFOs 1053631
Core_1_L2C_RFO_hit 4580
Core_1_L2C_RFO_miss 1049051
Core_1_L2C_prefetches 0
Core_1_L2C_prefetch_hit 0
Core_1_L2C_prefetch_miss 0
Core_1_L2C_writebacks 3876850
Core_1_L2C_writeback_hit 3876845
Core_1_L2C_writeback_miss 5

Core_1_LLC_total_access 8787768
Core_1_LLC_total_hit 3243146
Core_1_LLC_total_miss 5544622
Core_1_LLC_loads 4506725
Core_1_LLC_load_hit 66700
Core_1_LLC_load_miss 4440025
Core_1_LLC_RFOs 1049051
Core_1_LLC_RFO_hit 266
Core_1_LLC_RFO_miss 1048785
Core_1_LLC_prefetches 0
Core_1_LLC_prefetch_hit 0
Core_1_LLC_prefetch_miss 0
Core_1_LLC_writebacks 3231992
Core_1_LLC_writeback_hit 3176180
Core_1_LLC_writeback_miss 55812


CPU 2 cumulative IPC: 0.47240 instructions: 660712424 cycles: 1398627822
Core_2_L1D_total_access 205658483
Core_2_L1D_total_hit 193547393
Core_2_L1D_total_miss 12111090
Core_2_L1D_loads 188826683
Core_2_L1D_load_hit 177769090
Core_2_L1D_load_miss 11057593
Core_2_L1D_RFOs 16831800
Core_2_L1D_RFO_hit 15778303
Core_2_L1D_RFO_miss 1053497
Core_2_L1D_prefetches 0
Core_2_L1D_prefetch_hit 0
Core_2_L1D_prefetch_miss 0
Core_2_L1D_writebacks 0
Core_2_L1D_writeback_hit 0
Core_2_L1D_writeback_miss 0

Core_2_L1I_total_access 103819081
Core_2_L1I_total_hit 103813963
Core_2_L1I_total_miss 5118
Core_2_L1I_loads 103819081
Core_2_L1I_load_hit 103813963
Core_2_L1I_load_miss 5118
Core_2_L1I_RFOs 0
Core_2_L1I_RFO_hit 0
Core_2_L1I_RFO_miss 0
Core_2_L1I_prefetches 0
Core_2_L1I_prefetch_hit 0
Core_2_L1I_prefetch_miss 0
Core_2_L1I_writebacks 0
Core_2_L1I_writeback_hit 0
Core_2_L1I_writeback_miss 0

Core_2_L2C_total_access 15999622
Core_2_L2C_total_hit 10420128
Core_2_L2C_total_miss 5579494
Core_2_L2C_loads 11062710
Core_2_L2C_load_hit 6532340
Core_2_L2C_load_miss 4530370
Core_2_L2C_RFOs 1053497
Core_2_L2C_RFO_hit 4378
Core_2_L2C_RFO_miss 1049119
Core_2_L2C_prefetches 0
Core_2_L2C_prefetch_hit 0
Core_2_L2C_prefetch_miss 0
Core_2_L2C_writebacks 3883415
Core_2_L2C_writeback_hit 3883410
Core_2_L2C_writeback_miss 5

Core_2_LLC_total_access 8812975
Core_2_LLC_total_hit 3254592
Core_2_LLC_total_miss 5558383
Core_2_LLC_loads 4530370
Core_2_LLC_load_hit 70093
Core_2_LLC_load_miss 4460277
Core_2_LLC_RFOs 1049119
Core_2_LLC_RFO_hit 217
Core_2_LLC_RFO_miss 1048902
Core_2_LLC_prefetches 0
Core_2_LLC_prefetch_hit 0
Core_2_LLC_prefetch_miss 0
Core_2_LLC_writebacks 3233486
Core_2_LLC_writeback_hit 3184282
Core_2_LLC_writeback_miss 49204


CPU 3 cumulative IPC: 0.46999 instructions: 657346804 cycles: 1398627822
Core_3_L1D_total_access 204681676
Core_3_L1D_total_hit 193154044
Core_3_L1D_total_miss 11527632
Core_3_L1D_loads 187868774
Core_3_L1D_load_hit 177393155
Core_3_L1D_load_miss 10475619
Core_3_L1D_RFOs 16812902
Core_3_L1D_RFO_hit 15760889
Core_3_L1D_RFO_miss 1052013
Core_3_L1D_prefetches 0
Core_3_L1D_prefetch_hit 0
Core_3_L1D_prefetch_miss 0
Core_3_L1D_writebacks 0
Core_3_L1D_writeback_hit 0
Core_3_L1D_writeback_miss 0

Core_3_L1I_total_access 104018750
Core_3_L1I_total_hit 104016693
Core_3_L1I_total_miss 2057
Core_3_L1I_loads 104018750
Core_3_L1I_load_hit 104016693
Core_3_L1I_load_miss 2057
Core_3_L1I_RFOs 0
Core_3_L1I_RFO_hit 0
Core_3_L1I_RFO_miss 0
Core_3_L1I_prefetches 0
Core_3_L1I_prefetch_hit 0
Core_3_L1I_prefetch_miss 0
Core_3_L1I_writebacks 0
Core_3_L1I_writeback_hit 0
Core_3_L1I_writeback_miss 0

Core_3_L2C_total_access 15402077
Core_3_L2C_total_hit 9843768
Core_3_L2C_total_miss 5558309
Core_3_L2C_loads 10477674
Core_3_L2C_load_hit 5968376
Core_3_L2C_load_miss 4509298
Core_3_L2C_RFOs 1052013
Core_3_L2C_RFO_hit 3007
Core_3_L2C_RFO_miss 1049006
Core_3_L2C_prefetches 0
Core_3_L2C_prefetch_hit 0
Core_3_L2C_prefetch_miss 0
Core_3_L2C_writebacks 3872390
Core_3_L2C_writeback_hit 3872385
Core_3_L2C_writeback_miss 5

Core_3_LLC_total_access 8791984
Core_3_LLC_total_hit 3247863
Core_3_LLC_total_miss 5544121
Core_3_LLC_loads 4509298
Core_3_LLC_load_hit 67693
Core_3_LLC_load_miss 4441605
Core_3_LLC_RFOs 1049006
Core_3_LLC_RFO_hit 212
Core_3_LLC_RFO_miss 1048794
Core_3_LLC_prefetches 0
Core_3_LLC_prefetch_hit 0
Core_3_LLC_prefetch_miss 0
Core_3_LLC_writebacks 3233680
Core_3_LLC_writeback_hit 3179958
Core_3_LLC_writeback_miss 53722


[ROI Statistics]
Core_0_instructions 657000000
Core_0_cycles 1396734436
Core_0_IPC 0.47038

Core_0_branch_prediction_accuracy 99.58938
Core_0_branch_MPKI 0.11881
Core_0_average_ROB_occupancy_at_mispredict 572.50117

Core_0_L1D_total_access 204548507
Core_0_L1D_total_hit 192842963 L1D_total_Hit Ratio: 0.94277
Core_0_L1D_total_miss 11705544
Core_0_L1D_loads 187735776
Core_0_L1D_load_hit 177082321 L1D_load_Hit Ratio: 0.94325
Core_0_L1D_load_miss 10653455
Core_0_L1D_RFOs 16812731
Core_0_L1D_RFO_hit 15760642 L1D_RFO_Hit Ratio: 0.93742
Core_0_L1D_RFO_miss 1052089
Core_0_L1D_prefetches 0
Core_0_L1D_prefetch_hit 0 L1D_prefetch_Hit Ratio: -nan
Core_0_L1D_prefetch_miss 0
Core_0_L1D_writebacks 0
Core_0_L1D_writeback_hit 0 L1D_writeback_Hit Ratio: -nan
Core_0_L1D_writeback_miss 0
Core_0_L1D_prefetch_requested 0
Core_0_L1D_prefetch_issued 0
Core_0_L1D_prefetch_useful 0 L1D_Useful Ratio: -nan
Core_0_L1D_prefetch_useless 0
Core_0_L1D_prefetch_late 0
Core_0_L1D_average_miss_latency 386.81277

Core_0_L1I_total_access 103784536
Core_0_L1I_total_hit 103782489 L1I_total_Hit Ratio: 0.99998
Core_0_L1I_total_miss 2047
Core_0_L1I_loads 103784536
Core_0_L1I_load_hit 103782489 L1I_load_Hit Ratio: 0.99998
Core_0_L1I_load_miss 2047
Core_0_L1I_RFOs 0
Core_0_L1I_RFO_hit 0 L1I_RFO_Hit Ratio: -nan
Core_0_L1I_RFO_miss 0
Core_0_L1I_prefetches 0
Core_0_L1I_prefetch_hit 0 L1I_prefetch_Hit Ratio: -nan
Core_0_L1I_prefetch_miss 0
Core_0_L1I_writebacks 0
Core_0_L1I_writeback_hit 0 L1I_writeback_Hit Ratio: -nan
Core_0_L1I_writeback_miss 0
Core_0_L1I_prefetch_requested 0
Core_0_L1I_prefetch_issued 0
Core_0_L1I_prefetch_useful 0 L1I_Useful Ratio: -nan
Core_0_L1I_prefetch_useless 0
Core_0_L1I_prefetch_late 0
Core_0_L1I_average_miss_latency 946.09868

Core_0_L2C_total_access 15579706
Core_0_L2C_total_hit 10023860 L2C_total_Hit Ratio: 0.64339
Core_0_L2C_total_miss 5555846
Core_0_L2C_loads 10655502
Core_0_L2C_load_hit 6148740 L2C_load_Hit Ratio: 0.57705
Core_0_L2C_load_miss 4506762
Core_0_L2C_RFOs 1052089
Core_0_L2C_RFO_hit 3010 L2C_RFO_Hit Ratio: 0.00286
Core_0_L2C_RFO_miss 1049079
Core_0_L2C_prefetches 0
Core_0_L2C_prefetch_hit 0 L2C_prefetch_Hit Ratio: -nan
Core_0_L2C_prefetch_miss 0
Core_0_L2C_writebacks 3872115
Core_0_L2C_writeback_hit 3872110 L2C_writeback_Hit Ratio: 1.00000
Core_0_L2C_writeback_miss 5
Core_0_L2C_prefetch_requested 0
Core_0_L2C_prefetch_issued 0
Core_0_L2C_prefetch_useful 0 L2C_Useful Ratio: -nan
Core_0_L2C_prefetch_useless 0
Core_0_L2C_prefetch_late 0
Core_0_L2C_average_miss_latency 774.38840

Core_0_LLC_total_access 8787838
Core_0_LLC_total_hit 3257751 LLC_total_Hit Ratio: 0.37071
Core_0_LLC_total_miss 5530087
Core_0_LLC_loads 4506762
Core_0_LLC_load_hit 66894 LLC_load_Hit Ratio: 0.01484
Core_0_LLC_load_miss 4439868
Core_0_LLC_RFOs 1049079
Core_0_LLC_RFO_hit 295 LLC_RFO_Hit Ratio: 0.00028
Core_0_LLC_RFO_miss 1048784
Core_0_LLC_prefetches 0
Core_0_LLC_prefetch_hit 0 LLC_prefetch_Hit Ratio: -nan
Core_0_LLC_prefetch_miss 0
Core_0_LLC_writebacks 3231997
Core_0_LLC_writeback_hit 3190562 LLC_writeback_Hit Ratio: 0.98718
Core_0_LLC_writeback_miss 41435
Core_0_LLC_prefetch_requested 0
Core_0_LLC_prefetch_issued 0
Core_0_LLC_prefetch_useful 0 LLC_Useful Ratio: -nan
Core_0_LLC_prefetch_useless 0
Core_0_LLC_prefetch_late 0
Core_0_LLC_average_miss_latency 2947.47380

Core_0_major_page_fault 0
Core_0_minor_page_fault 37887

Core_1_instructions 657000002
Core_1_cycles 1398627821
Core_1_IPC 0.46975

Core_1_branch_prediction_accuracy 99.58944
Core_1_branch_MPKI 0.11916
Core_1_average_ROB_occupancy_at_mispredict 572.67332

Core_1_L1D_total_access 204549125
Core_1_L1D_total_hit 192799748 L1D_total_Hit Ratio: 0.94256
Core_1_L1D_total_miss 11749377
Core_1_L1D_loads 187737107
Core_1_L1D_load_hit 177041361 L1D_load_Hit Ratio: 0.94303
Core_1_L1D_load_miss 10695746
Core_1_L1D_RFOs 16812018
Core_1_L1D_RFO_hit 15758387 L1D_RFO_Hit Ratio: 0.93733
Core_1_L1D_RFO_miss 1053631
Core_1_L1D_prefetches 0
Core_1_L1D_prefetch_hit 0 L1D_prefetch_Hit Ratio: -nan
Core_1_L1D_prefetch_miss 0
Core_1_L1D_writebacks 0
Core_1_L1D_writeback_hit 0 L1D_writeback_Hit Ratio: -nan
Core_1_L1D_writeback_miss 0
Core_1_L1D_prefetch_requested 0
Core_1_L1D_prefetch_issued 0
Core_1_L1D_prefetch_useful 0 L1D_Useful Ratio: -nan
Core_1_L1D_prefetch_useless 0
Core_1_L1D_prefetch_late 0
Core_1_L1D_average_miss_latency 385.49135

Core_1_L1I_total_access 103781757
Core_1_L1I_total_hit 103779770 L1I_total_Hit Ratio: 0.99998
Core_1_L1I_total_miss 1987
Core_1_L1I_loads 103781757
Core_1_L1I_load_hit 103779770 L1I_load_Hit Ratio: 0.99998
Core_1_L1I_load_miss 1987
Core_1_L1I_RFOs 0
Core_1_L1I_RFO_hit 0 L1I_RFO_Hit Ratio: -nan
Core_1_L1I_RFO_miss 0
Core_1_L1I_prefetches 0
Core_1_L1I_prefetch_hit 0 L1I_prefetch_Hit Ratio: -nan
Core_1_L1I_prefetch_miss 0
Core_1_L1I_writebacks 0
Core_1_L1I_writeback_hit 0 L1I_writeback_Hit Ratio: -nan
Core_1_L1I_writeback_miss 0
Core_1_L1I_prefetch_requested 0
Core_1_L1I_prefetch_issued 0
Core_1_L1I_prefetch_useful 0 L1I_Useful Ratio: -nan
Core_1_L1I_prefetch_useless 0
Core_1_L1I_prefetch_late 0
Core_1_L1I_average_miss_latency 1269.04378

Core_1_L2C_total_access 15628210
Core_1_L2C_total_hit 10072429 L2C_total_Hit Ratio: 0.64450
Core_1_L2C_total_miss 5555781
Core_1_L2C_loads 10697729
Core_1_L2C_load_hit 6191004 L2C_load_Hit Ratio: 0.57872
Core_1_L2C_load_miss 4506725
Core_1_L2C_RFOs 1053631
Core_1_L2C_RFO_hit 4580 L2C_RFO_Hit Ratio: 0.00435
Core_1_L2C_RFO_miss 1049051
Core_1_L2C_prefetches 0
Core_1_L2C_prefetch_hit 0 L2C_prefetch_Hit Ratio: -nan
Core_1_L2C_prefetch_miss 0
Core_1_L2C_writebacks 3876850
Core_1_L2C_writeback_hit 3876845 L2C_writeback_Hit Ratio: 1.00000
Core_1_L2C_writeback_miss 5
Core_1_L2C_prefetch_requested 0
Core_1_L2C_prefetch_issued 0
Core_1_L2C_prefetch_useful 0 L2C_Useful Ratio: -nan
Core_1_L2C_prefetch_useless 0
Core_1_L2C_prefetch_late 0
Core_1_L2C_average_miss_latency 774.79207

Core_1_LLC_total_access 8787768
Core_1_LLC_total_hit 3243146 LLC_total_Hit Ratio: 0.36905
Core_1_LLC_total_miss 5544622
Core_1_LLC_loads 4506725
Core_1_LLC_load_hit 66700 LLC_load_Hit Ratio: 0.01480
Core_1_LLC_load_miss 4440025
Core_1_LLC_RFOs 1049051
Core_1_LLC_RFO_hit 266 LLC_RFO_Hit Ratio: 0.00025
Core_1_LLC_RFO_miss 1048785
Core_1_LLC_prefetches 0
Core_1_LLC_prefetch_hit 0 LLC_prefetch_Hit Ratio: -nan
Core_1_LLC_prefetch_miss 0
Core_1_LLC_writebacks 3231992
Core_1_LLC_writeback_hit 3176180 LLC_writeback_Hit Ratio: 0.98273
Core_1_LLC_writeback_miss 55812
Core_1_LLC_prefetch_requested 0
Core_1_LLC_prefetch_issued 0
Core_1_LLC_prefetch_useful 0 LLC_Useful Ratio: -nan
Core_1_LLC_prefetch_useless 0
Core_1_LLC_prefetch_late 0
Core_1_LLC_average_miss_latency 2939.74712

Core_1_major_page_fault 0
Core_1_minor_page_fault 37887

Core_2_instructions 657000001
Core_2_cycles 1395479538
Core_2_IPC 0.47081

Core_2_branch_prediction_accuracy 99.58541
Core_2_branch_MPKI 0.11984
Core_2_average_ROB_occupancy_at_mispredict 567.64512

Core_2_L1D_total_access 204489630
Core_2_L1D_total_hit 192453650 L1D_total_Hit Ratio: 0.94114
Core_2_L1D_total_miss 12035980
Core_2_L1D_loads 187679096
Core_2_L1D_load_hit 176696483 L1D_load_Hit Ratio: 0.94148
Core_2_L1D_load_miss 10982613
Core_2_L1D_RFOs 16810534
Core_2_L1D_RFO_hit 15757167 L1D_RFO_Hit Ratio: 0.93734
Core_2_L1D_RFO_miss 1053367
Core_2_L1D_prefetches 0
Core_2_L1D_prefetch_hit 0 L1D_prefetch_Hit Ratio: -nan
Core_2_L1D_prefetch_miss 0
Core_2_L1D_writebacks 0
Core_2_L1D_writeback_hit 0 L1D_writeback_Hit Ratio: -nan
Core_2_L1D_writeback_miss 0
Core_2_L1D_prefetch_requested 0
Core_2_L1D_prefetch_issued 0
Core_2_L1D_prefetch_useful 0 L1D_Useful Ratio: -nan
Core_2_L1D_prefetch_useless 0
Core_2_L1D_prefetch_late 0
Core_2_L1D_average_miss_latency 374.33803

Core_2_L1I_total_access 103434499
Core_2_L1I_total_hit 103432426 L1I_total_Hit Ratio: 0.99998
Core_2_L1I_total_miss 2073
Core_2_L1I_loads 103434499
Core_2_L1I_load_hit 103432426 L1I_load_Hit Ratio: 0.99998
Core_2_L1I_load_miss 2073
Core_2_L1I_RFOs 0
Core_2_L1I_RFO_hit 0 L1I_RFO_Hit Ratio: -nan
Core_2_L1I_RFO_miss 0
Core_2_L1I_prefetches 0
Core_2_L1I_prefetch_hit 0 L1I_prefetch_Hit Ratio: -nan
Core_2_L1I_prefetch_miss 0
Core_2_L1I_writebacks 0
Core_2_L1I_writeback_hit 0 L1I_writeback_Hit Ratio: -nan
Core_2_L1I_writeback_miss 0
Core_2_L1I_prefetch_requested 0
Core_2_L1I_prefetch_issued 0
Core_2_L1I_prefetch_useful 0 L1I_Useful Ratio: -nan
Core_2_L1I_prefetch_useless 0
Core_2_L1I_prefetch_late 0
Core_2_L1I_average_miss_latency 1251.67149

Core_2_L2C_total_access 15915094
Core_2_L2C_total_hit 10357070 L2C_total_Hit Ratio: 0.65077
Core_2_L2C_total_miss 5558024
Core_2_L2C_loads 10984686
Core_2_L2C_load_hit 6475691 L2C_load_Hit Ratio: 0.58952
Core_2_L2C_load_miss 4508995
Core_2_L2C_RFOs 1053367
Core_2_L2C_RFO_hit 4343 L2C_RFO_Hit Ratio: 0.00412
Core_2_L2C_RFO_miss 1049024
Core_2_L2C_prefetches 0
Core_2_L2C_prefetch_hit 0 L2C_prefetch_Hit Ratio: -nan
Core_2_L2C_prefetch_miss 0
Core_2_L2C_writebacks 3877041
Core_2_L2C_writeback_hit 3877036 L2C_writeback_Hit Ratio: 1.00000
Core_2_L2C_writeback_miss 5
Core_2_L2C_prefetch_requested 0
Core_2_L2C_prefetch_issued 0
Core_2_L2C_prefetch_useful 0 L2C_Useful Ratio: -nan
Core_2_L2C_prefetch_useless 0
Core_2_L2C_prefetch_late 0
Core_2_L2C_average_miss_latency 768.96059

Core_2_LLC_total_access 8790093
Core_2_LLC_total_hit 3252600 LLC_total_Hit Ratio: 0.37003
Core_2_LLC_total_miss 5537493
Core_2_LLC_loads 4508995
Core_2_LLC_load_hit 68913 LLC_load_Hit Ratio: 0.01528
Core_2_LLC_load_miss 4440082
Core_2_LLC_RFOs 1049024
Core_2_LLC_RFO_hit 214 LLC_RFO_Hit Ratio: 0.00020
Core_2_LLC_RFO_miss 1048810
Core_2_LLC_prefetches 0
Core_2_LLC_prefetch_hit 0 LLC_prefetch_Hit Ratio: -nan
Core_2_LLC_prefetch_miss 0
Core_2_LLC_writebacks 3232074
Core_2_LLC_writeback_hit 3183473 LLC_writeback_Hit Ratio: 0.98496
Core_2_LLC_writeback_miss 48601
Core_2_LLC_prefetch_requested 0
Core_2_LLC_prefetch_issued 0
Core_2_LLC_prefetch_useful 0 LLC_Useful Ratio: -nan
Core_2_LLC_prefetch_useless 0
Core_2_LLC_prefetch_late 0
Core_2_LLC_average_miss_latency 2943.53177

Core_2_major_page_fault 0
Core_2_minor_page_fault 37966

Core_3_instructions 657000001
Core_3_cycles 1398355246
Core_3_IPC 0.46984

Core_3_branch_prediction_accuracy 99.58944
Core_3_branch_MPKI 0.11911
Core_3_average_ROB_occupancy_at_mispredict 572.67958

Core_3_L1D_total_access 204565583
Core_3_L1D_total_hit 193045210 L1D_total_Hit Ratio: 0.94368
Core_3_L1D_total_miss 11520373
Core_3_L1D_loads 187753468
Core_3_L1D_load_hit 177285106 L1D_load_Hit Ratio: 0.94424
Core_3_L1D_load_miss 10468362
Core_3_L1D_RFOs 16812115
Core_3_L1D_RFO_hit 15760104 L1D_RFO_Hit Ratio: 0.93743
Core_3_L1D_RFO_miss 1052011
Core_3_L1D_prefetches 0
Core_3_L1D_prefetch_hit 0 L1D_prefetch_Hit Ratio: -nan
Core_3_L1D_prefetch_miss 0
Core_3_L1D_writebacks 0
Core_3_L1D_writeback_hit 0 L1D_writeback_Hit Ratio: -nan
Core_3_L1D_writeback_miss 0
Core_3_L1D_prefetch_requested 0
Core_3_L1D_prefetch_issued 0
Core_3_L1D_prefetch_useful 0 L1D_Useful Ratio: -nan
Core_3_L1D_prefetch_useless 0
Core_3_L1D_prefetch_late 0
Core_3_L1D_average_miss_latency 393.36478

Core_3_L1I_total_access 103983451
Core_3_L1I_total_hit 103981394 L1I_total_Hit Ratio: 0.99998
Core_3_L1I_total_miss 2057
Core_3_L1I_loads 103983451
Core_3_L1I_load_hit 103981394 L1I_load_Hit Ratio: 0.99998
Core_3_L1I_load_miss 2057
Core_3_L1I_RFOs 0
Core_3_L1I_RFO_hit 0 L1I_RFO_Hit Ratio: -nan
Core_3_L1I_RFO_miss 0
Core_3_L1I_prefetches 0
Core_3_L1I_prefetch_hit 0 L1I_prefetch_Hit Ratio: -nan
Core_3_L1I_prefetch_miss 0
Core_3_L1I_writebacks 0
Core_3_L1I_writeback_hit 0 L1I_writeback_Hit Ratio: -nan
Core_3_L1I_writeback_miss 0
Core_3_L1I_prefetch_requested 0
Core_3_L1I_prefetch_issued 0
Core_3_L1I_prefetch_useful 0 L1I_Useful Ratio: -nan
Core_3_L1I_prefetch_useless 0
Core_3_L1I_prefetch_late 0
Core_3_L1I_average_miss_latency 1100.32766

Core_3_L2C_total_access 15394427
Core_3_L2C_total_hit 9837742 L2C_total_Hit Ratio: 0.63905
Core_3_L2C_total_miss 5556685
Core_3_L2C_loads 10470417
Core_3_L2C_load_hit 5962743 L2C_load_Hit Ratio: 0.56948
Core_3_L2C_load_miss 4507674
Core_3_L2C_RFOs 1052011
Core_3_L2C_RFO_hit 3005 L2C_RFO_Hit Ratio: 0.00286
Core_3_L2C_RFO_miss 1049006
Core_3_L2C_prefetches 0
Core_3_L2C_prefetch_hit 0 L2C_prefetch_Hit Ratio: -nan
Core_3_L2C_prefetch_miss 0
Core_3_L2C_writebacks 3871999
Core_3_L2C_writeback_hit 3871994 L2C_writeback_Hit Ratio: 1.00000
Core_3_L2C_writeback_miss 5
Core_3_L2C_prefetch_requested 0
Core_3_L2C_prefetch_issued 0
Core_3_L2C_prefetch_useful 0 L2C_Useful Ratio: -nan
Core_3_L2C_prefetch_useless 0
Core_3_L2C_prefetch_late 0
Core_3_L2C_average_miss_latency 775.81477

Core_3_LLC_total_access 8790322
Core_3_LLC_total_hit 3247672 LLC_total_Hit Ratio: 0.36946
Core_3_LLC_total_miss 5542650
Core_3_LLC_loads 4507674
Core_3_LLC_load_hit 67509 LLC_load_Hit Ratio: 0.01498
Core_3_LLC_load_miss 4440165
Core_3_LLC_RFOs 1049006
Core_3_LLC_RFO_hit 212 LLC_RFO_Hit Ratio: 0.00020
Core_3_LLC_RFO_miss 1048794
Core_3_LLC_prefetches 0
Core_3_LLC_prefetch_hit 0 LLC_prefetch_Hit Ratio: -nan
Core_3_LLC_prefetch_miss 0
Core_3_LLC_writebacks 3233642
Core_3_LLC_writeback_hit 3179951 LLC_writeback_Hit Ratio: 0.98340
Core_3_LLC_writeback_miss 53691
Core_3_LLC_prefetch_requested 0
Core_3_LLC_prefetch_issued 0
Core_3_LLC_prefetch_useful 0 LLC_Useful Ratio: -nan
Core_3_LLC_prefetch_useless 0
Core_3_LLC_prefetch_late 0
Core_3_LLC_average_miss_latency 2940.79304

Core_3_major_page_fault 0
Core_3_minor_page_fault 37887

Channel_0_RQ_row_buffer_hit 7212293
Channel_0_RQ_row_buffer_miss 14774318
Channel_0_WQ_row_buffer_hit 5289239
Channel_0_WQ_row_buffer_miss 7553508
Channel_0_WQ_full 5865
Channel_0_dbus_congested 16602063

avg_congested_cycle 8

EzSearch AVG IPC :0.47038: L2-Pf-HR :-nan : L2-HR :0.64399 Uful:-nan
EzSearch AVG IPC :0.46975: L2-Pf-HR :-nan : L2-HR :0.64450 Uful:-nan
EzSearch AVG IPC :0.47081: L2-Pf-HR :-nan : L2-HR :0.65127 Uful:-nan
EzSearch AVG IPC :0.46984: L2-Pf-HR :-nan : L2-HR :0.63912 Uful:-nan
     > Finished combination: TraceType=770-tot Sim:657000000 Prefetcher=L2no L1=no
