TRACE: [496000000][OPT-125M]_[h12][s1024][d64] Warmup: 2000000 NumTraces: 496000000
L1:berti:L2:berti
*************************************************
   ChampSim Multicore Out-of-Order Simulator
   Last compiled: Oct 29 2024 03:25:19
*************************************************

trace_0 770-tot_memTraces_v3/memTraces[496000000][OPT-125M]_[h12][s1024][d64].champsim.xz
trace_1 770-tot_memTraces_v3/memTraces[496000000][OPT-125M]_[h12][s1024][d64].champsim.xz
trace_2 770-tot_memTraces_v3/memTraces[496000000][OPT-125M]_[h12][s1024][d64].champsim.xz
trace_3 770-tot_memTraces_v3/memTraces[496000000][OPT-125M]_[h12][s1024][d64].champsim.xz
CPU 0 L1D Berti prefetcher
CPU 0 L2C Berti prefetcher
CPU 1 L1D Berti prefetcher
CPU 1 L2C Berti prefetcher
CPU 2 L1D Berti prefetcher
CPU 2 L2C Berti prefetcher
CPU 3 L1D Berti prefetcher
CPU 3 L2C Berti prefetcher
MAIN.cc ln 751 stats print skipped
CPU  0 inst:    1000002 cyc:     497767 now IPC :2.00898: AVG IPC :2.00898: L2-Pf-HR :0.67146: L2-HR :0.67085: (Sim:0h0m34s) 
CPU  1 inst:    1000002 cyc:     497833 now IPC :2.00871: AVG IPC :2.00871: L2-Pf-HR :0.62814: L2-HR :0.64331: (Sim:0h0m34s) 
CPU  3 inst:    1000002 cyc:     498066 now IPC :2.00777: AVG IPC :2.00777: L2-Pf-HR :0.62132: L2-HR :0.63682: (Sim:0h0m35s) 
CPU  2 inst:    1000002 cyc:     498124 now IPC :2.00754: AVG IPC :2.00754: L2-Pf-HR :0.64168: L2-HR :0.65257: (Sim:0h0m35s) 
CPU  0 inst:    2000000 cyc:     979931 now IPC :2.07398: AVG IPC :2.04096: L2-Pf-HR :0.76427: L2-HR :0.76831: (Sim:0h1m12s) 
CPU  1 inst:    2000000 cyc:     979983 now IPC :2.07404: AVG IPC :2.04085: L2-Pf-HR :0.72774: L2-HR :0.74200: (Sim:0h1m12s) 
CPU  3 inst:    2000000 cyc:     980213 now IPC :2.07405: AVG IPC :2.04037: L2-Pf-HR :0.73113: L2-HR :0.74465: (Sim:0h1m12s) 
CPU  2 inst:    2000000 cyc:     980258 now IPC :2.07411: AVG IPC :2.04028: L2-Pf-HR :0.71931: L2-HR :0.73643: (Sim:0h1m12s) 

Warmup complete CPU  0 instructions:    2000621 cycles:     980259 (Simulation time: 0 hr 1 min 12 sec) 
Warmup complete CPU  1 instructions:    2000488 cycles:     980259 (Simulation time: 0 hr 1 min 12 sec) 
Warmup complete CPU  2 instructions:    2000002 cycles:     980259 (Simulation time: 0 hr 1 min 12 sec) 
Warmup complete CPU  3 instructions:    2000129 cycles:     980258 (Simulation time: 0 hr 1 min 12 sec) 

CPU  0 inst:    3000002 cyc:    1688784 now IPC :1.41073: AVG IPC :1.41051: L2-Pf-HR :0.88297: L2-HR :0.88920: (Sim:0h1m45s) 
CPU  3 inst:    3000002 cyc:    1697420 now IPC :1.39430: AVG IPC :1.39421: L2-Pf-HR :0.84471: L2-HR :0.86312: (Sim:0h1m45s) 
CPU  2 inst:    3000002 cyc:    1742706 now IPC :1.31157: AVG IPC :1.31157: L2-Pf-HR :0.84849: L2-HR :0.86308: (Sim:0h1m48s) 
CPU  1 inst:    3000000 cyc:    1759899 now IPC :1.28219: AVG IPC :1.28202: L2-Pf-HR :0.84987: L2-HR :0.86640: (Sim:0h1m48s) 
CPU  0 inst:    4000000 cyc:    2250424 now IPC :1.78050: AVG IPC :1.57411: L2-Pf-HR :0.87125: L2-HR :0.88024: (Sim:0h2m14s) 
CPU  3 inst:    4000000 cyc:    2348592 now IPC :1.53569: AVG IPC :1.46154: L2-Pf-HR :0.83909: L2-HR :0.85571: (Sim:0h2m19s) 
CPU  1 inst:    4000000 cyc:    2419951 now IPC :1.51503: AVG IPC :1.38885: L2-Pf-HR :0.85528: L2-HR :0.86682: (Sim:0h2m24s) 
CPU  2 inst:    4000000 cyc:    2426026 now IPC :1.46344: AVG IPC :1.38335: L2-Pf-HR :0.85044: L2-HR :0.86149: (Sim:0h2m24s) 
CPU  3 inst:    5000002 cyc:    2849602 now IPC :1.99597: AVG IPC :1.60477: L2-Pf-HR :0.83778: L2-HR :0.85646: (Sim:0h2m47s) 
CPU  1 inst:    5000002 cyc:    2985604 now IPC :1.76787: AVG IPC :1.49576: L2-Pf-HR :0.84885: L2-HR :0.86054: (Sim:0h2m53s) 
CPU  2 inst:    5000002 cyc:    3005479 now IPC :1.72577: AVG IPC :1.48132: L2-Pf-HR :0.85487: L2-HR :0.86405: (Sim:0h2m54s) 
CPU  3 inst:    6000000 cyc:    3323694 now IPC :2.10929: AVG IPC :1.70684: L2-Pf-HR :0.85077: L2-HR :0.86805: (Sim:0h3m11s) 
CPU  1 inst:    6000000 cyc:    3476208 now IPC :2.03830: AVG IPC :1.60240: L2-Pf-HR :0.85926: L2-HR :0.87069: (Sim:0h3m19s) 
CPU  2 inst:    6000000 cyc:    3505318 now IPC :2.00064: AVG IPC :1.58412: L2-Pf-HR :0.86819: L2-HR :0.87611: (Sim:0h3m20s) 
DEADLOCK! CPU 0 instr_id: 4817975 translated: 2 fetched: 2 scheduled: 2 executed: 1 is_memory: 1 event: 2645530 current: 3645530

Load Queue Entry
[LQ] entry: 0 instr_id: 0 address: 0 translated: 0 fetched: 0
[LQ] entry: 1 instr_id: 0 address: 0 translated: 0 fetched: 0
[LQ] entry: 2 instr_id: 0 address: 0 translated: 0 fetched: 0
[LQ] entry: 3 instr_id: 0 address: 0 translated: 0 fetched: 0
[LQ] entry: 4 instr_id: 0 address: 0 translated: 0 fetched: 0
[LQ] entry: 5 instr_id: 0 address: 0 translated: 0 fetched: 0
[LQ] entry: 6 instr_id: 0 address: 0 translated: 0 fetched: 0
[LQ] entry: 7 instr_id: 0 address: 0 translated: 0 fetched: 0
[LQ] entry: 8 instr_id: 0 address: 0 translated: 0 fetched: 0
[LQ] entry: 9 instr_id: 0 address: 0 translated: 0 fetched: 0
[LQ] entry: 10 instr_id: 0 address: 0 translated: 0 fetched: 0
[LQ] entry: 11 instr_id: 0 address: 0 translated: 0 fetched: 0
[LQ] entry: 12 instr_id: 0 address: 0 translated: 0 fetched: 0
[LQ] entry: 13 instr_id: 0 address: 0 translated: 0 fetched: 0
[LQ] entry: 14 instr_id: 0 address: 0 translated: 0 fetched: 0
[LQ] entry: 15 instr_id: 0 address: 0 translated: 0 fetched: 0
[LQ] entry: 16 instr_id: 0 address: 0 translated: 0 fetched: 0
[LQ] entry: 17 instr_id: 0 address: 0 translated: 0 fetched: 0
[LQ] entry: 18 instr_id: 0 address: 0 translated: 0 fetched: 0
[LQ] entry: 19 instr_id: 0 address: 0 translated: 0 fetched: 0
[LQ] entry: 20 instr_id: 0 address: 0 translated: 0 fetched: 0
[LQ] entry: 21 instr_id: 0 address: 0 translated: 0 fetched: 0
[LQ] entry: 22 instr_id: 4817975 address: d7cc94e57a80 translated: 2 fetched: 0
[LQ] entry: 23 instr_id: 0 address: 0 translated: 0 fetched: 0
[LQ] entry: 24 instr_id: 0 address: 0 translated: 0 fetched: 0
[LQ] entry: 25 instr_id: 0 address: 0 translated: 0 fetched: 0
[LQ] entry: 26 instr_id: 0 address: 0 translated: 0 fetched: 0
[LQ] entry: 27 instr_id: 0 address: 0 translated: 0 fetched: 0
[LQ] entry: 28 instr_id: 0 address: 0 translated: 0 fetched: 0
[LQ] entry: 29 instr_id: 0 address: 0 translated: 0 fetched: 0
[LQ] entry: 30 instr_id: 0 address: 0 translated: 0 fetched: 0
[LQ] entry: 31 instr_id: 0 address: 0 translated: 0 fetched: 0
[LQ] entry: 32 instr_id: 0 address: 0 translated: 0 fetched: 0
[LQ] entry: 33 instr_id: 0 address: 0 translated: 0 fetched: 0
[LQ] entry: 34 instr_id: 0 address: 0 translated: 0 fetched: 0
[LQ] entry: 35 instr_id: 0 address: 0 translated: 0 fetched: 0
[LQ] entry: 36 instr_id: 0 address: 0 translated: 0 fetched: 0
[LQ] entry: 37 instr_id: 0 address: 0 translated: 0 fetched: 0
[LQ] entry: 38 instr_id: 0 address: 0 translated: 0 fetched: 0
[LQ] entry: 39 instr_id: 0 address: 0 translated: 0 fetched: 0
[LQ] entry: 40 instr_id: 0 address: 0 translated: 0 fetched: 0
[LQ] entry: 41 instr_id: 0 address: 0 translated: 0 fetched: 0
[LQ] entry: 42 instr_id: 4818096 address: d7cc94e57a90 translated: 2 fetched: 0
[LQ] entry: 43 instr_id: 0 address: 0 translated: 0 fetched: 0
[LQ] entry: 44 instr_id: 0 address: 0 translated: 0 fetched: 0
[LQ] entry: 45 instr_id: 0 address: 0 translated: 0 fetched: 0
[LQ] entry: 46 instr_id: 0 address: 0 translated: 0 fetched: 0
[LQ] entry: 47 instr_id: 0 address: 0 translated: 0 fetched: 0
[LQ] entry: 48 instr_id: 0 address: 0 translated: 0 fetched: 0
[LQ] entry: 49 instr_id: 0 address: 0 translated: 0 fetched: 0
[LQ] entry: 50 instr_id: 0 address: 0 translated: 0 fetched: 0
[LQ] entry: 51 instr_id: 0 address: 0 translated: 0 fetched: 0
[LQ] entry: 52 instr_id: 0 address: 0 translated: 0 fetched: 0
[LQ] entry: 53 instr_id: 0 address: 0 translated: 0 fetched: 0
[LQ] entry: 54 instr_id: 0 address: 0 translated: 0 fetched: 0
[LQ] entry: 55 instr_id: 0 address: 0 translated: 0 fetched: 0
[LQ] entry: 56 instr_id: 0 address: 0 translated: 0 fetched: 0
[LQ] entry: 57 instr_id: 0 address: 0 translated: 0 fetched: 0
[LQ] entry: 58 instr_id: 0 address: 0 translated: 0 fetched: 0
[LQ] entry: 59 instr_id: 0 address: 0 translated: 0 fetched: 0
[LQ] entry: 60 instr_id: 0 address: 0 translated: 0 fetched: 0
[LQ] entry: 61 instr_id: 0 address: 0 translated: 0 fetched: 0
[LQ] entry: 62 instr_id: 0 address: 0 translated: 0 fetched: 0
[LQ] entry: 63 instr_id: 0 address: 0 translated: 0 fetched: 0
[LQ] entry: 64 instr_id: 4818217 address: d7cc94e57aa0 translated: 2 fetched: 0
[LQ] entry: 65 instr_id: 0 address: 0 translated: 0 fetched: 0
[LQ] entry: 66 instr_id: 0 address: 0 translated: 0 fetched: 0
[LQ] entry: 67 instr_id: 0 address: 0 translated: 0 fetched: 0
[LQ] entry: 68 instr_id: 0 address: 0 translated: 0 fetched: 0
[LQ] entry: 69 instr_id: 0 address: 0 translated: 0 fetched: 0
[LQ] entry: 70 instr_id: 0 address: 0 translated: 0 fetched: 0
[LQ] entry: 71 instr_id: 0 address: 0 translated: 0 fetched: 0
[LQ] entry: 72 instr_id: 0 address: 0 translated: 0 fetched: 0
[LQ] entry: 73 instr_id: 0 address: 0 translated: 0 fetched: 0
[LQ] entry: 74 instr_id: 0 address: 0 translated: 0 fetched: 0
[LQ] entry: 75 instr_id: 0 address: 0 translated: 0 fetched: 0
[LQ] entry: 76 instr_id: 0 address: 0 translated: 0 fetched: 0
[LQ] entry: 77 instr_id: 0 address: 0 translated: 0 fetched: 0
[LQ] entry: 78 instr_id: 0 address: 0 translated: 0 fetched: 0
[LQ] entry: 79 instr_id: 0 address: 0 translated: 0 fetched: 0
[LQ] entry: 80 instr_id: 0 address: 0 translated: 0 fetched: 0
[LQ] entry: 81 instr_id: 0 address: 0 translated: 0 fetched: 0
[LQ] entry: 82 instr_id: 0 address: 0 translated: 0 fetched: 0
[LQ] entry: 83 instr_id: 0 address: 0 translated: 0 fetched: 0
[LQ] entry: 84 instr_id: 0 address: 0 translated: 0 fetched: 0
[LQ] entry: 85 instr_id: 0 address: 0 translated: 0 fetched: 0
[LQ] entry: 86 instr_id: 4818338 address: d7cc94e57ab0 translated: 2 fetched: 0
[LQ] entry: 87 instr_id: 0 address: 0 translated: 0 fetched: 0
[LQ] entry: 88 instr_id: 0 address: 0 translated: 0 fetched: 0
[LQ] entry: 89 instr_id: 0 address: 0 translated: 0 fetched: 0
[LQ] entry: 90 instr_id: 0 address: 0 translated: 0 fetched: 0
[LQ] entry: 91 instr_id: 0 address: 0 translated: 0 fetched: 0
[LQ] entry: 92 instr_id: 0 address: 0 translated: 0 fetched: 0
[LQ] entry: 93 instr_id: 0 address: 0 translated: 0 fetched: 0
[LQ] entry: 94 instr_id: 0 address: 0 translated: 0 fetched: 0
[LQ] entry: 95 instr_id: 0 address: 0 translated: 0 fetched: 0
[LQ] entry: 96 instr_id: 0 address: 0 translated: 0 fetched: 0
[LQ] entry: 97 instr_id: 0 address: 0 translated: 0 fetched: 0
[LQ] entry: 98 instr_id: 0 address: 0 translated: 0 fetched: 0
[LQ] entry: 99 instr_id: 0 address: 0 translated: 0 fetched: 0
[LQ] entry: 100 instr_id: 0 address: 0 translated: 0 fetched: 0
[LQ] entry: 101 instr_id: 0 address: 0 translated: 0 fetched: 0
[LQ] entry: 102 instr_id: 0 address: 0 translated: 0 fetched: 0
[LQ] entry: 103 instr_id: 0 address: 0 translated: 0 fetched: 0
[LQ] entry: 104 instr_id: 0 address: 0 translated: 0 fetched: 0
[LQ] entry: 105 instr_id: 0 address: 0 translated: 0 fetched: 0
[LQ] entry: 106 instr_id: 0 address: 0 translated: 0 fetched: 0
[LQ] entry: 107 instr_id: 0 address: 0 translated: 0 fetched: 0
[LQ] entry: 108 instr_id: 0 address: 0 translated: 0 fetched: 0
[LQ] entry: 109 instr_id: 0 address: 0 translated: 0 fetched: 0
[LQ] entry: 110 instr_id: 0 address: 0 translated: 0 fetched: 0
[LQ] entry: 111 instr_id: 0 address: 0 translated: 0 fetched: 0
[LQ] entry: 112 instr_id: 0 address: 0 translated: 0 fetched: 0
[LQ] entry: 113 instr_id: 0 address: 0 translated: 0 fetched: 0
[LQ] entry: 114 instr_id: 0 address: 0 translated: 0 fetched: 0
[LQ] entry: 115 instr_id: 0 address: 0 translated: 0 fetched: 0
[LQ] entry: 116 instr_id: 0 address: 0 translated: 0 fetched: 0
[LQ] entry: 117 instr_id: 0 address: 0 translated: 0 fetched: 0
[LQ] entry: 118 instr_id: 0 address: 0 translated: 0 fetched: 0
[LQ] entry: 119 instr_id: 0 address: 0 translated: 0 fetched: 0
[LQ] entry: 120 instr_id: 0 address: 0 translated: 0 fetched: 0
[LQ] entry: 121 instr_id: 0 address: 0 translated: 0 fetched: 0
[LQ] entry: 122 instr_id: 0 address: 0 translated: 0 fetched: 0
[LQ] entry: 123 instr_id: 0 address: 0 translated: 0 fetched: 0
[LQ] entry: 124 instr_id: 0 address: 0 translated: 0 fetched: 0
[LQ] entry: 125 instr_id: 0 address: 0 translated: 0 fetched: 0
[LQ] entry: 126 instr_id: 0 address: 0 translated: 0 fetched: 0
[LQ] entry: 127 instr_id: 0 address: 0 translated: 0 fetched: 0
[LQ] entry: 128 instr_id: 0 address: 0 translated: 0 fetched: 0
[LQ] entry: 129 instr_id: 0 address: 0 translated: 0 fetched: 0
[LQ] entry: 130 instr_id: 0 address: 0 translated: 0 fetched: 0
[LQ] entry: 131 instr_id: 0 address: 0 translated: 0 fetched: 0
[LQ] entry: 132 instr_id: 0 address: 0 translated: 0 fetched: 0
[LQ] entry: 133 instr_id: 0 address: 0 translated: 0 fetched: 0
[LQ] entry: 134 instr_id: 0 address: 0 translated: 0 fetched: 0
[LQ] entry: 135 instr_id: 0 address: 0 translated: 0 fetched: 0
[LQ] entry: 136 instr_id: 0 address: 0 translated: 0 fetched: 0
[LQ] entry: 137 instr_id: 0 address: 0 translated: 0 fetched: 0
[LQ] entry: 138 instr_id: 0 address: 0 translated: 0 fetched: 0
[LQ] entry: 139 instr_id: 0 address: 0 translated: 0 fetched: 0
[LQ] entry: 140 instr_id: 0 address: 0 translated: 0 fetched: 0
[LQ] entry: 141 instr_id: 0 address: 0 translated: 0 fetched: 0
[LQ] entry: 142 instr_id: 0 address: 0 translated: 0 fetched: 0
[LQ] entry: 143 instr_id: 0 address: 0 translated: 0 fetched: 0
[LQ] entry: 144 instr_id: 0 address: 0 translated: 0 fetched: 0
[LQ] entry: 145 instr_id: 0 address: 0 translated: 0 fetched: 0
[LQ] entry: 146 instr_id: 0 address: 0 translated: 0 fetched: 0
[LQ] entry: 147 instr_id: 0 address: 0 translated: 0 fetched: 0

Store Queue Entry
[SQ] entry: 0 instr_id: 0 address: 0 translated: 0 fetched: 0
[SQ] entry: 1 instr_id: 0 address: 0 translated: 0 fetched: 0
[SQ] entry: 2 instr_id: 0 address: 0 translated: 0 fetched: 0
[SQ] entry: 3 instr_id: 0 address: 0 translated: 0 fetched: 0
[SQ] entry: 4 instr_id: 0 address: 0 translated: 0 fetched: 0
[SQ] entry: 5 instr_id: 0 address: 0 translated: 0 fetched: 0
[SQ] entry: 6 instr_id: 0 address: 0 translated: 0 fetched: 0
[SQ] entry: 7 instr_id: 0 address: 0 translated: 0 fetched: 0
[SQ] entry: 8 instr_id: 0 address: 0 translated: 0 fetched: 0
[SQ] entry: 9 instr_id: 0 address: 0 translated: 0 fetched: 0
[SQ] entry: 10 instr_id: 0 address: 0 translated: 0 fetched: 0
[SQ] entry: 11 instr_id: 0 address: 0 translated: 0 fetched: 0
[SQ] entry: 12 instr_id: 0 address: 0 translated: 0 fetched: 0
[SQ] entry: 13 instr_id: 0 address: 0 translated: 0 fetched: 0
[SQ] entry: 14 instr_id: 0 address: 0 translated: 0 fetched: 0
[SQ] entry: 15 instr_id: 0 address: 0 translated: 0 fetched: 0
[SQ] entry: 16 instr_id: 0 address: 0 translated: 0 fetched: 0
[SQ] entry: 17 instr_id: 0 address: 0 translated: 0 fetched: 0
[SQ] entry: 18 instr_id: 0 address: 0 translated: 0 fetched: 0
[SQ] entry: 19 instr_id: 0 address: 0 translated: 0 fetched: 0
[SQ] entry: 20 instr_id: 0 address: 0 translated: 0 fetched: 0
[SQ] entry: 21 instr_id: 0 address: 0 translated: 0 fetched: 0
[SQ] entry: 22 instr_id: 0 address: 0 translated: 0 fetched: 0
[SQ] entry: 23 instr_id: 0 address: 0 translated: 0 fetched: 0
[SQ] entry: 24 instr_id: 0 address: 0 translated: 0 fetched: 0
[SQ] entry: 25 instr_id: 0 address: 0 translated: 0 fetched: 0
[SQ] entry: 26 instr_id: 0 address: 0 translated: 0 fetched: 0
[SQ] entry: 27 instr_id: 0 address: 0 translated: 0 fetched: 0
[SQ] entry: 28 instr_id: 0 address: 0 translated: 0 fetched: 0
[SQ] entry: 29 instr_id: 0 address: 0 translated: 0 fetched: 0
[SQ] entry: 30 instr_id: 0 address: 0 translated: 0 fetched: 0
[SQ] entry: 31 instr_id: 0 address: 0 translated: 0 fetched: 0
[SQ] entry: 32 instr_id: 0 address: 0 translated: 0 fetched: 0
[SQ] entry: 33 instr_id: 0 address: 0 translated: 0 fetched: 0
[SQ] entry: 34 instr_id: 0 address: 0 translated: 0 fetched: 0
[SQ] entry: 35 instr_id: 0 address: 0 translated: 0 fetched: 0
[SQ] entry: 36 instr_id: 0 address: 0 translated: 0 fetched: 0
[SQ] entry: 37 instr_id: 0 address: 0 translated: 0 fetched: 0
[SQ] entry: 38 instr_id: 0 address: 0 translated: 0 fetched: 0
[SQ] entry: 39 instr_id: 0 address: 0 translated: 0 fetched: 0
[SQ] entry: 40 instr_id: 0 address: 0 translated: 0 fetched: 0
[SQ] entry: 41 instr_id: 0 address: 0 translated: 0 fetched: 0
[SQ] entry: 42 instr_id: 0 address: 0 translated: 0 fetched: 0
[SQ] entry: 43 instr_id: 0 address: 0 translated: 0 fetched: 0
[SQ] entry: 44 instr_id: 0 address: 0 translated: 0 fetched: 0
[SQ] entry: 45 instr_id: 0 address: 0 translated: 0 fetched: 0
[SQ] entry: 46 instr_id: 0 address: 0 translated: 0 fetched: 0
[SQ] entry: 47 instr_id: 0 address: 0 translated: 0 fetched: 0
[SQ] entry: 48 instr_id: 0 address: 0 translated: 0 fetched: 0
[SQ] entry: 49 instr_id: 0 address: 0 translated: 0 fetched: 0
[SQ] entry: 50 instr_id: 0 address: 0 translated: 0 fetched: 0
[SQ] entry: 51 instr_id: 0 address: 0 translated: 0 fetched: 0
[SQ] entry: 52 instr_id: 0 address: 0 translated: 0 fetched: 0
[SQ] entry: 53 instr_id: 0 address: 0 translated: 0 fetched: 0
[SQ] entry: 54 instr_id: 0 address: 0 translated: 0 fetched: 0
[SQ] entry: 55 instr_id: 0 address: 0 translated: 0 fetched: 0
[SQ] entry: 56 instr_id: 4817997 address: d7cc94e3fe80 translated: 2 fetched: 0
[SQ] entry: 57 instr_id: 4817998 address: d7cc94e3fee0 translated: 2 fetched: 0
[SQ] entry: 58 instr_id: 4818000 address: d7cc94e3ff40 translated: 2 fetched: 0
[SQ] entry: 59 instr_id: 4818001 address: d7cc94e3ffa0 translated: 2 fetched: 0
[SQ] entry: 60 instr_id: 4818036 address: d7cc94e3fea0 translated: 2 fetched: 0
[SQ] entry: 61 instr_id: 4818037 address: d7cc94e3ff00 translated: 2 fetched: 0
[SQ] entry: 62 instr_id: 4818039 address: d7cc94e3ff60 translated: 2 fetched: 0
[SQ] entry: 63 instr_id: 4818040 address: d7cc94e3ffc0 translated: 2 fetched: 0
[SQ] entry: 64 instr_id: 4818075 address: d7cc94e3fec0 translated: 2 fetched: 0
[SQ] entry: 65 instr_id: 4818076 address: d7cc94e3ff20 translated: 2 fetched: 0
[SQ] entry: 66 instr_id: 4818078 address: d7cc94e3ff80 translated: 2 fetched: 0
[SQ] entry: 67 instr_id: 4818079 address: d7cc94e3ffe0 translated: 2 fetched: 0
[SQ] entry: 68 instr_id: 4818118 address: d7cc94e47000 translated: 2 fetched: 0
[SQ] entry: 69 instr_id: 4818119 address: d7cc94e47060 translated: 2 fetched: 0
[SQ] entry: 70 instr_id: 4818121 address: d7cc94e470c0 translated: 2 fetched: 0
[SQ] entry: 71 instr_id: 4818122 address: d7cc94e47120 translated: 2 fetched: 0
[SQ] entry: 72 instr_id: 4818157 address: d7cc94e47020 translated: 2 fetched: 0
[SQ] entry: 73 instr_id: 4818158 address: d7cc94e47080 translated: 2 fetched: 0
[SQ] entry: 74 instr_id: 4818160 address: d7cc94e470e0 translated: 2 fetched: 0
[SQ] entry: 75 instr_id: 4818161 address: d7cc94e47140 translated: 2 fetched: 0
[SQ] entry: 76 instr_id: 4818196 address: d7cc94e47040 translated: 2 fetched: 0
[SQ] entry: 77 instr_id: 4818197 address: d7cc94e470a0 translated: 2 fetched: 0
[SQ] entry: 78 instr_id: 4818199 address: d7cc94e47100 translated: 2 fetched: 0
[SQ] entry: 79 instr_id: 4818200 address: d7cc94e47160 translated: 2 fetched: 0
[SQ] entry: 80 instr_id: 4818239 address: d7cc94e47180 translated: 2 fetched: 0
[SQ] entry: 81 instr_id: 4818240 address: d7cc94e471e0 translated: 2 fetched: 0
[SQ] entry: 82 instr_id: 4818242 address: d7cc94e47240 translated: 2 fetched: 0
[SQ] entry: 83 instr_id: 4818243 address: d7cc94e472a0 translated: 2 fetched: 0
[SQ] entry: 84 instr_id: 4818278 address: d7cc94e471a0 translated: 2 fetched: 0
[SQ] entry: 85 instr_id: 4818279 address: d7cc94e47200 translated: 2 fetched: 0
[SQ] entry: 86 instr_id: 4818281 address: d7cc94e47260 translated: 2 fetched: 0
[SQ] entry: 87 instr_id: 4818282 address: d7cc94e472c0 translated: 2 fetched: 0
[SQ] entry: 88 instr_id: 4818317 address: d7cc94e471c0 translated: 2 fetched: 0
[SQ] entry: 89 instr_id: 4818318 address: d7cc94e47220 translated: 2 fetched: 0
[SQ] entry: 90 instr_id: 4818320 address: d7cc94e47280 translated: 2 fetched: 0
[SQ] entry: 91 instr_id: 4818321 address: d7cc94e472e0 translated: 2 fetched: 0
[SQ] entry: 92 instr_id: 4818360 address: d7cc94e47300 translated: 2 fetched: 0
[SQ] entry: 93 instr_id: 4818361 address: d7cc94e47360 translated: 2 fetched: 0
[SQ] entry: 94 instr_id: 4818363 address: d7cc94e473c0 translated: 2 fetched: 0
[SQ] entry: 95 instr_id: 4818364 address: d7cc94e47420 translated: 2 fetched: 0
[SQ] entry: 96 instr_id: 0 address: 0 translated: 0 fetched: 0
[SQ] entry: 97 instr_id: 0 address: 0 translated: 0 fetched: 0
[SQ] entry: 98 instr_id: 0 address: 0 translated: 0 fetched: 0
[SQ] entry: 99 instr_id: 0 address: 0 translated: 0 fetched: 0
[SQ] entry: 100 instr_id: 0 address: 0 translated: 0 fetched: 0
[SQ] entry: 101 instr_id: 0 address: 0 translated: 0 fetched: 0
[SQ] entry: 102 instr_id: 0 address: 0 translated: 0 fetched: 0
[SQ] entry: 103 instr_id: 0 address: 0 translated: 0 fetched: 0
[SQ] entry: 104 instr_id: 0 address: 0 translated: 0 fetched: 0
[SQ] entry: 105 instr_id: 0 address: 0 translated: 0 fetched: 0

L1D_MSHR Entry
[L1D_MSHR] entry: 0 instr_id: 0 rob_index: -1 address: 262383d5bdb full_addr: 988e0f56f6c0 type: 2 fill_level: 1 lq_index: 0 sq_index: 0
[L1D_MSHR] entry: 1 instr_id: 0 rob_index: -1 address: 0 full_addr: 0 type: 0 fill_level: -1 lq_index: 0 sq_index: 0
[L1D_MSHR] entry: 2 instr_id: 0 rob_index: -1 address: 0 full_addr: 0 type: 0 fill_level: -1 lq_index: 0 sq_index: 0
[L1D_MSHR] entry: 3 instr_id: 0 rob_index: -1 address: 0 full_addr: 0 type: 0 fill_level: -1 lq_index: 0 sq_index: 0
[L1D_MSHR] entry: 4 instr_id: 0 rob_index: -1 address: 0 full_addr: 0 type: 0 fill_level: -1 lq_index: 0 sq_index: 0
[L1D_MSHR] entry: 5 instr_id: 0 rob_index: -1 address: 0 full_addr: 0 type: 0 fill_level: -1 lq_index: 0 sq_index: 0
[L1D_MSHR] entry: 6 instr_id: 0 rob_index: -1 address: 0 full_addr: 0 type: 0 fill_level: -1 lq_index: 0 sq_index: 0
[L1D_MSHR] entry: 7 instr_id: 0 rob_index: -1 address: 35f32539606 full_addr: d7cc94e58180 type: 2 fill_level: 1 lq_index: 0 sq_index: 0
[L1D_MSHR] entry: 8 instr_id: 0 rob_index: -1 address: 0 full_addr: 0 type: 0 fill_level: -1 lq_index: 0 sq_index: 0
[L1D_MSHR] entry: 9 instr_id: 0 rob_index: -1 address: 0 full_addr: 0 type: 0 fill_level: -1 lq_index: 0 sq_index: 0
[L1D_MSHR] entry: 10 instr_id: 0 rob_index: -1 address: 0 full_addr: 0 type: 0 fill_level: -1 lq_index: 0 sq_index: 0
[L1D_MSHR] entry: 11 instr_id: 0 rob_index: -1 address: 0 full_addr: 0 type: 0 fill_level: -1 lq_index: 0 sq_index: 0
[L1D_MSHR] entry: 12 instr_id: 0 rob_index: -1 address: 0 full_addr: 0 type: 0 fill_level: -1 lq_index: 0 sq_index: 0
[L1D_MSHR] entry: 13 instr_id: 0 rob_index: -1 address: 0 full_addr: 0 type: 0 fill_level: -1 lq_index: 0 sq_index: 0
[L1D_MSHR] entry: 14 instr_id: 0 rob_index: -1 address: 0 full_addr: 0 type: 0 fill_level: -1 lq_index: 0 sq_index: 0
[L1D_MSHR] entry: 15 instr_id: 4817975 rob_index: 239 address: 35f325395ea full_addr: d7cc94e57a80 type: 0 fill_level: 1 lq_index: 22 sq_index: 0
perceptron-berti-berti-no-lru-4core: src/main.cc:284: void print_deadlock(uint32_t): Assertion `0' failed.
     > Finished combination: TraceType=770-tot Sim:491000000 Prefetcher=L2berti L1=berti
