TRACE: [125000000][OPT-125M]_[h12][s512][d64] Warmup: 2000000 NumTraces: 125000000
L1:bingo_dpc3_PHT1k:L2:bingo_dpc3_PHT1k
*************************************************
   ChampSim Multicore Out-of-Order Simulator
   Last compiled: Oct 29 2024 03:37:24
*************************************************

trace_0 770-tot_memTraces_v3/memTraces[125000000][OPT-125M]_[h12][s512][d64].champsim.xz
trace_1 770-tot_memTraces_v3/memTraces[125000000][OPT-125M]_[h12][s512][d64].champsim.xz
trace_2 770-tot_memTraces_v3/memTraces[125000000][OPT-125M]_[h12][s512][d64].champsim.xz
trace_3 770-tot_memTraces_v3/memTraces[125000000][OPT-125M]_[h12][s512][d64].champsim.xz
Bingo PHT WAYS: 16 and PHT_SIZE: 1024
Bingo2 PHT WAYS: 16 and PHT_SIZE: 1024
Bingo PHT WAYS: 16 and PHT_SIZE: 1024
Bingo2 PHT WAYS: 16 and PHT_SIZE: 1024
Bingo PHT WAYS: 16 and PHT_SIZE: 1024
Bingo2 PHT WAYS: 16 and PHT_SIZE: 1024
Bingo PHT WAYS: 16 and PHT_SIZE: 1024
Bingo2 PHT WAYS: 16 and PHT_SIZE: 1024
MAIN.cc ln 751 stats print skipped
CPU  0 inst:    1000001 cyc:     498931 now IPC :2.00429: AVG IPC :2.00429: L2-Pf-HR :0.68635: L2-HR :0.61003: (Sim:0h0m27s) 
CPU  2 inst:    1000001 cyc:     499122 now IPC :2.00352: AVG IPC :2.00352: L2-Pf-HR :0.66085: L2-HR :0.59429: (Sim:0h0m27s) 
CPU  3 inst:    1000001 cyc:     499213 now IPC :2.00315: AVG IPC :2.00315: L2-Pf-HR :0.74076: L2-HR :0.63882: (Sim:0h0m27s) 
CPU  1 inst:    1000001 cyc:     499236 now IPC :2.00306: AVG IPC :2.00306: L2-Pf-HR :0.69378: L2-HR :0.60747: (Sim:0h0m27s) 
CPU  0 inst:    2000000 cyc:     981257 now IPC :2.07328: AVG IPC :2.03820: L2-Pf-HR :0.74086: L2-HR :0.69000: (Sim:0h0m57s) 
CPU  2 inst:    2000000 cyc:     981466 now IPC :2.07321: AVG IPC :2.03777: L2-Pf-HR :0.71604: L2-HR :0.67448: (Sim:0h0m57s) 
CPU  3 inst:    2000000 cyc:     981593 now IPC :2.07305: AVG IPC :2.03750: L2-Pf-HR :0.75937: L2-HR :0.70133: (Sim:0h0m57s) 
CPU  1 inst:    2000000 cyc:     981687 now IPC :2.07275: AVG IPC :2.03731: L2-Pf-HR :0.71091: L2-HR :0.66885: (Sim:0h0m57s) 

Warmup complete CPU  0 instructions:    2000913 cycles:     981688 (Simulation time: 0 hr 0 min 57 sec) 
Warmup complete CPU  1 instructions:    2000003 cycles:     981688 (Simulation time: 0 hr 0 min 57 sec) 
Warmup complete CPU  2 instructions:    2000407 cycles:     981687 (Simulation time: 0 hr 0 min 57 sec) 
Warmup complete CPU  3 instructions:    2000279 cycles:     981687 (Simulation time: 0 hr 0 min 57 sec) 

CPU  2 inst:    3000001 cyc:    1710261 now IPC :1.37213: AVG IPC :1.37199: L2-Pf-HR :0.83493: L2-HR :0.77015: (Sim:0h1m24s) 
CPU  0 inst:    3000001 cyc:    1710465 now IPC :1.37135: AVG IPC :1.37091: L2-Pf-HR :0.85634: L2-HR :0.78331: (Sim:0h1m24s) 
CPU  3 inst:    3000001 cyc:    1710922 now IPC :1.37112: AVG IPC :1.37092: L2-Pf-HR :0.84600: L2-HR :0.77752: (Sim:0h1m24s) 
CPU  1 inst:    3000001 cyc:    1710973 now IPC :1.37121: AVG IPC :1.37120: L2-Pf-HR :0.78821: L2-HR :0.73997: (Sim:0h1m24s) 
CPU  0 inst:    4000000 cyc:    2396633 now IPC :1.45737: AVG IPC :1.41284: L2-Pf-HR :0.83189: L2-HR :0.77448: (Sim:0h1m51s) 
CPU  1 inst:    4000000 cyc:    2396837 now IPC :1.45801: AVG IPC :1.41328: L2-Pf-HR :0.76342: L2-HR :0.73699: (Sim:0h1m51s) 
CPU  3 inst:    4000000 cyc:    2397041 now IPC :1.45747: AVG IPC :1.41288: L2-Pf-HR :0.83258: L2-HR :0.77688: (Sim:0h1m51s) 
CPU  2 inst:    4000000 cyc:    2397346 now IPC :1.45542: AVG IPC :1.41248: L2-Pf-HR :0.84847: L2-HR :0.78807: (Sim:0h1m51s) 
CPU  1 inst:    5000001 cyc:    3128001 now IPC :1.36768: AVG IPC :1.39774: L2-Pf-HR :0.74276: L2-HR :0.74668: (Sim:0h2m17s) 
CPU  0 inst:    5000001 cyc:    3142935 now IPC :1.33994: AVG IPC :1.38767: L2-Pf-HR :0.78514: L2-HR :0.77008: (Sim:0h2m18s) 
CPU  3 inst:    5000001 cyc:    3145556 now IPC :1.33598: AVG IPC :1.38628: L2-Pf-HR :0.79917: L2-HR :0.77513: (Sim:0h2m18s) 
CPU  2 inst:    5000001 cyc:    3166101 now IPC :1.30081: AVG IPC :1.37318: L2-Pf-HR :0.79995: L2-HR :0.77522: (Sim:0h2m19s) 
CPU  1 inst:    6000004 cyc:    3733722 now IPC :1.65093: AVG IPC :1.45347: L2-Pf-HR :0.76326: L2-HR :0.76989: (Sim:0h2m44s) 
CPU  3 inst:    6000004 cyc:    3783226 now IPC :1.56821: AVG IPC :1.42769: L2-Pf-HR :0.81796: L2-HR :0.79756: (Sim:0h2m46s) 
CPU  0 inst:    6000004 cyc:    3793930 now IPC :1.53611: AVG IPC :1.42203: L2-Pf-HR :0.80556: L2-HR :0.79259: (Sim:0h2m47s) 
CPU  2 inst:    6000004 cyc:    3832604 now IPC :1.50037: AVG IPC :1.40292: L2-Pf-HR :0.81057: L2-HR :0.79317: (Sim:0h2m48s) 
CPU  1 inst:    7000005 cyc:    4351343 now IPC :1.61912: AVG IPC :1.48383: L2-Pf-HR :0.78212: L2-HR :0.78032: (Sim:0h3m11s) 
CPU  3 inst:    7000005 cyc:    4425693 now IPC :1.55650: AVG IPC :1.45172: L2-Pf-HR :0.82826: L2-HR :0.80685: (Sim:0h3m14s) 
CPU  0 inst:    7000005 cyc:    4440215 now IPC :1.54731: AVG IPC :1.44544: L2-Pf-HR :0.82027: L2-HR :0.80171: (Sim:0h3m14s) 
CPU  2 inst:    7000005 cyc:    4444720 now IPC :1.63368: AVG IPC :1.44370: L2-Pf-HR :0.81270: L2-HR :0.80080: (Sim:0h3m15s) 
CPU  1 inst:    8000005 cyc:    4972926 now IPC :1.60880: AVG IPC :1.50329: L2-Pf-HR :0.78730: L2-HR :0.77920: (Sim:0h3m36s) 
CPU  3 inst:    8000005 cyc:    5076216 now IPC :1.53722: AVG IPC :1.46530: L2-Pf-HR :0.83225: L2-HR :0.80663: (Sim:0h3m40s) 
CPU  2 inst:    8000005 cyc:    5105268 now IPC :1.51389: AVG IPC :1.45495: L2-Pf-HR :0.82238: L2-HR :0.80470: (Sim:0h3m41s) 
CPU  0 inst:    8000005 cyc:    5108507 now IPC :1.49635: AVG IPC :1.45368: L2-Pf-HR :0.82055: L2-HR :0.79890: (Sim:0h3m41s) 
CPU  1 inst:    9000000 cyc:    5663954 now IPC :1.44711: AVG IPC :1.49500: L2-Pf-HR :0.77467: L2-HR :0.77411: (Sim:0h4m2s) 
CPU  3 inst:    9000000 cyc:    5757944 now IPC :1.46685: AVG IPC :1.46552: L2-Pf-HR :0.82259: L2-HR :0.80155: (Sim:0h4m6s) 
CPU  2 inst:    9000000 cyc:    5801479 now IPC :1.43634: AVG IPC :1.45226: L2-Pf-HR :0.80990: L2-HR :0.79925: (Sim:0h4m8s) 
CPU  0 inst:    9000000 cyc:    5816576 now IPC :1.41228: AVG IPC :1.44762: L2-Pf-HR :0.80593: L2-HR :0.79189: (Sim:0h4m9s) 
CPU  1 inst:   10000001 cyc:    6266438 now IPC :1.65980: AVG IPC :1.51379: L2-Pf-HR :0.78342: L2-HR :0.78183: (Sim:0h4m28s) 
CPU  3 inst:   10000001 cyc:    6370851 now IPC :1.63157: AVG IPC :1.48441: L2-Pf-HR :0.82849: L2-HR :0.80751: (Sim:0h4m32s) 
CPU  2 inst:   10000001 cyc:    6423346 now IPC :1.60806: AVG IPC :1.47007: L2-Pf-HR :0.80798: L2-HR :0.80179: (Sim:0h4m35s) 
CPU  0 inst:   10000001 cyc:    6450116 now IPC :1.57843: AVG IPC :1.46278: L2-Pf-HR :0.81037: L2-HR :0.79759: (Sim:0h4m37s) 
CPU  1 inst:   11000005 cyc:    6871201 now IPC :1.65355: AVG IPC :1.52814: L2-Pf-HR :0.78970: L2-HR :0.78618: (Sim:0h5m5s) 
CPU  3 inst:   11000005 cyc:    6992067 now IPC :1.60975: AVG IPC :1.49736: L2-Pf-HR :0.83233: L2-HR :0.81090: (Sim:0h5m14s) 
CPU  2 inst:   11000005 cyc:    7023237 now IPC :1.66698: AVG IPC :1.48962: L2-Pf-HR :0.80903: L2-HR :0.80541: (Sim:0h5m16s) 
CPU  0 inst:   11000005 cyc:    7068677 now IPC :1.61666: AVG IPC :1.47841: L2-Pf-HR :0.81398: L2-HR :0.80201: (Sim:0h5m19s) 
CPU  1 inst:   12000005 cyc:    7506872 now IPC :1.57314: AVG IPC :1.53252: L2-Pf-HR :0.79407: L2-HR :0.78679: (Sim:0h5m50s) 
CPU  3 inst:   12000005 cyc:    7619767 now IPC :1.59312: AVG IPC :1.50642: L2-Pf-HR :0.83513: L2-HR :0.81062: (Sim:0h5m59s) 
CPU  2 inst:   12000005 cyc:    7664265 now IPC :1.55999: AVG IPC :1.49637: L2-Pf-HR :0.81570: L2-HR :0.80740: (Sim:0h6m2s) 
CPU  0 inst:   12000005 cyc:    7692927 now IPC :1.60192: AVG IPC :1.48990: L2-Pf-HR :0.81668: L2-HR :0.80140: (Sim:0h6m4s) 
CPU  1 inst:   13000002 cyc:    8200126 now IPC :1.44247: AVG IPC :1.52388: L2-Pf-HR :0.78638: L2-HR :0.78239: (Sim:0h6m37s) 
CPU  3 inst:   13000002 cyc:    8290533 now IPC :1.49083: AVG IPC :1.50499: L2-Pf-HR :0.82509: L2-HR :0.80515: (Sim:0h6m43s) 
CPU  2 inst:   13000002 cyc:    8372493 now IPC :1.41197: AVG IPC :1.48828: L2-Pf-HR :0.80933: L2-HR :0.80282: (Sim:0h6m49s) 
CPU  0 inst:   13000002 cyc:    8402135 now IPC :1.41002: AVG IPC :1.48227: L2-Pf-HR :0.80427: L2-HR :0.79411: (Sim:0h6m51s) 
CPU  1 inst:   14000005 cyc:    8781366 now IPC :1.72046: AVG IPC :1.53853: L2-Pf-HR :0.78940: L2-HR :0.78681: (Sim:0h7m19s) 
CPU  3 inst:   14000004 cyc:    8865611 now IPC :1.73890: AVG IPC :1.52205: L2-Pf-HR :0.82850: L2-HR :0.80999: (Sim:0h7m26s) 
CPU  2 inst:   14000005 cyc:    8979158 now IPC :1.64836: AVG IPC :1.50042: L2-Pf-HR :0.81166: L2-HR :0.80525: (Sim:0h7m34s) 
CPU  0 inst:   14000005 cyc:    9008169 now IPC :1.65008: AVG IPC :1.49494: L2-Pf-HR :0.81110: L2-HR :0.80014: (Sim:0h7m36s) 
CPU  1 inst:   15000001 cyc:    9372586 now IPC :1.69141: AVG IPC :1.54930: L2-Pf-HR :0.79324: L2-HR :0.78958: (Sim:0h8m3s) 
CPU  3 inst:   15000001 cyc:    9454171 now IPC :1.69906: AVG IPC :1.53435: L2-Pf-HR :0.82945: L2-HR :0.81171: (Sim:0h8m9s) 
CPU  2 inst:   15000001 cyc:    9593744 now IPC :1.62711: AVG IPC :1.50946: L2-Pf-HR :0.81312: L2-HR :0.80628: (Sim:0h8m19s) 
CPU  0 inst:   15000001 cyc:    9648230 now IPC :1.56234: AVG IPC :1.49992: L2-Pf-HR :0.81640: L2-HR :0.80301: (Sim:0h8m23s) 
CPU  1 inst:   16000000 cyc:   10000689 now IPC :1.59209: AVG IPC :1.55228: L2-Pf-HR :0.79650: L2-HR :0.78976: (Sim:0h8m48s) 
CPU  3 inst:   16000000 cyc:   10065559 now IPC :1.63562: AVG IPC :1.54116: L2-Pf-HR :0.83220: L2-HR :0.81287: (Sim:0h8m53s) 
CPU  2 inst:   16000000 cyc:   10224855 now IPC :1.58451: AVG IPC :1.51459: L2-Pf-HR :0.81817: L2-HR :0.80753: (Sim:0h9m4s) 
CPU  0 inst:   16000000 cyc:   10270465 now IPC :1.60711: AVG IPC :1.50710: L2-Pf-HR :0.81871: L2-HR :0.80305: (Sim:0h9m7s) 
CPU  1 inst:   17000000 cyc:   10673163 now IPC :1.48705: AVG IPC :1.54775: L2-Pf-HR :0.78976: L2-HR :0.78506: (Sim:0h9m33s) 
CPU  3 inst:   17000000 cyc:   10761713 now IPC :1.43646: AVG IPC :1.53371: L2-Pf-HR :0.82594: L2-HR :0.80839: (Sim:0h9m39s) 
CPU  2 inst:   17000000 cyc:   10935928 now IPC :1.40633: AVG IPC :1.50685: L2-Pf-HR :0.81116: L2-HR :0.80283: (Sim:0h9m51s) 
CPU  0 inst:   17000000 cyc:   10992728 now IPC :1.38454: AVG IPC :1.49825: L2-Pf-HR :0.81050: L2-HR :0.79756: (Sim:0h9m55s) 
CPU  1 inst:   18000001 cyc:   11280267 now IPC :1.64717: AVG IPC :1.55361: L2-Pf-HR :0.79103: L2-HR :0.78772: (Sim:0h10m17s) 
CPU  3 inst:   18000001 cyc:   11349474 now IPC :1.70137: AVG IPC :1.54321: L2-Pf-HR :0.82797: L2-HR :0.81126: (Sim:0h10m22s) 
CPU  2 inst:   18000001 cyc:   11515504 now IPC :1.72540: AVG IPC :1.51888: L2-Pf-HR :0.81226: L2-HR :0.80496: (Sim:0h10m34s) 
CPU  0 inst:   18000001 cyc:   11589729 now IPC :1.67504: AVG IPC :1.50820: L2-Pf-HR :0.81273: L2-HR :0.80047: (Sim:0h10m40s) 
CPU  1 inst:   19000004 cyc:   11881041 now IPC :1.66452: AVG IPC :1.55973: L2-Pf-HR :0.79487: L2-HR :0.78961: (Sim:0h11m1s) 
CPU  3 inst:   19000004 cyc:   11948142 now IPC :1.67038: AVG IPC :1.55016: L2-Pf-HR :0.82946: L2-HR :0.81228: (Sim:0h11m6s) 
CPU  2 inst:   19000004 cyc:   12105924 now IPC :1.69371: AVG IPC :1.52816: L2-Pf-HR :0.81287: L2-HR :0.80583: (Sim:0h11m18s) 
CPU  0 inst:   19000004 cyc:   12198128 now IPC :1.64366: AVG IPC :1.51555: L2-Pf-HR :0.81496: L2-HR :0.80252: (Sim:0h11m25s) 
CPU  1 inst:   20000000 cyc:   12499479 now IPC :1.61697: AVG IPC :1.56280: L2-Pf-HR :0.79793: L2-HR :0.79034: (Sim:0h11m47s) 
CPU  3 inst:   20000000 cyc:   12559748 now IPC :1.63503: AVG IPC :1.55464: L2-Pf-HR :0.83246: L2-HR :0.81357: (Sim:0h11m51s) 
CPU  2 inst:   20000000 cyc:   12711279 now IPC :1.65192: AVG IPC :1.53455: L2-Pf-HR :0.81697: L2-HR :0.80766: (Sim:0h12m1s) 
CPU  0 inst:   20000000 cyc:   12830449 now IPC :1.58147: AVG IPC :1.51907: L2-Pf-HR :0.81855: L2-HR :0.80380: (Sim:0h12m9s) 
CPU  1 inst:   21000004 cyc:   13215661 now IPC :1.39630: AVG IPC :1.55305: L2-Pf-HR :0.79221: L2-HR :0.78638: (Sim:0h12m33s) 
CPU  3 inst:   21000003 cyc:   13295962 now IPC :1.35830: AVG IPC :1.54290: L2-Pf-HR :0.82660: L2-HR :0.80963: (Sim:0h12m38s) 
CPU  2 inst:   21000003 cyc:   13479524 now IPC :1.30167: AVG IPC :1.52023: L2-Pf-HR :0.81266: L2-HR :0.80462: (Sim:0h12m49s) 
CPU  0 inst:   21000004 cyc:   13643899 now IPC :1.22934: AVG IPC :1.50046: L2-Pf-HR :0.80929: L2-HR :0.79849: (Sim:0h12m59s) 
CPU  1 inst:   22000000 cyc:   13919924 now IPC :1.41992: AVG IPC :1.54581: L2-Pf-HR :0.79444: L2-HR :0.78909: (Sim:0h13m18s) 
CPU  3 inst:   22000000 cyc:   13980839 now IPC :1.46011: AVG IPC :1.53854: L2-Pf-HR :0.82775: L2-HR :0.81152: (Sim:0h13m22s) 
CPU  2 inst:   22000000 cyc:   14158248 now IPC :1.47335: AVG IPC :1.51782: L2-Pf-HR :0.81229: L2-HR :0.80502: (Sim:0h13m34s) 
CPU  0 inst:   22000000 cyc:   14294151 now IPC :1.53786: AVG IPC :1.50228: L2-Pf-HR :0.81141: L2-HR :0.80088: (Sim:0h13m43s) 
CPU  1 inst:   23000003 cyc:   14589974 now IPC :1.49243: AVG IPC :1.54318: L2-Pf-HR :0.79628: L2-HR :0.79082: (Sim:0h14m4s) 
CPU  3 inst:   23000003 cyc:   14670145 now IPC :1.45074: AVG IPC :1.53412: L2-Pf-HR :0.82945: L2-HR :0.81327: (Sim:0h14m10s) 
CPU  2 inst:   23000003 cyc:   14772780 now IPC :1.62726: AVG IPC :1.52269: L2-Pf-HR :0.81299: L2-HR :0.80661: (Sim:0h14m17s) 
CPU  0 inst:   23000003 cyc:   14919081 now IPC :1.60018: AVG IPC :1.50667: L2-Pf-HR :0.81361: L2-HR :0.80312: (Sim:0h14m28s) 
CPU  1 inst:   24000004 cyc:   15222460 now IPC :1.58106: AVG IPC :1.54486: L2-Pf-HR :0.79874: L2-HR :0.79173: (Sim:0h14m50s) 
CPU  3 inst:   24000004 cyc:   15328643 now IPC :1.51861: AVG IPC :1.53341: L2-Pf-HR :0.83214: L2-HR :0.81436: (Sim:0h14m56s) 
CPU  2 inst:   24000004 cyc:   15451131 now IPC :1.47416: AVG IPC :1.52042: L2-Pf-HR :0.81614: L2-HR :0.80748: (Sim:0h15m3s) 
CPU  0 inst:   24000004 cyc:   15650716 now IPC :1.36680: AVG IPC :1.49970: L2-Pf-HR :0.81670: L2-HR :0.80417: (Sim:0h15m15s) 
CPU  1 inst:   25000002 cyc:   16075969 now IPC :1.17163: AVG IPC :1.52376: L2-Pf-HR :0.79368: L2-HR :0.78825: (Sim:0h15m36s) 
CPU  3 inst:   25000003 cyc:   16193804 now IPC :1.15585: AVG IPC :1.51193: L2-Pf-HR :0.82816: L2-HR :0.81130: (Sim:0h15m43s) 
CPU  2 inst:   25000003 cyc:   16509184 now IPC :0.94513: AVG IPC :1.48122: L2-Pf-HR :0.81355: L2-HR :0.80519: (Sim:0h15m58s) 
CPU  0 inst:   25000002 cyc:   16769918 now IPC :0.89349: AVG IPC :1.45672: L2-Pf-HR :0.81045: L2-HR :0.80018: (Sim:0h16m12s) 
CPU  1 inst:   26000002 cyc:   16970937 now IPC :1.11736: AVG IPC :1.50101: L2-Pf-HR :0.79570: L2-HR :0.78984: (Sim:0h16m24s) 
CPU  3 inst:   26000002 cyc:   17067600 now IPC :1.14443: AVG IPC :1.49197: L2-Pf-HR :0.82970: L2-HR :0.81275: (Sim:0h16m30s) 
CPU  2 inst:   26000002 cyc:   17242507 now IPC :1.36365: AVG IPC :1.47592: L2-Pf-HR :0.81293: L2-HR :0.80572: (Sim:0h16m41s) 
CPU  0 inst:   26000004 cyc:   17507495 now IPC :1.35579: AVG IPC :1.45222: L2-Pf-HR :0.81008: L2-HR :0.80116: (Sim:0h16m59s) 
CPU  1 inst:   27000000 cyc:   17734592 now IPC :1.30949: AVG IPC :1.49228: L2-Pf-HR :0.79808: L2-HR :0.79168: (Sim:0h17m14s) 
CPU  3 inst:   27000000 cyc:   17810487 now IPC :1.34610: AVG IPC :1.48553: L2-Pf-HR :0.83027: L2-HR :0.81380: (Sim:0h17m19s) 
CPU  2 inst:   27000000 cyc:   17941062 now IPC :1.43152: AVG IPC :1.47409: L2-Pf-HR :0.81354: L2-HR :0.80640: (Sim:0h17m27s) 
CPU  0 inst:   27000000 cyc:   18273803 now IPC :1.30495: AVG IPC :1.44569: L2-Pf-HR :0.81338: L2-HR :0.80321: (Sim:0h17m49s) 
CPU  1 inst:   28000000 cyc:   18574701 now IPC :1.19032: AVG IPC :1.47786: L2-Pf-HR :0.80099: L2-HR :0.79230: (Sim:0h18m7s) 
CPU  3 inst:   28000000 cyc:   18598447 now IPC :1.26910: AVG IPC :1.47585: L2-Pf-HR :0.83254: L2-HR :0.81496: (Sim:0h18m9s) 
CPU  2 inst:   28000000 cyc:   18683404 now IPC :1.34709: AVG IPC :1.46876: L2-Pf-HR :0.81601: L2-HR :0.80742: (Sim:0h18m14s) 
CPU  0 inst:   28000001 cyc:   19099156 now IPC :1.21160: AVG IPC :1.43503: L2-Pf-HR :0.81641: L2-HR :0.80430: (Sim:0h18m39s) 
CPU  1 inst:   29000002 cyc:   19570597 now IPC :1.00412: AVG IPC :1.45248: L2-Pf-HR :0.79651: L2-HR :0.78924: (Sim:0h19m2s) 
CPU  3 inst:   29000002 cyc:   19609225 now IPC :0.98934: AVG IPC :1.44945: L2-Pf-HR :0.82896: L2-HR :0.81233: (Sim:0h19m3s) 
CPU  2 inst:   29000002 cyc:   19648259 now IPC :1.03643: AVG IPC :1.44641: L2-Pf-HR :0.81425: L2-HR :0.80563: (Sim:0h19m5s) 
CPU  0 inst:   29000002 cyc:   20234284 now IPC :0.88096: AVG IPC :1.40236: L2-Pf-HR :0.81169: L2-HR :0.80132: (Sim:0h19m33s) 
CPU  1 inst:   30000000 cyc:   20602890 now IPC :0.96872: AVG IPC :1.42703: L2-Pf-HR :0.79826: L2-HR :0.79054: (Sim:0h19m50s) 
CPU  3 inst:   30000000 cyc:   20690038 now IPC :0.92523: AVG IPC :1.42070: L2-Pf-HR :0.82994: L2-HR :0.81294: (Sim:0h19m53s) 
CPU  2 inst:   30000000 cyc:   20697337 now IPC :0.95322: AVG IPC :1.42017: L2-Pf-HR :0.81373: L2-HR :0.80570: (Sim:0h19m53s) 
CPU  0 inst:   30000000 cyc:   21043321 now IPC :1.23603: AVG IPC :1.39565: L2-Pf-HR :0.81055: L2-HR :0.80102: (Sim:0h20m6s) 
CPU  1 inst:   31000001 cyc:   21380501 now IPC :1.28599: AVG IPC :1.42165: L2-Pf-HR :0.80018: L2-HR :0.79199: (Sim:0h20m18s) 
CPU  3 inst:   31000001 cyc:   21554519 now IPC :1.15676: AVG IPC :1.40961: L2-Pf-HR :0.83125: L2-HR :0.81383: (Sim:0h20m23s) 
CPU  2 inst:   31000001 cyc:   21559702 now IPC :1.15960: AVG IPC :1.40925: L2-Pf-HR :0.81478: L2-HR :0.80661: (Sim:0h20m23s) 
CPU  0 inst:   31000001 cyc:   21758965 now IPC :1.39734: AVG IPC :1.39571: L2-Pf-HR :0.81244: L2-HR :0.80274: (Sim:0h20m31s) 
CPU  1 inst:   32000003 cyc:   22162639 now IPC :1.27855: AVG IPC :1.41637: L2-Pf-HR :0.80166: L2-HR :0.79253: (Sim:0h20m45s) 
CPU  2 inst:   32000003 cyc:   22358508 now IPC :1.25187: AVG IPC :1.40337: L2-Pf-HR :0.81634: L2-HR :0.80748: (Sim:0h20m52s) 
CPU  3 inst:   32000003 cyc:   22385090 now IPC :1.20399: AVG IPC :1.40163: L2-Pf-HR :0.83355: L2-HR :0.81494: (Sim:0h20m53s) 
CPU  0 inst:   32000003 cyc:   22541277 now IPC :1.27826: AVG IPC :1.39145: L2-Pf-HR :0.81567: L2-HR :0.80439: (Sim:0h20m57s) 
CPU  1 inst:   33000003 cyc:   23212425 now IPC :0.95258: AVG IPC :1.39447: L2-Pf-HR :0.79996: L2-HR :0.79096: (Sim:0h21m17s) 
CPU  2 inst:   33000003 cyc:   23389835 now IPC :0.96962: AVG IPC :1.38341: L2-Pf-HR :0.81645: L2-HR :0.80686: (Sim:0h21m21s) 
CPU  3 inst:   33000001 cyc:   23511134 now IPC :0.88806: AVG IPC :1.37596: L2-Pf-HR :0.83252: L2-HR :0.81332: (Sim:0h21m24s) 
CPU  0 inst:   33000003 cyc:   23674170 now IPC :0.88270: AVG IPC :1.36605: L2-Pf-HR :0.81346: L2-HR :0.80269: (Sim:0h21m27s) 
CPU  1 inst:   34000004 cyc:   24418813 now IPC :0.82892: AVG IPC :1.36536: L2-Pf-HR :0.79808: L2-HR :0.79054: (Sim:0h21m47s) 
CPU  2 inst:   34000004 cyc:   24596611 now IPC :0.82866: AVG IPC :1.35506: L2-Pf-HR :0.81389: L2-HR :0.80565: (Sim:0h21m53s) 
CPU  3 inst:   34000004 cyc:   24724253 now IPC :0.82432: AVG IPC :1.34778: L2-Pf-HR :0.83194: L2-HR :0.81334: (Sim:0h21m57s) 
CPU  0 inst:   34000004 cyc:   24778171 now IPC :0.90580: AVG IPC :1.34470: L2-Pf-HR :0.81082: L2-HR :0.80186: (Sim:0h21m58s) 
CPU  1 inst:   35000000 cyc:   25312877 now IPC :1.11848: AVG IPC :1.35628: L2-Pf-HR :0.80001: L2-HR :0.79221: (Sim:0h22m28s) 
CPU  2 inst:   35000000 cyc:   25454570 now IPC :1.16555: AVG IPC :1.34841: L2-Pf-HR :0.81465: L2-HR :0.80660: (Sim:0h22m36s) 
CPU  3 inst:   35000000 cyc:   25640715 now IPC :1.09115: AVG IPC :1.33824: L2-Pf-HR :0.83307: L2-HR :0.81443: (Sim:0h22m47s) 
CPU  0 inst:   35000000 cyc:   25741697 now IPC :1.03785: AVG IPC :1.33276: L2-Pf-HR :0.81265: L2-HR :0.80331: (Sim:0h22m53s) 
CPU  1 inst:   36000000 cyc:   26176996 now IPC :1.15725: AVG IPC :1.34946: L2-Pf-HR :0.80127: L2-HR :0.79290: (Sim:0h23m18s) 
CPU  2 inst:   36000000 cyc:   26276220 now IPC :1.21706: AVG IPC :1.34415: L2-Pf-HR :0.81527: L2-HR :0.80720: (Sim:0h23m24s) 
CPU  3 inst:   36000000 cyc:   26518725 now IPC :1.13894: AVG IPC :1.33139: L2-Pf-HR :0.83308: L2-HR :0.81442: (Sim:0h23m38s) 
CPU  0 inst:   36000000 cyc:   26617643 now IPC :1.14162: AVG IPC :1.32623: L2-Pf-HR :0.81476: L2-HR :0.80427: (Sim:0h23m44s) 
CPU  1 inst:   37000005 cyc:   27078997 now IPC :1.10865: AVG IPC :1.34113: L2-Pf-HR :0.80122: L2-HR :0.79208: (Sim:0h24m10s) 
CPU  2 inst:   37000005 cyc:   27206514 now IPC :1.07493: AVG IPC :1.33460: L2-Pf-HR :0.81679: L2-HR :0.80712: (Sim:0h24m16s) 
CPU  3 inst:   37000005 cyc:   27564980 now IPC :0.95579: AVG IPC :1.31661: L2-Pf-HR :0.83335: L2-HR :0.81357: (Sim:0h24m31s) 
CPU  0 inst:   37000005 cyc:   27678975 now IPC :0.94222: AVG IPC :1.31096: L2-Pf-HR :0.81459: L2-HR :0.80334: (Sim:0h24m36s) 
CPU  1 inst:   38000003 cyc:   28330567 now IPC :0.79899: AVG IPC :1.31632: L2-Pf-HR :0.79882: L2-HR :0.79115: (Sim:0h25m5s) 
CPU  2 inst:   38000003 cyc:   28479713 now IPC :0.78542: AVG IPC :1.30917: L2-Pf-HR :0.81388: L2-HR :0.80577: (Sim:0h25m12s) 
CPU  3 inst:   38000003 cyc:   28827541 now IPC :0.79204: AVG IPC :1.29282: L2-Pf-HR :0.83152: L2-HR :0.81284: (Sim:0h25m31s) 
CPU  0 inst:   38000003 cyc:   29027676 now IPC :0.74145: AVG IPC :1.28357: L2-Pf-HR :0.81184: L2-HR :0.80189: (Sim:0h25m42s) 
CPU  1 inst:   39000003 cyc:   29394127 now IPC :0.94024: AVG IPC :1.30225: L2-Pf-HR :0.79948: L2-HR :0.79201: (Sim:0h26m2s) 
CPU  2 inst:   39000003 cyc:   29434869 now IPC :1.04695: AVG IPC :1.30037: L2-Pf-HR :0.81344: L2-HR :0.80608: (Sim:0h26m4s) 
CPU  3 inst:   39000003 cyc:   29701686 now IPC :1.14398: AVG IPC :1.28829: L2-Pf-HR :0.83217: L2-HR :0.81379: (Sim:0h26m20s) 
CPU  0 inst:   39000003 cyc:   29916172 now IPC :1.12550: AVG IPC :1.27872: L2-Pf-HR :0.81321: L2-HR :0.80306: (Sim:0h26m32s) 
CPU  1 inst:   40000000 cyc:   30347140 now IPC :1.04930: AVG IPC :1.29404: L2-Pf-HR :0.80131: L2-HR :0.79335: (Sim:0h26m57s) 
CPU  2 inst:   40000000 cyc:   30357064 now IPC :1.08437: AVG IPC :1.29359: L2-Pf-HR :0.81485: L2-HR :0.80728: (Sim:0h26m58s) 
CPU  3 inst:   40000000 cyc:   30518820 now IPC :1.22379: AVG IPC :1.28651: L2-Pf-HR :0.83245: L2-HR :0.81436: (Sim:0h27m7s) 
CPU  0 inst:   40000000 cyc:   30752364 now IPC :1.19589: AVG IPC :1.27639: L2-Pf-HR :0.81444: L2-HR :0.80394: (Sim:0h27m21s) 
CPU  1 inst:   41000003 cyc:   31310100 now IPC :1.03847: AVG IPC :1.28592: L2-Pf-HR :0.80133: L2-HR :0.79267: (Sim:0h27m52s) 
CPU  2 inst:   41000003 cyc:   31325668 now IPC :1.03242: AVG IPC :1.28525: L2-Pf-HR :0.81643: L2-HR :0.80744: (Sim:0h27m52s) 
CPU  3 inst:   41000003 cyc:   31420034 now IPC :1.10962: AVG IPC :1.28127: L2-Pf-HR :0.83290: L2-HR :0.81401: (Sim:0h27m57s) 
CPU  0 inst:   41000003 cyc:   31895101 now IPC :0.87509: AVG IPC :1.26156: L2-Pf-HR :0.81429: L2-HR :0.80327: (Sim:0h28m14s) 
CPU  1 inst:   42000003 cyc:   32775993 now IPC :0.68218: AVG IPC :1.25809: L2-Pf-HR :0.79895: L2-HR :0.79172: (Sim:0h28m52s) 
CPU  2 inst:   42000003 cyc:   32826768 now IPC :0.66618: AVG IPC :1.25607: L2-Pf-HR :0.81382: L2-HR :0.80604: (Sim:0h28m55s) 
CPU  3 inst:   42000003 cyc:   32972178 now IPC :0.64427: AVG IPC :1.25036: L2-Pf-HR :0.83101: L2-HR :0.81297: (Sim:0h29m3s) 
CPU  0 inst:   42000003 cyc:   33201583 now IPC :0.76541: AVG IPC :1.24144: L2-Pf-HR :0.81182: L2-HR :0.80189: (Sim:0h29m15s) 
CPU  1 inst:   43000003 cyc:   33711085 now IPC :1.06941: AVG IPC :1.25270: L2-Pf-HR :0.79953: L2-HR :0.79281: (Sim:0h29m43s) 
CPU  2 inst:   43000003 cyc:   33836386 now IPC :0.99047: AVG IPC :1.24791: L2-Pf-HR :0.81346: L2-HR :0.80648: (Sim:0h29m50s) 
CPU  3 inst:   43000003 cyc:   33948963 now IPC :1.02377: AVG IPC :1.24365: L2-Pf-HR :0.83072: L2-HR :0.81344: (Sim:0h29m57s) 
CPU  0 inst:   43000003 cyc:   34077513 now IPC :1.14164: AVG IPC :1.23880: L2-Pf-HR :0.81312: L2-HR :0.80318: (Sim:0h30m5s) 
CPU  1 inst:   44000001 cyc:   34502368 now IPC :1.26377: AVG IPC :1.25296: L2-Pf-HR :0.80084: L2-HR :0.79386: (Sim:0h30m31s) 
CPU  2 inst:   44000001 cyc:   34640926 now IPC :1.24294: AVG IPC :1.24779: L2-Pf-HR :0.81430: L2-HR :0.80724: (Sim:0h30m40s) 
CPU  3 inst:   44000001 cyc:   34756050 now IPC :1.23902: AVG IPC :1.24354: L2-Pf-HR :0.83224: L2-HR :0.81467: (Sim:0h30m47s) 
CPU  0 inst:   44000001 cyc:   34916002 now IPC :1.19262: AVG IPC :1.23766: L2-Pf-HR :0.81417: L2-HR :0.80368: (Sim:0h30m56s) 
CPU  1 inst:   45000001 cyc:   35444602 now IPC :1.06131: AVG IPC :1.24772: L2-Pf-HR :0.80133: L2-HR :0.79357: (Sim:0h31m25s) 
CPU  2 inst:   45000001 cyc:   35550197 now IPC :1.09978: AVG IPC :1.24389: L2-Pf-HR :0.81568: L2-HR :0.80752: (Sim:0h31m31s) 
CPU  3 inst:   45000001 cyc:   35711800 now IPC :1.04630: AVG IPC :1.23811: L2-Pf-HR :0.83300: L2-HR :0.81449: (Sim:0h31m40s) 
CPU  0 inst:   45000001 cyc:   35880940 now IPC :1.03634: AVG IPC :1.23209: L2-Pf-HR :0.81447: L2-HR :0.80343: (Sim:0h31m47s) 
CPU  1 inst:   46000001 cyc:   36822946 now IPC :0.72551: AVG IPC :1.22764: L2-Pf-HR :0.79856: L2-HR :0.79220: (Sim:0h32m25s) 
CPU  2 inst:   46000000 cyc:   36920233 now IPC :0.72991: AVG IPC :1.22430: L2-Pf-HR :0.81378: L2-HR :0.80652: (Sim:0h32m30s) 
CPU  3 inst:   46000002 cyc:   37093994 now IPC :0.72349: AVG IPC :1.21841: L2-Pf-HR :0.83005: L2-HR :0.81290: (Sim:0h32m40s) 
CPU  0 inst:   46000002 cyc:   37298275 now IPC :0.70555: AVG IPC :1.21154: L2-Pf-HR :0.81158: L2-HR :0.80180: (Sim:0h32m51s) 
CPU  1 inst:   47000000 cyc:   37776287 now IPC :1.04894: AVG IPC :1.22301: L2-Pf-HR :0.79919: L2-HR :0.79308: (Sim:0h33m17s) 
CPU  2 inst:   47000000 cyc:   37909242 now IPC :1.01111: AVG IPC :1.21859: L2-Pf-HR :0.81366: L2-HR :0.80686: (Sim:0h33m24s) 
CPU  3 inst:   47000000 cyc:   37973991 now IPC :1.13637: AVG IPC :1.21646: L2-Pf-HR :0.83082: L2-HR :0.81398: (Sim:0h33m28s) 
CPU  0 inst:   47000000 cyc:   38198747 now IPC :1.11053: AVG IPC :1.20910: L2-Pf-HR :0.81288: L2-HR :0.80291: (Sim:0h33m41s) 
CPU  1 inst:   48000002 cyc:   38647193 now IPC :1.14823: AVG IPC :1.22128: L2-Pf-HR :0.80090: L2-HR :0.79426: (Sim:0h34m8s) 
CPU  2 inst:   48000002 cyc:   38728486 now IPC :1.22064: AVG IPC :1.21864: L2-Pf-HR :0.81401: L2-HR :0.80748: (Sim:0h34m13s) 
CPU  3 inst:   48000002 cyc:   38799240 now IPC :1.21176: AVG IPC :1.21636: L2-Pf-HR :0.83181: L2-HR :0.81497: (Sim:0h34m17s) 
CPU  0 inst:   48000002 cyc:   38997637 now IPC :1.25174: AVG IPC :1.20999: L2-Pf-HR :0.81433: L2-HR :0.80397: (Sim:0h34m29s) 
CPU  1 inst:   49000004 cyc:   39573744 now IPC :1.07927: AVG IPC :1.21787: L2-Pf-HR :0.80149: L2-HR :0.79405: (Sim:0h35m0s) 
CPU  2 inst:   49000004 cyc:   39637712 now IPC :1.09984: AVG IPC :1.21584: L2-Pf-HR :0.81522: L2-HR :0.80781: (Sim:0h35m4s) 
CPU  3 inst:   49000004 cyc:   39754764 now IPC :1.04655: AVG IPC :1.21217: L2-Pf-HR :0.83245: L2-HR :0.81487: (Sim:0h35m10s) 
CPU  0 inst:   49000004 cyc:   39929756 now IPC :1.07283: AVG IPC :1.20671: L2-Pf-HR :0.81479: L2-HR :0.80374: (Sim:0h35m20s) 
CPU  1 inst:   50000004 cyc:   49265820 now IPC :0.10318: AVG IPC :0.99412: L2-Pf-HR :0.77355: L2-HR :0.76716: (Sim:0h39m50s) 
CPU  2 inst:   50000001 cyc:   49387995 now IPC :0.10256: AVG IPC :0.99160: L2-Pf-HR :0.79014: L2-HR :0.78145: (Sim:0h39m54s) 
CPU  3 inst:   50000000 cyc:   50071187 now IPC :0.09693: AVG IPC :0.97780: L2-Pf-HR :0.80796: L2-HR :0.78846: (Sim:0h40m16s) 
CPU  0 inst:   50000001 cyc:   51348592 now IPC :0.08757: AVG IPC :0.95299: L2-Pf-HR :0.78814: L2-HR :0.77704: (Sim:0h40m55s) 
CPU  2 inst:   51000003 cyc:   67956520 now IPC :0.05385: AVG IPC :0.73161: L2-Pf-HR :0.74724: L2-HR :0.74579: (Sim:0h48m3s) 
CPU  1 inst:   51000003 cyc:   68049417 now IPC :0.05324: AVG IPC :0.73060: L2-Pf-HR :0.72766: L2-HR :0.73185: (Sim:0h48m4s) 
CPU  3 inst:   51000000 cyc:   68839372 now IPC :0.05328: AVG IPC :0.72210: L2-Pf-HR :0.76640: L2-HR :0.75272: (Sim:0h48m18s) 
CPU  0 inst:   51000003 cyc:   70225262 now IPC :0.05298: AVG IPC :0.70763: L2-Pf-HR :0.74370: L2-HR :0.74148: (Sim:0h48m41s) 
CPU  1 inst:   52000000 cyc:   75891635 now IPC :0.12751: AVG IPC :0.66747: L2-Pf-HR :0.70961: L2-HR :0.72086: (Sim:0h50m10s) 
CPU  2 inst:   52000000 cyc:   75938303 now IPC :0.12528: AVG IPC :0.66705: L2-Pf-HR :0.73060: L2-HR :0.73470: (Sim:0h50m11s) 
CPU  3 inst:   52000000 cyc:   76123728 now IPC :0.13728: AVG IPC :0.66540: L2-Pf-HR :0.75008: L2-HR :0.74159: (Sim:0h50m14s) 
CPU  0 inst:   52000000 cyc:   76377991 now IPC :0.16253: AVG IPC :0.66315: L2-Pf-HR :0.72641: L2-HR :0.73042: (Sim:0h50m19s) 
CPU  1 inst:   53000000 cyc:   79236788 now IPC :0.29894: AVG IPC :0.65171: L2-Pf-HR :0.69746: L2-HR :0.71508: (Sim:0h51m9s) 
CPU  2 inst:   53000000 cyc:   79270230 now IPC :0.30013: AVG IPC :0.65143: L2-Pf-HR :0.71923: L2-HR :0.72905: (Sim:0h51m10s) 
CPU  3 inst:   53000000 cyc:   79472471 now IPC :0.29862: AVG IPC :0.64975: L2-Pf-HR :0.73926: L2-HR :0.73599: (Sim:0h51m14s) 
CPU  0 inst:   53000000 cyc:   79727553 now IPC :0.29855: AVG IPC :0.64764: L2-Pf-HR :0.71468: L2-HR :0.72464: (Sim:0h51m18s) 
CPU  1 inst:   54000000 cyc:   82654089 now IPC :0.29263: AVG IPC :0.63669: L2-Pf-HR :0.68572: L2-HR :0.70942: (Sim:0h52m9s) 
CPU  2 inst:   54000000 cyc:   82685035 now IPC :0.29284: AVG IPC :0.63644: L2-Pf-HR :0.70833: L2-HR :0.72341: (Sim:0h52m10s) 
CPU  3 inst:   54000000 cyc:   82882137 now IPC :0.29328: AVG IPC :0.63491: L2-Pf-HR :0.72867: L2-HR :0.73043: (Sim:0h52m13s) 
CPU  0 inst:   54000000 cyc:   83141353 now IPC :0.29293: AVG IPC :0.63290: L2-Pf-HR :0.70354: L2-HR :0.71914: (Sim:0h52m18s) 
CPU  1 inst:   55000001 cyc:   86091573 now IPC :0.29091: AVG IPC :0.62272: L2-Pf-HR :0.67468: L2-HR :0.70404: (Sim:0h53m10s) 
CPU  2 inst:   55000001 cyc:   86094612 now IPC :0.29329: AVG IPC :0.62270: L2-Pf-HR :0.69794: L2-HR :0.71812: (Sim:0h53m10s) 
CPU  3 inst:   55000001 cyc:   86298250 now IPC :0.29273: AVG IPC :0.62121: L2-Pf-HR :0.71859: L2-HR :0.72517: (Sim:0h53m14s) 
CPU  0 inst:   55000001 cyc:   86569602 now IPC :0.29169: AVG IPC :0.61924: L2-Pf-HR :0.69290: L2-HR :0.71381: (Sim:0h53m19s) 
CPU  1 inst:   56000002 cyc:   89518741 now IPC :0.29179: AVG IPC :0.60991: L2-Pf-HR :0.66407: L2-HR :0.69884: (Sim:0h54m10s) 
CPU  2 inst:   56000002 cyc:   89523469 now IPC :0.29164: AVG IPC :0.60988: L2-Pf-HR :0.68775: L2-HR :0.71296: (Sim:0h54m10s) 
CPU  3 inst:   56000000 cyc:   89718569 now IPC :0.29237: AVG IPC :0.60854: L2-Pf-HR :0.70882: L2-HR :0.72005: (Sim:0h54m14s) 
CPU  0 inst:   56000000 cyc:   89996539 now IPC :0.29181: AVG IPC :0.60663: L2-Pf-HR :0.68250: L2-HR :0.70868: (Sim:0h54m18s) 
CPU  2 inst:   57000000 cyc:   92953029 now IPC :0.29158: AVG IPC :0.59801: L2-Pf-HR :0.67802: L2-HR :0.70794: (Sim:0h55m10s) 
CPU  1 inst:   57000000 cyc:   92960203 now IPC :0.29057: AVG IPC :0.59797: L2-Pf-HR :0.65382: L2-HR :0.69378: (Sim:0h55m10s) 
CPU  3 inst:   57000000 cyc:   93142088 now IPC :0.29210: AVG IPC :0.59678: L2-Pf-HR :0.69936: L2-HR :0.71500: (Sim:0h55m13s) 
CPU  0 inst:   57000000 cyc:   93428354 now IPC :0.29139: AVG IPC :0.59493: L2-Pf-HR :0.67254: L2-HR :0.70359: (Sim:0h55m18s) 
CPU  2 inst:   58000000 cyc:   96331728 now IPC :0.29597: AVG IPC :0.58731: L2-Pf-HR :0.66844: L2-HR :0.70309: (Sim:0h56m9s) 
CPU  1 inst:   58000000 cyc:   96355704 now IPC :0.29451: AVG IPC :0.58716: L2-Pf-HR :0.64384: L2-HR :0.68892: (Sim:0h56m10s) 
CPU  3 inst:   58000000 cyc:   96504781 now IPC :0.29738: AVG IPC :0.58624: L2-Pf-HR :0.69004: L2-HR :0.71021: (Sim:0h56m13s) 
CPU  0 inst:   58000000 cyc:   96799863 now IPC :0.29660: AVG IPC :0.58443: L2-Pf-HR :0.66277: L2-HR :0.69875: (Sim:0h56m18s) 
CPU  2 inst:   59000000 cyc:   99654082 now IPC :0.30099: AVG IPC :0.57767: L2-Pf-HR :0.65913: L2-HR :0.69827: (Sim:0h57m9s) 
CPU  1 inst:   59000000 cyc:   99676011 now IPC :0.30118: AVG IPC :0.57754: L2-Pf-HR :0.63409: L2-HR :0.68407: (Sim:0h57m9s) 
CPU  3 inst:   59000000 cyc:   99826182 now IPC :0.30108: AVG IPC :0.57666: L2-Pf-HR :0.68091: L2-HR :0.70541: (Sim:0h57m12s) 
CPU  0 inst:   59000000 cyc:  100123048 now IPC :0.30092: AVG IPC :0.57493: L2-Pf-HR :0.65331: L2-HR :0.69396: (Sim:0h57m17s) 
CPU  2 inst:   60000000 cyc:  102955725 now IPC :0.30288: AVG IPC :0.56877: L2-Pf-HR :0.65014: L2-HR :0.69363: (Sim:0h58m7s) 
CPU  1 inst:   60000000 cyc:  102984070 now IPC :0.30229: AVG IPC :0.56861: L2-Pf-HR :0.62454: L2-HR :0.67936: (Sim:0h58m8s) 
CPU  3 inst:   60000000 cyc:  103115652 now IPC :0.30400: AVG IPC :0.56788: L2-Pf-HR :0.67208: L2-HR :0.70076: (Sim:0h58m10s) 
CPU  0 inst:   60000000 cyc:  103401568 now IPC :0.30502: AVG IPC :0.56629: L2-Pf-HR :0.64409: L2-HR :0.68922: (Sim:0h58m15s) 
CPU  2 inst:   61000004 cyc:  106156878 now IPC :0.31239: AVG IPC :0.56096: L2-Pf-HR :0.64124: L2-HR :0.68913: (Sim:0h59m4s) 
CPU  1 inst:   61000004 cyc:  106197664 now IPC :0.31118: AVG IPC :0.56075: L2-Pf-HR :0.61527: L2-HR :0.67486: (Sim:0h59m5s) 
CPU  3 inst:   61000004 cyc:  106324786 now IPC :0.31161: AVG IPC :0.56007: L2-Pf-HR :0.66333: L2-HR :0.69625: (Sim:0h59m7s) 
CPU  0 inst:   61000004 cyc:  106607296 now IPC :0.31194: AVG IPC :0.55857: L2-Pf-HR :0.63503: L2-HR :0.68470: (Sim:0h59m12s) 
CPU  2 inst:   62000000 cyc:  109348730 now IPC :0.31330: AVG IPC :0.55367: L2-Pf-HR :0.63256: L2-HR :0.68465: (Sim:1h0m2s) 
CPU  1 inst:   62000000 cyc:  109392634 now IPC :0.31299: AVG IPC :0.55345: L2-Pf-HR :0.60623: L2-HR :0.67037: (Sim:1h0m3s) 
CPU  3 inst:   62000000 cyc:  109525212 now IPC :0.31246: AVG IPC :0.55277: L2-Pf-HR :0.65479: L2-HR :0.69176: (Sim:1h0m7s) 
CPU  0 inst:   62000000 cyc:  109795419 now IPC :0.31366: AVG IPC :0.55139: L2-Pf-HR :0.62620: L2-HR :0.68028: (Sim:1h0m16s) 
CPU  2 inst:   63000000 cyc:  112539041 now IPC :0.31345: AVG IPC :0.54680: L2-Pf-HR :0.62415: L2-HR :0.68031: (Sim:1h1m12s) 
CPU  1 inst:   63000000 cyc:  112581620 now IPC :0.31358: AVG IPC :0.54660: L2-Pf-HR :0.59749: L2-HR :0.66598: (Sim:1h1m13s) 
CPU  3 inst:   63000000 cyc:  112708629 now IPC :0.31413: AVG IPC :0.54597: L2-Pf-HR :0.64650: L2-HR :0.68741: (Sim:1h1m15s) 
CPU  0 inst:   63000000 cyc:  112976251 now IPC :0.31438: AVG IPC :0.54466: L2-Pf-HR :0.61767: L2-HR :0.67595: (Sim:1h1m20s) 
CPU  2 inst:   64000005 cyc:  115732892 now IPC :0.31310: AVG IPC :0.54030: L2-Pf-HR :0.61600: L2-HR :0.67607: (Sim:1h2m7s) 
CPU  1 inst:   64000005 cyc:  115778987 now IPC :0.31276: AVG IPC :0.54008: L2-Pf-HR :0.58901: L2-HR :0.66178: (Sim:1h2m8s) 
CPU  3 inst:   64000005 cyc:  115915338 now IPC :0.31185: AVG IPC :0.53944: L2-Pf-HR :0.63851: L2-HR :0.68323: (Sim:1h2m10s) 
CPU  0 inst:   64000005 cyc:  116171788 now IPC :0.31294: AVG IPC :0.53823: L2-Pf-HR :0.60934: L2-HR :0.67172: (Sim:1h2m15s) 
CPU  2 inst:   65000002 cyc:  118929623 now IPC :0.31282: AVG IPC :0.53413: L2-Pf-HR :0.60805: L2-HR :0.67199: (Sim:1h3m5s) 
CPU  1 inst:   65000002 cyc:  118974340 now IPC :0.31295: AVG IPC :0.53393: L2-Pf-HR :0.58077: L2-HR :0.65769: (Sim:1h3m6s) 
CPU  3 inst:   65000002 cyc:  119108483 now IPC :0.31317: AVG IPC :0.53332: L2-Pf-HR :0.63066: L2-HR :0.67914: (Sim:1h3m9s) 
CPU  0 inst:   65000002 cyc:  119367858 now IPC :0.31288: AVG IPC :0.53215: L2-Pf-HR :0.60125: L2-HR :0.66761: (Sim:1h3m13s) 
CPU  2 inst:   66000000 cyc:  122121110 now IPC :0.31333: AVG IPC :0.52831: L2-Pf-HR :0.60030: L2-HR :0.66788: (Sim:1h4m2s) 
CPU  1 inst:   66000000 cyc:  122166598 now IPC :0.31326: AVG IPC :0.52812: L2-Pf-HR :0.57272: L2-HR :0.65357: (Sim:1h4m3s) 
CPU  3 inst:   66000000 cyc:  122302856 now IPC :0.31305: AVG IPC :0.52752: L2-Pf-HR :0.62304: L2-HR :0.67506: (Sim:1h4m5s) 
CPU  0 inst:   66000000 cyc:  122560486 now IPC :0.31322: AVG IPC :0.52640: L2-Pf-HR :0.59337: L2-HR :0.66351: (Sim:1h4m9s) 
CPU  2 inst:   67000000 cyc:  125325738 now IPC :0.31205: AVG IPC :0.52274: L2-Pf-HR :0.59280: L2-HR :0.66406: (Sim:1h4m58s) 
CPU  1 inst:   67000000 cyc:  125374601 now IPC :0.31172: AVG IPC :0.52254: L2-Pf-HR :0.56495: L2-HR :0.64974: (Sim:1h4m59s) 
CPU  3 inst:   67000000 cyc:  125507238 now IPC :0.31207: AVG IPC :0.52198: L2-Pf-HR :0.61567: L2-HR :0.67118: (Sim:1h5m2s) 
CPU  0 inst:   67000000 cyc:  125757792 now IPC :0.31276: AVG IPC :0.52093: L2-Pf-HR :0.58575: L2-HR :0.65965: (Sim:1h5m6s) 
CPU  2 inst:   68000000 cyc:  128512414 now IPC :0.31381: AVG IPC :0.51752: L2-Pf-HR :0.58546: L2-HR :0.66021: (Sim:1h5m55s) 
CPU  1 inst:   68000000 cyc:  128566295 now IPC :0.31331: AVG IPC :0.51730: L2-Pf-HR :0.55741: L2-HR :0.64592: (Sim:1h5m56s) 
CPU  3 inst:   68000000 cyc:  128708637 now IPC :0.31236: AVG IPC :0.51673: L2-Pf-HR :0.60842: L2-HR :0.66739: (Sim:1h5m58s) 
CPU  0 inst:   68000000 cyc:  128953115 now IPC :0.31296: AVG IPC :0.51573: L2-Pf-HR :0.57832: L2-HR :0.65585: (Sim:1h6m3s) 
CPU  2 inst:   69000004 cyc:  131707214 now IPC :0.31301: AVG IPC :0.51252: L2-Pf-HR :0.57833: L2-HR :0.65648: (Sim:1h6m52s) 
CPU  1 inst:   69000004 cyc:  131766660 now IPC :0.31247: AVG IPC :0.51229: L2-Pf-HR :0.55006: L2-HR :0.64219: (Sim:1h6m53s) 
CPU  3 inst:   69000004 cyc:  131899462 now IPC :0.31340: AVG IPC :0.51177: L2-Pf-HR :0.60134: L2-HR :0.66363: (Sim:1h6m55s) 
CPU  0 inst:   69000004 cyc:  132154378 now IPC :0.31238: AVG IPC :0.51077: L2-Pf-HR :0.57109: L2-HR :0.65206: (Sim:1h7m0s) 
CPU  2 inst:   70000000 cyc:  134901124 now IPC :0.31309: AVG IPC :0.50776: L2-Pf-HR :0.57135: L2-HR :0.65278: (Sim:1h7m49s) 
CPU  1 inst:   70000000 cyc:  134956172 now IPC :0.31353: AVG IPC :0.50756: L2-Pf-HR :0.54292: L2-HR :0.63850: (Sim:1h7m50s) 
CPU  3 inst:   70000000 cyc:  135110838 now IPC :0.31139: AVG IPC :0.50697: L2-Pf-HR :0.59443: L2-HR :0.65995: (Sim:1h7m53s) 
CPU  0 inst:   70000000 cyc:  135352221 now IPC :0.31271: AVG IPC :0.50606: L2-Pf-HR :0.56399: L2-HR :0.64840: (Sim:1h7m57s) 
CPU  2 inst:   71000000 cyc:  138104467 now IPC :0.31217: AVG IPC :0.50320: L2-Pf-HR :0.56452: L2-HR :0.64926: (Sim:1h8m46s) 
CPU  1 inst:   71000000 cyc:  138170176 now IPC :0.31114: AVG IPC :0.50296: L2-Pf-HR :0.53601: L2-HR :0.63502: (Sim:1h8m47s) 
CPU  3 inst:   71000000 cyc:  138318814 now IPC :0.31172: AVG IPC :0.50241: L2-Pf-HR :0.58770: L2-HR :0.65641: (Sim:1h8m49s) 
CPU  0 inst:   71000000 cyc:  138548617 now IPC :0.31285: AVG IPC :0.50157: L2-Pf-HR :0.55710: L2-HR :0.64488: (Sim:1h8m54s) 
CPU  2 inst:   72000000 cyc:  141290508 now IPC :0.31387: AVG IPC :0.49890: L2-Pf-HR :0.55789: L2-HR :0.64575: (Sim:1h9m52s) 
CPU  1 inst:   72000000 cyc:  141358291 now IPC :0.31366: AVG IPC :0.49866: L2-Pf-HR :0.52922: L2-HR :0.63151: (Sim:1h9m53s) 
CPU  3 inst:   72000000 cyc:  141515452 now IPC :0.31283: AVG IPC :0.49810: L2-Pf-HR :0.58113: L2-HR :0.65284: (Sim:1h9m56s) 
CPU  0 inst:   72000000 cyc:  141736680 now IPC :0.31367: AVG IPC :0.49731: L2-Pf-HR :0.55037: L2-HR :0.64134: (Sim:1h10m0s) 
CPU  2 inst:   73000000 cyc:  144487981 now IPC :0.31275: AVG IPC :0.49475: L2-Pf-HR :0.55138: L2-HR :0.64232: (Sim:1h10m49s) 
CPU  1 inst:   73000000 cyc:  144543920 now IPC :0.31391: AVG IPC :0.49456: L2-Pf-HR :0.52258: L2-HR :0.62814: (Sim:1h10m50s) 
CPU  3 inst:   73000000 cyc:  144712452 now IPC :0.31279: AVG IPC :0.49398: L2-Pf-HR :0.57467: L2-HR :0.64945: (Sim:1h10m53s) 
CPU  0 inst:   73000000 cyc:  144930139 now IPC :0.31314: AVG IPC :0.49323: L2-Pf-HR :0.54377: L2-HR :0.63797: (Sim:1h10m57s) 
CPU  2 inst:   74000001 cyc:  147690144 now IPC :0.31229: AVG IPC :0.49077: L2-Pf-HR :0.54507: L2-HR :0.63899: (Sim:1h12m15s) 
CPU  1 inst:   74000001 cyc:  147743747 now IPC :0.31252: AVG IPC :0.49059: L2-Pf-HR :0.51619: L2-HR :0.62485: (Sim:1h12m16s) 
CPU  3 inst:   74000001 cyc:  147911119 now IPC :0.31263: AVG IPC :0.49003: L2-Pf-HR :0.56837: L2-HR :0.64612: (Sim:1h12m22s) 
CPU  0 inst:   74000001 cyc:  148142918 now IPC :0.31126: AVG IPC :0.48925: L2-Pf-HR :0.53744: L2-HR :0.63465: (Sim:1h12m28s) 
CPU  2 inst:   75000002 cyc:  150875816 now IPC :0.31391: AVG IPC :0.48701: L2-Pf-HR :0.53888: L2-HR :0.63572: (Sim:1h13m45s) 
CPU  1 inst:   75000002 cyc:  150951033 now IPC :0.31179: AVG IPC :0.48677: L2-Pf-HR :0.50998: L2-HR :0.62161: (Sim:1h13m46s) 
CPU  3 inst:   75000002 cyc:  151106372 now IPC :0.31296: AVG IPC :0.48626: L2-Pf-HR :0.56219: L2-HR :0.64284: (Sim:1h13m49s) 
CPU  0 inst:   75000002 cyc:  151332669 now IPC :0.31350: AVG IPC :0.48552: L2-Pf-HR :0.53119: L2-HR :0.63140: (Sim:1h13m53s) 
CPU  2 inst:   76000000 cyc:  152872155 now IPC :0.50092: AVG IPC :0.48719: L2-Pf-HR :0.53845: L2-HR :0.63460: (Sim:1h14m23s) 
CPU  1 inst:   76000000 cyc:  152948370 now IPC :0.50067: AVG IPC :0.48695: L2-Pf-HR :0.50964: L2-HR :0.62051: (Sim:1h14m27s) 
CPU  3 inst:   76000000 cyc:  153186545 now IPC :0.48073: AVG IPC :0.48619: L2-Pf-HR :0.56174: L2-HR :0.64174: (Sim:1h14m38s) 
CPU  0 inst:   76000000 cyc:  153393188 now IPC :0.48531: AVG IPC :0.48552: L2-Pf-HR :0.53119: L2-HR :0.63038: (Sim:1h14m48s) 
CPU  2 inst:   77000002 cyc:  153589716 now IPC :1.39361: AVG IPC :0.49145: L2-Pf-HR :0.54195: L2-HR :0.63620: (Sim:1h14m57s) 
CPU  1 inst:   77000002 cyc:  153681405 now IPC :1.36419: AVG IPC :0.49116: L2-Pf-HR :0.51402: L2-HR :0.62271: (Sim:1h15m1s) 
CPU  3 inst:   77000002 cyc:  153913316 now IPC :1.37595: AVG IPC :0.49041: L2-Pf-HR :0.56462: L2-HR :0.64313: (Sim:1h15m13s) 
CPU  0 inst:   77000002 cyc:  154124365 now IPC :1.36766: AVG IPC :0.48973: L2-Pf-HR :0.53494: L2-HR :0.63205: (Sim:1h15m21s) 
CPU  2 inst:   78000004 cyc:  154444333 now IPC :1.17012: AVG IPC :0.49523: L2-Pf-HR :0.54567: L2-HR :0.63771: (Sim:1h15m36s) 
CPU  1 inst:   78000004 cyc:  154491424 now IPC :1.23454: AVG IPC :0.49508: L2-Pf-HR :0.51876: L2-HR :0.62452: (Sim:1h15m38s) 
CPU  3 inst:   78000004 cyc:  154747629 now IPC :1.19859: AVG IPC :0.49426: L2-Pf-HR :0.56805: L2-HR :0.64470: (Sim:1h15m53s) 
CPU  0 inst:   78000004 cyc:  154928004 now IPC :1.24434: AVG IPC :0.49367: L2-Pf-HR :0.53928: L2-HR :0.63374: (Sim:1h16m10s) 
CPU  2 inst:   79000000 cyc:  155038956 now IPC :1.68173: AVG IPC :0.49981: L2-Pf-HR :0.55015: L2-HR :0.63987: (Sim:1h16m20s) 
CPU  1 inst:   79000000 cyc:  155119237 now IPC :1.59282: AVG IPC :0.49955: L2-Pf-HR :0.52418: L2-HR :0.62717: (Sim:1h16m28s) 
CPU  3 inst:   79000000 cyc:  155334388 now IPC :1.70427: AVG IPC :0.49886: L2-Pf-HR :0.57200: L2-HR :0.64681: (Sim:1h16m44s) 
CPU  0 inst:   79000000 cyc:  155520129 now IPC :1.68883: AVG IPC :0.49825: L2-Pf-HR :0.54401: L2-HR :0.63595: (Sim:1h16m52s) 
CPU  2 inst:   80000005 cyc:  155880297 now IPC :1.18858: AVG IPC :0.50355: L2-Pf-HR :0.55319: L2-HR :0.64123: (Sim:1h17m7s) 
CPU  1 inst:   80000005 cyc:  155930093 now IPC :1.23327: AVG IPC :0.50339: L2-Pf-HR :0.52822: L2-HR :0.62877: (Sim:1h17m10s) 
CPU  3 inst:   80000005 cyc:  156293343 now IPC :1.04281: AVG IPC :0.50221: L2-Pf-HR :0.57487: L2-HR :0.64825: (Sim:1h17m23s) 
CPU  0 inst:   80000000 cyc:  156495071 now IPC :1.02570: AVG IPC :0.50156: L2-Pf-HR :0.54753: L2-HR :0.63765: (Sim:1h17m31s) 
CPU  2 inst:   81000000 cyc:  156684710 now IPC :1.24314: AVG IPC :0.50737: L2-Pf-HR :0.55590: L2-HR :0.64253: (Sim:1h17m43s) 
CPU  1 inst:   81000000 cyc:  156821222 now IPC :1.12217: AVG IPC :0.50693: L2-Pf-HR :0.53181: L2-HR :0.63048: (Sim:1h17m54s) 
CPU  3 inst:   81000000 cyc:  157017934 now IPC :1.38008: AVG IPC :0.50629: L2-Pf-HR :0.57773: L2-HR :0.64997: (Sim:1h18m10s) 
CPU  0 inst:   81000000 cyc:  157295292 now IPC :1.24965: AVG IPC :0.50539: L2-Pf-HR :0.55035: L2-HR :0.63905: (Sim:1h18m25s) 
CPU  2 inst:   82000003 cyc:  157503161 now IPC :1.22182: AVG IPC :0.51111: L2-Pf-HR :0.55947: L2-HR :0.64434: (Sim:1h18m34s) 
CPU  1 inst:   82000003 cyc:  157641725 now IPC :1.21877: AVG IPC :0.51066: L2-Pf-HR :0.53595: L2-HR :0.63239: (Sim:1h18m39s) 
CPU  3 inst:   82000001 cyc:  157895594 now IPC :1.13939: AVG IPC :0.50983: L2-Pf-HR :0.58077: L2-HR :0.65143: (Sim:1h18m50s) 
CPU  0 inst:   82000001 cyc:  158126911 now IPC :1.20247: AVG IPC :0.50908: L2-Pf-HR :0.55429: L2-HR :0.64089: (Sim:1h19m3s) 
CPU  2 inst:   83000003 cyc:  158207449 now IPC :1.41987: AVG IPC :0.51518: L2-Pf-HR :0.56322: L2-HR :0.64634: (Sim:1h19m7s) 
CPU  1 inst:   83000003 cyc:  158308643 now IPC :1.49943: AVG IPC :0.51485: L2-Pf-HR :0.54035: L2-HR :0.63449: (Sim:1h19m13s) 
CPU  3 inst:   83000003 cyc:  158509680 now IPC :1.62844: AVG IPC :0.51419: L2-Pf-HR :0.58445: L2-HR :0.65357: (Sim:1h19m24s) 
CPU  0 inst:   83000003 cyc:  158741582 now IPC :1.62689: AVG IPC :0.51343: L2-Pf-HR :0.55826: L2-HR :0.64303: (Sim:1h19m36s) 
CPU  2 inst:   84000004 cyc:  158979884 now IPC :1.29461: AVG IPC :0.51899: L2-Pf-HR :0.56593: L2-HR :0.64753: (Sim:1h19m46s) 
CPU  1 inst:   84000004 cyc:  159148776 now IPC :1.19029: AVG IPC :0.51844: L2-Pf-HR :0.54423: L2-HR :0.63654: (Sim:1h19m52s) 
CPU  3 inst:   84000005 cyc:  159412698 now IPC :1.10740: AVG IPC :0.51757: L2-Pf-HR :0.58688: L2-HR :0.65485: (Sim:1h20m3s) 
CPU  0 inst:   84000004 cyc:  159620154 now IPC :1.13821: AVG IPC :0.51689: L2-Pf-HR :0.56150: L2-HR :0.64457: (Sim:1h20m12s) 
CPU  2 inst:   85000005 cyc:  159813848 now IPC :1.19909: AVG IPC :0.52256: L2-Pf-HR :0.56846: L2-HR :0.64873: (Sim:1h20m21s) 
CPU  1 inst:   85000005 cyc:  159934050 now IPC :1.27344: AVG IPC :0.52217: L2-Pf-HR :0.54722: L2-HR :0.63786: (Sim:1h20m29s) 
CPU  3 inst:   85000004 cyc:  160167544 now IPC :1.32477: AVG IPC :0.52140: L2-Pf-HR :0.58922: L2-HR :0.65598: (Sim:1h20m46s) 
CPU  0 inst:   85000005 cyc:  160368485 now IPC :1.33631: AVG IPC :0.52074: L2-Pf-HR :0.56436: L2-HR :0.64616: (Sim:1h21m3s) 
CPU  2 inst:   86000004 cyc:  160711861 now IPC :1.11357: AVG IPC :0.52588: L2-Pf-HR :0.57132: L2-HR :0.65012: (Sim:1h21m26s) 
CPU  1 inst:   86000004 cyc:  160750540 now IPC :1.22475: AVG IPC :0.52576: L2-Pf-HR :0.55038: L2-HR :0.63925: (Sim:1h21m29s) 
CPU  3 inst:   86000001 cyc:  160983568 now IPC :1.22545: AVG IPC :0.52499: L2-Pf-HR :0.59172: L2-HR :0.65725: (Sim:1h21m48s) 
CPU  0 inst:   86000003 cyc:  161182878 now IPC :1.22791: AVG IPC :0.52433: L2-Pf-HR :0.56703: L2-HR :0.64740: (Sim:1h22m3s) 
CPU  2 inst:   87000003 cyc:  161338561 now IPC :1.59566: AVG IPC :0.53007: L2-Pf-HR :0.57473: L2-HR :0.65190: (Sim:1h22m17s) 
CPU  1 inst:   87000003 cyc:  161392880 now IPC :1.55681: AVG IPC :0.52989: L2-Pf-HR :0.55429: L2-HR :0.64116: (Sim:1h22m23s) 
CPU  3 inst:   87000003 cyc:  161598772 now IPC :1.62548: AVG IPC :0.52921: L2-Pf-HR :0.59481: L2-HR :0.65899: (Sim:1h22m42s) 
CPU  0 inst:   87000003 cyc:  161771567 now IPC :1.69869: AVG IPC :0.52863: L2-Pf-HR :0.57055: L2-HR :0.64929: (Sim:1h22m58s) 
CPU  2 inst:   88000000 cyc:  162035844 now IPC :1.43413: AVG IPC :0.53398: L2-Pf-HR :0.57770: L2-HR :0.65341: (Sim:1h23m18s) 
CPU  1 inst:   88000002 cyc:  162089139 now IPC :1.43625: AVG IPC :0.53381: L2-Pf-HR :0.55752: L2-HR :0.64270: (Sim:1h23m22s) 
CPU  3 inst:   88000000 cyc:  162327267 now IPC :1.37269: AVG IPC :0.53302: L2-Pf-HR :0.59733: L2-HR :0.66053: (Sim:1h23m39s) 
CPU  0 inst:   88000002 cyc:  162566338 now IPC :1.25822: AVG IPC :0.53222: L2-Pf-HR :0.57342: L2-HR :0.65074: (Sim:1h23m55s) 
CPU  2 inst:   89000002 cyc:  162945223 now IPC :1.09965: AVG IPC :0.53716: L2-Pf-HR :0.57996: L2-HR :0.65444: (Sim:1h24m20s) 
CPU  1 inst:   89000002 cyc:  162949951 now IPC :1.16169: AVG IPC :0.53714: L2-Pf-HR :0.56037: L2-HR :0.64412: (Sim:1h24m20s) 
CPU  3 inst:   89000002 cyc:  163159205 now IPC :1.20202: AVG IPC :0.53645: L2-Pf-HR :0.59956: L2-HR :0.66192: (Sim:1h24m35s) 
CPU  0 inst:   89000002 cyc:  163533281 now IPC :1.03419: AVG IPC :0.53521: L2-Pf-HR :0.57597: L2-HR :0.65187: (Sim:1h25m0s) 
CPU  2 inst:   90000001 cyc:  163744080 now IPC :1.25179: AVG IPC :0.54066: L2-Pf-HR :0.58212: L2-HR :0.65575: (Sim:1h25m15s) 
CPU  1 inst:   90000002 cyc:  163774481 now IPC :1.21281: AVG IPC :0.54056: L2-Pf-HR :0.56323: L2-HR :0.64561: (Sim:1h25m17s) 
CPU  3 inst:   90000001 cyc:  164064732 now IPC :1.10433: AVG IPC :0.53960: L2-Pf-HR :0.60164: L2-HR :0.66332: (Sim:1h25m34s) 
CPU  0 inst:   90000001 cyc:  164358896 now IPC :1.21122: AVG IPC :0.53863: L2-Pf-HR :0.57841: L2-HR :0.65312: (Sim:1h25m56s) 
CPU  2 inst:   91000004 cyc:  164606344 now IPC :1.15974: AVG IPC :0.54393: L2-Pf-HR :0.58496: L2-HR :0.65711: (Sim:1h26m15s) 
CPU  1 inst:   91000002 cyc:  164656252 now IPC :1.13408: AVG IPC :0.54376: L2-Pf-HR :0.56652: L2-HR :0.64723: (Sim:1h26m18s) 
CPU  3 inst:   91000002 cyc:  164811341 now IPC :1.33939: AVG IPC :0.54325: L2-Pf-HR :0.60423: L2-HR :0.66476: (Sim:1h26m32s) 
CPU  0 inst:   91000004 cyc:  165139354 now IPC :1.28130: AVG IPC :0.54216: L2-Pf-HR :0.58139: L2-HR :0.65455: (Sim:1h27m0s) 
CPU  2 inst:   92000000 cyc:  165251579 now IPC :1.54982: AVG IPC :0.54788: L2-Pf-HR :0.58804: L2-HR :0.65899: (Sim:1h27m10s) 
CPU  1 inst:   92000003 cyc:  165314063 now IPC :1.52020: AVG IPC :0.54767: L2-Pf-HR :0.56997: L2-HR :0.64912: (Sim:1h27m16s) 
CPU  3 inst:   92000000 cyc:  165502330 now IPC :1.44720: AVG IPC :0.54704: L2-Pf-HR :0.60681: L2-HR :0.66630: (Sim:1h27m27s) 
CPU  0 inst:   92000000 cyc:  165842831 now IPC :1.42150: AVG IPC :0.54591: L2-Pf-HR :0.58447: L2-HR :0.65623: (Sim:1h27m51s) 
CPU  2 inst:   93000003 cyc:  166125183 now IPC :1.14469: AVG IPC :0.55103: L2-Pf-HR :0.59001: L2-HR :0.65991: (Sim:1h28m11s) 
CPU  1 inst:   93000003 cyc:  166267499 now IPC :1.04884: AVG IPC :0.55056: L2-Pf-HR :0.57256: L2-HR :0.65020: (Sim:1h28m20s) 
CPU  3 inst:   93000001 cyc:  166357006 now IPC :1.17004: AVG IPC :0.55026: L2-Pf-HR :0.60877: L2-HR :0.66738: (Sim:1h28m27s) 
CPU  0 inst:   93000001 cyc:  166815414 now IPC :1.02819: AVG IPC :0.54874: L2-Pf-HR :0.58640: L2-HR :0.65705: (Sim:1h28m59s) 
CPU  2 inst:   94000004 cyc:  166921400 now IPC :1.25594: AVG IPC :0.55442: L2-Pf-HR :0.59206: L2-HR :0.66101: (Sim:1h29m7s) 
CPU  1 inst:   94000004 cyc:  167037288 now IPC :1.29906: AVG IPC :0.55403: L2-Pf-HR :0.57500: L2-HR :0.65138: (Sim:1h29m16s) 
CPU  3 inst:   94000004 cyc:  167194114 now IPC :1.19459: AVG IPC :0.55351: L2-Pf-HR :0.61064: L2-HR :0.66848: (Sim:1h29m26s) 
CPU  0 inst:   94000004 cyc:  167523640 now IPC :1.41198: AVG IPC :0.55241: L2-Pf-HR :0.58875: L2-HR :0.65832: (Sim:1h29m50s) 
CPU  2 inst:   95000002 cyc:  167767952 now IPC :1.18126: AVG IPC :0.55760: L2-Pf-HR :0.59452: L2-HR :0.66240: (Sim:1h30m2s) 
CPU  1 inst:   95000002 cyc:  167901778 now IPC :1.15675: AVG IPC :0.55715: L2-Pf-HR :0.57778: L2-HR :0.65285: (Sim:1h30m13s) 
CPU  3 inst:   95000004 cyc:  167942773 now IPC :1.33572: AVG IPC :0.55701: L2-Pf-HR :0.61273: L2-HR :0.66967: (Sim:1h30m15s) 
CPU  0 inst:   95000004 cyc:  168340220 now IPC :1.22462: AVG IPC :0.55569: L2-Pf-HR :0.59110: L2-HR :0.65965: (Sim:1h30m41s) 
CPU  2 inst:   96000001 cyc:  168399816 now IPC :1.58262: AVG IPC :0.56147: L2-Pf-HR :0.59744: L2-HR :0.66420: (Sim:1h30m47s) 
CPU  1 inst:   96000001 cyc:  168553217 now IPC :1.53506: AVG IPC :0.56095: L2-Pf-HR :0.58104: L2-HR :0.65472: (Sim:1h31m0s) 
CPU  3 inst:   96000001 cyc:  168623116 now IPC :1.46984: AVG IPC :0.56072: L2-Pf-HR :0.61509: L2-HR :0.67103: (Sim:1h31m4s) 
CPU  0 inst:   96000001 cyc:  169068550 now IPC :1.37300: AVG IPC :0.55923: L2-Pf-HR :0.59421: L2-HR :0.66158: (Sim:1h31m35s) 
CPU  2 inst:   97000003 cyc:  169257130 now IPC :1.16644: AVG IPC :0.56455: L2-Pf-HR :0.59945: L2-HR :0.66524: (Sim:1h31m49s) 
CPU  3 inst:   97000003 cyc:  169454913 now IPC :1.20222: AVG IPC :0.56389: L2-Pf-HR :0.61662: L2-HR :0.67196: (Sim:1h32m3s) 
CPU  1 inst:   97000003 cyc:  169458984 now IPC :1.10404: AVG IPC :0.56387: L2-Pf-HR :0.58336: L2-HR :0.65588: (Sim:1h32m3s) 
CPU  0 inst:   97000003 cyc:  169849160 now IPC :1.28105: AVG IPC :0.56257: L2-Pf-HR :0.59632: L2-HR :0.66278: (Sim:1h32m32s) 
CPU  2 inst:   98000005 cyc:  169987532 now IPC :1.36911: AVG IPC :0.56803: L2-Pf-HR :0.60130: L2-HR :0.66643: (Sim:1h32m43s) 
CPU  1 inst:   98000005 cyc:  170265004 now IPC :1.24067: AVG IPC :0.56710: L2-Pf-HR :0.58554: L2-HR :0.65709: (Sim:1h33m1s) 
CPU  3 inst:   98000005 cyc:  170310418 now IPC :1.16890: AVG IPC :0.56694: L2-Pf-HR :0.61819: L2-HR :0.67301: (Sim:1h33m5s) 
CPU  0 inst:   98000002 cyc:  170630601 now IPC :1.27969: AVG IPC :0.56587: L2-Pf-HR :0.59830: L2-HR :0.66390: (Sim:1h33m29s) 
CPU  2 inst:   99000002 cyc:  170823496 now IPC :1.19622: AVG IPC :0.57112: L2-Pf-HR :0.60316: L2-HR :0.66767: (Sim:1h33m43s) 
CPU  1 inst:   99000002 cyc:  171012783 now IPC :1.33729: AVG IPC :0.57048: L2-Pf-HR :0.58758: L2-HR :0.65819: (Sim:1h33m58s) 
CPU  3 inst:   99000000 cyc:  171100455 now IPC :1.26576: AVG IPC :0.57019: L2-Pf-HR :0.61981: L2-HR :0.67405: (Sim:1h34m5s) 
CPU  0 inst:   99000002 cyc:  171389729 now IPC :1.31730: AVG IPC :0.56922: L2-Pf-HR :0.60025: L2-HR :0.66507: (Sim:1h34m29s) 
CPU  2 inst:  100000001 cyc:  171514482 now IPC :1.44721: AVG IPC :0.57467: L2-Pf-HR :0.60578: L2-HR :0.66936: (Sim:1h34m39s) 
CPU  1 inst:  100000001 cyc:  171676911 now IPC :1.50573: AVG IPC :0.57412: L2-Pf-HR :0.59058: L2-HR :0.65984: (Sim:1h34m53s) 
CPU  3 inst:  100000001 cyc:  171789626 now IPC :1.45102: AVG IPC :0.57374: L2-Pf-HR :0.62208: L2-HR :0.67553: (Sim:1h35m2s) 
CPU  0 inst:  100000001 cyc:  172075882 now IPC :1.45740: AVG IPC :0.57278: L2-Pf-HR :0.60298: L2-HR :0.66663: (Sim:1h35m22s) 
CPU  2 inst:  101000003 cyc:  172249944 now IPC :1.35969: AVG IPC :0.57804: L2-Pf-HR :0.60783: L2-HR :0.67057: (Sim:1h35m33s) 
CPU  1 inst:  101000003 cyc:  172440264 now IPC :1.31001: AVG IPC :0.57740: L2-Pf-HR :0.59285: L2-HR :0.66100: (Sim:1h35m46s) 
CPU  3 inst:  101000003 cyc:  172511869 now IPC :1.38458: AVG IPC :0.57716: L2-Pf-HR :0.62379: L2-HR :0.67660: (Sim:1h35m51s) 
CPU  0 inst:  101000003 cyc:  172812986 now IPC :1.35666: AVG IPC :0.57614: L2-Pf-HR :0.60493: L2-HR :0.66773: (Sim:1h36m11s) 
CPU  2 inst:  102000004 cyc:  172974290 now IPC :1.38056: AVG IPC :0.58142: L2-Pf-HR :0.60957: L2-HR :0.67154: (Sim:1h36m23s) 
CPU  1 inst:  102000004 cyc:  173114430 now IPC :1.48332: AVG IPC :0.58095: L2-Pf-HR :0.59512: L2-HR :0.66226: (Sim:1h36m34s) 
CPU  3 inst:  102000004 cyc:  173135862 now IPC :1.60258: AVG IPC :0.58087: L2-Pf-HR :0.62555: L2-HR :0.67776: (Sim:1h36m36s) 
CPU  0 inst:  102000004 cyc:  173477421 now IPC :1.50504: AVG IPC :0.57972: L2-Pf-HR :0.60674: L2-HR :0.66869: (Sim:1h37m3s) 
CPU  2 inst:  103000004 cyc:  173718703 now IPC :1.34334: AVG IPC :0.58470: L2-Pf-HR :0.61116: L2-HR :0.67238: (Sim:1h37m17s) 
CPU  1 inst:  103000004 cyc:  173872181 now IPC :1.31969: AVG IPC :0.58418: L2-Pf-HR :0.59696: L2-HR :0.66334: (Sim:1h37m25s) 
CPU  3 inst:  103000004 cyc:  173899800 now IPC :1.30901: AVG IPC :0.58409: L2-Pf-HR :0.62685: L2-HR :0.67856: (Sim:1h37m27s) 
CPU  0 inst:  103000004 cyc:  174170096 now IPC :1.44368: AVG IPC :0.58317: L2-Pf-HR :0.60827: L2-HR :0.66954: (Sim:1h37m43s) 
CPU  2 inst:  104000005 cyc:  174265991 now IPC :1.82719: AVG IPC :0.58863: L2-Pf-HR :0.61362: L2-HR :0.67383: (Sim:1h37m49s) 
CPU  1 inst:  104000005 cyc:  174417674 now IPC :1.83321: AVG IPC :0.58811: L2-Pf-HR :0.59994: L2-HR :0.66515: (Sim:1h37m58s) 
CPU  3 inst:  104000005 cyc:  174433710 now IPC :1.87298: AVG IPC :0.58806: L2-Pf-HR :0.62916: L2-HR :0.68007: (Sim:1h37m59s) 
CPU  0 inst:  104000005 cyc:  174721612 now IPC :1.81319: AVG IPC :0.58708: L2-Pf-HR :0.61066: L2-HR :0.67096: (Sim:1h38m16s) 
CPU  2 inst:  105000001 cyc:  174904348 now IPC :1.56652: AVG IPC :0.59221: L2-Pf-HR :0.61559: L2-HR :0.67493: (Sim:1h38m25s) 
CPU  1 inst:  105000001 cyc:  175079456 now IPC :1.51107: AVG IPC :0.59162: L2-Pf-HR :0.60213: L2-HR :0.66633: (Sim:1h38m34s) 
CPU  3 inst:  105000001 cyc:  175098936 now IPC :1.50324: AVG IPC :0.59155: L2-Pf-HR :0.63096: L2-HR :0.68119: (Sim:1h38m36s) 
CPU  0 inst:  105000001 cyc:  175381569 now IPC :1.51524: AVG IPC :0.59059: L2-Pf-HR :0.61272: L2-HR :0.67209: (Sim:1h38m51s) 
CPU  2 inst:  106000003 cyc:  175506938 now IPC :1.65951: AVG IPC :0.59590: L2-Pf-HR :0.61700: L2-HR :0.67578: (Sim:1h38m58s) 
CPU  1 inst:  106000003 cyc:  175679215 now IPC :1.66734: AVG IPC :0.59531: L2-Pf-HR :0.60383: L2-HR :0.66750: (Sim:1h39m8s) 
CPU  3 inst:  106000001 cyc:  175708596 now IPC :1.64026: AVG IPC :0.59521: L2-Pf-HR :0.63243: L2-HR :0.68242: (Sim:1h39m10s) 
CPU  0 inst:  106000001 cyc:  175976622 now IPC :1.68052: AVG IPC :0.59430: L2-Pf-HR :0.61403: L2-HR :0.67298: (Sim:1h39m24s) 
CPU  2 inst:  107000000 cyc:  176209142 now IPC :1.42408: AVG IPC :0.59922: L2-Pf-HR :0.61840: L2-HR :0.67651: (Sim:1h39m35s) 
CPU  1 inst:  107000000 cyc:  176338360 now IPC :1.51711: AVG IPC :0.59878: L2-Pf-HR :0.60546: L2-HR :0.66849: (Sim:1h39m43s) 
CPU  3 inst:  107000003 cyc:  176375688 now IPC :1.49905: AVG IPC :0.59865: L2-Pf-HR :0.63363: L2-HR :0.68339: (Sim:1h39m45s) 
CPU  0 inst:  107000000 cyc:  176626175 now IPC :1.53952: AVG IPC :0.59779: L2-Pf-HR :0.61547: L2-HR :0.67364: (Sim:1h39m59s) 
CPU  2 inst:  108000004 cyc:  176755887 now IPC :1.82901: AVG IPC :0.60304: L2-Pf-HR :0.62063: L2-HR :0.67797: (Sim:1h40m7s) 
CPU  1 inst:  108000004 cyc:  176881583 now IPC :1.84087: AVG IPC :0.60262: L2-Pf-HR :0.60792: L2-HR :0.66999: (Sim:1h40m15s) 
CPU  3 inst:  108000004 cyc:  176916359 now IPC :1.84956: AVG IPC :0.60249: L2-Pf-HR :0.63559: L2-HR :0.68472: (Sim:1h40m17s) 
CPU  0 inst:  108000004 cyc:  177173960 now IPC :1.82554: AVG IPC :0.60161: L2-Pf-HR :0.61765: L2-HR :0.67509: (Sim:1h40m33s) 
CPU  2 inst:  109000003 cyc:  177355182 now IPC :1.66863: AVG IPC :0.60666: L2-Pf-HR :0.62256: L2-HR :0.67913: (Sim:1h40m43s) 
CPU  1 inst:  109000003 cyc:  177547049 now IPC :1.50270: AVG IPC :0.60601: L2-Pf-HR :0.61018: L2-HR :0.67133: (Sim:1h40m52s) 
CPU  3 inst:  109000003 cyc:  177550700 now IPC :1.57644: AVG IPC :0.60599: L2-Pf-HR :0.63720: L2-HR :0.68570: (Sim:1h40m52s) 
CPU  0 inst:  109000003 cyc:  177799971 now IPC :1.59741: AVG IPC :0.60514: L2-Pf-HR :0.61971: L2-HR :0.67620: (Sim:1h41m5s) 
CPU  2 inst:  110000001 cyc:  177995722 now IPC :1.56118: AVG IPC :0.61012: L2-Pf-HR :0.62368: L2-HR :0.67975: (Sim:1h41m15s) 
CPU  1 inst:  110000001 cyc:  178205524 now IPC :1.51866: AVG IPC :0.60940: L2-Pf-HR :0.61154: L2-HR :0.67208: (Sim:1h41m26s) 
CPU  3 inst:  110000001 cyc:  178221131 now IPC :1.49157: AVG IPC :0.60934: L2-Pf-HR :0.63824: L2-HR :0.68641: (Sim:1h41m26s) 
CPU  0 inst:  110000001 cyc:  178503120 now IPC :1.42217: AVG IPC :0.60837: L2-Pf-HR :0.62088: L2-HR :0.67678: (Sim:1h41m40s) 
CPU  2 inst:  111000000 cyc:  178678124 now IPC :1.46541: AVG IPC :0.61340: L2-Pf-HR :0.62490: L2-HR :0.68042: (Sim:1h41m50s) 
CPU  1 inst:  111000000 cyc:  178884035 now IPC :1.47381: AVG IPC :0.61270: L2-Pf-HR :0.61288: L2-HR :0.67295: (Sim:1h42m0s) 
CPU  3 inst:  111000000 cyc:  178905639 now IPC :1.46090: AVG IPC :0.61262: L2-Pf-HR :0.63912: L2-HR :0.68694: (Sim:1h42m2s) 
CPU  0 inst:  111000000 cyc:  179149698 now IPC :1.54660: AVG IPC :0.61178: L2-Pf-HR :0.62230: L2-HR :0.67755: (Sim:1h42m16s) 
CPU  2 inst:  112000004 cyc:  179268469 now IPC :1.69393: AVG IPC :0.61698: L2-Pf-HR :0.62705: L2-HR :0.68175: (Sim:1h42m23s) 
CPU  1 inst:  112000004 cyc:  179442158 now IPC :1.79173: AVG IPC :0.61638: L2-Pf-HR :0.61509: L2-HR :0.67423: (Sim:1h42m36s) 
CPU  3 inst:  112000004 cyc:  179490246 now IPC :1.71056: AVG IPC :0.61622: L2-Pf-HR :0.64084: L2-HR :0.68799: (Sim:1h42m41s) 
CPU  0 inst:  112000004 cyc:  179724002 now IPC :1.74125: AVG IPC :0.61541: L2-Pf-HR :0.62444: L2-HR :0.67892: (Sim:1h42m55s) 
CPU  2 inst:  113000000 cyc:  179856826 now IPC :1.69964: AVG IPC :0.62054: L2-Pf-HR :0.62888: L2-HR :0.68297: (Sim:1h43m3s) 
CPU  1 inst:  113000000 cyc:  180011889 now IPC :1.75521: AVG IPC :0.62001: L2-Pf-HR :0.61706: L2-HR :0.67544: (Sim:1h43m11s) 
CPU  3 inst:  113000000 cyc:  180073940 now IPC :1.71322: AVG IPC :0.61979: L2-Pf-HR :0.64226: L2-HR :0.68898: (Sim:1h43m14s) 
CPU  0 inst:  113000000 cyc:  180320899 now IPC :1.67532: AVG IPC :0.61893: L2-Pf-HR :0.62643: L2-HR :0.68019: (Sim:1h43m29s) 
CPU  2 inst:  114000003 cyc:  180497562 now IPC :1.56071: AVG IPC :0.62390: L2-Pf-HR :0.62979: L2-HR :0.68343: (Sim:1h43m38s) 
CPU  1 inst:  114000000 cyc:  180647519 now IPC :1.57324: AVG IPC :0.62338: L2-Pf-HR :0.61813: L2-HR :0.67600: (Sim:1h43m46s) 
CPU  3 inst:  114000000 cyc:  180676307 now IPC :1.66012: AVG IPC :0.62328: L2-Pf-HR :0.64333: L2-HR :0.68973: (Sim:1h43m48s) 
CPU  0 inst:  114000003 cyc:  180996652 now IPC :1.47984: AVG IPC :0.62217: L2-Pf-HR :0.62741: L2-HR :0.68072: (Sim:1h44m6s) 
CPU  2 inst:  115000000 cyc:  181105320 now IPC :1.64539: AVG IPC :0.62734: L2-Pf-HR :0.63109: L2-HR :0.68422: (Sim:1h44m12s) 
CPU  1 inst:  115000000 cyc:  181273094 now IPC :1.59853: AVG IPC :0.62676: L2-Pf-HR :0.61962: L2-HR :0.67682: (Sim:1h44m21s) 
CPU  3 inst:  115000000 cyc:  181286594 now IPC :1.63857: AVG IPC :0.62671: L2-Pf-HR :0.64460: L2-HR :0.69056: (Sim:1h44m22s) 
CPU  0 inst:  115000000 cyc:  181605329 now IPC :1.64290: AVG IPC :0.62561: L2-Pf-HR :0.62876: L2-HR :0.68161: (Sim:1h44m39s) 
CPU  2 inst:  116000002 cyc:  181694686 now IPC :1.69674: AVG IPC :0.63083: L2-Pf-HR :0.63277: L2-HR :0.68532: (Sim:1h44m44s) 
CPU  1 inst:  116000002 cyc:  181885354 now IPC :1.63330: AVG IPC :0.63017: L2-Pf-HR :0.62128: L2-HR :0.67778: (Sim:1h44m55s) 
CPU  3 inst:  116000000 cyc:  181908526 now IPC :1.60789: AVG IPC :0.63009: L2-Pf-HR :0.64622: L2-HR :0.69166: (Sim:1h44m57s) 
CPU  0 inst:  116000002 cyc:  182191179 now IPC :1.70693: AVG IPC :0.62910: L2-Pf-HR :0.63043: L2-HR :0.68261: (Sim:1h45m14s) 
CPU  2 inst:  117000003 cyc:  182254195 now IPC :1.78728: AVG IPC :0.63440: L2-Pf-HR :0.63471: L2-HR :0.68664: (Sim:1h45m18s) 
CPU  1 inst:  117000003 cyc:  182454164 now IPC :1.75806: AVG IPC :0.63370: L2-Pf-HR :0.62328: L2-HR :0.67903: (Sim:1h45m31s) 
CPU  3 inst:  117000003 cyc:  182470204 now IPC :1.78038: AVG IPC :0.63365: L2-Pf-HR :0.64795: L2-HR :0.69279: (Sim:1h45m31s) 
CPU  0 inst:  117000003 cyc:  182741933 now IPC :1.81569: AVG IPC :0.63270: L2-Pf-HR :0.63234: L2-HR :0.68389: (Sim:1h45m47s) 
CPU  2 inst:  118000005 cyc:  182939487 now IPC :1.45923: AVG IPC :0.63751: L2-Pf-HR :0.63554: L2-HR :0.68707: (Sim:1h45m56s) 
CPU  1 inst:  118000005 cyc:  183135159 now IPC :1.46844: AVG IPC :0.63683: L2-Pf-HR :0.62419: L2-HR :0.67952: (Sim:1h46m7s) 
CPU  3 inst:  118000005 cyc:  183174877 now IPC :1.41910: AVG IPC :0.63669: L2-Pf-HR :0.64856: L2-HR :0.69312: (Sim:1h46m9s) 
CPU  0 inst:  118000005 cyc:  183434594 now IPC :1.44371: AVG IPC :0.63578: L2-Pf-HR :0.63320: L2-HR :0.68439: (Sim:1h46m24s) 
CPU  2 inst:  119000004 cyc:  183564616 now IPC :1.59967: AVG IPC :0.64080: L2-Pf-HR :0.63678: L2-HR :0.68792: (Sim:1h46m31s) 
CPU  1 inst:  119000004 cyc:  183720338 now IPC :1.70888: AVG IPC :0.64026: L2-Pf-HR :0.62558: L2-HR :0.68037: (Sim:1h46m39s) 
CPU  3 inst:  119000004 cyc:  183839975 now IPC :1.50354: AVG IPC :0.63984: L2-Pf-HR :0.64957: L2-HR :0.69375: (Sim:1h46m45s) 
CPU  0 inst:  119000004 cyc:  184113679 now IPC :1.47257: AVG IPC :0.63888: L2-Pf-HR :0.63449: L2-HR :0.68518: (Sim:1h46m58s) 
CPU  2 inst:  120000004 cyc:  184243082 now IPC :1.47391: AVG IPC :0.64389: L2-Pf-HR :0.63839: L2-HR :0.68896: (Sim:1h47m5s) 
CPU  1 inst:  120000004 cyc:  184410760 now IPC :1.44839: AVG IPC :0.64330: L2-Pf-HR :0.62727: L2-HR :0.68135: (Sim:1h47m14s) 
CPU  3 inst:  120000004 cyc:  184515283 now IPC :1.48081: AVG IPC :0.64293: L2-Pf-HR :0.65089: L2-HR :0.69464: (Sim:1h47m20s) 
CPU  0 inst:  120000004 cyc:  184760853 now IPC :1.54518: AVG IPC :0.64207: L2-Pf-HR :0.63603: L2-HR :0.68617: (Sim:1h47m34s) 
CPU  2 inst:  121000003 cyc:  184785868 now IPC :1.84234: AVG IPC :0.64743: L2-Pf-HR :0.64016: L2-HR :0.69015: (Sim:1h47m36s) 
CPU  1 inst:  121000003 cyc:  184988179 now IPC :1.73184: AVG IPC :0.64672: L2-Pf-HR :0.62915: L2-HR :0.68257: (Sim:1h47m47s) 
CPU  3 inst:  121000003 cyc:  185056605 now IPC :1.84733: AVG IPC :0.64647: L2-Pf-HR :0.65241: L2-HR :0.69568: (Sim:1h47m51s) 
CPU  0 inst:  121000001 cyc:  185331799 now IPC :1.75147: AVG IPC :0.64551: L2-Pf-HR :0.63780: L2-HR :0.68730: (Sim:1h48m6s) 
CPU  2 inst:  122000003 cyc:  185423183 now IPC :1.56908: AVG IPC :0.65061: L2-Pf-HR :0.64104: L2-HR :0.69061: (Sim:1h48m11s) 
Finished CPU 2 instr: 120000003 cyc: 184441781 AVG IPC: 0.65061 (Sim time: 1h48m11s)
CPU  1 inst:  122000003 cyc:  185624875 now IPC :1.57061: AVG IPC :0.64990: L2-Pf-HR :0.63020: L2-HR :0.68318: (Sim:1h48m22s) 
Finished CPU 1 instr: 120000000 cyc: 184643187 AVG IPC: 0.64990 (Sim time: 1h48m22s)
CPU  3 inst:  122000003 cyc:  185680557 now IPC :1.60269: AVG IPC :0.64970: L2-Pf-HR :0.65316: L2-HR :0.69616: (Sim:1h48m25s) 
Finished CPU 3 instr: 120000001 cyc: 184699124 AVG IPC: 0.64971 (Sim time: 1h48m25s)
CPU  0 inst:  122000003 cyc:  185947266 now IPC :1.62479: AVG IPC :0.64876: L2-Pf-HR :0.63875: L2-HR :0.68796: (Sim:1h48m41s) 
Finished CPU 0 instr: 120000001 cyc: 184966164 AVG IPC: 0.64877 (Sim time: 1h48m41s)

ChampSim completed all CPUs

Total Simulation Statistics (not including warmup)

CPU 0 cumulative IPC: 0.64877 instructions: 120000001 cycles: 184966164
Core_0_L1D_total_access 39924670
Core_0_L1D_total_hit 37628699
Core_0_L1D_total_miss 2295971
Core_0_L1D_loads 34613788
Core_0_L1D_load_hit 33737709
Core_0_L1D_load_miss 876079
Core_0_L1D_RFOs 3298935
Core_0_L1D_RFO_hit 3192388
Core_0_L1D_RFO_miss 106547
Core_0_L1D_prefetches 2011947
Core_0_L1D_prefetch_hit 698602
Core_0_L1D_prefetch_miss 1313345
Core_0_L1D_writebacks 0
Core_0_L1D_writeback_hit 0
Core_0_L1D_writeback_miss 0

Core_0_L1I_total_access 18432857
Core_0_L1I_total_hit 18430753
Core_0_L1I_total_miss 2104
Core_0_L1I_loads 18432857
Core_0_L1I_load_hit 18430753
Core_0_L1I_load_miss 2104
Core_0_L1I_RFOs 0
Core_0_L1I_RFO_hit 0
Core_0_L1I_RFO_miss 0
Core_0_L1I_prefetches 0
Core_0_L1I_prefetch_hit 0
Core_0_L1I_prefetch_miss 0
Core_0_L1I_writebacks 0
Core_0_L1I_writeback_hit 0
Core_0_L1I_writeback_miss 0

Core_0_L2C_total_access 3394620
Core_0_L2C_total_hit 2335349
Core_0_L2C_total_miss 1059271
Core_0_L2C_loads 733912
Core_0_L2C_load_hit 434521
Core_0_L2C_load_miss 299391
Core_0_L2C_RFOs 106466
Core_0_L2C_RFO_hit 765
Core_0_L2C_RFO_miss 105701
Core_0_L2C_prefetches 1810856
Core_0_L2C_prefetch_hit 1156682
Core_0_L2C_prefetch_miss 654174
Core_0_L2C_writebacks 743386
Core_0_L2C_writeback_hit 743381
Core_0_L2C_writeback_miss 5

[Bingo] PHT Access: 285443
[Bingo] PHT Hit PC+Addr: 87946
[Bingo] PHT Hit PC+Offs: 163933
[Bingo] PHT Miss: 33564
[Bingo] Prefetch PC+Addr: 0
[Bingo] Prefetch PC+Offs: 0
[Bingo] Useful PC+Addr: 0
[Bingo] Useful PC+Offs: 0
[Bingo] Useless PC+Addr: 0
[Bingo] Useless PC+Offs: 0
[Bingo] L1 Prefetch per Region: 11.17744
[Bingo] L2 Prefetch per Region: 0.38157
[Bingo] L3 Prefetch per Region: 0.00000
[Bingo] No Prefetch per Region: 20.44099
[Bingo] Number of Voters Mean: 12.86479
[Bingo] Number of Voters SD: 5.59738
PHT read accesses: 3991994
PHT write accesses: 272462
AT read accesses: 32779952
AT write accesses: 32780800
FT read accesses: 5014953
FT write accesses: 285443
PS read accesses: 2384404
PS write accesses: 251879
PHT tag read accesses: 11277476
PHT tag write accesses: 360408
AT tag read accesses: 717180357
AT tag write accesses: 33052410
FT tag read accesses: 200508408
FT tag write accesses: 2935388
PS tag read accesses: 566549446
PS tag write accesses: 2629647
[Bingo2] PHT Access: 141380
[Bingo2] PHT Hit PC+Addr: 2659
[Bingo2] PHT Hit PC+Offs: 109990
[Bingo2] PHT Miss: 28731
[Bingo2] Prefetch PC+Addr: 0
[Bingo2] Prefetch PC+Offs: 0
[Bingo2] Useful PC+Addr: 0
[Bingo2] Useful PC+Offs: 0
[Bingo2] Useless PC+Addr: 0
[Bingo2] Useless PC+Offs: 0
[Bingo2] L1 Prefetch per Region: 0.00000
[Bingo2] L2 Prefetch per Region: 8.99490
[Bingo2] L3 Prefetch per Region: 0.00000
[Bingo2] No Prefetch per Region: 23.00510
[Bingo2] Number of Voters Mean: 11.96176
[Bingo2] Number of Voters SD: 5.36073
PHT read accesses: 2238036
PHT write accesses: 91717
AT read accesses: 588855
AT write accesses: 680431
FT read accesses: 282888
FT write accesses: 141380
PS read accesses: 275009
PS write accesses: 112649
PHT tag read accesses: 5152503
PHT tag write accesses: 94376
AT tag read accesses: 80953602
AT tag write accesses: 680572
FT tag read accesses: 73834158
FT tag write accesses: 328732
PS tag read accesses: 15686668
PS tag write accesses: 381166
Core_0_LLC_total_access 1669998
Core_0_LLC_total_hit 597409
Core_0_LLC_total_miss 1072589
Core_0_LLC_loads 181191
Core_0_LLC_load_hit 235
Core_0_LLC_load_miss 180956
Core_0_LLC_RFOs 105701
Core_0_LLC_RFO_hit 1
Core_0_LLC_RFO_miss 105700
Core_0_LLC_prefetches 772374
Core_0_LLC_prefetch_hit 1369
Core_0_LLC_prefetch_miss 771005
Core_0_LLC_writebacks 610732
Core_0_LLC_writeback_hit 595804
Core_0_LLC_writeback_miss 14928


CPU 1 cumulative IPC: 0.65165 instructions: 120534074 cycles: 184966164
Core_1_L1D_total_access 40131895
Core_1_L1D_total_hit 37861164
Core_1_L1D_total_miss 2270731
Core_1_L1D_loads 34798663
Core_1_L1D_load_hit 33925625
Core_1_L1D_load_miss 873038
Core_1_L1D_RFOs 3300113
Core_1_L1D_RFO_hit 3193629
Core_1_L1D_RFO_miss 106484
Core_1_L1D_prefetches 2033119
Core_1_L1D_prefetch_hit 741910
Core_1_L1D_prefetch_miss 1291209
Core_1_L1D_writebacks 0
Core_1_L1D_writeback_hit 0
Core_1_L1D_writeback_miss 0

Core_1_L1I_total_access 18488985
Core_1_L1I_total_hit 18487023
Core_1_L1I_total_miss 1962
Core_1_L1I_loads 18488985
Core_1_L1I_load_hit 18487023
Core_1_L1I_load_miss 1962
Core_1_L1I_RFOs 0
Core_1_L1I_RFO_hit 0
Core_1_L1I_RFO_miss 0
Core_1_L1I_prefetches 0
Core_1_L1I_prefetch_hit 0
Core_1_L1I_prefetch_miss 0
Core_1_L1I_writebacks 0
Core_1_L1I_writeback_hit 0
Core_1_L1I_writeback_miss 0

Core_1_L2C_total_access 3356032
Core_1_L2C_total_hit 2294321
Core_1_L2C_total_miss 1061711
Core_1_L2C_loads 731337
Core_1_L2C_load_hit 430756
Core_1_L2C_load_miss 300581
Core_1_L2C_RFOs 106409
Core_1_L2C_RFO_hit 690
Core_1_L2C_RFO_miss 105719
Core_1_L2C_prefetches 1775627
Core_1_L2C_prefetch_hit 1120221
Core_1_L2C_prefetch_miss 655406
Core_1_L2C_writebacks 742659
Core_1_L2C_writeback_hit 742654
Core_1_L2C_writeback_miss 5

[Bingo] PHT Access: 294426
[Bingo] PHT Hit PC+Addr: 91411
[Bingo] PHT Hit PC+Offs: 167985
[Bingo] PHT Miss: 35030
[Bingo] Prefetch PC+Addr: 0
[Bingo] Prefetch PC+Offs: 0
[Bingo] Useful PC+Addr: 0
[Bingo] Useful PC+Offs: 0
[Bingo] Useless PC+Addr: 0
[Bingo] Useless PC+Offs: 0
[Bingo] L1 Prefetch per Region: 11.10302
[Bingo] L2 Prefetch per Region: 0.36033
[Bingo] L3 Prefetch per Region: 0.00000
[Bingo] No Prefetch per Region: 20.53665
[Bingo] Number of Voters Mean: 13.03001
[Bingo] Number of Voters SD: 4.83830
PHT read accesses: 4092737
PHT write accesses: 281543
AT read accesses: 33651476
AT write accesses: 33652311
FT read accesses: 5067828
FT write accesses: 294426
PS read accesses: 2431420
PS write accesses: 259396
PHT tag read accesses: 11626932
PHT tag write accesses: 372954
AT tag read accesses: 733676785
AT tag write accesses: 33933080
FT tag read accesses: 203323620
FT tag write accesses: 2975215
PS tag read accesses: 580918771
PS tag write accesses: 2684488
[Bingo2] PHT Access: 146501
[Bingo2] PHT Hit PC+Addr: 1944
[Bingo2] PHT Hit PC+Offs: 110218
[Bingo2] PHT Miss: 34339
[Bingo2] Prefetch PC+Addr: 0
[Bingo2] Prefetch PC+Offs: 0
[Bingo2] Useful PC+Addr: 0
[Bingo2] Useful PC+Offs: 0
[Bingo2] Useless PC+Addr: 0
[Bingo2] Useless PC+Offs: 0
[Bingo2] L1 Prefetch per Region: 0.00000
[Bingo2] L2 Prefetch per Region: 8.71587
[Bingo2] L3 Prefetch per Region: 0.00000
[Bingo2] No Prefetch per Region: 23.28413
[Bingo2] Number of Voters Mean: 11.99507
[Bingo2] Number of Voters SD: 5.34307
PHT read accesses: 2281574
PHT write accesses: 93096
AT read accesses: 594713
AT write accesses: 687796
FT read accesses: 287520
FT write accesses: 146501
PS read accesses: 272236
PS write accesses: 112162
PHT tag read accesses: 5276791
PHT tag write accesses: 95040
AT tag read accesses: 81201560
AT tag write accesses: 687937
FT tag read accesses: 74116023
FT tag write accesses: 336922
PS tag read accesses: 15879927
PS tag write accesses: 378770
Core_1_LLC_total_access 1672269
Core_1_LLC_total_hit 600408
Core_1_LLC_total_miss 1071861
Core_1_LLC_loads 182545
Core_1_LLC_load_hit 208
Core_1_LLC_load_miss 182337
Core_1_LLC_RFOs 105719
Core_1_LLC_RFO_hit 1
Core_1_LLC_RFO_miss 105718
Core_1_LLC_prefetches 773442
Core_1_LLC_prefetch_hit 1251
Core_1_LLC_prefetch_miss 772191
Core_1_LLC_writebacks 610563
Core_1_LLC_writeback_hit 598948
Core_1_LLC_writeback_miss 11615


CPU 2 cumulative IPC: 0.65363 instructions: 120900250 cycles: 184966165
Core_2_L1D_total_access 40266727
Core_2_L1D_total_hit 37928469
Core_2_L1D_total_miss 2338258
Core_2_L1D_loads 34915557
Core_2_L1D_load_hit 34026628
Core_2_L1D_load_miss 888929
Core_2_L1D_RFOs 3300899
Core_2_L1D_RFO_hit 3194288
Core_2_L1D_RFO_miss 106611
Core_2_L1D_prefetches 2050271
Core_2_L1D_prefetch_hit 707553
Core_2_L1D_prefetch_miss 1342718
Core_2_L1D_writebacks 0
Core_2_L1D_writeback_hit 0
Core_2_L1D_writeback_miss 0

Core_2_L1I_total_access 18521765
Core_2_L1I_total_hit 18519679
Core_2_L1I_total_miss 2086
Core_2_L1I_loads 18521765
Core_2_L1I_load_hit 18519679
Core_2_L1I_load_miss 2086
Core_2_L1I_RFOs 0
Core_2_L1I_RFO_hit 0
Core_2_L1I_RFO_miss 0
Core_2_L1I_prefetches 0
Core_2_L1I_prefetch_hit 0
Core_2_L1I_prefetch_miss 0
Core_2_L1I_writebacks 0
Core_2_L1I_writeback_hit 0
Core_2_L1I_writeback_miss 0

Core_2_L2C_total_access 3444944
Core_2_L2C_total_hit 2381575
Core_2_L2C_total_miss 1063369
Core_2_L2C_loads 746049
Core_2_L2C_load_hit 449889
Core_2_L2C_load_miss 296160
Core_2_L2C_RFOs 106530
Core_2_L2C_RFO_hit 794
Core_2_L2C_RFO_miss 105736
Core_2_L2C_prefetches 1847990
Core_2_L2C_prefetch_hit 1186522
Core_2_L2C_prefetch_miss 661468
Core_2_L2C_writebacks 744375
Core_2_L2C_writeback_hit 744370
Core_2_L2C_writeback_miss 5

[Bingo] PHT Access: 296643
[Bingo] PHT Hit PC+Addr: 92280
[Bingo] PHT Hit PC+Offs: 169926
[Bingo] PHT Miss: 34437
[Bingo] Prefetch PC+Addr: 0
[Bingo] Prefetch PC+Offs: 0
[Bingo] Useful PC+Addr: 0
[Bingo] Useful PC+Offs: 0
[Bingo] Useless PC+Addr: 0
[Bingo] Useless PC+Offs: 0
[Bingo] L1 Prefetch per Region: 11.09329
[Bingo] L2 Prefetch per Region: 0.38527
[Bingo] L3 Prefetch per Region: 0.00000
[Bingo] No Prefetch per Region: 20.52144
[Bingo] Number of Voters Mean: 12.88181
[Bingo] Number of Voters SD: 4.94570
PHT read accesses: 4122777
PHT write accesses: 283013
AT read accesses: 33761058
AT write accesses: 33762095
FT read accesses: 5084016
FT write accesses: 296643
PS read accesses: 2454049
PS write accesses: 262206
PHT tag read accesses: 11688524
PHT tag write accesses: 375293
AT tag read accesses: 735598143
AT tag write accesses: 34044131
FT tag read accesses: 203523540
FT tag write accesses: 2986604
PS tag read accesses: 582854732
PS tag write accesses: 2709202
[Bingo2] PHT Access: 147460
[Bingo2] PHT Hit PC+Addr: 3491
[Bingo2] PHT Hit PC+Offs: 111118
[Bingo2] PHT Miss: 32851
[Bingo2] Prefetch PC+Addr: 0
[Bingo2] Prefetch PC+Offs: 0
[Bingo2] Useful PC+Addr: 0
[Bingo2] Useful PC+Offs: 0
[Bingo2] Useless PC+Addr: 0
[Bingo2] Useless PC+Offs: 0
[Bingo2] L1 Prefetch per Region: 0.00000
[Bingo2] L2 Prefetch per Region: 8.80493
[Bingo2] L3 Prefetch per Region: 0.00000
[Bingo2] No Prefetch per Region: 23.19507
[Bingo2] Number of Voters Mean: 12.01974
[Bingo2] Number of Voters SD: 5.27755
PHT read accesses: 2286701
PHT write accesses: 94814
AT read accesses: 607495
AT write accesses: 702303
FT read accesses: 296168
FT write accesses: 147460
PS read accesses: 279523
PS write accesses: 114609
PHT tag read accesses: 5329783
PHT tag write accesses: 98305
AT tag read accesses: 81532002
AT tag write accesses: 702437
FT tag read accesses: 74238657
FT tag write accesses: 343065
PS tag read accesses: 16183298
PS tag write accesses: 387270
Core_2_LLC_total_access 1674288
Core_2_LLC_total_hit 600352
Core_2_LLC_total_miss 1073936
Core_2_LLC_loads 178186
Core_2_LLC_load_hit 100
Core_2_LLC_load_miss 178086
Core_2_LLC_RFOs 105736
Core_2_LLC_RFO_hit 9
Core_2_LLC_RFO_miss 105727
Core_2_LLC_prefetches 779443
Core_2_LLC_prefetch_hit 698
Core_2_LLC_prefetch_miss 778745
Core_2_LLC_writebacks 610923
Core_2_LLC_writeback_hit 599545
Core_2_LLC_writeback_miss 11378


CPU 3 cumulative IPC: 0.65132 instructions: 120472593 cycles: 184966165
Core_3_L1D_total_access 40106931
Core_3_L1D_total_hit 37715991
Core_3_L1D_total_miss 2390940
Core_3_L1D_loads 34778301
Core_3_L1D_load_hit 33885276
Core_3_L1D_load_miss 893025
Core_3_L1D_RFOs 3299902
Core_3_L1D_RFO_hit 3193261
Core_3_L1D_RFO_miss 106641
Core_3_L1D_prefetches 2028728
Core_3_L1D_prefetch_hit 637454
Core_3_L1D_prefetch_miss 1391274
Core_3_L1D_writebacks 0
Core_3_L1D_writeback_hit 0
Core_3_L1D_writeback_miss 0

Core_3_L1I_total_access 18478499
Core_3_L1I_total_hit 18476388
Core_3_L1I_total_miss 2111
Core_3_L1I_loads 18478499
Core_3_L1I_load_hit 18476388
Core_3_L1I_load_miss 2111
Core_3_L1I_RFOs 0
Core_3_L1I_RFO_hit 0
Core_3_L1I_RFO_miss 0
Core_3_L1I_prefetches 0
Core_3_L1I_prefetch_hit 0
Core_3_L1I_prefetch_miss 0
Core_3_L1I_writebacks 0
Core_3_L1I_writeback_hit 0
Core_3_L1I_writeback_miss 0

Core_3_L2C_total_access 3498118
Core_3_L2C_total_hit 2436756
Core_3_L2C_total_miss 1061362
Core_3_L2C_loads 750052
Core_3_L2C_load_hit 451460
Core_3_L2C_load_miss 298592
Core_3_L2C_RFOs 106550
Core_3_L2C_RFO_hit 799
Core_3_L2C_RFO_miss 105751
Core_3_L2C_prefetches 1897683
Core_3_L2C_prefetch_hit 1240670
Core_3_L2C_prefetch_miss 657013
Core_3_L2C_writebacks 743833
Core_3_L2C_writeback_hit 743827
Core_3_L2C_writeback_miss 6

[Bingo] PHT Access: 296537
[Bingo] PHT Hit PC+Addr: 91879
[Bingo] PHT Hit PC+Offs: 170286
[Bingo] PHT Miss: 34372
[Bingo] Prefetch PC+Addr: 0
[Bingo] Prefetch PC+Offs: 0
[Bingo] Useful PC+Addr: 0
[Bingo] Useful PC+Offs: 0
[Bingo] Useless PC+Addr: 0
[Bingo] Useless PC+Offs: 0
[Bingo] L1 Prefetch per Region: 10.99874
[Bingo] L2 Prefetch per Region: 0.38687
[Bingo] L3 Prefetch per Region: 0.00000
[Bingo] No Prefetch per Region: 20.61439
[Bingo] Number of Voters Mean: 12.88109
[Bingo] Number of Voters SD: 4.93725
PHT read accesses: 4125864
PHT write accesses: 282554
AT read accesses: 33625125
AT write accesses: 33626607
FT read accesses: 5084822
FT write accesses: 296537
PS read accesses: 2420304
PS write accesses: 262165
PHT tag read accesses: 11686019
PHT tag write accesses: 374433
AT tag read accesses: 733450037
AT tag write accesses: 33907745
FT tag read accesses: 203528228
FT tag write accesses: 2986873
PS tag read accesses: 580699069
PS tag write accesses: 2675447
[Bingo2] PHT Access: 149955
[Bingo2] PHT Hit PC+Addr: 2845
[Bingo2] PHT Hit PC+Offs: 111432
[Bingo2] PHT Miss: 35678
[Bingo2] Prefetch PC+Addr: 0
[Bingo2] Prefetch PC+Offs: 0
[Bingo2] Useful PC+Addr: 0
[Bingo2] Useful PC+Offs: 0
[Bingo2] Useless PC+Addr: 0
[Bingo2] Useless PC+Offs: 0
[Bingo2] L1 Prefetch per Region: 0.00000
[Bingo2] L2 Prefetch per Region: 8.72870
[Bingo2] L3 Prefetch per Region: 0.00000
[Bingo2] No Prefetch per Region: 23.27130
[Bingo2] Number of Voters Mean: 11.95902
[Bingo2] Number of Voters SD: 5.30593
PHT read accesses: 2329103
PHT write accesses: 94050
AT read accesses: 610191
AT write accesses: 704231
FT read accesses: 291099
FT write accesses: 149955
PS read accesses: 278520
PS write accesses: 114277
PHT tag read accesses: 5348403
PHT tag write accesses: 96895
AT tag read accesses: 81555964
AT tag write accesses: 704369
FT tag read accesses: 74314761
FT tag write accesses: 342648
PS tag read accesses: 16235314
PS tag write accesses: 387065
Core_3_LLC_total_access 1671593
Core_3_LLC_total_hit 596895
Core_3_LLC_total_miss 1074698
Core_3_LLC_loads 180752
Core_3_LLC_load_hit 197
Core_3_LLC_load_miss 180555
Core_3_LLC_RFOs 105751
Core_3_LLC_RFO_hit 1
Core_3_LLC_RFO_miss 105750
Core_3_LLC_prefetches 774853
Core_3_LLC_prefetch_hit 1514
Core_3_LLC_prefetch_miss 773339
Core_3_LLC_writebacks 610237
Core_3_LLC_writeback_hit 595183
Core_3_LLC_writeback_miss 15054


[ROI Statistics]
Core_0_instructions 120000001
Core_0_cycles 184966164
Core_0_IPC 0.64877

Core_0_branch_prediction_accuracy 99.19469
Core_0_branch_MPKI 0.24154
Core_0_average_ROB_occupancy_at_mispredict 444.36077

Core_0_L1D_total_access 39924670
Core_0_L1D_total_hit 37628699 L1D_total_Hit Ratio: 0.94249
Core_0_L1D_total_miss 2295971
Core_0_L1D_loads 34613788
Core_0_L1D_load_hit 33737709 L1D_load_Hit Ratio: 0.97469
Core_0_L1D_load_miss 876079
Core_0_L1D_RFOs 3298935
Core_0_L1D_RFO_hit 3192388 L1D_RFO_Hit Ratio: 0.96770
Core_0_L1D_RFO_miss 106547
Core_0_L1D_prefetches 2011947
Core_0_L1D_prefetch_hit 698602 L1D_prefetch_Hit Ratio: 0.34723
Core_0_L1D_prefetch_miss 1313345
Core_0_L1D_writebacks 0
Core_0_L1D_writeback_hit 0 L1D_writeback_Hit Ratio: -nan
Core_0_L1D_writeback_miss 0
Core_0_L1D_prefetch_requested 2374222
Core_0_L1D_prefetch_issued 2374222
Core_0_L1D_prefetch_useful 1311890 L1D_Useful Ratio: 0.55256
Core_0_L1D_prefetch_useless 21362
Core_0_L1D_prefetch_late 145510
Core_0_L1D_average_miss_latency 3872822.11642

Core_0_L1I_total_access 18432857
Core_0_L1I_total_hit 18430753 L1I_total_Hit Ratio: 0.99989
Core_0_L1I_total_miss 2104
Core_0_L1I_loads 18432857
Core_0_L1I_load_hit 18430753 L1I_load_Hit Ratio: 0.99989
Core_0_L1I_load_miss 2104
Core_0_L1I_RFOs 0
Core_0_L1I_RFO_hit 0 L1I_RFO_Hit Ratio: -nan
Core_0_L1I_RFO_miss 0
Core_0_L1I_prefetches 0
Core_0_L1I_prefetch_hit 0 L1I_prefetch_Hit Ratio: -nan
Core_0_L1I_prefetch_miss 0
Core_0_L1I_writebacks 0
Core_0_L1I_writeback_hit 0 L1I_writeback_Hit Ratio: -nan
Core_0_L1I_writeback_miss 0
[...]
Core_0_L2C_prefetch_miss 654174
Core_0_L2C_writebacks 743386
Core_0_L2C_writeback_hit 743381 L2C_writeback_Hit Ratio: 0.99999
Core_0_L2C_writeback_miss 5
Core_0_L2C_prefetch_requested 665671
Core_0_L2C_prefetch_issued 665671
Core_0_L2C_prefetch_useful 129053 L2C_Useful Ratio: 0.19387
Core_0_L2C_prefetch_useless 490772
Core_0_L2C_prefetch_late 118231
Core_0_L2C_average_miss_latency 942.61624

Core_0_LLC_total_access 1669998
Core_0_LLC_total_hit 597409 LLC_total_Hit Ratio: 0.35773
Core_0_LLC_total_miss 1072589
Core_0_LLC_loads 181191
Core_0_LLC_load_hit 235 LLC_load_Hit Ratio: 0.00130
Core_0_LLC_load_miss 180956
Core_0_LLC_RFOs 105701
Core_0_LLC_RFO_hit 1 LLC_RFO_Hit Ratio: 0.00001
Core_0_LLC_RFO_miss 105700
Core_0_LLC_prefetches 772374
Core_0_LLC_prefetch_hit 1369 LLC_prefetch_Hit Ratio: 0.00177
Core_0_LLC_prefetch_miss 771005
Core_0_LLC_writebacks 610732
Core_0_LLC_writeback_hit 595804 LLC_writeback_Hit Ratio: 0.97556
Core_0_LLC_writeback_miss 14928
Core_0_LLC_prefetch_requested 0
Core_0_LLC_prefetch_issued 0
Core_0_LLC_prefetch_useful 286 LLC_Useful Ratio: inf
Core_0_LLC_prefetch_useless 2682567
Core_0_LLC_prefetch_late 0
Core_0_LLC_average_miss_latency 3468.49785

Core_0_major_page_fault 0
Core_0_minor_page_fault 8629

Core_1_instructions 120000000
Core_1_cycles 184643187
Core_1_IPC 0.64990

Core_1_branch_prediction_accuracy 99.19500
Core_1_branch_MPKI 0.24061
Core_1_average_ROB_occupancy_at_mispredict 444.15547

Core_1_L1D_total_access 39934847
Core_1_L1D_total_hit 37675832 L1D_total_Hit Ratio: 0.94343
Core_1_L1D_total_miss 2259015
Core_1_L1D_loads 34614744
Core_1_L1D_load_hit 33745480 L1D_load_Hit Ratio: 0.97489
Core_1_L1D_load_miss 869264
Core_1_L1D_RFOs 3298852
Core_1_L1D_RFO_hit 3192368 L1D_RFO_Hit Ratio: 0.96772
Core_1_L1D_RFO_miss 106484
Core_1_L1D_prefetches 2021251
Core_1_L1D_prefetch_hit 737984 L1D_prefetch_Hit Ratio: 0.36511
Core_1_L1D_prefetch_miss 1283267
Core_1_L1D_writebacks 0
Core_1_L1D_writeback_hit 0 L1D_writeback_Hit Ratio: -nan
Core_1_L1D_writeback_miss 0
Core_1_L1D_prefetch_requested 2396318
Core_1_L1D_prefetch_issued 2396318
Core_1_L1D_prefetch_useful 1286294 L1D_Useful Ratio: 0.53678
Core_1_L1D_prefetch_useless 24047
Core_1_L1D_prefetch_late 144845
Core_1_L1D_average_miss_latency 3887450.57194

Core_1_L1I_total_access 18435178
Core_1_L1I_total_hit 18433216 L1I_total_Hit Ratio: 0.99989
Core_1_L1I_total_miss 1962
Core_1_L1I_loads 18435178
Core_1_L1I_load_hit 18433216 L1I_load_Hit Ratio: 0.99989
Core_1_L1I_load_miss 1962
Core_1_L1I_RFOs 0
Core_1_L1I_RFO_hit 0 L1I_RFO_Hit Ratio: -nan
Core_1_L1I_RFO_miss 0
Core_1_L1I_prefetches 0
Core_1_L1I_prefetch_hit 0 L1I_prefetch_Hit Ratio: -nan
Core_1_L1I_prefetch_miss 0
Core_1_L1I_writebacks 0
Core_1_L1I_writeback_hit 0 L1I_writeback_Hit Ratio: -nan
Core_1_L1I_writeback_miss 0
Core_1_L1I_prefetch_requested 0
Core_1_L1I_prefetch_issued 0
Core_1_L1I_prefetch_useful 0 L1I_Useful Ratio: -nan
Core_1_L1I_prefetch_useless 0
Core_1_L1I_prefetch_late 0
Core_1_L1I_average_miss_latency 790.30530

Core_1_L2C_total_access 3343142
Core_1_L2C_total_hit 2283966 L2C_total_Hit Ratio: 0.68318
Core_1_L2C_total_miss 1059176
Core_1_L2C_loads 727827
Core_1_L2C_load_hit 427673 L2C_load_Hit Ratio: 0.58760
Core_1_L2C_load_miss 300154
Core_1_L2C_RFOs 106409
Core_1_L2C_RFO_hit 690 L2C_RFO_Hit Ratio: 0.00648
Core_1_L2C_RFO_miss 105719
Core_1_L2C_prefetches 1766637
Core_1_L2C_prefetch_hit 1113339 L2C_prefetch_Hit Ratio: 0.63020
Core_1_L2C_prefetch_miss 653298
Core_1_L2C_writebacks 742269
Core_1_L2C_writeback_hit 742264 L2C_writeback_Hit Ratio: 0.99999
Core_1_L2C_writeback_miss 5
Core_1_L2C_prefetch_requested 646914
Core_1_L2C_prefetch_issued 646914
Core_1_L2C_prefetch_useful 126881 L2C_Useful Ratio: 0.19613
Core_1_L2C_prefetch_useless 492682
Core_1_L2C_prefetch_late 118117
Core_1_L2C_average_miss_latency 943.79136

Core_1_LLC_total_access 1669585
Core_1_LLC_total_hit 600260 LLC_total_Hit Ratio: 0.35953
Core_1_LLC_total_miss 1069325
Core_1_LLC_loads 182190
Core_1_LLC_load_hit 208 LLC_load_Hit Ratio: 0.00114
Core_1_LLC_load_miss 181982
Core_1_LLC_RFOs 105719
Core_1_LLC_RFO_hit 1 LLC_RFO_Hit Ratio: 0.00001
Core_1_LLC_RFO_miss 105718
Core_1_LLC_prefetches 771262
Core_1_LLC_prefetch_hit 1251 LLC_prefetch_Hit Ratio: 0.00162
Core_1_LLC_prefetch_miss 770011
Core_1_LLC_writebacks 610414
Core_1_LLC_writeback_hit 598800 LLC_writeback_Hit Ratio: 0.98097
Core_1_LLC_writeback_miss 11614
Core_1_LLC_prefetch_requested 0
Core_1_LLC_prefetch_issued 0
Core_1_LLC_prefetch_useful 286 LLC_Useful Ratio: inf
Core_1_LLC_prefetch_useless 2682567
Core_1_LLC_prefetch_late 0
Core_1_LLC_average_miss_latency 3479.08507

Core_1_major_page_fault 0
Core_1_minor_page_fault 8637

Core_2_instructions 120000003
Core_2_cycles 184441781
Core_2_IPC 0.65061

Core_2_branch_prediction_accuracy 99.19519
Core_2_branch_MPKI 0.23998
Core_2_average_ROB_occupancy_at_mispredict 444.29300

Core_2_L1D_total_access 39932121
Core_2_L1D_total_hit 37612529 L1D_total_Hit Ratio: 0.94191
Core_2_L1D_total_miss 2319592
Core_2_L1D_loads 34603616
Core_2_L1D_load_hit 33720457 L1D_load_Hit Ratio: 0.97448
Core_2_L1D_load_miss 883159
Core_2_L1D_RFOs 3298778
Core_2_L1D_RFO_hit 3192167 L1D_RFO_Hit Ratio: 0.96768
Core_2_L1D_RFO_miss 106611
Core_2_L1D_prefetches 2029727
Core_2_L1D_prefetch_hit 699905 L1D_prefetch_Hit Ratio: 0.34483
Core_2_L1D_prefetch_miss 1329822
Core_2_L1D_writebacks 0
Core_2_L1D_writeback_hit 0 L1D_writeback_Hit Ratio: -nan
Core_2_L1D_writeback_miss 0
Core_2_L1D_prefetch_requested 2418008
Core_2_L1D_prefetch_issued 2418008
Core_2_L1D_prefetch_useful 1334964 L1D_Useful Ratio: 0.55209
Core_2_L1D_prefetch_useless 25421
Core_2_L1D_prefetch_late 146251
Core_2_L1D_average_miss_latency 3803844.60778

Core_2_L1I_total_access 18431109
Core_2_L1I_total_hit 18429023 L1I_total_Hit Ratio: 0.99989
Core_2_L1I_total_miss 2086
Core_2_L1I_loads 18431109
Core_2_L1I_load_hit 18429023 L1I_load_Hit Ratio: 0.99989
Core_2_L1I_load_miss 2086
Core_2_L1I_RFOs 0
Core_2_L1I_RFO_hit 0 L1I_RFO_Hit Ratio: -nan
Core_2_L1I_RFO_miss 0
Core_2_L1I_prefetches 0
Core_2_L1I_prefetch_hit 0 L1I_prefetch_Hit Ratio: -nan
Core_2_L1I_prefetch_miss 0
Core_2_L1I_writebacks 0
Core_2_L1I_writeback_hit 0 L1I_writeback_Hit Ratio: -nan
Core_2_L1I_writeback_miss 0
Core_2_L1I_prefetch_requested 0
Core_2_L1I_prefetch_issued 0
Core_2_L1I_prefetch_useful 0 L1I_Useful Ratio: -nan
Core_2_L1I_prefetch_useless 0
Core_2_L1I_prefetch_late 0
Core_2_L1I_average_miss_latency 734.95254

Core_2_L2C_total_access 3423691
Core_2_L2C_total_hit 2364431 L2C_total_Hit Ratio: 0.69061
Core_2_L2C_total_miss 1059260
Core_2_L2C_loads 740653
Core_2_L2C_load_hit 445145 L2C_load_Hit Ratio: 0.60102
Core_2_L2C_load_miss 295508
Core_2_L2C_RFOs 106530
Core_2_L2C_RFO_hit 794 L2C_RFO_Hit Ratio: 0.00745
Core_2_L2C_RFO_miss 105736
Core_2_L2C_prefetches 1833086
Core_2_L2C_prefetch_hit 1175075 L2C_prefetch_Hit Ratio: 0.64104
Core_2_L2C_prefetch_miss 658011
Core_2_L2C_writebacks 743422
Core_2_L2C_writeback_hit 743417 L2C_writeback_Hit Ratio: 0.99999
Core_2_L2C_writeback_miss 5
Core_2_L2C_prefetch_requested 673124
Core_2_L2C_prefetch_issued 673124
Core_2_L2C_prefetch_useful 131914 L2C_Useful Ratio: 0.19597
Core_2_L2C_prefetch_useless 494190
Core_2_L2C_prefetch_late 118027
Core_2_L2C_average_miss_latency 944.13098

Core_2_LLC_total_access 1669558
Core_2_LLC_total_hit 599713 LLC_total_Hit Ratio: 0.35920
Core_2_LLC_total_miss 1069845
Core_2_LLC_loads 177626
Core_2_LLC_load_hit 95 LLC_load_Hit Ratio: 0.00053
Core_2_LLC_load_miss 177531
Core_2_LLC_RFOs 105736
Core_2_LLC_RFO_hit 9 LLC_RFO_Hit Ratio: 0.00009
Core_2_LLC_RFO_miss 105727
Core_2_LLC_prefetches 775893
Core_2_LLC_prefetch_hit 639 LLC_prefetch_Hit Ratio: 0.00082
Core_2_LLC_prefetch_miss 775254
Core_2_LLC_writebacks 610303
Core_2_LLC_writeback_hit 598970 LLC_writeback_Hit Ratio: 0.98143
Core_2_LLC_writeback_miss 11333
Core_2_LLC_prefetch_requested 0
Core_2_LLC_prefetch_issued 0
Core_2_LLC_prefetch_useful 286 LLC_Useful Ratio: inf
Core_2_LLC_prefetch_useless 2682567
Core_2_LLC_prefetch_late 0
Core_2_LLC_average_miss_latency 3477.39405

Core_2_major_page_fault 0
Core_2_minor_page_fault 8642

Core_3_instructions 120000001
Core_3_cycles 184699124
Core_3_IPC 0.64971

Core_3_branch_prediction_accuracy 99.19496
Core_3_branch_MPKI 0.24072
Core_3_average_ROB_occupancy_at_mispredict 444.40238

Core_3_L1D_total_access 39931612
Core_3_L1D_total_hit 37550676 L1D_total_Hit Ratio: 0.94037
Core_3_L1D_total_miss 2380936
Core_3_L1D_loads 34614119
Core_3_L1D_load_hit 33724090 L1D_load_Hit Ratio: 0.97429
Core_3_L1D_load_miss 890029
Core_3_L1D_RFOs 3298815
Core_3_L1D_RFO_hit 3192174 L1D_RFO_Hit Ratio: 0.96767
Core_3_L1D_RFO_miss 106641
Core_3_L1D_prefetches 2018678
Core_3_L1D_prefetch_hit 634412 L1D_prefetch_Hit Ratio: 0.31427
Core_3_L1D_prefetch_miss 1384266
Core_3_L1D_writebacks 0
Core_3_L1D_writeback_hit 0 L1D_writeback_Hit Ratio: -nan
Core_3_L1D_writeback_miss 0
Core_3_L1D_prefetch_requested 2399778
Core_3_L1D_prefetch_issued 2399778
Core_3_L1D_prefetch_useful 1389872 L1D_Useful Ratio: 0.57917
Core_3_L1D_prefetch_useless 24694
Core_3_L1D_prefetch_late 146339
Core_3_L1D_average_miss_latency 3701926.25190

Core_3_L1I_total_access 18430871
Core_3_L1I_total_hit 18428760 L1I_total_Hit Ratio: 0.99989
Core_3_L1I_total_miss 2111
Core_3_L1I_loads 18430871
Core_3_L1I_load_hit 18428760 L1I_load_Hit Ratio: 0.99989
Core_3_L1I_load_miss 2111
Core_3_L1I_RFOs 0
Core_3_L1I_RFO_hit 0 L1I_RFO_Hit Ratio: -nan
Core_3_L1I_RFO_miss 0
Core_3_L1I_prefetches 0
Core_3_L1I_prefetch_hit 0 L1I_prefetch_Hit Ratio: -nan
Core_3_L1I_prefetch_miss 0
Core_3_L1I_writebacks 0
Core_3_L1I_writeback_hit 0 L1I_writeback_Hit Ratio: -nan
Core_3_L1I_writeback_miss 0
Core_3_L1I_prefetch_requested 0
Core_3_L1I_prefetch_issued 0
Core_3_L1I_prefetch_useful 0 L1I_Useful Ratio: -nan
Core_3_L1I_prefetch_useless 0
Core_3_L1I_prefetch_late 0
Core_3_L1I_average_miss_latency 830.09143

Core_3_L2C_total_access 3486518
Core_3_L2C_total_hit 2427186 L2C_total_Hit Ratio: 0.69616
Core_3_L2C_total_miss 1059332
Core_3_L2C_loads 747186
Core_3_L2C_load_hit 448888 L2C_load_Hit Ratio: 0.60077
Core_3_L2C_load_miss 298298
Core_3_L2C_RFOs 106550
Core_3_L2C_RFO_hit 799 L2C_RFO_Hit Ratio: 0.00750
Core_3_L2C_RFO_miss 105751
Core_3_L2C_prefetches 1889278
Core_3_L2C_prefetch_hit 1234001 L2C_prefetch_Hit Ratio: 0.65316
Core_3_L2C_prefetch_miss 655277
Core_3_L2C_writebacks 743504
Core_3_L2C_writeback_hit 743498 L2C_writeback_Hit Ratio: 0.99999
Core_3_L2C_writeback_miss 6
Core_3_L2C_prefetch_requested 672005
Core_3_L2C_prefetch_issued 672005
Core_3_L2C_prefetch_useful 132161 L2C_Useful Ratio: 0.19667
Core_3_L2C_prefetch_useless 492048
Core_3_L2C_prefetch_late 117893
Core_3_L2C_average_miss_latency 951.68544

Core_3_LLC_total_access 1669441
Core_3_LLC_total_hit 596721 LLC_total_Hit Ratio: 0.35744
Core_3_LLC_total_miss 1072720
Core_3_LLC_loads 180489
Core_3_LLC_load_hit 190 LLC_load_Hit Ratio: 0.00105
Core_3_LLC_load_miss 180299
Core_3_LLC_RFOs 105751
Core_3_LLC_RFO_hit 1 LLC_RFO_Hit Ratio: 0.00001
Core_3_LLC_RFO_miss 105750
Core_3_LLC_prefetches 773086
Core_3_LLC_prefetch_hit 1454 LLC_prefetch_Hit Ratio: 0.00188
Core_3_LLC_prefetch_miss 771632
Core_3_LLC_writebacks 610115
Core_3_LLC_writeback_hit 595076 LLC_writeback_Hit Ratio: 0.97535
Core_3_LLC_writeback_miss 15039
Core_3_LLC_prefetch_requested 0
Core_3_LLC_prefetch_issued 0
Core_3_LLC_prefetch_useful 286 LLC_Useful Ratio: inf
Core_3_LLC_prefetch_useless 2682567
Core_3_LLC_prefetch_late 0
Core_3_LLC_average_miss_latency 3468.07428

Core_3_major_page_fault 0
Core_3_minor_page_fault 8635

[Bingo] PHT Access: 285443
[Bingo] PHT Hit PC+Addr: 87946
[Bingo] PHT Hit PC+Offs: 163933
[Bingo] PHT Miss: 33564
[Bingo] Prefetch PC+Addr: 0
[Bingo] Prefetch PC+Offs: 0
[Bingo] Useful PC+Addr: 0
[Bingo] Useful PC+Offs: 0
[Bingo] Useless PC+Addr: 0
[Bingo] Useless PC+Offs: 0
[Bingo] L1 Prefetch per Region: 11.17744
[Bingo] L2 Prefetch per Region: 0.38157
[Bingo] L3 Prefetch per Region: 0.00000
[Bingo] No Prefetch per Region: 20.44099
[Bingo] Number of Voters Mean: 12.86479
[Bingo] Number of Voters SD: 5.59738
PHT read accesses: 3991994
PHT write accesses: 272462
AT read accesses: 32779952
AT write accesses: 32780800
FT read accesses: 5014953
FT write accesses: 285443
PS read accesses: 2384404
PS write accesses: 251879
PHT tag read accesses: 11277476
PHT tag write accesses: 360408
AT tag read accesses: 717180357
AT tag write accesses: 33052410
FT tag read accesses: 200508408
FT tag write accesses: 2935388
PS tag read accesses: 566549446
PS tag write accesses: 2629647
[Bingo2] PHT Access: 141380
[Bingo2] PHT Hit PC+Addr: 2659
[Bingo2] PHT Hit PC+Offs: 109990
[Bingo2] PHT Miss: 28731
[Bingo2] Prefetch PC+Addr: 0
[Bingo2] Prefetch PC+Offs: 0
[Bingo2] Useful PC+Addr: 0
[Bingo2] Useful PC+Offs: 0
[Bingo2] Useless PC+Addr: 0
[Bingo2] Useless PC+Offs: 0
[Bingo2] L1 Prefetch per Region: 0.00000
[Bingo2] L2 Prefetch per Region: 8.99490
[Bingo2] L3 Prefetch per Region: 0.00000
[Bingo2] No Prefetch per Region: 23.00510
[Bingo2] Number of Voters Mean: 11.96176
[Bingo2] Number of Voters SD: 5.36073
PHT read accesses: 2238036
PHT write accesses: 91717
AT read accesses: 588855
AT write accesses: 680431
FT read accesses: 282888
FT write accesses: 141380
PS read accesses: 275009
PS write accesses: 112649
PHT tag read accesses: 5152503
PHT tag write accesses: 94376
AT tag read accesses: 80953602
AT tag write accesses: 680572
FT tag read accesses: 73834158
FT tag write accesses: 328732
PS tag read accesses: 15686668
PS tag write accesses: 381166
[Bingo] PHT Access: 294426
[Bingo] PHT Hit PC+Addr: 91411
[Bingo] PHT Hit PC+Offs: 167985
[Bingo] PHT Miss: 35030
[Bingo] Prefetch PC+Addr: 0
[Bingo] Prefetch PC+Offs: 0
[Bingo] Useful PC+Addr: 0
[Bingo] Useful PC+Offs: 0
[Bingo] Useless PC+Addr: 0
[Bingo] Useless PC+Offs: 0
[Bingo] L1 Prefetch per Region: 11.10302
[Bingo] L2 Prefetch per Region: 0.36033
[Bingo] L3 Prefetch per Region: 0.00000
[Bingo] No Prefetch per Region: 20.53665
[Bingo] Number of Voters Mean: 13.03001
[Bingo] Number of Voters SD: 4.83830
PHT read accesses: 4092737
PHT write accesses: 281543
AT read accesses: 33651476
AT write accesses: 33652311
FT read accesses: 5067828
FT write accesses: 294426
PS read accesses: 2431420
PS write accesses: 259396
PHT tag read accesses: 11626932
PHT tag write accesses: 372954
AT tag read accesses: 733676785
AT tag write accesses: 33933080
FT tag read accesses: 203323620
FT tag write accesses: 2975215
PS tag read accesses: 580918771
PS tag write accesses: 2684488
[Bingo2] PHT Access: 146501
[Bingo2] PHT Hit PC+Addr: 1944
[Bingo2] PHT Hit PC+Offs: 110218
[Bingo2] PHT Miss: 34339
[Bingo2] Prefetch PC+Addr: 0
[Bingo2] Prefetch PC+Offs: 0
[Bingo2] Useful PC+Addr: 0
[Bingo2] Useful PC+Offs: 0
[Bingo2] Useless PC+Addr: 0
[Bingo2] Useless PC+Offs: 0
[Bingo2] L1 Prefetch per Region: 0.00000
[Bingo2] L2 Prefetch per Region: 8.71587
[Bingo2] L3 Prefetch per Region: 0.00000
[Bingo2] No Prefetch per Region: 23.28413
[Bingo2] Number of Voters Mean: 11.99507
[Bingo2] Number of Voters SD: 5.34307
PHT read accesses: 2281574
PHT write accesses: 93096
AT read accesses: 594713
AT write accesses: 687796
FT read accesses: 287520
FT write accesses: 146501
PS read accesses: 272236
PS write accesses: 112162
PHT tag read accesses: 5276791
PHT tag write accesses: 95040
AT tag read accesses: 81201560
AT tag write accesses: 687937
FT tag read accesses: 74116023
FT tag write accesses: 336922
PS tag read accesses: 15879927
PS tag write accesses: 378770
[Bingo] PHT Access: 296643
[Bingo] PHT Hit PC+Addr: 92280
[Bingo] PHT Hit PC+Offs: 169926
[Bingo] PHT Miss: 34437
[Bingo] Prefetch PC+Addr: 0
[Bingo] Prefetch PC+Offs: 0
[Bingo] Useful PC+Addr: 0
[Bingo] Useful PC+Offs: 0
[Bingo] Useless PC+Addr: 0
[Bingo] Useless PC+Offs: 0
[Bingo] L1 Prefetch per Region: 11.09329
[Bingo] L2 Prefetch per Region: 0.38527
[Bingo] L3 Prefetch per Region: 0.00000
[Bingo] No Prefetch per Region: 20.52144
[Bingo] Number of Voters Mean: 12.88181
[Bingo] Number of Voters SD: 4.94570
PHT read accesses: 4122777
PHT write accesses: 283013
AT read accesses: 33761058
AT write accesses: 33762095
FT read accesses: 5084016
FT write accesses: 296643
PS read accesses: 2454049
PS write accesses: 262206
PHT tag read accesses: 11688524
PHT tag write accesses: 375293
AT tag read accesses: 735598143
AT tag write accesses: 34044131
FT tag read accesses: 203523540
FT tag write accesses: 2986604
PS tag read accesses: 582854732
PS tag write accesses: 2709202
[Bingo2] PHT Access: 147460
[Bingo2] PHT Hit PC+Addr: 3491
[Bingo2] PHT Hit PC+Offs: 111118
[Bingo2] PHT Miss: 32851
[Bingo2] Prefetch PC+Addr: 0
[Bingo2] Prefetch PC+Offs: 0
[Bingo2] Useful PC+Addr: 0
[Bingo2] Useful PC+Offs: 0
[Bingo2] Useless PC+Addr: 0
[Bingo2] Useless PC+Offs: 0
[Bingo2] L1 Prefetch per Region: 0.00000
[Bingo2] L2 Prefetch per Region: 8.80493
[Bingo2] L3 Prefetch per Region: 0.00000
[Bingo2] No Prefetch per Region: 23.19507
[Bingo2] Number of Voters Mean: 12.01974
[Bingo2] Number of Voters SD: 5.27755
PHT read accesses: 2286701
PHT write accesses: 94814
AT read accesses: 607495
AT write accesses: 702303
FT read accesses: 296168
FT write accesses: 147460
PS read accesses: 279523
PS write accesses: 114609
PHT tag read accesses: 5329783
PHT tag write accesses: 98305
AT tag read accesses: 81532002
AT tag write accesses: 702437
FT tag read accesses: 74238657
FT tag write accesses: 343065
PS tag read accesses: 16183298
PS tag write accesses: 387270
[Bingo] PHT Access: 296537
[Bingo] PHT Hit PC+Addr: 91879
[Bingo] PHT Hit PC+Offs: 170286
[Bingo] PHT Miss: 34372
[Bingo] Prefetch PC+Addr: 0
[Bingo] Prefetch PC+Offs: 0
[Bingo] Useful PC+Addr: 0
[Bingo] Useful PC+Offs: 0
[Bingo] Useless PC+Addr: 0
[Bingo] Useless PC+Offs: 0
[Bingo] L1 Prefetch per Region: 10.99874
[Bingo] L2 Prefetch per Region: 0.38687
[Bingo] L3 Prefetch per Region: 0.00000
[Bingo] No Prefetch per Region: 20.61439
[Bingo] Number of Voters Mean: 12.88109
[Bingo] Number of Voters SD: 4.93725
PHT read accesses: 4125864
PHT write accesses: 282554
AT read accesses: 33625125
AT write accesses: 33626607
FT read accesses: 5084822
FT write accesses: 296537
PS read accesses: 2420304
PS write accesses: 262165
PHT tag read accesses: 11686019
PHT tag write accesses: 374433
AT tag read accesses: 733450037
AT tag write accesses: 33907745
FT tag read accesses: 203528228
FT tag write accesses: 2986873
PS tag read accesses: 580699069
PS tag write accesses: 2675447
[Bingo2] PHT Access: 149955
[Bingo2] PHT Hit PC+Addr: 2845
[Bingo2] PHT Hit PC+Offs: 111432
[Bingo2] PHT Miss: 35678
[Bingo2] Prefetch PC+Addr: 0
[Bingo2] Prefetch PC+Offs: 0
[Bingo2] Useful PC+Addr: 0
[Bingo2] Useful PC+Offs: 0
[Bingo2] Useless PC+Addr: 0
[Bingo2] Useless PC+Offs: 0
[Bingo2] L1 Prefetch per Region: 0.00000
[Bingo2] L2 Prefetch per Region: 8.72870
[Bingo2] L3 Prefetch per Region: 0.00000
[Bingo2] No Prefetch per Region: 23.27130
[Bingo2] Number of Voters Mean: 11.95902
[Bingo2] Number of Voters SD: 5.30593
PHT read accesses: 2329103
PHT write accesses: 94050
AT read accesses: 610191
AT write accesses: 704231
FT read accesses: 291099
FT write accesses: 149955
PS read accesses: 278520
PS write accesses: 114277
PHT tag read accesses: 5348403
PHT tag write accesses: 96895
AT tag read accesses: 81555964
AT tag write accesses: 704369
FT tag read accesses: 74314761
FT tag write accesses: 342648
PS tag read accesses: 16235314
PS tag write accesses: 387065
Channel_0_RQ_row_buffer_hit 1804387
Channel_0_RQ_row_buffer_miss 2435723
Channel_0_WQ_row_buffer_hit 782808
Channel_0_WQ_row_buffer_miss 1628955
Channel_0_WQ_full 17971
Channel_0_dbus_congested 4858762

avg_congested_cycle 8

EzSearch AVG IPC :0.64877: L2-Pf-HR :0.63875 : L2-HR :0.68796 Uful:0.19387
EzSearch AVG IPC :0.64990: L2-Pf-HR :0.63020 : L2-HR :0.68364 Uful:0.19613
EzSearch AVG IPC :0.65061: L2-Pf-HR :0.64104 : L2-HR :0.69132 Uful:0.19597
EzSearch AVG IPC :0.64971: L2-Pf-HR :0.65316 : L2-HR :0.69659 Uful:0.19667
     > Finished combination: TraceType=770-tot Sim:120000000 Prefetcher=L2bingo_dpc3_PHT1k L1=bingo_dpc3_PHT1k
