TRACE: [331000000][Pythia-70M]_[h8][s1024][d64] Warmup: 2000000 NumTraces: 331000000
L1:bingo_dpc3_PHT1k:L2:bingo_dpc3_PHT1k
*************************************************
   ChampSim Multicore Out-of-Order Simulator
   Last compiled: Oct 29 2024 04:09:20
*************************************************

trace_0 770-tot_memTraces_v3/memTraces[331000000][Pythia-70M]_[h8][s1024][d64].champsim.xz
trace_1 770-tot_memTraces_v3/memTraces[331000000][Pythia-70M]_[h8][s1024][d64].champsim.xz
trace_2 770-tot_memTraces_v3/memTraces[331000000][Pythia-70M]_[h8][s1024][d64].champsim.xz
trace_3 770-tot_memTraces_v3/memTraces[331000000][Pythia-70M]_[h8][s1024][d64].champsim.xz
Bingo PHT WAYS: 16 and PHT_SIZE: 1024
Bingo2 PHT WAYS: 16 and PHT_SIZE: 1024
Bingo PHT WAYS: 16 and PHT_SIZE: 1024
Bingo2 PHT WAYS: 16 and PHT_SIZE: 1024
Bingo PHT WAYS: 16 and PHT_SIZE: 1024
Bingo2 PHT WAYS: 16 and PHT_SIZE: 1024
Bingo PHT WAYS: 16 and PHT_SIZE: 1024
Bingo2 PHT WAYS: 16 and PHT_SIZE: 1024
MAIN.cc ln 751 stats print skipped
CPU  1 inst:    1000000 cyc:     496842 now IPC :2.01271: AVG IPC :2.01271: L2-Pf-HR :0.74698: L2-HR :0.62441: (Sim:0h0m47s) 
CPU  0 inst:    1000000 cyc:     497230 now IPC :2.01114: AVG IPC :2.01114: L2-Pf-HR :0.73270: L2-HR :0.61621: (Sim:0h0m47s) 
CPU  2 inst:    1000000 cyc:     497312 now IPC :2.01081: AVG IPC :2.01081: L2-Pf-HR :0.74824: L2-HR :0.62092: (Sim:0h0m47s) 
CPU  3 inst:    1000000 cyc:     497368 now IPC :2.01058: AVG IPC :2.01058: L2-Pf-HR :0.69787: L2-HR :0.59099: (Sim:0h0m47s) 
CPU  1 inst:    2000003 cyc:     978813 now IPC :2.07482: AVG IPC :2.04329: L2-Pf-HR :0.78494: L2-HR :0.70817: (Sim:0h1m38s) 
CPU  0 inst:    2000003 cyc:     979200 now IPC :2.07482: AVG IPC :2.04249: L2-Pf-HR :0.76872: L2-HR :0.69760: (Sim:0h1m38s) 
CPU  2 inst:    2000003 cyc:     979280 now IPC :2.07483: AVG IPC :2.04232: L2-Pf-HR :0.76269: L2-HR :0.69051: (Sim:0h1m38s) 
CPU  3 inst:    2000003 cyc:     979315 now IPC :2.07492: AVG IPC :2.04225: L2-Pf-HR :0.73208: L2-HR :0.67004: (Sim:0h1m38s) 

Warmup complete CPU  0 instructions:    2000283 cycles:     979315 (Simulation time: 0 hr 1 min 38 sec) 
Warmup complete CPU  1 instructions:    2001081 cycles:     979315 (Simulation time: 0 hr 1 min 38 sec) 
Warmup complete CPU  2 instructions:    2000183 cycles:     979315 (Simulation time: 0 hr 1 min 38 sec) 
Warmup complete CPU  3 instructions:    2000003 cycles:     979315 (Simulation time: 0 hr 1 min 38 sec) 

CPU  1 inst:    3000005 cyc:    1734053 now IPC :1.32409: AVG IPC :1.32354: L2-Pf-HR :0.92004: L2-HR :0.80623: (Sim:0h2m28s) 
CPU  0 inst:    3000005 cyc:    1734257 now IPC :1.32441: AVG IPC :1.32424: L2-Pf-HR :0.90828: L2-HR :0.78906: (Sim:0h2m28s) 
CPU  3 inst:    3000005 cyc:    1734865 now IPC :1.32354: AVG IPC :1.32354: L2-Pf-HR :0.88654: L2-HR :0.77009: (Sim:0h2m28s) 
CPU  2 inst:    3000005 cyc:    1738213 now IPC :1.31764: AVG IPC :1.31747: L2-Pf-HR :0.90506: L2-HR :0.78965: (Sim:0h2m28s) 
CPU  1 inst:    4000001 cyc:    2570945 now IPC :1.19489: AVG IPC :1.25589: L2-Pf-HR :0.91521: L2-HR :0.80248: (Sim:0h3m18s) 
CPU  0 inst:    4000001 cyc:    2571149 now IPC :1.19489: AVG IPC :1.25624: L2-Pf-HR :0.90124: L2-HR :0.78753: (Sim:0h3m18s) 
CPU  3 inst:    4000002 cyc:    2579218 now IPC :1.18434: AVG IPC :1.25008: L2-Pf-HR :0.88886: L2-HR :0.78165: (Sim:0h3m18s) 
CPU  2 inst:    4000001 cyc:    2586861 now IPC :1.17834: AVG IPC :1.24402: L2-Pf-HR :0.88908: L2-HR :0.77722: (Sim:0h3m19s) 
CPU  1 inst:    5000000 cyc:    3350288 now IPC :1.28313: AVG IPC :1.26485: L2-Pf-HR :0.89761: L2-HR :0.79926: (Sim:0h4m7s) 
CPU  0 inst:    5000000 cyc:    3350441 now IPC :1.28321: AVG IPC :1.26510: L2-Pf-HR :0.88017: L2-HR :0.78381: (Sim:0h4m7s) 
CPU  3 inst:    5000000 cyc:    3386204 now IPC :1.23918: AVG IPC :1.24642: L2-Pf-HR :0.87092: L2-HR :0.78138: (Sim:0h4m9s) 
CPU  2 inst:    5000000 cyc:    3393953 now IPC :1.23901: AVG IPC :1.24235: L2-Pf-HR :0.85426: L2-HR :0.76841: (Sim:0h4m10s) 
CPU  1 inst:    6000000 cyc:    4139649 now IPC :1.26685: AVG IPC :1.26535: L2-Pf-HR :0.89319: L2-HR :0.79029: (Sim:0h4m57s) 
CPU  0 inst:    6000000 cyc:    4140236 now IPC :1.26615: AVG IPC :1.26536: L2-Pf-HR :0.87302: L2-HR :0.77486: (Sim:0h4m57s) 
CPU  3 inst:    6000000 cyc:    4183869 now IPC :1.25366: AVG IPC :1.24822: L2-Pf-HR :0.86979: L2-HR :0.77891: (Sim:0h4m59s) 
CPU  2 inst:    6000000 cyc:    4192377 now IPC :1.25247: AVG IPC :1.24486: L2-Pf-HR :0.84641: L2-HR :0.76194: (Sim:0h5m0s) 
CPU  1 inst:    7000004 cyc:    4999920 now IPC :1.16243: AVG IPC :1.24333: L2-Pf-HR :0.90009: L2-HR :0.78777: (Sim:0h5m47s) 
CPU  0 inst:    7000004 cyc:    5000574 now IPC :1.16234: AVG IPC :1.24332: L2-Pf-HR :0.88156: L2-HR :0.77187: (Sim:0h5m47s) 
CPU  3 inst:    7000004 cyc:    5047781 now IPC :1.15753: AVG IPC :1.22896: L2-Pf-HR :0.88077: L2-HR :0.77734: (Sim:0h5m50s) 
CPU  2 inst:    7000004 cyc:    5051158 now IPC :1.16445: AVG IPC :1.22790: L2-Pf-HR :0.86277: L2-HR :0.76339: (Sim:0h5m50s) 
CPU  1 inst:    8000001 cyc:    5720515 now IPC :1.38774: AVG IPC :1.26527: L2-Pf-HR :0.90987: L2-HR :0.79130: (Sim:0h6m35s) 
CPU  0 inst:    8000001 cyc:    5721327 now IPC :1.38743: AVG IPC :1.26523: L2-Pf-HR :0.89556: L2-HR :0.77650: (Sim:0h6m35s) 
CPU  3 inst:    8000001 cyc:    5777387 now IPC :1.37060: AVG IPC :1.25050: L2-Pf-HR :0.89017: L2-HR :0.77802: (Sim:0h6m39s) 
CPU  2 inst:    8000001 cyc:    5780429 now IPC :1.37123: AVG IPC :1.24967: L2-Pf-HR :0.87752: L2-HR :0.76848: (Sim:0h6m39s) 
CPU  1 inst:    9000001 cyc:    6431445 now IPC :1.40661: AVG IPC :1.28370: L2-Pf-HR :0.91904: L2-HR :0.79704: (Sim:0h7m23s) 
CPU  0 inst:    9000001 cyc:    6432263 now IPC :1.40660: AVG IPC :1.28366: L2-Pf-HR :0.90442: L2-HR :0.78086: (Sim:0h7m23s) 
CPU  3 inst:    9000001 cyc:    6493457 now IPC :1.39651: AVG IPC :1.26946: L2-Pf-HR :0.89987: L2-HR :0.78113: (Sim:0h7m27s) 
CPU  2 inst:    9000001 cyc:    6495946 now IPC :1.39759: AVG IPC :1.26886: L2-Pf-HR :0.89194: L2-HR :0.77477: (Sim:0h7m27s) 
CPU  1 inst:   10000001 cyc:    7126647 now IPC :1.43843: AVG IPC :1.30120: L2-Pf-HR :0.92693: L2-HR :0.80029: (Sim:0h8m10s) 
CPU  0 inst:   10000001 cyc:    7126854 now IPC :1.43970: AVG IPC :1.30129: L2-Pf-HR :0.91357: L2-HR :0.78402: (Sim:0h8m10s) 
CPU  3 inst:   10000001 cyc:    7191875 now IPC :1.43181: AVG IPC :1.28771: L2-Pf-HR :0.91002: L2-HR :0.78442: (Sim:0h8m15s) 
CPU  2 inst:   10000001 cyc:    7195356 now IPC :1.42978: AVG IPC :1.28696: L2-Pf-HR :0.90008: L2-HR :0.77622: (Sim:0h8m15s) 
CPU  1 inst:   11000001 cyc:    7801883 now IPC :1.48096: AVG IPC :1.31899: L2-Pf-HR :0.93232: L2-HR :0.80374: (Sim:0h8m57s) 
CPU  0 inst:   11000001 cyc:    7802145 now IPC :1.48084: AVG IPC :1.31906: L2-Pf-HR :0.91751: L2-HR :0.78703: (Sim:0h8m57s) 
CPU  3 inst:   11000001 cyc:    7868233 now IPC :1.47851: AVG IPC :1.30645: L2-Pf-HR :0.91324: L2-HR :0.78855: (Sim:0h9m2s) 
CPU  2 inst:   11000001 cyc:    7871407 now IPC :1.47918: AVG IPC :1.30582: L2-Pf-HR :0.90093: L2-HR :0.77796: (Sim:0h9m2s) 
CPU  1 inst:   12000002 cyc:    8472647 now IPC :1.49084: AVG IPC :1.33438: L2-Pf-HR :0.93445: L2-HR :0.80229: (Sim:0h9m44s) 
CPU  0 inst:   12000002 cyc:    8473403 now IPC :1.48974: AVG IPC :1.33435: L2-Pf-HR :0.91824: L2-HR :0.78535: (Sim:0h9m44s) 
CPU  3 inst:   12000002 cyc:    8552563 now IPC :1.46128: AVG IPC :1.32044: L2-Pf-HR :0.91493: L2-HR :0.78987: (Sim:0h9m50s) 
CPU  2 inst:   12000002 cyc:    8557959 now IPC :1.45656: AVG IPC :1.31947: L2-Pf-HR :0.90243: L2-HR :0.77712: (Sim:0h9m50s) 
CPU  0 inst:   13000000 cyc:    9182517 now IPC :1.41021: AVG IPC :1.34091: L2-Pf-HR :0.91892: L2-HR :0.78152: (Sim:0h10m32s) 
CPU  1 inst:   13000000 cyc:    9182791 now IPC :1.40816: AVG IPC :1.34076: L2-Pf-HR :0.93635: L2-HR :0.80169: (Sim:0h10m32s) 
CPU  3 inst:   13000000 cyc:    9263679 now IPC :1.40624: AVG IPC :1.32780: L2-Pf-HR :0.91921: L2-HR :0.78897: (Sim:0h10m38s) 
CPU  2 inst:   13000000 cyc:    9264291 now IPC :1.41576: AVG IPC :1.32768: L2-Pf-HR :0.90130: L2-HR :0.77357: (Sim:0h10m38s) 
CPU  0 inst:   14000003 cyc:    9806329 now IPC :1.60305: AVG IPC :1.35943: L2-Pf-HR :0.92166: L2-HR :0.78151: (Sim:0h11m18s) 
CPU  1 inst:   14000003 cyc:    9807124 now IPC :1.60171: AVG IPC :1.35922: L2-Pf-HR :0.93974: L2-HR :0.80236: (Sim:0h11m18s) 
CPU  3 inst:   14000003 cyc:    9899174 now IPC :1.57358: AVG IPC :1.34531: L2-Pf-HR :0.92301: L2-HR :0.78932: (Sim:0h11m25s) 
CPU  2 inst:   14000003 cyc:    9899811 now IPC :1.57352: AVG IPC :1.34520: L2-Pf-HR :0.90399: L2-HR :0.77228: (Sim:0h11m25s) 
CPU  1 inst:   15000000 cyc:   10425865 now IPC :1.61618: AVG IPC :1.37605: L2-Pf-HR :0.94073: L2-HR :0.80278: (Sim:0h12m5s) 
CPU  0 inst:   15000000 cyc:   10432107 now IPC :1.59801: AVG IPC :1.37523: L2-Pf-HR :0.92429: L2-HR :0.78149: (Sim:0h12m6s) 
CPU  3 inst:   15000000 cyc:   10524137 now IPC :1.60009: AVG IPC :1.36199: L2-Pf-HR :0.92647: L2-HR :0.79059: (Sim:0h12m13s) 
CPU  2 inst:   15000000 cyc:   10525524 now IPC :1.59817: AVG IPC :1.36178: L2-Pf-HR :0.90655: L2-HR :0.77202: (Sim:0h12m13s) 
CPU  1 inst:   16000001 cyc:   11081323 now IPC :1.52565: AVG IPC :1.38576: L2-Pf-HR :0.93960: L2-HR :0.80372: (Sim:0h12m55s) 
CPU  0 inst:   16000001 cyc:   11090245 now IPC :1.51944: AVG IPC :1.38461: L2-Pf-HR :0.91944: L2-HR :0.77941: (Sim:0h12m55s) 
CPU  3 inst:   16000001 cyc:   11148233 now IPC :1.60232: AVG IPC :1.37674: L2-Pf-HR :0.92502: L2-HR :0.79107: (Sim:0h13m0s) 
CPU  2 inst:   16000001 cyc:   11154793 now IPC :1.58915: AVG IPC :1.37584: L2-Pf-HR :0.90278: L2-HR :0.77065: (Sim:0h13m0s) 
CPU  1 inst:   17000003 cyc:   11893742 now IPC :1.23089: AVG IPC :1.37423: L2-Pf-HR :0.93832: L2-HR :0.80143: (Sim:0h13m46s) 
CPU  0 inst:   17000003 cyc:   11915987 now IPC :1.21103: AVG IPC :1.37151: L2-Pf-HR :0.91796: L2-HR :0.77589: (Sim:0h13m47s) 
CPU  3 inst:   17000003 cyc:   11969080 now IPC :1.21826: AVG IPC :1.36491: L2-Pf-HR :0.92499: L2-HR :0.78865: (Sim:0h13m51s) 
CPU  2 inst:   17000003 cyc:   11972933 now IPC :1.22229: AVG IPC :1.36441: L2-Pf-HR :0.90399: L2-HR :0.76942: (Sim:0h13m51s) 
CPU  1 inst:   18000000 cyc:   12621224 now IPC :1.37460: AVG IPC :1.37425: L2-Pf-HR :0.93853: L2-HR :0.80196: (Sim:0h14m35s) 
CPU  0 inst:   18000000 cyc:   12662827 now IPC :1.33897: AVG IPC :1.36943: L2-Pf-HR :0.91950: L2-HR :0.77766: (Sim:0h14m38s) 
CPU  3 inst:   18000000 cyc:   12713741 now IPC :1.34289: AVG IPC :1.36351: L2-Pf-HR :0.92448: L2-HR :0.78795: (Sim:0h14m42s) 
CPU  2 inst:   18000000 cyc:   12715108 now IPC :1.34739: AVG IPC :1.36334: L2-Pf-HR :0.90611: L2-HR :0.77095: (Sim:0h14m42s) 
CPU  1 inst:   19000001 cyc:   13302177 now IPC :1.46853: AVG IPC :1.37946: L2-Pf-HR :0.93961: L2-HR :0.80268: (Sim:0h15m23s) 
CPU  0 inst:   19000001 cyc:   13400598 now IPC :1.35544: AVG IPC :1.36860: L2-Pf-HR :0.92115: L2-HR :0.77885: (Sim:0h15m30s) 
CPU  3 inst:   19000002 cyc:   13440656 now IPC :1.37568: AVG IPC :1.36422: L2-Pf-HR :0.92506: L2-HR :0.78757: (Sim:0h15m33s) 
CPU  2 inst:   19000002 cyc:   13442928 now IPC :1.37397: AVG IPC :1.36396: L2-Pf-HR :0.90910: L2-HR :0.77280: (Sim:0h15m33s) 
CPU  1 inst:   20000002 cyc:   13972443 now IPC :1.49195: AVG IPC :1.38526: L2-Pf-HR :0.94011: L2-HR :0.80374: (Sim:0h16m10s) 
CPU  0 inst:   20000002 cyc:   14086271 now IPC :1.45842: AVG IPC :1.37330: L2-Pf-HR :0.92254: L2-HR :0.78070: (Sim:0h16m19s) 
CPU  3 inst:   20000002 cyc:   14144629 now IPC :1.42051: AVG IPC :1.36723: L2-Pf-HR :0.92596: L2-HR :0.78876: (Sim:0h16m23s) 
CPU  2 inst:   20000002 cyc:   14147952 now IPC :1.41839: AVG IPC :1.36687: L2-Pf-HR :0.91086: L2-HR :0.77388: (Sim:0h16m23s) 
CPU  1 inst:   21000003 cyc:   14635458 now IPC :1.50826: AVG IPC :1.39124: L2-Pf-HR :0.94005: L2-HR :0.80424: (Sim:0h16m58s) 
CPU  0 inst:   21000003 cyc:   14761534 now IPC :1.48091: AVG IPC :1.37857: L2-Pf-HR :0.92242: L2-HR :0.78152: (Sim:0h17m8s) 
CPU  3 inst:   21000003 cyc:   14832060 now IPC :1.45469: AVG IPC :1.37157: L2-Pf-HR :0.92582: L2-HR :0.78946: (Sim:0h17m13s) 
CPU  2 inst:   21000003 cyc:   14834096 now IPC :1.45742: AVG IPC :1.37135: L2-Pf-HR :0.90948: L2-HR :0.77391: (Sim:0h17m13s) 
CPU  1 inst:   22000005 cyc:   15303604 now IPC :1.49668: AVG IPC :1.39615: L2-Pf-HR :0.93969: L2-HR :0.80342: (Sim:0h17m47s) 
CPU  0 inst:   22000005 cyc:   15424488 now IPC :1.50840: AVG IPC :1.38453: L2-Pf-HR :0.92108: L2-HR :0.78090: (Sim:0h17m56s) 
CPU  3 inst:   22000005 cyc:   15511285 now IPC :1.47227: AVG IPC :1.37628: L2-Pf-HR :0.92575: L2-HR :0.78974: (Sim:0h18m2s) 
CPU  2 inst:   22000005 cyc:   15514341 now IPC :1.47006: AVG IPC :1.37597: L2-Pf-HR :0.90903: L2-HR :0.77360: (Sim:0h18m3s) 
CPU  1 inst:   23000001 cyc:   16060458 now IPC :1.32125: AVG IPC :1.39240: L2-Pf-HR :0.93921: L2-HR :0.80198: (Sim:0h18m36s) 
CPU  0 inst:   23000001 cyc:   16223967 now IPC :1.25081: AVG IPC :1.37751: L2-Pf-HR :0.92209: L2-HR :0.77976: (Sim:0h18m47s) 
CPU  3 inst:   23000001 cyc:   16366005 now IPC :1.16997: AVG IPC :1.36482: L2-Pf-HR :0.92711: L2-HR :0.78899: (Sim:0h18m56s) 
CPU  2 inst:   23000001 cyc:   16371180 now IPC :1.16708: AVG IPC :1.36435: L2-Pf-HR :0.91079: L2-HR :0.77293: (Sim:0h18m57s) 
CPU  1 inst:   24000002 cyc:   16780542 now IPC :1.38873: AVG IPC :1.39223: L2-Pf-HR :0.94109: L2-HR :0.80245: (Sim:0h19m23s) 
CPU  0 inst:   24000002 cyc:   16975068 now IPC :1.33138: AVG IPC :1.37535: L2-Pf-HR :0.92417: L2-HR :0.78081: (Sim:0h19m36s) 
CPU  3 inst:   24000002 cyc:   17204294 now IPC :1.19291: AVG IPC :1.35593: L2-Pf-HR :0.92823: L2-HR :0.78857: (Sim:0h19m51s) 
CPU  2 inst:   24000002 cyc:   17206308 now IPC :1.19742: AVG IPC :1.35575: L2-Pf-HR :0.91308: L2-HR :0.77380: (Sim:0h19m51s) 
CPU  1 inst:   25000000 cyc:   17564072 now IPC :1.27627: AVG IPC :1.38675: L2-Pf-HR :0.94294: L2-HR :0.80351: (Sim:0h20m13s) 
CPU  0 inst:   25000001 cyc:   17717274 now IPC :1.34733: AVG IPC :1.37411: L2-Pf-HR :0.92654: L2-HR :0.78191: (Sim:0h20m22s) 
CPU  3 inst:   25000001 cyc:   18147707 now IPC :1.05998: AVG IPC :1.33967: L2-Pf-HR :0.93003: L2-HR :0.78883: (Sim:0h20m47s) 
CPU  2 inst:   25000000 cyc:   18160816 now IPC :1.04766: AVG IPC :1.33864: L2-Pf-HR :0.91631: L2-HR :0.77550: (Sim:0h20m48s) 
CPU  1 inst:   26000004 cyc:   18519973 now IPC :1.04614: AVG IPC :1.36819: L2-Pf-HR :0.94459: L2-HR :0.80480: (Sim:0h21m8s) 
CPU  0 inst:   26000004 cyc:   18547291 now IPC :1.20480: AVG IPC :1.36611: L2-Pf-HR :0.92887: L2-HR :0.78342: (Sim:0h21m10s) 
CPU  3 inst:   26000004 cyc:   19146098 now IPC :1.00161: AVG IPC :1.32109: L2-Pf-HR :0.93196: L2-HR :0.78988: (Sim:0h21m41s) 
CPU  2 inst:   26000004 cyc:   19205080 now IPC :0.95762: AVG IPC :1.31681: L2-Pf-HR :0.91825: L2-HR :0.77667: (Sim:0h21m44s) 
CPU  1 inst:   27000005 cyc:   19542713 now IPC :0.97777: AVG IPC :1.34668: L2-Pf-HR :0.94524: L2-HR :0.80562: (Sim:0h22m4s) 
CPU  0 inst:   27000005 cyc:   19555808 now IPC :0.99156: AVG IPC :1.34577: L2-Pf-HR :0.93001: L2-HR :0.78429: (Sim:0h22m5s) 
CPU  3 inst:   27000005 cyc:   19952332 now IPC :1.24034: AVG IPC :1.31766: L2-Pf-HR :0.93322: L2-HR :0.79063: (Sim:0h22m29s) 
CPU  2 inst:   27000005 cyc:   20121539 now IPC :1.09116: AVG IPC :1.30600: L2-Pf-HR :0.91926: L2-HR :0.77685: (Sim:0h22m39s) 
CPU  1 inst:   28000000 cyc:   20442593 now IPC :1.11125: AVG IPC :1.33579: L2-Pf-HR :0.94579: L2-HR :0.80557: (Sim:0h22m59s) 
CPU  0 inst:   28000000 cyc:   20452809 now IPC :1.11482: AVG IPC :1.33513: L2-Pf-HR :0.93045: L2-HR :0.78420: (Sim:0h23m0s) 
CPU  3 inst:   28000000 cyc:   20688651 now IPC :1.35810: AVG IPC :1.31917: L2-Pf-HR :0.93391: L2-HR :0.79141: (Sim:0h23m15s) 
CPU  2 inst:   28000000 cyc:   20919920 now IPC :1.25253: AVG IPC :1.30386: L2-Pf-HR :0.91998: L2-HR :0.77730: (Sim:0h23m29s) 
CPU  1 inst:   29000002 cyc:   21426506 now IPC :1.01635: AVG IPC :1.32042: L2-Pf-HR :0.94621: L2-HR :0.80483: (Sim:0h23m56s) 
CPU  0 inst:   29000004 cyc:   21441676 now IPC :1.01126: AVG IPC :1.31948: L2-Pf-HR :0.93019: L2-HR :0.78264: (Sim:0h23m57s) 
CPU  3 inst:   29000004 cyc:   21583552 now IPC :1.11745: AVG IPC :1.31041: L2-Pf-HR :0.93512: L2-HR :0.79084: (Sim:0h24m5s) 
CPU  2 inst:   29000002 cyc:   22004876 now IPC :0.92170: AVG IPC :1.28414: L2-Pf-HR :0.91947: L2-HR :0.77545: (Sim:0h24m28s) 
CPU  1 inst:   30000004 cyc:   22475803 now IPC :0.95302: AVG IPC :1.30249: L2-Pf-HR :0.94725: L2-HR :0.80526: (Sim:0h24m53s) 
CPU  0 inst:   30000004 cyc:   22483345 now IPC :0.96000: AVG IPC :1.30207: L2-Pf-HR :0.93093: L2-HR :0.78236: (Sim:0h24m53s) 
CPU  3 inst:   30000004 cyc:   22542777 now IPC :1.04251: AVG IPC :1.29849: L2-Pf-HR :0.93615: L2-HR :0.79112: (Sim:0h24m57s) 
CPU  2 inst:   30000003 cyc:   23093984 now IPC :0.91818: AVG IPC :1.26612: L2-Pf-HR :0.92022: L2-HR :0.77522: (Sim:0h25m24s) 
CPU  1 inst:   31000004 cyc:   23493516 now IPC :0.98260: AVG IPC :1.28803: L2-Pf-HR :0.94784: L2-HR :0.80536: (Sim:0h25m46s) 
CPU  0 inst:   31000004 cyc:   23596396 now IPC :0.89843: AVG IPC :1.28220: L2-Pf-HR :0.93155: L2-HR :0.78222: (Sim:0h25m52s) 
CPU  3 inst:   31000004 cyc:   23626587 now IPC :0.92267: AVG IPC :1.28051: L2-Pf-HR :0.93730: L2-HR :0.79168: (Sim:0h25m53s) 
CPU  2 inst:   31000005 cyc:   24084561 now IPC :1.00951: AVG IPC :1.25512: L2-Pf-HR :0.92102: L2-HR :0.77514: (Sim:0h26m21s) 
CPU  1 inst:   32000002 cyc:   24277691 now IPC :1.27522: AVG IPC :1.28760: L2-Pf-HR :0.94682: L2-HR :0.80557: (Sim:0h26m33s) 
CPU  0 inst:   32000001 cyc:   24430327 now IPC :1.19914: AVG IPC :1.27925: L2-Pf-HR :0.92957: L2-HR :0.78105: (Sim:0h26m43s) 
CPU  3 inst:   32000002 cyc:   24510593 now IPC :1.13121: AVG IPC :1.27490: L2-Pf-HR :0.93631: L2-HR :0.79176: (Sim:0h26m48s) 
CPU  2 inst:   32000000 cyc:   25117273 now IPC :0.96832: AVG IPC :1.24285: L2-Pf-HR :0.92019: L2-HR :0.77425: (Sim:0h27m17s) 
CPU  1 inst:   33000000 cyc:   25366664 now IPC :0.91829: AVG IPC :1.27111: L2-Pf-HR :0.94636: L2-HR :0.80465: (Sim:0h27m31s) 
CPU  0 inst:   33000000 cyc:   25571585 now IPC :0.87623: AVG IPC :1.26055: L2-Pf-HR :0.92921: L2-HR :0.77972: (Sim:0h27m41s) 
CPU  3 inst:   33000000 cyc:   25705807 now IPC :0.83667: AVG IPC :1.25372: L2-Pf-HR :0.93578: L2-HR :0.79109: (Sim:0h27m47s) 
CPU  2 inst:   33000000 cyc:   26361735 now IPC :0.80356: AVG IPC :1.22131: L2-Pf-HR :0.91956: L2-HR :0.77329: (Sim:0h28m22s) 
CPU  1 inst:   34000000 cyc:   26388347 now IPC :0.97878: AVG IPC :1.25935: L2-Pf-HR :0.94634: L2-HR :0.80445: (Sim:0h28m23s) 
CPU  0 inst:   34000000 cyc:   26714351 now IPC :0.87507: AVG IPC :1.24343: L2-Pf-HR :0.92950: L2-HR :0.77998: (Sim:0h28m41s) 
CPU  3 inst:   34000000 cyc:   26783907 now IPC :0.92756: AVG IPC :1.24009: L2-Pf-HR :0.93550: L2-HR :0.79045: (Sim:0h28m44s) 
CPU  1 inst:   35000000 cyc:   27304342 now IPC :1.09171: AVG IPC :1.25352: L2-Pf-HR :0.94671: L2-HR :0.80491: (Sim:0h29m10s) 
CPU  2 inst:   34000000 cyc:   27550835 now IPC :0.84097: AVG IPC :1.20429: L2-Pf-HR :0.91986: L2-HR :0.77359: (Sim:0h29m23s) 
CPU  0 inst:   35000004 cyc:   28025715 now IPC :0.76257: AVG IPC :1.22012: L2-Pf-HR :0.93021: L2-HR :0.78073: (Sim:0h29m46s) 
CPU  3 inst:   35000005 cyc:   28083376 now IPC :0.76955: AVG IPC :1.21753: L2-Pf-HR :0.93569: L2-HR :0.79062: (Sim:0h29m48s) 
CPU  1 inst:   36000004 cyc:   28486690 now IPC :0.84578: AVG IPC :1.23599: L2-Pf-HR :0.94688: L2-HR :0.80511: (Sim:0h30m8s) 
CPU  2 inst:   35000003 cyc:   28543163 now IPC :1.00773: AVG IPC :1.19721: L2-Pf-HR :0.92110: L2-HR :0.77462: (Sim:0h30m11s) 
CPU  0 inst:   36000004 cyc:   29173843 now IPC :0.87098: AVG IPC :1.20590: L2-Pf-HR :0.93036: L2-HR :0.78128: (Sim:0h30m42s) 
CPU  3 inst:   36000004 cyc:   29342107 now IPC :0.79445: AVG IPC :1.19875: L2-Pf-HR :0.93577: L2-HR :0.79067: (Sim:0h30m51s) 
CPU  2 inst:   36000004 cyc:   29539919 now IPC :1.00326: AVG IPC :1.19044: L2-Pf-HR :0.92170: L2-HR :0.77494: (Sim:0h31m1s) 
CPU  1 inst:   37000000 cyc:   29678656 now IPC :0.83895: AVG IPC :1.21950: L2-Pf-HR :0.94680: L2-HR :0.80564: (Sim:0h31m8s) 
CPU  0 inst:   37000000 cyc:   30149180 now IPC :1.02528: AVG IPC :1.19986: L2-Pf-HR :0.92993: L2-HR :0.78217: (Sim:0h31m32s) 
CPU  3 inst:   37000000 cyc:   30508340 now IPC :0.85746: AVG IPC :1.18527: L2-Pf-HR :0.93599: L2-HR :0.79135: (Sim:0h31m50s) 
CPU  2 inst:   37000000 cyc:   30616461 now IPC :0.92890: AVG IPC :1.18094: L2-Pf-HR :0.92074: L2-HR :0.77520: (Sim:0h31m56s) 
CPU  1 inst:   38000001 cyc:   30856916 now IPC :0.84871: AVG IPC :1.20488: L2-Pf-HR :0.94636: L2-HR :0.80520: (Sim:0h32m8s) 
CPU  0 inst:   38000001 cyc:   31096252 now IPC :1.05589: AVG IPC :1.19533: L2-Pf-HR :0.92939: L2-HR :0.78177: (Sim:0h32m19s) 
CPU  3 inst:   38000001 cyc:   31683575 now IPC :0.85089: AVG IPC :1.17248: L2-Pf-HR :0.93536: L2-HR :0.79137: (Sim:0h32m47s) 
CPU  2 inst:   38000001 cyc:   31829568 now IPC :0.82433: AVG IPC :1.16692: L2-Pf-HR :0.92028: L2-HR :0.77486: (Sim:0h32m52s) 
CPU  1 inst:   39000000 cyc:   32184332 now IPC :0.75334: AVG IPC :1.18567: L2-Pf-HR :0.94626: L2-HR :0.80421: (Sim:0h33m11s) 
CPU  0 inst:   39000000 cyc:   32302297 now IPC :0.82916: AVG IPC :1.18123: L2-Pf-HR :0.92936: L2-HR :0.78112: (Sim:0h33m16s) 
CPU  3 inst:   39000000 cyc:   32833327 now IPC :0.86975: AVG IPC :1.16155: L2-Pf-HR :0.93547: L2-HR :0.79103: (Sim:0h33m39s) 
CPU  2 inst:   39000000 cyc:   33181288 now IPC :0.73980: AVG IPC :1.14899: L2-Pf-HR :0.92080: L2-HR :0.77451: (Sim:0h33m55s) 
CPU  1 inst:   40000002 cyc:   33583724 now IPC :0.71460: AVG IPC :1.16545: L2-Pf-HR :0.94709: L2-HR :0.80452: (Sim:0h34m14s) 
CPU  0 inst:   40000002 cyc:   33631812 now IPC :0.75216: AVG IPC :1.16376: L2-Pf-HR :0.93053: L2-HR :0.78164: (Sim:0h34m16s) 
CPU  3 inst:   40000002 cyc:   33777721 now IPC :1.05888: AVG IPC :1.15859: L2-Pf-HR :0.93607: L2-HR :0.79079: (Sim:0h34m23s) 
CPU  2 inst:   40000002 cyc:   34680887 now IPC :0.66685: AVG IPC :1.12754: L2-Pf-HR :0.92188: L2-HR :0.77499: (Sim:0h35m1s) 
CPU  1 inst:   41000000 cyc:   34779318 now IPC :0.83640: AVG IPC :1.15381: L2-Pf-HR :0.94810: L2-HR :0.80517: (Sim:0h35m6s) 
CPU  0 inst:   41000000 cyc:   35058193 now IPC :0.70107: AVG IPC :1.14440: L2-Pf-HR :0.93184: L2-HR :0.78235: (Sim:0h35m19s) 
CPU  3 inst:   41000000 cyc:   35124926 now IPC :0.74228: AVG IPC :1.14217: L2-Pf-HR :0.93699: L2-HR :0.79089: (Sim:0h35m22s) 
CPU  1 inst:   42000005 cyc:   35730029 now IPC :1.05185: AVG IPC :1.15102: L2-Pf-HR :0.94902: L2-HR :0.80563: (Sim:0h35m51s) 
CPU  2 inst:   41000000 cyc:   35982899 now IPC :0.76804: AVG IPC :1.11417: L2-Pf-HR :0.92344: L2-HR :0.77594: (Sim:0h36m3s) 
CPU  0 inst:   42000002 cyc:   36230377 now IPC :0.85311: AVG IPC :1.13471: L2-Pf-HR :0.93301: L2-HR :0.78294: (Sim:0h36m15s) 
CPU  3 inst:   42000000 cyc:   36380715 now IPC :0.79631: AVG IPC :1.12990: L2-Pf-HR :0.93794: L2-HR :0.79108: (Sim:0h36m23s) 
CPU  1 inst:   43000000 cyc:   36763281 now IPC :0.96781: AVG IPC :1.14573: L2-Pf-HR :0.94975: L2-HR :0.80677: (Sim:0h36m41s) 
CPU  0 inst:   43000000 cyc:   37197005 now IPC :1.03452: AVG IPC :1.13204: L2-Pf-HR :0.93381: L2-HR :0.78391: (Sim:0h37m2s) 
CPU  2 inst:   42000003 cyc:   37245118 now IPC :0.79226: AVG IPC :1.10296: L2-Pf-HR :0.92475: L2-HR :0.77646: (Sim:0h37m4s) 
CPU  3 inst:   43000004 cyc:   37629611 now IPC :0.80071: AVG IPC :1.11868: L2-Pf-HR :0.93837: L2-HR :0.79197: (Sim:0h37m23s) 
CPU  1 inst:   44000000 cyc:   37978297 now IPC :0.82303: AVG IPC :1.13514: L2-Pf-HR :0.95016: L2-HR :0.80690: (Sim:0h37m40s) 
CPU  0 inst:   44000000 cyc:   38142532 now IPC :1.05761: AVG IPC :1.13014: L2-Pf-HR :0.93414: L2-HR :0.78372: (Sim:0h37m48s) 
CPU  2 inst:   43000000 cyc:   38402646 now IPC :0.86391: AVG IPC :1.09557: L2-Pf-HR :0.92546: L2-HR :0.77697: (Sim:0h38m0s) 
CPU  3 inst:   44000000 cyc:   38862321 now IPC :0.81122: AVG IPC :1.10868: L2-Pf-HR :0.93857: L2-HR :0.79215: (Sim:0h38m22s) 
CPU  1 inst:   45000000 cyc:   39206337 now IPC :0.81431: AVG IPC :1.12483: L2-Pf-HR :0.95040: L2-HR :0.80647: (Sim:0h38m40s) 
CPU  0 inst:   45000000 cyc:   39288128 now IPC :0.87291: AVG IPC :1.12245: L2-Pf-HR :0.93385: L2-HR :0.78285: (Sim:0h38m44s) 
CPU  2 inst:   44000000 cyc:   39380168 now IPC :1.02299: AVG IPC :1.09372: L2-Pf-HR :0.92572: L2-HR :0.77675: (Sim:0h38m49s) 
CPU  3 inst:   45000000 cyc:   39970730 now IPC :0.90219: AVG IPC :1.10281: L2-Pf-HR :0.93927: L2-HR :0.79196: (Sim:0h39m18s) 
CPU  1 inst:   46000005 cyc:   40236508 now IPC :0.97072: AVG IPC :1.12079: L2-Pf-HR :0.95110: L2-HR :0.80676: (Sim:0h39m31s) 
CPU  0 inst:   46000005 cyc:   40318025 now IPC :0.97098: AVG IPC :1.11848: L2-Pf-HR :0.93415: L2-HR :0.78274: (Sim:0h39m36s) 
CPU  2 inst:   45000000 cyc:   40558189 now IPC :0.84888: AVG IPC :1.08643: L2-Pf-HR :0.92527: L2-HR :0.77588: (Sim:0h39m50s) 
CPU  3 inst:   46000005 cyc:   40975995 now IPC :0.99477: AVG IPC :1.10009: L2-Pf-HR :0.93984: L2-HR :0.79208: (Sim:0h40m13s) 
CPU  1 inst:   47000002 cyc:   41165274 now IPC :1.07669: AVG IPC :1.11977: L2-Pf-HR :0.95145: L2-HR :0.80676: (Sim:0h40m24s) 
CPU  0 inst:   47000002 cyc:   41239362 now IPC :1.08538: AVG IPC :1.11773: L2-Pf-HR :0.93445: L2-HR :0.78265: (Sim:0h40m28s) 
CPU  2 inst:   46000005 cyc:   41570288 now IPC :0.98805: AVG IPC :1.08398: L2-Pf-HR :0.92548: L2-HR :0.77574: (Sim:0h40m45s) 
CPU  3 inst:   47000002 cyc:   42035412 now IPC :0.94391: AVG IPC :1.09606: L2-Pf-HR :0.94043: L2-HR :0.79234: (Sim:0h41m9s) 
CPU  1 inst:   48000004 cyc:   42211622 now IPC :0.95571: AVG IPC :1.11560: L2-Pf-HR :0.95108: L2-HR :0.80690: (Sim:0h41m17s) 
CPU  0 inst:   48000004 cyc:   42226492 now IPC :1.01304: AVG IPC :1.11522: L2-Pf-HR :0.93367: L2-HR :0.78226: (Sim:0h41m18s) 
CPU  2 inst:   47000002 cyc:   42656179 now IPC :0.92090: AVG IPC :1.07973: L2-Pf-HR :0.92589: L2-HR :0.77555: (Sim:0h41m40s) 
CPU  3 inst:   48000004 cyc:   43056876 now IPC :0.97899: AVG IPC :1.09322: L2-Pf-HR :0.94000: L2-HR :0.79262: (Sim:0h41m57s) 
CPU  1 inst:   49000005 cyc:   43697729 now IPC :0.67290: AVG IPC :1.10020: L2-Pf-HR :0.95050: L2-HR :0.80610: (Sim:0h42m25s) 
CPU  0 inst:   49000005 cyc:   43723565 now IPC :0.66797: AVG IPC :1.09956: L2-Pf-HR :0.93271: L2-HR :0.78089: (Sim:0h42m26s) 
CPU  2 inst:   48000004 cyc:   43854728 now IPC :0.83434: AVG IPC :1.07287: L2-Pf-HR :0.92507: L2-HR :0.77521: (Sim:0h42m31s) 
CPU  3 inst:   49000005 cyc:   44375053 now IPC :0.75862: AVG IPC :1.08306: L2-Pf-HR :0.93941: L2-HR :0.79191: (Sim:0h42m56s) 
CPU  1 inst:   50000003 cyc:   45003265 now IPC :0.76597: AVG IPC :1.09029: L2-Pf-HR :0.95044: L2-HR :0.80624: (Sim:0h43m24s) 
CPU  0 inst:   50000003 cyc:   45014860 now IPC :0.77441: AVG IPC :1.09002: L2-Pf-HR :0.93276: L2-HR :0.78131: (Sim:0h43m24s) 
CPU  2 inst:   49000005 cyc:   45142771 now IPC :0.77637: AVG IPC :1.06422: L2-Pf-HR :0.92465: L2-HR :0.77445: (Sim:0h43m30s) 
CPU  3 inst:   50000003 cyc:   45559527 now IPC :0.84425: AVG IPC :1.07671: L2-Pf-HR :0.93907: L2-HR :0.79164: (Sim:0h43m50s) 
CPU  1 inst:   51000004 cyc:   46252937 now IPC :0.80021: AVG IPC :1.08228: L2-Pf-HR :0.95058: L2-HR :0.80630: (Sim:0h44m23s) 
CPU  0 inst:   51000004 cyc:   46266452 now IPC :0.79898: AVG IPC :1.08198: L2-Pf-HR :0.93300: L2-HR :0.78156: (Sim:0h44m23s) 
CPU  2 inst:   50000003 cyc:   46308145 now IPC :0.85809: AVG IPC :1.05892: L2-Pf-HR :0.92479: L2-HR :0.77485: (Sim:0h44m25s) 
CPU  3 inst:   51000004 cyc:   46738731 now IPC :0.84803: AVG IPC :1.07082: L2-Pf-HR :0.93905: L2-HR :0.79149: (Sim:0h44m46s) 
CPU  1 inst:   52000001 cyc:   47493739 now IPC :0.80593: AVG IPC :1.07491: L2-Pf-HR :0.95070: L2-HR :0.80653: (Sim:0h45m21s) 
CPU  2 inst:   51000004 cyc:   47519148 now IPC :0.82576: AVG IPC :1.05286: L2-Pf-HR :0.92532: L2-HR :0.77532: (Sim:0h45m22s) 
CPU  0 inst:   52000000 cyc:   47521526 now IPC :0.79676: AVG IPC :1.07429: L2-Pf-HR :0.93327: L2-HR :0.78201: (Sim:0h45m23s) 
CPU  3 inst:   52000004 cyc:   47931402 now IPC :0.83845: AVG IPC :1.06492: L2-Pf-HR :0.93905: L2-HR :0.79153: (Sim:0h45m42s) 
CPU  2 inst:   52000001 cyc:   48714447 now IPC :0.83661: AVG IPC :1.04744: L2-Pf-HR :0.92576: L2-HR :0.77576: (Sim:0h46m18s) 
CPU  1 inst:   53000000 cyc:   48722906 now IPC :0.81356: AVG IPC :1.06818: L2-Pf-HR :0.95074: L2-HR :0.80668: (Sim:0h46m19s) 
CPU  0 inst:   53000000 cyc:   48760269 now IPC :0.80727: AVG IPC :1.06736: L2-Pf-HR :0.93326: L2-HR :0.78251: (Sim:0h46m21s) 
CPU  3 inst:   53000000 cyc:   49093922 now IPC :0.86020: AVG IPC :1.05997: L2-Pf-HR :0.93900: L2-HR :0.79191: (Sim:0h46m37s) 
CPU  2 inst:   53000000 cyc:   49867649 now IPC :0.86715: AVG IPC :1.04319: L2-Pf-HR :0.92544: L2-HR :0.77586: (Sim:0h47m15s) 
CPU  1 inst:   54000001 cyc:   49884919 now IPC :0.86058: AVG IPC :1.06325: L2-Pf-HR :0.95051: L2-HR :0.80647: (Sim:0h47m16s) 
CPU  0 inst:   54000001 cyc:   49940528 now IPC :0.84727: AVG IPC :1.06206: L2-Pf-HR :0.93250: L2-HR :0.78241: (Sim:0h47m18s) 
CPU  3 inst:   54000001 cyc:   50262013 now IPC :0.85610: AVG IPC :1.05514: L2-Pf-HR :0.93826: L2-HR :0.79186: (Sim:0h47m33s) 
CPU  2 inst:   54000001 cyc:   51239965 now IPC :0.72870: AVG IPC :1.03460: L2-Pf-HR :0.92507: L2-HR :0.77579: (Sim:0h48m10s) 
CPU  1 inst:   55000005 cyc:   51322532 now IPC :0.69560: AVG IPC :1.05275: L2-Pf-HR :0.95003: L2-HR :0.80574: (Sim:0h48m12s) 
CPU  0 inst:   55000005 cyc:   51462861 now IPC :0.65689: AVG IPC :1.04984: L2-Pf-HR :0.93254: L2-HR :0.78190: (Sim:0h48m16s) 
CPU  3 inst:   55000005 cyc:   51602710 now IPC :0.74588: AVG IPC :1.04695: L2-Pf-HR :0.93833: L2-HR :0.79174: (Sim:0h48m20s) 
CPU  1 inst:   56000004 cyc:   52340343 now IPC :0.98250: AVG IPC :1.05136: L2-Pf-HR :0.95043: L2-HR :0.80591: (Sim:0h48m42s) 
CPU  2 inst:   55000005 cyc:   52576137 now IPC :0.74841: AVG IPC :1.02719: L2-Pf-HR :0.92509: L2-HR :0.77553: (Sim:0h48m49s) 
CPU  0 inst:   56000004 cyc:   52662981 now IPC :0.83325: AVG IPC :1.04481: L2-Pf-HR :0.93331: L2-HR :0.78229: (Sim:0h48m52s) 
CPU  3 inst:   56000004 cyc:   52769892 now IPC :0.85676: AVG IPC :1.04266: L2-Pf-HR :0.93849: L2-HR :0.79163: (Sim:0h48m55s) 
CPU  1 inst:   57000001 cyc:   53298013 now IPC :1.04420: AVG IPC :1.05123: L2-Pf-HR :0.95110: L2-HR :0.80616: (Sim:0h49m12s) 
CPU  2 inst:   56000004 cyc:   53645523 now IPC :0.93512: AVG IPC :1.02532: L2-Pf-HR :0.92564: L2-HR :0.77602: (Sim:0h49m23s) 
CPU  0 inst:   57000001 cyc:   53718372 now IPC :0.94751: AVG IPC :1.04287: L2-Pf-HR :0.93421: L2-HR :0.78262: (Sim:0h49m26s) 
CPU  3 inst:   57000001 cyc:   53865067 now IPC :0.91309: AVG IPC :1.03998: L2-Pf-HR :0.93915: L2-HR :0.79157: (Sim:0h49m30s) 
CPU  1 inst:   58000001 cyc:   54283437 now IPC :1.01479: AVG IPC :1.05056: L2-Pf-HR :0.95178: L2-HR :0.80670: (Sim:0h49m44s) 
CPU  0 inst:   58000001 cyc:   54673888 now IPC :1.04655: AVG IPC :1.04293: L2-Pf-HR :0.93504: L2-HR :0.78326: (Sim:0h49m56s) 
CPU  2 inst:   57000001 cyc:   54728505 now IPC :0.92337: AVG IPC :1.02327: L2-Pf-HR :0.92679: L2-HR :0.77648: (Sim:0h49m58s) 
CPU  3 inst:   58000001 cyc:   54860233 now IPC :1.00486: AVG IPC :1.03933: L2-Pf-HR :0.93982: L2-HR :0.79190: (Sim:0h50m3s) 
CPU  1 inst:   59000001 cyc:   55303976 now IPC :0.97987: AVG IPC :1.04923: L2-Pf-HR :0.95196: L2-HR :0.80695: (Sim:0h50m17s) 
CPU  0 inst:   59000001 cyc:   55609686 now IPC :1.06861: AVG IPC :1.04337: L2-Pf-HR :0.93541: L2-HR :0.78355: (Sim:0h50m27s) 
CPU  2 inst:   58000001 cyc:   55808978 now IPC :0.92552: AVG IPC :1.02134: L2-Pf-HR :0.92793: L2-HR :0.77714: (Sim:0h50m33s) 
CPU  3 inst:   59000001 cyc:   55842751 now IPC :1.01779: AVG IPC :1.03894: L2-Pf-HR :0.94004: L2-HR :0.79224: (Sim:0h50m35s) 
CPU  1 inst:   60000002 cyc:   56342890 now IPC :0.96254: AVG IPC :1.04760: L2-Pf-HR :0.95201: L2-HR :0.80716: (Sim:0h50m51s) 
CPU  0 inst:   60000004 cyc:   56537174 now IPC :1.07818: AVG IPC :1.04395: L2-Pf-HR :0.93544: L2-HR :0.78376: (Sim:0h50m58s) 
CPU  3 inst:   60000004 cyc:   56740461 now IPC :1.11395: AVG IPC :1.04015: L2-Pf-HR :0.94003: L2-HR :0.79259: (Sim:0h51m4s) 
CPU  2 inst:   59000000 cyc:   56913115 now IPC :0.90568: AVG IPC :1.01906: L2-Pf-HR :0.92767: L2-HR :0.77713: (Sim:0h51m10s) 
CPU  1 inst:   61000002 cyc:   57604132 now IPC :0.79287: AVG IPC :1.04193: L2-Pf-HR :0.95198: L2-HR :0.80678: (Sim:0h51m32s) 
CPU  0 inst:   61000002 cyc:   57686796 now IPC :0.86985: AVG IPC :1.04042: L2-Pf-HR :0.93530: L2-HR :0.78321: (Sim:0h51m35s) 
CPU  3 inst:   61000002 cyc:   57858002 now IPC :0.89482: AVG IPC :1.03730: L2-Pf-HR :0.94050: L2-HR :0.79244: (Sim:0h51m40s) 
CPU  2 inst:   60000004 cyc:   58062716 now IPC :0.86987: AVG IPC :1.01605: L2-Pf-HR :0.92787: L2-HR :0.77733: (Sim:0h51m48s) 
CPU  1 inst:   62000003 cyc:   58577157 now IPC :1.02772: AVG IPC :1.04169: L2-Pf-HR :0.95251: L2-HR :0.80694: (Sim:0h52m6s) 
CPU  0 inst:   62000003 cyc:   58669501 now IPC :1.01760: AVG IPC :1.04003: L2-Pf-HR :0.93546: L2-HR :0.78290: (Sim:0h52m9s) 
CPU  3 inst:   62000002 cyc:   58880151 now IPC :0.97833: AVG IPC :1.03625: L2-Pf-HR :0.94086: L2-HR :0.79243: (Sim:0h52m15s) 
CPU  2 inst:   61000002 cyc:   59242322 now IPC :0.84774: AVG IPC :1.01265: L2-Pf-HR :0.92806: L2-HR :0.77668: (Sim:0h52m26s) 
CPU  1 inst:   63000001 cyc:   59606638 now IPC :0.97136: AVG IPC :1.04045: L2-Pf-HR :0.95288: L2-HR :0.80692: (Sim:0h52m37s) 
CPU  0 inst:   63000001 cyc:   59849104 now IPC :0.84774: AVG IPC :1.03618: L2-Pf-HR :0.93582: L2-HR :0.78283: (Sim:0h52m44s) 
CPU  3 inst:   63000001 cyc:   59911652 now IPC :0.96946: AVG IPC :1.03509: L2-Pf-HR :0.94123: L2-HR :0.79258: (Sim:0h52m46s) 
CPU  2 inst:   62000003 cyc:   60432366 now IPC :0.84031: AVG IPC :1.00920: L2-Pf-HR :0.92813: L2-HR :0.77643: (Sim:0h53m1s) 
CPU  1 inst:   64000000 cyc:   60634460 now IPC :0.97293: AVG IPC :1.03929: L2-Pf-HR :0.95242: L2-HR :0.80702: (Sim:0h53m7s) 
CPU  0 inst:   64000000 cyc:   61150398 now IPC :0.76847: AVG IPC :1.03039: L2-Pf-HR :0.93567: L2-HR :0.78259: (Sim:0h53m21s) 
CPU  3 inst:   64000004 cyc:   61212881 now IPC :0.76851: AVG IPC :1.02933: L2-Pf-HR :0.94124: L2-HR :0.79282: (Sim:0h53m23s) 
CPU  2 inst:   63000004 cyc:   61447915 now IPC :0.98469: AVG IPC :1.00879: L2-Pf-HR :0.92857: L2-HR :0.77627: (Sim:0h53m30s) 
CPU  1 inst:   65000002 cyc:   61973559 now IPC :0.74677: AVG IPC :1.03287: L2-Pf-HR :0.95200: L2-HR :0.80656: (Sim:0h53m45s) 
CPU  0 inst:   65000002 cyc:   62476374 now IPC :0.75416: AVG IPC :1.02443: L2-Pf-HR :0.93486: L2-HR :0.78153: (Sim:0h54m0s) 
CPU  3 inst:   65000002 cyc:   62577776 now IPC :0.73266: AVG IPC :1.02275: L2-Pf-HR :0.94088: L2-HR :0.79229: (Sim:0h54m2s) 
CPU  2 inst:   64000000 cyc:   62647957 now IPC :0.83330: AVG IPC :1.00537: L2-Pf-HR :0.92809: L2-HR :0.77605: (Sim:0h54m5s) 
CPU  1 inst:   66000004 cyc:   63044343 now IPC :0.93390: AVG IPC :1.03116: L2-Pf-HR :0.95194: L2-HR :0.80642: (Sim:0h54m17s) 
CPU  0 inst:   66000004 cyc:   63628447 now IPC :0.86800: AVG IPC :1.02156: L2-Pf-HR :0.93494: L2-HR :0.78163: (Sim:0h54m33s) 
CPU  3 inst:   66000004 cyc:   63738740 now IPC :0.86135: AVG IPC :1.01977: L2-Pf-HR :0.94063: L2-HR :0.79197: (Sim:0h54m37s) 
CPU  2 inst:   65000002 cyc:   63820948 now IPC :0.85252: AVG IPC :1.00252: L2-Pf-HR :0.92764: L2-HR :0.77541: (Sim:0h54m40s) 
CPU  1 inst:   67000004 cyc:   64159450 now IPC :0.89677: AVG IPC :1.02879: L2-Pf-HR :0.95191: L2-HR :0.80656: (Sim:0h54m51s) 
CPU  0 inst:   67000004 cyc:   64636719 now IPC :0.99180: AVG IPC :1.02109: L2-Pf-HR :0.93507: L2-HR :0.78194: (Sim:0h55m6s) 
CPU  3 inst:   67000004 cyc:   64779386 now IPC :0.96094: AVG IPC :1.01881: L2-Pf-HR :0.94053: L2-HR :0.79189: (Sim:0h55m10s) 
CPU  2 inst:   66000004 cyc:   64867254 now IPC :0.95575: AVG IPC :1.00175: L2-Pf-HR :0.92771: L2-HR :0.77561: (Sim:0h55m13s) 
CPU  1 inst:   68000005 cyc:   65211799 now IPC :0.95026: AVG IPC :1.02750: L2-Pf-HR :0.95198: L2-HR :0.80671: (Sim:0h55m24s) 
CPU  0 inst:   68000005 cyc:   65638983 now IPC :0.99774: AVG IPC :1.02072: L2-Pf-HR :0.93527: L2-HR :0.78221: (Sim:0h55m38s) 
CPU  3 inst:   68000005 cyc:   65798467 now IPC :0.98128: AVG IPC :1.01822: L2-Pf-HR :0.94052: L2-HR :0.79184: (Sim:0h55m43s) 
CPU  2 inst:   67000004 cyc:   65918082 now IPC :0.95163: AVG IPC :1.00094: L2-Pf-HR :0.92795: L2-HR :0.77598: (Sim:0h55m47s) 
CPU  1 inst:   69000000 cyc:   66232876 now IPC :0.97935: AVG IPC :1.02675: L2-Pf-HR :0.95186: L2-HR :0.80682: (Sim:0h55m58s) 
CPU  0 inst:   69000000 cyc:   66643598 now IPC :0.99540: AVG IPC :1.02034: L2-Pf-HR :0.93512: L2-HR :0.78246: (Sim:0h56m15s) 
CPU  3 inst:   69000000 cyc:   66807921 now IPC :0.99063: AVG IPC :1.01779: L2-Pf-HR :0.94012: L2-HR :0.79204: (Sim:0h56m24s) 
CPU  2 inst:   68000005 cyc:   66950043 now IPC :0.96903: AVG IPC :1.00044: L2-Pf-HR :0.92830: L2-HR :0.77635: (Sim:0h56m31s) 
CPU  1 inst:   70000004 cyc:   67224575 now IPC :1.00837: AVG IPC :1.02647: L2-Pf-HR :0.95164: L2-HR :0.80677: (Sim:0h56m46s) 
CPU  0 inst:   70000004 cyc:   67663619 now IPC :0.98038: AVG IPC :1.01973: L2-Pf-HR :0.93500: L2-HR :0.78251: (Sim:0h57m9s) 
CPU  3 inst:   70000004 cyc:   67780183 now IPC :1.02853: AVG IPC :1.01795: L2-Pf-HR :0.93978: L2-HR :0.79228: (Sim:0h57m15s) 
CPU  2 inst:   69000000 cyc:   67990399 now IPC :0.96120: AVG IPC :0.99983: L2-Pf-HR :0.92794: L2-HR :0.77636: (Sim:0h57m25s) 
CPU  1 inst:   71000001 cyc:   68397617 now IPC :0.85248: AVG IPC :1.02344: L2-Pf-HR :0.95129: L2-HR :0.80624: (Sim:0h57m44s) 
CPU  0 inst:   71000004 cyc:   68938313 now IPC :0.78450: AVG IPC :1.01531: L2-Pf-HR :0.93472: L2-HR :0.78202: (Sim:0h57m59s) 
CPU  3 inst:   71000001 cyc:   69034748 now IPC :0.79709: AVG IPC :1.01388: L2-Pf-HR :0.93952: L2-HR :0.79207: (Sim:0h58m3s) 
CPU  2 inst:   70000004 cyc:   69139305 now IPC :0.87040: AVG IPC :0.99765: L2-Pf-HR :0.92759: L2-HR :0.77629: (Sim:0h58m7s) 
CPU  1 inst:   72000005 cyc:   69496760 now IPC :0.90980: AVG IPC :1.02162: L2-Pf-HR :0.95160: L2-HR :0.80631: (Sim:0h58m19s) 
CPU  0 inst:   72000005 cyc:   69906671 now IPC :1.03268: AVG IPC :1.01556: L2-Pf-HR :0.93531: L2-HR :0.78225: (Sim:0h58m32s) 
CPU  3 inst:   72000005 cyc:   70065131 now IPC :0.97052: AVG IPC :1.01323: L2-Pf-HR :0.93980: L2-HR :0.79195: (Sim:0h58m36s) 
CPU  2 inst:   71000001 cyc:   70285327 now IPC :0.87258: AVG IPC :0.99558: L2-Pf-HR :0.92748: L2-HR :0.77590: (Sim:0h58m43s) 
CPU  1 inst:   73000001 cyc:   70473317 now IPC :1.02400: AVG IPC :1.02166: L2-Pf-HR :0.95195: L2-HR :0.80658: (Sim:0h58m49s) 
CPU  0 inst:   73000001 cyc:   70955858 now IPC :0.95312: AVG IPC :1.01462: L2-Pf-HR :0.93588: L2-HR :0.78259: (Sim:0h59m5s) 
CPU  3 inst:   73000001 cyc:   71052497 now IPC :1.01279: AVG IPC :1.01323: L2-Pf-HR :0.94025: L2-HR :0.79197: (Sim:0h59m8s) 
CPU  2 inst:   72000005 cyc:   71248205 now IPC :1.03856: AVG IPC :0.99617: L2-Pf-HR :0.92804: L2-HR :0.77626: (Sim:0h59m14s) 
CPU  1 inst:   74000002 cyc:   71443766 now IPC :1.03045: AVG IPC :1.02178: L2-Pf-HR :0.95248: L2-HR :0.80685: (Sim:0h59m21s) 
CPU  0 inst:   74000002 cyc:   71937414 now IPC :1.01879: AVG IPC :1.01468: L2-Pf-HR :0.93659: L2-HR :0.78294: (Sim:0h59m37s) 
CPU  3 inst:   74000002 cyc:   72078421 now IPC :0.97473: AVG IPC :1.01267: L2-Pf-HR :0.94073: L2-HR :0.79198: (Sim:0h59m42s) 
CPU  2 inst:   73000001 cyc:   72181988 now IPC :1.07091: AVG IPC :0.99715: L2-Pf-HR :0.92853: L2-HR :0.77663: (Sim:0h59m45s) 
CPU  1 inst:   75000000 cyc:   72426922 now IPC :1.01713: AVG IPC :1.02171: L2-Pf-HR :0.95271: L2-HR :0.80723: (Sim:0h59m53s) 
CPU  0 inst:   75000000 cyc:   72873191 now IPC :1.06863: AVG IPC :1.01538: L2-Pf-HR :0.93694: L2-HR :0.78348: (Sim:1h0m8s) 
CPU  3 inst:   75000000 cyc:   73070038 now IPC :1.00845: AVG IPC :1.01261: L2-Pf-HR :0.94095: L2-HR :0.79243: (Sim:1h0m15s) 
CPU  2 inst:   74000002 cyc:   73118006 now IPC :1.06836: AVG IPC :0.99807: L2-Pf-HR :0.92932: L2-HR :0.77706: (Sim:1h0m16s) 
CPU  1 inst:   76000003 cyc:   73442153 now IPC :0.98500: AVG IPC :1.02120: L2-Pf-HR :0.95297: L2-HR :0.80730: (Sim:1h0m27s) 
CPU  0 inst:   76000003 cyc:   73797879 now IPC :1.08145: AVG IPC :1.01622: L2-Pf-HR :0.93701: L2-HR :0.78357: (Sim:1h0m46s) 
CPU  3 inst:   76000003 cyc:   74038135 now IPC :1.03296: AVG IPC :1.01288: L2-Pf-HR :0.94090: L2-HR :0.79266: (Sim:1h0m59s) 
CPU  2 inst:   75000000 cyc:   74065071 now IPC :1.05589: AVG IPC :0.99882: L2-Pf-HR :0.92960: L2-HR :0.77733: (Sim:1h1m0s) 
CPU  1 inst:   77000003 cyc:   74522492 now IPC :0.92564: AVG IPC :1.01979: L2-Pf-HR :0.95284: L2-HR :0.80702: (Sim:1h1m24s) 
CPU  0 inst:   77000003 cyc:   74846339 now IPC :0.95378: AVG IPC :1.01533: L2-Pf-HR :0.93701: L2-HR :0.78323: (Sim:1h1m40s) 
CPU  2 inst:   76000003 cyc:   75048976 now IPC :1.01636: AVG IPC :0.99906: L2-Pf-HR :0.92956: L2-HR :0.77732: (Sim:1h1m50s) 
CPU  3 inst:   77000003 cyc:   75121994 now IPC :0.92263: AVG IPC :1.01156: L2-Pf-HR :0.94104: L2-HR :0.79260: (Sim:1h1m55s) 
CPU  1 inst:   78000004 cyc:   75593662 now IPC :0.93356: AVG IPC :1.01856: L2-Pf-HR :0.95320: L2-HR :0.80708: (Sim:1h2m19s) 
CPU  0 inst:   78000004 cyc:   75824021 now IPC :1.02283: AVG IPC :1.01543: L2-Pf-HR :0.93723: L2-HR :0.78283: (Sim:1h2m31s) 
CPU  2 inst:   77000003 cyc:   76199055 now IPC :0.86951: AVG IPC :0.99708: L2-Pf-HR :0.92942: L2-HR :0.77688: (Sim:1h2m45s) 
CPU  3 inst:   78000002 cyc:   76214742 now IPC :0.91512: AVG IPC :1.01016: L2-Pf-HR :0.94123: L2-HR :0.79254: (Sim:1h2m46s) 
CPU  1 inst:   79000000 cyc:   76711319 now IPC :0.89473: AVG IPC :1.01673: L2-Pf-HR :0.95342: L2-HR :0.80714: (Sim:1h3m6s) 
CPU  0 inst:   79000000 cyc:   76885386 now IPC :0.94218: AVG IPC :1.01441: L2-Pf-HR :0.93761: L2-HR :0.78292: (Sim:1h3m15s) 
CPU  2 inst:   78000004 cyc:   77308233 now IPC :0.90157: AVG IPC :0.99569: L2-Pf-HR :0.92935: L2-HR :0.77659: (Sim:1h3m36s) 
CPU  3 inst:   79000000 cyc:   77416267 now IPC :0.83227: AVG IPC :1.00737: L2-Pf-HR :0.94166: L2-HR :0.79273: (Sim:1h3m42s) 
CPU  1 inst:   80000002 cyc:   77639429 now IPC :1.07746: AVG IPC :1.01746: L2-Pf-HR :0.95302: L2-HR :0.80715: (Sim:1h3m53s) 
CPU  0 inst:   80000002 cyc:   77964296 now IPC :0.92686: AVG IPC :1.01318: L2-Pf-HR :0.93707: L2-HR :0.78268: (Sim:1h4m10s) 
CPU  2 inst:   79000000 cyc:   78300408 now IPC :1.00788: AVG IPC :0.99584: L2-Pf-HR :0.92971: L2-HR :0.77655: (Sim:1h4m28s) 
CPU  3 inst:   80000002 cyc:   78489734 now IPC :0.93156: AVG IPC :1.00632: L2-Pf-HR :0.94147: L2-HR :0.79284: (Sim:1h4m37s) 
CPU  1 inst:   81000005 cyc:   78717679 now IPC :0.92743: AVG IPC :1.01622: L2-Pf-HR :0.95285: L2-HR :0.80679: (Sim:1h4m48s) 
CPU  0 inst:   81000000 cyc:   79155407 now IPC :0.83955: AVG IPC :1.01054: L2-Pf-HR :0.93650: L2-HR :0.78187: (Sim:1h5m8s) 
CPU  2 inst:   80000002 cyc:   79447870 now IPC :0.87149: AVG IPC :0.99403: L2-Pf-HR :0.92919: L2-HR :0.77640: (Sim:1h5m22s) 
CPU  3 inst:   81000001 cyc:   79760924 now IPC :0.78666: AVG IPC :1.00277: L2-Pf-HR :0.94116: L2-HR :0.79251: (Sim:1h5m35s) 
CPU  1 inst:   82000003 cyc:   79918520 now IPC :0.83275: AVG IPC :1.01342: L2-Pf-HR :0.95270: L2-HR :0.80682: (Sim:1h5m43s) 
CPU  0 inst:   82000003 cyc:   80231947 now IPC :0.92890: AVG IPC :1.00943: L2-Pf-HR :0.93640: L2-HR :0.78200: (Sim:1h5m59s) 
CPU  2 inst:   81000001 cyc:   80813212 now IPC :0.73242: AVG IPC :0.98955: L2-Pf-HR :0.92853: L2-HR :0.77578: (Sim:1h6m23s) 
CPU  3 inst:   82000003 cyc:   81015781 now IPC :0.79691: AVG IPC :0.99954: L2-Pf-HR :0.94105: L2-HR :0.79239: (Sim:1h6m33s) 
CPU  1 inst:   83000000 cyc:   81114533 now IPC :0.83611: AVG IPC :1.01078: L2-Pf-HR :0.95259: L2-HR :0.80681: (Sim:1h6m37s) 
CPU  0 inst:   83000000 cyc:   81486865 now IPC :0.79686: AVG IPC :1.00611: L2-Pf-HR :0.93641: L2-HR :0.78216: (Sim:1h6m55s) 
CPU  2 inst:   82000003 cyc:   82041798 now IPC :0.81395: AVG IPC :0.98689: L2-Pf-HR :0.92870: L2-HR :0.77605: (Sim:1h7m22s) 
CPU  1 inst:   84000002 cyc:   82140504 now IPC :0.97469: AVG IPC :1.01032: L2-Pf-HR :0.95264: L2-HR :0.80698: (Sim:1h7m26s) 
CPU  3 inst:   83000000 cyc:   82287653 now IPC :0.78624: AVG IPC :0.99621: L2-Pf-HR :0.94095: L2-HR :0.79225: (Sim:1h7m33s) 
CPU  0 inst:   84000002 cyc:   82769788 now IPC :0.77947: AVG IPC :1.00256: L2-Pf-HR :0.93661: L2-HR :0.78246: (Sim:1h7m56s) 
CPU  1 inst:   85000004 cyc:   83187506 now IPC :0.95511: AVG IPC :1.00962: L2-Pf-HR :0.95257: L2-HR :0.80712: (Sim:1h8m15s) 
CPU  2 inst:   83000000 cyc:   83311429 now IPC :0.78763: AVG IPC :0.98382: L2-Pf-HR :0.92882: L2-HR :0.77622: (Sim:1h8m21s) 
CPU  3 inst:   84000002 cyc:   83520062 now IPC :0.81142: AVG IPC :0.99345: L2-Pf-HR :0.94095: L2-HR :0.79224: (Sim:1h8m31s) 
CPU  0 inst:   85000004 cyc:   84057565 now IPC :0.77653: AVG IPC :0.99905: L2-Pf-HR :0.93674: L2-HR :0.78275: (Sim:1h8m56s) 
CPU  1 inst:   86000004 cyc:   84360661 now IPC :0.85240: AVG IPC :1.00741: L2-Pf-HR :0.95245: L2-HR :0.80705: (Sim:1h9m10s) 
CPU  2 inst:   84000002 cyc:   84473237 now IPC :0.86073: AVG IPC :0.98211: L2-Pf-HR :0.92911: L2-HR :0.77654: (Sim:1h9m16s) 
CPU  3 inst:   85000004 cyc:   84710340 now IPC :0.84014: AVG IPC :0.99127: L2-Pf-HR :0.94104: L2-HR :0.79248: (Sim:1h9m26s) 
CPU  0 inst:   86000004 cyc:   85262718 now IPC :0.82977: AVG IPC :0.99663: L2-Pf-HR :0.93635: L2-HR :0.78277: (Sim:1h9m53s) 
CPU  1 inst:   87000000 cyc:   85712274 now IPC :0.73985: AVG IPC :1.00314: L2-Pf-HR :0.95209: L2-HR :0.80656: (Sim:1h10m11s) 
CPU  2 inst:   85000004 cyc:   85770694 now IPC :0.77074: AVG IPC :0.97887: L2-Pf-HR :0.92908: L2-HR :0.77660: (Sim:1h10m15s) 
CPU  3 inst:   86000004 cyc:   85900688 now IPC :0.84009: AVG IPC :0.98915: L2-Pf-HR :0.94069: L2-HR :0.79250: (Sim:1h10m22s) 
CPU  0 inst:   87000000 cyc:   86597505 now IPC :0.74918: AVG IPC :0.99278: L2-Pf-HR :0.93613: L2-HR :0.78237: (Sim:1h10m54s) 
CPU  1 inst:   88000003 cyc:   86819097 now IPC :0.90349: AVG IPC :1.00185: L2-Pf-HR :0.95235: L2-HR :0.80666: (Sim:1h11m6s) 
CPU  2 inst:   86000004 cyc:   86869260 now IPC :0.91028: AVG IPC :0.97799: L2-Pf-HR :0.92853: L2-HR :0.77655: (Sim:1h11m8s) 
CPU  3 inst:   87000000 cyc:   87167103 now IPC :0.78963: AVG IPC :0.98622: L2-Pf-HR :0.94053: L2-HR :0.79224: (Sim:1h11m21s) 
CPU  0 inst:   88000003 cyc:   87718448 now IPC :0.89211: AVG IPC :0.99148: L2-Pf-HR :0.93656: L2-HR :0.78258: (Sim:1h11m49s) 
CPU  1 inst:   89000003 cyc:   88007685 now IPC :0.84133: AVG IPC :0.99966: L2-Pf-HR :0.95271: L2-HR :0.80675: (Sim:1h12m2s) 
CPU  2 inst:   87000001 cyc:   88111280 now IPC :0.80514: AVG IPC :0.97553: L2-Pf-HR :0.92831: L2-HR :0.77620: (Sim:1h12m8s) 
CPU  3 inst:   88000003 cyc:   88279738 now IPC :0.89877: AVG IPC :0.98510: L2-Pf-HR :0.94076: L2-HR :0.79221: (Sim:1h12m16s) 
CPU  0 inst:   89000003 cyc:   88847153 now IPC :0.88597: AVG IPC :0.99012: L2-Pf-HR :0.93711: L2-HR :0.78274: (Sim:1h12m46s) 
CPU  1 inst:   90000004 cyc:   89080865 now IPC :0.93181: AVG IPC :0.99884: L2-Pf-HR :0.95313: L2-HR :0.80710: (Sim:1h12m58s) 
CPU  2 inst:   88000003 cyc:   89138236 now IPC :0.97375: AVG IPC :0.97551: L2-Pf-HR :0.92870: L2-HR :0.77655: (Sim:1h13m1s) 
CPU  3 inst:   89000003 cyc:   89301840 now IPC :0.97838: AVG IPC :0.98503: L2-Pf-HR :0.94104: L2-HR :0.79208: (Sim:1h13m9s) 
CPU  0 inst:   90000004 cyc:   89886661 now IPC :0.96199: AVG IPC :0.98979: L2-Pf-HR :0.93757: L2-HR :0.78320: (Sim:1h13m40s) 
CPU  1 inst:   91000001 cyc:   90137334 now IPC :0.94655: AVG IPC :0.99822: L2-Pf-HR :0.95335: L2-HR :0.80724: (Sim:1h13m53s) 
CPU  2 inst:   89000003 cyc:   90165503 now IPC :0.97346: AVG IPC :0.97549: L2-Pf-HR :0.92921: L2-HR :0.77671: (Sim:1h13m55s) 
CPU  3 inst:   90000004 cyc:   90325200 now IPC :0.97717: AVG IPC :0.98494: L2-Pf-HR :0.94140: L2-HR :0.79223: (Sim:1h14m3s) 
CPU  0 inst:   91000001 cyc:   90914356 now IPC :0.97305: AVG IPC :0.98960: L2-Pf-HR :0.93806: L2-HR :0.78349: (Sim:1h14m34s) 
CPU  1 inst:   92000004 cyc:   91129898 now IPC :1.00749: AVG IPC :0.99832: L2-Pf-HR :0.95335: L2-HR :0.80747: (Sim:1h14m45s) 
CPU  2 inst:   90000004 cyc:   91208224 now IPC :0.95903: AVG IPC :0.97530: L2-Pf-HR :0.92973: L2-HR :0.77723: (Sim:1h14m50s) 
CPU  3 inst:   91000001 cyc:   91444195 now IPC :0.89366: AVG IPC :0.98381: L2-Pf-HR :0.94181: L2-HR :0.79242: (Sim:1h15m2s) 
CPU  0 inst:   92000004 cyc:   91911709 now IPC :1.00266: AVG IPC :0.98974: L2-Pf-HR :0.93788: L2-HR :0.78371: (Sim:1h15m27s) 
CPU  1 inst:   93000001 cyc:   92275083 now IPC :0.87322: AVG IPC :0.99675: L2-Pf-HR :0.95326: L2-HR :0.80717: (Sim:1h15m44s) 
CPU  2 inst:   91000001 cyc:   92340494 now IPC :0.88318: AVG IPC :0.97415: L2-Pf-HR :0.93006: L2-HR :0.77727: (Sim:1h15m47s) 
CPU  3 inst:   92000001 cyc:   92425691 now IPC :1.01885: AVG IPC :0.98418: L2-Pf-HR :0.94171: L2-HR :0.79270: (Sim:1h15m53s) 
CPU  0 inst:   93000002 cyc:   93088739 now IPC :0.84959: AVG IPC :0.98795: L2-Pf-HR :0.93794: L2-HR :0.78334: (Sim:1h16m25s) 
CPU  1 inst:   94000001 cyc:   93385387 now IPC :0.90065: AVG IPC :0.99559: L2-Pf-HR :0.95348: L2-HR :0.80730: (Sim:1h16m41s) 
CPU  2 inst:   92000004 cyc:   93417086 now IPC :0.92886: AVG IPC :0.97363: L2-Pf-HR :0.92986: L2-HR :0.77742: (Sim:1h16m42s) 
CPU  3 inst:   93000002 cyc:   93685703 now IPC :0.79364: AVG IPC :0.98159: L2-Pf-HR :0.94188: L2-HR :0.79260: (Sim:1h16m54s) 
CPU  0 inst:   94000001 cyc:   94179881 now IPC :0.91647: AVG IPC :0.98712: L2-Pf-HR :0.93794: L2-HR :0.78305: (Sim:1h17m19s) 
CPU  1 inst:   95000005 cyc:   94389319 now IPC :0.99609: AVG IPC :0.99560: L2-Pf-HR :0.95363: L2-HR :0.80732: (Sim:1h17m31s) 
CPU  2 inst:   93000002 cyc:   94642103 now IPC :0.81631: AVG IPC :0.97157: L2-Pf-HR :0.92985: L2-HR :0.77713: (Sim:1h17m43s) 
CPU  3 inst:   94000001 cyc:   94796220 now IPC :0.90048: AVG IPC :0.98063: L2-Pf-HR :0.94205: L2-HR :0.79258: (Sim:1h17m51s) 
CPU  0 inst:   95000005 cyc:   95281889 now IPC :0.90744: AVG IPC :0.98618: L2-Pf-HR :0.93811: L2-HR :0.78314: (Sim:1h18m15s) 
CPU  1 inst:   96000000 cyc:   95423638 now IPC :0.96681: AVG IPC :0.99528: L2-Pf-HR :0.95354: L2-HR :0.80730: (Sim:1h18m21s) 
CPU  2 inst:   94000001 cyc:   95734887 now IPC :0.91509: AVG IPC :0.97092: L2-Pf-HR :0.92974: L2-HR :0.77692: (Sim:1h18m37s) 
CPU  3 inst:   95000005 cyc:   95994147 now IPC :0.83478: AVG IPC :0.97879: L2-Pf-HR :0.94229: L2-HR :0.79271: (Sim:1h18m51s) 
CPU  0 inst:   96000000 cyc:   96310117 now IPC :0.97254: AVG IPC :0.98604: L2-Pf-HR :0.93805: L2-HR :0.78297: (Sim:1h19m8s) 
CPU  1 inst:   97000000 cyc:   96632137 now IPC :0.82747: AVG IPC :0.99316: L2-Pf-HR :0.95333: L2-HR :0.80706: (Sim:1h19m23s) 
CPU  2 inst:   95000005 cyc:   96797781 now IPC :0.94083: AVG IPC :0.97058: L2-Pf-HR :0.92985: L2-HR :0.77682: (Sim:1h19m31s) 
CPU  3 inst:   96000000 cyc:   97034406 now IPC :0.96129: AVG IPC :0.97861: L2-Pf-HR :0.94236: L2-HR :0.79280: (Sim:1h19m42s) 
CPU  0 inst:   97000000 cyc:   97649076 now IPC :0.74685: AVG IPC :0.98272: L2-Pf-HR :0.93743: L2-HR :0.78227: (Sim:1h20m10s) 
CPU  2 inst:   96000000 cyc:   97882230 now IPC :0.92212: AVG IPC :0.97004: L2-Pf-HR :0.92972: L2-HR :0.77672: (Sim:1h20m22s) 
CPU  1 inst:   98000002 cyc:   98014739 now IPC :0.72328: AVG IPC :0.98932: L2-Pf-HR :0.95325: L2-HR :0.80697: (Sim:1h20m29s) 
CPU  3 inst:   97000000 cyc:   98298768 now IPC :0.79091: AVG IPC :0.97617: L2-Pf-HR :0.94199: L2-HR :0.79253: (Sim:1h20m40s) 
CPU  0 inst:   98000005 cyc:   98959921 now IPC :0.76287: AVG IPC :0.97978: L2-Pf-HR :0.93735: L2-HR :0.78223: (Sim:1h21m12s) 
CPU  2 inst:   97000000 cyc:   99196944 now IPC :0.76062: AVG IPC :0.96724: L2-Pf-HR :0.92915: L2-HR :0.77612: (Sim:1h21m22s) 
CPU  1 inst:   99000002 cyc:   99358363 now IPC :0.74426: AVG IPC :0.98597: L2-Pf-HR :0.95320: L2-HR :0.80697: (Sim:1h21m30s) 
CPU  3 inst:   98000001 cyc:   99481843 now IPC :0.84526: AVG IPC :0.97459: L2-Pf-HR :0.94193: L2-HR :0.79239: (Sim:1h21m36s) 
CPU  0 inst:   99000002 cyc:  100166542 now IPC :0.82876: AVG IPC :0.97795: L2-Pf-HR :0.93739: L2-HR :0.78238: (Sim:1h22m9s) 
CPU  2 inst:   98000005 cyc:  100393778 now IPC :0.83554: AVG IPC :0.96565: L2-Pf-HR :0.92933: L2-HR :0.77634: (Sim:1h22m20s) 
CPU  1 inst:  100000001 cyc:  100554442 now IPC :0.83606: AVG IPC :0.98417: L2-Pf-HR :0.95319: L2-HR :0.80708: (Sim:1h22m28s) 
CPU  3 inst:   99000002 cyc:  100669325 now IPC :0.84212: AVG IPC :0.97302: L2-Pf-HR :0.94182: L2-HR :0.79232: (Sim:1h22m34s) 
CPU  0 inst:  100000005 cyc:  101359479 now IPC :0.83827: AVG IPC :0.97629: L2-Pf-HR :0.93753: L2-HR :0.78262: (Sim:1h23m7s) 
CPU  2 inst:   99000002 cyc:  101575118 now IPC :0.84649: AVG IPC :0.96425: L2-Pf-HR :0.92939: L2-HR :0.77648: (Sim:1h23m18s) 
CPU  1 inst:  101000003 cyc:  101758631 now IPC :0.83044: AVG IPC :0.98233: L2-Pf-HR :0.95322: L2-HR :0.80718: (Sim:1h23m27s) 
CPU  3 inst:  100000001 cyc:  101823315 now IPC :0.86656: AVG IPC :0.97180: L2-Pf-HR :0.94179: L2-HR :0.79228: (Sim:1h23m30s) 
CPU  0 inst:  101000003 cyc:  102522284 now IPC :0.85999: AVG IPC :0.97495: L2-Pf-HR :0.93760: L2-HR :0.78287: (Sim:1h24m5s) 
CPU  2 inst:  100000001 cyc:  102764085 now IPC :0.84107: AVG IPC :0.96281: L2-Pf-HR :0.92965: L2-HR :0.77677: (Sim:1h24m17s) 
CPU  1 inst:  102000001 cyc:  102936073 now IPC :0.84930: AVG IPC :0.98080: L2-Pf-HR :0.95292: L2-HR :0.80723: (Sim:1h24m25s) 
CPU  3 inst:  101000003 cyc:  102980912 now IPC :0.86386: AVG IPC :0.97057: L2-Pf-HR :0.94174: L2-HR :0.79242: (Sim:1h24m27s) 
CPU  0 inst:  102000001 cyc:  103639942 now IPC :0.89473: AVG IPC :0.97408: L2-Pf-HR :0.93730: L2-HR :0.78292: (Sim:1h25m1s) 
CPU  2 inst:  101000003 cyc:  103911927 now IPC :0.87120: AVG IPC :0.96179: L2-Pf-HR :0.92952: L2-HR :0.77677: (Sim:1h25m14s) 
CPU  3 inst:  102000001 cyc:  104032125 now IPC :0.95128: AVG IPC :0.97038: L2-Pf-HR :0.94136: L2-HR :0.79254: (Sim:1h25m21s) 
CPU  1 inst:  103000001 cyc:  104069747 now IPC :0.88209: AVG IPC :0.97971: L2-Pf-HR :0.95283: L2-HR :0.80705: (Sim:1h25m23s) 
CPU  0 inst:  103000003 cyc:  104681626 now IPC :0.95999: AVG IPC :0.97394: L2-Pf-HR :0.93730: L2-HR :0.78282: (Sim:1h25m53s) 
CPU  2 inst:  102000001 cyc:  105032567 now IPC :0.89235: AVG IPC :0.96104: L2-Pf-HR :0.92921: L2-HR :0.77682: (Sim:1h26m8s) 
CPU  3 inst:  103000003 cyc:  105284613 now IPC :0.79841: AVG IPC :0.96831: L2-Pf-HR :0.94132: L2-HR :0.79262: (Sim:1h26m21s) 
CPU  1 inst:  104000003 cyc:  105373410 now IPC :0.76707: AVG IPC :0.97706: L2-Pf-HR :0.95274: L2-HR :0.80670: (Sim:1h26m25s) 
CPU  0 inst:  104000004 cyc:  105860723 now IPC :0.84811: AVG IPC :0.97252: L2-Pf-HR :0.93748: L2-HR :0.78261: (Sim:1h26m50s) 
CPU  2 inst:  103000001 cyc:  106145413 now IPC :0.89860: AVG IPC :0.96038: L2-Pf-HR :0.92917: L2-HR :0.77681: (Sim:1h27m6s) 
CPU  1 inst:  105000001 cyc:  106389886 now IPC :0.98379: AVG IPC :0.97712: L2-Pf-HR :0.95299: L2-HR :0.80686: (Sim:1h27m17s) 
CPU  3 inst:  104000000 cyc:  106504405 now IPC :0.81981: AVG IPC :0.96659: L2-Pf-HR :0.94137: L2-HR :0.79233: (Sim:1h27m22s) 
CPU  0 inst:  105000001 cyc:  106932076 now IPC :0.93340: AVG IPC :0.97213: L2-Pf-HR :0.93784: L2-HR :0.78285: (Sim:1h27m45s) 
CPU  1 inst:  106000005 cyc:  107364319 now IPC :1.02624: AVG IPC :0.97757: L2-Pf-HR :0.95330: L2-HR :0.80703: (Sim:1h28m6s) 
CPU  2 inst:  104000000 cyc:  107397685 now IPC :0.79855: AVG IPC :0.95848: L2-Pf-HR :0.92943: L2-HR :0.77674: (Sim:1h28m8s) 
CPU  3 inst:  105000001 cyc:  107564471 now IPC :0.94334: AVG IPC :0.96636: L2-Pf-HR :0.94156: L2-HR :0.79231: (Sim:1h28m17s) 
CPU  0 inst:  106000005 cyc:  108061872 now IPC :0.88512: AVG IPC :0.97121: L2-Pf-HR :0.93829: L2-HR :0.78308: (Sim:1h28m42s) 
CPU  1 inst:  107000005 cyc:  108416742 now IPC :0.95019: AVG IPC :0.97730: L2-Pf-HR :0.95349: L2-HR :0.80729: (Sim:1h29m1s) 
CPU  2 inst:  105000001 cyc:  108447252 now IPC :0.95277: AVG IPC :0.95842: L2-Pf-HR :0.92983: L2-HR :0.77699: (Sim:1h29m2s) 
CPU  3 inst:  106000005 cyc:  108637226 now IPC :0.93218: AVG IPC :0.96602: L2-Pf-HR :0.94185: L2-HR :0.79229: (Sim:1h29m11s) 
CPU  0 inst:  107000005 cyc:  109176816 now IPC :0.89691: AVG IPC :0.97044: L2-Pf-HR :0.93862: L2-HR :0.78345: (Sim:1h29m39s) 
CPU  1 inst:  108000002 cyc:  109521142 now IPC :0.90547: AVG IPC :0.97657: L2-Pf-HR :0.95364: L2-HR :0.80742: (Sim:1h29m56s) 
CPU  2 inst:  106000005 cyc:  109546072 now IPC :0.91007: AVG IPC :0.95793: L2-Pf-HR :0.93043: L2-HR :0.77727: (Sim:1h29m58s) 
CPU  3 inst:  107000005 cyc:  109671430 now IPC :0.96693: AVG IPC :0.96603: L2-Pf-HR :0.94213: L2-HR :0.79259: (Sim:1h30m5s) 
CPU  0 inst:  108000002 cyc:  110287230 now IPC :0.90056: AVG IPC :0.96974: L2-Pf-HR :0.93862: L2-HR :0.78357: (Sim:1h30m37s) 
CPU  2 inst:  107000005 cyc:  110575464 now IPC :0.97145: AVG IPC :0.95806: L2-Pf-HR :0.93082: L2-HR :0.77749: (Sim:1h30m51s) 
CPU  1 inst:  109000004 cyc:  110631470 now IPC :0.90064: AVG IPC :0.97580: L2-Pf-HR :0.95372: L2-HR :0.80739: (Sim:1h30m54s) 
CPU  3 inst:  108000002 cyc:  110641825 now IPC :1.03051: AVG IPC :0.96660: L2-Pf-HR :0.94192: L2-HR :0.79270: (Sim:1h30m55s) 
CPU  0 inst:  109000004 cyc:  111384624 now IPC :0.91125: AVG IPC :0.96915: L2-Pf-HR :0.93876: L2-HR :0.78357: (Sim:1h31m31s) 
CPU  2 inst:  108000002 cyc:  111591333 now IPC :0.98438: AVG IPC :0.95830: L2-Pf-HR :0.93072: L2-HR :0.77745: (Sim:1h31m41s) 
CPU  3 inst:  109000004 cyc:  111650654 now IPC :0.99125: AVG IPC :0.96683: L2-Pf-HR :0.94211: L2-HR :0.79295: (Sim:1h31m44s) 
CPU  1 inst:  110000001 cyc:  111790706 now IPC :0.86263: AVG IPC :0.97462: L2-Pf-HR :0.95380: L2-HR :0.80728: (Sim:1h31m51s) 
CPU  0 inst:  110000002 cyc:  112475609 now IPC :0.91660: AVG IPC :0.96864: L2-Pf-HR :0.93851: L2-HR :0.78308: (Sim:1h32m20s) 
CPU  2 inst:  109000004 cyc:  112639352 now IPC :0.95418: AVG IPC :0.95826: L2-Pf-HR :0.93100: L2-HR :0.77758: (Sim:1h32m26s) 
CPU  3 inst:  110000004 cyc:  112770228 now IPC :0.89320: AVG IPC :0.96609: L2-Pf-HR :0.94232: L2-HR :0.79271: (Sim:1h32m30s) 
CPU  1 inst:  111000004 cyc:  112819168 now IPC :0.97233: AVG IPC :0.97460: L2-Pf-HR :0.95395: L2-HR :0.80727: (Sim:1h32m32s) 
CPU  0 inst:  111000000 cyc:  113418092 now IPC :1.06103: AVG IPC :0.96941: L2-Pf-HR :0.93870: L2-HR :0.78310: (Sim:1h32m51s) 
CPU  2 inst:  110000001 cyc:  113727431 now IPC :0.91905: AVG IPC :0.95789: L2-Pf-HR :0.93077: L2-HR :0.77715: (Sim:1h33m1s) 
CPU  3 inst:  111000001 cyc:  113828698 now IPC :0.94476: AVG IPC :0.96589: L2-Pf-HR :0.94261: L2-HR :0.79277: (Sim:1h33m5s) 
CPU  1 inst:  112000004 cyc:  113858350 now IPC :0.96230: AVG IPC :0.97448: L2-Pf-HR :0.95390: L2-HR :0.80729: (Sim:1h33m7s) 
CPU  0 inst:  112000004 cyc:  114430554 now IPC :0.98770: AVG IPC :0.96958: L2-Pf-HR :0.93867: L2-HR :0.78305: (Sim:1h33m37s) 
CPU  2 inst:  111000001 cyc:  114696282 now IPC :1.03215: AVG IPC :0.95852: L2-Pf-HR :0.93073: L2-HR :0.77701: (Sim:1h33m51s) 
CPU  3 inst:  112000004 cyc:  114888836 now IPC :0.94328: AVG IPC :0.96568: L2-Pf-HR :0.94278: L2-HR :0.79289: (Sim:1h34m1s) 
CPU  1 inst:  113000003 cyc:  114920440 now IPC :0.94154: AVG IPC :0.97418: L2-Pf-HR :0.95398: L2-HR :0.80738: (Sim:1h34m3s) 
CPU  0 inst:  113000003 cyc:  115502729 now IPC :0.93268: AVG IPC :0.96923: L2-Pf-HR :0.93837: L2-HR :0.78274: (Sim:1h34m31s) 
CPU  2 inst:  112000004 cyc:  115755476 now IPC :0.94412: AVG IPC :0.95839: L2-Pf-HR :0.93077: L2-HR :0.77696: (Sim:1h34m43s) 
CPU  3 inst:  113000003 cyc:  115950481 now IPC :0.94193: AVG IPC :0.96546: L2-Pf-HR :0.94277: L2-HR :0.79295: (Sim:1h34m53s) 
CPU  1 inst:  114000003 cyc:  116239883 now IPC :0.75790: AVG IPC :0.97170: L2-Pf-HR :0.95365: L2-HR :0.80700: (Sim:1h35m6s) 
CPU  0 inst:  114000003 cyc:  116746786 now IPC :0.80382: AVG IPC :0.96745: L2-Pf-HR :0.93791: L2-HR :0.78238: (Sim:1h35m32s) 
CPU  2 inst:  113000003 cyc:  116860135 now IPC :0.90526: AVG IPC :0.95788: L2-Pf-HR :0.93072: L2-HR :0.77672: (Sim:1h35m38s) 
CPU  3 inst:  114000003 cyc:  117308428 now IPC :0.73641: AVG IPC :0.96279: L2-Pf-HR :0.94233: L2-HR :0.79254: (Sim:1h35m57s) 
CPU  1 inst:  115000000 cyc:  117384068 now IPC :0.87398: AVG IPC :0.97074: L2-Pf-HR :0.95359: L2-HR :0.80699: (Sim:1h36m1s) 
CPU  0 inst:  115000000 cyc:  117812800 now IPC :0.93807: AVG IPC :0.96719: L2-Pf-HR :0.93798: L2-HR :0.78251: (Sim:1h36m22s) 
CPU  2 inst:  114000003 cyc:  118205639 now IPC :0.74322: AVG IPC :0.95542: L2-Pf-HR :0.93042: L2-HR :0.77650: (Sim:1h36m38s) 
CPU  1 inst:  116000002 cyc:  118429976 now IPC :0.95611: AVG IPC :0.97061: L2-Pf-HR :0.95356: L2-HR :0.80707: (Sim:1h36m46s) 
CPU  3 inst:  115000000 cyc:  118438345 now IPC :0.88502: AVG IPC :0.96204: L2-Pf-HR :0.94227: L2-HR :0.79247: (Sim:1h36m47s) 
CPU  0 inst:  116000002 cyc:  118922569 now IPC :0.90109: AVG IPC :0.96656: L2-Pf-HR :0.93803: L2-HR :0.78269: (Sim:1h37m10s) 
CPU  2 inst:  115000000 cyc:  119447644 now IPC :0.80515: AVG IPC :0.95384: L2-Pf-HR :0.93050: L2-HR :0.77663: (Sim:1h37m34s) 
CPU  1 inst:  117000002 cyc:  119454323 now IPC :0.97623: AVG IPC :0.97066: L2-Pf-HR :0.95358: L2-HR :0.80718: (Sim:1h37m35s) 
CPU  3 inst:  116000002 cyc:  119657493 now IPC :0.82025: AVG IPC :0.96058: L2-Pf-HR :0.94216: L2-HR :0.79243: (Sim:1h37m44s) 
CPU  0 inst:  117000001 cyc:  120146154 now IPC :0.81727: AVG IPC :0.96503: L2-Pf-HR :0.93800: L2-HR :0.78292: (Sim:1h38m9s) 
CPU  1 inst:  118000002 cyc:  120533771 now IPC :0.92640: AVG IPC :0.97026: L2-Pf-HR :0.95339: L2-HR :0.80720: (Sim:1h38m28s) 
CPU  2 inst:  116000002 cyc:  120684767 now IPC :0.80833: AVG IPC :0.95234: L2-Pf-HR :0.93063: L2-HR :0.77687: (Sim:1h38m36s) 
CPU  3 inst:  117000001 cyc:  120838725 now IPC :0.84657: AVG IPC :0.95946: L2-Pf-HR :0.94213: L2-HR :0.79260: (Sim:1h38m43s) 
CPU  0 inst:  118000002 cyc:  121378898 now IPC :0.81120: AVG IPC :0.96346: L2-Pf-HR :0.93776: L2-HR :0.78301: (Sim:1h39m10s) 
CPU  1 inst:  119000005 cyc:  121718837 now IPC :0.84384: AVG IPC :0.96902: L2-Pf-HR :0.95324: L2-HR :0.80707: (Sim:1h39m27s) 
CPU  2 inst:  117000005 cyc:  121843798 now IPC :0.86279: AVG IPC :0.95148: L2-Pf-HR :0.93056: L2-HR :0.77699: (Sim:1h39m34s) 
CPU  3 inst:  118000002 cyc:  121903535 now IPC :0.93914: AVG IPC :0.95928: L2-Pf-HR :0.94173: L2-HR :0.79266: (Sim:1h39m37s) 
CPU  0 inst:  119000005 cyc:  122546746 now IPC :0.85628: AVG IPC :0.96243: L2-Pf-HR :0.93762: L2-HR :0.78294: (Sim:1h40m5s) 
CPU  1 inst:  120000005 cyc:  122998526 now IPC :0.78144: AVG IPC :0.96705: L2-Pf-HR :0.95320: L2-HR :0.80683: (Sim:1h40m23s) 
CPU  3 inst:  119000005 cyc:  123012470 now IPC :0.90177: AVG IPC :0.95876: L2-Pf-HR :0.94167: L2-HR :0.79275: (Sim:1h40m23s) 
CPU  2 inst:  118000002 cyc:  123022852 now IPC :0.84814: AVG IPC :0.95048: L2-Pf-HR :0.93032: L2-HR :0.77694: (Sim:1h40m24s) 
CPU  0 inst:  120000005 cyc:  123871285 now IPC :0.75498: AVG IPC :0.96019: L2-Pf-HR :0.93766: L2-HR :0.78276: (Sim:1h41m6s) 
CPU  2 inst:  119000005 cyc:  124116607 now IPC :0.91428: AVG IPC :0.95016: L2-Pf-HR :0.93018: L2-HR :0.77690: (Sim:1h41m18s) 
CPU  1 inst:  121000002 cyc:  124157586 now IPC :0.86277: AVG IPC :0.96607: L2-Pf-HR :0.95345: L2-HR :0.80688: (Sim:1h41m20s) 
CPU  3 inst:  120000005 cyc:  124225719 now IPC :0.82423: AVG IPC :0.95743: L2-Pf-HR :0.94167: L2-HR :0.79256: (Sim:1h41m24s) 
CPU  0 inst:  121000001 cyc:  125019315 now IPC :0.87105: AVG IPC :0.95937: L2-Pf-HR :0.93801: L2-HR :0.78289: (Sim:1h42m4s) 
CPU  3 inst:  121000003 cyc:  125242486 now IPC :0.98351: AVG IPC :0.95764: L2-Pf-HR :0.94190: L2-HR :0.79243: (Sim:1h42m16s) 
CPU  2 inst:  120000005 cyc:  125249465 now IPC :0.88272: AVG IPC :0.94954: L2-Pf-HR :0.93033: L2-HR :0.77684: (Sim:1h42m17s) 
CPU  1 inst:  122000004 cyc:  125313717 now IPC :0.86496: AVG IPC :0.96513: L2-Pf-HR :0.95377: L2-HR :0.80714: (Sim:1h42m20s) 
CPU  0 inst:  122000002 cyc:  126124247 now IPC :0.90503: AVG IPC :0.95889: L2-Pf-HR :0.93831: L2-HR :0.78318: (Sim:1h42m59s) 
CPU  2 inst:  121000003 cyc:  126225220 now IPC :1.02485: AVG IPC :0.95013: L2-Pf-HR :0.93068: L2-HR :0.77695: (Sim:1h43m2s) 
CPU  3 inst:  122000005 cyc:  126275152 now IPC :0.96837: AVG IPC :0.95773: L2-Pf-HR :0.94220: L2-HR :0.79254: (Sim:1h43m3s) 
CPU  1 inst:  123000000 cyc:  126442897 now IPC :0.88559: AVG IPC :0.96441: L2-Pf-HR :0.95405: L2-HR :0.80729: (Sim:1h43m8s) 
CPU  2 inst:  122000004 cyc:  127245563 now IPC :0.98006: AVG IPC :0.95037: L2-Pf-HR :0.93112: L2-HR :0.77731: (Sim:1h43m47s) 
CPU  0 inst:  123000000 cyc:  127305099 now IPC :0.84684: AVG IPC :0.95784: L2-Pf-HR :0.93871: L2-HR :0.78340: (Sim:1h43m50s) 
CPU  3 inst:  123000000 cyc:  127417507 now IPC :0.87538: AVG IPC :0.95699: L2-Pf-HR :0.94257: L2-HR :0.79273: (Sim:1h43m56s) 
CPU  1 inst:  124000003 cyc:  127567132 now IPC :0.88950: AVG IPC :0.96375: L2-Pf-HR :0.95402: L2-HR :0.80744: (Sim:1h44m3s) 
CPU  2 inst:  123000000 cyc:  128349222 now IPC :0.90607: AVG IPC :0.94999: L2-Pf-HR :0.93141: L2-HR :0.77743: (Sim:1h44m42s) 
CPU  0 inst:  124000003 cyc:  128460457 now IPC :0.86554: AVG IPC :0.95700: L2-Pf-HR :0.93889: L2-HR :0.78359: (Sim:1h44m48s) 
CPU  3 inst:  124000003 cyc:  128595229 now IPC :0.84910: AVG IPC :0.95599: L2-Pf-HR :0.94244: L2-HR :0.79293: (Sim:1h44m51s) 
CPU  1 inst:  125000003 cyc:  128695458 now IPC :0.88627: AVG IPC :0.96306: L2-Pf-HR :0.95414: L2-HR :0.80740: (Sim:1h44m54s) 
CPU  2 inst:  124000003 cyc:  129520454 now IPC :0.85380: AVG IPC :0.94911: L2-Pf-HR :0.93137: L2-HR :0.77751: (Sim:1h45m28s) 
CPU  0 inst:  125000003 cyc:  129672908 now IPC :0.82478: AVG IPC :0.95576: L2-Pf-HR :0.93899: L2-HR :0.78353: (Sim:1h45m36s) 
CPU  3 inst:  125000003 cyc:  129798397 now IPC :0.83114: AVG IPC :0.95483: L2-Pf-HR :0.94258: L2-HR :0.79305: (Sim:1h45m43s) 
CPU  1 inst:  126000001 cyc:  130018109 now IPC :0.75606: AVG IPC :0.96094: L2-Pf-HR :0.95415: L2-HR :0.80729: (Sim:1h45m53s) 
CPU  2 inst:  125000003 cyc:  130697834 now IPC :0.84934: AVG IPC :0.94821: L2-Pf-HR :0.93155: L2-HR :0.77752: (Sim:1h46m27s) 
CPU  0 inst:  126000001 cyc:  130762684 now IPC :0.91762: AVG IPC :0.95544: L2-Pf-HR :0.93897: L2-HR :0.78314: (Sim:1h46m31s) 
CPU  3 inst:  126000001 cyc:  131040288 now IPC :0.80522: AVG IPC :0.95340: L2-Pf-HR :0.94278: L2-HR :0.79291: (Sim:1h46m44s) 
CPU  1 inst:  127000001 cyc:  131119061 now IPC :0.90830: AVG IPC :0.96050: L2-Pf-HR :0.95428: L2-HR :0.80733: (Sim:1h46m48s) 
CPU  0 inst:  127000001 cyc:  131823879 now IPC :0.94233: AVG IPC :0.95533: L2-Pf-HR :0.93904: L2-HR :0.78317: (Sim:1h47m11s) 
CPU  2 inst:  126000001 cyc:  131850824 now IPC :0.86731: AVG IPC :0.94749: L2-Pf-HR :0.93150: L2-HR :0.77717: (Sim:1h47m12s) 
CPU  3 inst:  127000001 cyc:  132058373 now IPC :0.98224: AVG IPC :0.95362: L2-Pf-HR :0.94291: L2-HR :0.79297: (Sim:1h47m19s) 
CPU  1 inst:  128000004 cyc:  132109417 now IPC :1.00974: AVG IPC :0.96087: L2-Pf-HR :0.95432: L2-HR :0.80734: (Sim:1h47m20s) 
CPU  0 inst:  128000004 cyc:  132945596 now IPC :0.89149: AVG IPC :0.95479: L2-Pf-HR :0.93912: L2-HR :0.78312: (Sim:1h47m45s) 
CPU  2 inst:  127000001 cyc:  132984176 now IPC :0.88234: AVG IPC :0.94693: L2-Pf-HR :0.93152: L2-HR :0.77707: (Sim:1h47m46s) 
CPU  3 inst:  128000004 cyc:  133102234 now IPC :0.95798: AVG IPC :0.95366: L2-Pf-HR :0.94307: L2-HR :0.79308: (Sim:1h47m50s) 
CPU  1 inst:  129000001 cyc:  133121669 now IPC :0.98789: AVG IPC :0.96108: L2-Pf-HR :0.95417: L2-HR :0.80739: (Sim:1h47m51s) 
CPU  0 inst:  129000001 cyc:  134028367 now IPC :0.92355: AVG IPC :0.95453: L2-Pf-HR :0.93873: L2-HR :0.78284: (Sim:1h48m13s) 
CPU  2 inst:  128000004 cyc:  134257842 now IPC :0.78514: AVG IPC :0.94539: L2-Pf-HR :0.93152: L2-HR :0.77704: (Sim:1h48m18s) 
CPU  3 inst:  129000001 cyc:  134372787 now IPC :0.78706: AVG IPC :0.95207: L2-Pf-HR :0.94286: L2-HR :0.79312: (Sim:1h48m20s) 
CPU  2 inst:  129000001 cyc:  136718217 now IPC :0.40644: AVG IPC :0.93562: L2-Pf-HR :0.93109: L2-HR :0.77683: (Sim:1h49m15s) 
CPU  1 inst:  130000005 cyc:  144570035 now IPC :0.08735: AVG IPC :0.89141: L2-Pf-HR :0.93320: L2-HR :0.79175: (Sim:1h52m25s) 
CPU  0 inst:  130000002 cyc:  148150169 now IPC :0.07081: AVG IPC :0.86974: L2-Pf-HR :0.91270: L2-HR :0.76682: (Sim:1h53m28s) 
CPU  3 inst:  130000002 cyc:  149640662 now IPC :0.06550: AVG IPC :0.86102: L2-Pf-HR :0.91923: L2-HR :0.77722: (Sim:1h53m53s) 
CPU  2 inst:  130000002 cyc:  154779589 now IPC :0.05537: AVG IPC :0.83225: L2-Pf-HR :0.90341: L2-HR :0.76085: (Sim:1h56m0s) 
CPU  1 inst:  131000004 cyc:  163986876 now IPC :0.05150: AVG IPC :0.79137: L2-Pf-HR :0.90737: L2-HR :0.77450: (Sim:2h0m50s) 
CPU  0 inst:  131000001 cyc:  168201837 now IPC :0.04987: AVG IPC :0.77143: L2-Pf-HR :0.88065: L2-HR :0.74962: (Sim:2h2m43s) 
CPU  3 inst:  131000004 cyc:  169725077 now IPC :0.04979: AVG IPC :0.76446: L2-Pf-HR :0.88975: L2-HR :0.75997: (Sim:2h3m17s) 
CPU  2 inst:  131000004 cyc:  175285429 now IPC :0.04877: AVG IPC :0.74008: L2-Pf-HR :0.86944: L2-HR :0.74377: (Sim:2h5m44s) 
CPU  1 inst:  132000003 cyc:  184447254 now IPC :0.04887: AVG IPC :0.70856: L2-Pf-HR :0.88333: L2-HR :0.75957: (Sim:2h10m30s) 
CPU  0 inst:  132000003 cyc:  188759893 now IPC :0.04864: AVG IPC :0.69230: L2-Pf-HR :0.85151: L2-HR :0.73500: (Sim:2h12m43s) 
CPU  3 inst:  132000003 cyc:  190343500 now IPC :0.04850: AVG IPC :0.68651: L2-Pf-HR :0.86283: L2-HR :0.74517: (Sim:2h13m31s) 
CPU  2 inst:  132000003 cyc:  195738706 now IPC :0.04889: AVG IPC :0.66749: L2-Pf-HR :0.83906: L2-HR :0.72927: (Sim:2h16m20s) 
CPU  1 inst:  133000005 cyc:  204984361 now IPC :0.04869: AVG IPC :0.64214: L2-Pf-HR :0.86114: L2-HR :0.74652: (Sim:2h20m40s) 
CPU  0 inst:  133000005 cyc:  209303165 now IPC :0.04868: AVG IPC :0.62883: L2-Pf-HR :0.82518: L2-HR :0.72238: (Sim:2h22m27s) 
CPU  3 inst:  133000005 cyc:  210842424 now IPC :0.04878: AVG IPC :0.62422: L2-Pf-HR :0.83817: L2-HR :0.73234: (Sim:2h22m53s) 
CPU  2 inst:  133000005 cyc:  216177654 now IPC :0.04893: AVG IPC :0.60874: L2-Pf-HR :0.81180: L2-HR :0.71679: (Sim:2h24m28s) 
CPU  1 inst:  134000000 cyc:  225462149 now IPC :0.04883: AVG IPC :0.58801: L2-Pf-HR :0.84160: L2-HR :0.73544: (Sim:2h27m25s) 
CPU  0 inst:  134000000 cyc:  228510464 now IPC :0.05206: AVG IPC :0.58014: L2-Pf-HR :0.80231: L2-HR :0.71181: (Sim:2h28m29s) 
CPU  3 inst:  134000000 cyc:  229346350 now IPC :0.05404: AVG IPC :0.57802: L2-Pf-HR :0.81659: L2-HR :0.72154: (Sim:2h28m40s) 
CPU  2 inst:  134000000 cyc:  231119018 now IPC :0.06693: AVG IPC :0.57356: L2-Pf-HR :0.78809: L2-HR :0.70638: (Sim:2h29m6s) 
CPU  1 inst:  135000000 cyc:  231877533 now IPC :0.15588: AVG IPC :0.57601: L2-Pf-HR :0.83726: L2-HR :0.73313: (Sim:2h29m19s) 
CPU  0 inst:  135000000 cyc:  233221384 now IPC :0.21227: AVG IPC :0.57268: L2-Pf-HR :0.79693: L2-HR :0.70949: (Sim:2h29m46s) 
CPU  3 inst:  135000000 cyc:  234030823 now IPC :0.21347: AVG IPC :0.57069: L2-Pf-HR :0.81163: L2-HR :0.71918: (Sim:2h30m11s) 
CPU  2 inst:  135000000 cyc:  235125113 now IPC :0.24962: AVG IPC :0.56802: L2-Pf-HR :0.78264: L2-HR :0.70402: (Sim:2h30m46s) 
CPU  1 inst:  136000002 cyc:  235550108 now IPC :0.27229: AVG IPC :0.57125: L2-Pf-HR :0.83237: L2-HR :0.73082: (Sim:2h31m0s) 
CPU  0 inst:  136000002 cyc:  236893936 now IPC :0.27229: AVG IPC :0.56800: L2-Pf-HR :0.79118: L2-HR :0.70708: (Sim:2h31m42s) 
CPU  3 inst:  136000002 cyc:  237681502 now IPC :0.27392: AVG IPC :0.56611: L2-Pf-HR :0.80628: L2-HR :0.71687: (Sim:2h32m6s) 
CPU  2 inst:  136000002 cyc:  238830086 now IPC :0.26991: AVG IPC :0.56338: L2-Pf-HR :0.77671: L2-HR :0.70165: (Sim:2h32m36s) 
CPU  1 inst:  137000000 cyc:  239286188 now IPC :0.26766: AVG IPC :0.56649: L2-Pf-HR :0.82762: L2-HR :0.72857: (Sim:2h32m50s) 
CPU  0 inst:  137000000 cyc:  240613525 now IPC :0.26885: AVG IPC :0.56336: L2-Pf-HR :0.78560: L2-HR :0.70476: (Sim:2h33m29s) 
CPU  3 inst:  137000000 cyc:  241402306 now IPC :0.26876: AVG IPC :0.56151: L2-Pf-HR :0.80111: L2-HR :0.71458: (Sim:2h33m53s) 
CPU  2 inst:  137000000 cyc:  242515259 now IPC :0.27136: AVG IPC :0.55892: L2-Pf-HR :0.77098: L2-HR :0.69935: (Sim:2h34m26s) 
CPU  1 inst:  138000000 cyc:  243052793 now IPC :0.26549: AVG IPC :0.56181: L2-Pf-HR :0.82298: L2-HR :0.72630: (Sim:2h34m42s) 
CPU  0 inst:  138000000 cyc:  244323321 now IPC :0.26956: AVG IPC :0.55888: L2-Pf-HR :0.78016: L2-HR :0.70251: (Sim:2h35m20s) 
CPU  3 inst:  138000000 cyc:  245128280 now IPC :0.26839: AVG IPC :0.55704: L2-Pf-HR :0.79603: L2-HR :0.71233: (Sim:2h35m34s) 
CPU  2 inst:  138000000 cyc:  246216275 now IPC :0.27020: AVG IPC :0.55456: L2-Pf-HR :0.76535: L2-HR :0.69706: (Sim:2h35m52s) 
CPU  1 inst:  139000000 cyc:  246758523 now IPC :0.26985: AVG IPC :0.55741: L2-Pf-HR :0.81834: L2-HR :0.72413: (Sim:2h36m1s) 
CPU  0 inst:  139000000 cyc:  248081688 now IPC :0.26607: AVG IPC :0.55442: L2-Pf-HR :0.77479: L2-HR :0.70026: (Sim:2h36m22s) 
CPU  3 inst:  139000000 cyc:  248947271 now IPC :0.26185: AVG IPC :0.55249: L2-Pf-HR :0.79099: L2-HR :0.71011: (Sim:2h36m36s) 
CPU  2 inst:  139000000 cyc:  250063694 now IPC :0.25991: AVG IPC :0.55001: L2-Pf-HR :0.75986: L2-HR :0.69481: (Sim:2h36m55s) 
CPU  1 inst:  140000002 cyc:  250607432 now IPC :0.25981: AVG IPC :0.55282: L2-Pf-HR :0.81380: L2-HR :0.72193: (Sim:2h37m4s) 
CPU  0 inst:  140000002 cyc:  251860501 now IPC :0.26463: AVG IPC :0.55006: L2-Pf-HR :0.76952: L2-HR :0.69800: (Sim:2h37m24s) 
CPU  3 inst:  140000002 cyc:  252680118 now IPC :0.26789: AVG IPC :0.54827: L2-Pf-HR :0.78599: L2-HR :0.70788: (Sim:2h37m38s) 
CPU  2 inst:  140000002 cyc:  253822866 now IPC :0.26602: AVG IPC :0.54579: L2-Pf-HR :0.75439: L2-HR :0.69259: (Sim:2h37m57s) 
CPU  1 inst:  141000004 cyc:  254354454 now IPC :0.26688: AVG IPC :0.54859: L2-Pf-HR :0.80930: L2-HR :0.71978: (Sim:2h38m6s) 
CPU  0 inst:  141000004 cyc:  255542569 now IPC :0.27159: AVG IPC :0.54603: L2-Pf-HR :0.76428: L2-HR :0.69584: (Sim:2h38m25s) 
CPU  3 inst:  141000004 cyc:  256316504 now IPC :0.27500: AVG IPC :0.54438: L2-Pf-HR :0.78108: L2-HR :0.70571: (Sim:2h38m39s) 
CPU  2 inst:  141000004 cyc:  257378948 now IPC :0.28121: AVG IPC :0.54212: L2-Pf-HR :0.74897: L2-HR :0.69040: (Sim:2h38m56s) 
CPU  1 inst:  142000004 cyc:  257877380 now IPC :0.28385: AVG IPC :0.54496: L2-Pf-HR :0.80475: L2-HR :0.71766: (Sim:2h39m5s) 
CPU  0 inst:  142000004 cyc:  259068469 now IPC :0.28362: AVG IPC :0.54245: L2-Pf-HR :0.75909: L2-HR :0.69368: (Sim:2h39m25s) 
CPU  3 inst:  142000004 cyc:  259839143 now IPC :0.28388: AVG IPC :0.54083: L2-Pf-HR :0.77613: L2-HR :0.70352: (Sim:2h39m37s) 
CPU  2 inst:  142000004 cyc:  260849523 now IPC :0.28814: AVG IPC :0.53873: L2-Pf-HR :0.74354: L2-HR :0.68823: (Sim:2h39m55s) 
CPU  1 inst:  143000000 cyc:  261380161 now IPC :0.28549: AVG IPC :0.54147: L2-Pf-HR :0.80026: L2-HR :0.71555: (Sim:2h40m3s) 
CPU  0 inst:  143000000 cyc:  262627157 now IPC :0.28100: AVG IPC :0.53889: L2-Pf-HR :0.75400: L2-HR :0.69150: (Sim:2h40m24s) 
CPU  3 inst:  143000000 cyc:  263345975 now IPC :0.28516: AVG IPC :0.53742: L2-Pf-HR :0.77128: L2-HR :0.70140: (Sim:2h40m37s) 
CPU  2 inst:  143000000 cyc:  264384790 now IPC :0.28286: AVG IPC :0.53530: L2-Pf-HR :0.73824: L2-HR :0.68605: (Sim:2h40m54s) 
CPU  1 inst:  144000003 cyc:  264916103 now IPC :0.28281: AVG IPC :0.53800: L2-Pf-HR :0.79584: L2-HR :0.71344: (Sim:2h41m3s) 
CPU  0 inst:  144000003 cyc:  266056909 now IPC :0.29157: AVG IPC :0.53569: L2-Pf-HR :0.74889: L2-HR :0.68941: (Sim:2h41m22s) 
CPU  3 inst:  144000003 cyc:  266748630 now IPC :0.29389: AVG IPC :0.53430: L2-Pf-HR :0.76640: L2-HR :0.69929: (Sim:2h41m34s) 
CPU  2 inst:  144000003 cyc:  267816765 now IPC :0.29138: AVG IPC :0.53216: L2-Pf-HR :0.73296: L2-HR :0.68392: (Sim:2h41m52s) 
CPU  1 inst:  145000002 cyc:  268339988 now IPC :0.29207: AVG IPC :0.53485: L2-Pf-HR :0.79143: L2-HR :0.71137: (Sim:2h42m0s) 
CPU  0 inst:  145000002 cyc:  269513733 now IPC :0.28928: AVG IPC :0.53252: L2-Pf-HR :0.74391: L2-HR :0.68732: (Sim:2h42m20s) 
CPU  3 inst:  145000002 cyc:  270222381 now IPC :0.28787: AVG IPC :0.53112: L2-Pf-HR :0.76165: L2-HR :0.69718: (Sim:2h42m32s) 
CPU  2 inst:  145000002 cyc:  271287548 now IPC :0.28812: AVG IPC :0.52903: L2-Pf-HR :0.72782: L2-HR :0.68183: (Sim:2h42m49s) 
CPU  1 inst:  146000000 cyc:  271822028 now IPC :0.28719: AVG IPC :0.53167: L2-Pf-HR :0.78708: L2-HR :0.70931: (Sim:2h42m58s) 
CPU  0 inst:  146000000 cyc:  272952761 now IPC :0.29078: AVG IPC :0.52946: L2-Pf-HR :0.73894: L2-HR :0.68521: (Sim:2h43m17s) 
CPU  3 inst:  146000000 cyc:  273681398 now IPC :0.28910: AVG IPC :0.52805: L2-Pf-HR :0.75700: L2-HR :0.69509: (Sim:2h43m29s) 
CPU  2 inst:  146000000 cyc:  274694787 now IPC :0.29349: AVG IPC :0.52609: L2-Pf-HR :0.72269: L2-HR :0.67978: (Sim:2h43m46s) 
CPU  1 inst:  147000000 cyc:  275247460 now IPC :0.29193: AVG IPC :0.52868: L2-Pf-HR :0.78281: L2-HR :0.70730: (Sim:2h43m55s) 
CPU  0 inst:  147000000 cyc:  276362861 now IPC :0.29325: AVG IPC :0.52654: L2-Pf-HR :0.73402: L2-HR :0.68318: (Sim:2h44m13s) 
CPU  3 inst:  147000000 cyc:  277083895 now IPC :0.29390: AVG IPC :0.52516: L2-Pf-HR :0.75238: L2-HR :0.69309: (Sim:2h44m26s) 
CPU  2 inst:  147000000 cyc:  278112839 now IPC :0.29256: AVG IPC :0.52321: L2-Pf-HR :0.71768: L2-HR :0.67768: (Sim:2h44m55s) 
CPU  1 inst:  148000003 cyc:  278642391 now IPC :0.29456: AVG IPC :0.52581: L2-Pf-HR :0.77853: L2-HR :0.70528: (Sim:2h45m4s) 
CPU  0 inst:  148000003 cyc:  279770400 now IPC :0.29347: AVG IPC :0.52369: L2-Pf-HR :0.72920: L2-HR :0.68117: (Sim:2h45m23s) 
CPU  3 inst:  148000003 cyc:  280517524 now IPC :0.29124: AVG IPC :0.52229: L2-Pf-HR :0.74782: L2-HR :0.69106: (Sim:2h45m35s) 
CPU  2 inst:  148000003 cyc:  281531830 now IPC :0.29248: AVG IPC :0.52040: L2-Pf-HR :0.71269: L2-HR :0.67567: (Sim:2h45m58s) 
CPU  1 inst:  149000002 cyc:  282097258 now IPC :0.28945: AVG IPC :0.52291: L2-Pf-HR :0.77437: L2-HR :0.70328: (Sim:2h46m8s) 
CPU  0 inst:  149000002 cyc:  283242915 now IPC :0.28798: AVG IPC :0.52079: L2-Pf-HR :0.72446: L2-HR :0.67915: (Sim:2h46m27s) 
CPU  3 inst:  149000002 cyc:  283935877 now IPC :0.29254: AVG IPC :0.51951: L2-Pf-HR :0.74326: L2-HR :0.68906: (Sim:2h46m42s) 
CPU  2 inst:  149000002 cyc:  284991361 now IPC :0.28906: AVG IPC :0.51758: L2-Pf-HR :0.70783: L2-HR :0.67369: (Sim:2h47m4s) 
CPU  1 inst:  150000000 cyc:  285590636 now IPC :0.28626: AVG IPC :0.52000: L2-Pf-HR :0.77024: L2-HR :0.70137: (Sim:2h47m14s) 
CPU  0 inst:  150000000 cyc:  286689630 now IPC :0.29013: AVG IPC :0.51801: L2-Pf-HR :0.71975: L2-HR :0.67719: (Sim:2h47m33s) 
CPU  3 inst:  150000000 cyc:  287379969 now IPC :0.29035: AVG IPC :0.51676: L2-Pf-HR :0.73880: L2-HR :0.68711: (Sim:2h47m44s) 
CPU  2 inst:  150000000 cyc:  288415820 now IPC :0.29202: AVG IPC :0.51490: L2-Pf-HR :0.70304: L2-HR :0.67172: (Sim:2h48m5s) 
CPU  1 inst:  151000000 cyc:  289025295 now IPC :0.29115: AVG IPC :0.51727: L2-Pf-HR :0.76617: L2-HR :0.69941: (Sim:2h48m15s) 
CPU  0 inst:  151000000 cyc:  290110325 now IPC :0.29234: AVG IPC :0.51534: L2-Pf-HR :0.71506: L2-HR :0.67524: (Sim:2h48m34s) 
CPU  3 inst:  151000000 cyc:  290814111 now IPC :0.29119: AVG IPC :0.51409: L2-Pf-HR :0.73435: L2-HR :0.68515: (Sim:2h48m46s) 
CPU  2 inst:  151000000 cyc:  291841396 now IPC :0.29192: AVG IPC :0.51227: L2-Pf-HR :0.69828: L2-HR :0.66974: (Sim:2h49m4s) 
CPU  1 inst:  152000002 cyc:  292466070 now IPC :0.29063: AVG IPC :0.51460: L2-Pf-HR :0.76209: L2-HR :0.69748: (Sim:2h49m21s) 
CPU  0 inst:  152000002 cyc:  293557270 now IPC :0.29011: AVG IPC :0.51268: L2-Pf-HR :0.71048: L2-HR :0.67332: (Sim:2h49m55s) 
CPU  3 inst:  152000002 cyc:  294241888 now IPC :0.29173: AVG IPC :0.51149: L2-Pf-HR :0.72999: L2-HR :0.68322: (Sim:2h50m14s) 
CPU  2 inst:  152000002 cyc:  295269216 now IPC :0.29173: AVG IPC :0.50970: L2-Pf-HR :0.69361: L2-HR :0.66784: (Sim:2h50m32s) 
CPU  1 inst:  153000000 cyc:  295859608 now IPC :0.29468: AVG IPC :0.51207: L2-Pf-HR :0.75809: L2-HR :0.69560: (Sim:2h50m42s) 
CPU  0 inst:  153000000 cyc:  296992339 now IPC :0.29111: AVG IPC :0.51011: L2-Pf-HR :0.70600: L2-HR :0.67139: (Sim:2h51m13s) 
CPU  3 inst:  153000000 cyc:  297664938 now IPC :0.29214: AVG IPC :0.50896: L2-Pf-HR :0.72565: L2-HR :0.68128: (Sim:2h51m24s) 
CPU  2 inst:  153000000 cyc:  298738791 now IPC :0.28822: AVG IPC :0.50712: L2-Pf-HR :0.68905: L2-HR :0.66593: (Sim:2h51m42s) 
CPU  1 inst:  154000000 cyc:  299350728 now IPC :0.28644: AVG IPC :0.50943: L2-Pf-HR :0.75418: L2-HR :0.69372: (Sim:2h51m52s) 
CPU  0 inst:  154000000 cyc:  300472905 now IPC :0.28731: AVG IPC :0.50752: L2-Pf-HR :0.70158: L2-HR :0.66950: (Sim:2h52m25s) 
CPU  3 inst:  154000000 cyc:  301122539 now IPC :0.28922: AVG IPC :0.50642: L2-Pf-HR :0.72141: L2-HR :0.67944: (Sim:2h52m38s) 
CPU  2 inst:  154000000 cyc:  302195564 now IPC :0.28929: AVG IPC :0.50462: L2-Pf-HR :0.68451: L2-HR :0.66403: (Sim:2h52m56s) 
CPU  1 inst:  155000000 cyc:  302813670 now IPC :0.28877: AVG IPC :0.50690: L2-Pf-HR :0.75029: L2-HR :0.69189: (Sim:2h53m6s) 
CPU  0 inst:  155000000 cyc:  303941944 now IPC :0.28826: AVG IPC :0.50501: L2-Pf-HR :0.69723: L2-HR :0.66762: (Sim:2h53m25s) 
CPU  3 inst:  155000000 cyc:  304611536 now IPC :0.28662: AVG IPC :0.50390: L2-Pf-HR :0.71725: L2-HR :0.67756: (Sim:2h53m37s) 
CPU  2 inst:  155000000 cyc:  305649798 now IPC :0.28950: AVG IPC :0.50218: L2-Pf-HR :0.68002: L2-HR :0.66218: (Sim:2h53m54s) 
[...]
Core_0_L2C_prefetch_issued 1524167
Core_0_L2C_prefetch_useful 248226 L2C_Useful Ratio: 0.16286
Core_0_L2C_prefetch_useless 1165858
Core_0_L2C_prefetch_late 292673
Core_0_L2C_average_miss_latency 981.75786

Core_0_LLC_total_access 4401012
Core_0_LLC_total_hit 1633395 LLC_total_Hit Ratio: 0.37114
Core_0_LLC_total_miss 2767617
Core_0_LLC_loads 671280
Core_0_LLC_load_hit 21089 LLC_load_Hit Ratio: 0.03142
Core_0_LLC_load_miss 650191
Core_0_LLC_RFOs 381929
Core_0_LLC_RFO_hit 178 LLC_RFO_Hit Ratio: 0.00047
Core_0_LLC_RFO_miss 381751
Core_0_LLC_prefetches 1731186
Core_0_LLC_prefetch_hit 26973 LLC_prefetch_Hit Ratio: 0.01558
Core_0_LLC_prefetch_miss 1704213
Core_0_LLC_writebacks 1616617
Core_0_LLC_writeback_hit 1585155 LLC_writeback_Hit Ratio: 0.98054
Core_0_LLC_writeback_miss 31462
Core_0_LLC_prefetch_requested 0
Core_0_LLC_prefetch_issued 0
Core_0_LLC_prefetch_useful 74192 LLC_Useful Ratio: inf
Core_0_LLC_prefetch_useless 6368165
Core_0_LLC_prefetch_late 0
Core_0_LLC_average_miss_latency 3647.59578

Core_0_major_page_fault 0
Core_0_minor_page_fault 19454

Core_1_instructions 326000002
Core_1_cycles 530864922
Core_1_IPC 0.61409

Core_1_branch_prediction_accuracy 99.57057
Core_1_branch_MPKI 0.12432
Core_1_average_ROB_occupancy_at_mispredict 551.74713

Core_1_L1D_total_access 108230463
Core_1_L1D_total_hit 101694697 L1D_total_Hit Ratio: 0.93961
Core_1_L1D_total_miss 6535766
Core_1_L1D_loads 94609526
Core_1_L1D_load_hit 92071202 L1D_load_Hit Ratio: 0.97317
Core_1_L1D_load_miss 2538324
Core_1_L1D_RFOs 8551418
Core_1_L1D_RFO_hit 8168929 L1D_RFO_Hit Ratio: 0.95527
Core_1_L1D_RFO_miss 382489
Core_1_L1D_prefetches 5069519
Core_1_L1D_prefetch_hit 1454566 L1D_prefetch_Hit Ratio: 0.28692
Core_1_L1D_prefetch_miss 3614953
Core_1_L1D_writebacks 0
Core_1_L1D_writeback_hit 0 L1D_writeback_Hit Ratio: -nan
Core_1_L1D_writeback_miss 0
Core_1_L1D_prefetch_requested 6237154
Core_1_L1D_prefetch_issued 6237154
Core_1_L1D_prefetch_useful 3592740 L1D_Useful Ratio: 0.57602
Core_1_L1D_prefetch_useless 87091
Core_1_L1D_prefetch_late 326615
Core_1_L1D_average_miss_latency 12065182.44296

Core_1_L1I_total_access 52018800
Core_1_L1I_total_hit 52016793 L1I_total_Hit Ratio: 0.99996
Core_1_L1I_total_miss 2007
Core_1_L1I_loads 52018800
Core_1_L1I_load_hit 52016793 L1I_load_Hit Ratio: 0.99996
Core_1_L1I_load_miss 2007
Core_1_L1I_RFOs 0
Core_1_L1I_RFO_hit 0 L1I_RFO_Hit Ratio: -nan
Core_1_L1I_RFO_miss 0
Core_1_L1I_prefetches 0
Core_1_L1I_prefetch_hit 0 L1I_prefetch_Hit Ratio: -nan
Core_1_L1I_prefetch_miss 0
Core_1_L1I_writebacks 0
Core_1_L1I_writeback_hit 0 L1I_writeback_Hit Ratio: -nan
Core_1_L1I_writeback_miss 0
Core_1_L1I_prefetch_requested 0
Core_1_L1I_prefetch_issued 0
Core_1_L1I_prefetch_useful 0 L1I_Useful Ratio: -nan
Core_1_L1I_prefetch_useless 0
Core_1_L1I_prefetch_late 0
Core_1_L1I_average_miss_latency 1384.21923

Core_1_L2C_total_access 9301754
Core_1_L2C_total_hit 6517618 L2C_total_Hit Ratio: 0.70069
Core_1_L2C_total_miss 2784136
Core_1_L2C_loads 2216768
Core_1_L2C_load_hit 1252895 L2C_load_Hit Ratio: 0.56519
Core_1_L2C_load_miss 963873
Core_1_L2C_RFOs 382489
Core_1_L2C_RFO_hit 1221 L2C_RFO_Hit Ratio: 0.00319
Core_1_L2C_RFO_miss 381268
Core_1_L2C_prefetches 4774860
Core_1_L2C_prefetch_hit 3335875 L2C_prefetch_Hit Ratio: 0.69863
Core_1_L2C_prefetch_miss 1438985
Core_1_L2C_writebacks 1927637
Core_1_L2C_writeback_hit 1927627 L2C_writeback_Hit Ratio: 0.99999
Core_1_L2C_writeback_miss 10
Core_1_L2C_prefetch_requested 1463212
Core_1_L2C_prefetch_issued 1463212
Core_1_L2C_prefetch_useful 249179 L2C_Useful Ratio: 0.17030
Core_1_L2C_prefetch_useless 1177206
Core_1_L2C_prefetch_late 292486
Core_1_L2C_average_miss_latency 968.51748

Core_1_LLC_total_access 4399997
Core_1_LLC_total_hit 1618490 LLC_total_Hit Ratio: 0.36784
Core_1_LLC_total_miss 2781507
Core_1_LLC_loads 671639
Core_1_LLC_load_hit 19731 LLC_load_Hit Ratio: 0.02938
Core_1_LLC_load_miss 651908
Core_1_LLC_RFOs 381268
Core_1_LLC_RFO_hit 191 LLC_RFO_Hit Ratio: 0.00050
Core_1_LLC_RFO_miss 381077
Core_1_LLC_prefetches 1731219
Core_1_LLC_prefetch_hit 28015 LLC_prefetch_Hit Ratio: 0.01618
Core_1_LLC_prefetch_miss 1703204
Core_1_LLC_writebacks 1615871
Core_1_LLC_writeback_hit 1570553 LLC_writeback_Hit Ratio: 0.97195
Core_1_LLC_writeback_miss 45318
Core_1_LLC_prefetch_requested 0
Core_1_LLC_prefetch_issued 0
Core_1_LLC_prefetch_useful 74192 LLC_Useful Ratio: inf
Core_1_LLC_prefetch_useless 6368165
Core_1_LLC_prefetch_late 0
Core_1_LLC_average_miss_latency 3629.38079

Core_1_major_page_fault 0
Core_1_minor_page_fault 19528

Core_2_instructions 326000002
Core_2_cycles 533365531
Core_2_IPC 0.61121

Core_2_branch_prediction_accuracy 99.57883
Core_2_branch_MPKI 0.12289
Core_2_average_ROB_occupancy_at_mispredict 561.99513

Core_2_L1D_total_access 108059280
Core_2_L1D_total_hit 101944989 L1D_total_Hit Ratio: 0.94342
Core_2_L1D_total_miss 6114291
Core_2_L1D_loads 94602533
Core_2_L1D_load_hit 92071615 L1D_load_Hit Ratio: 0.97325
Core_2_L1D_load_miss 2530918
Core_2_L1D_RFOs 8551216
Core_2_L1D_RFO_hit 8167940 L1D_RFO_Hit Ratio: 0.95518
Core_2_L1D_RFO_miss 383276
Core_2_L1D_prefetches 4905531
Core_2_L1D_prefetch_hit 1705434 L1D_prefetch_Hit Ratio: 0.34766
Core_2_L1D_prefetch_miss 3200097
Core_2_L1D_writebacks 0
Core_2_L1D_writeback_hit 0 L1D_writeback_Hit Ratio: -nan
Core_2_L1D_writeback_miss 0
Core_2_L1D_prefetch_requested 5994687
Core_2_L1D_prefetch_issued 5994687
Core_2_L1D_prefetch_useful 3137514 L1D_Useful Ratio: 0.52338
Core_2_L1D_prefetch_useless 81519
Core_2_L1D_prefetch_late 311313
Core_2_L1D_average_miss_latency 12781264.95972

Core_2_L1I_total_access 52034390
Core_2_L1I_total_hit 52032383 L1I_total_Hit Ratio: 0.99996
Core_2_L1I_total_miss 2007
Core_2_L1I_loads 52034390
Core_2_L1I_load_hit 52032383 L1I_load_Hit Ratio: 0.99996
Core_2_L1I_load_miss 2007
Core_2_L1I_RFOs 0
Core_2_L1I_RFO_hit 0 L1I_RFO_Hit Ratio: -nan
Core_2_L1I_RFO_miss 0
Core_2_L1I_prefetches 0
Core_2_L1I_prefetch_hit 0 L1I_prefetch_Hit Ratio: -nan
Core_2_L1I_prefetch_miss 0
Core_2_L1I_writebacks 0
Core_2_L1I_writeback_hit 0 L1I_writeback_Hit Ratio: -nan
Core_2_L1I_writeback_miss 0
Core_2_L1I_prefetch_requested 0
Core_2_L1I_prefetch_issued 0
Core_2_L1I_prefetch_useful 0 L1I_Useful Ratio: -nan
Core_2_L1I_prefetch_useless 0
Core_2_L1I_prefetch_late 0
Core_2_L1I_average_miss_latency 1715.25610

Core_2_L2C_total_access 8893374
Core_2_L2C_total_hit 6106338 L2C_total_Hit Ratio: 0.68662
Core_2_L2C_total_miss 2787036
Core_2_L2C_loads 2222746
Core_2_L2C_load_hit 1262452 L2C_load_Hit Ratio: 0.56797
Core_2_L2C_load_miss 960294
Core_2_L2C_RFOs 383276
Core_2_L2C_RFO_hit 1165 L2C_RFO_Hit Ratio: 0.00304
Core_2_L2C_RFO_miss 382111
Core_2_L2C_prefetches 4356882
Core_2_L2C_prefetch_hit 2912262 L2C_prefetch_Hit Ratio: 0.66843
Core_2_L2C_prefetch_miss 1444620
Core_2_L2C_writebacks 1930470
Core_2_L2C_writeback_hit 1930459 L2C_writeback_Hit Ratio: 0.99999
Core_2_L2C_writeback_miss 11
Core_2_L2C_prefetch_requested 1518970
Core_2_L2C_prefetch_issued 1518970
Core_2_L2C_prefetch_useful 252306 L2C_Useful Ratio: 0.16610
Core_2_L2C_prefetch_useless 1165226
Core_2_L2C_prefetch_late 292619
Core_2_L2C_average_miss_latency 970.96787

Core_2_LLC_total_access 4403574
Core_2_LLC_total_hit 1623186 LLC_total_Hit Ratio: 0.36861
Core_2_LLC_total_miss 2780388
Core_2_LLC_loads 667713
Core_2_LLC_load_hit 21969 LLC_load_Hit Ratio: 0.03290
Core_2_LLC_load_miss 645744
Core_2_LLC_RFOs 382111
Core_2_LLC_RFO_hit 175 LLC_RFO_Hit Ratio: 0.00046
Core_2_LLC_RFO_miss 381936
Core_2_LLC_prefetches 1737201
Core_2_LLC_prefetch_hit 28727 LLC_prefetch_Hit Ratio: 0.01654
Core_2_LLC_prefetch_miss 1708474
Core_2_LLC_writebacks 1616549
Core_2_LLC_writeback_hit 1572315 LLC_writeback_Hit Ratio: 0.97264
Core_2_LLC_writeback_miss 44234
Core_2_LLC_prefetch_requested 0
Core_2_LLC_prefetch_issued 0
Core_2_LLC_prefetch_useful 74192 LLC_Useful Ratio: inf
Core_2_LLC_prefetch_useless 6368165
Core_2_LLC_prefetch_late 0
Core_2_LLC_average_miss_latency 3630.84148

Core_2_major_page_fault 0
Core_2_minor_page_fault 19454

Core_3_instructions 326000002
Core_3_cycles 532511998
Core_3_IPC 0.61219

Core_3_branch_prediction_accuracy 99.57877
Core_3_branch_MPKI 0.12249
Core_3_average_ROB_occupancy_at_mispredict 561.82733

Core_3_L1D_total_access 108158166
Core_3_L1D_total_hit 101837686 L1D_total_Hit Ratio: 0.94156
Core_3_L1D_total_miss 6320480
Core_3_L1D_loads 94620649
Core_3_L1D_load_hit 92080122 L1D_load_Hit Ratio: 0.97315
Core_3_L1D_load_miss 2540527
Core_3_L1D_RFOs 8550080
Core_3_L1D_RFO_hit 8166376 L1D_RFO_Hit Ratio: 0.95512
Core_3_L1D_RFO_miss 383704
Core_3_L1D_prefetches 4987437
Core_3_L1D_prefetch_hit 1591188 L1D_prefetch_Hit Ratio: 0.31904
Core_3_L1D_prefetch_miss 3396249
Core_3_L1D_writebacks 0
Core_3_L1D_writeback_hit 0 L1D_writeback_Hit Ratio: -nan
Core_3_L1D_writeback_miss 0
Core_3_L1D_prefetch_requested 6113124
Core_3_L1D_prefetch_issued 6113124
Core_3_L1D_prefetch_useful 3352191 L1D_Useful Ratio: 0.54836
Core_3_L1D_prefetch_useless 80630
Core_3_L1D_prefetch_late 315220
Core_3_L1D_average_miss_latency 12275737.41344

Core_3_L1I_total_access 52013237
Core_3_L1I_total_hit 52011193 L1I_total_Hit Ratio: 0.99996
Core_3_L1I_total_miss 2044
Core_3_L1I_loads 52013237
Core_3_L1I_load_hit 52011193 L1I_load_Hit Ratio: 0.99996
Core_3_L1I_load_miss 2044
Core_3_L1I_RFOs 0
Core_3_L1I_RFO_hit 0 L1I_RFO_Hit Ratio: -nan
Core_3_L1I_RFO_miss 0
Core_3_L1I_prefetches 0
Core_3_L1I_prefetch_hit 0 L1I_prefetch_Hit Ratio: -nan
Core_3_L1I_prefetch_miss 0
Core_3_L1I_writebacks 0
Core_3_L1I_writeback_hit 0 L1I_writeback_Hit Ratio: -nan
Core_3_L1I_writeback_miss 0
Core_3_L1I_prefetch_requested 0
Core_3_L1I_prefetch_issued 0
Core_3_L1I_prefetch_useful 0 L1I_Useful Ratio: -nan
Core_3_L1I_prefetch_useless 0
Core_3_L1I_prefetch_late 0
Core_3_L1I_average_miss_latency 1162.13405

Core_3_L2C_total_access 9101059
Core_3_L2C_total_hit 6311526 L2C_total_Hit Ratio: 0.69349
Core_3_L2C_total_miss 2789533
Core_3_L2C_loads 2229319
Core_3_L2C_load_hit 1270255 L2C_load_Hit Ratio: 0.56980
Core_3_L2C_load_miss 959064
Core_3_L2C_RFOs 383704
Core_3_L2C_RFO_hit 1357 L2C_RFO_Hit Ratio: 0.00354
Core_3_L2C_RFO_miss 382347
Core_3_L2C_prefetches 4558286
Core_3_L2C_prefetch_hit 3110174 L2C_prefetch_Hit Ratio: 0.68231
Core_3_L2C_prefetch_miss 1448112
Core_3_L2C_writebacks 1929750
Core_3_L2C_writeback_hit 1929740 L2C_writeback_Hit Ratio: 0.99999
Core_3_L2C_writeback_miss 10
Core_3_L2C_prefetch_requested 1586375
Core_3_L2C_prefetch_issued 1586375
Core_3_L2C_prefetch_useful 261753 L2C_Useful Ratio: 0.16500
Core_3_L2C_prefetch_useless 1162894
Core_3_L2C_prefetch_late 291461
Core_3_L2C_average_miss_latency 976.92730

Core_3_LLC_total_access 4406487
Core_3_LLC_total_hit 1635169 LLC_total_Hit Ratio: 0.37108
Core_3_LLC_total_miss 2771318
Core_3_LLC_loads 667787
Core_3_LLC_load_hit 20774 LLC_load_Hit Ratio: 0.03111
Core_3_LLC_load_miss 647013
Core_3_LLC_RFOs 382347
Core_3_LLC_RFO_hit 168 LLC_RFO_Hit Ratio: 0.00044
Core_3_LLC_RFO_miss 382179
Core_3_LLC_prefetches 1739389
Core_3_LLC_prefetch_hit 32328 LLC_prefetch_Hit Ratio: 0.01859
Core_3_LLC_prefetch_miss 1707061
Core_3_LLC_writebacks 1616964
Core_3_LLC_writeback_hit 1581899 LLC_writeback_Hit Ratio: 0.97831
Core_3_LLC_writeback_miss 35065
Core_3_LLC_prefetch_requested 0
Core_3_LLC_prefetch_issued 0
Core_3_LLC_prefetch_useful 74192 LLC_Useful Ratio: inf
Core_3_LLC_prefetch_useless 6368165
Core_3_LLC_prefetch_late 0
Core_3_LLC_average_miss_latency 3642.72454

Core_3_major_page_fault 0
Core_3_minor_page_fault 19454

[Bingo] PHT Access: 888772
[Bingo] PHT Hit PC+Addr: 270351
[Bingo] PHT Hit PC+Offs: 519546
[Bingo] PHT Miss: 98875
[Bingo] Prefetch PC+Addr: 0
[Bingo] Prefetch PC+Offs: 0
[Bingo] Useful PC+Addr: 0
[Bingo] Useful PC+Offs: 0
[Bingo] Useless PC+Addr: 0
[Bingo] Useless PC+Offs: 0
[Bingo] L1 Prefetch per Region: 9.21817
[Bingo] L2 Prefetch per Region: 0.43820
[Bingo] L3 Prefetch per Region: 0.00000
[Bingo] No Prefetch per Region: 22.34364
[Bingo] Number of Voters Mean: 12.55989
[Bingo] Number of Voters SD: 5.18415
PHT read accesses: 12424911
PHT write accesses: 841025
AT read accesses: 90680465
AT write accesses: 90681487
FT read accesses: 14205184
FT write accesses: 888772
PS read accesses: 6353926
PS write accesses: 789897
PHT tag read accesses: 35057759
PHT tag write accesses: 1111376
AT tag read accesses: 1982883538
AT tag write accesses: 91521557
FT tag read accesses: 556362157
FT tag write accesses: 8434177
PS tag read accesses: 1570989133
PS tag write accesses: 7130045
[Bingo2] PHT Access: 459411
[Bingo2] PHT Hit PC+Addr: 6271
[Bingo2] PHT Hit PC+Offs: 317275
[Bingo2] PHT Miss: 135865
[Bingo2] Prefetch PC+Addr: 0
[Bingo2] Prefetch PC+Offs: 0
[Bingo2] Useful PC+Addr: 0
[Bingo2] Useful PC+Offs: 0
[Bingo2] Useless PC+Addr: 0
[Bingo2] Useless PC+Offs: 0
[Bingo2] L1 Prefetch per Region: 0.00000
[Bingo2] L2 Prefetch per Region: 6.40834
[Bingo2] L3 Prefetch per Region: 0.00000
[Bingo2] No Prefetch per Region: 25.59166
[Bingo2] Number of Voters Mean: 13.29607
[Bingo2] Number of Voters SD: 4.68356
PHT read accesses: 7260528
PHT write accesses: 382243
AT read accesses: 1699076
AT write accesses: 2081217
FT read accesses: 1267090
FT write accesses: 459411
PS read accesses: 767222
PS write accesses: 323546
PHT tag read accesses: 19424588
PHT tag write accesses: 388514
AT tag read accesses: 229606376
AT tag write accesses: 2081447
FT tag read accesses: 207552425
FT tag write accesses: 1284519
PS tag read accesses: 47527445
PS tag write accesses: 1089018
[Bingo] PHT Access: 893367
[Bingo] PHT Hit PC+Addr: 267888
[Bingo] PHT Hit PC+Offs: 524898
[Bingo] PHT Miss: 100581
[Bingo] Prefetch PC+Addr: 0
[Bingo] Prefetch PC+Offs: 0
[Bingo] Useful PC+Addr: 0
[Bingo] Useful PC+Offs: 0
[Bingo] Useless PC+Addr: 0
[Bingo] Useless PC+Offs: 0
[Bingo] L1 Prefetch per Region: 9.35982
[Bingo] L2 Prefetch per Region: 0.43575
[Bingo] L3 Prefetch per Region: 0.00000
[Bingo] No Prefetch per Region: 22.20443
[Bingo] Number of Voters Mean: 12.57170
[Bingo] Number of Voters SD: 5.38164
PHT read accesses: 12529261
PHT write accesses: 844530
AT read accesses: 90576970
AT write accesses: 90577348
FT read accesses: 14242996
FT write accesses: 893367
PS read accesses: 6455398
PS write accesses: 792786
PHT tag read accesses: 35233966
PHT tag write accesses: 1112418
AT tag read accesses: 1979709850
AT tag write accesses: 91421507
FT tag read accesses: 554872328
FT tag write accesses: 8460182
PS tag read accesses: 1569575318
PS tag write accesses: 7234673
[Bingo2] PHT Access: 465151
[Bingo2] PHT Hit PC+Addr: 5130
[Bingo2] PHT Hit PC+Offs: 325078
[Bingo2] PHT Miss: 134943
[Bingo2] Prefetch PC+Addr: 0
[Bingo2] Prefetch PC+Offs: 0
[Bingo2] Useful PC+Addr: 0
[Bingo2] Useful PC+Offs: 0
[Bingo2] Useless PC+Addr: 0
[Bingo2] Useless PC+Offs: 0
[Bingo2] L1 Prefetch per Region: 0.00000
[Bingo2] L2 Prefetch per Region: 5.79084
[Bingo2] L3 Prefetch per Region: 0.00000
[Bingo2] No Prefetch per Region: 26.20916
[Bingo2] Number of Voters Mean: 13.17420
[Bingo2] Number of Voters SD: 4.84038
PHT read accesses: 7401668
PHT write accesses: 380677
AT read accesses: 1717734
AT write accesses: 2098168
FT read accesses: 1272395
FT write accesses: 465151
PS read accesses: 793102
PS write accesses: 330208
PHT tag read accesses: 19504724
PHT tag write accesses: 385807
AT tag read accesses: 229995826
AT tag write accesses: 2098411
FT tag read accesses: 208010473
FT tag write accesses: 1292076
PS tag read accesses: 48339332
PS tag write accesses: 1120864
[Bingo] PHT Access: 881319
[Bingo] PHT Hit PC+Addr: 264048
[Bingo] PHT Hit PC+Offs: 519574
[Bingo] PHT Miss: 97697
[Bingo] Prefetch PC+Addr: 0
[Bingo] Prefetch PC+Offs: 0
[Bingo] Useful PC+Addr: 0
[Bingo] Useful PC+Offs: 0
[Bingo] Useless PC+Addr: 0
[Bingo] Useless PC+Offs: 0
[Bingo] L1 Prefetch per Region: 9.15113
[Bingo] L2 Prefetch per Region: 0.44388
[Bingo] L3 Prefetch per Region: 0.00000
[Bingo] No Prefetch per Region: 22.40499
[Bingo] Number of Voters Mean: 12.58591
[Bingo] Number of Voters SD: 5.16630
PHT read accesses: 12351173
PHT write accesses: 836925
AT read accesses: 90147737
AT write accesses: 90148177
FT read accesses: 14159391
FT write accesses: 881319
PS read accesses: 6256598
PS write accesses: 783622
PHT tag read accesses: 34916707
PHT tag write accesses: 1100973
AT tag read accesses: 1973915718
AT tag write accesses: 90984731
FT tag read accesses: 555797443
FT tag write accesses: 8400298
PS tag read accesses: 1561993875
PS tag write accesses: 7027972
[Bingo2] PHT Access: 452679
[Bingo2] PHT Hit PC+Addr: 5644
[Bingo2] PHT Hit PC+Offs: 312816
[Bingo2] PHT Miss: 134219
[Bingo2] Prefetch PC+Addr: 0
[Bingo2] Prefetch PC+Offs: 0
[Bingo2] Useful PC+Addr: 0
[Bingo2] Useful PC+Offs: 0
[Bingo2] Useless PC+Addr: 0
[Bingo2] Useless PC+Offs: 0
[Bingo2] L1 Prefetch per Region: 0.00000
[Bingo2] L2 Prefetch per Region: 6.43263
[Bingo2] L3 Prefetch per Region: 0.00000
[Bingo2] No Prefetch per Region: 25.56737
[Bingo2] Number of Voters Mean: 13.43160
[Bingo2] Number of Voters SD: 4.54899
PHT read accesses: 7154216
PHT write accesses: 381821
AT read accesses: 1725762
AT write accesses: 2107467
FT read accesses: 1264720
FT write accesses: 452679
PS read accesses: 758660
PS write accesses: 318460
PHT tag read accesses: 19343069
PHT tag write accesses: 387465
AT tag read accesses: 229896738
AT tag write accesses: 2107711
FT tag read accesses: 207221302
FT tag write accesses: 1276354
PS tag read accesses: 47480454
PS tag write accesses: 1075204
[Bingo] PHT Access: 892667
[Bingo] PHT Hit PC+Addr: 269047
[Bingo] PHT Hit PC+Offs: 524095
[Bingo] PHT Miss: 99525
[Bingo] Prefetch PC+Addr: 0
[Bingo] Prefetch PC+Offs: 0
[Bingo] Useful PC+Addr: 0
[Bingo] Useful PC+Offs: 0
[Bingo] Useless PC+Addr: 0
[Bingo] Useless PC+Offs: 0
[Bingo] L1 Prefetch per Region: 9.20441
[Bingo] L2 Prefetch per Region: 0.45330
[Bingo] L3 Prefetch per Region: 0.00000
[Bingo] No Prefetch per Region: 22.34228
[Bingo] Number of Voters Mean: 12.53584
[Bingo] Number of Voters SD: 5.20517
PHT read accesses: 12502716
PHT write accesses: 845433
AT read accesses: 90639128
AT write accesses: 90639705
FT read accesses: 14219723
FT write accesses: 892667
PS read accesses: 6301155
PS write accesses: 793142
PHT tag read accesses: 35286795
PHT tag write accesses: 1114480
AT tag read accesses: 1982454325
AT tag write accesses: 91484625
FT tag read accesses: 556648244
FT tag write accesses: 8447422
PS tag read accesses: 1570320647
PS tag write accesses: 7080984
[Bingo2] PHT Access: 456594
[Bingo2] PHT Hit PC+Addr: 4705
[Bingo2] PHT Hit PC+Offs: 315951
[Bingo2] PHT Miss: 135938
[Bingo2] Prefetch PC+Addr: 0
[Bingo2] Prefetch PC+Offs: 0
[Bingo2] Useful PC+Addr: 0
[Bingo2] Useful PC+Offs: 0
[Bingo2] Useless PC+Addr: 0
[Bingo2] Useless PC+Offs: 0
[Bingo2] L1 Prefetch per Region: 0.00000
[Bingo2] L2 Prefetch per Region: 6.81991
[Bingo2] L3 Prefetch per Region: 0.00000
[Bingo2] No Prefetch per Region: 25.18009
[Bingo2] Number of Voters Mean: 13.39135
[Bingo2] Number of Voters SD: 4.60543
PHT read accesses: 7225229
PHT write accesses: 381650
AT read accesses: 1731517
AT write accesses: 2113057
FT read accesses: 1277489
FT write accesses: 456594
PS read accesses: 762367
PS write accesses: 320656
PHT tag read accesses: 19412952
PHT tag write accesses: 386355
AT tag read accesses: 230149639
AT tag write accesses: 2113295
FT tag read accesses: 207544457
FT tag write accesses: 1286572
PS tag read accesses: 47959301
PS tag write accesses: 1081079
Channel_0_RQ_row_buffer_hit 4599845
Channel_0_RQ_row_buffer_miss 6375258
Channel_0_WQ_row_buffer_hit 2361013
Channel_0_WQ_row_buffer_miss 4053281
Channel_0_WQ_full 56727
Channel_0_dbus_congested 11323027

avg_congested_cycle 8

EzSearch AVG IPC :0.61231: L2-Pf-HR :0.67487 : L2-HR :0.68890 Uful:0.16286
EzSearch AVG IPC :0.61409: L2-Pf-HR :0.69863 : L2-HR :0.70139 Uful:0.17030
EzSearch AVG IPC :0.61121: L2-Pf-HR :0.66843 : L2-HR :0.68662 Uful:0.16610
EzSearch AVG IPC :0.61219: L2-Pf-HR :0.68231 : L2-HR :0.69407 Uful:0.16500
     > Finished combination: TraceType=770-tot Sim:326000000 Prefetcher=L2bingo_dpc3_PHT1k L1=bingo_dpc3_PHT1k
