TRACE: [21000000]_FE_[Pythia-70M]_[h8]_[s256]_[d64] Warmup: 2000000 NumTraces: 21000000
L1:berti:L2:berti
*************************************************
   ChampSim Multicore Out-of-Order Simulator
   Last compiled: Oct 29 2024 06:02:23
*************************************************

trace_0 770-tot_memTraces_v3/memTraces[21000000]_FE_[Pythia-70M]_[h8]_[s256]_[d64].champsim.xz
trace_1 770-tot_memTraces_v3/memTraces[21000000]_FE_[Pythia-70M]_[h8]_[s256]_[d64].champsim.xz
trace_2 770-tot_memTraces_v3/memTraces[21000000]_FE_[Pythia-70M]_[h8]_[s256]_[d64].champsim.xz
trace_3 770-tot_memTraces_v3/memTraces[21000000]_FE_[Pythia-70M]_[h8]_[s256]_[d64].champsim.xz
CPU 0 L1D Berti prefetcher
CPU 0 L2C Berti prefetcher
CPU 1 L1D Berti prefetcher
CPU 1 L2C Berti prefetcher
CPU 2 L1D Berti prefetcher
CPU 2 L2C Berti prefetcher
CPU 3 L1D Berti prefetcher
CPU 3 L2C Berti prefetcher
MAIN.cc ln 751 stats print skipped
CPU  2 inst:    1000001 cyc:     499792 now IPC :2.00083: AVG IPC :2.00083: L2-Pf-HR :0.78348: L2-HR :0.74747: (Sim:0h0m58s) 
CPU  3 inst:    1000001 cyc:     499868 now IPC :2.00053: AVG IPC :2.00053: L2-Pf-HR :0.73387: L2-HR :0.70781: (Sim:0h0m58s) 
CPU  0 inst:    1000001 cyc:     499908 now IPC :2.00037: AVG IPC :2.00037: L2-Pf-HR :0.71014: L2-HR :0.69666: (Sim:0h0m58s) 
CPU  1 inst:    1000001 cyc:     499976 now IPC :2.00010: AVG IPC :2.00010: L2-Pf-HR :0.60085: L2-HR :0.63442: (Sim:0h0m58s) 
CPU  2 inst:    2000003 cyc:     987086 now IPC :2.05215: AVG IPC :2.02617: L2-Pf-HR :0.83033: L2-HR :0.80807: (Sim:0h1m59s) 
CPU  3 inst:    2000003 cyc:     987092 now IPC :2.05245: AVG IPC :2.02616: L2-Pf-HR :0.79011: L2-HR :0.77832: (Sim:0h1m59s) 
CPU  0 inst:    2000003 cyc:     987222 now IPC :2.05207: AVG IPC :2.02589: L2-Pf-HR :0.77734: L2-HR :0.77139: (Sim:0h1m59s) 
CPU  1 inst:    2000003 cyc:     987228 now IPC :2.05233: AVG IPC :2.02588: L2-Pf-HR :0.68388: L2-HR :0.71010: (Sim:0h1m59s) 

Warmup complete CPU  0 instructions:    2000019 cycles:     987228 (Simulation time: 0 hr 1 min 59 sec) 
Warmup complete CPU  1 instructions:    2000003 cycles:     987228 (Simulation time: 0 hr 1 min 59 sec) 
Warmup complete CPU  2 instructions:    2000284 cycles:     987227 (Simulation time: 0 hr 1 min 59 sec) 
Warmup complete CPU  3 instructions:    2000284 cycles:     987227 (Simulation time: 0 hr 1 min 59 sec) 

CPU  3 inst:    3000000 cyc:    1703393 now IPC :1.39606: AVG IPC :1.39593: L2-Pf-HR :0.86463: L2-HR :0.83206: (Sim:0h2m55s) 
CPU  2 inst:    3000000 cyc:    1722023 now IPC :1.36066: AVG IPC :1.36054: L2-Pf-HR :0.88586: L2-HR :0.84971: (Sim:0h2m57s) 
CPU  1 inst:    3000003 cyc:    1723565 now IPC :1.35807: AVG IPC :1.35807: L2-Pf-HR :0.78130: L2-HR :0.78155: (Sim:0h2m57s) 
CPU  0 inst:    3000003 cyc:    1731987 now IPC :1.34271: AVG IPC :1.34269: L2-Pf-HR :0.87184: L2-HR :0.83427: (Sim:0h2m58s) 
CPU  3 inst:    4000001 cyc:    2348524 now IPC :1.55007: AVG IPC :1.46898: L2-Pf-HR :0.86569: L2-HR :0.83350: (Sim:0h3m47s) 
CPU  2 inst:    4000001 cyc:    2425037 now IPC :1.42245: AVG IPC :1.39081: L2-Pf-HR :0.88494: L2-HR :0.84674: (Sim:0h3m54s) 
CPU  0 inst:    4000001 cyc:    2425362 now IPC :1.44222: AVG IPC :1.39068: L2-Pf-HR :0.86748: L2-HR :0.83444: (Sim:0h3m54s) 
CPU  1 inst:    4000001 cyc:    2439349 now IPC :1.39707: AVG IPC :1.37729: L2-Pf-HR :0.78813: L2-HR :0.78346: (Sim:0h3m56s) 
CPU  3 inst:    5000000 cyc:    2940829 now IPC :1.68832: AVG IPC :1.53548: L2-Pf-HR :0.86710: L2-HR :0.83584: (Sim:0h4m38s) 
CPU  2 inst:    5000000 cyc:    3074973 now IPC :1.53861: AVG IPC :1.43682: L2-Pf-HR :0.88499: L2-HR :0.84893: (Sim:0h4m51s) 
CPU  0 inst:    5000000 cyc:    3085074 now IPC :1.51581: AVG IPC :1.43003: L2-Pf-HR :0.86833: L2-HR :0.83553: (Sim:0h4m52s) 
CPU  1 inst:    5000000 cyc:    3090031 now IPC :1.53685: AVG IPC :1.42667: L2-Pf-HR :0.79610: L2-HR :0.78727: (Sim:0h4m52s) 
CPU  3 inst:    6000005 cyc:    3537737 now IPC :1.67531: AVG IPC :1.56820: L2-Pf-HR :0.86603: L2-HR :0.83504: (Sim:0h5m30s) 
CPU  2 inst:    6000003 cyc:    3739126 now IPC :1.50568: AVG IPC :1.45344: L2-Pf-HR :0.88450: L2-HR :0.84903: (Sim:0h5m48s) 
CPU  1 inst:    6000005 cyc:    3757208 now IPC :1.49886: AVG IPC :1.44405: L2-Pf-HR :0.79834: L2-HR :0.78843: (Sim:0h5m50s) 
CPU  0 inst:    6000003 cyc:    3760074 now IPC :1.48149: AVG IPC :1.44256: L2-Pf-HR :0.86840: L2-HR :0.83673: (Sim:0h5m50s) 
CPU  3 inst:    7000003 cyc:    4127995 now IPC :1.69417: AVG IPC :1.59188: L2-Pf-HR :0.86803: L2-HR :0.83704: (Sim:0h6m23s) 
CPU  2 inst:    7000004 cyc:    4405931 now IPC :1.49969: AVG IPC :1.46246: L2-Pf-HR :0.88568: L2-HR :0.85041: (Sim:0h6m46s) 
CPU  0 inst:    7000003 cyc:    4423647 now IPC :1.50699: AVG IPC :1.45500: L2-Pf-HR :0.86954: L2-HR :0.83846: (Sim:0h6m47s) 
CPU  1 inst:    7000003 cyc:    4432252 now IPC :1.48138: AVG IPC :1.45137: L2-Pf-HR :0.80344: L2-HR :0.79137: (Sim:0h6m48s) 
CPU  3 inst:    8000000 cyc:    4763129 now IPC :1.57447: AVG IPC :1.58895: L2-Pf-HR :0.86659: L2-HR :0.83645: (Sim:0h7m18s) 
CPU  2 inst:    8000000 cyc:    5060937 now IPC :1.52670: AVG IPC :1.47279: L2-Pf-HR :0.88647: L2-HR :0.85132: (Sim:0h7m42s) 
CPU  0 inst:    8000000 cyc:    5078469 now IPC :1.52713: AVG IPC :1.46654: L2-Pf-HR :0.87111: L2-HR :0.83974: (Sim:0h7m44s) 
CPU  1 inst:    8000000 cyc:    5088224 now IPC :1.52445: AVG IPC :1.46306: L2-Pf-HR :0.80442: L2-HR :0.79167: (Sim:0h7m44s) 
CPU  3 inst:    9000000 cyc:    5663281 now IPC :1.11092: AVG IPC :1.49693: L2-Pf-HR :0.88946: L2-HR :0.86913: (Sim:0h8m25s) 
CPU  2 inst:    9000000 cyc:    5934719 now IPC :1.14445: AVG IPC :1.41480: L2-Pf-HR :0.89557: L2-HR :0.87126: (Sim:0h8m33s) 
CPU  0 inst:    9000000 cyc:    5949283 now IPC :1.14835: AVG IPC :1.41070: L2-Pf-HR :0.89563: L2-HR :0.87359: (Sim:0h8m33s) 
CPU  1 inst:    9000000 cyc:    5958838 now IPC :1.14861: AVG IPC :1.40799: L2-Pf-HR :0.83882: L2-HR :0.83287: (Sim:0h8m34s) 
CPU  3 inst:   10000000 cyc:    8629204 now IPC :0.33716: AVG IPC :1.04681: L2-Pf-HR :0.88064: L2-HR :0.85827: (Sim:0h9m54s) 
CPU  2 inst:   10000000 cyc:    8900620 now IPC :0.33717: AVG IPC :1.01091: L2-Pf-HR :0.88673: L2-HR :0.86092: (Sim:0h10m3s) 
CPU  0 inst:   10000000 cyc:    8915193 now IPC :0.33716: AVG IPC :1.00908: L2-Pf-HR :0.88645: L2-HR :0.86251: (Sim:0h10m3s) 
CPU  1 inst:   10000000 cyc:    8924748 now IPC :0.33716: AVG IPC :1.00787: L2-Pf-HR :0.83387: L2-HR :0.82421: (Sim:0h10m4s) 
CPU  3 inst:   11000000 cyc:   11594913 now IPC :0.33719: AVG IPC :0.84841: L2-Pf-HR :0.86704: L2-HR :0.84489: (Sim:0h11m27s) 
CPU  2 inst:   11000000 cyc:   11866297 now IPC :0.33719: AVG IPC :0.82725: L2-Pf-HR :0.87817: L2-HR :0.85091: (Sim:0h11m36s) 
CPU  0 inst:   11000000 cyc:   11880885 now IPC :0.33719: AVG IPC :0.82617: L2-Pf-HR :0.87140: L2-HR :0.84826: (Sim:0h11m36s) 
CPU  1 inst:   11000000 cyc:   11890438 now IPC :0.33719: AVG IPC :0.82544: L2-Pf-HR :0.82637: L2-HR :0.81501: (Sim:0h11m37s) 
CPU  3 inst:   12000000 cyc:   14561156 now IPC :0.33713: AVG IPC :0.73669: L2-Pf-HR :0.84983: L2-HR :0.83011: (Sim:0h12m59s) 
CPU  2 inst:   12000000 cyc:   14832390 now IPC :0.33714: AVG IPC :0.72225: L2-Pf-HR :0.86285: L2-HR :0.83744: (Sim:0h13m7s) 
CPU  0 inst:   12000000 cyc:   14846995 now IPC :0.33714: AVG IPC :0.72151: L2-Pf-HR :0.85821: L2-HR :0.83588: (Sim:0h13m8s) 
CPU  1 inst:   12000000 cyc:   14856558 now IPC :0.33714: AVG IPC :0.72102: L2-Pf-HR :0.81113: L2-HR :0.80203: (Sim:0h13m8s) 
CPU  3 inst:   13000000 cyc:   17527148 now IPC :0.33716: AVG IPC :0.66504: L2-Pf-HR :0.83353: L2-HR :0.81649: (Sim:0h14m21s) 
CPU  2 inst:   13000000 cyc:   17798313 now IPC :0.33716: AVG IPC :0.65431: L2-Pf-HR :0.84673: L2-HR :0.82381: (Sim:0h14m29s) 
CPU  0 inst:   13000000 cyc:   17812934 now IPC :0.33716: AVG IPC :0.65376: L2-Pf-HR :0.84173: L2-HR :0.82197: (Sim:0h14m29s) 
CPU  1 inst:   13000000 cyc:   17822804 now IPC :0.33713: AVG IPC :0.65338: L2-Pf-HR :0.79722: L2-HR :0.79017: (Sim:0h14m30s) 
CPU  3 inst:   14000000 cyc:   18152554 now IPC :1.59896: AVG IPC :0.69907: L2-Pf-HR :0.82297: L2-HR :0.81054: (Sim:0h14m53s) 
CPU  2 inst:   14000002 cyc:   18440204 now IPC :1.55790: AVG IPC :0.68755: L2-Pf-HR :0.83615: L2-HR :0.81819: (Sim:0h15m25s) 
CPU  0 inst:   14000000 cyc:   18451796 now IPC :1.56528: AVG IPC :0.68710: L2-Pf-HR :0.83055: L2-HR :0.81638: (Sim:0h15m28s) 
CPU  1 inst:   14000000 cyc:   18459510 now IPC :1.57058: AVG IPC :0.68680: L2-Pf-HR :0.78727: L2-HR :0.78646: (Sim:0h15m29s) 
CPU  3 inst:   15000000 cyc:   18685870 now IPC :1.87506: AVG IPC :0.73450: L2-Pf-HR :0.81487: L2-HR :0.80885: (Sim:0h16m3s) 
CPU  2 inst:   15000000 cyc:   18975502 now IPC :1.86811: AVG IPC :0.72268: L2-Pf-HR :0.82808: L2-HR :0.81622: (Sim:0h16m47s) 
CPU  0 inst:   15000000 cyc:   18983032 now IPC :1.88240: AVG IPC :0.72239: L2-Pf-HR :0.82149: L2-HR :0.81380: (Sim:0h16m49s) 
CPU  1 inst:   15000000 cyc:   18994760 now IPC :1.86829: AVG IPC :0.72192: L2-Pf-HR :0.78023: L2-HR :0.78611: (Sim:0h16m50s) 
CPU  3 inst:   16000003 cyc:   19217010 now IPC :1.88275: AVG IPC :0.76796: L2-Pf-HR :0.81037: L2-HR :0.81018: (Sim:0h17m17s) 
CPU  2 inst:   16000003 cyc:   19506770 now IPC :1.88229: AVG IPC :0.75594: L2-Pf-HR :0.82550: L2-HR :0.81815: (Sim:0h17m45s) 
CPU  0 inst:   16000003 cyc:   19517458 now IPC :1.87117: AVG IPC :0.75552: L2-Pf-HR :0.81850: L2-HR :0.81455: (Sim:0h17m46s) 
CPU  1 inst:   16000003 cyc:   19525322 now IPC :1.88480: AVG IPC :0.75520: L2-Pf-HR :0.77994: L2-HR :0.79002: (Sim:0h17m47s) 
CPU  3 inst:   17000004 cyc:   19744477 now IPC :1.89586: AVG IPC :0.79968: L2-Pf-HR :0.81246: L2-HR :0.81324: (Sim:0h18m7s) 
CPU  2 inst:   17000004 cyc:   20034799 now IPC :1.89384: AVG IPC :0.78749: L2-Pf-HR :0.82693: L2-HR :0.82109: (Sim:0h18m35s) 
CPU  0 inst:   17000001 cyc:   20045085 now IPC :1.89527: AVG IPC :0.78708: L2-Pf-HR :0.82015: L2-HR :0.81769: (Sim:0h18m36s) 
CPU  1 inst:   17000004 cyc:   20056380 now IPC :1.88304: AVG IPC :0.78661: L2-Pf-HR :0.78380: L2-HR :0.79445: (Sim:0h18m37s) 
CPU  3 inst:   18000003 cyc:   20268854 now IPC :1.90702: AVG IPC :0.82979: L2-Pf-HR :0.81378: L2-HR :0.81632: (Sim:0h18m57s) 
Finished CPU 3 instr: 16000000 cyc: 19281800 AVG IPC: 0.82980 (Sim time: 0h18m58s)
CPU  2 inst:   18000003 cyc:   20563408 now IPC :1.89176: AVG IPC :0.81731: L2-Pf-HR :0.82627: L2-HR :0.82286: (Sim:0h19m26s) 
Finished CPU 2 instr: 16000004 cyc: 19576369 AVG IPC: 0.81731 (Sim time: 0h19m26s)
CPU  0 inst:   18000003 cyc:   20571914 now IPC :1.89815: AVG IPC :0.81696: L2-Pf-HR :0.81905: L2-HR :0.81930: (Sim:0h19m27s) 
Finished CPU 0 instr: 16000003 cyc: 19584737 AVG IPC: 0.81696 (Sim time: 0h19m27s)
CPU  1 inst:   18000003 cyc:   20585174 now IPC :1.89109: AVG IPC :0.81641: L2-Pf-HR :0.78548: L2-HR :0.79848: (Sim:0h19m28s) 
Finished CPU 1 instr: 16000000 cyc: 19597946 AVG IPC: 0.81641 (Sim time: 0h19m28s)

ChampSim completed all CPUs

Total Simulation Statistics (not including warmup)

CPU 0 cumulative IPC: 0.81773 instructions: 16025801 cycles: 19597946
Core_0_L1D_total_access 7583339
Core_0_L1D_total_hit 7241696
Core_0_L1D_total_miss 341643
Core_0_L1D_loads 4554805
Core_0_L1D_load_hit 4442833
Core_0_L1D_load_miss 111972
Core_0_L1D_RFOs 566239
Core_0_L1D_RFO_hit 549316
Core_0_L1D_RFO_miss 16923
Core_0_L1D_prefetches 2462295
Core_0_L1D_prefetch_hit 2249547
Core_0_L1D_prefetch_miss 212748
Core_0_L1D_writebacks 0
Core_0_L1D_writeback_hit 0
Core_0_L1D_writeback_miss 0

Core_0_L1I_total_access 2459700
Core_0_L1I_total_hit 2457833
Core_0_L1I_total_miss 1867
Core_0_L1I_loads 2459700
Core_0_L1I_load_hit 2457833
Core_0_L1I_load_miss 1867
Core_0_L1I_RFOs 0
Core_0_L1I_RFO_hit 0
Core_0_L1I_RFO_miss 0
Core_0_L1I_prefetches 0
Core_0_L1I_prefetch_hit 0
Core_0_L1I_prefetch_miss 0
Core_0_L1I_writebacks 0
Core_0_L1I_writeback_hit 0
Core_0_L1I_writeback_miss 0

Core_0_L2C_total_access 579557
Core_0_L2C_total_hit 474521
Core_0_L2C_total_miss 105036
Core_0_L2C_loads 88336
Core_0_L2C_load_hit 65672
Core_0_L2C_load_miss 22664
Core_0_L2C_RFOs 16920
Core_0_L2C_RFO_hit 512
Core_0_L2C_RFO_miss 16408
Core_0_L2C_prefetches 362836
Core_0_L2C_prefetch_hit 296878
Core_0_L2C_prefetch_miss 65958
Core_0_L2C_writebacks 111465
Core_0_L2C_writeback_hit 111459
Core_0_L2C_writeback_miss 6

CPU 0 L1D berti prefetcher final stats
0-> Hits: 24, Late: 4, Early: 0, Misses: 0
1-> Hits: 3, Late: 0, Early: 0, Misses: 0
3-> Hits: 5, Late: 0, Early: 0, Misses: 0
4-> Hits: 2, Late: 0, Early: 0, Misses: 0
5-> Hits: 3, Late: 1, Early: 0, Misses: 0
6-> Hits: 1, Late: 0, Early: 0, Misses: 0
7-> Hits: 2, Late: 0, Early: 0, Misses: 0
8-> Hits: 70, Late: 40, Early: 0, Misses: 0
9-> Hits: 2, Late: 0, Early: 0, Misses: 0
a-> Hits: 0, Late: 2, Early: 0, Misses: 0
b-> Hits: 4, Late: 0, Early: 0, Misses: 0
d-> Hits: 88, Late: 19, Early: 0, Misses: 0
e-> Hits: 8, Late: 0, Early: 0, Misses: 0
10-> Hits: 2, Late: 0, Early: 0, Misses: 0
11-> Hits: 0, Late: 1, Early: 0, Misses: 0
12-> Hits: 75, Late: 33, Early: 0, Misses: 0
13-> Hits: 1, Late: 0, Early: 0, Misses: 0
14-> Hits: 2, Late: 0, Early: 0, Misses: 0
16-> Hits: 12, Late: 0, Early: 0, Misses: 0
17-> Hits: 3, Late: 0, Early: 0, Misses: 0
18-> Hits: 90, Late: 17, Early: 0, Misses: 0
1a-> Hits: 89, Late: 2, Early: 0, Misses: 0
1b-> Hits: 1, Late: 0, Early: 0, Misses: 0
1c-> Hits: 13, Late: 0, Early: 0, Misses: 0
1d-> Hits: 3, Late: 1, Early: 0, Misses: 0
1e-> Hits: 3, Late: 0, Early: 0, Misses: 0
1f-> Hits: 1, Late: 0, Early: 0, Misses: 0
20-> Hits: 2, Late: 1, Early: 0, Misses: 0
21-> Hits: 86, Late: 0, Early: 0, Misses: 0
22-> Hits: 2, Late: 2, Early: 0, Misses: 0
24-> Hits: 21, Late: 0, Early: 0, Misses: 0
25-> Hits: 3, Late: 0, Early: 0, Misses: 0
27-> Hits: 87, Late: 42, Early: 0, Misses: 0
28-> Hits: 10, Late: 0, Early: 0, Misses: 0
2a-> Hits: 93, Late: 1, Early: 0, Misses: 0
2b-> Hits: 6, Late: 0, Early: 0, Misses: 0
2c-> Hits: 89, Late: 15, Early: 0, Misses: 0
2d-> Hits: 1, Late: 0, Early: 0, Misses: 0
2f-> Hits: 17, Late: 0, Early: 0, Misses: 0
30-> Hits: 7, Late: 2, Early: 0, Misses: 0
31-> Hits: 68, Late: 36, Early: 0, Misses: 0
33-> Hits: 11, Late: 0, Early: 0, Misses: 0
34-> Hits: 11, Late: 1, Early: 0, Misses: 0
35-> Hits: 3, Late: 78, Early: 0, Misses: 8
36-> Hits: 2, Late: 0, Early: 0, Misses: 0
37-> Hits: 88, Late: 15, Early: 0, Misses: 0
38-> Hits: 4, Late: 0, Early: 0, Misses: 0
39-> Hits: 2, Late: 0, Early: 0, Misses: 0
3a-> Hits: 2, Late: 0, Early: 0, Misses: 0
3c-> Hits: 2, Late: 0, Early: 0, Misses: 0
3d-> Hits: 1, Late: 12, Early: 0, Misses: 0
3e-> Hits: 2, Late: 0, Early: 0, Misses: 0
3f-> Hits: 1, Late: 0, Early: 0, Misses: 0
40-> Hits: 2, Late: 2, Early: 0, Misses: 0
43-> Hits: 2, Late: 0, Early: 0, Misses: 0
44-> Hits: 3, Late: 0, Early: 0, Misses: 0
45-> Hits: 2, Late: 0, Early: 0, Misses: 0
46-> Hits: 72, Late: 34, Early: 0, Misses: 0
47-> Hits: 2, Late: 0, Early: 0, Misses: 0
48-> Hits: 18, Late: 0, Early: 0, Misses: 0
49-> Hits: 20, Late: 0, Early: 0, Misses: 0
4a-> Hits: 15, Late: 0, Early: 0, Misses: 0
4b-> Hits: 103, Late: 14, Early: 0, Misses: 0
4d-> Hits: 15, Late: 0, Early: 0, Misses: 0
4e-> Hits: 1, Late: 0, Early: 0, Misses: 0
4f-> Hits: 13, Late: 0, Early: 0, Misses: 0
50-> Hits: 63, Late: 50, Early: 0, Misses: 0
51-> Hits: 13, Late: 0, Early: 0, Misses: 0
52-> Hits: 8, Late: 0, Early: 0, Misses: 0
53-> Hits: 16, Late: 0, Early: 0, Misses: 0
54-> Hits: 3, Late: 0, Early: 0, Misses: 0
56-> Hits: 152, Late: 15, Early: 0, Misses: 1
58-> Hits: 2, Late: 0, Early: 0, Misses: 0
5a-> Hits: 2, Late: 0, Early: 0, Misses: 0
5c-> Hits: 6, Late: 1, Early: 0, Misses: 0
5d-> Hits: 4, Late: 0, Early: 0, Misses: 0
61-> Hits: 3, Late: 0, Early: 0, Misses: 0
62-> Hits: 2, Late: 0, Early: 0, Misses: 0
63-> Hits: 0, Late: 2, Early: 0, Misses: 0
64-> Hits: 89, Late: 2, Early: 0, Misses: 0
69-> Hits: 2, Late: 0, Early: 0, Misses: 0
6a-> Hits: 2, Late: 0, Early: 0, Misses: 0
6b-> Hits: 1, Late: 5, Early: 0, Misses: 0
70-> Hits: 87, Late: 1, Early: 0, Misses: 0
76-> Hits: 2, Late: 1, Early: 0, Misses: 0
77-> Hits: 2, Late: 0, Early: 0, Misses: 0
78-> Hits: 90, Late: 0, Early: 0, Misses: 0
79-> Hits: 1, Late: 0, Early: 0, Misses: 0
7a-> Hits: 3, Late: 0, Early: 0, Misses: 0
7b-> Hits: 3, Late: 2, Early: 0, Misses: 0
7c-> Hits: 1, Late: 0, Early: 0, Misses: 0
7d-> Hits: 1, Late: 0, Early: 0, Misses: 0
7e-> Hits: 3, Late: 0, Early: 0, Misses: 0
7f-> Hits: 5, Late: 0, Early: 0, Misses: 0
80-> Hits: 5128, Late: 0, Early: 0, Misses: 2
81-> Hits: 1, Late: 0, Early: 0, Misses: 0
82-> Hits: 2, Late: 0, Early: 0, Misses: 0
84-> Hits: 4, Late: 1, Early: 0, Misses: 0
86-> Hits: 1, Late: 0, Early: 0, Misses: 0
88-> Hits: 1154, Late: 72, Early: 0, Misses: 8
89-> Hits: 136, Late: 1, Early: 0, Misses: 0
8a-> Hits: 2, Late: 0, Early: 0, Misses: 0
8f-> Hits: 25, Late: 0, Early: 0, Misses: 0
90-> Hits: 0, Late: 1, Early: 0, Misses: 0
91-> Hits: 2, Late: 0, Early: 0, Misses: 0
92-> Hits: 5121, Late: 0, Early: 0, Misses: 0
94-> Hits: 22, Late: 0, Early: 0, Misses: 0
95-> Hits: 1, Late: 0, Early: 0, Misses: 0
96-> Hits: 3, Late: 0, Early: 0, Misses: 0
98-> Hits: 3, Late: 0, Early: 0, Misses: 0
99-> Hits: 1, Late: 0, Early: 0, Misses: 0
9a-> Hits: 5, Late: 0, Early: 0, Misses: 0
9b-> Hits: 3, Late: 0, Early: 0, Misses: 0
9c-> Hits: 1248, Late: 0, Early: 0, Misses: 0
9d-> Hits: 130, Late: 0, Early: 0, Misses: 0
9e-> Hits: 2, Late: 0, Early: 0, Misses: 0
9f-> Hits: 4, Late: 0, Early: 0, Misses: 0
a0-> Hits: 1, Late: 0, Early: 0, Misses: 0
a1-> Hits: 5, Late: 0, Early: 0, Misses: 0
a2-> Hits: 1, Late: 0, Early: 0, Misses: 0
a3-> Hits: 3, Late: 0, Early: 0, Misses: 0
a4-> Hits: 13, Late: 0, Early: 0, Misses: 0
a5-> Hits: 4, Late: 0, Early: 0, Misses: 0
a6-> Hits: 5122, Late: 0, Early: 0, Misses: 0
a7-> Hits: 4, Late: 0, Early: 0, Misses: 0
a8-> Hits: 3, Late: 0, Early: 0, Misses: 0
a9-> Hits: 4, Late: 0, Early: 0, Misses: 0
aa-> Hits: 2, Late: 0, Early: 0, Misses: 0
ab-> Hits: 5, Late: 0, Early: 0, Misses: 0
ac-> Hits: 4, Late: 1, Early: 0, Misses: 0
ad-> Hits: 4, Late: 0, Early: 0, Misses: 0
ae-> Hits: 6, Late: 0, Early: 0, Misses: 0
af-> Hits: 7, Late: 3, Early: 0, Misses: 0
b0-> Hits: 14, Late: 7, Early: 0, Misses: 0
b1-> Hits: 1, Late: 1, Early: 0, Misses: 0
b3-> Hits: 6, Late: 0, Early: 0, Misses: 0
b4-> Hits: 4, Late: 0, Early: 0, Misses: 0
b6-> Hits: 4373, Late: 754, Early: 0, Misses: 0
b7-> Hits: 4, Late: 1, Early: 0, Misses: 0
b8-> Hits: 2, Late: 1, Early: 0, Misses: 0
ba-> Hits: 2, Late: 0, Early: 0, Misses: 0
bb-> Hits: 93, Late: 5029, Early: 0, Misses: 0
bc-> Hits: 2, Late: 0, Early: 0, Misses: 0
bf-> Hits: 1, Late: 0, Early: 0, Misses: 0
c0-> Hits: 11, Late: 15, Early: 0, Misses: 0
c1-> Hits: 1, Late: 0, Early: 0, Misses: 0
c2-> Hits: 6, Late: 0, Early: 0, Misses: 1
c3-> Hits: 6, Late: 0, Early: 0, Misses: 0
c4-> Hits: 92, Late: 0, Early: 0, Misses: 0
c5-> Hits: 1, Late: 0, Early: 0, Misses: 0
c6-> Hits: 4, Late: 0, Early: 0, Misses: 0
c7-> Hits: 5, Late: 0, Early: 0, Misses: 0
c8-> Hits: 10, Late: 0, Early: 0, Misses: 0
c9-> Hits: 1, Late: 0, Early: 0, Misses: 0
ca-> Hits: 1, Late: 0, Early: 0, Misses: 0
cb-> Hits: 93, Late: 5108, Early: 0, Misses: 8
cc-> Hits: 1, Late: 0, Early: 0, Misses: 0
cf-> Hits: 1, Late: 0, Early: 0, Misses: 0
d0-> Hits: 606, Late: 4514, Early: 0, Misses: 0
d1-> Hits: 4, Late: 0, Early: 0, Misses: 0
d2-> Hits: 6, Late: 0, Early: 0, Misses: 0
d3-> Hits: 21, Late: 1, Early: 0, Misses: 0
d4-> Hits: 1, Late: 0, Early: 0, Misses: 0
d5-> Hits: 2, Late: 0, Early: 0, Misses: 0
d6-> Hits: 2, Late: 0, Early: 0, Misses: 0
d7-> Hits: 1, Late: 0, Early: 0, Misses: 0
d8-> Hits: 1, Late: 0, Early: 0, Misses: 0
d9-> Hits: 5, Late: 80, Early: 0, Misses: 8
db-> Hits: 2, Late: 0, Early: 0, Misses: 0
dd-> Hits: 2, Late: 0, Early: 0, Misses: 0
df-> Hits: 1, Late: 0, Early: 0, Misses: 0
e0-> Hits: 12, Late: 6, Early: 0, Misses: 0
e1-> Hits: 1, Late: 0, Early: 0, Misses: 0
ea-> Hits: 2, Late: 0, Early: 0, Misses: 0
f3-> Hits: 89, Late: 1, Early: 0, Misses: 0
f4-> Hits: 1, Late: 0, Early: 0, Misses: 0
f6-> Hits: 2, Late: 0, Early: 0, Misses: 0
f7-> Hits: 4, Late: 0, Early: 0, Misses: 0
f8-> Hits: 3, Late: 0, Early: 0, Misses: 0
fa-> Hits: 2, Late: 0, Early: 0, Misses: 0
fb-> Hits: 21, Late: 0, Early: 0, Misses: 0
fc-> Hits: 1, Late: 0, Early: 0, Misses: 0
fd-> Hits: 2, Late: 0, Early: 0, Misses: 0
fe-> Hits: 1, Late: 0, Early: 0, Misses: 0
ff-> Hits: 4, Late: 0, Early: 0, Misses: 0
100-> Hits: 11, Late: 2, Early: 0, Misses: 0
101-> Hits: 1, Late: 0, Early: 0, Misses: 0
103-> Hits: 1, Late: 0, Early: 0, Misses: 0
104-> Hits: 0, Late: 1, Early: 0, Misses: 0
107-> Hits: 1, Late: 0, Early: 0, Misses: 0
10a-> Hits: 1, Late: 0, Early: 0, Misses: 0
10b-> Hits: 3, Late: 0, Early: 0, Misses: 0
10d-> Hits: 1, Late: 0, Early: 0, Misses: 0
10e-> Hits: 1, Late: 0, Early: 0, Misses: 0
110-> Hits: 1, Late: 1, Early: 0, Misses: 0
112-> Hits: 12, Late: 1, Early: 0, Misses: 0
114-> Hits: 1, Late: 0, Early: 0, Misses: 0
115-> Hits: 1, Late: 0, Early: 0, Misses: 0
116-> Hits: 1, Late: 0, Early: 0, Misses: 0
117-> Hits: 3, Late: 0, Early: 0, Misses: 0
118-> Hits: 1, Late: 0, Early: 0, Misses: 0
11a-> Hits: 4, Late: 0, Early: 0, Misses: 0
11b-> Hits: 3, Late: 0, Early: 0, Misses: 0
11c-> Hits: 3, Late: 0, Early: 0, Misses: 0
11d-> Hits: 1, Late: 0, Early: 0, Misses: 0
11e-> Hits: 2, Late: 0, Early: 0, Misses: 0
11f-> Hits: 1, Late: 0, Early: 0, Misses: 0
120-> Hits: 2, Late: 2, Early: 0, Misses: 0
121-> Hits: 1, Late: 0, Early: 0, Misses: 0
122-> Hits: 2, Late: 0, Early: 0, Misses: 0
123-> Hits: 1, Late: 0, Early: 0, Misses: 0
124-> Hits: 3, Late: 0, Early: 0, Misses: 0
125-> Hits: 1, Late: 0, Early: 0, Misses: 0
126-> Hits: 1, Late: 0, Early: 0, Misses: 0
127-> Hits: 1, Late: 0, Early: 0, Misses: 0
128-> Hits: 89, Late: 1, Early: 0, Misses: 0
129-> Hits: 1, Late: 0, Early: 0, Misses: 0
12b-> Hits: 6, Late: 0, Early: 0, Misses: 0
12c-> Hits: 2, Late: 0, Early: 0, Misses: 0
12d-> Hits: 2, Late: 0, Early: 0, Misses: 0
12f-> Hits: 1, Late: 0, Early: 0, Misses: 0
130-> Hits: 3, Late: 1, Early: 0, Misses: 0
132-> Hits: 1, Late: 0, Early: 0, Misses: 0
133-> Hits: 1, Late: 0, Early: 0, Misses: 0
134-> Hits: 0, Late: 1, Early: 0, Misses: 0
136-> Hits: 1, Late: 0, Early: 0, Misses: 0
137-> Hits: 1, Late: 0, Early: 0, Misses: 0
138-> Hits: 1, Late: 0, Early: 0, Misses: 0
13a-> Hits: 3, Late: 0, Early: 0, Misses: 0
13b-> Hits: 1, Late: 0, Early: 0, Misses: 0
13c-> Hits: 1, Late: 0, Early: 0, Misses: 0
13e-> Hits: 1, Late: 0, Early: 0, Misses: 0
13f-> Hits: 1, Late: 0, Early: 0, Misses: 0
140-> Hits: 1, Late: 3, Early: 0, Misses: 0
142-> Hits: 4, Late: 0, Early: 0, Misses: 0
143-> Hits: 1, Late: 0, Early: 0, Misses: 0
144-> Hits: 0, Late: 2, Early: 0, Misses: 0
145-> Hits: 1, Late: 0, Early: 0, Misses: 0
147-> Hits: 10, Late: 0, Early: 0, Misses: 0
148-> Hits: 2, Late: 0, Early: 0, Misses: 0
149-> Hits: 4, Late: 0, Early: 0, Misses: 0
14a-> Hits: 5, Late: 0, Early: 0, Misses: 0
14d-> Hits: 0, Late: 1, Early: 0, Misses: 0
14f-> Hits: 9, Late: 0, Early: 0, Misses: 0
154-> Hits: 8, Late: 0, Early: 0, Misses: 0
155-> Hits: 2, Late: 2, Early: 0, Misses: 0
156-> Hits: 0, Late: 1, Early: 0, Misses: 0
159-> Hits: 12, Late: 0, Early: 0, Misses: 0
15b-> Hits: 2, Late: 0, Early: 0, Misses: 0
15d-> Hits: 3, Late: 0, Early: 0, Misses: 0
160-> Hits: 1, Late: 0, Early: 0, Misses: 0
163-> Hits: 1, Late: 0, Early: 0, Misses: 0
164-> Hits: 88, Late: 0, Early: 0, Misses: 0
165-> Hits: 2, Late: 0, Early: 0, Misses: 0
168-> Hits: 1, Late: 0, Early: 0, Misses: 0
169-> Hits: 8, Late: 0, Early: 0, Misses: 0
16a-> Hits: 8, Late: 1, Early: 0, Misses: 0
16b-> Hits: 10, Late: 0, Early: 0, Misses: 0
16d-> Hits: 16, Late: 0, Early: 0, Misses: 0
16e-> Hits: 80, Late: 13, Early: 0, Misses: 0
16f-> Hits: 10, Late: 0, Early: 0, Misses: 0
171-> Hits: 8, Late: 0, Early: 0, Misses: 0
172-> Hits: 2, Late: 0, Early: 0, Misses: 0
176-> Hits: 9, Late: 0, Early: 0, Misses: 0
177-> Hits: 9, Late: 0, Early: 0, Misses: 0
178-> Hits: 1, Late: 0, Early: 0, Misses: 0
17a-> Hits: 0, Late: 1, Early: 0, Misses: 0
17c-> Hits: 21, Late: 0, Early: 0, Misses: 0
17d-> Hits: 2, Late: 0, Early: 0, Misses: 0
180-> Hits: 13, Late: 6, Early: 0, Misses: 0
181-> Hits: 9, Late: 0, Early: 0, Misses: 0
184-> Hits: 5, Late: 0, Early: 0, Misses: 0
185-> Hits: 5, Late: 0, Early: 0, Misses: 0
188-> Hits: 2, Late: 0, Early: 0, Misses: 0
189-> Hits: 3, Late: 0, Early: 0, Misses: 0
18b-> Hits: 2, Late: 0, Early: 0, Misses: 0
18c-> Hits: 2, Late: 0, Early: 0, Misses: 0
18e-> Hits: 1, Late: 0, Early: 0, Misses: 0
18f-> Hits: 1, Late: 0, Early: 0, Misses: 0
190-> Hits: 10, Late: 1, Early: 0, Misses: 0
192-> Hits: 2, Late: 0, Early: 0, Misses: 0
194-> Hits: 1, Late: 8, Early: 0, Misses: 0
195-> Hits: 1, Late: 0, Early: 0, Misses: 0
197-> Hits: 9, Late: 0, Early: 0, Misses: 0
198-> Hits: 5, Late: 0, Early: 0, Misses: 0
199-> Hits: 6, Late: 8, Early: 0, Misses: 0
19a-> Hits: 3, Late: 0, Early: 0, Misses: 0
19b-> Hits: 8, Late: 0, Early: 0, Misses: 0
19c-> Hits: 3, Late: 0, Early: 0, Misses: 0
19d-> Hits: 12, Late: 1, Early: 0, Misses: 0
19e-> Hits: 2, Late: 0, Early: 0, Misses: 0
19f-> Hits: 4, Late: 0, Early: 0, Misses: 0
1a0-> Hits: 4, Late: 0, Early: 0, Misses: 0
1a1-> Hits: 5, Late: 0, Early: 0, Misses: 0
1a2-> Hits: 8, Late: 0, Early: 0, Misses: 0
1a4-> Hits: 7, Late: 1, Early: 0, Misses: 0
1a5-> Hits: 1, Late: 0, Early: 0, Misses: 0
1a6-> Hits: 2, Late: 0, Early: 0, Misses: 0
1a7-> Hits: 4, Late: 0, Early: 0, Misses: 0
1a8-> Hits: 3, Late: 0, Early: 0, Misses: 0
1a9-> Hits: 9, Late: 0, Early: 0, Misses: 0
1ad-> Hits: 0, Late: 8, Early: 0, Misses: 0
1ae-> Hits: 2, Late: 0, Early: 0, Misses: 0
1af-> Hits: 7, Late: 0, Early: 0, Misses: 0
1b0-> Hits: 5, Late: 2, Early: 0, Misses: 0
1b1-> Hits: 5, Late: 0, Early: 0, Misses: 0
1b2-> Hits: 1, Late: 0, Early: 0, Misses: 0
1b3-> Hits: 3, Late: 0, Early: 0, Misses: 0
1b5-> Hits: 2, Late: 2, Early: 0, Misses: 0
1b6-> Hits: 2, Late: 1, Early: 0, Misses: 0
1b7-> Hits: 8, Late: 11, Early: 0, Misses: 0
1b8-> Hits: 2, Late: 2, Early: 0, Misses: 0
1b9-> Hits: 1, Late: 0, Early: 0, Misses: 0
1ba-> Hits: 4, Late: 0, Early: 0, Misses: 0
1bd-> Hits: 4, Late: 0, Early: 0, Misses: 0
1be-> Hits: 5, Late: 0, Early: 0, Misses: 0
1bf-> Hits: 7, Late: 0, Early: 0, Misses: 0
1c0-> Hits: 3, Late: 3, Early: 0, Misses: 0
1c2-> Hits: 8, Late: 2, Early: 0, Misses: 0
1c3-> Hits: 6, Late: 0, Early: 0, Misses: 0
1c4-> Hits: 3, Late: 0, Early: 0, Misses: 0
1c5-> Hits: 1, Late: 0, Early: 0, Misses: 0
1c6-> Hits: 4, Late: 0, Early: 0, Misses: 0
1c7-> Hits: 2, Late: 10, Early: 0, Misses: 0
1c8-> Hits: 3, Late: 0, Early: 0, Misses: 0
1c9-> Hits: 1, Late: 0, Early: 0, Misses: 0
1ca-> Hits: 2, Late: 0, Early: 0, Misses: 0
1cc-> Hits: 1, Late: 2, Early: 0, Misses: 0
1cd-> Hits: 8, Late: 0, Early: 0, Misses: 0
1ce-> Hits: 3, Late: 0, Early: 0, Misses: 0
1d0-> Hits: 11, Late: 1, Early: 0, Misses: 0
1d4-> Hits: 1, Late: 0, Early: 0, Misses: 0
1d6-> Hits: 5, Late: 0, Early: 0, Misses: 0
1d7-> Hits: 1, Late: 0, Early: 0, Misses: 0
1d8-> Hits: 7, Late: 0, Early: 0, Misses: 0
1da-> Hits: 3, Late: 0, Early: 0, Misses: 0
1db-> Hits: 5, Late: 1, Early: 0, Misses: 0
1de-> Hits: 10, Late: 1, Early: 0, Misses: 0
1df-> Hits: 13, Late: 0, Early: 0, Misses: 0
1e0-> Hits: 7, Late: 1, Early: 0, Misses: 0
1e1-> Hits: 8, Late: 1, Early: 0, Misses: 0
1e2-> Hits: 1, Late: 1, Early: 0, Misses: 0
1e4-> Hits: 0, Late: 1, Early: 0, Misses: 0
1e5-> Hits: 3, Late: 1, Early: 0, Misses: 0
1e7-> Hits: 1, Late: 0, Early: 0, Misses: 0
1e8-> Hits: 0, Late: 1, Early: 0, Misses: 0
1ea-> Hits: 0, Late: 1, Early: 0, Misses: 0
1eb-> Hits: 5, Late: 0, Early: 0, Misses: 0
1ec-> Hits: 2, Late: 0, Early: 0, Misses: 0
1ef-> Hits: 11, Late: 0, Early: 0, Misses: 0
1f0-> Hits: 15, Late: 90, Early: 0, Misses: 0
1f1-> Hits: 2, Late: 0, Early: 0, Misses: 0
1f2-> Hits: 1, Late: 0, Early: 0, Misses: 0
1f4-> Hits: 1, Late: 86, Early: 0, Misses: 0
1f6-> Hits: 1, Late: 0, Early: 0, Misses: 0
1f7-> Hits: 1, Late: 7, Early: 0, Misses: 0
1f8-> Hits: 6, Late: 0, Early: 0, Misses: 0
1f9-> Hits: 1, Late: 0, Early: 0, Misses: 0
1fa-> Hits: 1, Late: 0, Early: 0, Misses: 0
1fc-> Hits: 2, Late: 8, Early: 0, Misses: 0
1fd-> Hits: 0, Late: 1, Early: 0, Misses: 0
1fe-> Hits: 19, Late: 2, Early: 0, Misses: 0
200-> Hits: 2, Late: 0, Early: 0, Misses: 0
201-> Hits: 5, Late: 0, Early: 0, Misses: 0
202-> Hits: 1, Late: 0, Early: 0, Misses: 0
203-> Hits: 12, Late: 1, Early: 0, Misses: 0
205-> Hits: 4, Late: 0, Early: 0, Misses: 0
206-> Hits: 4, Late: 1, Early: 0, Misses: 0
207-> Hits: 12, Late: 0, Early: 0, Misses: 0
208-> Hits: 24, Late: 1, Early: 0, Misses: 0
20a-> Hits: 5, Late: 0, Early: 0, Misses: 0
20c-> Hits: 4, Late: 0, Early: 0, Misses: 0
20e-> Hits: 6, Late: 0, Early: 0, Misses: 0
20f-> Hits: 13, Late: 3, Early: 0, Misses: 0
210-> Hits: 3, Late: 3, Early: 0, Misses: 0
212-> Hits: 5, Late: 0, Early: 0, Misses: 0
214-> Hits: 1, Late: 20, Early: 0, Misses: 0
216-> Hits: 3, Late: 0, Early: 0, Misses: 0
217-> Hits: 12, Late: 1, Early: 0, Misses: 0
218-> Hits: 3, Late: 0, Early: 0, Misses: 0
219-> Hits: 0, Late: 1, Early: 0, Misses: 0
21a-> Hits: 8, Late: 1, Early: 0, Misses: 0
21d-> Hits: 2, Late: 0, Early: 0, Misses: 0
21f-> Hits: 9, Late: 0, Early: 0, Misses: 0
220-> Hits: 6, Late: 4, Early: 0, Misses: 0
221-> Hits: 4, Late: 1, Early: 0, Misses: 0
224-> Hits: 2, Late: 1, Early: 0, Misses: 0
225-> Hits: 5, Late: 2, Early: 0, Misses: 0
226-> Hits: 1, Late: 0, Early: 0, Misses: 0
227-> Hits: 0, Late: 1, Early: 0, Misses: 0
228-> Hits: 1, Late: 0, Early: 0, Misses: 0
22a-> Hits: 3, Late: 0, Early: 0, Misses: 0
22b-> Hits: 7, Late: 1, Early: 0, Misses: 0
22c-> Hits: 5, Late: 0, Early: 0, Misses: 0
22d-> Hits: 3, Late: 0, Early: 0, Misses: 0
22e-> Hits: 1, Late: 0, Early: 0, Misses: 0
22f-> Hits: 3, Late: 0, Early: 0, Misses: 0
230-> Hits: 4, Late: 1, Early: 0, Misses: 0
231-> Hits: 7, Late: 0, Early: 0, Misses: 0
232-> Hits: 4, Late: 0, Early: 0, Misses: 0
233-> Hits: 4, Late: 0, Early: 0, Misses: 0
234-> Hits: 1, Late: 0, Early: 0, Misses: 0
235-> Hits: 2, Late: 0, Early: 0, Misses: 0
236-> Hits: 1, Late: 0, Early: 0, Misses: 0
23a-> Hits: 5, Late: 7, Early: 0, Misses: 0
23b-> Hits: 3, Late: 0, Early: 0, Misses: 0
23c-> Hits: 3, Late: 0, Early: 0, Misses: 0
23d-> Hits: 11, Late: 0, Early: 0, Misses: 0
23e-> Hits: 6, Late: 0, Early: 0, Misses: 0
23f-> Hits: 6, Late: 0, Early: 0, Misses: 0
240-> Hits: 9, Late: 5, Early: 0, Misses: 0
241-> Hits: 2, Late: 0, Early: 0, Misses: 0
245-> Hits: 5, Late: 0, Early: 0, Misses: 0
246-> Hits: 4, Late: 0, Early: 0, Misses: 0
247-> Hits: 1, Late: 0, Early: 0, Misses: 0
248-> Hits: 4, Late: 0, Early: 0, Misses: 0
249-> Hits: 2, Late: 0, Early: 0, Misses: 0
24a-> Hits: 1, Late: 1, Early: 0, Misses: 0
24b-> Hits: 1, Late: 0, Early: 0, Misses: 0
24d-> Hits: 2, Late: 0, Early: 0, Misses: 0
24e-> Hits: 1, Late: 0, Early: 0, Misses: 0
24f-> Hits: 5, Late: 0, Early: 0, Misses: 0
250-> Hits: 4, Late: 1, Early: 0, Misses: 0
251-> Hits: 4, Late: 0, Early: 0, Misses: 0
252-> Hits: 4, Late: 1, Early: 0, Misses: 0
253-> Hits: 1, Late: 0, Early: 0, Misses: 0
254-> Hits: 4, Late: 0, Early: 0, Misses: 0
255-> Hits: 3, Late: 1, Early: 0, Misses: 0
256-> Hits: 3, Late: 0, Early: 0, Misses: 0
258-> Hits: 4, Late: 0, Early: 0, Misses: 0
25a-> Hits: 3, Late: 0, Early: 0, Misses: 0
25c-> Hits: 1, Late: 0, Early: 0, Misses: 0
25d-> Hits: 1, Late: 0, Early: 0, Misses: 0
25e-> Hits: 1, Late: 0, Early: 0, Misses: 0
25f-> Hits: 1, Late: 2, Early: 0, Misses: 0
260-> Hits: 9, Late: 3, Early: 0, Misses: 0
261-> Hits: 1, Late: 0, Early: 0, Misses: 0
263-> Hits: 9, Late: 1, Early: 0, Misses: 0
264-> Hits: 2, Late: 0, Early: 0, Misses: 0
265-> Hits: 3, Late: 0, Early: 0, Misses: 0
266-> Hits: 4, Late: 0, Early: 0, Misses: 0
267-> Hits: 6, Late: 0, Early: 0, Misses: 0
268-> Hits: 5, Late: 0, Early: 0, Misses: 0
269-> Hits: 1, Late: 0, Early: 0, Misses: 0
26a-> Hits: 2, Late: 0, Early: 0, Misses: 0
26b-> Hits: 1, Late: 0, Early: 0, Misses: 0
26d-> Hits: 8, Late: 0, Early: 0, Misses: 0
26e-> Hits: 0, Late: 0, Early: 0, Misses: 8
270-> Hits: 17, Late: 1, Early: 0, Misses: 0
271-> Hits: 1, Late: 0, Early: 0, Misses: 0
274-> Hits: 1, Late: 0, Early: 0, Misses: 0
275-> Hits: 8, Late: 0, Early: 0, Misses: 0
276-> Hits: 1, Late: 0, Early: 0, Misses: 0
278-> Hits: 1, Late: 0, Early: 0, Misses: 0
27a-> Hits: 8, Late: 0, Early: 0, Misses: 0
27b-> Hits: 2, Late: 0, Early: 0, Misses: 0
27c-> Hits: 2, Late: 0, Early: 0, Misses: 0
27d-> Hits: 88, Late: 1, Early: 0, Misses: 0
27e-> Hits: 6, Late: 0, Early: 0, Misses: 0
27f-> Hits: 8, Late: 0, Early: 0, Misses: 0
280-> Hits: 0, Late: 2, Early: 0, Misses: 0
281-> Hits: 1, Late: 0, Early: 0, Misses: 0
282-> Hits: 5, Late: 0, Early: 0, Misses: 0
284-> Hits: 4, Late: 0, Early: 0, Misses: 0
285-> Hits: 20, Late: 1, Early: 0, Misses: 0
289-> Hits: 0, Late: 1, Early: 0, Misses: 0
28a-> Hits: 3, Late: 0, Early: 0, Misses: 0
28f-> Hits: 10, Late: 0, Early: 0, Misses: 0
290-> Hits: 1, Late: 0, Early: 0, Misses: 0
291-> Hits: 2, Late: 0, Early: 0, Misses: 0
294-> Hits: 1, Late: 0, Early: 0, Misses: 0
297-> Hits: 1, Late: 0, Early: 0, Misses: 0
298-> Hits: 1, Late: 0, Early: 0, Misses: 0
299-> Hits: 1, Late: 0, Early: 0, Misses: 0
29a-> Hits: 1, Late: 0, Early: 0, Misses: 0
29d-> Hits: 11, Late: 2, Early: 0, Misses: 0
29e-> Hits: 2, Late: 0, Early: 0, Misses: 0
29f-> Hits: 3, Late: 0, Early: 0, Misses: 0
2a0-> Hits: 2, Late: 1, Early: 0, Misses: 0
2a1-> Hits: 2, Late: 0, Early: 0, Misses: 0
2a2-> Hits: 3, Late: 0, Early: 0, Misses: 0
2a4-> Hits: 4, Late: 0, Early: 0, Misses: 0
2a5-> Hits: 1, Late: 0, Early: 0, Misses: 0
2a6-> Hits: 3, Late: 0, Early: 0, Misses: 0
2a7-> Hits: 5, Late: 0, Early: 0, Misses: 0
2a8-> Hits: 1, Late: 0, Early: 0, Misses: 0
2a9-> Hits: 7, Late: 0, Early: 0, Misses: 0
2aa-> Hits: 5, Late: 0, Early: 0, Misses: 0
2ad-> Hits: 1, Late: 1, Early: 0, Misses: 0
2ae-> Hits: 88, Late: 0, Early: 0, Misses: 0
2af-> Hits: 1, Late: 1, Early: 0, Misses: 0
2b1-> Hits: 1, Late: 1, Early: 0, Misses: 0
2b3-> Hits: 1, Late: 1, Early: 0, Misses: 0
2b6-> Hits: 1, Late: 1, Early: 0, Misses: 0
2b7-> Hits: 0, Late: 1, Early: 0, Misses: 0
2bd-> Hits: 16, Late: 0, Early: 0, Misses: 0
2c0-> Hits: 3, Late: 1, Early: 0, Misses: 0
2c1-> Hits: 1, Late: 1, Early: 0, Misses: 0
2c3-> Hits: 1, Late: 0, Early: 0, Misses: 0
2c5-> Hits: 9, Late: 2, Early: 0, Misses: 0
2c6-> Hits: 3, Late: 0, Early: 0, Misses: 0
2c7-> Hits: 1, Late: 0, Early: 0, Misses: 0
2c8-> Hits: 2, Late: 0, Early: 0, Misses: 0
2c9-> Hits: 6, Late: 0, Early: 0, Misses: 0
2ca-> Hits: 2, Late: 0, Early: 0, Misses: 0
2cc-> Hits: 2, Late: 1, Early: 0, Misses: 0
2cd-> Hits: 1, Late: 2, Early: 0, Misses: 0
2d1-> Hits: 1, Late: 1, Early: 0, Misses: 0
2d3-> Hits: 0, Late: 1, Early: 0, Misses: 0
2d6-> Hits: 2, Late: 1, Early: 0, Misses: 0
2d8-> Hits: 1, Late: 0, Early: 0, Misses: 0
2da-> Hits: 2, Late: 0, Early: 0, Misses: 0
2db-> Hits: 3, Late: 0, Early: 0, Misses: 0
2dc-> Hits: 4, Late: 0, Early: 0, Misses: 0
2de-> Hits: 2, Late: 0, Early: 0, Misses: 0
2df-> Hits: 2, Late: 2, Early: 0, Misses: 0
2e0-> Hits: 4, Late: 1, Early: 0, Misses: 0
2e2-> Hits: 3, Late: 0, Early: 0, Misses: 0
2e4-> Hits: 2, Late: 0, Early: 0, Misses: 0
2e5-> Hits: 2, Late: 0, Early: 0, Misses: 0
2e6-> Hits: 5, Late: 1, Early: 0, Misses: 0
2e9-> Hits: 2, Late: 0, Early: 0, Misses: 0
2ea-> Hits: 1, Late: 0, Early: 0, Misses: 0
2ed-> Hits: 1, Late: 0, Early: 0, Misses: 0
2ee-> Hits: 1, Late: 0, Early: 0, Misses: 0
2ef-> Hits: 1, Late: 0, Early: 0, Misses: 0
2f0-> Hits: 1, Late: 1, Early: 0, Misses: 0
2f1-> Hits: 2, Late: 0, Early: 0, Misses: 0
2f2-> Hits: 2, Late: 0, Early: 0, Misses: 0
2f3-> Hits: 24, Late: 0, Early: 0, Misses: 0
2f4-> Hits: 9, Late: 0, Early: 0, Misses: 0
2f5-> Hits: 12, Late: 0, Early: 0, Misses: 0
2f6-> Hits: 9, Late: 0, Early: 0, Misses: 0
2f7-> Hits: 20, Late: 0, Early: 0, Misses: 0
2f8-> Hits: 9, Late: 0, Early: 0, Misses: 0
2fa-> Hits: 9, Late: 0, Early: 0, Misses: 0
2fb-> Hits: 27, Late: 1, Early: 0, Misses: 0
300-> Hits: 5120, Late: 0, Early: 0, Misses: 1
301-> Hits: 2, Late: 0, Early: 0, Misses: 0
302-> Hits: 2, Late: 0, Early: 0, Misses: 0
304-> Hits: 2961, Late: 184, Early: 0, Misses: 0
305-> Hits: 10, Late: 0, Early: 0, Misses: 0
306-> Hits: 2, Late: 0, Early: 0, Misses: 0
308-> Hits: 1, Late: 1, Early: 0, Misses: 0
309-> Hits: 1226, Late: 1927, Early: 0, Misses: 0
30a-> Hits: 2, Late: 0, Early: 0, Misses: 0
30b-> Hits: 2, Late: 0, Early: 0, Misses: 0
30c-> Hits: 1, Late: 0, Early: 0, Misses: 0
30f-> Hits: 1212, Late: 1689, Early: 0, Misses: 0
310-> Hits: 1, Late: 1, Early: 0, Misses: 0
312-> Hits: 3, Late: 0, Early: 0, Misses: 0
313-> Hits: 1, Late: 0, Early: 0, Misses: 0
314-> Hits: 1315, Late: 1742, Early: 0, Misses: 2
315-> Hits: 176, Late: 0, Early: 0, Misses: 0
316-> Hits: 3, Late: 0, Early: 0, Misses: 0
317-> Hits: 7, Late: 3, Early: 0, Misses: 0
318-> Hits: 13, Late: 1, Early: 0, Misses: 0
319-> Hits: 7, Late: 0, Early: 0, Misses: 0
31a-> Hits: 423, Late: 4873, Early: 0, Misses: 0
31b-> Hits: 5, Late: 0, Early: 0, Misses: 0
31d-> Hits: 5, Late: 0, Early: 0, Misses: 0
31f-> Hits: 391, Late: 4739, Early: 0, Misses: 0
320-> Hits: 117, Late: 0, Early: 0, Misses: 0
324-> Hits: 1, Late: 0, Early: 0, Misses: 0
325-> Hits: 261, Late: 4860, Early: 0, Misses: 0
326-> Hits: 2, Late: 0, Early: 0, Misses: 0
327-> Hits: 1, Late: 0, Early: 0, Misses: 0
32a-> Hits: 356, Late: 4764, Early: 0, Misses: 0
32c-> Hits: 1, Late: 0, Early: 0, Misses: 0
32d-> Hits: 1, Late: 0, Early: 0, Misses: 0
32f-> Hits: 1, Late: 0, Early: 0, Misses: 0
330-> Hits: 4, Late: 1, Early: 0, Misses: 0
332-> Hits: 5, Late: 0, Early: 0, Misses: 0
333-> Hits: 2, Late: 0, Early: 0, Misses: 0
334-> Hits: 5120, Late: 1, Early: 0, Misses: 2
335-> Hits: 2, Late: 0, Early: 0, Misses: 0
336-> Hits: 1, Late: 0, Early: 0, Misses: 0
338-> Hits: 4, Late: 0, Early: 0, Misses: 0
339-> Hits: 1, Late: 0, Early: 0, Misses: 0
33a-> Hits: 6, Late: 0, Early: 0, Misses: 0
33c-> Hits: 1, Late: 0, Early: 0, Misses: 0
33d-> Hits: 2, Late: 0, Early: 0, Misses: 0
33f-> Hits: 1, Late: 0, Early: 0, Misses: 0
340-> Hits: 2, Late: 2, Early: 0, Misses: 0
341-> Hits: 3, Late: 0, Early: 0, Misses: 0
344-> Hits: 2, Late: 2, Early: 0, Misses: 0
347-> Hits: 4, Late: 2, Early: 0, Misses: 0
34a-> Hits: 4, Late: 0, Early: 0, Misses: 0
34b-> Hits: 2, Late: 0, Early: 0, Misses: 0
34c-> Hits: 3, Late: 1, Early: 0, Misses: 0
34d-> Hits: 3, Late: 2, Early: 0, Misses: 0
34e-> Hits: 1, Late: 0, Early: 0, Misses: 0
34f-> Hits: 78873, Late: 3029, Early: 0, Misses: 111
350-> Hits: 108, Late: 2, Early: 0, Misses: 0
351-> Hits: 1, Late: 0, Early: 0, Misses: 0
352-> Hits: 0, Late: 1, Early: 0, Misses: 0
353-> Hits: 3, Late: 0, Early: 0, Misses: 0
355-> Hits: 0, Late: 1, Early: 0, Misses: 0
356-> Hits: 22823, Late: 2, Early: 0, Misses: 3
357-> Hits: 86, Late: 0, Early: 0, Misses: 0
358-> Hits: 2, Late: 0, Early: 0, Misses: 0
359-> Hits: 5, Late: 1, Early: 0, Misses: 0
35a-> Hits: 85, Late: 0, Early: 0, Misses: 0
35c-> Hits: 81922, Late: 2, Early: 0, Misses: 0
35d-> Hits: 8, Late: 80, Early: 0, Misses: 0
360-> Hits: 15, Late: 0, Early: 0, Misses: 0
361-> Hits: 4, Late: 0, Early: 0, Misses: 0
362-> Hits: 4, Late: 0, Early: 0, Misses: 0
363-> Hits: 9, Late: 0, Early: 0, Misses: 0
364-> Hits: 4, Late: 0, Early: 0, Misses: 0
366-> Hits: 4, Late: 1, Early: 0, Misses: 0
367-> Hits: 1, Late: 0, Early: 0, Misses: 0
368-> Hits: 6, Late: 0, Early: 0, Misses: 0
36a-> Hits: 4, Late: 0, Early: 0, Misses: 0
36c-> Hits: 9, Late: 0, Early: 0, Misses: 0
36e-> Hits: 0, Late: 1, Early: 0, Misses: 0
36f-> Hits: 1, Late: 0, Early: 0, Misses: 0
370-> Hits: 3, Late: 0, Early: 0, Misses: 0
372-> Hits: 28548, Late: 3, Early: 0, Misses: 6
374-> Hits: 2, Late: 0, Early: 0, Misses: 0
375-> Hits: 3, Late: 0, Early: 0, Misses: 0
376-> Hits: 4, Late: 0, Early: 0, Misses: 0
377-> Hits: 2, Late: 0, Early: 0, Misses: 0
379-> Hits: 2, Late: 1, Early: 0, Misses: 0
37a-> Hits: 6, Late: 1, Early: 0, Misses: 0
37b-> Hits: 3, Late: 0, Early: 0, Misses: 0
37d-> Hits: 3, Late: 1, Early: 0, Misses: 0
37f-> Hits: 2, Late: 2, Early: 0, Misses: 0
380-> Hits: 2, Late: 0, Early: 0, Misses: 0
382-> Hits: 1, Late: 0, Early: 0, Misses: 0
383-> Hits: 0, Late: 2, Early: 0, Misses: 0
385-> Hits: 3, Late: 2, Early: 0, Misses: 0
386-> Hits: 3, Late: 0, Early: 0, Misses: 0
387-> Hits: 18190, Late: 8, Early: 0, Misses: 5
388-> Hits: 1, Late: 0, Early: 0, Misses: 0
389-> Hits: 6, Late: 1, Early: 0, Misses: 0
38a-> Hits: 0, Late: 1, Early: 0, Misses: 0
38b-> Hits: 5, Late: 0, Early: 0, Misses: 0
38d-> Hits: 81915, Late: 8, Early: 0, Misses: 0
38e-> Hits: 1, Late: 0, Early: 0, Misses: 0
38f-> Hits: 3, Late: 0, Early: 0, Misses: 0
390-> Hits: 1, Late: 2, Early: 0, Misses: 0
391-> Hits: 4, Late: 0, Early: 0, Misses: 0
392-> Hits: 1, Late: 0, Early: 0, Misses: 0
393-> Hits: 2, Late: 0, Early: 0, Misses: 0
394-> Hits: 4, Late: 0, Early: 0, Misses: 0
395-> Hits: 1, Late: 0, Early: 0, Misses: 0
396-> Hits: 5, Late: 1, Early: 0, Misses: 0
398-> Hits: 1, Late: 0, Early: 0, Misses: 0
399-> Hits: 81731, Late: 0, Early: 0, Misses: 0
39a-> Hits: 1, Late: 1, Early: 0, Misses: 0
39b-> Hits: 1, Late: 0, Early: 0, Misses: 0
39c-> Hits: 1, Late: 0, Early: 0, Misses: 0
39d-> Hits: 1, Late: 0, Early: 0, Misses: 0
3a0-> Hits: 1, Late: 2, Early: 0, Misses: 0
3a2-> Hits: 1, Late: 0, Early: 0, Misses: 0
3a3-> Hits: 81238, Late: 0, Early: 0, Misses: 0
3a7-> Hits: 3, Late: 0, Early: 0, Misses: 0
3aa-> Hits: 3, Late: 0, Early: 0, Misses: 0
3ab-> Hits: 1, Late: 0, Early: 0, Misses: 0
3ac-> Hits: 14878, Late: 0, Early: 0, Misses: 0
3af-> Hits: 1, Late: 0, Early: 0, Misses: 0
3b0-> Hits: 3, Late: 0, Early: 0, Misses: 0
3b1-> Hits: 67244, Late: 13, Early: 0, Misses: 14
3b2-> Hits: 2, Late: 0, Early: 0, Misses: 0
3b3-> Hits: 1, Late: 0, Early: 0, Misses: 0
3b5-> Hits: 1, Late: 0, Early: 0, Misses: 0
3b7-> Hits: 1, Late: 0, Early: 0, Misses: 0
3b9-> Hits: 3, Late: 0, Early: 0, Misses: 0
3c0-> Hits: 12, Late: 0, Early: 0, Misses: 0
3c6-> Hits: 16177, Late: 9, Early: 0, Misses: 2
3c8-> Hits: 1, Late: 0, Early: 0, Misses: 0
3ca-> Hits: 5, Late: 0, Early: 0, Misses: 0
3cb-> Hits: 1, Late: 0, Early: 0, Misses: 0
3cd-> Hits: 6, Late: 0, Early: 0, Misses: 0
3ce-> Hits: 1, Late: 0, Early: 0, Misses: 0
3cf-> Hits: 1, Late: 1, Early: 0, Misses: 0
3d0-> Hits: 4, Late: 0, Early: 0, Misses: 0
3d6-> Hits: 2, Late: 0, Early: 0, Misses: 0
3db-> Hits: 22130, Late: 69, Early: 0, Misses: 5
3dc-> Hits: 2, Late: 0, Early: 0, Misses: 0
3dd-> Hits: 4, Late: 0, Early: 0, Misses: 0
3e0-> Hits: 65544, Late: 1, Early: 0, Misses: 0
3e1-> Hits: 81913, Late: 8, Early: 0, Misses: 0
3e4-> Hits: 2, Late: 0, Early: 0, Misses: 0
3e5-> Hits: 2, Late: 0, Early: 0, Misses: 0
3e6-> Hits: 2, Late: 0, Early: 0, Misses: 0
3e8-> Hits: 3, Late: 0, Early: 0, Misses: 0
3ea-> Hits: 2, Late: 0, Early: 0, Misses: 0
3eb-> Hits: 1, Late: 0, Early: 0, Misses: 0
3ec-> Hits: 2, Late: 0, Early: 0, Misses: 0
3ed-> Hits: 1, Late: 0, Early: 0, Misses: 0
3ee-> Hits: 2, Late: 0, Early: 0, Misses: 0
3ef-> Hits: 8, Late: 0, Early: 0, Misses: 0
3f0-> Hits: 10, Late: 4, Early: 0, Misses: 0
3f5-> Hits: 1, Late: 0, Early: 0, Misses: 0
3f7-> Hits: 31953, Late: 56, Early: 0, Misses: 9
3fe-> Hits: 2, Late: 0, Early: 0, Misses: 0
3ff-> Hits: 1, Late: 0, Early: 0, Misses: 0
400-> Hits: 5, Late: 0, Early: 0, Misses: 0
401-> Hits: 4, Late: 0, Early: 0, Misses: 0
402-> Hits: 81513, Late: 0, Early: 0, Misses: 0
403-> Hits: 5, Late: 0, Early: 0, Misses: 0
404-> Hits: 8, Late: 0, Early: 0, Misses: 0
405-> Hits: 1, Late: 1, Early: 0, Misses: 0
406-> Hits: 8, Late: 0, Early: 0, Misses: 0
408-> Hits: 9, Late: 0, Early: 0, Misses: 0
40a-> Hits: 8, Late: 0, Early: 0, Misses: 0
40b-> Hits: 3, Late: 1, Early: 0, Misses: 0
40c-> Hits: 15409, Late: 0, Early: 0, Misses: 0
40d-> Hits: 1, Late: 0, Early: 0, Misses: 0
40e-> Hits: 2, Late: 0, Early: 0, Misses: 0
40f-> Hits: 1, Late: 0, Early: 0, Misses: 3
410-> Hits: 9, Late: 0, Early: 0, Misses: 0
413-> Hits: 1, Late: 0, Early: 0, Misses: 0
416-> Hits: 81912, Late: 0, Early: 0, Misses: 0
419-> Hits: 3, Late: 0, Early: 0, Misses: 0
41a-> Hits: 2, Late: 0, Early: 0, Misses: 0
41c-> Hits: 3, Late: 0, Early: 0, Misses: 0
41e-> Hits: 63426, Late: 11, Early: 0, Misses: 10
420-> Hits: 8, Late: 1, Early: 0, Misses: 0
422-> Hits: 2, Late: 0, Early: 0, Misses: 0
424-> Hits: 9, Late: 0, Early: 0, Misses: 0
426-> Hits: 2, Late: 0, Early: 0, Misses: 0
427-> Hits: 2, Late: 0, Early: 0, Misses: 0
428-> Hits: 5, Late: 2, Early: 0, Misses: 0
42a-> Hits: 2, Late: 0, Early: 0, Misses: 0
42b-> Hits: 3, Late: 0, Early: 0, Misses: 0
42c-> Hits: 2, Late: 0, Early: 0, Misses: 0
42d-> Hits: 1, Late: 0, Early: 0, Misses: 0
42e-> Hits: 81914, Late: 8, Early: 0, Misses: 0
430-> Hits: 14268, Late: 67, Early: 0, Misses: 185
434-> Hits: 14231, Late: 27, Early: 0, Misses: 70
437-> Hits: 1, Late: 0, Early: 0, Misses: 0
438-> Hits: 3, Late: 0, Early: 0, Misses: 0
439-> Hits: 207, Late: 0, Early: 0, Misses: 1
43a-> Hits: 26372, Late: 3, Early: 0, Misses: 2
43b-> Hits: 3, Late: 1, Early: 0, Misses: 0
43f-> Hits: 1, Late: 0, Early: 0, Misses: 0
440-> Hits: 9, Late: 4, Early: 0, Misses: 0
441-> Hits: 14458, Late: 1, Early: 0, Misses: 57
443-> Hits: 8, Late: 1, Early: 0, Misses: 0
444-> Hits: 1, Late: 0, Early: 0, Misses: 0
447-> Hits: 4, Late: 0, Early: 0, Misses: 0
448-> Hits: 6, Late: 0, Early: 0, Misses: 0
44a-> Hits: 3, Late: 0, Early: 0, Misses: 0
44b-> Hits: 3, Late: 0, Early: 0, Misses: 0
44c-> Hits: 2, Late: 1, Early: 0, Misses: 0
44f-> Hits: 17270, Late: 3, Early: 0, Misses: 4
450-> Hits: 8, Late: 0, Early: 0, Misses: 0
451-> Hits: 10942, Late: 157, Early: 0, Misses: 3423
453-> Hits: 4, Late: 0, Early: 0, Misses: 0
454-> Hits: 15, Late: 11, Early: 0, Misses: 0
455-> Hits: 14061, Late: 35, Early: 0, Misses: 419
458-> Hits: 2, Late: 0, Early: 0, Misses: 0
459-> Hits: 10, Late: 1, Early: 0, Misses: 0
45a-> Hits: 11, Late: 0, Early: 0, Misses: 0
45b-> Hits: 18, Late: 0, Early: 0, Misses: 0
45d-> Hits: 15, Late: 0, Early: 0, Misses: 0
45f-> Hits: 3, Late: 0, Early: 0, Misses: 0
460-> Hits: 4, Late: 0, Early: 0, Misses: 0
461-> Hits: 1, Late: 0, Early: 0, Misses: 0
463-> Hits: 3, Late: 0, Early: 0, Misses: 0
464-> Hits: 21060, Late: 2, Early: 0, Misses: 2
466-> Hits: 13972, Late: 133, Early: 0, Misses: 415
468-> Hits: 8, Late: 0, Early: 0, Misses: 0
46a-> Hits: 81913, Late: 8, Early: 0, Misses: 0
46d-> Hits: 4, Late: 0, Early: 0, Misses: 0
470-> Hits: 65625, Late: 2, Early: 0, Misses: 0
471-> Hits: 19, Late: 0, Early: 0, Misses: 0
472-> Hits: 1, Late: 0, Early: 0, Misses: 0
473-> Hits: 3, Late: 0, Early: 0, Misses: 0
475-> Hits: 3, Late: 0, Early: 0, Misses: 0
476-> Hits: 57162, Late: 0, Early: 0, Misses: 0
477-> Hits: 14284, Late: 83, Early: 0, Misses: 149
478-> Hits: 100, Late: 0, Early: 0, Misses: 0
47a-> Hits: 1, Late: 0, Early: 0, Misses: 0
47b-> Hits: 1, Late: 0, Early: 0, Misses: 0
47c-> Hits: 3, Late: 0, Early: 0, Misses: 0
47d-> Hits: 102, Late: 0, Early: 0, Misses: 0
47e-> Hits: 4, Late: 0, Early: 0, Misses: 0
47f-> Hits: 9, Late: 1, Early: 0, Misses: 0
480-> Hits: 6, Late: 3, Early: 0, Misses: 0
481-> Hits: 1, Late: 0, Early: 0, Misses: 0
482-> Hits: 5, Late: 0, Early: 0, Misses: 0
483-> Hits: 81528, Late: 0, Early: 0, Misses: 0
484-> Hits: 2, Late: 0, Early: 0, Misses: 0
486-> Hits: 29, Late: 0, Early: 0, Misses: 0
487-> Hits: 14200, Late: 223, Early: 0, Misses: 95
488-> Hits: 20, Late: 0, Early: 0, Misses: 0
489-> Hits: 9, Late: 0, Early: 0, Misses: 0
48a-> Hits: 1, Late: 0, Early: 0, Misses: 0
48b-> Hits: 5, Late: 0, Early: 0, Misses: 0
48d-> Hits: 9, Late: 2, Early: 0, Misses: 0
48e-> Hits: 4, Late: 0, Early: 0, Misses: 0
48f-> Hits: 5, Late: 0, Early: 0, Misses: 0
490-> Hits: 15794, Late: 17, Early: 0, Misses: 0
491-> Hits: 5, Late: 0, Early: 0, Misses: 0
493-> Hits: 26, Late: 0, Early: 0, Misses: 0
494-> Hits: 28, Late: 0, Early: 0, Misses: 0
495-> Hits: 26, Late: 0, Early: 0, Misses: 0
496-> Hits: 4, Late: 0, Early: 0, Misses: 0
497-> Hits: 29, Late: 0, Early: 0, Misses: 0
498-> Hits: 83108, Late: 223, Early: 0, Misses: 281
499-> Hits: 26, Late: 0, Early: 0, Misses: 0
49b-> Hits: 29, Late: 0, Early: 0, Misses: 0
49c-> Hits: 1, Late: 0, Early: 0, Misses: 0
49d-> Hits: 114, Late: 0, Early: 0, Misses: 0
4a0-> Hits: 2, Late: 1, Early: 0, Misses: 0
4a2-> Hits: 3, Late: 0, Early: 0, Misses: 0
4a3-> Hits: 65, Late: 0, Early: 0, Misses: 0
4a5-> Hits: 8, Late: 0, Early: 0, Misses: 0
4a6-> Hits: 2, Late: 0, Early: 0, Misses: 0
4a9-> Hits: 14205, Late: 92, Early: 0, Misses: 223
4ab-> Hits: 4, Late: 0, Early: 0, Misses: 0
4ac-> Hits: 3, Late: 1, Early: 0, Misses: 0
4ad-> Hits: 34024, Late: 41, Early: 0, Misses: 79
4ae-> Hits: 5, Late: 0, Early: 0, Misses: 0
4b0-> Hits: 14, Late: 0, Early: 0, Misses: 0
4b1-> Hits: 3, Late: 0, Early: 0, Misses: 0
4b2-> Hits: 199, Late: 0, Early: 0, Misses: 0
4b3-> Hits: 81912, Late: 11, Early: 0, Misses: 0
4b4-> Hits: 4, Late: 1, Early: 0, Misses: 0
4b7-> Hits: 16, Late: 0, Early: 0, Misses: 0
4b8-> Hits: 13, Late: 0, Early: 0, Misses: 0
4ba-> Hits: 13080, Late: 0, Early: 0, Misses: 10
4bb-> Hits: 17, Late: 0, Early: 0, Misses: 0
4bd-> Hits: 1, Late: 0, Early: 0, Misses: 0
4be-> Hits: 1, Late: 1, Early: 0, Misses: 0
4c0-> Hits: 2, Late: 1, Early: 0, Misses: 0
4c1-> Hits: 1, Late: 0, Early: 0, Misses: 0
4c2-> Hits: 2, Late: 0, Early: 0, Misses: 0
4c4-> Hits: 2, Late: 0, Early: 0, Misses: 0
4c5-> Hits: 18, Late: 0, Early: 0, Misses: 0
4c6-> Hits: 7, Late: 0, Early: 0, Misses: 0
4c7-> Hits: 0, Late: 1, Early: 0, Misses: 0
4c8-> Hits: 2, Late: 0, Early: 0, Misses: 0
4c9-> Hits: 25514, Late: 56, Early: 0, Misses: 3
4ca-> Hits: 10562, Late: 302, Early: 0, Misses: 3656
4cb-> Hits: 3, Late: 0, Early: 0, Misses: 0
4cc-> Hits: 1, Late: 0, Early: 0, Misses: 0
4cd-> Hits: 4, Late: 0, Early: 0, Misses: 0
4ce-> Hits: 4, Late: 2, Early: 0, Misses: 0
4cf-> Hits: 12783, Late: 10, Early: 0, Misses: 301
4d0-> Hits: 4, Late: 0, Early: 0, Misses: 0
4d1-> Hits: 27, Late: 0, Early: 0, Misses: 0
4d2-> Hits: 4, Late: 0, Early: 0, Misses: 0
4d3-> Hits: 1, Late: 0, Early: 0, Misses: 0
4d4-> Hits: 6, Late: 0, Early: 0, Misses: 0
4d5-> Hits: 1, Late: 1, Early: 0, Misses: 0
4d6-> Hits: 11, Late: 9, Early: 0, Misses: 0
4d7-> Hits: 4, Late: 0, Early: 0, Misses: 0
4da-> Hits: 1, Late: 0, Early: 0, Misses: 0
4dc-> Hits: 3, Late: 2, Early: 0, Misses: 0
4dd-> Hits: 5, Late: 0, Early: 0, Misses: 0
4de-> Hits: 19698, Late: 44, Early: 0, Misses: 6
4df-> Hits: 3, Late: 0, Early: 0, Misses: 0
4e0-> Hits: 12776, Late: 56, Early: 0, Misses: 263
4e1-> Hits: 2, Late: 0, Early: 0, Misses: 0
4e2-> Hits: 7, Late: 0, Early: 0, Misses: 0
4e4-> Hits: 275, Late: 0, Early: 0, Misses: 0
4e5-> Hits: 7, Late: 0, Early: 0, Misses: 0
4e6-> Hits: 1, Late: 0, Early: 0, Misses: 0
4e7-> Hits: 3, Late: 0, Early: 0, Misses: 0
4e8-> Hits: 6, Late: 0, Early: 0, Misses: 0
4e9-> Hits: 20, Late: 0, Early: 0, Misses: 0
4ea-> Hits: 2, Late: 0, Early: 0, Misses: 0
4eb-> Hits: 27, Late: 0, Early: 0, Misses: 0
4ec-> Hits: 1, Late: 0, Early: 0, Misses: 0
4ed-> Hits: 81914, Late: 0, Early: 0, Misses: 0
4ef-> Hits: 2, Late: 0, Early: 0, Misses: 0
4f1-> Hits: 13221, Late: 36, Early: 0, Misses: 105
4f2-> Hits: 19, Late: 0, Early: 0, Misses: 0
4f3-> Hits: 5, Late: 1, Early: 0, Misses: 0
4f6-> Hits: 1, Late: 0, Early: 0, Misses: 0
4f7-> Hits: 4, Late: 0, Early: 0, Misses: 0
4f8-> Hits: 17, Late: 0, Early: 0, Misses: 0
4f9-> Hits: 11, Late: 0, Early: 0, Misses: 0
4fa-> Hits: 15042, Late: 0, Early: 0, Misses: 0
4fb-> Hits: 8, Late: 0, Early: 0, Misses: 0
4fc-> Hits: 1, Late: 0, Early: 0, Misses: 0
4fd-> Hits: 50, Late: 0, Early: 0, Misses: 0
4fe-> Hits: 1, Late: 0, Early: 0, Misses: 0
4ff-> Hits: 21, Late: 0, Early: 0, Misses: 0
500-> Hits: 3, Late: 1, Early: 0, Misses: 0
501-> Hits: 13106, Late: 76, Early: 0, Misses: 55
502-> Hits: 2, Late: 0, Early: 0, Misses: 0
503-> Hits: 2, Late: 0, Early: 0, Misses: 0
504-> Hits: 10, Late: 2, Early: 0, Misses: 0
505-> Hits: 285, Late: 2, Early: 0, Misses: 9
506-> Hits: 2, Late: 0, Early: 0, Misses: 0
507-> Hits: 81910, Late: 0, Early: 0, Misses: 0
508-> Hits: 1, Late: 0, Early: 0, Misses: 0
509-> Hits: 1, Late: 0, Early: 0, Misses: 0
50b-> Hits: 0, Late: 1, Early: 0, Misses: 0
50c-> Hits: 1, Late: 1, Early: 0, Misses: 0
50d-> Hits: 3, Late: 0, Early: 0, Misses: 0
510-> Hits: 2, Late: 0, Early: 0, Misses: 0
511-> Hits: 1, Late: 0, Early: 0, Misses: 0
512-> Hits: 12855, Late: 68, Early: 0, Misses: 183
514-> Hits: 3, Late: 1, Early: 0, Misses: 0
515-> Hits: 1, Late: 0, Early: 0, Misses: 0
516-> Hits: 82024, Late: 129, Early: 0, Misses: 48
518-> Hits: 1, Late: 0, Early: 0, Misses: 0
519-> Hits: 2, Late: 0, Early: 0, Misses: 0
51a-> Hits: 1, Late: 0, Early: 0, Misses: 0
51b-> Hits: 4, Late: 0, Early: 0, Misses: 0
51c-> Hits: 18, Late: 0, Early: 0, Misses: 7
51d-> Hits: 13, Late: 0, Early: 0, Misses: 0
51f-> Hits: 1, Late: 1, Early: 0, Misses: 0
520-> Hits: 65537, Late: 90, Early: 0, Misses: 0
521-> Hits: 13, Late: 0, Early: 0, Misses: 0
522-> Hits: 1, Late: 0, Early: 0, Misses: 0
523-> Hits: 14297, Late: 66, Early: 0, Misses: 157
524-> Hits: 8, Late: 0, Early: 0, Misses: 0
527-> Hits: 14573, Late: 27, Early: 0, Misses: 61
528-> Hits: 65547, Late: 1, Early: 0, Misses: 0
529-> Hits: 13, Late: 0, Early: 0, Misses: 0
52a-> Hits: 1, Late: 0, Early: 0, Misses: 0
52b-> Hits: 2, Late: 0, Early: 0, Misses: 0
52c-> Hits: 191, Late: 0, Early: 0, Misses: 0
52e-> Hits: 2, Late: 0, Early: 0, Misses: 0
530-> Hits: 8, Late: 1, Early: 0, Misses: 0
532-> Hits: 1, Late: 0, Early: 0, Misses: 0
534-> Hits: 13154, Late: 0, Early: 0, Misses: 8
535-> Hits: 1, Late: 0, Early: 0, Misses: 0
536-> Hits: 1, Late: 0, Early: 0, Misses: 0
537-> Hits: 288, Late: 0, Early: 0, Misses: 0
538-> Hits: 12, Late: 0, Early: 0, Misses: 0
539-> Hits: 1, Late: 0, Early: 0, Misses: 0
53a-> Hits: 9, Late: 0, Early: 0, Misses: 0
53b-> Hits: 267, Late: 0, Early: 0, Misses: 0
53c-> Hits: 65548, Late: 1, Early: 0, Misses: 0
53d-> Hits: 1, Late: 0, Early: 0, Misses: 0
53e-> Hits: 0, Late: 1, Early: 0, Misses: 0
53f-> Hits: 4, Late: 0, Early: 0, Misses: 0
540-> Hits: 29, Late: 1, Early: 0, Misses: 0
541-> Hits: 2, Late: 0, Early: 0, Misses: 0
544-> Hits: 12126, Late: 21, Early: 0, Misses: 238
545-> Hits: 65552, Late: 0, Early: 0, Misses: 0
547-> Hits: 0, Late: 1, Early: 0, Misses: 0
548-> Hits: 165, Late: 0, Early: 0, Misses: 0
549-> Hits: 1, Late: 0, Early: 0, Misses: 0
54a-> Hits: 1, Late: 0, Early: 0, Misses: 0
54b-> Hits: 1, Late: 0, Early: 0, Misses: 0
54c-> Hits: 1, Late: 0, Early: 0, Misses: 0
54d-> Hits: 2, Late: 11, Early: 0, Misses: 0
54e-> Hits: 65547, Late: 0, Early: 0, Misses: 2
550-> Hits: 0, Late: 2, Early: 0, Misses: 0
553-> Hits: 7, Late: 1, Early: 0, Misses: 0
554-> Hits: 2, Late: 0, Early: 0, Misses: 0
555-> Hits: 10224, Late: 978, Early: 0, Misses: 3326
556-> Hits: 9, Late: 0, Early: 0, Misses: 0
557-> Hits: 65538, Late: 1, Early: 0, Misses: 0
558-> Hits: 188, Late: 22, Early: 0, Misses: 81
559-> Hits: 2, Late: 0, Early: 0, Misses: 0
55a-> Hits: 13304, Late: 92, Early: 0, Misses: 275
55b-> Hits: 2, Late: 0, Early: 0, Misses: 0
55c-> Hits: 4, Late: 2, Early: 0, Misses: 0
55d-> Hits: 193, Late: 2, Early: 0, Misses: 7
55e-> Hits: 5, Late: 0, Early: 0, Misses: 0
55f-> Hits: 3, Late: 0, Early: 0, Misses: 0
560-> Hits: 65546, Late: 2, Early: 0, Misses: 0
561-> Hits: 14, Late: 0, Early: 0, Misses: 0
562-> Hits: 5, Late: 0, Early: 0, Misses: 0
563-> Hits: 3, Late: 4, Early: 0, Misses: 0
564-> Hits: 30, Late: 1, Early: 0, Misses: 0
565-> Hits: 5, Late: 0, Early: 0, Misses: 0
566-> Hits: 2, Late: 0, Early: 0, Misses: 0
567-> Hits: 2, Late: 0, Early: 0, Misses: 0
568-> Hits: 10, Late: 0, Early: 0, Misses: 0
569-> Hits: 65535, Late: 1, Early: 0, Misses: 0
56a-> Hits: 20, Late: 0, Early: 0, Misses: 7
56b-> Hits: 13448, Late: 45, Early: 0, Misses: 88
56d-> Hits: 27, Late: 0, Early: 0, Misses: 0
56e-> Hits: 180, Late: 1, Early: 0, Misses: 0
56f-> Hits: 1, Late: 0, Early: 0, Misses: 0
570-> Hits: 100, Late: 0, Early: 0, Misses: 0
572-> Hits: 65537, Late: 1, Early: 0, Misses: 0
574-> Hits: 16, Late: 1, Early: 0, Misses: 2
576-> Hits: 3, Late: 0, Early: 0, Misses: 0
577-> Hits: 17, Late: 8, Early: 0, Misses: 0
578-> Hits: 14, Late: 0, Early: 0, Misses: 0
579-> Hits: 4, Late: 0, Early: 0, Misses: 0
57a-> Hits: 7, Late: 0, Early: 0, Misses: 0
57b-> Hits: 13273, Late: 106, Early: 0, Misses: 50
57c-> Hits: 2, Late: 2, Early: 0, Misses: 0
57d-> Hits: 4, Late: 0, Early: 0, Misses: 0
57f-> Hits: 192, Late: 1, Early: 0, Misses: 0
580-> Hits: 6, Late: 2, Early: 0, Misses: 0
581-> Hits: 3, Late: 3, Early: 0, Misses: 0
582-> Hits: 2, Late: 0, Early: 0, Misses: 0
583-> Hits: 28, Late: 1, Early: 0, Misses: 0
584-> Hits: 65540, Late: 2, Early: 0, Misses: 0
586-> Hits: 1, Late: 3, Early: 0, Misses: 0
587-> Hits: 3, Late: 0, Early: 0, Misses: 0
588-> Hits: 6, Late: 1, Early: 0, Misses: 0
58b-> Hits: 3, Late: 0, Early: 0, Misses: 0
58c-> Hits: 13321, Late: 95, Early: 0, Misses: 200
58e-> Hits: 9, Late: 0, Early: 0, Misses: 0
58f-> Hits: 288, Late: 0, Early: 0, Misses: 0
590-> Hits: 17, Late: 5, Early: 0, Misses: 0
591-> Hits: 65535, Late: 2, Early: 0, Misses: 0
593-> Hits: 277, Late: 0, Early: 0, Misses: 0
594-> Hits: 1, Late: 0, Early: 0, Misses: 0
595-> Hits: 3, Late: 0, Early: 0, Misses: 0
598-> Hits: 30, Late: 0, Early: 0, Misses: 0
599-> Hits: 8, Late: 2, Early: 0, Misses: 0
59a-> Hits: 2, Late: 0, Early: 0, Misses: 0
59b-> Hits: 9, Late: 1, Early: 0, Misses: 0
59d-> Hits: 14273, Late: 80, Early: 0, Misses: 178
59e-> Hits: 3, Late: 1, Early: 0, Misses: 0
59f-> Hits: 3, Late: 0, Early: 0, Misses: 0
5a0-> Hits: 258, Late: 2, Early: 0, Misses: 6
5a1-> Hits: 14198, Late: 34, Early: 0, Misses: 67
5a2-> Hits: 7, Late: 0, Early: 0, Misses: 0
5a3-> Hits: 2, Late: 0, Early: 0, Misses: 0
5a5-> Hits: 65536, Late: 1, Early: 0, Misses: 0
5a6-> Hits: 259, Late: 0, Early: 0, Misses: 1
5a7-> Hits: 1, Late: 0, Early: 0, Misses: 0
5a9-> Hits: 3, Late: 0, Early: 0, Misses: 0
5aa-> Hits: 11, Late: 5, Early: 0, Misses: 0
5ab-> Hits: 15, Late: 0, Early: 0, Misses: 9
5ac-> Hits: 1, Late: 0, Early: 0, Misses: 0
5ae-> Hits: 13114, Late: 0, Early: 0, Misses: 8
5af-> Hits: 7, Late: 0, Early: 0, Misses: 0
5b0-> Hits: 189, Late: 3, Early: 0, Misses: 9
5b1-> Hits: 1, Late: 1, Early: 0, Misses: 0
5b2-> Hits: 4, Late: 0, Early: 0, Misses: 0
5b4-> Hits: 0, Late: 2, Early: 0, Misses: 0
5b6-> Hits: 5, Late: 0, Early: 0, Misses: 0
5b8-> Hits: 3, Late: 0, Early: 0, Misses: 0
5b9-> Hits: 16, Late: 0, Early: 0, Misses: 9
5bb-> Hits: 2, Late: 0, Early: 0, Misses: 0
5bc-> Hits: 2, Late: 0, Early: 0, Misses: 0
5bd-> Hits: 1, Late: 1, Early: 0, Misses: 0
5be-> Hits: 13296, Late: 26, Early: 0, Misses: 284
5bf-> Hits: 8, Late: 0, Early: 0, Misses: 0
5c0-> Hits: 521, Late: 0, Early: 0, Misses: 0
5c1-> Hits: 5167, Late: 74, Early: 0, Misses: 171
5c2-> Hits: 5, Late: 0, Early: 0, Misses: 0
5c3-> Hits: 10, Late: 0, Early: 0, Misses: 0
5c4-> Hits: 8, Late: 0, Early: 0, Misses: 0
5c5-> Hits: 1, Late: 0, Early: 0, Misses: 0
5c6-> Hits: 239, Late: 3, Early: 0, Misses: 12
5c7-> Hits: 4, Late: 0, Early: 0, Misses: 0
5c8-> Hits: 7, Late: 0, Early: 0, Misses: 0
5c9-> Hits: 2, Late: 0, Early: 0, Misses: 0
5ca-> Hits: 22, Late: 0, Early: 0, Misses: 0
5cb-> Hits: 2, Late: 0, Early: 0, Misses: 0
5cc-> Hits: 51, Late: 0, Early: 0, Misses: 0
5ce-> Hits: 0, Late: 1, Early: 0, Misses: 0
5cf-> Hits: 11517, Late: 52, Early: 0, Misses: 227
5d0-> Hits: 13, Late: 12, Early: 0, Misses: 0
5d1-> Hits: 65548, Late: 1, Early: 0, Misses: 0
5d2-> Hits: 2, Late: 0, Early: 0, Misses: 0
5d5-> Hits: 3, Late: 0, Early: 0, Misses: 0
5d6-> Hits: 4, Late: 1, Early: 0, Misses: 0
5d7-> Hits: 238, Late: 2, Early: 0, Misses: 6
5d8-> Hits: 3, Late: 4, Early: 0, Misses: 0
5db-> Hits: 60207, Late: 2, Early: 0, Misses: 0
5dc-> Hits: 49, Late: 2, Early: 0, Misses: 0
5dd-> Hits: 4992, Late: 54, Early: 0, Misses: 70
5de-> Hits: 4, Late: 0, Early: 0, Misses: 0
5df-> Hits: 8, Late: 5, Early: 0, Misses: 0
5e0-> Hits: 11806, Late: 1336, Early: 0, Misses: 1382
5e1-> Hits: 5, Late: 0, Early: 0, Misses: 0
5e2-> Hits: 2, Late: 0, Early: 0, Misses: 0
5e3-> Hits: 6, Late: 0, Early: 0, Misses: 0
5e4-> Hits: 13527, Late: 37, Early: 0, Misses: 88
5e5-> Hits: 3, Late: 0, Early: 0, Misses: 0
5e6-> Hits: 3, Late: 4, Early: 0, Misses: 0
5e7-> Hits: 292, Late: 1, Early: 0, Misses: 0
5e9-> Hits: 1, Late: 1, Early: 0, Misses: 0
5ea-> Hits: 15, Late: 0, Early: 0, Misses: 0
5eb-> Hits: 276, Late: 0, Early: 0, Misses: 0
5ed-> Hits: 2, Late: 0, Early: 0, Misses: 0
5ee-> Hits: 3, Late: 0, Early: 0, Misses: 0
5f0-> Hits: 23, Late: 1, Early: 0, Misses: 0
5f1-> Hits: 1, Late: 0, Early: 0, Misses: 0
5f2-> Hits: 5, Late: 0, Early: 0, Misses: 0
5f3-> Hits: 7, Late: 0, Early: 0, Misses: 0
5f4-> Hits: 13433, Late: 114, Early: 0, Misses: 58
5f5-> Hits: 4984, Late: 65, Early: 0, Misses: 74
5f6-> Hits: 1, Late: 0, Early: 0, Misses: 0
5f7-> Hits: 6, Late: 0, Early: 0, Misses: 0
5f8-> Hits: 246, Late: 0, Early: 0, Misses: 0
5f9-> Hits: 7, Late: 0, Early: 0, Misses: 0
5fa-> Hits: 1, Late: 0, Early: 0, Misses: 0
5fb-> Hits: 6, Late: 0, Early: 0, Misses: 0
5fc-> Hits: 1, Late: 0, Early: 0, Misses: 0
5fd-> Hits: 1, Late: 0, Early: 0, Misses: 0
5fe-> Hits: 17, Late: 0, Early: 0, Misses: 9
5ff-> Hits: 3, Late: 0, Early: 0, Misses: 1
600-> Hits: 1, Late: 2, Early: 0, Misses: 0
602-> Hits: 6, Late: 0, Early: 0, Misses: 0
604-> Hits: 5, Late: 0, Early: 0, Misses: 0
605-> Hits: 13398, Late: 78, Early: 0, Misses: 115
606-> Hits: 23, Late: 0, Early: 0, Misses: 0
607-> Hits: 16, Late: 0, Early: 0, Misses: 0
608-> Hits: 251, Late: 3, Early: 0, Misses: 9
609-> Hits: 16, Late: 0, Early: 0, Misses: 0
60a-> Hits: 3, Late: 0, Early: 0, Misses: 0
60b-> Hits: 20, Late: 0, Early: 0, Misses: 0
60c-> Hits: 3, Late: 0, Early: 0, Misses: 0
60e-> Hits: 5, Late: 0, Early: 0, Misses: 0
60f-> Hits: 2, Late: 0, Early: 0, Misses: 2
610-> Hits: 2, Late: 1, Early: 0, Misses: 0
611-> Hits: 1, Late: 0, Early: 0, Misses: 0
614-> Hits: 4, Late: 0, Early: 0, Misses: 2
616-> Hits: 14275, Late: 81, Early: 0, Misses: 166
619-> Hits: 192, Late: 0, Early: 0, Misses: 1
61a-> Hits: 14204, Late: 27, Early: 0, Misses: 67
61c-> Hits: 3, Late: 0, Early: 0, Misses: 0
61d-> Hits: 8, Late: 0, Early: 0, Misses: 0
61e-> Hits: 1, Late: 0, Early: 0, Misses: 0
61f-> Hits: 255, Late: 0, Early: 0, Misses: 0
620-> Hits: 8, Late: 1, Early: 0, Misses: 0
621-> Hits: 2, Late: 1, Early: 0, Misses: 0
622-> Hits: 2, Late: 0, Early: 0, Misses: 2
623-> Hits: 3, Late: 0, Early: 0, Misses: 0
625-> Hits: 18, Late: 3, Early: 0, Misses: 0
626-> Hits: 1, Late: 0, Early: 0, Misses: 0
627-> Hits: 13058, Late: 0, Early: 0, Misses: 2
628-> Hits: 4, Late: 1, Early: 0, Misses: 0
62a-> Hits: 154, Late: 76, Early: 0, Misses: 60
62b-> Hits: 9, Late: 0, Early: 0, Misses: 0
62c-> Hits: 1, Late: 0, Early: 0, Misses: 0
62e-> Hits: 250, Late: 1, Early: 0, Misses: 4
62f-> Hits: 4, Late: 1, Early: 0, Misses: 0
630-> Hits: 3, Late: 0, Early: 0, Misses: 0
631-> Hits: 3, Late: 0, Early: 0, Misses: 0
634-> Hits: 2, Late: 0, Early: 0, Misses: 0
635-> Hits: 2, Late: 0, Early: 0, Misses: 0
636-> Hits: 5, Late: 1, Early: 0, Misses: 0
637-> Hits: 13097, Late: 10, Early: 0, Misses: 84
638-> Hits: 3, Late: 0, Early: 0, Misses: 0
639-> Hits: 3, Late: 0, Early: 0, Misses: 0
63b-> Hits: 3, Late: 0, Early: 0, Misses: 0
63c-> Hits: 7, Late: 0, Early: 0, Misses: 0
63d-> Hits: 13, Late: 0, Early: 0, Misses: 0
63e-> Hits: 290, Late: 0, Early: 0, Misses: 0
63f-> Hits: 3, Late: 0, Early: 0, Misses: 0
640-> Hits: 6, Late: 0, Early: 0, Misses: 0
641-> Hits: 6, Late: 0, Early: 0, Misses: 0
642-> Hits: 282, Late: 0, Early: 0, Misses: 0
643-> Hits: 3, Late: 0, Early: 0, Misses: 0
644-> Hits: 2, Late: 0, Early: 0, Misses: 0
646-> Hits: 5, Late: 0, Early: 0, Misses: 0
647-> Hits: 14, Late: 0, Early: 0, Misses: 0
648-> Hits: 13472, Late: 36, Early: 0, Misses: 120
64b-> Hits: 1, Late: 0, Early: 0, Misses: 0
64c-> Hits: 2, Late: 0, Early: 0, Misses: 0
64f-> Hits: 239, Late: 0, Early: 0, Misses: 0
653-> Hits: 2, Late: 0, Early: 0, Misses: 0
654-> Hits: 5, Late: 1, Early: 0, Misses: 0
655-> Hits: 1, Late: 0, Early: 0, Misses: 0
656-> Hits: 7, Late: 1, Early: 0, Misses: 0
657-> Hits: 1, Late: 0, Early: 0, Misses: 0
658-> Hits: 33, Late: 0, Early: 0, Misses: 0
659-> Hits: 12489, Late: 17, Early: 0, Misses: 31
65a-> Hits: 2, Late: 0, Early: 0, Misses: 0
65b-> Hits: 2, Late: 0, Early: 0, Misses: 0
65c-> Hits: 3, Late: 0, Early: 0, Misses: 0
65d-> Hits: 54, Late: 0, Early: 0, Misses: 0
65e-> Hits: 7, Late: 0, Early: 0, Misses: 0
65f-> Hits: 211, Late: 1, Early: 0, Misses: 3
660-> Hits: 2, Late: 2, Early: 0, Misses: 0
662-> Hits: 9, Late: 0, Early: 0, Misses: 0
666-> Hits: 13, Late: 0, Early: 0, Misses: 0
667-> Hits: 16, Late: 0, Early: 0, Misses: 0
668-> Hits: 24, Late: 1, Early: 0, Misses: 0
669-> Hits: 12901, Late: 800, Early: 0, Misses: 818
66a-> Hits: 13, Late: 0, Early: 0, Misses: 0
66c-> Hits: 24, Late: 0, Early: 0, Misses: 0
66d-> Hits: 1, Late: 0, Early: 0, Misses: 0
66e-> Hits: 13126, Late: 89, Early: 0, Misses: 10
66f-> Hits: 1, Late: 0, Early: 0, Misses: 0
670-> Hits: 284, Late: 2, Early: 0, Misses: 11
671-> Hits: 49, Late: 0, Early: 0, Misses: 0
672-> Hits: 45, Late: 0, Early: 0, Misses: 0
674-> Hits: 45, Late: 0, Early: 0, Misses: 0
678-> Hits: 1, Late: 0, Early: 0, Misses: 0
679-> Hits: 6, Late: 0, Early: 0, Misses: 0
67a-> Hits: 4, Late: 0, Early: 0, Misses: 0
67b-> Hits: 10, Late: 0, Early: 0, Misses: 0
67c-> Hits: 1, Late: 0, Early: 0, Misses: 0
67d-> Hits: 2, Late: 0, Early: 0, Misses: 0
67f-> Hits: 13177, Late: 56, Early: 0, Misses: 55
680-> Hits: 12, Late: 9, Early: 0, Misses: 0
681-> Hits: 150, Late: 0, Early: 0, Misses: 2
683-> Hits: 92, Late: 1, Early: 0, Misses: 0
685-> Hits: 5, Late: 0, Early: 0, Misses: 0
686-> Hits: 10, Late: 0, Early: 0, Misses: 0
688-> Hits: 1, Late: 0, Early: 0, Misses: 0
689-> Hits: 9, Late: 0, Early: 0, Misses: 0
68a-> Hits: 9, Late: 0, Early: 0, Misses: 0
68c-> Hits: 2, Late: 0, Early: 0, Misses: 0
68d-> Hits: 6, Late: 0, Early: 0, Misses: 0
68e-> Hits: 2, Late: 0, Early: 0, Misses: 0
690-> Hits: 14154, Late: 106, Early: 0, Misses: 262
691-> Hits: 288, Late: 0, Early: 0, Misses: 0
693-> Hits: 1, Late: 0, Early: 0, Misses: 0
694-> Hits: 14056, Late: 38, Early: 0, Misses: 85
695-> Hits: 277, Late: 0, Early: 0, Misses: 0
698-> Hits: 2, Late: 1, Early: 0, Misses: 0
699-> Hits: 358, Late: 3, Early: 0, Misses: 2
69a-> Hits: 16, Late: 1, Early: 0, Misses: 0
69c-> Hits: 4, Late: 0, Early: 0, Misses: 0
69f-> Hits: 1, Late: 0, Early: 0, Misses: 0
6a0-> Hits: 3, Late: 0, Early: 0, Misses: 0
6a1-> Hits: 13555, Late: 0, Early: 0, Misses: 1
6a2-> Hits: 160, Late: 0, Early: 0, Misses: 0
6a3-> Hits: 5, Late: 0, Early: 0, Misses: 0
6a4-> Hits: 10, Late: 1, Early: 0, Misses: 0
6a5-> Hits: 2, Late: 0, Early: 0, Misses: 0
6a6-> Hits: 1, Late: 0, Early: 0, Misses: 0
6a7-> Hits: 8, Late: 0, Early: 0, Misses: 0
6ac-> Hits: 1, Late: 0, Early: 0, Misses: 0
6ad-> Hits: 5, Late: 0, Early: 0, Misses: 0
6ae-> Hits: 1, Late: 0, Early: 0, Misses: 0
6af-> Hits: 2, Late: 0, Early: 0, Misses: 0
6b0-> Hits: 1, Late: 0, Early: 0, Misses: 0
6b1-> Hits: 13325, Late: 10, Early: 0, Misses: 27
6b2-> Hits: 175, Late: 1, Early: 0, Misses: 7
6b3-> Hits: 3, Late: 0, Early: 0, Misses: 0
6b4-> Hits: 10, Late: 1, Early: 0, Misses: 0
6b5-> Hits: 1, Late: 8, Early: 0, Misses: 0
6b6-> Hits: 3, Late: 0, Early: 0, Misses: 0
6b7-> Hits: 9, Late: 1, Early: 0, Misses: 0
6b9-> Hits: 2, Late: 0, Early: 0, Misses: 0
6ba-> Hits: 6, Late: 0, Early: 0, Misses: 0
6bb-> Hits: 2, Late: 0, Early: 0, Misses: 0
6bc-> Hits: 2, Late: 0, Early: 0, Misses: 0
6bd-> Hits: 1, Late: 0, Early: 0, Misses: 0
6be-> Hits: 1, Late: 0, Early: 0, Misses: 0
6bf-> Hits: 1, Late: 0, Early: 0, Misses: 0
6c0-> Hits: 3, Late: 2, Early: 0, Misses: 0
6c2-> Hits: 13355, Late: 38, Early: 0, Misses: 15
6c3-> Hits: 157, Late: 1, Early: 0, Misses: 6
6c4-> Hits: 9, Late: 0, Early: 0, Misses: 0
6c5-> Hits: 1, Late: 0, Early: 0, Misses: 0
6c7-> Hits: 1, Late: 0, Early: 0, Misses: 0
6c9-> Hits: 3, Late: 0, Early: 0, Misses: 0
6ca-> Hits: 2, Late: 0, Early: 0, Misses: 0
6cc-> Hits: 2, Late: 0, Early: 0, Misses: 0
6cd-> Hits: 0, Late: 1, Early: 0, Misses: 0
6ce-> Hits: 6, Late: 1, Early: 0, Misses: 0
6d0-> Hits: 3, Late: 2, Early: 0, Misses: 0
6d1-> Hits: 2, Late: 0, Early: 0, Misses: 0
6d2-> Hits: 1, Late: 0, Early: 0, Misses: 0
6d3-> Hits: 13837, Late: 27, Early: 0, Misses: 17
6d4-> Hits: 225, Late: 0, Early: 0, Misses: 5
6d5-> Hits: 11, Late: 0, Early: 0, Misses: 0
6d6-> Hits: 3, Late: 0, Early: 0, Misses: 0
6d7-> Hits: 16, Late: 0, Early: 0, Misses: 0
6d9-> Hits: 12, Late: 0, Early: 0, Misses: 0
6da-> Hits: 2, Late: 0, Early: 0, Misses: 0
6db-> Hits: 11, Late: 0, Early: 0, Misses: 0
6dc-> Hits: 1, Late: 0, Early: 0, Misses: 0
6dd-> Hits: 10, Late: 0, Early: 0, Misses: 0
6de-> Hits: 2, Late: 0, Early: 0, Misses: 0
6df-> Hits: 2, Late: 0, Early: 0, Misses: 0
6e0-> Hits: 0, Late: 1, Early: 0, Misses: 0
6e1-> Hits: 1, Late: 0, Early: 0, Misses: 0
6e2-> Hits: 3, Late: 0, Early: 0, Misses: 0
6e3-> Hits: 12836, Late: 75, Early: 0, Misses: 4
6e4-> Hits: 287, Late: 1, Early: 0, Misses: 0
6e5-> Hits: 1, Late: 0, Early: 0, Misses: 0
6e6-> Hits: 1, Late: 0, Early: 0, Misses: 0
6e7-> Hits: 2, Late: 2, Early: 0, Misses: 0
6e8-> Hits: 277, Late: 0, Early: 0, Misses: 0
6eb-> Hits: 1, Late: 3, Early: 0, Misses: 0
6ed-> Hits: 21, Late: 6, Early: 0, Misses: 0
6ee-> Hits: 1, Late: 1, Early: 0, Misses: 0
6ef-> Hits: 1, Late: 0, Early: 0, Misses: 0
6f0-> Hits: 5, Late: 6, Early: 0, Misses: 0
6f1-> Hits: 0, Late: 1, Early: 0, Misses: 0
6f2-> Hits: 2, Late: 0, Early: 0, Misses: 0
6f3-> Hits: 2, Late: 0, Early: 0, Misses: 0
6f4-> Hits: 12720, Late: 507, Early: 0, Misses: 1292
6f5-> Hits: 210, Late: 0, Early: 0, Misses: 0
6f6-> Hits: 4, Late: 0, Early: 0, Misses: 0
6f8-> Hits: 2, Late: 1, Early: 0, Misses: 0
6f9-> Hits: 13733, Late: 52, Early: 0, Misses: 11
6fa-> Hits: 3, Late: 0, Early: 0, Misses: 0
6fb-> Hits: 1, Late: 7, Early: 0, Misses: 0
6fc-> Hits: 3, Late: 0, Early: 0, Misses: 0
6fe-> Hits: 5, Late: 0, Early: 0, Misses: 0
700-> Hits: 6, Late: 0, Early: 0, Misses: 0
701-> Hits: 0, Late: 1, Early: 0, Misses: 0
702-> Hits: 4, Late: 0, Early: 0, Misses: 0
703-> Hits: 4, Late: 0, Early: 0, Misses: 0
705-> Hits: 196, Late: 0, Early: 0, Misses: 1
706-> Hits: 4, Late: 0, Early: 0, Misses: 0
708-> Hits: 1, Late: 1, Early: 0, Misses: 0
709-> Hits: 0, Late: 2, Early: 0, Misses: 0
70a-> Hits: 14251, Late: 79, Early: 0, Misses: 190
70b-> Hits: 4, Late: 1, Early: 0, Misses: 0
70d-> Hits: 6, Late: 2, Early: 0, Misses: 0
70e-> Hits: 14039, Late: 32, Early: 0, Misses: 81
70f-> Hits: 1, Late: 0, Early: 0, Misses: 0
710-> Hits: 0, Late: 1, Early: 0, Misses: 0
711-> Hits: 1, Late: 1, Early: 0, Misses: 0
713-> Hits: 567, Late: 0, Early: 0, Misses: 1
716-> Hits: 208, Late: 0, Early: 0, Misses: 0
718-> Hits: 3, Late: 0, Early: 0, Misses: 0
719-> Hits: 4, Late: 0, Early: 0, Misses: 0
71b-> Hits: 13450, Late: 0, Early: 0, Misses: 0
71d-> Hits: 1, Late: 0, Early: 0, Misses: 0
71e-> Hits: 4, Late: 0, Early: 0, Misses: 0
720-> Hits: 5, Late: 1, Early: 0, Misses: 0
721-> Hits: 1, Late: 0, Early: 0, Misses: 0
722-> Hits: 3, Late: 0, Early: 0, Misses: 0
723-> Hits: 7, Late: 2, Early: 0, Misses: 0
724-> Hits: 2, Late: 0, Early: 0, Misses: 0
725-> Hits: 1, Late: 0, Early: 0, Misses: 0
726-> Hits: 5, Late: 0, Early: 0, Misses: 0
727-> Hits: 158, Late: 0, Early: 0, Misses: 1
729-> Hits: 4, Late: 8, Early: 0, Misses: 0
72b-> Hits: 13251, Late: 9, Early: 0, Misses: 11
72c-> Hits: 3, Late: 0, Early: 0, Misses: 0
72d-> Hits: 3, Late: 0, Early: 0, Misses: 0
72e-> Hits: 1, Late: 0, Early: 0, Misses: 0
72f-> Hits: 1, Late: 0, Early: 0, Misses: 0
730-> Hits: 3, Late: 0, Early: 0, Misses: 0
733-> Hits: 5, Late: 1, Early: 0, Misses: 0
734-> Hits: 1, Late: 0, Early: 0, Misses: 0
736-> Hits: 2, Late: 0, Early: 0, Misses: 0
737-> Hits: 289, Late: 7, Early: 0, Misses: 0
73a-> Hits: 1, Late: 0, Early: 0, Misses: 0
73b-> Hits: 269, Late: 0, Early: 0, Misses: 0
73c-> Hits: 12973, Late: 29, Early: 0, Misses: 7
73e-> Hits: 3, Late: 1, Early: 0, Misses: 0
740-> Hits: 28, Late: 1, Early: 0, Misses: 0
741-> Hits: 4, Late: 0, Early: 0, Misses: 0
742-> Hits: 1, Late: 0, Early: 0, Misses: 0
744-> Hits: 6, Late: 0, Early: 0, Misses: 0
745-> Hits: 2, Late: 0, Early: 0, Misses: 0
747-> Hits: 2, Late: 0, Early: 0, Misses: 0
748-> Hits: 181, Late: 0, Early: 0, Misses: 0
74b-> Hits: 1, Late: 2, Early: 0, Misses: 0
74c-> Hits: 1, Late: 0, Early: 0, Misses: 0
74d-> Hits: 13304, Late: 20, Early: 0, Misses: 1
74e-> Hits: 3, Late: 0, Early: 0, Misses: 0
74f-> Hits: 2, Late: 0, Early: 0, Misses: 0
750-> Hits: 4, Late: 0, Early: 0, Misses: 0
751-> Hits: 4, Late: 0, Early: 0, Misses: 0
752-> Hits: 5, Late: 0, Early: 0, Misses: 0
753-> Hits: 2, Late: 0, Early: 0, Misses: 0
754-> Hits: 5, Late: 0, Early: 0, Misses: 0
755-> Hits: 3, Late: 0, Early: 0, Misses: 0
756-> Hits: 4, Late: 0, Early: 0, Misses: 0
758-> Hits: 182, Late: 0, Early: 0, Misses: 0
75a-> Hits: 5, Late: 1, Early: 0, Misses: 0
75b-> Hits: 4, Late: 0, Early: 0, Misses: 0
75c-> Hits: 5, Late: 2, Early: 0, Misses: 0
75d-> Hits: 13790, Late: 76, Early: 0, Misses: 1
75f-> Hits: 1, Late: 0, Early: 0, Misses: 0
760-> Hits: 4, Late: 0, Early: 0, Misses: 0
761-> Hits: 5, Late: 0, Early: 0, Misses: 0
762-> Hits: 1, Late: 0, Early: 0, Misses: 0
763-> Hits: 1, Late: 0, Early: 0, Misses: 0
765-> Hits: 1, Late: 0, Early: 0, Misses: 0
766-> Hits: 1, Late: 2, Early: 0, Misses: 0
768-> Hits: 5, Late: 1, Early: 0, Misses: 0
769-> Hits: 183, Late: 0, Early: 0, Misses: 0
76a-> Hits: 1, Late: 0, Early: 0, Misses: 0
76b-> Hits: 1, Late: 1, Early: 0, Misses: 0
76c-> Hits: 2, Late: 0, Early: 0, Misses: 0
76e-> Hits: 12598, Late: 49, Early: 0, Misses: 1
76f-> Hits: 1, Late: 0, Early: 0, Misses: 0
770-> Hits: 2, Late: 2, Early: 0, Misses: 0
771-> Hits: 1, Late: 0, Early: 0, Misses: 0
772-> Hits: 1, Late: 1, Early: 0, Misses: 0
774-> Hits: 7, Late: 0, Early: 0, Misses: 0
775-> Hits: 3, Late: 2, Early: 0, Misses: 0
776-> Hits: 1, Late: 0, Early: 0, Misses: 0
77a-> Hits: 1, Late: 1, Early: 0, Misses: 0
77c-> Hits: 4, Late: 0, Early: 0, Misses: 0
77e-> Hits: 207, Late: 0, Early: 0, Misses: 0
77f-> Hits: 14198, Late: 84, Early: 0, Misses: 237
780-> Hits: 5, Late: 3, Early: 0, Misses: 0
781-> Hits: 2, Late: 0, Early: 0, Misses: 0
783-> Hits: 14100, Late: 42, Early: 0, Misses: 98
784-> Hits: 5, Late: 1, Early: 0, Misses: 0
785-> Hits: 18, Late: 0, Early: 0, Misses: 0
788-> Hits: 374, Late: 1, Early: 0, Misses: 0
78a-> Hits: 2, Late: 1, Early: 0, Misses: 0
78b-> Hits: 2, Late: 0, Early: 0, Misses: 0
78f-> Hits: 1, Late: 0, Early: 0, Misses: 0
790-> Hits: 12197, Late: 2, Early: 0, Misses: 0
792-> Hits: 180, Late: 118, Early: 0, Misses: 0
793-> Hits: 10, Late: 0, Early: 0, Misses: 0
794-> Hits: 4, Late: 0, Early: 0, Misses: 0
796-> Hits: 4, Late: 0, Early: 0, Misses: 0
797-> Hits: 1, Late: 0, Early: 0, Misses: 0
798-> Hits: 3, Late: 0, Early: 0, Misses: 0
79a-> Hits: 3, Late: 0, Early: 0, Misses: 0
79b-> Hits: 1, Late: 0, Early: 0, Misses: 0
79c-> Hits: 3, Late: 0, Early: 0, Misses: 0
79f-> Hits: 2, Late: 1, Early: 0, Misses: 0
7a0-> Hits: 12396, Late: 9, Early: 0, Misses: 3
7a5-> Hits: 1, Late: 0, Early: 0, Misses: 0
7a6-> Hits: 12, Late: 0, Early: 0, Misses: 0
7a7-> Hits: 3, Late: 0, Early: 0, Misses: 0
7a8-> Hits: 3, Late: 0, Early: 0, Misses: 0
7aa-> Hits: 2, Late: 0, Early: 0, Misses: 0
7ab-> Hits: 3, Late: 0, Early: 0, Misses: 0
7ac-> Hits: 2, Late: 0, Early: 0, Misses: 0
7af-> Hits: 2, Late: 0, Early: 0, Misses: 0
7b0-> Hits: 8, Late: 11, Early: 0, Misses: 0
7b1-> Hits: 12603, Late: 32, Early: 0, Misses: 9
7b4-> Hits: 1, Late: 0, Early: 0, Misses: 0
7b5-> Hits: 15, Late: 13, Early: 0, Misses: 0
7b8-> Hits: 2, Late: 0, Early: 0, Misses: 0
7ba-> Hits: 8, Late: 0, Early: 0, Misses: 0
7bb-> Hits: 5, Late: 11, Early: 0, Misses: 0
7bc-> Hits: 7, Late: 0, Early: 0, Misses: 0
7c1-> Hits: 8, Late: 11, Early: 0, Misses: 0
7c3-> Hits: 1, Late: 0, Early: 0, Misses: 0
7c4-> Hits: 2, Late: 0, Early: 0, Misses: 0
7c6-> Hits: 12507, Late: 13, Early: 0, Misses: 0
7c8-> Hits: 49, Late: 0, Early: 0, Misses: 0
7d0-> Hits: 228, Late: 2, Early: 0, Misses: 0
7d4-> Hits: 217, Late: 0, Early: 0, Misses: 0
7d6-> Hits: 12305, Late: 60, Early: 0, Misses: 0
7d7-> Hits: 12, Late: 0, Early: 0, Misses: 0
7d9-> Hits: 14, Late: 0, Early: 0, Misses: 0
7da-> Hits: 1, Late: 0, Early: 0, Misses: 0
7db-> Hits: 3, Late: 0, Early: 0, Misses: 0
7dd-> Hits: 7, Late: 0, Early: 0, Misses: 0
7de-> Hits: 3, Late: 0, Early: 0, Misses: 0
7df-> Hits: 7, Late: 3, Early: 0, Misses: 0
7e0-> Hits: 2053, Late: 3, Early: 0, Misses: 0
7e1-> Hits: 235, Late: 0, Early: 0, Misses: 0
7e2-> Hits: 3, Late: 0, Early: 0, Misses: 0
7e4-> Hits: 1, Late: 0, Early: 0, Misses: 0
7e5-> Hits: 7, Late: 3, Early: 0, Misses: 0
7e6-> Hits: 2, Late: 0, Early: 0, Misses: 0
7e7-> Hits: 15043, Late: 35, Early: 0, Misses: 0
7e8-> Hits: 1, Late: 0, Early: 0, Misses: 0
7e9-> Hits: 5, Late: 0, Early: 0, Misses: 0
7ea-> Hits: 1, Late: 1, Early: 0, Misses: 0
7eb-> Hits: 3, Late: 0, Early: 0, Misses: 0
7ec-> Hits: 2, Late: 2, Early: 0, Misses: 0
7ed-> Hits: 1, Late: 0, Early: 0, Misses: 0
7ee-> Hits: 4, Late: 0, Early: 0, Misses: 0
7ef-> Hits: 1, Late: 1, Early: 0, Misses: 0
7f0-> Hits: 7, Late: 2, Early: 0, Misses: 0
7f1-> Hits: 224, Late: 0, Early: 0, Misses: 0
7f2-> Hits: 2, Late: 0, Early: 0, Misses: 0
7f3-> Hits: 9, Late: 0, Early: 0, Misses: 0
7f4-> Hits: 1, Late: 0, Early: 0, Misses: 0
7f5-> Hits: 224, Late: 0, Early: 0, Misses: 0
7f6-> Hits: 1, Late: 0, Early: 0, Misses: 0
7f7-> Hits: 1, Late: 0, Early: 0, Misses: 0
7f8-> Hits: 3, Late: 0, Early: 0, Misses: 0
7fa-> Hits: 8, Late: 1, Early: 0, Misses: 0
7fb-> Hits: 4, Late: 1, Early: 0, Misses: 0
7fc-> Hits: 11683, Late: 936, Early: 0, Misses: 1904
7fd-> Hits: 2, Late: 0, Early: 0, Misses: 0
7ff-> Hits: 2, Late: 0, Early: 0, Misses: 0
800-> Hits: 4, Late: 0, Early: 0, Misses: 0
801-> Hits: 5, Late: 1, Early: 0, Misses: 0
803-> Hits: 0, Late: 1, Early: 0, Misses: 0
804-> Hits: 3, Late: 0, Early: 0, Misses: 0
805-> Hits: 1, Late: 8, Early: 0, Misses: 0
806-> Hits: 224, Late: 0, Early: 0, Misses: 0
808-> Hits: 2, Late: 1, Early: 0, Misses: 0
809-> Hits: 9, Late: 0, Early: 0, Misses: 0
80a-> Hits: 6, Late: 0, Early: 0, Misses: 0
810-> Hits: 420, Late: 390, Early: 0, Misses: 0
811-> Hits: 1, Late: 0, Early: 0, Misses: 0
812-> Hits: 2052, Late: 0, Early: 0, Misses: 0
813-> Hits: 4, Late: 0, Early: 0, Misses: 0
814-> Hits: 8, Late: 0, Early: 0, Misses: 0
815-> Hits: 369, Late: 441, Early: 0, Misses: 0
816-> Hits: 11, Late: 0, Early: 0, Misses: 0
817-> Hits: 224, Late: 0, Early: 0, Misses: 0
819-> Hits: 3, Late: 0, Early: 0, Misses: 0
81a-> Hits: 6, Late: 0, Early: 0, Misses: 0
81b-> Hits: 310, Late: 496, Early: 0, Misses: 0
81c-> Hits: 1, Late: 0, Early: 0, Misses: 0
81d-> Hits: 4, Late: 1, Early: 0, Misses: 0
81e-> Hits: 14, Late: 0, Early: 0, Misses: 0
81f-> Hits: 5, Late: 0, Early: 0, Misses: 0
820-> Hits: 12, Late: 2, Early: 0, Misses: 0
821-> Hits: 328, Late: 487, Early: 0, Misses: 0
822-> Hits: 4, Late: 0, Early: 0, Misses: 0
823-> Hits: 1, Late: 0, Early: 0, Misses: 0
824-> Hits: 4, Late: 0, Early: 0, Misses: 0
825-> Hits: 5, Late: 0, Early: 0, Misses: 0
826-> Hits: 318, Late: 494, Early: 0, Misses: 0
827-> Hits: 227, Late: 0, Early: 0, Misses: 0
828-> Hits: 9, Late: 0, Early: 0, Misses: 0
829-> Hits: 1, Late: 0, Early: 0, Misses: 0
82a-> Hits: 4, Late: 7, Early: 0, Misses: 0
82b-> Hits: 216, Late: 0, Early: 0, Misses: 0
82c-> Hits: 298, Late: 512, Early: 0, Misses: 0
82d-> Hits: 4, Late: 0, Early: 0, Misses: 0
82e-> Hits: 4, Late: 0, Early: 0, Misses: 0
82f-> Hits: 5, Late: 0, Early: 0, Misses: 0
830-> Hits: 63500, Late: 9, Early: 0, Misses: 0
831-> Hits: 9, Late: 1, Early: 0, Misses: 0
832-> Hits: 4, Late: 0, Early: 0, Misses: 0
834-> Hits: 4, Late: 0, Early: 0, Misses: 0
835-> Hits: 3, Late: 0, Early: 0, Misses: 0
836-> Hits: 4, Late: 0, Early: 0, Misses: 0
838-> Hits: 145, Late: 2, Early: 0, Misses: 0
839-> Hits: 2, Late: 0, Early: 0, Misses: 0
83a-> Hits: 5, Late: 0, Early: 0, Misses: 0
83c-> Hits: 2, Late: 0, Early: 0, Misses: 0
83d-> Hits: 0, Late: 3, Early: 0, Misses: 0
83e-> Hits: 1, Late: 0, Early: 0, Misses: 0
840-> Hits: 11012, Late: 103, Early: 0, Misses: 170
841-> Hits: 2, Late: 0, Early: 0, Misses: 0
842-> Hits: 3, Late: 0, Early: 0, Misses: 0
[...]
dab-> Hits: 7, Late: 0, Early: 0, Misses: 0
dac-> Hits: 10, Late: 0, Early: 0, Misses: 0
dad-> Hits: 12, Late: 0, Early: 0, Misses: 0
dae-> Hits: 1, Late: 0, Early: 0, Misses: 0
daf-> Hits: 3, Late: 0, Early: 0, Misses: 0
db0-> Hits: 6, Late: 4, Early: 0, Misses: 0
db1-> Hits: 12, Late: 0, Early: 0, Misses: 0
db2-> Hits: 0, Late: 1, Early: 0, Misses: 0
db3-> Hits: 2, Late: 0, Early: 0, Misses: 0
db5-> Hits: 3, Late: 0, Early: 0, Misses: 0
db6-> Hits: 1, Late: 0, Early: 0, Misses: 0
db7-> Hits: 3, Late: 0, Early: 0, Misses: 0
db8-> Hits: 3, Late: 0, Early: 0, Misses: 0
db9-> Hits: 2, Late: 0, Early: 0, Misses: 0
dba-> Hits: 9, Late: 0, Early: 0, Misses: 4
dbb-> Hits: 2, Late: 0, Early: 0, Misses: 0
dbc-> Hits: 1, Late: 0, Early: 0, Misses: 0
dbd-> Hits: 1, Late: 0, Early: 0, Misses: 0
dbe-> Hits: 5, Late: 0, Early: 0, Misses: 0
dbf-> Hits: 7, Late: 1, Early: 0, Misses: 0
dc0-> Hits: 21, Late: 7, Early: 0, Misses: 0
dc2-> Hits: 3, Late: 2, Early: 0, Misses: 0
dc3-> Hits: 1, Late: 0, Early: 0, Misses: 0
dc7-> Hits: 17, Late: 1, Early: 0, Misses: 0
dc8-> Hits: 3, Late: 1, Early: 0, Misses: 0
dca-> Hits: 3, Late: 0, Early: 0, Misses: 0
dcb-> Hits: 6, Late: 0, Early: 0, Misses: 0
dcc-> Hits: 14, Late: 2, Early: 0, Misses: 0
dcd-> Hits: 15, Late: 0, Early: 0, Misses: 0
dcf-> Hits: 8, Late: 0, Early: 0, Misses: 0
dd1-> Hits: 9, Late: 0, Early: 0, Misses: 0
dd2-> Hits: 5, Late: 3, Early: 0, Misses: 4
dd3-> Hits: 14, Late: 0, Early: 0, Misses: 0
dd5-> Hits: 4, Late: 0, Early: 0, Misses: 0
dd6-> Hits: 4, Late: 0, Early: 0, Misses: 0
dd8-> Hits: 15, Late: 0, Early: 0, Misses: 0
dd9-> Hits: 8, Late: 0, Early: 0, Misses: 0
dda-> Hits: 4, Late: 0, Early: 0, Misses: 0
ddc-> Hits: 7, Late: 0, Early: 0, Misses: 1
dde-> Hits: 4, Late: 0, Early: 0, Misses: 0
ddf-> Hits: 4, Late: 0, Early: 0, Misses: 0
de0-> Hits: 42, Late: 0, Early: 0, Misses: 0
de2-> Hits: 2, Late: 0, Early: 0, Misses: 0
de3-> Hits: 4, Late: 2, Early: 0, Misses: 0
de4-> Hits: 2, Late: 0, Early: 0, Misses: 0
de7-> Hits: 1, Late: 0, Early: 0, Misses: 0
de8-> Hits: 1, Late: 0, Early: 0, Misses: 0
de9-> Hits: 4, Late: 0, Early: 0, Misses: 0
deb-> Hits: 1, Late: 0, Early: 0, Misses: 0
dec-> Hits: 2, Late: 0, Early: 0, Misses: 0
ded-> Hits: 5, Late: 0, Early: 0, Misses: 0
dee-> Hits: 5, Late: 0, Early: 0, Misses: 0
def-> Hits: 5, Late: 0, Early: 0, Misses: 0
df0-> Hits: 1, Late: 0, Early: 0, Misses: 0
df1-> Hits: 17, Late: 0, Early: 0, Misses: 0
df2-> Hits: 3, Late: 0, Early: 0, Misses: 0
df3-> Hits: 6, Late: 0, Early: 0, Misses: 0
df4-> Hits: 1, Late: 0, Early: 0, Misses: 0
df5-> Hits: 6, Late: 0, Early: 0, Misses: 0
df7-> Hits: 7, Late: 0, Early: 0, Misses: 0
df8-> Hits: 0, Late: 1, Early: 0, Misses: 0
df9-> Hits: 2, Late: 0, Early: 0, Misses: 0
dfb-> Hits: 1, Late: 0, Early: 0, Misses: 0
dfd-> Hits: 4, Late: 0, Early: 0, Misses: 0
e00-> Hits: 6, Late: 0, Early: 0, Misses: 0
e01-> Hits: 2, Late: 0, Early: 0, Misses: 0
e02-> Hits: 3, Late: 0, Early: 0, Misses: 0
e03-> Hits: 1, Late: 0, Early: 0, Misses: 0
e04-> Hits: 24, Late: 1, Early: 0, Misses: 1
e05-> Hits: 3, Late: 1, Early: 0, Misses: 0
e06-> Hits: 3, Late: 0, Early: 0, Misses: 0
e07-> Hits: 0, Late: 13, Early: 0, Misses: 0
e0e-> Hits: 31, Late: 0, Early: 0, Misses: 0
e0f-> Hits: 7, Late: 3, Early: 0, Misses: 5
e10-> Hits: 3, Late: 0, Early: 0, Misses: 0
e12-> Hits: 6, Late: 0, Early: 0, Misses: 0
e13-> Hits: 7, Late: 0, Early: 0, Misses: 0
e14-> Hits: 2, Late: 0, Early: 0, Misses: 0
e15-> Hits: 2, Late: 0, Early: 0, Misses: 0
e16-> Hits: 2, Late: 0, Early: 0, Misses: 0
e17-> Hits: 1, Late: 0, Early: 0, Misses: 0
e18-> Hits: 4, Late: 0, Early: 0, Misses: 0
e19-> Hits: 10, Late: 0, Early: 0, Misses: 0
e1a-> Hits: 2, Late: 0, Early: 0, Misses: 0
e1b-> Hits: 8, Late: 0, Early: 0, Misses: 0
e1c-> Hits: 5, Late: 0, Early: 0, Misses: 0
e1d-> Hits: 1, Late: 0, Early: 0, Misses: 0
e1e-> Hits: 0, Late: 8, Early: 0, Misses: 0
e20-> Hits: 12, Late: 4, Early: 0, Misses: 0
e22-> Hits: 38, Late: 1, Early: 0, Misses: 0
e23-> Hits: 12, Late: 8, Early: 0, Misses: 0
e25-> Hits: 1, Late: 0, Early: 0, Misses: 0
e26-> Hits: 2, Late: 0, Early: 0, Misses: 0
e28-> Hits: 8, Late: 8, Early: 0, Misses: 0
e2a-> Hits: 2, Late: 1, Early: 0, Misses: 0
e2c-> Hits: 1, Late: 8, Early: 0, Misses: 0
e2d-> Hits: 2, Late: 0, Early: 0, Misses: 0
e2f-> Hits: 2, Late: 0, Early: 0, Misses: 0
e30-> Hits: 17, Late: 0, Early: 0, Misses: 0
e31-> Hits: 0, Late: 8, Early: 0, Misses: 0
e33-> Hits: 3, Late: 0, Early: 0, Misses: 0
e34-> Hits: 1, Late: 0, Early: 0, Misses: 0
e35-> Hits: 16, Late: 0, Early: 0, Misses: 0
e36-> Hits: 2, Late: 0, Early: 0, Misses: 0
e38-> Hits: 2, Late: 0, Early: 0, Misses: 0
e39-> Hits: 8, Late: 8, Early: 0, Misses: 0
e3a-> Hits: 1, Late: 0, Early: 0, Misses: 0
e3b-> Hits: 0, Late: 1, Early: 0, Misses: 0
e3c-> Hits: 6, Late: 1, Early: 0, Misses: 0
e3d-> Hits: 14, Late: 3, Early: 0, Misses: 0
e3e-> Hits: 2, Late: 0, Early: 0, Misses: 0
e3f-> Hits: 1, Late: 0, Early: 0, Misses: 0
e40-> Hits: 6, Late: 1, Early: 0, Misses: 0
e41-> Hits: 3, Late: 8, Early: 0, Misses: 0
e42-> Hits: 2, Late: 0, Early: 0, Misses: 0
e44-> Hits: 3, Late: 0, Early: 0, Misses: 0
e45-> Hits: 1, Late: 1, Early: 0, Misses: 0
e47-> Hits: 2, Late: 0, Early: 0, Misses: 0
e48-> Hits: 3, Late: 0, Early: 0, Misses: 0
e49-> Hits: 0, Late: 8, Early: 0, Misses: 0
e4a-> Hits: 1, Late: 0, Early: 0, Misses: 0
e4c-> Hits: 1, Late: 1, Early: 0, Misses: 0
e4d-> Hits: 2, Late: 0, Early: 0, Misses: 0
e4f-> Hits: 2, Late: 0, Early: 0, Misses: 0
e50-> Hits: 0, Late: 3, Early: 0, Misses: 0
e51-> Hits: 2, Late: 0, Early: 0, Misses: 0
e54-> Hits: 1, Late: 0, Early: 0, Misses: 0
e55-> Hits: 3, Late: 0, Early: 0, Misses: 0
e57-> Hits: 8, Late: 0, Early: 0, Misses: 0
e58-> Hits: 2, Late: 0, Early: 0, Misses: 0
e59-> Hits: 20, Late: 0, Early: 0, Misses: 0
e5a-> Hits: 22, Late: 0, Early: 0, Misses: 0
e5b-> Hits: 22, Late: 0, Early: 0, Misses: 0
e5c-> Hits: 2, Late: 0, Early: 0, Misses: 0
e5d-> Hits: 20, Late: 0, Early: 0, Misses: 0
e5e-> Hits: 6, Late: 1, Early: 0, Misses: 0
e5f-> Hits: 20, Late: 0, Early: 0, Misses: 0
e60-> Hits: 6, Late: 2, Early: 0, Misses: 0
e61-> Hits: 22, Late: 0, Early: 0, Misses: 0
e62-> Hits: 2, Late: 0, Early: 0, Misses: 0
e63-> Hits: 26, Late: 0, Early: 0, Misses: 0
e64-> Hits: 0, Late: 1, Early: 0, Misses: 0
e65-> Hits: 6, Late: 0, Early: 0, Misses: 0
e68-> Hits: 2, Late: 0, Early: 0, Misses: 0
e6b-> Hits: 1, Late: 0, Early: 0, Misses: 0
e6c-> Hits: 1, Late: 0, Early: 0, Misses: 0
e6f-> Hits: 2, Late: 0, Early: 0, Misses: 0
e70-> Hits: 4, Late: 1, Early: 0, Misses: 0
e71-> Hits: 6, Late: 0, Early: 0, Misses: 0
e72-> Hits: 19, Late: 0, Early: 0, Misses: 0
e73-> Hits: 2, Late: 0, Early: 0, Misses: 0
e74-> Hits: 5, Late: 0, Early: 0, Misses: 0
e75-> Hits: 6, Late: 0, Early: 0, Misses: 0
e76-> Hits: 6, Late: 0, Early: 0, Misses: 0
e77-> Hits: 1, Late: 0, Early: 0, Misses: 0
e79-> Hits: 2, Late: 0, Early: 0, Misses: 0
e7a-> Hits: 1, Late: 0, Early: 0, Misses: 0
e7b-> Hits: 1, Late: 0, Early: 0, Misses: 0
e7d-> Hits: 8, Late: 0, Early: 0, Misses: 5
e7e-> Hits: 13, Late: 0, Early: 0, Misses: 0
e7f-> Hits: 15, Late: 0, Early: 0, Misses: 0
e80-> Hits: 1, Late: 0, Early: 0, Misses: 0
e81-> Hits: 14, Late: 0, Early: 0, Misses: 5
e82-> Hits: 4, Late: 0, Early: 0, Misses: 0
e83-> Hits: 16, Late: 0, Early: 0, Misses: 0
e84-> Hits: 10, Late: 0, Early: 0, Misses: 0
e85-> Hits: 13, Late: 0, Early: 0, Misses: 0
e86-> Hits: 3, Late: 0, Early: 0, Misses: 0
e87-> Hits: 13, Late: 0, Early: 0, Misses: 0
e88-> Hits: 10, Late: 0, Early: 0, Misses: 0
e8a-> Hits: 3, Late: 0, Early: 0, Misses: 0
e8b-> Hits: 2, Late: 0, Early: 0, Misses: 0
e8d-> Hits: 1, Late: 0, Early: 0, Misses: 0
e90-> Hits: 2, Late: 0, Early: 0, Misses: 0
e91-> Hits: 2, Late: 0, Early: 0, Misses: 0
e92-> Hits: 4, Late: 0, Early: 0, Misses: 0
e94-> Hits: 4, Late: 0, Early: 0, Misses: 0
e95-> Hits: 1, Late: 0, Early: 0, Misses: 0
e96-> Hits: 1, Late: 0, Early: 0, Misses: 0
e97-> Hits: 2, Late: 0, Early: 0, Misses: 0
e98-> Hits: 2, Late: 0, Early: 0, Misses: 0
e99-> Hits: 9, Late: 0, Early: 0, Misses: 0
e9a-> Hits: 2, Late: 0, Early: 0, Misses: 0
e9b-> Hits: 1, Late: 0, Early: 0, Misses: 0
e9d-> Hits: 1, Late: 0, Early: 0, Misses: 0
ea0-> Hits: 2, Late: 1, Early: 0, Misses: 0
ea1-> Hits: 4, Late: 0, Early: 0, Misses: 0
ea2-> Hits: 2, Late: 0, Early: 0, Misses: 0
ea5-> Hits: 1, Late: 0, Early: 0, Misses: 0
ea6-> Hits: 0, Late: 1, Early: 0, Misses: 0
ea7-> Hits: 1, Late: 0, Early: 0, Misses: 0
ea8-> Hits: 1, Late: 0, Early: 0, Misses: 0
ea9-> Hits: 3, Late: 0, Early: 0, Misses: 0
eaa-> Hits: 1, Late: 0, Early: 0, Misses: 0
eab-> Hits: 5, Late: 0, Early: 0, Misses: 0
eac-> Hits: 1, Late: 0, Early: 0, Misses: 0
eaf-> Hits: 0, Late: 1, Early: 0, Misses: 0
eb0-> Hits: 4653, Late: 1852, Early: 0, Misses: 0
eb3-> Hits: 1, Late: 0, Early: 0, Misses: 0
eb4-> Hits: 1, Late: 0, Early: 0, Misses: 0
eb5-> Hits: 4911, Late: 1110, Early: 0, Misses: 0
eb6-> Hits: 4, Late: 1, Early: 0, Misses: 0
eb8-> Hits: 1, Late: 0, Early: 0, Misses: 0
eba-> Hits: 4201, Late: 2248, Early: 0, Misses: 0
ebc-> Hits: 3, Late: 0, Early: 0, Misses: 0
ebd-> Hits: 1, Late: 0, Early: 0, Misses: 0
ebe-> Hits: 2, Late: 0, Early: 0, Misses: 0
ebf-> Hits: 2, Late: 1, Early: 0, Misses: 0
ec0-> Hits: 4639, Late: 1528, Early: 0, Misses: 0
ec1-> Hits: 13, Late: 0, Early: 0, Misses: 0
ec2-> Hits: 2, Late: 0, Early: 0, Misses: 0
ec3-> Hits: 2, Late: 0, Early: 0, Misses: 0
ec4-> Hits: 1, Late: 1, Early: 0, Misses: 0
ec5-> Hits: 7, Late: 0, Early: 0, Misses: 0
ec6-> Hits: 3443, Late: 2884, Early: 0, Misses: 0
ec7-> Hits: 1, Late: 1, Early: 0, Misses: 0
ec8-> Hits: 1, Late: 0, Early: 0, Misses: 0
eca-> Hits: 1, Late: 0, Early: 0, Misses: 0
ecb-> Hits: 0, Late: 1, Early: 0, Misses: 0
ecc-> Hits: 3984, Late: 2156, Early: 0, Misses: 0
ecd-> Hits: 1, Late: 0, Early: 0, Misses: 0
ece-> Hits: 0, Late: 1, Early: 0, Misses: 0
ecf-> Hits: 4, Late: 0, Early: 0, Misses: 0
ed0-> Hits: 3, Late: 0, Early: 0, Misses: 0
ed1-> Hits: 11, Late: 0, Early: 0, Misses: 0
ed2-> Hits: 2823, Late: 3458, Early: 0, Misses: 0
ed3-> Hits: 2, Late: 0, Early: 0, Misses: 0
ed5-> Hits: 5, Late: 1, Early: 0, Misses: 0
ed6-> Hits: 0, Late: 1, Early: 0, Misses: 0
ed7-> Hits: 3, Late: 0, Early: 0, Misses: 0
ed8-> Hits: 3607, Late: 2421, Early: 0, Misses: 0
ed9-> Hits: 5, Late: 0, Early: 0, Misses: 0
edb-> Hits: 2, Late: 0, Early: 0, Misses: 0
edc-> Hits: 3, Late: 0, Early: 0, Misses: 0
edf-> Hits: 0, Late: 1, Early: 0, Misses: 0
ee0-> Hits: 14, Late: 1, Early: 0, Misses: 0
ee1-> Hits: 6, Late: 8, Early: 0, Misses: 0
ee2-> Hits: 3, Late: 0, Early: 0, Misses: 0
ee3-> Hits: 5, Late: 0, Early: 0, Misses: 0
ee4-> Hits: 8, Late: 0, Early: 0, Misses: 0
ee5-> Hits: 5, Late: 0, Early: 0, Misses: 0
ee7-> Hits: 5, Late: 0, Early: 0, Misses: 0
ee8-> Hits: 1, Late: 0, Early: 0, Misses: 0
ee9-> Hits: 6, Late: 0, Early: 0, Misses: 0
eea-> Hits: 5, Late: 0, Early: 0, Misses: 0
eeb-> Hits: 2, Late: 0, Early: 0, Misses: 0
eec-> Hits: 2, Late: 0, Early: 0, Misses: 0
eed-> Hits: 2, Late: 0, Early: 0, Misses: 0
eee-> Hits: 2, Late: 0, Early: 0, Misses: 0
eef-> Hits: 16, Late: 0, Early: 0, Misses: 0
ef0-> Hits: 5, Late: 0, Early: 0, Misses: 0
ef1-> Hits: 2, Late: 0, Early: 0, Misses: 0
ef2-> Hits: 3, Late: 0, Early: 0, Misses: 0
ef3-> Hits: 1, Late: 0, Early: 0, Misses: 0
ef4-> Hits: 9, Late: 0, Early: 0, Misses: 0
ef5-> Hits: 1, Late: 0, Early: 0, Misses: 0
ef6-> Hits: 2, Late: 0, Early: 0, Misses: 0
ef7-> Hits: 2, Late: 0, Early: 0, Misses: 0
ef8-> Hits: 3, Late: 2, Early: 0, Misses: 0
ef9-> Hits: 1, Late: 0, Early: 0, Misses: 0
efa-> Hits: 8, Late: 0, Early: 0, Misses: 0
efb-> Hits: 5, Late: 0, Early: 0, Misses: 0
efc-> Hits: 4, Late: 0, Early: 0, Misses: 0
efd-> Hits: 2, Late: 0, Early: 0, Misses: 0
efe-> Hits: 3269, Late: 4871, Early: 0, Misses: 43
eff-> Hits: 6, Late: 0, Early: 0, Misses: 0
f00-> Hits: 4, Late: 0, Early: 0, Misses: 0
f01-> Hits: 4, Late: 0, Early: 0, Misses: 0
f02-> Hits: 4, Late: 0, Early: 0, Misses: 0
f03-> Hits: 2, Late: 0, Early: 0, Misses: 0
f04-> Hits: 6, Late: 0, Early: 0, Misses: 0
f05-> Hits: 3, Late: 0, Early: 0, Misses: 0
f06-> Hits: 8, Late: 0, Early: 0, Misses: 0
f07-> Hits: 2, Late: 0, Early: 0, Misses: 0
f08-> Hits: 4, Late: 0, Early: 0, Misses: 0
f09-> Hits: 9, Late: 0, Early: 0, Misses: 0
f0b-> Hits: 2, Late: 0, Early: 0, Misses: 0
f0c-> Hits: 4, Late: 4, Early: 0, Misses: 0
f0d-> Hits: 2, Late: 0, Early: 0, Misses: 0
f0e-> Hits: 2, Late: 0, Early: 0, Misses: 0
f10-> Hits: 37, Late: 3, Early: 0, Misses: 0
f13-> Hits: 30, Late: 0, Early: 0, Misses: 0
f15-> Hits: 1, Late: 0, Early: 0, Misses: 0
f16-> Hits: 3, Late: 0, Early: 0, Misses: 0
f17-> Hits: 16, Late: 0, Early: 0, Misses: 0
f18-> Hits: 1, Late: 0, Early: 0, Misses: 0
f19-> Hits: 5, Late: 2, Early: 0, Misses: 0
f1c-> Hits: 1, Late: 0, Early: 0, Misses: 0
f1e-> Hits: 3, Late: 0, Early: 0, Misses: 0
f20-> Hits: 116, Late: 3, Early: 0, Misses: 0
f21-> Hits: 18, Late: 3, Early: 0, Misses: 0
f22-> Hits: 7, Late: 1, Early: 0, Misses: 1
f23-> Hits: 2, Late: 0, Early: 0, Misses: 0
f24-> Hits: 34, Late: 0, Early: 0, Misses: 0
f25-> Hits: 114, Late: 1, Early: 0, Misses: 0
f26-> Hits: 1, Late: 0, Early: 0, Misses: 0
f27-> Hits: 15, Late: 0, Early: 0, Misses: 0
f28-> Hits: 2, Late: 0, Early: 0, Misses: 0
f29-> Hits: 4, Late: 1, Early: 0, Misses: 0
f2a-> Hits: 100, Late: 24, Early: 0, Misses: 0
f2b-> Hits: 8, Late: 1, Early: 0, Misses: 0
f2f-> Hits: 5, Late: 0, Early: 0, Misses: 0
f30-> Hits: 110, Late: 17, Early: 0, Misses: 0
f31-> Hits: 82, Late: 0, Early: 0, Misses: 0
f32-> Hits: 36, Late: 0, Early: 0, Misses: 0
f33-> Hits: 9, Late: 0, Early: 0, Misses: 0
f34-> Hits: 1, Late: 2, Early: 0, Misses: 0
f37-> Hits: 9, Late: 0, Early: 0, Misses: 0
f39-> Hits: 3, Late: 0, Early: 0, Misses: 0
f3b-> Hits: 8, Late: 0, Early: 0, Misses: 0
f3c-> Hits: 8, Late: 0, Early: 0, Misses: 0
f3d-> Hits: 34, Late: 2, Early: 0, Misses: 0
f3e-> Hits: 3, Late: 0, Early: 0, Misses: 0
f3f-> Hits: 11, Late: 0, Early: 0, Misses: 0
f40-> Hits: 100, Late: 16, Early: 0, Misses: 0
f41-> Hits: 8, Late: 0, Early: 0, Misses: 0
f43-> Hits: 9, Late: 0, Early: 0, Misses: 0
f44-> Hits: 4, Late: 0, Early: 0, Misses: 0
f45-> Hits: 117, Late: 4, Early: 0, Misses: 0
f49-> Hits: 2, Late: 0, Early: 0, Misses: 0
f4a-> Hits: 97, Late: 19, Early: 0, Misses: 0
f4c-> Hits: 0, Late: 1, Early: 0, Misses: 0
f50-> Hits: 102, Late: 12, Early: 0, Misses: 0
f53-> Hits: 7, Late: 0, Early: 0, Misses: 0
f54-> Hits: 2, Late: 0, Early: 0, Misses: 0
f59-> Hits: 78, Late: 11, Early: 0, Misses: 0
f5a-> Hits: 12, Late: 0, Early: 0, Misses: 0
f5b-> Hits: 1, Late: 0, Early: 0, Misses: 0
f5d-> Hits: 1, Late: 0, Early: 0, Misses: 0
f5e-> Hits: 1, Late: 0, Early: 0, Misses: 0
f5f-> Hits: 103, Late: 9, Early: 0, Misses: 0
f60-> Hits: 13, Late: 2, Early: 0, Misses: 0
f61-> Hits: 1, Late: 0, Early: 0, Misses: 0
f63-> Hits: 2, Late: 0, Early: 0, Misses: 0
f64-> Hits: 172, Late: 23, Early: 0, Misses: 0
f65-> Hits: 5, Late: 0, Early: 0, Misses: 0
f66-> Hits: 3, Late: 0, Early: 0, Misses: 0
f68-> Hits: 2, Late: 0, Early: 0, Misses: 0
f69-> Hits: 68, Late: 43, Early: 0, Misses: 0
f6c-> Hits: 24, Late: 1, Early: 0, Misses: 0
f6d-> Hits: 8, Late: 0, Early: 0, Misses: 0
f6f-> Hits: 100, Late: 21, Early: 0, Misses: 0
f70-> Hits: 0, Late: 10, Early: 0, Misses: 0
f73-> Hits: 1, Late: 1, Early: 0, Misses: 0
f74-> Hits: 82, Late: 7, Early: 0, Misses: 0
f78-> Hits: 80, Late: 8, Early: 0, Misses: 0
f7a-> Hits: 4, Late: 0, Early: 0, Misses: 0
f7d-> Hits: 18, Late: 0, Early: 0, Misses: 0
f7e-> Hits: 97, Late: 11, Early: 0, Misses: 0
f7f-> Hits: 3, Late: 1, Early: 0, Misses: 0
f80-> Hits: 4, Late: 1, Early: 0, Misses: 0
f83-> Hits: 101, Late: 3, Early: 0, Misses: 0
f85-> Hits: 3, Late: 0, Early: 0, Misses: 0
f86-> Hits: 4, Late: 0, Early: 0, Misses: 0
f87-> Hits: 14, Late: 0, Early: 0, Misses: 0
f88-> Hits: 62, Late: 46, Early: 0, Misses: 0
f89-> Hits: 1, Late: 0, Early: 0, Misses: 0
f8b-> Hits: 57, Late: 6, Early: 0, Misses: 0
f8c-> Hits: 6, Late: 0, Early: 0, Misses: 0
f8d-> Hits: 3, Late: 0, Early: 0, Misses: 0
f8e-> Hits: 90, Late: 14, Early: 0, Misses: 0
f8f-> Hits: 1, Late: 0, Early: 0, Misses: 0
f90-> Hits: 6, Late: 0, Early: 0, Misses: 0
f91-> Hits: 1, Late: 0, Early: 0, Misses: 0
f92-> Hits: 2, Late: 0, Early: 0, Misses: 0
f93-> Hits: 6, Late: 0, Early: 0, Misses: 0
f94-> Hits: 1, Late: 0, Early: 0, Misses: 0
f95-> Hits: 0, Late: 2, Early: 0, Misses: 0
f96-> Hits: 1, Late: 0, Early: 0, Misses: 0
f98-> Hits: 1, Late: 0, Early: 0, Misses: 0
f9a-> Hits: 14, Late: 0, Early: 0, Misses: 0
f9c-> Hits: 3, Late: 0, Early: 0, Misses: 0
f9d-> Hits: 17, Late: 3, Early: 0, Misses: 0
f9e-> Hits: 1, Late: 0, Early: 0, Misses: 0
f9f-> Hits: 7, Late: 0, Early: 0, Misses: 0
fa0-> Hits: 5, Late: 1, Early: 0, Misses: 0
fa1-> Hits: 1, Late: 0, Early: 0, Misses: 0
fa4-> Hits: 2, Late: 0, Early: 0, Misses: 0
faa-> Hits: 3, Late: 0, Early: 0, Misses: 0
fb0-> Hits: 996, Late: 10, Early: 0, Misses: 0
fb1-> Hits: 3, Late: 3, Early: 0, Misses: 0
fb3-> Hits: 10, Late: 0, Early: 0, Misses: 0
fb6-> Hits: 1, Late: 0, Early: 0, Misses: 0
fb8-> Hits: 5, Late: 0, Early: 0, Misses: 0
fba-> Hits: 24, Late: 2, Early: 0, Misses: 0
fbb-> Hits: 7, Late: 1, Early: 0, Misses: 0
fbd-> Hits: 1, Late: 0, Early: 0, Misses: 0
fbe-> Hits: 1, Late: 0, Early: 0, Misses: 0
fbf-> Hits: 2, Late: 0, Early: 0, Misses: 0
fc0-> Hits: 4, Late: 0, Early: 0, Misses: 0
fc1-> Hits: 128, Late: 0, Early: 0, Misses: 0
fc4-> Hits: 11, Late: 0, Early: 0, Misses: 0
fc5-> Hits: 2, Late: 0, Early: 0, Misses: 0
fc6-> Hits: 2, Late: 0, Early: 0, Misses: 0
fc7-> Hits: 2, Late: 0, Early: 0, Misses: 0
fc8-> Hits: 9, Late: 0, Early: 0, Misses: 0
fca-> Hits: 2, Late: 0, Early: 0, Misses: 0
fcb-> Hits: 1, Late: 0, Early: 0, Misses: 0
fcd-> Hits: 1, Late: 1, Early: 0, Misses: 0
fce-> Hits: 1, Late: 0, Early: 0, Misses: 0
fd0-> Hits: 4, Late: 0, Early: 0, Misses: 0
fd2-> Hits: 1, Late: 0, Early: 0, Misses: 0
fd5-> Hits: 128, Late: 0, Early: 0, Misses: 0
fd6-> Hits: 6, Late: 0, Early: 0, Misses: 0
fd7-> Hits: 6, Late: 0, Early: 0, Misses: 0
fd8-> Hits: 10, Late: 0, Early: 0, Misses: 0
fda-> Hits: 6, Late: 0, Early: 0, Misses: 0
fdc-> Hits: 7, Late: 1, Early: 0, Misses: 0
fde-> Hits: 8, Late: 0, Early: 0, Misses: 0
fdf-> Hits: 22, Late: 0, Early: 0, Misses: 0
fe0-> Hits: 8, Late: 0, Early: 0, Misses: 0
fe1-> Hits: 4, Late: 0, Early: 0, Misses: 0
fe2-> Hits: 2, Late: 0, Early: 0, Misses: 0
fe3-> Hits: 4, Late: 0, Early: 0, Misses: 0
fe4-> Hits: 7, Late: 1, Early: 0, Misses: 0
fe5-> Hits: 6, Late: 7, Early: 0, Misses: 0
fe6-> Hits: 2, Late: 0, Early: 0, Misses: 0
fe7-> Hits: 1, Late: 1, Early: 0, Misses: 0
fe8-> Hits: 62, Late: 44, Early: 0, Misses: 0
feb-> Hits: 1, Late: 2, Early: 0, Misses: 0
fec-> Hits: 6, Late: 0, Early: 0, Misses: 0
fed-> Hits: 87, Late: 20, Early: 0, Misses: 0
fef-> Hits: 0, Late: 1, Early: 0, Misses: 0
ff0-> Hits: 7, Late: 0, Early: 0, Misses: 0
ff2-> Hits: 138, Late: 64, Early: 0, Misses: 0
ff3-> Hits: 14, Late: 0, Early: 0, Misses: 0
ff5-> Hits: 2, Late: 0, Early: 0, Misses: 0
ff7-> Hits: 4, Late: 0, Early: 0, Misses: 0
ff8-> Hits: 76, Late: 26, Early: 0, Misses: 0
ff9-> Hits: 27, Late: 0, Early: 0, Misses: 0
ffd-> Hits: 2, Late: 0, Early: 0, Misses: 0
ffe-> Hits: 21, Late: 0, Early: 0, Misses: 0
fff-> Hits: 12, Late: 0, Early: 0, Misses: 0
Total misses (from ip) 164335
Total accesses (misses) 21322897 637051
Pref: Addr 0 IP 0 Current 0
CPU 3 L2C berti prefetcher final stats
Channel_0_RQ_row_buffer_hit 284987
Channel_0_RQ_row_buffer_miss 47511
Channel_0_WQ_row_buffer_hit 154
Channel_0_WQ_row_buffer_miss 364
Channel_0_WQ_full 0
Channel_0_dbus_congested 121493

avg_congested_cycle 8

EzSearch AVG IPC :0.81696: L2-Pf-HR :0.81905 : L2-HR :0.81877 Uful:0.17712
EzSearch AVG IPC :0.81641: L2-Pf-HR :0.78548 : L2-HR :0.79848 Uful:0.22545
EzSearch AVG IPC :0.81731: L2-Pf-HR :0.82626 : L2-HR :0.82194 Uful:0.16710
EzSearch AVG IPC :0.82980: L2-Pf-HR :0.81375 : L2-HR :0.81467 Uful:0.18571
     > Finished combination: TraceType=770-tot Sim:16000000 Prefetcher=L2berti L1=berti
