TRACE: [125000000][OPT-125M]_[h12][s512][d64] Warmup: 2000000 NumTraces: 125000000
L1:bingo_dpc3:L2:bingo_dpc3
*************************************************
   ChampSim Multicore Out-of-Order Simulator
   Last compiled: Oct 29 2024 03:34:16
*************************************************

trace_0 770-tot_memTraces_v3/memTraces[125000000][OPT-125M]_[h12][s512][d64].champsim.xz
trace_1 770-tot_memTraces_v3/memTraces[125000000][OPT-125M]_[h12][s512][d64].champsim.xz
trace_2 770-tot_memTraces_v3/memTraces[125000000][OPT-125M]_[h12][s512][d64].champsim.xz
trace_3 770-tot_memTraces_v3/memTraces[125000000][OPT-125M]_[h12][s512][d64].champsim.xz
Bingo PHT WAYS: 16 and PHT_SIZE: 16384
Bingo2 PHT WAYS: 16 and PHT_SIZE: 16384
Bingo PHT WAYS: 16 and PHT_SIZE: 16384
Bingo2 PHT WAYS: 16 and PHT_SIZE: 16384
Bingo PHT WAYS: 16 and PHT_SIZE: 16384
Bingo2 PHT WAYS: 16 and PHT_SIZE: 16384
Bingo PHT WAYS: 16 and PHT_SIZE: 16384
Bingo2 PHT WAYS: 16 and PHT_SIZE: 16384
MAIN.cc ln 751 stats print skipped
CPU  0 inst:    1000001 cyc:     498881 now IPC :2.00449: AVG IPC :2.00449: L2-Pf-HR :0.68592: L2-HR :0.61112: (Sim:0h0m27s) 
CPU  2 inst:    1000001 cyc:     499077 now IPC :2.00370: AVG IPC :2.00370: L2-Pf-HR :0.65931: L2-HR :0.59391: (Sim:0h0m27s) 
CPU  1 inst:    1000001 cyc:     499197 now IPC :2.00322: AVG IPC :2.00322: L2-Pf-HR :0.69751: L2-HR :0.61057: (Sim:0h0m27s) 
CPU  3 inst:    1000001 cyc:     499204 now IPC :2.00319: AVG IPC :2.00319: L2-Pf-HR :0.74653: L2-HR :0.64392: (Sim:0h0m27s) 
CPU  0 inst:    2000000 cyc:     981221 now IPC :2.07322: AVG IPC :2.03828: L2-Pf-HR :0.73984: L2-HR :0.68969: (Sim:0h0m57s) 
CPU  2 inst:    2000000 cyc:     981388 now IPC :2.07335: AVG IPC :2.03793: L2-Pf-HR :0.71317: L2-HR :0.67340: (Sim:0h0m57s) 
CPU  1 inst:    2000000 cyc:     981694 now IPC :2.07255: AVG IPC :2.03729: L2-Pf-HR :0.71759: L2-HR :0.67035: (Sim:0h0m57s) 
CPU  3 inst:    2000000 cyc:     981739 now IPC :2.07239: AVG IPC :2.03720: L2-Pf-HR :0.78418: L2-HR :0.71591: (Sim:0h0m57s) 

Warmup complete CPU  0 instructions:    2000990 cycles:     981740 (Simulation time: 0 hr 0 min 57 sec) 
Warmup complete CPU  1 instructions:    2000131 cycles:     981740 (Simulation time: 0 hr 0 min 57 sec) 
Warmup complete CPU  2 instructions:    2000765 cycles:     981740 (Simulation time: 0 hr 0 min 57 sec) 
Warmup complete CPU  3 instructions:    2000003 cycles:     981740 (Simulation time: 0 hr 0 min 57 sec) 

CPU  2 inst:    3000001 cyc:    1705169 now IPC :1.38163: AVG IPC :1.38125: L2-Pf-HR :0.83313: L2-HR :0.76524: (Sim:0h1m24s) 
CPU  0 inst:    3000001 cyc:    1705373 now IPC :1.38093: AVG IPC :1.38055: L2-Pf-HR :0.85539: L2-HR :0.78156: (Sim:0h1m24s) 
CPU  3 inst:    3000001 cyc:    1705830 now IPC :1.38104: AVG IPC :1.38104: L2-Pf-HR :0.86380: L2-HR :0.79172: (Sim:0h1m24s) 
CPU  1 inst:    3000001 cyc:    1705881 now IPC :1.38086: AVG IPC :1.38077: L2-Pf-HR :0.80929: L2-HR :0.75382: (Sim:0h1m24s) 
CPU  2 inst:    4000000 cyc:    2371683 now IPC :1.50034: AVG IPC :1.43836: L2-Pf-HR :0.81223: L2-HR :0.78988: (Sim:0h1m50s) 
CPU  0 inst:    4000000 cyc:    2382849 now IPC :1.47607: AVG IPC :1.42673: L2-Pf-HR :0.79329: L2-HR :0.77874: (Sim:0h1m51s) 
CPU  3 inst:    4000000 cyc:    2384222 now IPC :1.47407: AVG IPC :1.42604: L2-Pf-HR :0.79546: L2-HR :0.77988: (Sim:0h1m51s) 
CPU  1 inst:    4000000 cyc:    2386565 now IPC :1.46911: AVG IPC :1.42357: L2-Pf-HR :0.76531: L2-HR :0.75912: (Sim:0h1m51s) 
CPU  2 inst:    5000001 cyc:    3091322 now IPC :1.38959: AVG IPC :1.42172: L2-Pf-HR :0.78042: L2-HR :0.78329: (Sim:0h2m17s) 
CPU  0 inst:    5000001 cyc:    3116604 now IPC :1.36285: AVG IPC :1.40478: L2-Pf-HR :0.76605: L2-HR :0.77459: (Sim:0h2m18s) 
CPU  1 inst:    5000001 cyc:    3116857 now IPC :1.36932: AVG IPC :1.40501: L2-Pf-HR :0.75596: L2-HR :0.76493: (Sim:0h2m18s) 
CPU  3 inst:    5000001 cyc:    3120498 now IPC :1.35819: AVG IPC :1.40268: L2-Pf-HR :0.77249: L2-HR :0.77643: (Sim:0h2m18s) 
CPU  2 inst:    6000004 cyc:    3678607 now IPC :1.70276: AVG IPC :1.48292: L2-Pf-HR :0.79055: L2-HR :0.79842: (Sim:0h2m42s) 
CPU  1 inst:    6000004 cyc:    3733292 now IPC :1.62224: AVG IPC :1.45368: L2-Pf-HR :0.77293: L2-HR :0.78547: (Sim:0h2m45s) 
CPU  3 inst:    6000004 cyc:    3733366 now IPC :1.63168: AVG IPC :1.45369: L2-Pf-HR :0.79863: L2-HR :0.80019: (Sim:0h2m45s) 
CPU  0 inst:    6000004 cyc:    3740531 now IPC :1.60276: AVG IPC :1.44955: L2-Pf-HR :0.78474: L2-HR :0.79358: (Sim:0h2m45s) 
CPU  2 inst:    7000005 cyc:    4295504 now IPC :1.62102: AVG IPC :1.50863: L2-Pf-HR :0.79587: L2-HR :0.80355: (Sim:0h3m8s) 
CPU  1 inst:    7000005 cyc:    4389331 now IPC :1.52430: AVG IPC :1.46728: L2-Pf-HR :0.77845: L2-HR :0.79088: (Sim:0h3m12s) 
CPU  3 inst:    7000005 cyc:    4389956 now IPC :1.52302: AVG IPC :1.46704: L2-Pf-HR :0.80992: L2-HR :0.80610: (Sim:0h3m12s) 
CPU  0 inst:    7000005 cyc:    4399270 now IPC :1.51805: AVG IPC :1.46276: L2-Pf-HR :0.80043: L2-HR :0.80147: (Sim:0h3m12s) 
CPU  2 inst:    8000005 cyc:    4899571 now IPC :1.65545: AVG IPC :1.53127: L2-Pf-HR :0.80125: L2-HR :0.80940: (Sim:0h3m33s) 
CPU  1 inst:    8000005 cyc:    5043594 now IPC :1.52844: AVG IPC :1.47713: L2-Pf-HR :0.77936: L2-HR :0.79132: (Sim:0h3m38s) 
CPU  3 inst:    8000005 cyc:    5060133 now IPC :1.49214: AVG IPC :1.47117: L2-Pf-HR :0.80986: L2-HR :0.80581: (Sim:0h3m39s) 
CPU  0 inst:    8000005 cyc:    5064537 now IPC :1.50316: AVG IPC :1.46934: L2-Pf-HR :0.79863: L2-HR :0.80081: (Sim:0h3m39s) 
CPU  2 inst:    9000000 cyc:    5603385 now IPC :1.42082: AVG IPC :1.51445: L2-Pf-HR :0.79432: L2-HR :0.80437: (Sim:0h4m0s) 
CPU  1 inst:    9000000 cyc:    5744053 now IPC :1.42763: AVG IPC :1.46985: L2-Pf-HR :0.77117: L2-HR :0.78677: (Sim:0h4m5s) 
CPU  3 inst:    9000000 cyc:    5769028 now IPC :1.41064: AVG IPC :1.46221: L2-Pf-HR :0.80146: L2-HR :0.80129: (Sim:0h4m7s) 
CPU  0 inst:    9000000 cyc:    5776030 now IPC :1.40549: AVG IPC :1.45986: L2-Pf-HR :0.78741: L2-HR :0.79421: (Sim:0h4m7s) 
CPU  2 inst:   10000001 cyc:    6212954 now IPC :1.64050: AVG IPC :1.52914: L2-Pf-HR :0.79643: L2-HR :0.80434: (Sim:0h4m25s) 
CPU  1 inst:   10000001 cyc:    6339316 now IPC :1.67993: AVG IPC :1.49319: L2-Pf-HR :0.77676: L2-HR :0.79181: (Sim:0h4m31s) 
CPU  3 inst:   10000005 cyc:    6408606 now IPC :1.56354: AVG IPC :1.47415: L2-Pf-HR :0.80844: L2-HR :0.80567: (Sim:0h4m34s) 
CPU  0 inst:   10000001 cyc:    6418783 now IPC :1.55581: AVG IPC :1.47121: L2-Pf-HR :0.79656: L2-HR :0.79988: (Sim:0h4m34s) 
CPU  2 inst:   11000005 cyc:    6813109 now IPC :1.66624: AVG IPC :1.54325: L2-Pf-HR :0.79948: L2-HR :0.80643: (Sim:0h4m51s) 
CPU  1 inst:   11000005 cyc:    6939050 now IPC :1.66741: AVG IPC :1.51073: L2-Pf-HR :0.77693: L2-HR :0.79375: (Sim:0h4m57s) 
CPU  3 inst:   11000005 cyc:    7015822 now IPC :1.64686: AVG IPC :1.49153: L2-Pf-HR :0.81035: L2-HR :0.80900: (Sim:0h5m0s) 
CPU  0 inst:   11000005 cyc:    7054350 now IPC :1.57340: AVG IPC :1.48190: L2-Pf-HR :0.80051: L2-HR :0.80215: (Sim:0h5m2s) 
CPU  2 inst:   12000005 cyc:    7433024 now IPC :1.61312: AVG IPC :1.54996: L2-Pf-HR :0.80339: L2-HR :0.80854: (Sim:0h5m18s) 
CPU  1 inst:   12000005 cyc:    7554997 now IPC :1.62352: AVG IPC :1.52130: L2-Pf-HR :0.77835: L2-HR :0.79516: (Sim:0h5m23s) 
CPU  3 inst:   12000005 cyc:    7612877 now IPC :1.67489: AVG IPC :1.50804: L2-Pf-HR :0.81013: L2-HR :0.80949: (Sim:0h5m25s) 
CPU  0 inst:   12000005 cyc:    7691090 now IPC :1.57050: AVG IPC :1.49031: L2-Pf-HR :0.80274: L2-HR :0.80256: (Sim:0h5m29s) 
CPU  2 inst:   13000002 cyc:    8127966 now IPC :1.43896: AVG IPC :1.53917: L2-Pf-HR :0.79881: L2-HR :0.80436: (Sim:0h5m45s) 
CPU  1 inst:   13000002 cyc:    8255123 now IPC :1.42831: AVG IPC :1.51235: L2-Pf-HR :0.77270: L2-HR :0.79041: (Sim:0h5m51s) 
CPU  3 inst:   13000002 cyc:    8295218 now IPC :1.46554: AVG IPC :1.50407: L2-Pf-HR :0.80319: L2-HR :0.80416: (Sim:0h5m52s) 
CPU  0 inst:   13000002 cyc:    8391466 now IPC :1.42780: AVG IPC :1.48440: L2-Pf-HR :0.79382: L2-HR :0.79630: (Sim:0h5m56s) 
CPU  2 inst:   14000005 cyc:    8685776 now IPC :1.79273: AVG IPC :1.55753: L2-Pf-HR :0.79872: L2-HR :0.80544: (Sim:0h6m9s) 
CPU  1 inst:   14000005 cyc:    8867631 now IPC :1.63264: AVG IPC :1.52169: L2-Pf-HR :0.77586: L2-HR :0.79243: (Sim:0h6m17s) 
CPU  3 inst:   14000005 cyc:    8920593 now IPC :1.59905: AVG IPC :1.51155: L2-Pf-HR :0.81053: L2-HR :0.80784: (Sim:0h6m20s) 
CPU  0 inst:   14000005 cyc:    8993853 now IPC :1.66007: AVG IPC :1.49761: L2-Pf-HR :0.80023: L2-HR :0.79970: (Sim:0h6m23s) 
CPU  2 inst:   15000001 cyc:    9251456 now IPC :1.76778: AVG IPC :1.57191: L2-Pf-HR :0.80013: L2-HR :0.80718: (Sim:0h6m34s) 
CPU  1 inst:   15000001 cyc:    9487869 now IPC :1.61228: AVG IPC :1.52829: L2-Pf-HR :0.77889: L2-HR :0.79353: (Sim:0h6m44s) 
CPU  3 inst:   15000001 cyc:    9546438 now IPC :1.59783: AVG IPC :1.51786: L2-Pf-HR :0.81368: L2-HR :0.80934: (Sim:0h6m47s) 
CPU  0 inst:   15000001 cyc:    9607838 now IPC :1.62870: AVG IPC :1.50694: L2-Pf-HR :0.80399: L2-HR :0.80116: (Sim:0h6m50s) 
CPU  2 inst:   16000000 cyc:    9857757 now IPC :1.64934: AVG IPC :1.57720: L2-Pf-HR :0.80366: L2-HR :0.80953: (Sim:0h7m0s) 
CPU  1 inst:   16000000 cyc:   10105493 now IPC :1.61911: AVG IPC :1.53444: L2-Pf-HR :0.78150: L2-HR :0.79433: (Sim:0h7m10s) 
CPU  3 inst:   16000000 cyc:   10190013 now IPC :1.55382: AVG IPC :1.52037: L2-Pf-HR :0.81465: L2-HR :0.80919: (Sim:0h7m14s) 
CPU  0 inst:   16000000 cyc:   10236840 now IPC :1.58982: AVG IPC :1.51257: L2-Pf-HR :0.80622: L2-HR :0.80191: (Sim:0h7m16s) 
CPU  2 inst:   17000000 cyc:   10531995 now IPC :1.48316: AVG IPC :1.57056: L2-Pf-HR :0.79922: L2-HR :0.80611: (Sim:0h7m28s) 
CPU  1 inst:   17000000 cyc:   10801867 now IPC :1.43601: AVG IPC :1.52746: L2-Pf-HR :0.77449: L2-HR :0.78940: (Sim:0h7m38s) 
CPU  3 inst:   17000000 cyc:   10879022 now IPC :1.45136: AVG IPC :1.51557: L2-Pf-HR :0.80900: L2-HR :0.80520: (Sim:0h7m41s) 
CPU  0 inst:   17000000 cyc:   10941087 now IPC :1.41996: AVG IPC :1.50602: L2-Pf-HR :0.79890: L2-HR :0.79725: (Sim:0h7m44s) 
CPU  2 inst:   18000001 cyc:   11165265 now IPC :1.57911: AVG IPC :1.57109: L2-Pf-HR :0.80044: L2-HR :0.80717: (Sim:0h7m53s) 
CPU  1 inst:   18000001 cyc:   11401957 now IPC :1.66642: AVG IPC :1.53546: L2-Pf-HR :0.77593: L2-HR :0.79053: (Sim:0h8m3s) 
CPU  3 inst:   18000001 cyc:   11517473 now IPC :1.56629: AVG IPC :1.51864: L2-Pf-HR :0.81412: L2-HR :0.80762: (Sim:0h8m9s) 
CPU  0 inst:   18000001 cyc:   11578718 now IPC :1.56831: AVG IPC :1.50977: L2-Pf-HR :0.80173: L2-HR :0.79888: (Sim:0h8m11s) 
CPU  2 inst:   19000004 cyc:   11791057 now IPC :1.59798: AVG IPC :1.57265: L2-Pf-HR :0.79949: L2-HR :0.80680: (Sim:0h8m20s) 
CPU  1 inst:   19000004 cyc:   11994193 now IPC :1.68852: AVG IPC :1.54370: L2-Pf-HR :0.77869: L2-HR :0.79245: (Sim:0h8m29s) 
CPU  3 inst:   19000004 cyc:   12127696 now IPC :1.63875: AVG IPC :1.52522: L2-Pf-HR :0.81473: L2-HR :0.80825: (Sim:0h8m35s) 
CPU  0 inst:   19000004 cyc:   12212202 now IPC :1.57858: AVG IPC :1.51365: L2-Pf-HR :0.80520: L2-HR :0.80095: (Sim:0h8m39s) 
CPU  2 inst:   20000000 cyc:   12407382 now IPC :1.62251: AVG IPC :1.57534: L2-Pf-HR :0.80223: L2-HR :0.80886: (Sim:0h8m47s) 
CPU  1 inst:   20000000 cyc:   12610470 now IPC :1.62264: AVG IPC :1.54788: L2-Pf-HR :0.78118: L2-HR :0.79358: (Sim:0h8m55s) 
CPU  3 inst:   20000000 cyc:   12749159 now IPC :1.60910: AVG IPC :1.52965: L2-Pf-HR :0.81753: L2-HR :0.81041: (Sim:0h9m1s) 
CPU  0 inst:   20000000 cyc:   12829377 now IPC :1.62028: AVG IPC :1.51921: L2-Pf-HR :0.80722: L2-HR :0.80196: (Sim:0h9m5s) 
CPU  2 inst:   21000003 cyc:   13104560 now IPC :1.43436: AVG IPC :1.56723: L2-Pf-HR :0.79964: L2-HR :0.80687: (Sim:0h9m14s) 
CPU  1 inst:   21000005 cyc:   13391550 now IPC :1.28029: AVG IPC :1.53104: L2-Pf-HR :0.77582: L2-HR :0.78994: (Sim:0h9m24s) 
CPU  3 inst:   21000003 cyc:   13538860 now IPC :1.26631: AVG IPC :1.51309: L2-Pf-HR :0.81179: L2-HR :0.80680: (Sim:0h9m29s) 
CPU  0 inst:   21000003 cyc:   13615000 now IPC :1.27288: AVG IPC :1.50389: L2-Pf-HR :0.79994: L2-HR :0.79827: (Sim:0h9m32s) 
CPU  2 inst:   22000000 cyc:   13822931 now IPC :1.39203: AVG IPC :1.55743: L2-Pf-HR :0.80104: L2-HR :0.80703: (Sim:0h9m41s) 
CPU  1 inst:   22000000 cyc:   14085577 now IPC :1.44086: AVG IPC :1.52626: L2-Pf-HR :0.77819: L2-HR :0.79007: (Sim:0h9m51s) 
CPU  3 inst:   22000000 cyc:   14197767 now IPC :1.51766: AVG IPC :1.51331: L2-Pf-HR :0.81553: L2-HR :0.80851: (Sim:0h9m56s) 
CPU  0 inst:   22000000 cyc:   14314118 now IPC :1.43037: AVG IPC :1.50003: L2-Pf-HR :0.80421: L2-HR :0.79977: (Sim:0h10m0s) 
CPU  2 inst:   23000003 cyc:   14503183 now IPC :1.47005: AVG IPC :1.55303: L2-Pf-HR :0.80267: L2-HR :0.80793: (Sim:0h10m8s) 
CPU  1 inst:   23000003 cyc:   14746251 now IPC :1.51361: AVG IPC :1.52565: L2-Pf-HR :0.78168: L2-HR :0.79199: (Sim:0h10m18s) 
CPU  3 inst:   23000003 cyc:   14844126 now IPC :1.54713: AVG IPC :1.51489: L2-Pf-HR :0.81679: L2-HR :0.80959: (Sim:0h10m22s) 
CPU  0 inst:   23000003 cyc:   15008487 now IPC :1.44016: AVG IPC :1.49707: L2-Pf-HR :0.80773: L2-HR :0.80132: (Sim:0h10m29s) 
CPU  2 inst:   24000004 cyc:   15164823 now IPC :1.51140: AVG IPC :1.55109: L2-Pf-HR :0.80345: L2-HR :0.80812: (Sim:0h10m36s) 
CPU  1 inst:   24000004 cyc:   15422035 now IPC :1.47976: AVG IPC :1.52351: L2-Pf-HR :0.78340: L2-HR :0.79229: (Sim:0h10m46s) 
CPU  3 inst:   24000004 cyc:   15510672 now IPC :1.50027: AVG IPC :1.51422: L2-Pf-HR :0.81981: L2-HR :0.81144: (Sim:0h10m49s) 
CPU  0 inst:   24000004 cyc:   15761774 now IPC :1.32752: AVG IPC :1.48843: L2-Pf-HR :0.80965: L2-HR :0.80177: (Sim:0h11m2s) 
CPU  2 inst:   25000002 cyc:   15973897 now IPC :1.23598: AVG IPC :1.53408: L2-Pf-HR :0.80047: L2-HR :0.80617: (Sim:0h11m15s) 
CPU  1 inst:   25000003 cyc:   16293646 now IPC :1.14730: AVG IPC :1.50209: L2-Pf-HR :0.77647: L2-HR :0.78798: (Sim:0h11m31s) 
CPU  3 inst:   25000003 cyc:   16510083 now IPC :1.00059: AVG IPC :1.48116: L2-Pf-HR :0.81424: L2-HR :0.80781: (Sim:0h11m43s) 
CPU  0 inst:   25000003 cyc:   16723462 now IPC :1.03984: AVG IPC :1.46102: L2-Pf-HR :0.80281: L2-HR :0.79841: (Sim:0h11m55s) 
CPU  2 inst:   26000005 cyc:   16847173 now IPC :1.14512: AVG IPC :1.51267: L2-Pf-HR :0.80066: L2-HR :0.80607: (Sim:0h12m4s) 
CPU  1 inst:   26000005 cyc:   17028410 now IPC :1.36098: AVG IPC :1.49563: L2-Pf-HR :0.77966: L2-HR :0.79011: (Sim:0h12m16s) 
CPU  3 inst:   26000004 cyc:   17234430 now IPC :1.38056: AVG IPC :1.47668: L2-Pf-HR :0.81831: L2-HR :0.80971: (Sim:0h12m31s) 
CPU  0 inst:   26000002 cyc:   17427865 now IPC :1.41964: AVG IPC :1.45925: L2-Pf-HR :0.80451: L2-HR :0.79934: (Sim:0h12m44s) 
CPU  2 inst:   27000000 cyc:   17523896 now IPC :1.47770: AVG IPC :1.51124: L2-Pf-HR :0.80148: L2-HR :0.80691: (Sim:0h12m50s) 
CPU  1 inst:   27000000 cyc:   17728936 now IPC :1.42749: AVG IPC :1.49278: L2-Pf-HR :0.78166: L2-HR :0.79099: (Sim:0h13m4s) 
CPU  3 inst:   27000000 cyc:   17947412 now IPC :1.40255: AVG IPC :1.47356: L2-Pf-HR :0.82056: L2-HR :0.81059: (Sim:0h13m18s) 
CPU  0 inst:   27000000 cyc:   18152563 now IPC :1.37988: AVG IPC :1.45590: L2-Pf-HR :0.80665: L2-HR :0.80061: (Sim:0h13m32s) 
CPU  2 inst:   28000001 cyc:   18253857 now IPC :1.36994: AVG IPC :1.50527: L2-Pf-HR :0.80398: L2-HR :0.80824: (Sim:0h13m38s) 
CPU  1 inst:   28000004 cyc:   18491266 now IPC :1.31177: AVG IPC :1.48490: L2-Pf-HR :0.78409: L2-HR :0.79155: (Sim:0h13m52s) 
CPU  3 inst:   28000001 cyc:   18741228 now IPC :1.25974: AVG IPC :1.46401: L2-Pf-HR :0.82333: L2-HR :0.81161: (Sim:0h14m6s) 
CPU  0 inst:   28000005 cyc:   18994347 now IPC :1.18796: AVG IPC :1.44338: L2-Pf-HR :0.80964: L2-HR :0.80219: (Sim:0h14m20s) 
CPU  2 inst:   29000002 cyc:   19248865 now IPC :1.00502: AVG IPC :1.47802: L2-Pf-HR :0.80109: L2-HR :0.80677: (Sim:0h14m32s) 
CPU  1 inst:   29000002 cyc:   19542306 now IPC :0.95144: AVG IPC :1.45469: L2-Pf-HR :0.77880: L2-HR :0.78859: (Sim:0h14m46s) 
CPU  3 inst:   29000002 cyc:   19849628 now IPC :0.90220: AVG IPC :1.43100: L2-Pf-HR :0.81806: L2-HR :0.80856: (Sim:0h15m2s) 
CPU  0 inst:   29000002 cyc:   20094050 now IPC :0.90933: AVG IPC :1.41265: L2-Pf-HR :0.80377: L2-HR :0.79931: (Sim:0h15m15s) 
CPU  2 inst:   30000000 cyc:   20210604 now IPC :1.03978: AVG IPC :1.45610: L2-Pf-HR :0.80150: L2-HR :0.80640: (Sim:0h15m21s) 
CPU  1 inst:   30000000 cyc:   20443721 now IPC :1.10936: AVG IPC :1.43870: L2-Pf-HR :0.78124: L2-HR :0.78927: (Sim:0h15m36s) 
CPU  3 inst:   30000000 cyc:   20632431 now IPC :1.27746: AVG IPC :1.42489: L2-Pf-HR :0.82057: L2-HR :0.80982: (Sim:0h15m49s) 
CPU  0 inst:   30000000 cyc:   20872565 now IPC :1.28449: AVG IPC :1.40763: L2-Pf-HR :0.80478: L2-HR :0.79967: (Sim:0h16m4s) 
CPU  2 inst:   31000001 cyc:   20893898 now IPC :1.46350: AVG IPC :1.45636: L2-Pf-HR :0.80216: L2-HR :0.80729: (Sim:0h16m6s) 
CPU  1 inst:   31000001 cyc:   21241310 now IPC :1.25378: AVG IPC :1.43142: L2-Pf-HR :0.78357: L2-HR :0.78993: (Sim:0h16m28s) 
CPU  3 inst:   31000001 cyc:   21369988 now IPC :1.35583: AVG IPC :1.42239: L2-Pf-HR :0.82243: L2-HR :0.81071: (Sim:0h16m36s) 
CPU  2 inst:   32000003 cyc:   21637648 now IPC :1.34454: AVG IPC :1.45233: L2-Pf-HR :0.80444: L2-HR :0.80867: (Sim:0h16m53s) 
CPU  0 inst:   31000001 cyc:   21645996 now IPC :1.29294: AVG IPC :1.40334: L2-Pf-HR :0.80683: L2-HR :0.80123: (Sim:0h16m53s) 
CPU  1 inst:   32000003 cyc:   22066419 now IPC :1.21196: AVG IPC :1.42283: L2-Pf-HR :0.78555: L2-HR :0.79046: (Sim:0h17m18s) 
CPU  3 inst:   32000003 cyc:   22174576 now IPC :1.24287: AVG IPC :1.41557: L2-Pf-HR :0.82443: L2-HR :0.81186: (Sim:0h17m23s) 
CPU  0 inst:   32000003 cyc:   22560750 now IPC :1.09319: AVG IPC :1.39019: L2-Pf-HR :0.80931: L2-HR :0.80227: (Sim:0h17m43s) 
CPU  2 inst:   33000003 cyc:   22645549 now IPC :0.99216: AVG IPC :1.43092: L2-Pf-HR :0.80378: L2-HR :0.80832: (Sim:0h17m47s) 
CPU  1 inst:   33000003 cyc:   23265702 now IPC :0.83383: AVG IPC :1.39113: L2-Pf-HR :0.78282: L2-HR :0.78875: (Sim:0h18m15s) 
CPU  3 inst:   33000003 cyc:   23303322 now IPC :0.88594: AVG IPC :1.38879: L2-Pf-HR :0.82153: L2-HR :0.80999: (Sim:0h18m17s) 
CPU  0 inst:   33000003 cyc:   23754410 now IPC :0.83776: AVG IPC :1.36124: L2-Pf-HR :0.80583: L2-HR :0.80062: (Sim:0h18m36s) 
CPU  2 inst:   34000004 cyc:   23865797 now IPC :0.81951: AVG IPC :1.39832: L2-Pf-HR :0.80301: L2-HR :0.80718: (Sim:0h18m41s) 
CPU  1 inst:   34000004 cyc:   24535848 now IPC :0.78731: AVG IPC :1.35857: L2-Pf-HR :0.78325: L2-HR :0.78843: (Sim:0h19m14s) 
CPU  3 inst:   34000004 cyc:   24575442 now IPC :0.78609: AVG IPC :1.35629: L2-Pf-HR :0.82140: L2-HR :0.80969: (Sim:0h19m16s) 
CPU  0 inst:   34000004 cyc:   24758865 now IPC :0.99557: AVG IPC :1.34579: L2-Pf-HR :0.80526: L2-HR :0.80007: (Sim:0h19m27s) 
CPU  2 inst:   35000000 cyc:   24955867 now IPC :0.91737: AVG IPC :1.37645: L2-Pf-HR :0.80346: L2-HR :0.80737: (Sim:0h19m36s) 
CPU  1 inst:   35000000 cyc:   25628001 now IPC :0.91562: AVG IPC :1.33894: L2-Pf-HR :0.78534: L2-HR :0.78914: (Sim:0h20m8s) 
CPU  3 inst:   35000000 cyc:   25791532 now IPC :0.82230: AVG IPC :1.33012: L2-Pf-HR :0.82281: L2-HR :0.81041: (Sim:0h20m16s) 
CPU  0 inst:   35000000 cyc:   25794978 now IPC :0.96514: AVG IPC :1.32990: L2-Pf-HR :0.80630: L2-HR :0.80108: (Sim:0h20m16s) 
CPU  2 inst:   36000000 cyc:   26101532 now IPC :0.87286: AVG IPC :1.35348: L2-Pf-HR :0.80460: L2-HR :0.80799: (Sim:0h20m32s) 
CPU  1 inst:   36000000 cyc:   26532180 now IPC :1.10598: AVG IPC :1.33070: L2-Pf-HR :0.78652: L2-HR :0.78938: (Sim:0h20m54s) 
CPU  0 inst:   36000000 cyc:   26766291 now IPC :1.02953: AVG IPC :1.31858: L2-Pf-HR :0.80788: L2-HR :0.80243: (Sim:0h21m8s) 
CPU  3 inst:   36000000 cyc:   26857223 now IPC :0.93836: AVG IPC :1.31398: L2-Pf-HR :0.82441: L2-HR :0.81096: (Sim:0h21m12s) 
CPU  2 inst:   37000005 cyc:   27064543 now IPC :1.03841: AVG IPC :1.34185: L2-Pf-HR :0.80493: L2-HR :0.80800: (Sim:0h21m23s) 
CPU  1 inst:   37000005 cyc:   27657451 now IPC :0.88868: AVG IPC :1.31205: L2-Pf-HR :0.78537: L2-HR :0.78884: (Sim:0h21m50s) 
CPU  0 inst:   37000005 cyc:   28008527 now IPC :0.80500: AVG IPC :1.29498: L2-Pf-HR :0.80628: L2-HR :0.80139: (Sim:0h22m5s) 
CPU  3 inst:   37000005 cyc:   28025013 now IPC :0.85632: AVG IPC :1.29422: L2-Pf-HR :0.82286: L2-HR :0.81002: (Sim:0h22m6s) 
CPU  2 inst:   38000003 cyc:   28279591 now IPC :0.82301: AVG IPC :1.31876: L2-Pf-HR :0.80333: L2-HR :0.80681: (Sim:0h22m16s) 
CPU  1 inst:   38000003 cyc:   28864537 now IPC :0.82844: AVG IPC :1.29111: L2-Pf-HR :0.78412: L2-HR :0.78820: (Sim:0h22m45s) 
CPU  2 inst:   39000003 cyc:   29231910 now IPC :1.05007: AVG IPC :1.30970: L2-Pf-HR :0.80329: L2-HR :0.80698: (Sim:0h23m4s) 
CPU  0 inst:   38000003 cyc:   29279164 now IPC :0.78701: AVG IPC :1.27217: L2-Pf-HR :0.80465: L2-HR :0.80040: (Sim:0h23m6s) 
CPU  3 inst:   38000003 cyc:   29323734 now IPC :0.76999: AVG IPC :1.27020: L2-Pf-HR :0.82173: L2-HR :0.80923: (Sim:0h23m9s) 
CPU  1 inst:   39000003 cyc:   29842425 now IPC :1.02261: AVG IPC :1.28202: L2-Pf-HR :0.78561: L2-HR :0.78856: (Sim:0h23m35s) 
CPU  2 inst:   40000000 cyc:   30187592 now IPC :1.04637: AVG IPC :1.30108: L2-Pf-HR :0.80450: L2-HR :0.80781: (Sim:0h23m53s) 
CPU  0 inst:   39000003 cyc:   30313438 now IPC :0.96686: AVG IPC :1.26140: L2-Pf-HR :0.80523: L2-HR :0.80085: (Sim:0h24m0s) 
CPU  3 inst:   39000003 cyc:   30419580 now IPC :0.91254: AVG IPC :1.25689: L2-Pf-HR :0.82230: L2-HR :0.80949: (Sim:0h24m5s) 
CPU  1 inst:   40000000 cyc:   30826505 now IPC :1.01617: AVG IPC :1.27325: L2-Pf-HR :0.78664: L2-HR :0.78881: (Sim:0h24m27s) 
CPU  2 inst:   41000003 cyc:   31173231 now IPC :1.01457: AVG IPC :1.29173: L2-Pf-HR :0.80517: L2-HR :0.80799: (Sim:0h24m46s) 
CPU  0 inst:   40000000 cyc:   31272347 now IPC :1.04285: AVG IPC :1.25448: L2-Pf-HR :0.80719: L2-HR :0.80230: (Sim:0h24m51s) 
CPU  3 inst:   40000000 cyc:   31381584 now IPC :1.03949: AVG IPC :1.25001: L2-Pf-HR :0.82401: L2-HR :0.81035: (Sim:0h24m57s) 
CPU  1 inst:   41000003 cyc:   31856177 now IPC :0.97119: AVG IPC :1.26318: L2-Pf-HR :0.78611: L2-HR :0.78833: (Sim:0h25m20s) 
CPU  0 inst:   41000003 cyc:   32362647 now IPC :0.91718: AVG IPC :1.24276: L2-Pf-HR :0.80629: L2-HR :0.80171: (Sim:0h25m43s) 
CPU  2 inst:   42000003 cyc:   32371920 now IPC :0.83424: AVG IPC :1.27426: L2-Pf-HR :0.80396: L2-HR :0.80696: (Sim:0h25m44s) 
CPU  3 inst:   41000003 cyc:   32455123 now IPC :0.93150: AVG IPC :1.23914: L2-Pf-HR :0.82317: L2-HR :0.80974: (Sim:0h25m48s) 
CPU  1 inst:   42000003 cyc:   33166752 now IPC :0.76302: AVG IPC :1.24281: L2-Pf-HR :0.78507: L2-HR :0.78754: (Sim:0h26m20s) 
CPU  0 inst:   42000003 cyc:   33508371 now IPC :0.87281: AVG IPC :1.22973: L2-Pf-HR :0.80411: L2-HR :0.80083: (Sim:0h26m38s) 
CPU  2 inst:   43000003 cyc:   33518600 now IPC :0.87208: AVG IPC :1.26009: L2-Pf-HR :0.80430: L2-HR :0.80733: (Sim:0h26m38s) 
CPU  3 inst:   42000003 cyc:   33646146 now IPC :0.83961: AVG IPC :1.22457: L2-Pf-HR :0.82087: L2-HR :0.80848: (Sim:0h26m46s) 
CPU  1 inst:   43000003 cyc:   34149208 now IPC :1.01786: AVG IPC :1.23615: L2-Pf-HR :0.78646: L2-HR :0.78833: (Sim:0h27m14s) 
CPU  0 inst:   43000003 cyc:   34446323 now IPC :1.06615: AVG IPC :1.22515: L2-Pf-HR :0.80502: L2-HR :0.80197: (Sim:0h27m29s) 
CPU  3 inst:   43000003 cyc:   34501239 now IPC :1.16946: AVG IPC :1.22317: L2-Pf-HR :0.82201: L2-HR :0.80973: (Sim:0h27m32s) 
CPU  2 inst:   44000001 cyc:   34538746 now IPC :0.98025: AVG IPC :1.25158: L2-Pf-HR :0.80507: L2-HR :0.80766: (Sim:0h27m34s) 
CPU  1 inst:   44000001 cyc:   35215608 now IPC :0.93773: AVG IPC :1.22685: L2-Pf-HR :0.78736: L2-HR :0.78844: (Sim:0h28m10s) 
CPU  0 inst:   44000001 cyc:   35390503 now IPC :1.05912: AVG IPC :1.22059: L2-Pf-HR :0.80603: L2-HR :0.80289: (Sim:0h28m19s) 
CPU  3 inst:   44000001 cyc:   35451991 now IPC :1.05180: AVG IPC :1.21844: L2-Pf-HR :0.82329: L2-HR :0.81074: (Sim:0h28m23s) 
CPU  2 inst:   45000001 cyc:   35586615 now IPC :0.95432: AVG IPC :1.24258: L2-Pf-HR :0.80613: L2-HR :0.80811: (Sim:0h28m30s) 
CPU  1 inst:   45000001 cyc:   36294417 now IPC :0.92695: AVG IPC :1.21769: L2-Pf-HR :0.78700: L2-HR :0.78823: (Sim:0h29m4s) 
CPU  0 inst:   45000001 cyc:   36407468 now IPC :0.98332: AVG IPC :1.21378: L2-Pf-HR :0.80555: L2-HR :0.80271: (Sim:0h29m10s) 
CPU  3 inst:   45000001 cyc:   36511643 now IPC :0.94371: AVG IPC :1.21025: L2-Pf-HR :0.82286: L2-HR :0.81065: (Sim:0h29m15s) 
CPU  2 inst:   46000002 cyc:   36771273 now IPC :0.84413: AVG IPC :1.22939: L2-Pf-HR :0.80440: L2-HR :0.80708: (Sim:0h29m27s) 
CPU  1 inst:   46000001 cyc:   37585128 now IPC :0.77477: AVG IPC :1.20207: L2-Pf-HR :0.78561: L2-HR :0.78743: (Sim:0h30m2s) 
CPU  0 inst:   46000002 cyc:   37718760 now IPC :0.76261: AVG IPC :1.19767: L2-Pf-HR :0.80389: L2-HR :0.80172: (Sim:0h30m9s) 
CPU  3 inst:   46000002 cyc:   37786412 now IPC :0.78446: AVG IPC :1.19550: L2-Pf-HR :0.82074: L2-HR :0.80944: (Sim:0h30m13s) 
CPU  2 inst:   47000000 cyc:   37980627 now IPC :0.82689: AVG IPC :1.21623: L2-Pf-HR :0.80532: L2-HR :0.80747: (Sim:0h30m23s) 
CPU  1 inst:   47000000 cyc:   38570749 now IPC :1.01459: AVG IPC :1.19715: L2-Pf-HR :0.78701: L2-HR :0.78788: (Sim:0h30m52s) 
CPU  0 inst:   47000000 cyc:   38800040 now IPC :0.92483: AVG IPC :1.18987: L2-Pf-HR :0.80478: L2-HR :0.80207: (Sim:0h31m5s) 
CPU  3 inst:   47000000 cyc:   38826885 now IPC :0.96110: AVG IPC :1.18906: L2-Pf-HR :0.82179: L2-HR :0.81014: (Sim:0h31m6s) 
CPU  2 inst:   48000002 cyc:   38945907 now IPC :1.03597: AVG IPC :1.21165: L2-Pf-HR :0.80558: L2-HR :0.80771: (Sim:0h31m13s) 
CPU  1 inst:   48000002 cyc:   39560395 now IPC :1.01046: AVG IPC :1.19237: L2-Pf-HR :0.78805: L2-HR :0.78812: (Sim:0h31m44s) 
CPU  0 inst:   48000002 cyc:   39783694 now IPC :1.01662: AVG IPC :1.18548: L2-Pf-HR :0.80591: L2-HR :0.80293: (Sim:0h31m57s) 
CPU  3 inst:   48000002 cyc:   39851036 now IPC :0.97642: AVG IPC :1.18345: L2-Pf-HR :0.82294: L2-HR :0.81075: (Sim:0h32m0s) 
CPU  2 inst:   49000004 cyc:   39967193 now IPC :0.97916: AVG IPC :1.20556: L2-Pf-HR :0.80620: L2-HR :0.80804: (Sim:0h32m6s) 
CPU  1 inst:   49000004 cyc:   40573080 now IPC :0.98748: AVG IPC :1.18713: L2-Pf-HR :0.78826: L2-HR :0.78805: (Sim:0h32m35s) 
CPU  0 inst:   49000004 cyc:   40890447 now IPC :0.90355: AVG IPC :1.17766: L2-Pf-HR :0.80606: L2-HR :0.80292: (Sim:0h32m46s) 
CPU  3 inst:   49000004 cyc:   40929473 now IPC :0.92727: AVG IPC :1.17654: L2-Pf-HR :0.82276: L2-HR :0.81055: (Sim:0h32m47s) 
CPU  2 inst:   50000001 cyc:   47422481 now IPC :0.13413: AVG IPC :1.03356: L2-Pf-HR :0.78164: L2-HR :0.78196: (Sim:0h35m45s) 
CPU  1 inst:   50000004 cyc:   51062303 now IPC :0.09534: AVG IPC :0.95845: L2-Pf-HR :0.76028: L2-HR :0.76111: (Sim:0h37m33s) 
CPU  0 inst:   50000001 cyc:   52652262 now IPC :0.08502: AVG IPC :0.92894: L2-Pf-HR :0.78045: L2-HR :0.77616: (Sim:0h38m21s) 
CPU  3 inst:   50000001 cyc:   52788388 now IPC :0.08432: AVG IPC :0.92652: L2-Pf-HR :0.79810: L2-HR :0.78390: (Sim:0h38m25s) 
CPU  2 inst:   51000003 cyc:   65638718 now IPC :0.05490: AVG IPC :0.75783: L2-Pf-HR :0.74087: L2-HR :0.74635: (Sim:0h44m50s) 
CPU  1 inst:   51000003 cyc:   69851007 now IPC :0.05322: AVG IPC :0.71149: L2-Pf-HR :0.71479: L2-HR :0.72610: (Sim:0h46m13s) 
CPU  0 inst:   51000003 cyc:   71133608 now IPC :0.05411: AVG IPC :0.69847: L2-Pf-HR :0.73800: L2-HR :0.74062: (Sim:0h46m31s) 
CPU  3 inst:   51000000 cyc:   71225750 now IPC :0.05424: AVG IPC :0.69757: L2-Pf-HR :0.75685: L2-HR :0.74825: (Sim:0h46m32s) 
CPU  2 inst:   52000000 cyc:   75800776 now IPC :0.09840: AVG IPC :0.66827: L2-Pf-HR :0.72514: L2-HR :0.73527: (Sim:0h47m39s) 
CPU  1 inst:   52000000 cyc:   76992187 now IPC :0.14003: AVG IPC :0.65780: L2-Pf-HR :0.69699: L2-HR :0.71523: (Sim:0h47m59s) 
CPU  3 inst:   52000000 cyc:   77303747 now IPC :0.16453: AVG IPC :0.65512: L2-Pf-HR :0.74048: L2-HR :0.73718: (Sim:0h48m4s) 
CPU  0 inst:   52000000 cyc:   77428500 now IPC :0.15886: AVG IPC :0.65404: L2-Pf-HR :0.72134: L2-HR :0.72967: (Sim:0h48m6s) 
CPU  2 inst:   53000000 cyc:   79156367 now IPC :0.29801: AVG IPC :0.65238: L2-Pf-HR :0.71430: L2-HR :0.72957: (Sim:0h48m35s) 
CPU  1 inst:   53000000 cyc:   80352132 now IPC :0.29762: AVG IPC :0.64256: L2-Pf-HR :0.68487: L2-HR :0.70930: (Sim:0h48m55s) 
CPU  3 inst:   53000000 cyc:   80670003 now IPC :0.29707: AVG IPC :0.63999: L2-Pf-HR :0.72969: L2-HR :0.73141: (Sim:0h49m1s) 
CPU  0 inst:   53000000 cyc:   80799883 now IPC :0.29661: AVG IPC :0.63894: L2-Pf-HR :0.71010: L2-HR :0.72383: (Sim:0h49m3s) 
CPU  2 inst:   54000000 cyc:   82594984 now IPC :0.29081: AVG IPC :0.63714: L2-Pf-HR :0.70392: L2-HR :0.72405: (Sim:0h49m33s) 
CPU  1 inst:   54000000 cyc:   83767924 now IPC :0.29276: AVG IPC :0.62812: L2-Pf-HR :0.67313: L2-HR :0.70367: (Sim:0h49m53s) 
CPU  3 inst:   54000000 cyc:   84064695 now IPC :0.29458: AVG IPC :0.62588: L2-Pf-HR :0.71917: L2-HR :0.72584: (Sim:0h49m58s) 
CPU  0 inst:   54000000 cyc:   84218460 now IPC :0.29252: AVG IPC :0.62471: L2-Pf-HR :0.69946: L2-HR :0.71839: (Sim:0h50m0s) 
CPU  2 inst:   55000001 cyc:   86019689 now IPC :0.29200: AVG IPC :0.62324: L2-Pf-HR :0.69394: L2-HR :0.71878: (Sim:0h50m30s) 
CPU  1 inst:   55000001 cyc:   87158392 now IPC :0.29494: AVG IPC :0.61501: L2-Pf-HR :0.66178: L2-HR :0.69816: (Sim:0h50m49s) 
CPU  3 inst:   55000001 cyc:   87496505 now IPC :0.29139: AVG IPC :0.61261: L2-Pf-HR :0.70901: L2-HR :0.72054: (Sim:0h50m55s) 
CPU  0 inst:   55000001 cyc:   87635712 now IPC :0.29263: AVG IPC :0.61162: L2-Pf-HR :0.68904: L2-HR :0.71301: (Sim:0h50m57s) 
CPU  2 inst:   56000000 cyc:   89458710 now IPC :0.29078: AVG IPC :0.61032: L2-Pf-HR :0.68424: L2-HR :0.71361: (Sim:0h51m28s) 
CPU  1 inst:   56000002 cyc:   90593970 now IPC :0.29107: AVG IPC :0.60259: L2-Pf-HR :0.65115: L2-HR :0.69289: (Sim:0h51m47s) 
CPU  3 inst:   56000000 cyc:   90917943 now IPC :0.29227: AVG IPC :0.60043: L2-Pf-HR :0.69932: L2-HR :0.71540: (Sim:0h51m53s) 
CPU  0 inst:   56000002 cyc:   91058436 now IPC :0.29217: AVG IPC :0.59948: L2-Pf-HR :0.67896: L2-HR :0.70781: (Sim:0h51m55s) 
CPU  2 inst:   57000000 cyc:   92873985 now IPC :0.29280: AVG IPC :0.59852: L2-Pf-HR :0.67487: L2-HR :0.70861: (Sim:0h52m26s) 
CPU  1 inst:   57000000 cyc:   93991891 now IPC :0.29430: AVG IPC :0.59133: L2-Pf-HR :0.64087: L2-HR :0.68783: (Sim:0h52m44s) 
CPU  3 inst:   57000000 cyc:   94303023 now IPC :0.29541: AVG IPC :0.58936: L2-Pf-HR :0.68988: L2-HR :0.71037: (Sim:0h52m50s) 
CPU  0 inst:   57000000 cyc:   94423511 now IPC :0.29717: AVG IPC :0.58859: L2-Pf-HR :0.66930: L2-HR :0.70280: (Sim:0h52m52s) 
CPU  2 inst:   58000000 cyc:   96252162 now IPC :0.29602: AVG IPC :0.58779: L2-Pf-HR :0.66581: L2-HR :0.70371: (Sim:0h53m22s) 
CPU  1 inst:   58000000 cyc:   97374224 now IPC :0.29565: AVG IPC :0.58096: L2-Pf-HR :0.63099: L2-HR :0.68294: (Sim:0h53m42s) 
CPU  3 inst:   58000000 cyc:   97667856 now IPC :0.29719: AVG IPC :0.57919: L2-Pf-HR :0.68071: L2-HR :0.70550: (Sim:0h53m47s) 
CPU  0 inst:   58000000 cyc:   97811861 now IPC :0.29513: AVG IPC :0.57832: L2-Pf-HR :0.65987: L2-HR :0.69795: (Sim:0h53m49s) 
CPU  2 inst:   59000000 cyc:   99602056 now IPC :0.29852: AVG IPC :0.57797: L2-Pf-HR :0.65691: L2-HR :0.69895: (Sim:0h54m20s) 
CPU  1 inst:   59000000 cyc:  100693754 now IPC :0.30125: AVG IPC :0.57164: L2-Pf-HR :0.62136: L2-HR :0.67812: (Sim:0h54m38s) 
CPU  3 inst:   59000000 cyc:  100988478 now IPC :0.30115: AVG IPC :0.56996: L2-Pf-HR :0.67171: L2-HR :0.70076: (Sim:0h54m43s) 
CPU  0 inst:   59000000 cyc:  101131888 now IPC :0.30120: AVG IPC :0.56914: L2-Pf-HR :0.65066: L2-HR :0.69312: (Sim:0h54m46s) 
CPU  2 inst:   60000000 cyc:  102877898 now IPC :0.30527: AVG IPC :0.56920: L2-Pf-HR :0.64820: L2-HR :0.69430: (Sim:0h55m30s) 
CPU  1 inst:   60000000 cyc:  103952182 now IPC :0.30690: AVG IPC :0.56327: L2-Pf-HR :0.61188: L2-HR :0.67341: (Sim:0h56m2s) 
CPU  3 inst:   60000000 cyc:  104244466 now IPC :0.30713: AVG IPC :0.56167: L2-Pf-HR :0.66291: L2-HR :0.69608: (Sim:0h56m10s) 
CPU  0 inst:   60000000 cyc:  104370031 now IPC :0.30882: AVG IPC :0.56098: L2-Pf-HR :0.64166: L2-HR :0.68834: (Sim:0h56m14s) 
CPU  2 inst:   61000004 cyc:  106089790 now IPC :0.31134: AVG IPC :0.56132: L2-Pf-HR :0.63966: L2-HR :0.68978: (Sim:0h57m6s) 
CPU  1 inst:   61000004 cyc:  107150083 now IPC :0.31271: AVG IPC :0.55572: L2-Pf-HR :0.60263: L2-HR :0.66882: (Sim:0h57m37s) 
CPU  3 inst:   61000004 cyc:  107445611 now IPC :0.31239: AVG IPC :0.55418: L2-Pf-HR :0.65429: L2-HR :0.69154: (Sim:0h57m46s) 
CPU  0 inst:   61000004 cyc:  107579244 now IPC :0.31160: AVG IPC :0.55347: L2-Pf-HR :0.63287: L2-HR :0.68392: (Sim:0h57m50s) 
CPU  2 inst:   62000000 cyc:  109330441 now IPC :0.30858: AVG IPC :0.55376: L2-Pf-HR :0.63141: L2-HR :0.68533: (Sim:0h58m24s) 
CPU  1 inst:   62000000 cyc:  110392352 now IPC :0.30842: AVG IPC :0.54839: L2-Pf-HR :0.59379: L2-HR :0.66442: (Sim:0h58m42s) 
CPU  3 inst:   62000000 cyc:  110660527 now IPC :0.31105: AVG IPC :0.54705: L2-Pf-HR :0.64592: L2-HR :0.68709: (Sim:0h58m46s) 
CPU  0 inst:   62000000 cyc:  110804723 now IPC :0.31003: AVG IPC :0.54632: L2-Pf-HR :0.62434: L2-HR :0.67943: (Sim:0h58m49s) 
CPU  2 inst:   63000000 cyc:  112509147 now IPC :0.31459: AVG IPC :0.54694: L2-Pf-HR :0.62328: L2-HR :0.68100: (Sim:0h59m18s) 
CPU  1 inst:   63000000 cyc:  113570691 now IPC :0.31463: AVG IPC :0.54179: L2-Pf-HR :0.58510: L2-HR :0.66007: (Sim:0h59m36s) 
CPU  3 inst:   63000000 cyc:  113836174 now IPC :0.31490: AVG IPC :0.54052: L2-Pf-HR :0.63769: L2-HR :0.68274: (Sim:0h59m41s) 
CPU  0 inst:   63000000 cyc:  113982715 now IPC :0.31466: AVG IPC :0.53981: L2-Pf-HR :0.61593: L2-HR :0.67510: (Sim:0h59m43s) 
CPU  2 inst:   64000005 cyc:  115687458 now IPC :0.31463: AVG IPC :0.54051: L2-Pf-HR :0.61530: L2-HR :0.67666: (Sim:1h0m12s) 
CPU  1 inst:   64000005 cyc:  116755941 now IPC :0.31395: AVG IPC :0.53552: L2-Pf-HR :0.57667: L2-HR :0.65582: (Sim:1h0m30s) 
CPU  3 inst:   64000005 cyc:  117025013 now IPC :0.31360: AVG IPC :0.53428: L2-Pf-HR :0.62972: L2-HR :0.67853: (Sim:1h0m35s) 
CPU  0 inst:   64000005 cyc:  117168375 now IPC :0.31391: AVG IPC :0.53362: L2-Pf-HR :0.60777: L2-HR :0.67086: (Sim:1h0m38s) 
CPU  2 inst:   65000002 cyc:  118891241 now IPC :0.31213: AVG IPC :0.53430: L2-Pf-HR :0.60762: L2-HR :0.67264: (Sim:1h1m7s) 
CPU  1 inst:   65000002 cyc:  119961159 now IPC :0.31199: AVG IPC :0.52950: L2-Pf-HR :0.56850: L2-HR :0.65172: (Sim:1h1m25s) 
CPU  3 inst:   65000002 cyc:  120240706 now IPC :0.31097: AVG IPC :0.52826: L2-Pf-HR :0.62199: L2-HR :0.67441: (Sim:1h1m30s) 
CPU  0 inst:   65000002 cyc:  120373810 now IPC :0.31197: AVG IPC :0.52766: L2-Pf-HR :0.59990: L2-HR :0.66674: (Sim:1h1m32s) 
CPU  2 inst:   66000000 cyc:  122100858 now IPC :0.31156: AVG IPC :0.52840: L2-Pf-HR :0.60015: L2-HR :0.66859: (Sim:1h2m1s) 
CPU  1 inst:   66000000 cyc:  123152841 now IPC :0.31331: AVG IPC :0.52385: L2-Pf-HR :0.56057: L2-HR :0.64766: (Sim:1h2m19s) 
CPU  3 inst:   66000000 cyc:  123434575 now IPC :0.31310: AVG IPC :0.52265: L2-Pf-HR :0.61440: L2-HR :0.67030: (Sim:1h2m24s) 
CPU  0 inst:   66000000 cyc:  123565131 now IPC :0.31335: AVG IPC :0.52209: L2-Pf-HR :0.59223: L2-HR :0.66264: (Sim:1h2m26s) 
CPU  2 inst:   67000000 cyc:  125275665 now IPC :0.31498: AVG IPC :0.52295: L2-Pf-HR :0.59277: L2-HR :0.66467: (Sim:1h2m55s) 
CPU  1 inst:   67000000 cyc:  126337538 now IPC :0.31400: AVG IPC :0.51852: L2-Pf-HR :0.55287: L2-HR :0.64376: (Sim:1h3m13s) 
CPU  3 inst:   67000000 cyc:  126627204 now IPC :0.31322: AVG IPC :0.51733: L2-Pf-HR :0.60703: L2-HR :0.66645: (Sim:1h3m20s) 
CPU  0 inst:   67000000 cyc:  126753435 now IPC :0.31365: AVG IPC :0.51680: L2-Pf-HR :0.58472: L2-HR :0.65878: (Sim:1h3m22s) 
CPU  2 inst:   68000000 cyc:  128470663 now IPC :0.31299: AVG IPC :0.51769: L2-Pf-HR :0.58566: L2-HR :0.66084: (Sim:1h3m54s) 
CPU  1 inst:   68000000 cyc:  129531825 now IPC :0.31306: AVG IPC :0.51342: L2-Pf-HR :0.54539: L2-HR :0.63997: (Sim:1h4m14s) 
CPU  3 inst:   68000000 cyc:  129833008 now IPC :0.31193: AVG IPC :0.51222: L2-Pf-HR :0.59988: L2-HR :0.66263: (Sim:1h4m24s) 
CPU  0 inst:   68000000 cyc:  129965457 now IPC :0.31133: AVG IPC :0.51168: L2-Pf-HR :0.57750: L2-HR :0.65494: (Sim:1h4m28s) 
CPU  2 inst:   69000004 cyc:  131669633 now IPC :0.31260: AVG IPC :0.51267: L2-Pf-HR :0.57871: L2-HR :0.65709: (Sim:1h5m17s) 
CPU  1 inst:   69000004 cyc:  132716744 now IPC :0.31398: AVG IPC :0.50860: L2-Pf-HR :0.53810: L2-HR :0.63622: (Sim:1h5m43s) 
CPU  3 inst:   69000004 cyc:  133014593 now IPC :0.31431: AVG IPC :0.50745: L2-Pf-HR :0.59286: L2-HR :0.65881: (Sim:1h5m52s) 
CPU  0 inst:   69000004 cyc:  133148363 now IPC :0.31418: AVG IPC :0.50693: L2-Pf-HR :0.57038: L2-HR :0.65120: (Sim:1h5m56s) 
CPU  2 inst:   70000000 cyc:  134855201 now IPC :0.31391: AVG IPC :0.50794: L2-Pf-HR :0.57190: L2-HR :0.65344: (Sim:1h6m47s) 
CPU  1 inst:   70000000 cyc:  135909214 now IPC :0.31324: AVG IPC :0.50397: L2-Pf-HR :0.53100: L2-HR :0.63261: (Sim:1h7m19s) 
CPU  3 inst:   70000000 cyc:  136221709 now IPC :0.31181: AVG IPC :0.50281: L2-Pf-HR :0.58601: L2-HR :0.65516: (Sim:1h7m28s) 
CPU  0 inst:   70000000 cyc:  136349222 now IPC :0.31241: AVG IPC :0.50233: L2-Pf-HR :0.56344: L2-HR :0.64750: (Sim:1h7m32s) 
CPU  2 inst:   71000000 cyc:  138064679 now IPC :0.31158: AVG IPC :0.50334: L2-Pf-HR :0.56528: L2-HR :0.64982: (Sim:1h8m23s) 
CPU  1 inst:   71000000 cyc:  139101370 now IPC :0.31327: AVG IPC :0.49957: L2-Pf-HR :0.52411: L2-HR :0.62909: (Sim:1h8m54s) 
CPU  3 inst:   71000000 cyc:  139418357 now IPC :0.31283: AVG IPC :0.49842: L2-Pf-HR :0.57934: L2-HR :0.65163: (Sim:1h9m4s) 
CPU  0 inst:   71000000 cyc:  139541646 now IPC :0.31324: AVG IPC :0.49797: L2-Pf-HR :0.55669: L2-HR :0.64401: (Sim:1h9m7s) 
CPU  2 inst:   72000000 cyc:  141288855 now IPC :0.31016: AVG IPC :0.49890: L2-Pf-HR :0.55890: L2-HR :0.64636: (Sim:1h10m0s) 
CPU  1 inst:   72000000 cyc:  142294455 now IPC :0.31318: AVG IPC :0.49535: L2-Pf-HR :0.51743: L2-HR :0.62562: (Sim:1h10m30s) 
CPU  3 inst:   72000000 cyc:  142620489 now IPC :0.31229: AVG IPC :0.49422: L2-Pf-HR :0.57279: L2-HR :0.64810: (Sim:1h10m40s) 
CPU  0 inst:   72000000 cyc:  142735819 now IPC :0.31307: AVG IPC :0.49381: L2-Pf-HR :0.55015: L2-HR :0.64046: (Sim:1h10m44s) 
CPU  2 inst:   73000000 cyc:  144475591 now IPC :0.31380: AVG IPC :0.49479: L2-Pf-HR :0.55258: L2-HR :0.64299: (Sim:1h11m36s) 
CPU  1 inst:   73000000 cyc:  145477584 now IPC :0.31416: AVG IPC :0.49136: L2-Pf-HR :0.51092: L2-HR :0.62225: (Sim:1h12m6s) 
CPU  3 inst:   73000000 cyc:  145826027 now IPC :0.31196: AVG IPC :0.49018: L2-Pf-HR :0.56642: L2-HR :0.64469: (Sim:1h12m16s) 
CPU  0 inst:   73000000 cyc:  145928968 now IPC :0.31317: AVG IPC :0.48983: L2-Pf-HR :0.54373: L2-HR :0.63708: (Sim:1h12m20s) 
CPU  2 inst:   74000001 cyc:  147661135 now IPC :0.31392: AVG IPC :0.49086: L2-Pf-HR :0.54640: L2-HR :0.63959: (Sim:1h13m12s) 
CPU  1 inst:   74000001 cyc:  148675786 now IPC :0.31268: AVG IPC :0.48749: L2-Pf-HR :0.50460: L2-HR :0.61901: (Sim:1h13m42s) 
CPU  3 inst:   74000001 cyc:  149019037 now IPC :0.31318: AVG IPC :0.48636: L2-Pf-HR :0.56021: L2-HR :0.64138: (Sim:1h13m53s) 
CPU  0 inst:   74000001 cyc:  149116637 now IPC :0.31371: AVG IPC :0.48604: L2-Pf-HR :0.53747: L2-HR :0.63380: (Sim:1h13m56s) 
CPU  2 inst:   75000002 cyc:  150854020 now IPC :0.31320: AVG IPC :0.48708: L2-Pf-HR :0.54036: L2-HR :0.63637: (Sim:1h14m48s) 
CPU  1 inst:   75000002 cyc:  151868015 now IPC :0.31326: AVG IPC :0.48381: L2-Pf-HR :0.49841: L2-HR :0.61578: (Sim:1h15m18s) 
CPU  3 inst:   75000002 cyc:  152219952 now IPC :0.31241: AVG IPC :0.48268: L2-Pf-HR :0.55412: L2-HR :0.63807: (Sim:1h15m28s) 
CPU  0 inst:   75000002 cyc:  152317499 now IPC :0.31242: AVG IPC :0.48236: L2-Pf-HR :0.53135: L2-HR :0.63045: (Sim:1h15m31s) 
CPU  2 inst:   76000000 cyc:  152778510 now IPC :0.51962: AVG IPC :0.48749: L2-Pf-HR :0.53936: L2-HR :0.63499: (Sim:1h15m50s) 
CPU  2 inst:   77000004 cyc:  153513640 now IPC :1.36031: AVG IPC :0.49170: L2-Pf-HR :0.54278: L2-HR :0.63666: (Sim:1h16m21s) 
CPU  1 inst:   76000000 cyc:  153893685 now IPC :0.49366: AVG IPC :0.48394: L2-Pf-HR :0.49833: L2-HR :0.61471: (Sim:1h16m39s) 
CPU  3 inst:   76000000 cyc:  154295510 now IPC :0.48180: AVG IPC :0.48267: L2-Pf-HR :0.55359: L2-HR :0.63713: (Sim:1h17m8s) 
CPU  0 inst:   76000000 cyc:  154387983 now IPC :0.48298: AVG IPC :0.48237: L2-Pf-HR :0.53120: L2-HR :0.62957: (Sim:1h17m14s) 
CPU  2 inst:   78000004 cyc:  154398238 now IPC :1.13046: AVG IPC :0.49538: L2-Pf-HR :0.54611: L2-HR :0.63807: (Sim:1h17m15s) 
CPU  1 inst:   77000002 cyc:  154659704 now IPC :1.30545: AVG IPC :0.48803: L2-Pf-HR :0.50285: L2-HR :0.61648: (Sim:1h17m38s) 
CPU  3 inst:   77000002 cyc:  155032523 now IPC :1.35683: AVG IPC :0.48685: L2-Pf-HR :0.55704: L2-HR :0.63896: (Sim:1h18m7s) 
CPU  2 inst:   79000000 cyc:  155052535 now IPC :1.52835: AVG IPC :0.49977: L2-Pf-HR :0.55037: L2-HR :0.64009: (Sim:1h18m8s) 
CPU  0 inst:   77000002 cyc:  155078223 now IPC :1.44877: AVG IPC :0.48670: L2-Pf-HR :0.53491: L2-HR :0.63123: (Sim:1h18m10s) 
CPU  1 inst:   78000004 cyc:  155517271 now IPC :1.16609: AVG IPC :0.49180: L2-Pf-HR :0.50736: L2-HR :0.61825: (Sim:1h18m41s) 
CPU  2 inst:   80000000 cyc:  155835754 now IPC :1.27678: AVG IPC :0.50370: L2-Pf-HR :0.55386: L2-HR :0.64197: (Sim:1h19m4s) 
CPU  3 inst:   78000004 cyc:  155894862 now IPC :1.15964: AVG IPC :0.49060: L2-Pf-HR :0.56029: L2-HR :0.64040: (Sim:1h19m9s) 
CPU  0 inst:   78000004 cyc:  155955646 now IPC :1.13970: AVG IPC :0.49040: L2-Pf-HR :0.53934: L2-HR :0.63334: (Sim:1h19m14s) 
CPU  1 inst:   79000000 cyc:  156215706 now IPC :1.43177: AVG IPC :0.49602: L2-Pf-HR :0.51322: L2-HR :0.62093: (Sim:1h19m36s) 
CPU  3 inst:   79000000 cyc:  156528027 now IPC :1.57936: AVG IPC :0.49503: L2-Pf-HR :0.56463: L2-HR :0.64259: (Sim:1h20m1s) 
CPU  2 inst:   81000000 cyc:  156599242 now IPC :1.30978: AVG IPC :0.50765: L2-Pf-HR :0.55690: L2-HR :0.64346: (Sim:1h20m5s) 
CPU  0 inst:   79000000 cyc:  156665562 now IPC :1.40861: AVG IPC :0.49459: L2-Pf-HR :0.54484: L2-HR :0.63649: (Sim:1h20m11s) 
CPU  1 inst:   80000005 cyc:  157154259 now IPC :1.06548: AVG IPC :0.49945: L2-Pf-HR :0.51736: L2-HR :0.62302: (Sim:1h20m40s) 
CPU  3 inst:   80000000 cyc:  157580927 now IPC :0.94976: AVG IPC :0.49809: L2-Pf-HR :0.56706: L2-HR :0.64393: (Sim:1h21m7s) 
CPU  2 inst:   82000003 cyc:  157605174 now IPC :0.99411: AVG IPC :0.51077: L2-Pf-HR :0.56075: L2-HR :0.64570: (Sim:1h21m9s) 
CPU  0 inst:   80000000 cyc:  157765915 now IPC :0.90880: AVG IPC :0.49749: L2-Pf-HR :0.54848: L2-HR :0.63865: (Sim:1h21m21s) 
CPU  1 inst:   81000000 cyc:  157955630 now IPC :1.24786: AVG IPC :0.50327: L2-Pf-HR :0.52126: L2-HR :0.62461: (Sim:1h21m37s) 
CPU  2 inst:   83000003 cyc:  158243849 now IPC :1.56574: AVG IPC :0.51506: L2-Pf-HR :0.56479: L2-HR :0.64787: (Sim:1h22m2s) 
CPU  3 inst:   81000000 cyc:  158258433 now IPC :1.47600: AVG IPC :0.50230: L2-Pf-HR :0.57001: L2-HR :0.64546: (Sim:1h22m3s) 
CPU  0 inst:   81000000 cyc:  158461789 now IPC :1.43704: AVG IPC :0.50164: L2-Pf-HR :0.55122: L2-HR :0.63973: (Sim:1h22m18s) 
CPU  1 inst:   82000001 cyc:  158684092 now IPC :1.37276: AVG IPC :0.50728: L2-Pf-HR :0.52526: L2-HR :0.62657: (Sim:1h22m38s) 
CPU  2 inst:   84000004 cyc:  159060056 now IPC :1.22518: AVG IPC :0.51873: L2-Pf-HR :0.56783: L2-HR :0.64945: (Sim:1h23m2s) 
CPU  3 inst:   82000001 cyc:  159060059 now IPC :1.24747: AVG IPC :0.50608: L2-Pf-HR :0.57252: L2-HR :0.64697: (Sim:1h23m2s) 
CPU  0 inst:   82000001 cyc:  159269679 now IPC :1.23779: AVG IPC :0.50540: L2-Pf-HR :0.55442: L2-HR :0.64124: (Sim:1h23m19s) 
CPU  1 inst:   83000003 cyc:  159441925 now IPC :1.31955: AVG IPC :0.51117: L2-Pf-HR :0.53033: L2-HR :0.62893: (Sim:1h23m33s) 
CPU  3 inst:   83000003 cyc:  159749696 now IPC :1.45004: AVG IPC :0.51018: L2-Pf-HR :0.57645: L2-HR :0.64914: (Sim:1h23m56s) 
CPU  2 inst:   85000005 cyc:  159824448 now IPC :1.30823: AVG IPC :0.52252: L2-Pf-HR :0.57065: L2-HR :0.65086: (Sim:1h24m0s) 
CPU  0 inst:   83000003 cyc:  160057583 now IPC :1.26919: AVG IPC :0.50918: L2-Pf-HR :0.55869: L2-HR :0.64348: (Sim:1h24m18s) 
CPU  1 inst:   84000004 cyc:  160332072 now IPC :1.12341: AVG IPC :0.51459: L2-Pf-HR :0.53395: L2-HR :0.63075: (Sim:1h24m36s) 
CPU  3 inst:   84000004 cyc:  160602918 now IPC :1.17203: AVG IPC :0.51372: L2-Pf-HR :0.57893: L2-HR :0.65070: (Sim:1h24m54s) 
CPU  2 inst:   86000003 cyc:  160732865 now IPC :1.10081: AVG IPC :0.52581: L2-Pf-HR :0.57323: L2-HR :0.65233: (Sim:1h25m4s) 
CPU  0 inst:   84000004 cyc:  160967915 now IPC :1.09850: AVG IPC :0.51254: L2-Pf-HR :0.56207: L2-HR :0.64542: (Sim:1h25m21s) 
CPU  1 inst:   85000005 cyc:  161166226 now IPC :1.19882: AVG IPC :0.51815: L2-Pf-HR :0.53741: L2-HR :0.63229: (Sim:1h25m37s) 
CPU  3 inst:   85000005 cyc:  161316216 now IPC :1.40194: AVG IPC :0.51767: L2-Pf-HR :0.58128: L2-HR :0.65201: (Sim:1h25m50s) 
CPU  2 inst:   87000003 cyc:  161417108 now IPC :1.46147: AVG IPC :0.52980: L2-Pf-HR :0.57674: L2-HR :0.65417: (Sim:1h25m58s) 
CPU  0 inst:   85000001 cyc:  161636948 now IPC :1.49469: AVG IPC :0.51663: L2-Pf-HR :0.56503: L2-HR :0.64695: (Sim:1h26m17s) 
CPU  1 inst:   86000003 cyc:  161861534 now IPC :1.43821: AVG IPC :0.52213: L2-Pf-HR :0.54080: L2-HR :0.63394: (Sim:1h26m35s) 
CPU  3 inst:   86000005 cyc:  162047089 now IPC :1.36823: AVG IPC :0.52153: L2-Pf-HR :0.58371: L2-HR :0.65349: (Sim:1h26m49s) 
CPU  2 inst:   88000001 cyc:  162184278 now IPC :1.30349: AVG IPC :0.53349: L2-Pf-HR :0.57950: L2-HR :0.65568: (Sim:1h26m58s) 
CPU  0 inst:   86000005 cyc:  162400718 now IPC :1.30930: AVG IPC :0.52038: L2-Pf-HR :0.56797: L2-HR :0.64866: (Sim:1h27m16s) 
CPU  1 inst:   87000003 cyc:  162564065 now IPC :1.42342: AVG IPC :0.52605: L2-Pf-HR :0.54517: L2-HR :0.63616: (Sim:1h27m30s) 
CPU  3 inst:   87000003 cyc:  162723183 now IPC :1.47908: AVG IPC :0.52553: L2-Pf-HR :0.58694: L2-HR :0.65533: (Sim:1h27m44s) 
CPU  2 inst:   89000002 cyc:  162953869 now IPC :1.29939: AVG IPC :0.53712: L2-Pf-HR :0.58171: L2-HR :0.65684: (Sim:1h28m0s) 
CPU  0 inst:   87000003 cyc:  163028183 now IPC :1.59371: AVG IPC :0.52453: L2-Pf-HR :0.57157: L2-HR :0.65061: (Sim:1h28m7s) 
CPU  1 inst:   88000001 cyc:  163384354 now IPC :1.21908: AVG IPC :0.52955: L2-Pf-HR :0.54868: L2-HR :0.63797: (Sim:1h28m33s) 
CPU  3 inst:   88000001 cyc:  163536394 now IPC :1.22969: AVG IPC :0.52905: L2-Pf-HR :0.58942: L2-HR :0.65682: (Sim:1h28m43s) 
CPU  2 inst:   90000001 cyc:  163771990 now IPC :1.22231: AVG IPC :0.54057: L2-Pf-HR :0.58399: L2-HR :0.65803: (Sim:1h29m1s) 
CPU  0 inst:   88000001 cyc:  163813783 now IPC :1.27291: AVG IPC :0.52815: L2-Pf-HR :0.57469: L2-HR :0.65230: (Sim:1h29m3s) 
CPU  1 inst:   89000002 cyc:  164287082 now IPC :1.10775: AVG IPC :0.53274: L2-Pf-HR :0.55168: L2-HR :0.63940: (Sim:1h29m35s) 
CPU  3 inst:   89000002 cyc:  164493361 now IPC :1.04497: AVG IPC :0.53207: L2-Pf-HR :0.59142: L2-HR :0.65788: (Sim:1h29m51s) 
CPU  2 inst:   91000002 cyc:  164544855 now IPC :1.29389: AVG IPC :0.54413: L2-Pf-HR :0.58674: L2-HR :0.65963: (Sim:1h29m56s) 
CPU  0 inst:   89000002 cyc:  164681605 now IPC :1.15231: AVG IPC :0.53145: L2-Pf-HR :0.57724: L2-HR :0.65372: (Sim:1h30m5s) 
CPU  1 inst:   90000001 cyc:  165018126 now IPC :1.36791: AVG IPC :0.53647: L2-Pf-HR :0.55460: L2-HR :0.64089: (Sim:1h30m33s) 
CPU  3 inst:   90000002 cyc:  165233309 now IPC :1.35145: AVG IPC :0.53576: L2-Pf-HR :0.59356: L2-HR :0.65904: (Sim:1h30m47s) 
CPU  2 inst:   92000004 cyc:  165263240 now IPC :1.39201: AVG IPC :0.54784: L2-Pf-HR :0.58961: L2-HR :0.66127: (Sim:1h30m48s) 
CPU  0 inst:   90000001 cyc:  165512733 now IPC :1.20318: AVG IPC :0.53485: L2-Pf-HR :0.57972: L2-HR :0.65510: (Sim:1h31m6s) 
CPU  1 inst:   91000004 cyc:  165889747 now IPC :1.14729: AVG IPC :0.53969: L2-Pf-HR :0.55805: L2-HR :0.64260: (Sim:1h31m37s) 
CPU  2 inst:   93000000 cyc:  166016775 now IPC :1.32707: AVG IPC :0.55139: L2-Pf-HR :0.59161: L2-HR :0.66244: (Sim:1h31m46s) 
CPU  3 inst:   91000002 cyc:  166026332 now IPC :1.26100: AVG IPC :0.53925: L2-Pf-HR :0.59621: L2-HR :0.66068: (Sim:1h31m47s) 
CPU  0 inst:   91000002 cyc:  166215723 now IPC :1.42250: AVG IPC :0.53862: L2-Pf-HR :0.58250: L2-HR :0.65666: (Sim:1h32m4s) 
CPU  1 inst:   92000000 cyc:  166570782 now IPC :1.46835: AVG IPC :0.54351: L2-Pf-HR :0.56168: L2-HR :0.64454: (Sim:1h32m32s) 
CPU  3 inst:   92000004 cyc:  166745615 now IPC :1.39028: AVG IPC :0.54294: L2-Pf-HR :0.59909: L2-HR :0.66243: (Sim:1h32m44s) 
CPU  2 inst:   94000004 cyc:  166800303 now IPC :1.27628: AVG IPC :0.55482: L2-Pf-HR :0.59371: L2-HR :0.66377: (Sim:1h32m49s) 
CPU  0 inst:   92000004 cyc:  166927553 now IPC :1.40483: AVG IPC :0.54234: L2-Pf-HR :0.58556: L2-HR :0.65839: (Sim:1h32m55s) 
CPU  1 inst:   93000001 cyc:  167603277 now IPC :0.96853: AVG IPC :0.54615: L2-Pf-HR :0.56435: L2-HR :0.64587: (Sim:1h33m38s) 
CPU  2 inst:   95000000 cyc:  167750271 now IPC :1.05266: AVG IPC :0.55765: L2-Pf-HR :0.59600: L2-HR :0.66533: (Sim:1h33m48s) 
CPU  3 inst:   93000003 cyc:  167765491 now IPC :0.98051: AVG IPC :0.54562: L2-Pf-HR :0.60095: L2-HR :0.66352: (Sim:1h33m50s) 
CPU  0 inst:   93000000 cyc:  167962356 now IPC :0.96636: AVG IPC :0.54497: L2-Pf-HR :0.58762: L2-HR :0.65954: (Sim:1h34m3s) 
CPU  1 inst:   94000004 cyc:  168485952 now IPC :1.13292: AVG IPC :0.54924: L2-Pf-HR :0.56705: L2-HR :0.64729: (Sim:1h34m41s) 
CPU  3 inst:   94000004 cyc:  168534304 now IPC :1.30071: AVG IPC :0.54908: L2-Pf-HR :0.60288: L2-HR :0.66459: (Sim:1h34m45s) 
CPU  2 inst:   96000001 cyc:  168575095 now IPC :1.21238: AVG IPC :0.56088: L2-Pf-HR :0.59855: L2-HR :0.66692: (Sim:1h34m47s) 
CPU  0 inst:   94000004 cyc:  168817313 now IPC :1.16965: AVG IPC :0.54815: L2-Pf-HR :0.58974: L2-HR :0.66074: (Sim:1h35m4s) 
CPU  2 inst:   97000003 cyc:  169311325 now IPC :1.35827: AVG IPC :0.56436: L2-Pf-HR :0.60065: L2-HR :0.66813: (Sim:1h35m41s) 
CPU  1 inst:   95000004 cyc:  169377781 now IPC :1.12129: AVG IPC :0.55227: L2-Pf-HR :0.56982: L2-HR :0.64880: (Sim:1h35m45s) 
CPU  3 inst:   95000004 cyc:  169388598 now IPC :1.17056: AVG IPC :0.55223: L2-Pf-HR :0.60489: L2-HR :0.66580: (Sim:1h35m46s) 
CPU  0 inst:   95000004 cyc:  169573587 now IPC :1.32227: AVG IPC :0.55162: L2-Pf-HR :0.59217: L2-HR :0.66208: (Sim:1h36m2s) 
CPU  1 inst:   96000001 cyc:  169988819 now IPC :1.63655: AVG IPC :0.55619: L2-Pf-HR :0.57316: L2-HR :0.65067: (Sim:1h36m39s) 
CPU  3 inst:   96000001 cyc:  169997232 now IPC :1.64302: AVG IPC :0.55616: L2-Pf-HR :0.60758: L2-HR :0.66739: (Sim:1h36m40s) 
CPU  2 inst:   98000005 cyc:  170014646 now IPC :1.42183: AVG IPC :0.56793: L2-Pf-HR :0.60243: L2-HR :0.66907: (Sim:1h36m42s) 
CPU  0 inst:   96000001 cyc:  170269656 now IPC :1.43663: AVG IPC :0.55526: L2-Pf-HR :0.59494: L2-HR :0.66360: (Sim:1h36m58s) 
CPU  1 inst:   97000003 cyc:  170794497 now IPC :1.24119: AVG IPC :0.55944: L2-Pf-HR :0.57542: L2-HR :0.65205: (Sim:1h37m39s) 
CPU  2 inst:   99000002 cyc:  170834505 now IPC :1.21972: AVG IPC :0.57108: L2-Pf-HR :0.60456: L2-HR :0.67035: (Sim:1h37m41s) 
CPU  3 inst:   97000003 cyc:  170876238 now IPC :1.13765: AVG IPC :0.55917: L2-Pf-HR :0.60937: L2-HR :0.66847: (Sim:1h37m45s) 
CPU  0 inst:   97000003 cyc:  171060098 now IPC :1.26512: AVG IPC :0.55856: L2-Pf-HR :0.59678: L2-HR :0.66459: (Sim:1h38m1s) 
CPU  2 inst:  100000002 cyc:  171465195 now IPC :1.58556: AVG IPC :0.57483: L2-Pf-HR :0.60717: L2-HR :0.67185: (Sim:1h38m37s) 
CPU  1 inst:   98000005 cyc:  171487901 now IPC :1.44216: AVG IPC :0.56303: L2-Pf-HR :0.57775: L2-HR :0.65313: (Sim:1h38m39s) 
CPU  3 inst:   98000005 cyc:  171531737 now IPC :1.52556: AVG IPC :0.56288: L2-Pf-HR :0.61090: L2-HR :0.66919: (Sim:1h38m43s) 
CPU  0 inst:   98000002 cyc:  171727446 now IPC :1.49847: AVG IPC :0.56223: L2-Pf-HR :0.59860: L2-HR :0.66560: (Sim:1h39m1s) 
CPU  2 inst:  101000003 cyc:  172194288 now IPC :1.37157: AVG IPC :0.57822: L2-Pf-HR :0.60921: L2-HR :0.67303: (Sim:1h39m37s) 
CPU  1 inst:   99000002 cyc:  172238775 now IPC :1.33178: AVG IPC :0.56640: L2-Pf-HR :0.57989: L2-HR :0.65426: (Sim:1h39m40s) 
CPU  3 inst:   99000002 cyc:  172280567 now IPC :1.33541: AVG IPC :0.56626: L2-Pf-HR :0.61256: L2-HR :0.67023: (Sim:1h39m43s) 
CPU  0 inst:   99000002 cyc:  172487257 now IPC :1.31612: AVG IPC :0.56557: L2-Pf-HR :0.60043: L2-HR :0.66667: (Sim:1h40m4s) 
CPU  1 inst:  100000001 cyc:  172802397 now IPC :1.77424: AVG IPC :0.57036: L2-Pf-HR :0.58293: L2-HR :0.65589: (Sim:1h40m35s) 
CPU  2 inst:  102000004 cyc:  172830793 now IPC :1.57108: AVG IPC :0.58190: L2-Pf-HR :0.61090: L2-HR :0.67395: (Sim:1h40m38s) 
CPU  3 inst:  100000001 cyc:  172853313 now IPC :1.74597: AVG IPC :0.57019: L2-Pf-HR :0.61500: L2-HR :0.67170: (Sim:1h40m40s) 
CPU  0 inst:  100000002 cyc:  173041048 now IPC :1.80574: AVG IPC :0.56957: L2-Pf-HR :0.60312: L2-HR :0.66821: (Sim:1h40m59s) 
CPU  1 inst:  101000003 cyc:  173486945 now IPC :1.46082: AVG IPC :0.57389: L2-Pf-HR :0.58529: L2-HR :0.65733: (Sim:1h41m36s) 
CPU  3 inst:  101000003 cyc:  173507642 now IPC :1.52829: AVG IPC :0.57383: L2-Pf-HR :0.61679: L2-HR :0.67283: (Sim:1h41m37s) 
CPU  2 inst:  103000004 cyc:  173513437 now IPC :1.46489: AVG IPC :0.58540: L2-Pf-HR :0.61248: L2-HR :0.67489: (Sim:1h41m38s) 
CPU  0 inst:  101000003 cyc:  173717559 now IPC :1.47817: AVG IPC :0.57312: L2-Pf-HR :0.60512: L2-HR :0.66946: (Sim:1h41m56s) 
CPU  2 inst:  104000005 cyc:  174092229 now IPC :1.72774: AVG IPC :0.58921: L2-Pf-HR :0.61471: L2-HR :0.67624: (Sim:1h42m31s) 
CPU  1 inst:  102000004 cyc:  174097529 now IPC :1.63778: AVG IPC :0.57765: L2-Pf-HR :0.58779: L2-HR :0.65867: (Sim:1h42m32s) 
CPU  3 inst:  102000004 cyc:  174147216 now IPC :1.56354: AVG IPC :0.57748: L2-Pf-HR :0.61848: L2-HR :0.67385: (Sim:1h42m37s) 
CPU  0 inst:  102000004 cyc:  174297903 now IPC :1.72312: AVG IPC :0.57697: L2-Pf-HR :0.60713: L2-HR :0.67062: (Sim:1h42m51s) 
CPU  2 inst:  105000001 cyc:  174768206 now IPC :1.47933: AVG IPC :0.59268: L2-Pf-HR :0.61665: L2-HR :0.67736: (Sim:1h43m30s) 
CPU  1 inst:  103000004 cyc:  174789847 now IPC :1.44442: AVG IPC :0.58110: L2-Pf-HR :0.58956: L2-HR :0.65968: (Sim:1h43m32s) 
CPU  3 inst:  103000004 cyc:  174821125 now IPC :1.48388: AVG IPC :0.58100: L2-Pf-HR :0.61977: L2-HR :0.67472: (Sim:1h43m35s) 
CPU  0 inst:  103000001 cyc:  174971203 now IPC :1.48522: AVG IPC :0.58049: L2-Pf-HR :0.60871: L2-HR :0.67173: (Sim:1h43m50s) 
CPU  1 inst:  104000005 cyc:  175333143 now IPC :1.84062: AVG IPC :0.58502: L2-Pf-HR :0.59239: L2-HR :0.66125: (Sim:1h44m25s) 
CPU  3 inst:  104000005 cyc:  175359669 now IPC :1.85686: AVG IPC :0.58494: L2-Pf-HR :0.62224: L2-HR :0.67629: (Sim:1h44m28s) 
CPU  2 inst:  106000003 cyc:  175374350 now IPC :1.64978: AVG IPC :0.59635: L2-Pf-HR :0.61806: L2-HR :0.67832: (Sim:1h44m29s) 
CPU  0 inst:  104000005 cyc:  175565228 now IPC :1.68344: AVG IPC :0.58424: L2-Pf-HR :0.61136: L2-HR :0.67333: (Sim:1h44m46s) 
CPU  1 inst:  105000001 cyc:  175977617 now IPC :1.55165: AVG IPC :0.58858: L2-Pf-HR :0.59487: L2-HR :0.66295: (Sim:1h45m23s) 
CPU  3 inst:  105000001 cyc:  175985671 now IPC :1.59743: AVG IPC :0.58856: L2-Pf-HR :0.62401: L2-HR :0.67767: (Sim:1h45m24s) 
CPU  2 inst:  107000003 cyc:  176009198 now IPC :1.57518: AVG IPC :0.59990: L2-Pf-HR :0.61954: L2-HR :0.67918: (Sim:1h45m26s) 
CPU  0 inst:  105000001 cyc:  176175435 now IPC :1.63878: AVG IPC :0.58792: L2-Pf-HR :0.61331: L2-HR :0.67454: (Sim:1h45m42s) 
CPU  2 inst:  108000004 cyc:  176558066 now IPC :1.82193: AVG IPC :0.60372: L2-Pf-HR :0.62178: L2-HR :0.68065: (Sim:1h46m18s) 
CPU  3 inst:  106000001 cyc:  176579009 now IPC :1.68538: AVG IPC :0.59226: L2-Pf-HR :0.62566: L2-HR :0.67888: (Sim:1h46m20s) 
CPU  1 inst:  106000003 cyc:  176589608 now IPC :1.63401: AVG IPC :0.59223: L2-Pf-HR :0.59676: L2-HR :0.66427: (Sim:1h46m21s) 
CPU  0 inst:  106000003 cyc:  176751854 now IPC :1.73485: AVG IPC :0.59168: L2-Pf-HR :0.61462: L2-HR :0.67528: (Sim:1h46m36s) 
CPU  2 inst:  109000003 cyc:  177213170 now IPC :1.52647: AVG IPC :0.60715: L2-Pf-HR :0.62371: L2-HR :0.68187: (Sim:1h47m14s) 
CPU  1 inst:  107000000 cyc:  177311642 now IPC :1.38497: AVG IPC :0.59547: L2-Pf-HR :0.59856: L2-HR :0.66545: (Sim:1h47m21s) 
CPU  3 inst:  107000000 cyc:  177313977 now IPC :1.36060: AVG IPC :0.59547: L2-Pf-HR :0.62713: L2-HR :0.67992: (Sim:1h47m21s) 
CPU  0 inst:  107000000 cyc:  177449434 now IPC :1.43352: AVG IPC :0.59500: L2-Pf-HR :0.61599: L2-HR :0.67616: (Sim:1h47m33s) 
CPU  2 inst:  110000002 cyc:  177911702 now IPC :1.43157: AVG IPC :0.61041: L2-Pf-HR :0.62468: L2-HR :0.68245: (Sim:1h48m14s) 
CPU  3 inst:  108000004 cyc:  177915374 now IPC :1.66280: AVG IPC :0.59909: L2-Pf-HR :0.62917: L2-HR :0.68129: (Sim:1h48m14s) 
CPU  1 inst:  108000004 cyc:  177940702 now IPC :1.58968: AVG IPC :0.59901: L2-Pf-HR :0.60108: L2-HR :0.66705: (Sim:1h48m17s) 
CPU  0 inst:  108000004 cyc:  178053524 now IPC :1.65539: AVG IPC :0.59862: L2-Pf-HR :0.61819: L2-HR :0.67754: (Sim:1h48m24s) 
CPU  3 inst:  109000003 cyc:  178516947 now IPC :1.66231: AVG IPC :0.60270: L2-Pf-HR :0.63101: L2-HR :0.68249: (Sim:1h48m49s) 
CPU  2 inst:  111000005 cyc:  178543479 now IPC :1.58284: AVG IPC :0.61387: L2-Pf-HR :0.62582: L2-HR :0.68325: (Sim:1h48m51s) 
CPU  1 inst:  109000003 cyc:  178555223 now IPC :1.62728: AVG IPC :0.60257: L2-Pf-HR :0.60336: L2-HR :0.66855: (Sim:1h48m51s) 
CPU  0 inst:  109000003 cyc:  178670288 now IPC :1.62136: AVG IPC :0.60217: L2-Pf-HR :0.62033: L2-HR :0.67894: (Sim:1h48m58s) 
CPU  3 inst:  110000001 cyc:  179104190 now IPC :1.70287: AVG IPC :0.60632: L2-Pf-HR :0.63204: L2-HR :0.68310: (Sim:1h49m34s) 
CPU  2 inst:  112000004 cyc:  179124281 now IPC :1.72176: AVG IPC :0.61748: L2-Pf-HR :0.62767: L2-HR :0.68450: (Sim:1h49m36s) 
CPU  1 inst:  110000001 cyc:  179189360 now IPC :1.57694: AVG IPC :0.60603: L2-Pf-HR :0.60479: L2-HR :0.66929: (Sim:1h49m42s) 
CPU  0 inst:  110000001 cyc:  179315196 now IPC :1.55061: AVG IPC :0.60560: L2-Pf-HR :0.62151: L2-HR :0.67962: (Sim:1h49m53s) 
CPU  2 inst:  113000005 cyc:  179705930 now IPC :1.71925: AVG IPC :0.62106: L2-Pf-HR :0.62927: L2-HR :0.68552: (Sim:1h50m14s) 
CPU  3 inst:  111000004 cyc:  179742101 now IPC :1.56762: AVG IPC :0.60975: L2-Pf-HR :0.63304: L2-HR :0.68377: (Sim:1h50m16s) 
CPU  1 inst:  111000004 cyc:  179847556 now IPC :1.51931: AVG IPC :0.60939: L2-Pf-HR :0.60612: L2-HR :0.67009: (Sim:1h50m21s) 
CPU  0 inst:  111000004 cyc:  179958119 now IPC :1.55540: AVG IPC :0.60901: L2-Pf-HR :0.62280: L2-HR :0.68045: (Sim:1h50m27s) 
CPU  2 inst:  114000000 cyc:  180298771 now IPC :1.68678: AVG IPC :0.62459: L2-Pf-HR :0.63026: L2-HR :0.68624: (Sim:1h50m47s) 
CPU  3 inst:  112000004 cyc:  180321478 now IPC :1.72599: AVG IPC :0.61336: L2-Pf-HR :0.63489: L2-HR :0.68490: (Sim:1h50m48s) 
CPU  1 inst:  112000004 cyc:  180413159 now IPC :1.76802: AVG IPC :0.61305: L2-Pf-HR :0.60850: L2-HR :0.67151: (Sim:1h50m54s) 
CPU  0 inst:  112000004 cyc:  180523579 now IPC :1.76847: AVG IPC :0.61267: L2-Pf-HR :0.62489: L2-HR :0.68169: (Sim:1h51m0s) 
CPU  2 inst:  115000000 cyc:  180868909 now IPC :1.75396: AVG IPC :0.62817: L2-Pf-HR :0.63150: L2-HR :0.68704: (Sim:1h51m21s) 
CPU  3 inst:  113000005 cyc:  180897823 now IPC :1.73507: AVG IPC :0.61695: L2-Pf-HR :0.63648: L2-HR :0.68600: (Sim:1h51m23s) 
CPU  1 inst:  113000001 cyc:  181008671 now IPC :1.67922: AVG IPC :0.61657: L2-Pf-HR :0.61050: L2-HR :0.67279: (Sim:1h51m28s) 
CPU  0 inst:  113000001 cyc:  181135146 now IPC :1.63514: AVG IPC :0.61614: L2-Pf-HR :0.62669: L2-HR :0.68288: (Sim:1h51m35s) 
CPU  2 inst:  116000002 cyc:  181487875 now IPC :1.61560: AVG IPC :0.63155: L2-Pf-HR :0.63319: L2-HR :0.68816: (Sim:1h51m54s) 
CPU  3 inst:  114000000 cyc:  181575232 now IPC :1.47621: AVG IPC :0.62018: L2-Pf-HR :0.63748: L2-HR :0.68677: (Sim:1h51m58s) 
CPU  1 inst:  114000000 cyc:  181678820 now IPC :1.49220: AVG IPC :0.61982: L2-Pf-HR :0.61166: L2-HR :0.67346: (Sim:1h52m5s) 
CPU  0 inst:  114000000 cyc:  181832283 now IPC :1.43444: AVG IPC :0.61929: L2-Pf-HR :0.62766: L2-HR :0.68351: (Sim:1h52m17s) 
CPU  2 inst:  117000003 cyc:  182105506 now IPC :1.61909: AVG IPC :0.63492: L2-Pf-HR :0.63498: L2-HR :0.68936: (Sim:1h52m38s) 
CPU  3 inst:  115000000 cyc:  182194943 now IPC :1.61366: AVG IPC :0.62357: L2-Pf-HR :0.63882: L2-HR :0.68761: (Sim:1h52m43s) 
CPU  1 inst:  115000000 cyc:  182306227 now IPC :1.59386: AVG IPC :0.62319: L2-Pf-HR :0.61326: L2-HR :0.67441: (Sim:1h52m49s) 
CPU  0 inst:  115000000 cyc:  182446432 now IPC :1.62827: AVG IPC :0.62271: L2-Pf-HR :0.62898: L2-HR :0.68430: (Sim:1h52m56s) 
CPU  2 inst:  118000005 cyc:  182809703 now IPC :1.42006: AVG IPC :0.63796: L2-Pf-HR :0.63585: L2-HR :0.68997: (Sim:1h53m22s) 
CPU  3 inst:  116000002 cyc:  182846464 now IPC :1.53487: AVG IPC :0.62684: L2-Pf-HR :0.64049: L2-HR :0.68881: (Sim:1h53m26s) 
CPU  1 inst:  116000002 cyc:  182936483 now IPC :1.58666: AVG IPC :0.62653: L2-Pf-HR :0.61529: L2-HR :0.67573: (Sim:1h53m35s) 
CPU  0 inst:  116000002 cyc:  183031563 now IPC :1.70902: AVG IPC :0.62620: L2-Pf-HR :0.63072: L2-HR :0.68545: (Sim:1h53m44s) 
CPU  2 inst:  119000004 cyc:  183379106 now IPC :1.75622: AVG IPC :0.64145: L2-Pf-HR :0.63703: L2-HR :0.69072: (Sim:1h54m19s) 
CPU  3 inst:  117000003 cyc:  183394495 now IPC :1.82472: AVG IPC :0.63044: L2-Pf-HR :0.64228: L2-HR :0.68993: (Sim:1h54m20s) 
CPU  1 inst:  117000003 cyc:  183489832 now IPC :1.80718: AVG IPC :0.63011: L2-Pf-HR :0.61735: L2-HR :0.67702: (Sim:1h54m29s) 
CPU  0 inst:  117000003 cyc:  183614311 now IPC :1.71601: AVG IPC :0.62967: L2-Pf-HR :0.63258: L2-HR :0.68663: (Sim:1h54m39s) 
CPU  2 inst:  120000004 cyc:  184001619 now IPC :1.60639: AVG IPC :0.64473: L2-Pf-HR :0.63851: L2-HR :0.69172: (Sim:1h55m13s) 
CPU  3 inst:  118000003 cyc:  184059888 now IPC :1.50287: AVG IPC :0.63361: L2-Pf-HR :0.64300: L2-HR :0.69046: (Sim:1h55m18s) 
CPU  1 inst:  118000005 cyc:  184158859 now IPC :1.49471: AVG IPC :0.63327: L2-Pf-HR :0.61839: L2-HR :0.67767: (Sim:1h55m28s) 
CPU  0 inst:  118000003 cyc:  184215735 now IPC :1.66272: AVG IPC :0.63306: L2-Pf-HR :0.63327: L2-HR :0.68715: (Sim:1h55m33s) 
CPU  2 inst:  121000003 cyc:  184578021 now IPC :1.73490: AVG IPC :0.64816: L2-Pf-HR :0.64028: L2-HR :0.69293: (Sim:1h56m7s) 
CPU  3 inst:  119000004 cyc:  184672467 now IPC :1.63244: AVG IPC :0.63694: L2-Pf-HR :0.64413: L2-HR :0.69121: (Sim:1h56m15s) 
CPU  1 inst:  119000004 cyc:  184756228 now IPC :1.67401: AVG IPC :0.63665: L2-Pf-HR :0.61984: L2-HR :0.67856: (Sim:1h56m23s) 
CPU  0 inst:  119000004 cyc:  184805704 now IPC :1.69501: AVG IPC :0.63647: L2-Pf-HR :0.63442: L2-HR :0.68783: (Sim:1h56m28s) 
CPU  2 inst:  122000003 cyc:  185218338 now IPC :1.56173: AVG IPC :0.65133: L2-Pf-HR :0.64107: L2-HR :0.69356: (Sim:1h57m3s) 
Finished CPU 2 instr: 120000005 cyc: 184237156 AVG IPC: 0.65133 (Sim time: 1h57m3s)
CPU  3 inst:  120000004 cyc:  185298256 now IPC :1.59798: AVG IPC :0.64020: L2-Pf-HR :0.64557: L2-HR :0.69227: (Sim:1h57m11s) 
CPU  1 inst:  120000004 cyc:  185390387 now IPC :1.57689: AVG IPC :0.63988: L2-Pf-HR :0.62173: L2-HR :0.67979: (Sim:1h57m20s) 
CPU  0 inst:  120000004 cyc:  185410070 now IPC :1.65463: AVG IPC :0.63981: L2-Pf-HR :0.63589: L2-HR :0.68886: (Sim:1h57m22s) 
CPU  2 inst:  123000001 cyc:  185827979 now IPC :1.64031: AVG IPC :0.65459: L2-Pf-HR :0.64208: L2-HR :0.69418: (Sim:1h58m1s) 
CPU  3 inst:  121000003 cyc:  185873568 now IPC :1.73819: AVG IPC :0.64362: L2-Pf-HR :0.64725: L2-HR :0.69339: (Sim:1h58m5s) 
CPU  1 inst:  121000003 cyc:  185941291 now IPC :1.81520: AVG IPC :0.64338: L2-Pf-HR :0.62375: L2-HR :0.68105: (Sim:1h58m12s) 
CPU  0 inst:  121000003 cyc:  185990586 now IPC :1.72260: AVG IPC :0.64321: L2-Pf-HR :0.63775: L2-HR :0.69014: (Sim:1h58m16s) 
CPU  2 inst:  124000004 cyc:  186452744 now IPC :1.60061: AVG IPC :0.65778: L2-Pf-HR :0.64352: L2-HR :0.69538: (Sim:1h58m57s) 
CPU  3 inst:  122000003 cyc:  186554695 now IPC :1.46816: AVG IPC :0.64665: L2-Pf-HR :0.64801: L2-HR :0.69397: (Sim:1h59m5s) 
Finished CPU 3 instr: 120000000 cyc: 185572955 AVG IPC: 0.64665 (Sim time: 1h59m5s)
CPU  1 inst:  122000000 cyc:  186560992 now IPC :1.61368: AVG IPC :0.64662: L2-Pf-HR :0.62482: L2-HR :0.68177: (Sim:1h59m6s) 
Finished CPU 1 instr: 120000005 cyc: 185579482 AVG IPC: 0.64662 (Sim time: 1h59m6s)
CPU  0 inst:  122000003 cyc:  186641910 now IPC :1.53533: AVG IPC :0.64634: L2-Pf-HR :0.63866: L2-HR :0.69082: (Sim:1h59m14s) 
Finished CPU 0 instr: 120000000 cyc: 185660778 AVG IPC: 0.64634 (Sim time: 1h59m14s)

ChampSim completed all CPUs

Total Simulation Statistics (not including warmup)

CPU 0 cumulative IPC: 0.64634 instructions: 120000000 cycles: 185660778
Core_0_L1D_total_access 39988461
Core_0_L1D_total_hit 37680929
Core_0_L1D_total_miss 2307532
Core_0_L1D_loads 34624348
Core_0_L1D_load_hit 33751733
Core_0_L1D_load_miss 872615
Core_0_L1D_RFOs 3299526
Core_0_L1D_RFO_hit 3193097
Core_0_L1D_RFO_miss 106429
Core_0_L1D_prefetches 2064587
Core_0_L1D_prefetch_hit 736099
Core_0_L1D_prefetch_miss 1328488
Core_0_L1D_writebacks 0
Core_0_L1D_writeback_hit 0
Core_0_L1D_writeback_miss 0

Core_0_L1I_total_access 18448958
Core_0_L1I_total_hit 18446875
Core_0_L1I_total_miss 2083
Core_0_L1I_loads 18448958
Core_0_L1I_load_hit 18446875
Core_0_L1I_load_miss 2083
Core_0_L1I_RFOs 0
Core_0_L1I_RFO_hit 0
Core_0_L1I_RFO_miss 0
Core_0_L1I_prefetches 0
Core_0_L1I_prefetch_hit 0
Core_0_L1I_prefetch_miss 0
Core_0_L1I_writebacks 0
Core_0_L1I_writeback_hit 0
Core_0_L1I_writeback_miss 0

Core_0_L2C_total_access 3426870
Core_0_L2C_total_hit 2367369
Core_0_L2C_total_miss 1059501
Core_0_L2C_loads 716908
Core_0_L2C_load_hit 435362
Core_0_L2C_load_miss 281546
Core_0_L2C_RFOs 106321
Core_0_L2C_RFO_hit 501
Core_0_L2C_RFO_miss 105820
Core_0_L2C_prefetches 1860105
Core_0_L2C_prefetch_hit 1187975
Core_0_L2C_prefetch_miss 672130
Core_0_L2C_writebacks 743536
Core_0_L2C_writeback_hit 743531
Core_0_L2C_writeback_miss 5

[Bingo] PHT Access: 288737
[Bingo] PHT Hit PC+Addr: 97853
[Bingo] PHT Hit PC+Offs: 180387
[Bingo] PHT Miss: 10497
[Bingo] Prefetch PC+Addr: 0
[Bingo] Prefetch PC+Offs: 0
[Bingo] Useful PC+Addr: 0
[Bingo] Useful PC+Offs: 0
[Bingo] Useless PC+Addr: 0
[Bingo] Useless PC+Offs: 0
[Bingo] L1 Prefetch per Region: 10.64987
[Bingo] L2 Prefetch per Region: 0.57726
[Bingo] L3 Prefetch per Region: 0.00000
[Bingo] No Prefetch per Region: 20.77287
[Bingo] Number of Voters Mean: 15.42795
[Bingo] Number of Voters SD: 3.47036
PHT read accesses: 3772981
PHT write accesses: 275113
AT read accesses: 32769961
AT write accesses: 32770792
FT read accesses: 5052933
FT write accesses: 288737
PS read accesses: 2549636
PS write accesses: 278240
PHT tag read accesses: 11093847
PHT tag write accesses: 372966
AT tag read accesses: 717361591
AT tag write accesses: 33045071
FT tag read accesses: 200904274
FT tag write accesses: 2959272
PS tag read accesses: 567681487
PS tag write accesses: 2817227
[Bingo2] PHT Access: 141015
[Bingo2] PHT Hit PC+Addr: 6613
[Bingo2] PHT Hit PC+Offs: 127142
[Bingo2] PHT Miss: 7260
[Bingo2] Prefetch PC+Addr: 0
[Bingo2] Prefetch PC+Offs: 0
[Bingo2] Useful PC+Addr: 0
[Bingo2] Useful PC+Offs: 0
[Bingo2] Useless PC+Addr: 0
[Bingo2] Useless PC+Offs: 0
[Bingo2] L1 Prefetch per Region: 0.00000
[Bingo2] L2 Prefetch per Region: 8.03023
[Bingo2] L3 Prefetch per Region: 0.00000
[Bingo2] No Prefetch per Region: 23.96977
[Bingo2] Number of Voters Mean: 15.75834
[Bingo2] Number of Voters SD: 1.50334
PHT read accesses: 2092944
PHT write accesses: 90332
AT read accesses: 572165
AT write accesses: 662363
FT read accesses: 278845
FT write accesses: 141015
PS read accesses: 317492
PS write accesses: 133755
PHT tag read accesses: 5032988
PHT tag write accesses: 96945
AT tag read accesses: 80691260
AT tag write accesses: 662497
FT tag read accesses: 73868654
FT tag write accesses: 325661
PS tag read accesses: 16105587
PS tag write accesses: 444259
Core_0_LLC_total_access 1669261
Core_0_LLC_total_hit 598211
Core_0_LLC_total_miss 1071050
Core_0_LLC_loads 163079
Core_0_LLC_load_hit 188
Core_0_LLC_load_miss 162891
Core_0_LLC_RFOs 105820
Core_0_LLC_RFO_hit 1
Core_0_LLC_RFO_miss 105819
Core_0_LLC_prefetches 790597
Core_0_LLC_prefetch_hit 1249
Core_0_LLC_prefetch_miss 789348
Core_0_LLC_writebacks 609765
Core_0_LLC_writeback_hit 596773
Core_0_LLC_writeback_miss 12992


CPU 1 cumulative IPC: 0.64708 instructions: 120137554 cycles: 185660778
Core_1_L1D_total_access 40039272
Core_1_L1D_total_hit 37795093
Core_1_L1D_total_miss 2244179
Core_1_L1D_loads 34672419
Core_1_L1D_load_hit 33814967
Core_1_L1D_load_miss 857452
Core_1_L1D_RFOs 3300289
Core_1_L1D_RFO_hit 3194264
Core_1_L1D_RFO_miss 106025
Core_1_L1D_prefetches 2066564
Core_1_L1D_prefetch_hit 785862
Core_1_L1D_prefetch_miss 1280702
Core_1_L1D_writebacks 0
Core_1_L1D_writeback_hit 0
Core_1_L1D_writeback_miss 0

Core_1_L1I_total_access 18463076
Core_1_L1I_total_hit 18461126
Core_1_L1I_total_miss 1950
Core_1_L1I_loads 18463076
Core_1_L1I_load_hit 18461126
Core_1_L1I_load_miss 1950
Core_1_L1I_RFOs 0
Core_1_L1I_RFO_hit 0
Core_1_L1I_RFO_miss 0
Core_1_L1I_prefetches 0
Core_1_L1I_prefetch_hit 0
Core_1_L1I_prefetch_miss 0
Core_1_L1I_writebacks 0
Core_1_L1I_writeback_hit 0
Core_1_L1I_writeback_miss 0

Core_1_L2C_total_access 3332329
Core_1_L2C_total_hit 2272437
Core_1_L2C_total_miss 1059892
Core_1_L2C_loads 701348
Core_1_L2C_load_hit 415472
Core_1_L2C_load_miss 285876
Core_1_L2C_RFOs 105948
Core_1_L2C_RFO_hit 333
Core_1_L2C_RFO_miss 105615
Core_1_L2C_prefetches 1782875
Core_1_L2C_prefetch_hit 1114479
Core_1_L2C_prefetch_miss 668396
Core_1_L2C_writebacks 742158
Core_1_L2C_writeback_hit 742153
Core_1_L2C_writeback_miss 5

[Bingo] PHT Access: 293056
[Bingo] PHT Hit PC+Addr: 96339
[Bingo] PHT Hit PC+Offs: 185952
[Bingo] PHT Miss: 10765
[Bingo] Prefetch PC+Addr: 0
[Bingo] Prefetch PC+Offs: 0
[Bingo] Useful PC+Addr: 0
[Bingo] Useful PC+Offs: 0
[Bingo] Useless PC+Addr: 0
[Bingo] Useless PC+Offs: 0
[Bingo] L1 Prefetch per Region: 10.61448
[Bingo] L2 Prefetch per Region: 0.51798
[Bingo] L3 Prefetch per Region: 0.00000
[Bingo] No Prefetch per Region: 20.86754
[Bingo] Number of Voters Mean: 15.39382
[Bingo] Number of Voters SD: 2.45004
PHT read accesses: 3836805
PHT write accesses: 279943
AT read accesses: 33515792
AT write accesses: 33516622
FT read accesses: 5067146
FT write accesses: 293056
PS read accesses: 2594995
PS write accesses: 282291
PHT tag read accesses: 11336016
PHT tag write accesses: 376282
AT tag read accesses: 731419213
AT tag write accesses: 33795803
FT tag read accesses: 203194214
FT tag write accesses: 2972822
PS tag read accesses: 579681561
PS tag write accesses: 2867205
[Bingo2] PHT Access: 144795
[Bingo2] PHT Hit PC+Addr: 6173
[Bingo2] PHT Hit PC+Offs: 125796
[Bingo2] PHT Miss: 12826
[Bingo2] Prefetch PC+Addr: 0
[Bingo2] Prefetch PC+Offs: 0
[Bingo2] Useful PC+Addr: 0
[Bingo2] Useful PC+Offs: 0
[Bingo2] Useless PC+Addr: 0
[Bingo2] Useless PC+Offs: 0
[Bingo2] L1 Prefetch per Region: 0.00000
[Bingo2] L2 Prefetch per Region: 7.17550
[Bingo2] L3 Prefetch per Region: 0.00000
[Bingo2] No Prefetch per Region: 24.82450
[Bingo2] Number of Voters Mean: 15.52272
[Bingo2] Number of Voters SD: 2.11113
PHT read accesses: 2035521
PHT write accesses: 90604
AT read accesses: 566100
AT write accesses: 656694
FT read accesses: 280225
FT write accesses: 144795
PS read accesses: 312013
PS write accesses: 131969
PHT tag read accesses: 5089465
PHT tag write accesses: 96777
AT tag read accesses: 80674532
AT tag write accesses: 656832
FT tag read accesses: 74051780
FT tag write accesses: 330317
PS tag read accesses: 15966973
PS tag write accesses: 439957
Core_1_LLC_total_access 1669765
Core_1_LLC_total_hit 598812
Core_1_LLC_total_miss 1070953
Core_1_LLC_loads 168645
Core_1_LLC_load_hit 310
Core_1_LLC_load_miss 168335
Core_1_LLC_RFOs 105615
Core_1_LLC_RFO_hit 4
Core_1_LLC_RFO_miss 105611
Core_1_LLC_prefetches 785628
Core_1_LLC_prefetch_hit 1110
Core_1_LLC_prefetch_miss 784518
Core_1_LLC_writebacks 609877
Core_1_LLC_writeback_hit 597388
Core_1_LLC_writeback_miss 12489


CPU 2 cumulative IPC: 0.65885 instructions: 122322484 cycles: 185660778
Core_2_L1D_total_access 40853392
Core_2_L1D_total_hit 38471187
Core_2_L1D_total_miss 2382205
Core_2_L1D_loads 35417231
Core_2_L1D_load_hit 34526827
Core_2_L1D_load_miss 890404
Core_2_L1D_RFOs 3304828
Core_2_L1D_RFO_hit 3198361
Core_2_L1D_RFO_miss 106467
Core_2_L1D_prefetches 2131333
Core_2_L1D_prefetch_hit 745999
Core_2_L1D_prefetch_miss 1385334
Core_2_L1D_writebacks 0
Core_2_L1D_writeback_hit 0
Core_2_L1D_writeback_miss 0

Core_2_L1I_total_access 18673974
Core_2_L1I_total_hit 18671886
Core_2_L1I_total_miss 2088
Core_2_L1I_loads 18673974
Core_2_L1I_load_hit 18671886
Core_2_L1I_load_miss 2088
Core_2_L1I_RFOs 0
Core_2_L1I_RFO_hit 0
Core_2_L1I_RFO_miss 0
Core_2_L1I_prefetches 0
Core_2_L1I_prefetch_hit 0
Core_2_L1I_prefetch_miss 0
Core_2_L1I_writebacks 0
Core_2_L1I_writeback_hit 0
Core_2_L1I_writeback_miss 0

Core_2_L2C_total_access 3518220
Core_2_L2C_total_hit 2447314
Core_2_L2C_total_miss 1070906
Core_2_L2C_loads 732525
Core_2_L2C_load_hit 455884
Core_2_L2C_load_miss 276641
Core_2_L2C_RFOs 106393
Core_2_L2C_RFO_hit 540
Core_2_L2C_RFO_miss 105853
Core_2_L2C_prefetches 1933331
Core_2_L2C_prefetch_hit 1244924
Core_2_L2C_prefetch_miss 688407
Core_2_L2C_writebacks 745971
Core_2_L2C_writeback_hit 745966
Core_2_L2C_writeback_miss 5

[Bingo] PHT Access: 301150
[Bingo] PHT Hit PC+Addr: 103005
[Bingo] PHT Hit PC+Offs: 186690
[Bingo] PHT Miss: 11455
[Bingo] Prefetch PC+Addr: 0
[Bingo] Prefetch PC+Offs: 0
[Bingo] Useful PC+Addr: 0
[Bingo] Useful PC+Offs: 0
[Bingo] Useless PC+Addr: 0
[Bingo] Useless PC+Offs: 0
[Bingo] L1 Prefetch per Region: 10.68016
[Bingo] L2 Prefetch per Region: 0.55123
[Bingo] L3 Prefetch per Region: 0.00000
[Bingo] No Prefetch per Region: 20.76861
[Bingo] Number of Voters Mean: 15.36798
[Bingo] Number of Voters SD: 2.50298
PHT read accesses: 3927540
PHT write accesses: 287317
AT read accesses: 34263722
AT write accesses: 34264537
FT read accesses: 5099994
FT write accesses: 301150
PS read accesses: 2692394
PS write accesses: 289695
PHT tag read accesses: 11554789
PHT tag write accesses: 390322
AT tag read accesses: 743781592
AT tag write accesses: 34551100
FT tag read accesses: 203766212
FT tag write accesses: 3001443
PS tag read accesses: 592078317
PS tag write accesses: 2969702
[Bingo2] PHT Access: 146983
[Bingo2] PHT Hit PC+Addr: 7439
[Bingo2] PHT Hit PC+Offs: 127443
[Bingo2] PHT Miss: 12101
[Bingo2] Prefetch PC+Addr: 0
[Bingo2] Prefetch PC+Offs: 0
[Bingo2] Useful PC+Addr: 0
[Bingo2] Useful PC+Offs: 0
[Bingo2] Useless PC+Addr: 0
[Bingo2] Useless PC+Offs: 0
[Bingo2] L1 Prefetch per Region: 0.00000
[Bingo2] L2 Prefetch per Region: 7.79836
[Bingo2] L3 Prefetch per Region: 0.00000
[Bingo2] No Prefetch per Region: 24.20164
[Bingo2] Number of Voters Mean: 15.69136
[Bingo2] Number of Voters SD: 1.81386
PHT read accesses: 2092474
PHT write accesses: 93186
AT read accesses: 593951
AT write accesses: 687132
FT read accesses: 291658
FT write accesses: 146983
PS read accesses: 320361
PS write accesses: 134882
PHT tag read accesses: 5197001
PHT tag write accesses: 100625
AT tag read accesses: 81308661
AT tag write accesses: 687265
FT tag read accesses: 74256030
FT tag write accesses: 339515
PS tag read accesses: 16606253
PS tag write accesses: 448561
Core_2_LLC_total_access 1682245
Core_2_LLC_total_hit 603713
Core_2_LLC_total_miss 1078532
Core_2_LLC_loads 159061
Core_2_LLC_load_hit 556
Core_2_LLC_load_miss 158505
Core_2_LLC_RFOs 105853
Core_2_LLC_RFO_hit 1
Core_2_LLC_RFO_miss 105852
Core_2_LLC_prefetches 805987
Core_2_LLC_prefetch_hit 2325
Core_2_LLC_prefetch_miss 803662
Core_2_LLC_writebacks 611344
Core_2_LLC_writeback_hit 600831
Core_2_LLC_writeback_miss 10513


CPU 3 cumulative IPC: 0.64713 instructions: 120146657 cycles: 185660778
Core_3_L1D_total_access 40046630
Core_3_L1D_total_hit 37687418
Core_3_L1D_total_miss 2359212
Core_3_L1D_loads 34679268
Core_3_L1D_load_hit 33815933
Core_3_L1D_load_miss 863335
Core_3_L1D_RFOs 3299875
Core_3_L1D_RFO_hit 3193391
Core_3_L1D_RFO_miss 106484
Core_3_L1D_prefetches 2067487
Core_3_L1D_prefetch_hit 678094
Core_3_L1D_prefetch_miss 1389393
Core_3_L1D_writebacks 0
Core_3_L1D_writeback_hit 0
Core_3_L1D_writeback_miss 0

Core_3_L1I_total_access 18460651
Core_3_L1I_total_hit 18458550
Core_3_L1I_total_miss 2101
Core_3_L1I_loads 18460651
Core_3_L1I_load_hit 18458550
Core_3_L1I_load_miss 2101
Core_3_L1I_RFOs 0
Core_3_L1I_RFO_hit 0
Core_3_L1I_RFO_miss 0
Core_3_L1I_prefetches 0
Core_3_L1I_prefetch_hit 0
Core_3_L1I_prefetch_miss 0
Core_3_L1I_writebacks 0
Core_3_L1I_writeback_hit 0
Core_3_L1I_writeback_miss 0

Core_3_L2C_total_access 3465687
Core_3_L2C_total_hit 2405518
Core_3_L2C_total_miss 1060169
Core_3_L2C_loads 706744
Core_3_L2C_load_hit 424123
Core_3_L2C_load_miss 282621
Core_3_L2C_RFOs 106396
Core_3_L2C_RFO_hit 491
Core_3_L2C_RFO_miss 105905
Core_3_L2C_prefetches 1909127
Core_3_L2C_prefetch_hit 1237489
Core_3_L2C_prefetch_miss 671638
Core_3_L2C_writebacks 743420
Core_3_L2C_writeback_hit 743415
Core_3_L2C_writeback_miss 5

[Bingo] PHT Access: 292267
[Bingo] PHT Hit PC+Addr: 94553
[Bingo] PHT Hit PC+Offs: 186704
[Bingo] PHT Miss: 11010
[Bingo] Prefetch PC+Addr: 0
[Bingo] Prefetch PC+Offs: 0
[Bingo] Useful PC+Addr: 0
[Bingo] Useful PC+Offs: 0
[Bingo] Useless PC+Addr: 0
[Bingo] Useless PC+Offs: 0
[Bingo] L1 Prefetch per Region: 10.65677
[Bingo] L2 Prefetch per Region: 0.53703
[Bingo] L3 Prefetch per Region: 0.00000
[Bingo] No Prefetch per Region: 20.80620
[Bingo] Number of Voters Mean: 15.41060
[Bingo] Number of Voters SD: 2.42503
PHT read accesses: 3844500
PHT write accesses: 279169
AT read accesses: 33516036
AT write accesses: 33516921
FT read accesses: 5069865
FT write accesses: 292267
PS read accesses: 2591738
PS write accesses: 281257
PHT tag read accesses: 11344307
PHT tag write accesses: 373722
AT tag read accesses: 731434773
AT tag write accesses: 33795262
FT tag read accesses: 203173331
FT tag write accesses: 2973021
PS tag read accesses: 579622824
PS tag write accesses: 2862980
[Bingo2] PHT Access: 149299
[Bingo2] PHT Hit PC+Addr: 6745
[Bingo2] PHT Hit PC+Offs: 129489
[Bingo2] PHT Miss: 13065
[Bingo2] Prefetch PC+Addr: 0
[Bingo2] Prefetch PC+Offs: 0
[Bingo2] Useful PC+Addr: 0
[Bingo2] Useful PC+Offs: 0
[Bingo2] Useless PC+Addr: 0
[Bingo2] Useless PC+Offs: 0
[Bingo2] L1 Prefetch per Region: 0.00000
[Bingo2] L2 Prefetch per Region: 7.29703
[Bingo2] L3 Prefetch per Region: 0.00000
[Bingo2] No Prefetch per Region: 24.70297
[Bingo2] Number of Voters Mean: 15.62536
[Bingo2] Number of Voters SD: 1.93008
PHT read accesses: 2114510
PHT write accesses: 91498
AT read accesses: 567233
AT write accesses: 658722
FT read accesses: 283108
FT write accesses: 149299
PS read accesses: 320179
PS write accesses: 136234
PHT tag read accesses: 5182960
PHT tag write accesses: 98243
AT tag read accesses: 80809183
AT tag write accesses: 658859
FT tag read accesses: 74291242
FT tag write accesses: 336713
PS tag read accesses: 16184529
PS tag write accesses: 450758
Core_3_LLC_total_access 1669802
Core_3_LLC_total_hit 601139
Core_3_LLC_total_miss 1068663
Core_3_LLC_loads 164597
Core_3_LLC_load_hit 174
Core_3_LLC_load_miss 164423
Core_3_LLC_RFOs 105905
Core_3_LLC_RFO_hit 1
Core_3_LLC_RFO_miss 105904
Core_3_LLC_prefetches 789662
Core_3_LLC_prefetch_hit 1363
Core_3_LLC_prefetch_miss 788299
Core_3_LLC_writebacks 609638
Core_3_LLC_writeback_hit 599601
Core_3_LLC_writeback_miss 10037


[ROI Statistics]
Core_0_instructions 120000000
Core_0_cycles 185660778
Core_0_IPC 0.64634

Core_0_branch_prediction_accuracy 99.19469
Core_0_branch_MPKI 0.24154
Core_0_average_ROB_occupancy_at_mispredict 444.13514

Core_0_L1D_total_access 39988461
Core_0_L1D_total_hit 37680929 L1D_total_Hit Ratio: 0.94230
Core_0_L1D_total_miss 2307532
Core_0_L1D_loads 34624348
Core_0_L1D_load_hit 33751733 L1D_load_Hit Ratio: 0.97480
Core_0_L1D_load_miss 872615
Core_0_L1D_RFOs 3299526
Core_0_L1D_RFO_hit 3193097 L1D_RFO_Hit Ratio: 0.96774
Core_0_L1D_RFO_miss 106429
Core_0_L1D_prefetches 2064587
Core_0_L1D_prefetch_hit 736099 L1D_prefetch_Hit Ratio: 0.35654
Core_0_L1D_prefetch_miss 1328488
Core_0_L1D_writebacks 0
Core_0_L1D_writeback_hit 0 L1D_writeback_Hit Ratio: -nan
Core_0_L1D_writeback_miss 0
Core_0_L1D_prefetch_requested 2497657
Core_0_L1D_prefetch_issued 2497657
Core_0_L1D_prefetch_useful 1326942 L1D_Useful Ratio: 0.53127
Core_0_L1D_prefetch_useless 21745
Core_0_L1D_prefetch_late 159031
Core_0_L1D_average_miss_latency 4091892.72913

Core_0_L1I_total_access 18448958
Core_0_L1I_total_hit 18446875 L1I_total_Hit Ratio: 0.99989
Core_0_L1I_total_miss 2083
Core_0_L1I_loads 18448958
Core_0_L1I_load_hit 18446875 L1I_load_Hit Ratio: 0.99989
Core_0_L1I_load_miss 2083
Core_0_L1I_RFOs 0
Core_0_L1I_RFO_hit 0 L1I_RFO_Hit Ratio: -nan
[...]
Core_0_L2C_prefetch_miss 672130
Core_0_L2C_writebacks 743536
Core_0_L2C_writeback_hit 743531 L2C_writeback_Hit Ratio: 0.99999
Core_0_L2C_writeback_miss 5
Core_0_L2C_prefetch_requested 708756
Core_0_L2C_prefetch_issued 708756
Core_0_L2C_prefetch_useful 136805 L2C_Useful Ratio: 0.19302
Core_0_L2C_prefetch_useless 502041
Core_0_L2C_prefetch_late 118496
Core_0_L2C_average_miss_latency 946.08228

Core_0_LLC_total_access 1669261
Core_0_LLC_total_hit 598211 LLC_total_Hit Ratio: 0.35837
Core_0_LLC_total_miss 1071050
Core_0_LLC_loads 163079
Core_0_LLC_load_hit 188 LLC_load_Hit Ratio: 0.00115
Core_0_LLC_load_miss 162891
Core_0_LLC_RFOs 105820
Core_0_LLC_RFO_hit 1 LLC_RFO_Hit Ratio: 0.00001
Core_0_LLC_RFO_miss 105819
Core_0_LLC_prefetches 790597
Core_0_LLC_prefetch_hit 1249 LLC_prefetch_Hit Ratio: 0.00158
Core_0_LLC_prefetch_miss 789348
Core_0_LLC_writebacks 609765
Core_0_LLC_writeback_hit 596773 LLC_writeback_Hit Ratio: 0.97869
Core_0_LLC_writeback_miss 12992
Core_0_LLC_prefetch_requested 0
Core_0_LLC_prefetch_issued 0
Core_0_LLC_prefetch_useful 559 LLC_Useful Ratio: inf
Core_0_LLC_prefetch_useless 2730809
Core_0_LLC_prefetch_late 0
Core_0_LLC_average_miss_latency 3498.96107

Core_0_major_page_fault 0
Core_0_minor_page_fault 8629

Core_1_instructions 120000005
Core_1_cycles 185579482
Core_1_IPC 0.64662

Core_1_branch_prediction_accuracy 99.19476
Core_1_branch_MPKI 0.24131
Core_1_average_ROB_occupancy_at_mispredict 444.09320

Core_1_L1D_total_access 39988952
Core_1_L1D_total_hit 37747568 L1D_total_Hit Ratio: 0.94395
Core_1_L1D_total_miss 2241384
Core_1_L1D_loads 34625133
Core_1_L1D_load_hit 33768421 L1D_load_Hit Ratio: 0.97526
Core_1_L1D_load_miss 856712
Core_1_L1D_RFOs 3299953
Core_1_L1D_RFO_hit 3193928 L1D_RFO_Hit Ratio: 0.96787
Core_1_L1D_RFO_miss 106025
Core_1_L1D_prefetches 2063866
Core_1_L1D_prefetch_hit 785219 L1D_prefetch_Hit Ratio: 0.38046
Core_1_L1D_prefetch_miss 1278647
Core_1_L1D_writebacks 0
Core_1_L1D_writeback_hit 0 L1D_writeback_Hit Ratio: -nan
Core_1_L1D_writeback_miss 0
Core_1_L1D_prefetch_requested 2487103
Core_1_L1D_prefetch_issued 2487103
Core_1_L1D_prefetch_useful 1271524 L1D_Useful Ratio: 0.51125
Core_1_L1D_prefetch_useless 27085
Core_1_L1D_prefetch_late 159635
Core_1_L1D_average_miss_latency 4191323.17421

Core_1_L1I_total_access 18449250
Core_1_L1I_total_hit 18447300 L1I_total_Hit Ratio: 0.99989
Core_1_L1I_total_miss 1950
Core_1_L1I_loads 18449250
Core_1_L1I_load_hit 18447300 L1I_load_Hit Ratio: 0.99989
Core_1_L1I_load_miss 1950
Core_1_L1I_RFOs 0
Core_1_L1I_RFO_hit 0 L1I_RFO_Hit Ratio: -nan
Core_1_L1I_RFO_miss 0
Core_1_L1I_prefetches 0
Core_1_L1I_prefetch_hit 0 L1I_prefetch_Hit Ratio: -nan
Core_1_L1I_prefetch_miss 0
Core_1_L1I_writebacks 0
Core_1_L1I_writeback_hit 0 L1I_writeback_Hit Ratio: -nan
Core_1_L1I_writeback_miss 0
Core_1_L1I_prefetch_requested 0
Core_1_L1I_prefetch_issued 0
Core_1_L1I_prefetch_useful 0 L1I_Useful Ratio: -nan
Core_1_L1I_prefetch_useless 0
Core_1_L1I_prefetch_late 0
Core_1_L1I_average_miss_latency 1169.48923

Core_1_L2C_total_access 3329339
Core_1_L2C_total_hit 2269845 L2C_total_Hit Ratio: 0.68177
Core_1_L2C_total_miss 1059494
Core_1_L2C_loads 700647
Core_1_L2C_load_hit 414832 L2C_load_Hit Ratio: 0.59207
Core_1_L2C_load_miss 285815
Core_1_L2C_RFOs 105948
Core_1_L2C_RFO_hit 333 L2C_RFO_Hit Ratio: 0.00314
Core_1_L2C_RFO_miss 105615
Core_1_L2C_prefetches 1780639
Core_1_L2C_prefetch_hit 1112580 L2C_prefetch_Hit Ratio: 0.62482
Core_1_L2C_prefetch_miss 668059
Core_1_L2C_writebacks 742105
Core_1_L2C_writeback_hit 742100 L2C_writeback_Hit Ratio: 0.99999
Core_1_L2C_writeback_miss 5
Core_1_L2C_prefetch_requested 640352
Core_1_L2C_prefetch_issued 640352
Core_1_L2C_prefetch_useful 130322 L2C_Useful Ratio: 0.20352
Core_1_L2C_prefetch_useless 503844
Core_1_L2C_prefetch_late 117299
Core_1_L2C_average_miss_latency 949.72916

Core_1_LLC_total_access 1669316
Core_1_LLC_total_hit 598762 LLC_total_Hit Ratio: 0.35869
Core_1_LLC_total_miss 1070554
Core_1_LLC_loads 168592
Core_1_LLC_load_hit 310 LLC_load_Hit Ratio: 0.00184
Core_1_LLC_load_miss 168282
Core_1_LLC_RFOs 105615
Core_1_LLC_RFO_hit 4 LLC_RFO_Hit Ratio: 0.00004
Core_1_LLC_RFO_miss 105611
Core_1_LLC_prefetches 785282
Core_1_LLC_prefetch_hit 1110 LLC_prefetch_Hit Ratio: 0.00141
Core_1_LLC_prefetch_miss 784172
Core_1_LLC_writebacks 609827
Core_1_LLC_writeback_hit 597338 LLC_writeback_Hit Ratio: 0.97952
Core_1_LLC_writeback_miss 12489
Core_1_LLC_prefetch_requested 0
Core_1_LLC_prefetch_issued 0
Core_1_LLC_prefetch_useful 559 LLC_Useful Ratio: inf
Core_1_LLC_prefetch_useless 2730809
Core_1_LLC_prefetch_late 0
Core_1_LLC_average_miss_latency 3500.58218

Core_1_major_page_fault 0
Core_1_minor_page_fault 8631

Core_2_instructions 120000005
Core_2_cycles 184237156
Core_2_IPC 0.65133

Core_2_branch_prediction_accuracy 99.19576
Core_2_branch_MPKI 0.23763
Core_2_average_ROB_occupancy_at_mispredict 444.09928

Core_2_L1D_total_access 39998244
Core_2_L1D_total_hit 37668715 L1D_total_Hit Ratio: 0.94176
Core_2_L1D_total_miss 2329529
Core_2_L1D_loads 34618408
Core_2_L1D_load_hit 33745037 L1D_load_Hit Ratio: 0.97477
Core_2_L1D_load_miss 873371
Core_2_L1D_RFOs 3299409
Core_2_L1D_RFO_hit 3192942 L1D_RFO_Hit Ratio: 0.96773
Core_2_L1D_RFO_miss 106467
Core_2_L1D_prefetches 2080427
Core_2_L1D_prefetch_hit 730736 L1D_prefetch_Hit Ratio: 0.35124
Core_2_L1D_prefetch_miss 1349691
Core_2_L1D_writebacks 0
Core_2_L1D_writeback_hit 0 L1D_writeback_Hit Ratio: -nan
Core_2_L1D_writeback_miss 0
Core_2_L1D_prefetch_requested 2566334
Core_2_L1D_prefetch_issued 2566334
Core_2_L1D_prefetch_useful 1374617 L1D_Useful Ratio: 0.53563
Core_2_L1D_prefetch_useless 28681
Core_2_L1D_prefetch_late 161245
Core_2_L1D_average_miss_latency 4007215.50752

Core_2_L1I_total_access 18439940
Core_2_L1I_total_hit 18437852 L1I_total_Hit Ratio: 0.99989
Core_2_L1I_total_miss 2088
Core_2_L1I_loads 18439940
Core_2_L1I_load_hit 18437852 L1I_load_Hit Ratio: 0.99989
Core_2_L1I_load_miss 2088
Core_2_L1I_RFOs 0
Core_2_L1I_RFO_hit 0 L1I_RFO_Hit Ratio: -nan
Core_2_L1I_RFO_miss 0
Core_2_L1I_prefetches 0
Core_2_L1I_prefetch_hit 0 L1I_prefetch_Hit Ratio: -nan
Core_2_L1I_prefetch_miss 0
Core_2_L1I_writebacks 0
Core_2_L1I_writeback_hit 0 L1I_writeback_Hit Ratio: -nan
Core_2_L1I_writeback_miss 0
Core_2_L1I_prefetch_requested 0
Core_2_L1I_prefetch_issued 0
Core_2_L1I_prefetch_useful 0 L1I_Useful Ratio: -nan
Core_2_L1I_prefetch_useless 0
Core_2_L1I_prefetch_late 0
Core_2_L1I_average_miss_latency 892.20115

Core_2_L2C_total_access 3457577
Core_2_L2C_total_hit 2398054 L2C_total_Hit Ratio: 0.69356
Core_2_L2C_total_miss 1059523
Core_2_L2C_loads 716691
Core_2_L2C_load_hit 441666 L2C_load_Hit Ratio: 0.61626
Core_2_L2C_load_miss 275025
Core_2_L2C_RFOs 106393
Core_2_L2C_RFO_hit 540 L2C_RFO_Hit Ratio: 0.00508
Core_2_L2C_RFO_miss 105853
Core_2_L2C_prefetches 1890731
Core_2_L2C_prefetch_hit 1212091 L2C_prefetch_Hit Ratio: 0.64107
Core_2_L2C_prefetch_miss 678640
Core_2_L2C_writebacks 743762
Core_2_L2C_writeback_hit 743757 L2C_writeback_Hit Ratio: 0.99999
Core_2_L2C_writeback_miss 5
Core_2_L2C_prefetch_requested 701095
Core_2_L2C_prefetch_issued 701095
Core_2_L2C_prefetch_useful 144574 L2C_Useful Ratio: 0.20621
Core_2_L2C_prefetch_useless 508918
Core_2_L2C_prefetch_late 117621
Core_2_L2C_average_miss_latency 924.45445

Core_2_LLC_total_access 1669666
Core_2_LLC_total_hit 602518 LLC_total_Hit Ratio: 0.36086
Core_2_LLC_total_miss 1067148
Core_2_LLC_loads 157803
Core_2_LLC_load_hit 556 LLC_load_Hit Ratio: 0.00352
Core_2_LLC_load_miss 157247
Core_2_LLC_RFOs 105853
Core_2_LLC_RFO_hit 1 LLC_RFO_Hit Ratio: 0.00001
Core_2_LLC_RFO_miss 105852
Core_2_LLC_prefetches 795862
Core_2_LLC_prefetch_hit 2325 LLC_prefetch_Hit Ratio: 0.00292
Core_2_LLC_prefetch_miss 793537
Core_2_LLC_writebacks 610148
Core_2_LLC_writeback_hit 599636 LLC_writeback_Hit Ratio: 0.98277
Core_2_LLC_writeback_miss 10512
Core_2_LLC_prefetch_requested 0
Core_2_LLC_prefetch_issued 0
Core_2_LLC_prefetch_useful 559 LLC_Useful Ratio: inf
Core_2_LLC_prefetch_useless 2730809
Core_2_LLC_prefetch_late 0
Core_2_LLC_average_miss_latency 3511.75494

Core_2_major_page_fault 0
Core_2_minor_page_fault 8666

Core_3_instructions 120000000
Core_3_cycles 185572955
Core_3_IPC 0.64665

Core_3_branch_prediction_accuracy 99.19477
Core_3_branch_MPKI 0.24129
Core_3_average_ROB_occupancy_at_mispredict 443.95923

Core_3_L1D_total_access 39992026
Core_3_L1D_total_hit 37635893 L1D_total_Hit Ratio: 0.94108
Core_3_L1D_total_miss 2356133
Core_3_L1D_loads 34628603
Core_3_L1D_load_hit 33766197 L1D_load_Hit Ratio: 0.97510
Core_3_L1D_load_miss 862406
Core_3_L1D_RFOs 3299526
Core_3_L1D_RFO_hit 3193042 L1D_RFO_Hit Ratio: 0.96773
Core_3_L1D_RFO_miss 106484
Core_3_L1D_prefetches 2063897
Core_3_L1D_prefetch_hit 676654 L1D_prefetch_Hit Ratio: 0.32785
Core_3_L1D_prefetch_miss 1387243
Core_3_L1D_writebacks 0
Core_3_L1D_writeback_hit 0 L1D_writeback_Hit Ratio: -nan
Core_3_L1D_writeback_miss 0
Core_3_L1D_prefetch_requested 2490500
Core_3_L1D_prefetch_issued 2490500
Core_3_L1D_prefetch_useful 1386426 L1D_Useful Ratio: 0.55669
Core_3_L1D_prefetch_useless 26340
Core_3_L1D_prefetch_late 160381
Core_3_L1D_average_miss_latency 4003594.85046

Core_3_L1I_total_access 18445874
Core_3_L1I_total_hit 18443773 L1I_total_Hit Ratio: 0.99989
Core_3_L1I_total_miss 2101
Core_3_L1I_loads 18445874
Core_3_L1I_load_hit 18443773 L1I_load_Hit Ratio: 0.99989
Core_3_L1I_load_miss 2101
Core_3_L1I_RFOs 0
Core_3_L1I_RFO_hit 0 L1I_RFO_Hit Ratio: -nan
Core_3_L1I_RFO_miss 0
Core_3_L1I_prefetches 0
Core_3_L1I_prefetch_hit 0 L1I_prefetch_Hit Ratio: -nan
Core_3_L1I_prefetch_miss 0
Core_3_L1I_writebacks 0
Core_3_L1I_writeback_hit 0 L1I_writeback_Hit Ratio: -nan
Core_3_L1I_writeback_miss 0
Core_3_L1I_prefetch_requested 0
Core_3_L1I_prefetch_issued 0
Core_3_L1I_prefetch_useful 0 L1I_Useful Ratio: -nan
Core_3_L1I_prefetch_useless 0
Core_3_L1I_prefetch_late 0
Core_3_L1I_average_miss_latency 1104.84722

Core_3_L2C_total_access 3462268
Core_3_L2C_total_hit 2402698 L2C_total_Hit Ratio: 0.69397
Core_3_L2C_total_miss 1059570
Core_3_L2C_loads 705875
Core_3_L2C_load_hit 423341 L2C_load_Hit Ratio: 0.59974
Core_3_L2C_load_miss 282534
Core_3_L2C_RFOs 106396
Core_3_L2C_RFO_hit 491 L2C_RFO_Hit Ratio: 0.00461
Core_3_L2C_RFO_miss 105905
Core_3_L2C_prefetches 1906646
Core_3_L2C_prefetch_hit 1235520 L2C_prefetch_Hit Ratio: 0.64801
Core_3_L2C_prefetch_miss 671126
Core_3_L2C_writebacks 743351
Core_3_L2C_writeback_hit 743346 L2C_writeback_Hit Ratio: 0.99999
Core_3_L2C_writeback_miss 5
Core_3_L2C_prefetch_requested 671226
Core_3_L2C_prefetch_issued 671226
Core_3_L2C_prefetch_useful 134932 L2C_Useful Ratio: 0.20102
Core_3_L2C_prefetch_useless 503369
Core_3_L2C_prefetch_late 118091
Core_3_L2C_average_miss_latency 954.09018

Core_3_LLC_total_access 1669187
Core_3_LLC_total_hit 601123 LLC_total_Hit Ratio: 0.36013
Core_3_LLC_total_miss 1068064
Core_3_LLC_loads 164518
Core_3_LLC_load_hit 174 LLC_load_Hit Ratio: 0.00106
Core_3_LLC_load_miss 164344
Core_3_LLC_RFOs 105905
Core_3_LLC_RFO_hit 1 LLC_RFO_Hit Ratio: 0.00001
Core_3_LLC_RFO_miss 105904
Core_3_LLC_prefetches 789142
Core_3_LLC_prefetch_hit 1363 LLC_prefetch_Hit Ratio: 0.00173
Core_3_LLC_prefetch_miss 787779
Core_3_LLC_writebacks 609622
Core_3_LLC_writeback_hit 599585 LLC_writeback_Hit Ratio: 0.98354
Core_3_LLC_writeback_miss 10037
Core_3_LLC_prefetch_requested 0
Core_3_LLC_prefetch_issued 0
Core_3_LLC_prefetch_useful 559 LLC_Useful Ratio: inf
Core_3_LLC_prefetch_useless 2730809
Core_3_LLC_prefetch_late 0
Core_3_LLC_average_miss_latency 3508.74316

Core_3_major_page_fault 0
Core_3_minor_page_fault 8631

[Bingo] PHT Access: 288737
[Bingo] PHT Hit PC+Addr: 97853
[Bingo] PHT Hit PC+Offs: 180387
[Bingo] PHT Miss: 10497
[Bingo] Prefetch PC+Addr: 0
[Bingo] Prefetch PC+Offs: 0
[Bingo] Useful PC+Addr: 0
[Bingo] Useful PC+Offs: 0
[Bingo] Useless PC+Addr: 0
[Bingo] Useless PC+Offs: 0
[Bingo] L1 Prefetch per Region: 10.64987
[Bingo] L2 Prefetch per Region: 0.57726
[Bingo] L3 Prefetch per Region: 0.00000
[Bingo] No Prefetch per Region: 20.77287
[Bingo] Number of Voters Mean: 15.42795
[Bingo] Number of Voters SD: 3.47036
PHT read accesses: 3772981
PHT write accesses: 275113
AT read accesses: 32769961
AT write accesses: 32770792
FT read accesses: 5052933
FT write accesses: 288737
PS read accesses: 2549636
PS write accesses: 278240
PHT tag read accesses: 11093847
PHT tag write accesses: 372966
AT tag read accesses: 717361591
AT tag write accesses: 33045071
FT tag read accesses: 200904274
FT tag write accesses: 2959272
PS tag read accesses: 567681487
PS tag write accesses: 2817227
[Bingo2] PHT Access: 141015
[Bingo2] PHT Hit PC+Addr: 6613
[Bingo2] PHT Hit PC+Offs: 127142
[Bingo2] PHT Miss: 7260
[Bingo2] Prefetch PC+Addr: 0
[Bingo2] Prefetch PC+Offs: 0
[Bingo2] Useful PC+Addr: 0
[Bingo2] Useful PC+Offs: 0
[Bingo2] Useless PC+Addr: 0
[Bingo2] Useless PC+Offs: 0
[Bingo2] L1 Prefetch per Region: 0.00000
[Bingo2] L2 Prefetch per Region: 8.03023
[Bingo2] L3 Prefetch per Region: 0.00000
[Bingo2] No Prefetch per Region: 23.96977
[Bingo2] Number of Voters Mean: 15.75834
[Bingo2] Number of Voters SD: 1.50334
PHT read accesses: 2092944
PHT write accesses: 90332
AT read accesses: 572165
AT write accesses: 662363
FT read accesses: 278845
FT write accesses: 141015
PS read accesses: 317492
PS write accesses: 133755
PHT tag read accesses: 5032988
PHT tag write accesses: 96945
AT tag read accesses: 80691260
AT tag write accesses: 662497
FT tag read accesses: 73868654
FT tag write accesses: 325661
PS tag read accesses: 16105587
PS tag write accesses: 444259
[Bingo] PHT Access: 293056
[Bingo] PHT Hit PC+Addr: 96339
[Bingo] PHT Hit PC+Offs: 185952
[Bingo] PHT Miss: 10765
[Bingo] Prefetch PC+Addr: 0
[Bingo] Prefetch PC+Offs: 0
[Bingo] Useful PC+Addr: 0
[Bingo] Useful PC+Offs: 0
[Bingo] Useless PC+Addr: 0
[Bingo] Useless PC+Offs: 0
[Bingo] L1 Prefetch per Region: 10.61448
[Bingo] L2 Prefetch per Region: 0.51798
[Bingo] L3 Prefetch per Region: 0.00000
[Bingo] No Prefetch per Region: 20.86754
[Bingo] Number of Voters Mean: 15.39382
[Bingo] Number of Voters SD: 2.45004
PHT read accesses: 3836805
PHT write accesses: 279943
AT read accesses: 33515792
AT write accesses: 33516622
FT read accesses: 5067146
FT write accesses: 293056
PS read accesses: 2594995
PS write accesses: 282291
PHT tag read accesses: 11336016
PHT tag write accesses: 376282
AT tag read accesses: 731419213
AT tag write accesses: 33795803
FT tag read accesses: 203194214
FT tag write accesses: 2972822
PS tag read accesses: 579681561
PS tag write accesses: 2867205
[Bingo2] PHT Access: 144795
[Bingo2] PHT Hit PC+Addr: 6173
[Bingo2] PHT Hit PC+Offs: 125796
[Bingo2] PHT Miss: 12826
[Bingo2] Prefetch PC+Addr: 0
[Bingo2] Prefetch PC+Offs: 0
[Bingo2] Useful PC+Addr: 0
[Bingo2] Useful PC+Offs: 0
[Bingo2] Useless PC+Addr: 0
[Bingo2] Useless PC+Offs: 0
[Bingo2] L1 Prefetch per Region: 0.00000
[Bingo2] L2 Prefetch per Region: 7.17550
[Bingo2] L3 Prefetch per Region: 0.00000
[Bingo2] No Prefetch per Region: 24.82450
[Bingo2] Number of Voters Mean: 15.52272
[Bingo2] Number of Voters SD: 2.11113
PHT read accesses: 2035521
PHT write accesses: 90604
AT read accesses: 566100
AT write accesses: 656694
FT read accesses: 280225
FT write accesses: 144795
PS read accesses: 312013
PS write accesses: 131969
PHT tag read accesses: 5089465
PHT tag write accesses: 96777
AT tag read accesses: 80674532
AT tag write accesses: 656832
FT tag read accesses: 74051780
FT tag write accesses: 330317
PS tag read accesses: 15966973
PS tag write accesses: 439957
[Bingo] PHT Access: 301150
[Bingo] PHT Hit PC+Addr: 103005
[Bingo] PHT Hit PC+Offs: 186690
[Bingo] PHT Miss: 11455
[Bingo] Prefetch PC+Addr: 0
[Bingo] Prefetch PC+Offs: 0
[Bingo] Useful PC+Addr: 0
[Bingo] Useful PC+Offs: 0
[Bingo] Useless PC+Addr: 0
[Bingo] Useless PC+Offs: 0
[Bingo] L1 Prefetch per Region: 10.68016
[Bingo] L2 Prefetch per Region: 0.55123
[Bingo] L3 Prefetch per Region: 0.00000
[Bingo] No Prefetch per Region: 20.76861
[Bingo] Number of Voters Mean: 15.36798
[Bingo] Number of Voters SD: 2.50298
PHT read accesses: 3927540
PHT write accesses: 287317
AT read accesses: 34263722
AT write accesses: 34264537
FT read accesses: 5099994
FT write accesses: 301150
PS read accesses: 2692394
PS write accesses: 289695
PHT tag read accesses: 11554789
PHT tag write accesses: 390322
AT tag read accesses: 743781592
AT tag write accesses: 34551100
FT tag read accesses: 203766212
FT tag write accesses: 3001443
PS tag read accesses: 592078317
PS tag write accesses: 2969702
[Bingo2] PHT Access: 146983
[Bingo2] PHT Hit PC+Addr: 7439
[Bingo2] PHT Hit PC+Offs: 127443
[Bingo2] PHT Miss: 12101
[Bingo2] Prefetch PC+Addr: 0
[Bingo2] Prefetch PC+Offs: 0
[Bingo2] Useful PC+Addr: 0
[Bingo2] Useful PC+Offs: 0
[Bingo2] Useless PC+Addr: 0
[Bingo2] Useless PC+Offs: 0
[Bingo2] L1 Prefetch per Region: 0.00000
[Bingo2] L2 Prefetch per Region: 7.79836
[Bingo2] L3 Prefetch per Region: 0.00000
[Bingo2] No Prefetch per Region: 24.20164
[Bingo2] Number of Voters Mean: 15.69136
[Bingo2] Number of Voters SD: 1.81386
PHT read accesses: 2092474
PHT write accesses: 93186
AT read accesses: 593951
AT write accesses: 687132
FT read accesses: 291658
FT write accesses: 146983
PS read accesses: 320361
PS write accesses: 134882
PHT tag read accesses: 5197001
PHT tag write accesses: 100625
AT tag read accesses: 81308661
AT tag write accesses: 687265
FT tag read accesses: 74256030
FT tag write accesses: 339515
PS tag read accesses: 16606253
PS tag write accesses: 448561
[Bingo] PHT Access: 292267
[Bingo] PHT Hit PC+Addr: 94553
[Bingo] PHT Hit PC+Offs: 186704
[Bingo] PHT Miss: 11010
[Bingo] Prefetch PC+Addr: 0
[Bingo] Prefetch PC+Offs: 0
[Bingo] Useful PC+Addr: 0
[Bingo] Useful PC+Offs: 0
[Bingo] Useless PC+Addr: 0
[Bingo] Useless PC+Offs: 0
[Bingo] L1 Prefetch per Region: 10.65677
[Bingo] L2 Prefetch per Region: 0.53703
[Bingo] L3 Prefetch per Region: 0.00000
[Bingo] No Prefetch per Region: 20.80620
[Bingo] Number of Voters Mean: 15.41060
[Bingo] Number of Voters SD: 2.42503
PHT read accesses: 3844500
PHT write accesses: 279169
AT read accesses: 33516036
AT write accesses: 33516921
FT read accesses: 5069865
FT write accesses: 292267
PS read accesses: 2591738
PS write accesses: 281257
PHT tag read accesses: 11344307
PHT tag write accesses: 373722
AT tag read accesses: 731434773
AT tag write accesses: 33795262
FT tag read accesses: 203173331
FT tag write accesses: 2973021
PS tag read accesses: 579622824
PS tag write accesses: 2862980
[Bingo2] PHT Access: 149299
[Bingo2] PHT Hit PC+Addr: 6745
[Bingo2] PHT Hit PC+Offs: 129489
[Bingo2] PHT Miss: 13065
[Bingo2] Prefetch PC+Addr: 0
[Bingo2] Prefetch PC+Offs: 0
[Bingo2] Useful PC+Addr: 0
[Bingo2] Useful PC+Offs: 0
[Bingo2] Useless PC+Addr: 0
[Bingo2] Useless PC+Offs: 0
[Bingo2] L1 Prefetch per Region: 0.00000
[Bingo2] L2 Prefetch per Region: 7.29703
[Bingo2] L3 Prefetch per Region: 0.00000
[Bingo2] No Prefetch per Region: 24.70297
[Bingo2] Number of Voters Mean: 15.62536
[Bingo2] Number of Voters SD: 1.93008
PHT read accesses: 2114510
PHT write accesses: 91498
AT read accesses: 567233
AT write accesses: 658722
FT read accesses: 283108
FT write accesses: 149299
PS read accesses: 320179
PS write accesses: 136234
PHT tag read accesses: 5182960
PHT tag write accesses: 98243
AT tag read accesses: 80809183
AT tag write accesses: 658859
FT tag read accesses: 74291242
FT tag write accesses: 336713
PS tag read accesses: 16184529
PS tag write accesses: 450758
Channel_0_RQ_row_buffer_hit 1842501
Channel_0_RQ_row_buffer_miss 2400669
Channel_0_WQ_row_buffer_hit 792046
Channel_0_WQ_row_buffer_miss 1617689
Channel_0_WQ_full 12623
Channel_0_dbus_congested 4819530

avg_congested_cycle 8

EzSearch AVG IPC :0.64634: L2-Pf-HR :0.63866 : L2-HR :0.69083 Uful:0.19302
EzSearch AVG IPC :0.64662: L2-Pf-HR :0.62482 : L2-HR :0.68194 Uful:0.20352
EzSearch AVG IPC :0.65133: L2-Pf-HR :0.64107 : L2-HR :0.69561 Uful:0.20621
EzSearch AVG IPC :0.64665: L2-Pf-HR :0.64801 : L2-HR :0.69410 Uful:0.20102
     > Finished combination: TraceType=770-tot Sim:120000000 Prefetcher=L2bingo_dpc3 L1=bingo_dpc3
