TRACE: [83000000][Pythia-70M]_[h8][s512][d64] Warmup: 2000000 NumTraces: 83000000
L1:bingo_dpc3_PHT1k:L2:bingo_dpc3_PHT1k
*************************************************
   ChampSim Multicore Out-of-Order Simulator
   Last compiled: Oct 29 2024 03:51:53
*************************************************

trace_0 770-tot_memTraces_v3/memTraces[83000000][Pythia-70M]_[h8][s512][d64].champsim.xz
trace_1 770-tot_memTraces_v3/memTraces[83000000][Pythia-70M]_[h8][s512][d64].champsim.xz
trace_2 770-tot_memTraces_v3/memTraces[83000000][Pythia-70M]_[h8][s512][d64].champsim.xz
trace_3 770-tot_memTraces_v3/memTraces[83000000][Pythia-70M]_[h8][s512][d64].champsim.xz
Bingo PHT WAYS: 16 and PHT_SIZE: 1024
Bingo2 PHT WAYS: 16 and PHT_SIZE: 1024
Bingo PHT WAYS: 16 and PHT_SIZE: 1024
Bingo2 PHT WAYS: 16 and PHT_SIZE: 1024
Bingo PHT WAYS: 16 and PHT_SIZE: 1024
Bingo2 PHT WAYS: 16 and PHT_SIZE: 1024
Bingo PHT WAYS: 16 and PHT_SIZE: 1024
Bingo2 PHT WAYS: 16 and PHT_SIZE: 1024
MAIN.cc ln 751 stats print skipped
CPU  0 inst:    1000003 cyc:     498171 now IPC :2.00735: AVG IPC :2.00735: L2-Pf-HR :0.66538: L2-HR :0.59396: (Sim:0h0m47s) 
CPU  2 inst:    1000003 cyc:     498351 now IPC :2.00662: AVG IPC :2.00662: L2-Pf-HR :0.74366: L2-HR :0.63742: (Sim:0h0m47s) 
CPU  1 inst:    1000003 cyc:     498368 now IPC :2.00656: AVG IPC :2.00656: L2-Pf-HR :0.69188: L2-HR :0.59985: (Sim:0h0m47s) 
CPU  3 inst:    1000003 cyc:     498414 now IPC :2.00637: AVG IPC :2.00637: L2-Pf-HR :0.74393: L2-HR :0.61682: (Sim:0h0m47s) 
CPU  0 inst:    2000001 cyc:     980569 now IPC :2.07297: AVG IPC :2.03963: L2-Pf-HR :0.68755: L2-HR :0.66215: (Sim:0h1m39s) 
CPU  2 inst:    2000001 cyc:     980699 now IPC :2.07319: AVG IPC :2.03936: L2-Pf-HR :0.78731: L2-HR :0.71739: (Sim:0h1m39s) 
CPU  1 inst:    2000001 cyc:     980870 now IPC :2.07253: AVG IPC :2.03901: L2-Pf-HR :0.69809: L2-HR :0.65857: (Sim:0h1m39s) 
CPU  3 inst:    2000001 cyc:     980926 now IPC :2.07248: AVG IPC :2.03889: L2-Pf-HR :0.78532: L2-HR :0.70484: (Sim:0h1m39s) 

Warmup complete CPU  0 instructions:    2000784 cycles:     980926 (Simulation time: 0 hr 1 min 39 sec) 
Warmup complete CPU  1 instructions:    2000169 cycles:     980926 (Simulation time: 0 hr 1 min 39 sec) 
Warmup complete CPU  2 instructions:    2000425 cycles:     980926 (Simulation time: 0 hr 1 min 39 sec) 
Warmup complete CPU  3 instructions:    2000001 cycles:     980926 (Simulation time: 0 hr 1 min 39 sec) 

CPU  0 inst:    3000004 cyc:    1750593 now IPC :1.29866: AVG IPC :1.29825: L2-Pf-HR :0.81646: L2-HR :0.76655: (Sim:0h2m29s) 
CPU  1 inst:    3000004 cyc:    1751705 now IPC :1.29730: AVG IPC :1.29717: L2-Pf-HR :0.82402: L2-HR :0.76322: (Sim:0h2m29s) 
CPU  3 inst:    3000004 cyc:    1754944 now IPC :1.29196: AVG IPC :1.29196: L2-Pf-HR :0.85682: L2-HR :0.78522: (Sim:0h2m29s) 
CPU  2 inst:    3000004 cyc:    1760479 now IPC :1.28242: AVG IPC :1.28225: L2-Pf-HR :0.86983: L2-HR :0.79751: (Sim:0h2m29s) 
CPU  1 inst:    4000005 cyc:    2488170 now IPC :1.35784: AVG IPC :1.32682: L2-Pf-HR :0.80351: L2-HR :0.75582: (Sim:0h3m18s) 
CPU  3 inst:    4000005 cyc:    2489994 now IPC :1.36045: AVG IPC :1.32532: L2-Pf-HR :0.82461: L2-HR :0.76690: (Sim:0h3m18s) 
CPU  2 inst:    4000005 cyc:    2492850 now IPC :1.36543: AVG IPC :1.32254: L2-Pf-HR :0.83294: L2-HR :0.77473: (Sim:0h3m18s) 
CPU  0 inst:    4000005 cyc:    2494276 now IPC :1.34466: AVG IPC :1.32106: L2-Pf-HR :0.84556: L2-HR :0.78541: (Sim:0h3m18s) 
CPU  1 inst:    5000003 cyc:    3224787 now IPC :1.35755: AVG IPC :1.33691: L2-Pf-HR :0.77143: L2-HR :0.76132: (Sim:0h4m5s) 
CPU  3 inst:    5000003 cyc:    3262423 now IPC :1.29461: AVG IPC :1.31493: L2-Pf-HR :0.79499: L2-HR :0.76865: (Sim:0h4m8s) 
CPU  0 inst:    5000003 cyc:    3267866 now IPC :1.29267: AVG IPC :1.31146: L2-Pf-HR :0.81210: L2-HR :0.78583: (Sim:0h4m8s) 
CPU  2 inst:    5000003 cyc:    3267984 now IPC :1.29010: AVG IPC :1.31154: L2-Pf-HR :0.79062: L2-HR :0.76741: (Sim:0h4m8s) 
CPU  1 inst:    6000001 cyc:    3826347 now IPC :1.66234: AVG IPC :1.40571: L2-Pf-HR :0.78755: L2-HR :0.78095: (Sim:0h4m51s) 
CPU  0 inst:    6000001 cyc:    3864669 now IPC :1.67559: AVG IPC :1.38681: L2-Pf-HR :0.81210: L2-HR :0.79913: (Sim:0h4m54s) 
CPU  3 inst:    6000001 cyc:    3901462 now IPC :1.56485: AVG IPC :1.36961: L2-Pf-HR :0.80434: L2-HR :0.78606: (Sim:0h4m57s) 
CPU  2 inst:    6000001 cyc:    3918190 now IPC :1.53797: AVG IPC :1.36167: L2-Pf-HR :0.82140: L2-HR :0.79687: (Sim:0h4m58s) 
CPU  1 inst:    7000002 cyc:    4434914 now IPC :1.64321: AVG IPC :1.44755: L2-Pf-HR :0.79743: L2-HR :0.78915: (Sim:0h5m36s) 
CPU  0 inst:    7000002 cyc:    4495796 now IPC :1.58447: AVG IPC :1.42231: L2-Pf-HR :0.81681: L2-HR :0.80503: (Sim:0h5m41s) 
CPU  3 inst:    7000002 cyc:    4569018 now IPC :1.49800: AVG IPC :1.39350: L2-Pf-HR :0.81785: L2-HR :0.79185: (Sim:0h5m46s) 
CPU  2 inst:    7000002 cyc:    4571079 now IPC :1.53166: AVG IPC :1.39258: L2-Pf-HR :0.83303: L2-HR :0.80430: (Sim:0h5m46s) 
CPU  1 inst:    8000001 cyc:    5094222 now IPC :1.51674: AVG IPC :1.45864: L2-Pf-HR :0.80050: L2-HR :0.78818: (Sim:0h6m25s) 
CPU  0 inst:    8000001 cyc:    5107077 now IPC :1.63591: AVG IPC :1.45395: L2-Pf-HR :0.82594: L2-HR :0.80842: (Sim:0h6m26s) 
CPU  2 inst:    8000001 cyc:    5242228 now IPC :1.48998: AVG IPC :1.40792: L2-Pf-HR :0.83219: L2-HR :0.80163: (Sim:0h6m35s) 
CPU  3 inst:    8000001 cyc:    5242432 now IPC :1.48497: AVG IPC :1.40795: L2-Pf-HR :0.81785: L2-HR :0.78919: (Sim:0h6m35s) 
CPU  1 inst:    9000005 cyc:    5819678 now IPC :1.37845: AVG IPC :1.44662: L2-Pf-HR :0.78178: L2-HR :0.78059: (Sim:0h7m14s) 
CPU  0 inst:    9000005 cyc:    5820725 now IPC :1.40126: AVG IPC :1.44618: L2-Pf-HR :0.81272: L2-HR :0.80297: (Sim:0h7m14s) 
CPU  3 inst:    9000005 cyc:    5940657 now IPC :1.43221: AVG IPC :1.41137: L2-Pf-HR :0.80049: L2-HR :0.78434: (Sim:0h7m23s) 
CPU  2 inst:    9000005 cyc:    5962477 now IPC :1.38841: AVG IPC :1.40510: L2-Pf-HR :0.81576: L2-HR :0.79508: (Sim:0h7m25s) 
CPU  0 inst:   10000002 cyc:    6434074 now IPC :1.63039: AVG IPC :1.46690: L2-Pf-HR :0.81284: L2-HR :0.80669: (Sim:0h8m2s) 
CPU  1 inst:   10000002 cyc:    6451469 now IPC :1.58280: AVG IPC :1.46235: L2-Pf-HR :0.79230: L2-HR :0.78916: (Sim:0h8m3s) 
CPU  3 inst:   10000002 cyc:    6521951 now IPC :1.72029: AVG IPC :1.44378: L2-Pf-HR :0.81058: L2-HR :0.79460: (Sim:0h8m9s) 
CPU  2 inst:   10000002 cyc:    6582391 now IPC :1.61312: AVG IPC :1.42812: L2-Pf-HR :0.82166: L2-HR :0.80218: (Sim:0h8m13s) 
CPU  0 inst:   11000003 cyc:    7020135 now IPC :1.70631: AVG IPC :1.49013: L2-Pf-HR :0.81861: L2-HR :0.81260: (Sim:0h8m47s) 
CPU  1 inst:   11000003 cyc:    7082564 now IPC :1.58455: AVG IPC :1.47499: L2-Pf-HR :0.80078: L2-HR :0.79452: (Sim:0h8m52s) 
CPU  3 inst:   11000003 cyc:    7141822 now IPC :1.61324: AVG IPC :1.46083: L2-Pf-HR :0.81562: L2-HR :0.79963: (Sim:0h8m56s) 
CPU  2 inst:   11000003 cyc:    7181815 now IPC :1.66827: AVG IPC :1.45134: L2-Pf-HR :0.82545: L2-HR :0.80699: (Sim:0h8m59s) 
CPU  0 inst:   12000005 cyc:    7659693 now IPC :1.56358: AVG IPC :1.49717: L2-Pf-HR :0.82403: L2-HR :0.81327: (Sim:0h9m35s) 
CPU  1 inst:   12000005 cyc:    7696991 now IPC :1.62754: AVG IPC :1.48894: L2-Pf-HR :0.80516: L2-HR :0.79490: (Sim:0h9m38s) 
CPU  3 inst:   12000005 cyc:    7770738 now IPC :1.59004: AVG IPC :1.47280: L2-Pf-HR :0.81869: L2-HR :0.79924: (Sim:0h9m44s) 
CPU  2 inst:   12000005 cyc:    7820713 now IPC :1.56520: AVG IPC :1.46197: L2-Pf-HR :0.82686: L2-HR :0.80640: (Sim:0h9m47s) 
CPU  0 inst:   13000005 cyc:    8370032 now IPC :1.40778: AVG IPC :1.48857: L2-Pf-HR :0.82086: L2-HR :0.80986: (Sim:0h10m25s) 
CPU  1 inst:   13000005 cyc:    8387434 now IPC :1.44835: AVG IPC :1.48516: L2-Pf-HR :0.79516: L2-HR :0.78969: (Sim:0h10m26s) 
CPU  3 inst:   13000005 cyc:    8446749 now IPC :1.47927: AVG IPC :1.47338: L2-Pf-HR :0.80928: L2-HR :0.79400: (Sim:0h10m31s) 
CPU  2 inst:   13000005 cyc:    8526548 now IPC :1.41676: AVG IPC :1.45774: L2-Pf-HR :0.81395: L2-HR :0.79928: (Sim:0h10m37s) 
CPU  0 inst:   14000002 cyc:    8981788 now IPC :1.63463: AVG IPC :1.49974: L2-Pf-HR :0.82067: L2-HR :0.81137: (Sim:0h11m12s) 
CPU  1 inst:   14000002 cyc:    9011739 now IPC :1.60178: AVG IPC :1.49422: L2-Pf-HR :0.80063: L2-HR :0.79448: (Sim:0h11m15s) 
CPU  3 inst:   14000002 cyc:    9060306 now IPC :1.62984: AVG IPC :1.48526: L2-Pf-HR :0.81557: L2-HR :0.79996: (Sim:0h11m19s) 
CPU  2 inst:   14000002 cyc:    9118876 now IPC :1.68825: AVG IPC :1.47452: L2-Pf-HR :0.82177: L2-HR :0.80553: (Sim:0h11m23s) 
CPU  0 inst:   15000002 cyc:    9571157 now IPC :1.69673: AVG IPC :1.51326: L2-Pf-HR :0.82193: L2-HR :0.81313: (Sim:0h11m57s) 
CPU  1 inst:   15000002 cyc:    9649394 now IPC :1.56825: AVG IPC :1.49967: L2-Pf-HR :0.80725: L2-HR :0.79809: (Sim:0h12m4s) 
CPU  3 inst:   15000002 cyc:    9706634 now IPC :1.54720: AVG IPC :1.48985: L2-Pf-HR :0.81554: L2-HR :0.80077: (Sim:0h12m8s) 
CPU  2 inst:   15000002 cyc:    9751254 now IPC :1.58133: AVG IPC :1.48222: L2-Pf-HR :0.82511: L2-HR :0.80734: (Sim:0h12m12s) 
CPU  0 inst:   16000000 cyc:   10194263 now IPC :1.60486: AVG IPC :1.51945: L2-Pf-HR :0.82568: L2-HR :0.81422: (Sim:0h12m45s) 
CPU  1 inst:   16000000 cyc:   10265512 now IPC :1.62306: AVG IPC :1.50786: L2-Pf-HR :0.81175: L2-HR :0.79905: (Sim:0h12m50s) 
CPU  3 inst:   16000000 cyc:   10328821 now IPC :1.60723: AVG IPC :1.49766: L2-Pf-HR :0.81764: L2-HR :0.80137: (Sim:0h12m55s) 
CPU  2 inst:   16000000 cyc:   10380304 now IPC :1.58970: AVG IPC :1.48942: L2-Pf-HR :0.82749: L2-HR :0.80741: (Sim:0h12m59s) 
CPU  0 inst:   17000003 cyc:   10890415 now IPC :1.43647: AVG IPC :1.51362: L2-Pf-HR :0.82150: L2-HR :0.81094: (Sim:0h13m34s) 
CPU  1 inst:   17000003 cyc:   10944106 now IPC :1.47364: AVG IPC :1.50553: L2-Pf-HR :0.80416: L2-HR :0.79428: (Sim:0h13m38s) 
CPU  3 inst:   17000003 cyc:   11028065 now IPC :1.43012: AVG IPC :1.49296: L2-Pf-HR :0.81156: L2-HR :0.79677: (Sim:0h13m44s) 
CPU  2 inst:   17000003 cyc:   11097307 now IPC :1.39470: AVG IPC :1.48270: L2-Pf-HR :0.81994: L2-HR :0.80238: (Sim:0h13m49s) 
CPU  0 inst:   18000000 cyc:   11487486 now IPC :1.67484: AVG IPC :1.52278: L2-Pf-HR :0.82367: L2-HR :0.81346: (Sim:0h14m20s) 
CPU  1 inst:   18000000 cyc:   11564131 now IPC :1.61283: AVG IPC :1.51181: L2-Pf-HR :0.80584: L2-HR :0.79680: (Sim:0h14m26s) 
CPU  3 inst:   18000000 cyc:   11649545 now IPC :1.60906: AVG IPC :1.49973: L2-Pf-HR :0.81345: L2-HR :0.79895: (Sim:0h14m33s) 
CPU  2 inst:   18000000 cyc:   11705608 now IPC :1.64392: AVG IPC :1.49185: L2-Pf-HR :0.82228: L2-HR :0.80564: (Sim:0h14m37s) 
CPU  0 inst:   19000001 cyc:   12078376 now IPC :1.69236: AVG IPC :1.53181: L2-Pf-HR :0.82290: L2-HR :0.81352: (Sim:0h15m7s) 
CPU  1 inst:   19000001 cyc:   12164339 now IPC :1.66609: AVG IPC :1.52009: L2-Pf-HR :0.80950: L2-HR :0.79911: (Sim:0h15m13s) 
CPU  3 inst:   19000001 cyc:   12242962 now IPC :1.68516: AVG IPC :1.50950: L2-Pf-HR :0.81662: L2-HR :0.80121: (Sim:0h15m20s) 
CPU  2 inst:   19000001 cyc:   12312618 now IPC :1.64742: AVG IPC :1.50018: L2-Pf-HR :0.82484: L2-HR :0.80756: (Sim:0h15m25s) 
CPU  0 inst:   20000000 cyc:   12696030 now IPC :1.61903: AVG IPC :1.53641: L2-Pf-HR :0.82543: L2-HR :0.81448: (Sim:0h15m55s) 
CPU  1 inst:   20000000 cyc:   12777246 now IPC :1.63157: AVG IPC :1.52589: L2-Pf-HR :0.81376: L2-HR :0.80099: (Sim:0h16m1s) 
CPU  3 inst:   20000000 cyc:   12854216 now IPC :1.63598: AVG IPC :1.51601: L2-Pf-HR :0.81891: L2-HR :0.80203: (Sim:0h16m7s) 
CPU  2 inst:   20000000 cyc:   12931382 now IPC :1.61612: AVG IPC :1.50618: L2-Pf-HR :0.82741: L2-HR :0.80858: (Sim:0h16m12s) 
CPU  0 inst:   21000003 cyc:   13379400 now IPC :1.46334: AVG IPC :1.53238: L2-Pf-HR :0.82306: L2-HR :0.81237: (Sim:0h16m43s) 
CPU  1 inst:   21000001 cyc:   13483044 now IPC :1.41684: AVG IPC :1.51973: L2-Pf-HR :0.80817: L2-HR :0.79757: (Sim:0h16m50s) 
CPU  3 inst:   21000002 cyc:   13565100 now IPC :1.40670: AVG IPC :1.50983: L2-Pf-HR :0.81365: L2-HR :0.79805: (Sim:0h16m56s) 
CPU  2 inst:   21000003 cyc:   13665716 now IPC :1.36178: AVG IPC :1.49782: L2-Pf-HR :0.82099: L2-HR :0.80401: (Sim:0h17m4s) 
CPU  0 inst:   22000004 cyc:   13984847 now IPC :1.65167: AVG IPC :1.53794: L2-Pf-HR :0.82395: L2-HR :0.81356: (Sim:0h17m29s) 
CPU  1 inst:   22000001 cyc:   14087631 now IPC :1.65402: AVG IPC :1.52592: L2-Pf-HR :0.80877: L2-HR :0.79886: (Sim:0h17m38s) 
CPU  3 inst:   22000001 cyc:   14176839 now IPC :1.63468: AVG IPC :1.51562: L2-Pf-HR :0.81630: L2-HR :0.80037: (Sim:0h17m45s) 
CPU  2 inst:   22000004 cyc:   14248900 now IPC :1.71473: AVG IPC :1.50736: L2-Pf-HR :0.82060: L2-HR :0.80522: (Sim:0h17m51s) 
CPU  0 inst:   23000002 cyc:   14543834 now IPC :1.78895: AVG IPC :1.54828: L2-Pf-HR :0.82285: L2-HR :0.81429: (Sim:0h18m14s) 
CPU  1 inst:   23000002 cyc:   14670112 now IPC :1.71680: AVG IPC :1.53405: L2-Pf-HR :0.80932: L2-HR :0.80006: (Sim:0h18m24s) 
CPU  3 inst:   23000002 cyc:   14794077 now IPC :1.62012: AVG IPC :1.52029: L2-Pf-HR :0.81790: L2-HR :0.80149: (Sim:0h18m34s) 
CPU  2 inst:   23000002 cyc:   14868613 now IPC :1.61365: AVG IPC :1.51210: L2-Pf-HR :0.82387: L2-HR :0.80750: (Sim:0h18m40s) 
CPU  0 inst:   24000001 cyc:   15157410 now IPC :1.62979: AVG IPC :1.55181: L2-Pf-HR :0.82488: L2-HR :0.81514: (Sim:0h19m2s) 
CPU  1 inst:   24000001 cyc:   15299557 now IPC :1.58870: AVG IPC :1.53645: L2-Pf-HR :0.81213: L2-HR :0.80132: (Sim:0h19m13s) 
CPU  3 inst:   24000001 cyc:   15435289 now IPC :1.55955: AVG IPC :1.52203: L2-Pf-HR :0.82015: L2-HR :0.80206: (Sim:0h19m22s) 
CPU  2 inst:   24000001 cyc:   15491713 now IPC :1.60488: AVG IPC :1.51608: L2-Pf-HR :0.82654: L2-HR :0.80872: (Sim:0h19m26s) 
CPU  0 inst:   25000000 cyc:   15942681 now IPC :1.27344: AVG IPC :1.53720: L2-Pf-HR :0.82336: L2-HR :0.81348: (Sim:0h19m54s) 
CPU  1 inst:   25000000 cyc:   16141759 now IPC :1.18736: AVG IPC :1.51706: L2-Pf-HR :0.80771: L2-HR :0.79839: (Sim:0h20m5s) 
CPU  3 inst:   25000003 cyc:   16335802 now IPC :1.11048: AVG IPC :1.49790: L2-Pf-HR :0.81448: L2-HR :0.79819: (Sim:0h20m15s) 
CPU  2 inst:   25000005 cyc:   16400774 now IPC :1.10004: AVG IPC :1.49156: L2-Pf-HR :0.82195: L2-HR :0.80505: (Sim:0h20m19s) 
CPU  0 inst:   26000002 cyc:   16712701 now IPC :1.29867: AVG IPC :1.52553: L2-Pf-HR :0.82392: L2-HR :0.81432: (Sim:0h20m40s) 
CPU  1 inst:   26000002 cyc:   16957125 now IPC :1.22645: AVG IPC :1.50222: L2-Pf-HR :0.80830: L2-HR :0.79924: (Sim:0h20m57s) 
CPU  3 inst:   26000002 cyc:   17089618 now IPC :1.32658: AVG IPC :1.48988: L2-Pf-HR :0.81687: L2-HR :0.80044: (Sim:0h21m6s) 
CPU  2 inst:   26000002 cyc:   17149888 now IPC :1.33491: AVG IPC :1.48430: L2-Pf-HR :0.82340: L2-HR :0.80690: (Sim:0h21m10s) 
CPU  0 inst:   27000000 cyc:   17431902 now IPC :1.39043: AVG IPC :1.51962: L2-Pf-HR :0.82409: L2-HR :0.81504: (Sim:0h21m29s) 
CPU  1 inst:   27000000 cyc:   17676935 now IPC :1.38925: AVG IPC :1.49735: L2-Pf-HR :0.80982: L2-HR :0.80057: (Sim:0h21m45s) 
CPU  3 inst:   27000000 cyc:   17857396 now IPC :1.30246: AVG IPC :1.48135: L2-Pf-HR :0.81976: L2-HR :0.80201: (Sim:0h21m56s) 
CPU  2 inst:   27000000 cyc:   17897956 now IPC :1.33677: AVG IPC :1.47778: L2-Pf-HR :0.82462: L2-HR :0.80836: (Sim:0h21m59s) 
CPU  0 inst:   28000004 cyc:   18181253 now IPC :1.33449: AVG IPC :1.51155: L2-Pf-HR :0.82494: L2-HR :0.81557: (Sim:0h22m17s) 
CPU  1 inst:   28000004 cyc:   18442552 now IPC :1.30614: AVG IPC :1.48897: L2-Pf-HR :0.81252: L2-HR :0.80162: (Sim:0h22m32s) 
CPU  3 inst:   28000004 cyc:   18716154 now IPC :1.16448: AVG IPC :1.46601: L2-Pf-HR :0.82253: L2-HR :0.80276: (Sim:0h22m47s) 
CPU  2 inst:   28000004 cyc:   18743802 now IPC :1.18225: AVG IPC :1.46370: L2-Pf-HR :0.82688: L2-HR :0.80928: (Sim:0h22m49s) 
CPU  0 inst:   29000002 cyc:   19181000 now IPC :1.00025: AVG IPC :1.48347: L2-Pf-HR :0.82427: L2-HR :0.81448: (Sim:0h23m13s) 
CPU  1 inst:   29000002 cyc:   19458542 now IPC :0.98426: AVG IPC :1.46122: L2-Pf-HR :0.80871: L2-HR :0.79892: (Sim:0h23m27s) 
CPU  3 inst:   29000002 cyc:   19833047 now IPC :0.89534: AVG IPC :1.43220: L2-Pf-HR :0.81888: L2-HR :0.79984: (Sim:0h23m45s) 
CPU  2 inst:   29000002 cyc:   19916430 now IPC :0.85278: AVG IPC :1.42587: L2-Pf-HR :0.82259: L2-HR :0.80599: (Sim:0h23m49s) 
CPU  0 inst:   30000001 cyc:   20234619 now IPC :0.94911: AVG IPC :1.45423: L2-Pf-HR :0.82440: L2-HR :0.81473: (Sim:0h24m7s) 
CPU  1 inst:   30000000 cyc:   20384530 now IPC :1.07993: AVG IPC :1.44302: L2-Pf-HR :0.80888: L2-HR :0.79970: (Sim:0h24m15s) 
CPU  3 inst:   30000000 cyc:   20792570 now IPC :1.04218: AVG IPC :1.41331: L2-Pf-HR :0.81969: L2-HR :0.80096: (Sim:0h24m39s) 
CPU  2 inst:   30000000 cyc:   20916699 now IPC :0.99973: AVG IPC :1.40449: L2-Pf-HR :0.82293: L2-HR :0.80701: (Sim:0h24m47s) 
CPU  0 inst:   31000004 cyc:   21220911 now IPC :1.01390: AVG IPC :1.43277: L2-Pf-HR :0.82460: L2-HR :0.81520: (Sim:0h25m5s) 
CPU  1 inst:   31000004 cyc:   21278696 now IPC :1.11837: AVG IPC :1.42872: L2-Pf-HR :0.80976: L2-HR :0.80098: (Sim:0h25m8s) 
CPU  3 inst:   31000004 cyc:   21686315 now IPC :1.11889: AVG IPC :1.40060: L2-Pf-HR :0.82200: L2-HR :0.80250: (Sim:0h25m33s) 
CPU  2 inst:   31000004 cyc:   21779679 now IPC :1.15878: AVG IPC :1.39429: L2-Pf-HR :0.82480: L2-HR :0.80883: (Sim:0h25m38s) 
CPU  0 inst:   32000005 cyc:   22119990 now IPC :1.11225: AVG IPC :1.41914: L2-Pf-HR :0.82594: L2-HR :0.81606: (Sim:0h25m58s) 
CPU  1 inst:   32000005 cyc:   22173059 now IPC :1.11812: AVG IPC :1.41561: L2-Pf-HR :0.81132: L2-HR :0.80186: (Sim:0h26m1s) 
CPU  3 inst:   32000005 cyc:   22609370 now IPC :1.08336: AVG IPC :1.38706: L2-Pf-HR :0.82264: L2-HR :0.80287: (Sim:0h26m26s) 
CPU  2 inst:   32000005 cyc:   22718785 now IPC :1.06484: AVG IPC :1.38006: L2-Pf-HR :0.82631: L2-HR :0.80972: (Sim:0h26m32s) 
CPU  0 inst:   33000000 cyc:   23146558 now IPC :0.97411: AVG IPC :1.39853: L2-Pf-HR :0.82765: L2-HR :0.81591: (Sim:0h26m54s) 
CPU  1 inst:   33000000 cyc:   23214758 now IPC :0.95997: AVG IPC :1.39426: L2-Pf-HR :0.81030: L2-HR :0.80030: (Sim:0h26m56s) 
CPU  3 inst:   33000000 cyc:   24056994 now IPC :0.69078: AVG IPC :1.34338: L2-Pf-HR :0.82160: L2-HR :0.80099: (Sim:0h27m19s) 
CPU  2 inst:   33000000 cyc:   24137603 now IPC :0.70481: AVG IPC :1.33869: L2-Pf-HR :0.82513: L2-HR :0.80793: (Sim:0h27m20s) 
CPU  1 inst:   34000000 cyc:   32070733 now IPC :0.11292: AVG IPC :1.02927: L2-Pf-HR :0.73511: L2-HR :0.73990: (Sim:0h31m31s) 
CPU  0 inst:   34000003 cyc:   33092307 now IPC :0.10055: AVG IPC :0.99651: L2-Pf-HR :0.75782: L2-HR :0.75605: (Sim:0h32m4s) 
CPU  1 inst:   35000002 cyc:   35898474 now IPC :0.26125: AVG IPC :0.94508: L2-Pf-HR :0.70974: L2-HR :0.72392: (Sim:0h33m35s) 
CPU  2 inst:   34000000 cyc:   36449607 now IPC :0.08122: AVG IPC :0.90219: L2-Pf-HR :0.75443: L2-HR :0.74753: (Sim:0h33m53s) 
CPU  3 inst:   34000000 cyc:   36633922 now IPC :0.07951: AVG IPC :0.89754: L2-Pf-HR :0.74802: L2-HR :0.74055: (Sim:0h33m59s) 
CPU  0 inst:   35000002 cyc:   37578579 now IPC :0.22290: AVG IPC :0.90168: L2-Pf-HR :0.73438: L2-HR :0.74008: (Sim:0h34m29s) 
CPU  1 inst:   36000001 cyc:   39712345 now IPC :0.26220: AVG IPC :0.87784: L2-Pf-HR :0.69212: L2-HR :0.71552: (Sim:0h35m35s) 
CPU  2 inst:   35000002 cyc:   40823112 now IPC :0.22865: AVG IPC :0.82826: L2-Pf-HR :0.72875: L2-HR :0.73186: (Sim:0h36m11s) 
CPU  3 inst:   35000002 cyc:   40861562 now IPC :0.23654: AVG IPC :0.82747: L2-Pf-HR :0.72115: L2-HR :0.72486: (Sim:0h36m12s) 
CPU  0 inst:   36000001 cyc:   40951639 now IPC :0.29647: AVG IPC :0.85060: L2-Pf-HR :0.71811: L2-HR :0.73175: (Sim:0h36m15s) 
CPU  1 inst:   37000001 cyc:   42964080 now IPC :0.30753: AVG IPC :0.83366: L2-Pf-HR :0.67587: L2-HR :0.70738: (Sim:0h37m19s) 
CPU  2 inst:   36000001 cyc:   44066743 now IPC :0.30830: AVG IPC :0.78911: L2-Pf-HR :0.71173: L2-HR :0.72333: (Sim:0h37m54s) 
CPU  3 inst:   36000001 cyc:   44112536 now IPC :0.30760: AVG IPC :0.78828: L2-Pf-HR :0.70369: L2-HR :0.71631: (Sim:0h37m55s) 
CPU  0 inst:   37000001 cyc:   44215639 now IPC :0.30637: AVG IPC :0.80952: L2-Pf-HR :0.70267: L2-HR :0.72367: (Sim:0h37m59s) 
CPU  1 inst:   38000000 cyc:   46206299 now IPC :0.30843: AVG IPC :0.79601: L2-Pf-HR :0.66090: L2-HR :0.70006: (Sim:0h39m2s) 
CPU  2 inst:   37000001 cyc:   47350924 now IPC :0.30449: AVG IPC :0.75479: L2-Pf-HR :0.69578: L2-HR :0.71527: (Sim:0h39m39s) 
CPU  3 inst:   37000001 cyc:   47401550 now IPC :0.30404: AVG IPC :0.75398: L2-Pf-HR :0.68760: L2-HR :0.70837: (Sim:0h39m40s) 
CPU  0 inst:   38000000 cyc:   47518059 now IPC :0.30281: AVG IPC :0.77356: L2-Pf-HR :0.68824: L2-HR :0.71612: (Sim:0h39m44s) 
CPU  1 inst:   39000000 cyc:   49577115 now IPC :0.29666: AVG IPC :0.76137: L2-Pf-HR :0.64618: L2-HR :0.69266: (Sim:0h40m49s) 
CPU  2 inst:   38000000 cyc:   50727951 now IPC :0.29612: AVG IPC :0.72365: L2-Pf-HR :0.68094: L2-HR :0.70767: (Sim:0h41m26s) 
CPU  3 inst:   38000000 cyc:   50789750 now IPC :0.29514: AVG IPC :0.72276: L2-Pf-HR :0.67244: L2-HR :0.70070: (Sim:0h41m28s) 
CPU  0 inst:   39000000 cyc:   50907710 now IPC :0.29502: AVG IPC :0.74107: L2-Pf-HR :0.67463: L2-HR :0.70889: (Sim:0h41m31s) 
CPU  1 inst:   40000003 cyc:   52948940 now IPC :0.29658: AVG IPC :0.73122: L2-Pf-HR :0.63229: L2-HR :0.68568: (Sim:0h42m36s) 
CPU  2 inst:   39000000 cyc:   54124420 now IPC :0.29442: AVG IPC :0.69622: L2-Pf-HR :0.66686: L2-HR :0.70034: (Sim:0h43m14s) 
CPU  3 inst:   39000000 cyc:   54171337 now IPC :0.29572: AVG IPC :0.69561: L2-Pf-HR :0.65800: L2-HR :0.69352: (Sim:0h43m15s) 
CPU  0 inst:   40000003 cyc:   54255435 now IPC :0.29871: AVG IPC :0.71327: L2-Pf-HR :0.66165: L2-HR :0.70210: (Sim:0h43m18s) 
CPU  1 inst:   41000001 cyc:   56292461 now IPC :0.29909: AVG IPC :0.70509: L2-Pf-HR :0.61958: L2-HR :0.67915: (Sim:0h44m22s) 
CPU  2 inst:   40000003 cyc:   57542999 now IPC :0.29252: AVG IPC :0.67182: L2-Pf-HR :0.65319: L2-HR :0.69329: (Sim:0h45m2s) 
CPU  3 inst:   40000003 cyc:   57552727 now IPC :0.29574: AVG IPC :0.67171: L2-Pf-HR :0.64404: L2-HR :0.68640: (Sim:0h45m2s) 
CPU  0 inst:   41000001 cyc:   57615203 now IPC :0.29764: AVG IPC :0.68862: L2-Pf-HR :0.64909: L2-HR :0.69533: (Sim:0h45m4s) 
CPU  1 inst:   42000001 cyc:   59633073 now IPC :0.29935: AVG IPC :0.68198: L2-Pf-HR :0.60715: L2-HR :0.67278: (Sim:0h46m8s) 
CPU  2 inst:   41000001 cyc:   60896202 now IPC :0.29822: AVG IPC :0.65091: L2-Pf-HR :0.64014: L2-HR :0.68662: (Sim:0h46m48s) 
CPU  3 inst:   41000001 cyc:   60916174 now IPC :0.29731: AVG IPC :0.65070: L2-Pf-HR :0.63070: L2-HR :0.67968: (Sim:0h46m49s) 
CPU  0 inst:   42000001 cyc:   60950153 now IPC :0.29985: AVG IPC :0.66700: L2-Pf-HR :0.63718: L2-HR :0.68912: (Sim:0h46m50s) 
CPU  1 inst:   43000002 cyc:   62925311 now IPC :0.30375: AVG IPC :0.66188: L2-Pf-HR :0.59514: L2-HR :0.66656: (Sim:0h47m53s) 
CPU  2 inst:   42000001 cyc:   64159264 now IPC :0.30646: AVG IPC :0.63312: L2-Pf-HR :0.62730: L2-HR :0.68008: (Sim:0h48m32s) 
CPU  3 inst:   42000001 cyc:   64189508 now IPC :0.30550: AVG IPC :0.63283: L2-Pf-HR :0.61782: L2-HR :0.67317: (Sim:0h48m33s) 
CPU  0 inst:   43000005 cyc:   64204492 now IPC :0.30728: AVG IPC :0.64848: L2-Pf-HR :0.62562: L2-HR :0.68301: (Sim:0h48m33s) 
CPU  1 inst:   44000001 cyc:   66183232 now IPC :0.30694: AVG IPC :0.64415: L2-Pf-HR :0.58360: L2-HR :0.66062: (Sim:0h49m36s) 
CPU  2 inst:   43000002 cyc:   67439692 now IPC :0.30484: AVG IPC :0.61692: L2-Pf-HR :0.61517: L2-HR :0.67370: (Sim:0h50m16s) 
CPU  0 inst:   44000001 cyc:   67463949 now IPC :0.30680: AVG IPC :0.63173: L2-Pf-HR :0.61466: L2-HR :0.67710: (Sim:0h50m17s) 
CPU  3 inst:   43000002 cyc:   67480924 now IPC :0.30382: AVG IPC :0.61654: L2-Pf-HR :0.60544: L2-HR :0.66681: (Sim:0h50m17s) 
CPU  1 inst:   45000001 cyc:   69442659 now IPC :0.30680: AVG IPC :0.62809: L2-Pf-HR :0.57318: L2-HR :0.65513: (Sim:0h51m20s) 
CPU  2 inst:   44000001 cyc:   70679130 now IPC :0.30870: AVG IPC :0.60259: L2-Pf-HR :0.60345: L2-HR :0.66761: (Sim:0h51m59s) 
CPU  0 inst:   45000001 cyc:   70699390 now IPC :0.30908: AVG IPC :0.61676: L2-Pf-HR :0.60396: L2-HR :0.67132: (Sim:0h52m0s) 
CPU  3 inst:   44000001 cyc:   70724776 now IPC :0.30828: AVG IPC :0.60220: L2-Pf-HR :0.59357: L2-HR :0.66073: (Sim:0h52m0s) 
CPU  1 inst:   46000000 cyc:   72659849 now IPC :0.31083: AVG IPC :0.61385: L2-Pf-HR :0.56289: L2-HR :0.64968: (Sim:0h53m2s) 
CPU  2 inst:   45000001 cyc:   73921024 now IPC :0.30846: AVG IPC :0.58952: L2-Pf-HR :0.59218: L2-HR :0.66179: (Sim:0h53m42s) 
CPU  0 inst:   46000000 cyc:   73928370 now IPC :0.30970: AVG IPC :0.60316: L2-Pf-HR :0.59370: L2-HR :0.66579: (Sim:0h53m42s) 
CPU  3 inst:   45000001 cyc:   73965489 now IPC :0.30857: AVG IPC :0.58917: L2-Pf-HR :0.58209: L2-HR :0.65486: (Sim:0h53m43s) 
CPU  1 inst:   47000000 cyc:   75876276 now IPC :0.31090: AVG IPC :0.60084: L2-Pf-HR :0.55295: L2-HR :0.64436: (Sim:0h54m44s) 
CPU  2 inst:   46000000 cyc:   77135308 now IPC :0.31111: AVG IPC :0.57777: L2-Pf-HR :0.58134: L2-HR :0.65604: (Sim:0h55m24s) 
CPU  0 inst:   47000000 cyc:   77135895 now IPC :0.31177: AVG IPC :0.59089: L2-Pf-HR :0.58381: L2-HR :0.66038: (Sim:0h55m24s) 
CPU  3 inst:   46000000 cyc:   77180748 now IPC :0.31102: AVG IPC :0.57743: L2-Pf-HR :0.57112: L2-HR :0.64917: (Sim:0h55m25s) 
CPU  1 inst:   48000000 cyc:   79071325 now IPC :0.31298: AVG IPC :0.58906: L2-Pf-HR :0.54339: L2-HR :0.63947: (Sim:0h56m25s) 
CPU  0 inst:   48000000 cyc:   80326912 now IPC :0.31338: AVG IPC :0.57973: L2-Pf-HR :0.57425: L2-HR :0.65517: (Sim:0h57m5s) 
CPU  2 inst:   47000000 cyc:   80335826 now IPC :0.31245: AVG IPC :0.56707: L2-Pf-HR :0.57083: L2-HR :0.65051: (Sim:0h57m5s) 
CPU  3 inst:   47000000 cyc:   80383951 now IPC :0.31219: AVG IPC :0.56673: L2-Pf-HR :0.56046: L2-HR :0.64367: (Sim:0h57m7s) 
CPU  1 inst:   49000000 cyc:   82263036 now IPC :0.31331: AVG IPC :0.57823: L2-Pf-HR :0.53425: L2-HR :0.63452: (Sim:0h58m7s) 
CPU  0 inst:   49000000 cyc:   83520553 now IPC :0.31312: AVG IPC :0.56941: L2-Pf-HR :0.56506: L2-HR :0.65024: (Sim:0h58m47s) 
CPU  2 inst:   48000000 cyc:   83540736 now IPC :0.31202: AVG IPC :0.55717: L2-Pf-HR :0.56076: L2-HR :0.64535: (Sim:0h58m47s) 
CPU  3 inst:   48000000 cyc:   83587263 now IPC :0.31218: AVG IPC :0.55686: L2-Pf-HR :0.55022: L2-HR :0.63842: (Sim:0h58m49s) 
CPU  1 inst:   50000003 cyc:   85465664 now IPC :0.31224: AVG IPC :0.56815: L2-Pf-HR :0.52547: L2-HR :0.62984: (Sim:0h59m48s) 
CPU  0 inst:   50000003 cyc:   86764789 now IPC :0.30824: AVG IPC :0.55954: L2-Pf-HR :0.55635: L2-HR :0.64539: (Sim:1h0m28s) 
CPU  2 inst:   49000000 cyc:   86794503 now IPC :0.30734: AVG IPC :0.54769: L2-Pf-HR :0.55127: L2-HR :0.64017: (Sim:1h0m29s) 
CPU  3 inst:   49000000 cyc:   86836352 now IPC :0.30778: AVG IPC :0.54743: L2-Pf-HR :0.54052: L2-HR :0.63329: (Sim:1h0m31s) 
CPU  1 inst:   51000000 cyc:   87356063 now IPC :0.52899: AVG IPC :0.56729: L2-Pf-HR :0.52572: L2-HR :0.62852: (Sim:1h0m53s) 
CPU  1 inst:   52000002 cyc:   88113432 now IPC :1.32036: AVG IPC :0.57384: L2-Pf-HR :0.53080: L2-HR :0.63070: (Sim:1h1m25s) 
CPU  0 inst:   51000000 cyc:   88687350 now IPC :0.52014: AVG IPC :0.55867: L2-Pf-HR :0.55610: L2-HR :0.64410: (Sim:1h1m53s) 
CPU  1 inst:   53000001 cyc:   88978560 now IPC :1.15590: AVG IPC :0.57956: L2-Pf-HR :0.53673: L2-HR :0.63303: (Sim:1h2m11s) 
CPU  0 inst:   52000002 cyc:   89420766 now IPC :1.36349: AVG IPC :0.56535: L2-Pf-HR :0.56042: L2-HR :0.64627: (Sim:1h2m36s) 
CPU  1 inst:   54000001 cyc:   89673602 now IPC :1.43876: AVG IPC :0.58629: L2-Pf-HR :0.54256: L2-HR :0.63577: (Sim:1h2m50s) 
CPU  2 inst:   50000003 cyc:   90181626 now IPC :0.29524: AVG IPC :0.53811: L2-Pf-HR :0.54206: L2-HR :0.63524: (Sim:1h3m16s) 
CPU  3 inst:   50000003 cyc:   90259584 now IPC :0.29212: AVG IPC :0.53764: L2-Pf-HR :0.53141: L2-HR :0.62845: (Sim:1h3m20s) 
CPU  0 inst:   53000001 cyc:   90332046 now IPC :1.09736: AVG IPC :0.57077: L2-Pf-HR :0.56479: L2-HR :0.64803: (Sim:1h3m24s) 
CPU  1 inst:   55000003 cyc:   90479711 now IPC :1.24053: AVG IPC :0.59218: L2-Pf-HR :0.54783: L2-HR :0.63846: (Sim:1h3m33s) 
CPU  0 inst:   54000001 cyc:   91026863 now IPC :1.43923: AVG IPC :0.57747: L2-Pf-HR :0.57035: L2-HR :0.65085: (Sim:1h4m4s) 
CPU  1 inst:   56000003 cyc:   91290934 now IPC :1.23271: AVG IPC :0.59794: L2-Pf-HR :0.55230: L2-HR :0.64056: (Sim:1h4m17s) 
CPU  0 inst:   55000003 cyc:   91890877 now IPC :1.15739: AVG IPC :0.58299: L2-Pf-HR :0.57452: L2-HR :0.65339: (Sim:1h4m48s) 
CPU  1 inst:   57000004 cyc:   92099120 now IPC :1.23734: AVG IPC :0.60361: L2-Pf-HR :0.55735: L2-HR :0.64348: (Sim:1h5m4s) 
CPU  2 inst:   51000000 cyc:   92252464 now IPC :0.48289: AVG IPC :0.53685: L2-Pf-HR :0.54269: L2-HR :0.63419: (Sim:1h5m17s) 
CPU  3 inst:   51000000 cyc:   92360138 now IPC :0.47606: AVG IPC :0.53623: L2-Pf-HR :0.53211: L2-HR :0.62740: (Sim:1h5m25s) 
CPU  0 inst:   56000003 cyc:   92716233 now IPC :1.21160: AVG IPC :0.58864: L2-Pf-HR :0.57842: L2-HR :0.65549: (Sim:1h5m53s) 
CPU  1 inst:   58000004 cyc:   92812891 now IPC :1.40101: AVG IPC :0.60981: L2-Pf-HR :0.56288: L2-HR :0.64622: (Sim:1h6m1s) 
CPU  2 inst:   52000002 cyc:   93033672 now IPC :1.28007: AVG IPC :0.54316: L2-Pf-HR :0.54751: L2-HR :0.63648: (Sim:1h6m20s) 
CPU  3 inst:   52000001 cyc:   93045490 now IPC :1.45911: AVG IPC :0.54310: L2-Pf-HR :0.53739: L2-HR :0.62977: (Sim:1h6m21s) 
CPU  0 inst:   57000000 cyc:   93511394 now IPC :1.25760: AVG IPC :0.59439: L2-Pf-HR :0.58217: L2-HR :0.65764: (Sim:1h6m53s) 
CPU  1 inst:   59000004 cyc:   93553335 now IPC :1.35054: AVG IPC :0.61573: L2-Pf-HR :0.56748: L2-HR :0.64873: (Sim:1h6m57s) 
CPU  2 inst:   53000001 cyc:   93938179 now IPC :1.10557: AVG IPC :0.54863: L2-Pf-HR :0.55347: L2-HR :0.63892: (Sim:1h7m27s) 
CPU  3 inst:   53000001 cyc:   93949305 now IPC :1.10642: AVG IPC :0.54857: L2-Pf-HR :0.54324: L2-HR :0.63222: (Sim:1h7m28s) 
CPU  1 inst:   60000004 cyc:   94262991 now IPC :1.40913: AVG IPC :0.62177: L2-Pf-HR :0.57125: L2-HR :0.65067: (Sim:1h7m53s) 
CPU  0 inst:   58000004 cyc:   94301790 now IPC :1.26519: AVG IPC :0.60007: L2-Pf-HR :0.58687: L2-HR :0.66021: (Sim:1h7m56s) 
CPU  2 inst:   54000001 cyc:   94626912 now IPC :1.45194: AVG IPC :0.55528: L2-Pf-HR :0.55947: L2-HR :0.64195: (Sim:1h8m24s) 
CPU  3 inst:   54000001 cyc:   94702752 now IPC :1.32723: AVG IPC :0.55483: L2-Pf-HR :0.55007: L2-HR :0.63562: (Sim:1h8m31s) 
CPU  1 inst:   61000002 cyc:   95119215 now IPC :1.16792: AVG IPC :0.62674: L2-Pf-HR :0.57443: L2-HR :0.65246: (Sim:1h8m58s) 
CPU  0 inst:   59000005 cyc:   95167932 now IPC :1.15455: AVG IPC :0.60517: L2-Pf-HR :0.59108: L2-HR :0.66257: (Sim:1h9m2s) 
CPU  2 inst:   55000003 cyc:   95517545 now IPC :1.12280: AVG IPC :0.56062: L2-Pf-HR :0.56463: L2-HR :0.64455: (Sim:1h9m29s) 
CPU  3 inst:   55000003 cyc:   95531672 now IPC :1.20639: AVG IPC :0.56055: L2-Pf-HR :0.55516: L2-HR :0.63831: (Sim:1h9m30s) 
CPU  1 inst:   62000001 cyc:   95842326 now IPC :1.38291: AVG IPC :0.63250: L2-Pf-HR :0.57962: L2-HR :0.65528: (Sim:1h9m57s) 
CPU  0 inst:   60000004 cyc:   95878803 now IPC :1.40672: AVG IPC :0.61118: L2-Pf-HR :0.59394: L2-HR :0.66416: (Sim:1h10m0s) 
CPU  2 inst:   56000003 cyc:   96233021 now IPC :1.39767: AVG IPC :0.56691: L2-Pf-HR :0.56885: L2-HR :0.64670: (Sim:1h10m29s) 
CPU  3 inst:   56000003 cyc:   96263780 now IPC :1.36592: AVG IPC :0.56673: L2-Pf-HR :0.55978: L2-HR :0.64065: (Sim:1h10m32s) 
CPU  1 inst:   63000000 cyc:   96631226 now IPC :1.26759: AVG IPC :0.63774: L2-Pf-HR :0.58389: L2-HR :0.65760: (Sim:1h10m59s) 
CPU  0 inst:   61000000 cyc:   96794000 now IPC :1.09266: AVG IPC :0.61577: L2-Pf-HR :0.59666: L2-HR :0.66577: (Sim:1h11m10s) 
CPU  2 inst:   57000004 cyc:   96957613 now IPC :1.38009: AVG IPC :0.57305: L2-Pf-HR :0.57338: L2-HR :0.64907: (Sim:1h11m25s) 
CPU  3 inst:   57000004 cyc:   97044335 now IPC :1.28114: AVG IPC :0.57254: L2-Pf-HR :0.56428: L2-HR :0.64304: (Sim:1h11m32s) 
CPU  0 inst:   62000001 cyc:   97386135 now IPC :1.68881: AVG IPC :0.62236: L2-Pf-HR :0.60066: L2-HR :0.66817: (Sim:1h12m4s) 
CPU  1 inst:   64000005 cyc:   97393100 now IPC :1.31256: AVG IPC :0.64307: L2-Pf-HR :0.58720: L2-HR :0.65964: (Sim:1h12m5s) 
CPU  2 inst:   58000004 cyc:   97642716 now IPC :1.45963: AVG IPC :0.57934: L2-Pf-HR :0.57860: L2-HR :0.65203: (Sim:1h12m24s) 
CPU  3 inst:   58000004 cyc:   97685246 now IPC :1.56028: AVG IPC :0.57908: L2-Pf-HR :0.56987: L2-HR :0.64600: (Sim:1h12m29s) 
CPU  0 inst:   63000000 cyc:   98178603 now IPC :1.26188: AVG IPC :0.62758: L2-Pf-HR :0.60452: L2-HR :0.67070: (Sim:1h13m7s) 
CPU  1 inst:   65000003 cyc:   98305763 now IPC :1.09569: AVG IPC :0.64732: L2-Pf-HR :0.58994: L2-HR :0.66124: (Sim:1h13m13s) 
CPU  2 inst:   59000004 cyc:   98469318 now IPC :1.20977: AVG IPC :0.58468: L2-Pf-HR :0.58266: L2-HR :0.65419: (Sim:1h13m25s) 
CPU  3 inst:   59000001 cyc:   98511445 now IPC :1.21036: AVG IPC :0.58443: L2-Pf-HR :0.57464: L2-HR :0.64902: (Sim:1h13m30s) 
CPU  1 inst:   66000004 cyc:   98982394 now IPC :1.47791: AVG IPC :0.65305: L2-Pf-HR :0.59506: L2-HR :0.66450: (Sim:1h14m10s) 
CPU  0 inst:   64000001 cyc:   98991779 now IPC :1.22975: AVG IPC :0.63258: L2-Pf-HR :0.60697: L2-HR :0.67216: (Sim:1h14m11s) 
CPU  2 inst:   60000000 cyc:   99161481 now IPC :1.44474: AVG IPC :0.59074: L2-Pf-HR :0.58593: L2-HR :0.65593: (Sim:1h14m25s) 
CPU  3 inst:   60000002 cyc:   99194657 now IPC :1.46368: AVG IPC :0.59055: L2-Pf-HR :0.58003: L2-HR :0.65300: (Sim:1h14m28s) 
CPU  1 inst:   67000005 cyc:   99639730 now IPC :1.52129: AVG IPC :0.65883: L2-Pf-HR :0.59992: L2-HR :0.66757: (Sim:1h15m7s) 
CPU  0 inst:   65000003 cyc:   99704619 now IPC :1.40284: AVG IPC :0.63814: L2-Pf-HR :0.60909: L2-HR :0.67345: (Sim:1h15m10s) 
CPU  2 inst:   61000000 cyc:   99889442 now IPC :1.37370: AVG IPC :0.59651: L2-Pf-HR :0.58870: L2-HR :0.65763: (Sim:1h15m25s) 
CPU  3 inst:   61000004 cyc:  100020700 now IPC :1.21059: AVG IPC :0.59572: L2-Pf-HR :0.58366: L2-HR :0.65579: (Sim:1h15m37s) 
CPU  0 inst:   66000004 cyc:  100355514 now IPC :1.53635: AVG IPC :0.64402: L2-Pf-HR :0.61285: L2-HR :0.67582: (Sim:1h16m6s) 
CPU  1 inst:   68000001 cyc:  100412332 now IPC :1.29432: AVG IPC :0.66377: L2-Pf-HR :0.60216: L2-HR :0.66901: (Sim:1h16m11s) 
CPU  2 inst:   62000001 cyc:  100549817 now IPC :1.51429: AVG IPC :0.60259: L2-Pf-HR :0.59322: L2-HR :0.66033: (Sim:1h16m25s) 
CPU  3 inst:   62000001 cyc:  100632133 now IPC :1.63550: AVG IPC :0.60210: L2-Pf-HR :0.58863: L2-HR :0.65845: (Sim:1h16m32s) 
CPU  0 inst:   67000000 cyc:  100954880 now IPC :1.66842: AVG IPC :0.65016: L2-Pf-HR :0.61670: L2-HR :0.67820: (Sim:1h17m1s) 
CPU  1 inst:   69000002 cyc:  101236076 now IPC :1.21397: AVG IPC :0.66829: L2-Pf-HR :0.60415: L2-HR :0.67004: (Sim:1h17m18s) 
CPU  2 inst:   63000000 cyc:  101385003 now IPC :1.19734: AVG IPC :0.60754: L2-Pf-HR :0.59721: L2-HR :0.66254: (Sim:1h17m28s) 
CPU  3 inst:   63000000 cyc:  101395312 now IPC :1.31031: AVG IPC :0.60748: L2-Pf-HR :0.59255: L2-HR :0.66092: (Sim:1h17m29s) 
CPU  0 inst:   68000001 cyc:  101755071 now IPC :1.24970: AVG IPC :0.65492: L2-Pf-HR :0.61840: L2-HR :0.67914: (Sim:1h17m58s) 
CPU  1 inst:   70000001 cyc:  101969236 now IPC :1.36396: AVG IPC :0.67334: L2-Pf-HR :0.60748: L2-HR :0.67219: (Sim:1h18m14s) 
CPU  2 inst:   64000005 cyc:  102088454 now IPC :1.42157: AVG IPC :0.61320: L2-Pf-HR :0.60001: L2-HR :0.66410: (Sim:1h18m25s) 
CPU  3 inst:   64000005 cyc:  102162590 now IPC :1.30332: AVG IPC :0.61276: L2-Pf-HR :0.59567: L2-HR :0.66302: (Sim:1h18m31s) 
CPU  0 inst:   69000002 cyc:  102483143 now IPC :1.37349: AVG IPC :0.66008: L2-Pf-HR :0.62024: L2-HR :0.68027: (Sim:1h18m59s) 
CPU  1 inst:   71000001 cyc:  102579081 now IPC :1.63976: AVG IPC :0.67914: L2-Pf-HR :0.61102: L2-HR :0.67417: (Sim:1h19m7s) 
CPU  3 inst:   65000005 cyc:  102946964 now IPC :1.27490: AVG IPC :0.61785: L2-Pf-HR :0.59816: L2-HR :0.66469: (Sim:1h19m30s) 
CPU  2 inst:   65000003 cyc:  102947943 now IPC :1.16348: AVG IPC :0.61784: L2-Pf-HR :0.60207: L2-HR :0.66531: (Sim:1h19m31s) 
CPU  0 inst:   70000000 cyc:  103276892 now IPC :1.25984: AVG IPC :0.66473: L2-Pf-HR :0.62290: L2-HR :0.68186: (Sim:1h19m56s) 
CPU  1 inst:   72000004 cyc:  103438858 now IPC :1.16310: AVG IPC :0.68321: L2-Pf-HR :0.61346: L2-HR :0.67603: (Sim:1h20m9s) 
CPU  2 inst:   66000004 cyc:  103707363 now IPC :1.31680: AVG IPC :0.62301: L2-Pf-HR :0.60608: L2-HR :0.66784: (Sim:1h20m31s) 
CPU  3 inst:   66000004 cyc:  103715382 now IPC :1.30137: AVG IPC :0.62297: L2-Pf-HR :0.60200: L2-HR :0.66681: (Sim:1h20m32s) 
CPU  0 inst:   71000001 cyc:  103976878 now IPC :1.42860: AVG IPC :0.66992: L2-Pf-HR :0.62634: L2-HR :0.68399: (Sim:1h20m54s) 
CPU  1 inst:   73000003 cyc:  104099730 now IPC :1.51315: AVG IPC :0.68852: L2-Pf-HR :0.61519: L2-HR :0.67702: (Sim:1h21m6s) 
CPU  2 inst:   67000005 cyc:  104387243 now IPC :1.47085: AVG IPC :0.62858: L2-Pf-HR :0.61034: L2-HR :0.67084: (Sim:1h21m28s) 
CPU  3 inst:   67000000 cyc:  104399364 now IPC :1.46202: AVG IPC :0.62851: L2-Pf-HR :0.60630: L2-HR :0.66959: (Sim:1h21m29s) 
CPU  0 inst:   72000004 cyc:  104743213 now IPC :1.30492: AVG IPC :0.67461: L2-Pf-HR :0.62822: L2-HR :0.68503: (Sim:1h21m52s) 
CPU  1 inst:   74000004 cyc:  104920967 now IPC :1.21768: AVG IPC :0.69271: L2-Pf-HR :0.61795: L2-HR :0.67862: (Sim:1h22m6s) 
CPU  3 inst:   68000003 cyc:  105295483 now IPC :1.11593: AVG IPC :0.63270: L2-Pf-HR :0.60862: L2-HR :0.67107: (Sim:1h22m34s) 
CPU  2 inst:   68000003 cyc:  105300116 now IPC :1.09544: AVG IPC :0.63267: L2-Pf-HR :0.61241: L2-HR :0.67243: (Sim:1h22m35s) 
CPU  0 inst:   73000003 cyc:  105533364 now IPC :1.26558: AVG IPC :0.67908: L2-Pf-HR :0.62990: L2-HR :0.68609: (Sim:1h22m52s) 
CPU  1 inst:   75000001 cyc:  105603473 now IPC :1.46518: AVG IPC :0.69774: L2-Pf-HR :0.62114: L2-HR :0.68049: (Sim:1h22m59s) 
CPU  3 inst:   69000002 cyc:  106073776 now IPC :1.28486: AVG IPC :0.63753: L2-Pf-HR :0.61132: L2-HR :0.67315: (Sim:1h23m34s) 
CPU  2 inst:   69000002 cyc:  106101582 now IPC :1.24771: AVG IPC :0.63736: L2-Pf-HR :0.61432: L2-HR :0.67330: (Sim:1h23m36s) 
CPU  0 inst:   74000004 cyc:  106320511 now IPC :1.27041: AVG IPC :0.68350: L2-Pf-HR :0.63216: L2-HR :0.68744: (Sim:1h23m52s) 
CPU  1 inst:   76000001 cyc:  106402298 now IPC :1.25184: AVG IPC :0.70194: L2-Pf-HR :0.62302: L2-HR :0.68175: (Sim:1h23m58s) 
CPU  3 inst:   70000001 cyc:  106759668 now IPC :1.45795: AVG IPC :0.64285: L2-Pf-HR :0.61462: L2-HR :0.67516: (Sim:1h24m29s) 
CPU  2 inst:   70000001 cyc:  106843736 now IPC :1.34743: AVG IPC :0.64234: L2-Pf-HR :0.61758: L2-HR :0.67528: (Sim:1h24m36s) 
CPU  0 inst:   75000001 cyc:  107049109 now IPC :1.37249: AVG IPC :0.68823: L2-Pf-HR :0.63495: L2-HR :0.68922: (Sim:1h24m54s) 
CPU  1 inst:   77000004 cyc:  107163457 now IPC :1.31379: AVG IPC :0.70633: L2-Pf-HR :0.62483: L2-HR :0.68293: (Sim:1h25m2s) 
CPU  3 inst:   71000001 cyc:  107435308 now IPC :1.48008: AVG IPC :0.64816: L2-Pf-HR :0.61841: L2-HR :0.67733: (Sim:1h25m24s) 
CPU  2 inst:   71000003 cyc:  107468576 now IPC :1.60041: AVG IPC :0.64796: L2-Pf-HR :0.62121: L2-HR :0.67737: (Sim:1h25m28s) 
CPU  0 inst:   76000001 cyc:  107809241 now IPC :1.31556: AVG IPC :0.69269: L2-Pf-HR :0.63638: L2-HR :0.69016: (Sim:1h25m55s) 
CPU  1 inst:   78000002 cyc:  107908633 now IPC :1.34196: AVG IPC :0.71076: L2-Pf-HR :0.62728: L2-HR :0.68442: (Sim:1h26m4s) 
CPU  3 inst:   72000004 cyc:  108079317 now IPC :1.55278: AVG IPC :0.65360: L2-Pf-HR :0.62046: L2-HR :0.67840: (Sim:1h26m20s) 
CPU  2 inst:   72000004 cyc:  108125059 now IPC :1.52327: AVG IPC :0.65332: L2-Pf-HR :0.62293: L2-HR :0.67845: (Sim:1h26m25s) 
CPU  0 inst:   77000004 cyc:  108459239 now IPC :1.53847: AVG IPC :0.69781: L2-Pf-HR :0.63801: L2-HR :0.69116: (Sim:1h26m54s) 
CPU  1 inst:   79000000 cyc:  108506458 now IPC :1.67273: AVG IPC :0.71611: L2-Pf-HR :0.63055: L2-HR :0.68651: (Sim:1h26m59s) 
CPU  3 inst:   73000003 cyc:  108715157 now IPC :1.57272: AVG IPC :0.65903: L2-Pf-HR :0.62207: L2-HR :0.67939: (Sim:1h27m17s) 
CPU  2 inst:   73000003 cyc:  108749717 now IPC :1.60087: AVG IPC :0.65881: L2-Pf-HR :0.62470: L2-HR :0.67962: (Sim:1h27m21s) 
CPU  0 inst:   78000000 cyc:  109158154 now IPC :1.43078: AVG IPC :0.70254: L2-Pf-HR :0.63999: L2-HR :0.69255: (Sim:1h27m54s) 
CPU  1 inst:   80000000 cyc:  109195114 now IPC :1.45210: AVG IPC :0.72079: L2-Pf-HR :0.63210: L2-HR :0.68743: (Sim:1h27m57s) 
Finished CPU 1 instr: 78000005 cyc: 108214926 AVG IPC: 0.72079 (Sim time: 1h27m57s)
CPU  3 inst:   74000004 cyc:  109381094 now IPC :1.50165: AVG IPC :0.66421: L2-Pf-HR :0.62466: L2-HR :0.68106: (Sim:1h28m15s) 
CPU  2 inst:   74000004 cyc:  109403006 now IPC :1.53072: AVG IPC :0.66407: L2-Pf-HR :0.62697: L2-HR :0.68110: (Sim:1h28m17s) 
CPU  1 inst:   81000005 cyc:  109766456 now IPC :1.75027: AVG IPC :0.72620: L2-Pf-HR :0.63356: L2-HR :0.68833: (Sim:1h28m45s) 
CPU  0 inst:   79000000 cyc:  109779917 now IPC :1.60833: AVG IPC :0.70772: L2-Pf-HR :0.64262: L2-HR :0.69423: (Sim:1h28m46s) 
CPU  3 inst:   75000002 cyc:  109979586 now IPC :1.67086: AVG IPC :0.66973: L2-Pf-HR :0.62756: L2-HR :0.68294: (Sim:1h28m57s) 
CPU  2 inst:   75000002 cyc:  110018459 now IPC :1.62482: AVG IPC :0.66949: L2-Pf-HR :0.62995: L2-HR :0.68309: (Sim:1h29m0s) 
CPU  1 inst:   82000004 cyc:  110442580 now IPC :1.47902: AVG IPC :0.73085: L2-Pf-HR :0.63547: L2-HR :0.68956: (Sim:1h29m21s) 
CPU  0 inst:   80000000 cyc:  110466658 now IPC :1.45615: AVG IPC :0.71241: L2-Pf-HR :0.64389: L2-HR :0.69506: (Sim:1h29m22s) 
Finished CPU 0 instr: 78000000 cyc: 109486078 AVG IPC: 0.71242 (Sim time: 1h29m22s)
CPU  3 inst:   76000001 cyc:  110620318 now IPC :1.56071: AVG IPC :0.67494: L2-Pf-HR :0.62971: L2-HR :0.68419: (Sim:1h29m32s) 
CPU  2 inst:   76000001 cyc:  110664754 now IPC :1.54728: AVG IPC :0.67466: L2-Pf-HR :0.63200: L2-HR :0.68454: (Sim:1h29m34s) 
CPU  1 inst:   83000000 cyc:  111004152 now IPC :1.78071: AVG IPC :0.73621: L2-Pf-HR :0.63785: L2-HR :0.69112: (Sim:1h29m54s) 
CPU  0 inst:   81000005 cyc:  111056105 now IPC :1.69651: AVG IPC :0.71768: L2-Pf-HR :0.64531: L2-HR :0.69596: (Sim:1h29m57s) 
CPU  3 inst:   77000004 cyc:  111199436 now IPC :1.72677: AVG IPC :0.68047: L2-Pf-HR :0.63097: L2-HR :0.68499: (Sim:1h30m5s) 
CPU  2 inst:   77000004 cyc:  111266833 now IPC :1.66092: AVG IPC :0.68005: L2-Pf-HR :0.63344: L2-HR :0.68548: (Sim:1h30m9s) 
*** Reached end of trace for Core: 1 Repeating trace: 770-tot_memTraces_v3/memTraces[83000000][Pythia-70M]_[h8][s512][d64].champsim.xz
CPU  0 inst:   82000005 cyc:  111734603 now IPC :1.47384: AVG IPC :0.72232: L2-Pf-HR :0.64647: L2-HR :0.69686: (Sim:1h30m31s) 
CPU  3 inst:   78000000 cyc:  111862740 now IPC :1.50760: AVG IPC :0.68541: L2-Pf-HR :0.63349: L2-HR :0.68663: (Sim:1h30m40s) 
CPU  2 inst:   78000000 cyc:  111974798 now IPC :1.41249: AVG IPC :0.68472: L2-Pf-HR :0.63602: L2-HR :0.68731: (Sim:1h30m49s) 
CPU  1 inst:   84000003 cyc:  112101790 now IPC :0.91105: AVG IPC :0.73793: L2-Pf-HR :0.63960: L2-HR :0.69056: (Sim:1h30m58s) 
CPU  0 inst:   83000000 cyc:  112307541 now IPC :1.74538: AVG IPC :0.72758: L2-Pf-HR :0.64899: L2-HR :0.69855: (Sim:1h31m16s) 
CPU  3 inst:   79000000 cyc:  112449026 now IPC :1.70565: AVG IPC :0.69078: L2-Pf-HR :0.63619: L2-HR :0.68838: (Sim:1h31m28s) 
CPU  2 inst:   79000000 cyc:  112559611 now IPC :1.70995: AVG IPC :0.69009: L2-Pf-HR :0.63909: L2-HR :0.68945: (Sim:1h31m35s) 
CPU  1 inst:   85000003 cyc:  112882417 now IPC :1.28102: AVG IPC :0.74172: L2-Pf-HR :0.64073: L2-HR :0.69097: (Sim:1h31m49s) 
*** Reached end of trace for Core: 0 Repeating trace: 770-tot_memTraces_v3/memTraces[83000000][Pythia-70M]_[h8][s512][d64].champsim.xz
CPU  3 inst:   80000000 cyc:  113106910 now IPC :1.52002: AVG IPC :0.69565: L2-Pf-HR :0.63782: L2-HR :0.68972: (Sim:1h31m58s) 
Finished CPU 3 instr: 78000005 cyc: 112125985 AVG IPC: 0.69565 (Sim time: 1h31m58s)
CPU  2 inst:   80000000 cyc:  113171816 now IPC :1.63344: AVG IPC :0.69524: L2-Pf-HR :0.64062: L2-HR :0.69055: (Sim:1h32m1s) 
Finished CPU 2 instr: 78000001 cyc: 112190961 AVG IPC: 0.69524 (Sim time: 1h32m1s)

ChampSim completed all CPUs

Total Simulation Statistics (not including warmup)

CPU 0 cumulative IPC: 0.73043 instructions: 81947874 cycles: 112190961
Core_0_L1D_total_access 27377480
Core_0_L1D_total_hit 25769761
Core_0_L1D_total_miss 1607719
Core_0_L1D_loads 23762947
Core_0_L1D_load_hit 23151138
Core_0_L1D_load_miss 611809
Core_0_L1D_RFOs 2202928
Core_0_L1D_RFO_hit 2132451
Core_0_L1D_RFO_miss 70477
Core_0_L1D_prefetches 1411605
Core_0_L1D_prefetch_hit 486172
Core_0_L1D_prefetch_miss 925433
Core_0_L1D_writebacks 0
Core_0_L1D_writeback_hit 0
Core_0_L1D_writeback_miss 0

Core_0_L1I_total_access 12472758
Core_0_L1I_total_hit 12467975
Core_0_L1I_total_miss 4783
Core_0_L1I_loads 12472758
Core_0_L1I_load_hit 12467975
Core_0_L1I_load_miss 4783
Core_0_L1I_RFOs 0
Core_0_L1I_RFO_hit 0
Core_0_L1I_RFO_miss 0
Core_0_L1I_prefetches 0
Core_0_L1I_prefetch_hit 0
Core_0_L1I_prefetch_miss 0
Core_0_L1I_writebacks 0
Core_0_L1I_writeback_hit 0
Core_0_L1I_writeback_miss 0

Core_0_L2C_total_access 2379640
Core_0_L2C_total_hit 1662169
Core_0_L2C_total_miss 717471
Core_0_L2C_loads 521140
Core_0_L2C_load_hit 327010
Core_0_L2C_load_miss 194130
Core_0_L2C_RFOs 70069
Core_0_L2C_RFO_hit 343
Core_0_L2C_RFO_miss 69726
Core_0_L2C_prefetches 1296207
Core_0_L2C_prefetch_hit 842598
Core_0_L2C_prefetch_miss 453609
Core_0_L2C_writebacks 492224
Core_0_L2C_writeback_hit 492218
Core_0_L2C_writeback_miss 6

[Bingo] PHT Access: 198360
[Bingo] PHT Hit PC+Addr: 64608
[Bingo] PHT Hit PC+Offs: 110915
[Bingo] PHT Miss: 22837
[Bingo] Prefetch PC+Addr: 0
[Bingo] Prefetch PC+Offs: 0
[Bingo] Useful PC+Addr: 0
[Bingo] Useful PC+Offs: 0
[Bingo] Useless PC+Addr: 0
[Bingo] Useless PC+Offs: 0
[Bingo] L1 Prefetch per Region: 11.28121
[Bingo] L2 Prefetch per Region: 0.53441
[Bingo] L3 Prefetch per Region: 0.00000
[Bingo] No Prefetch per Region: 20.18438
[Bingo] Number of Voters Mean: 12.61326
[Bingo] Number of Voters SD: 6.02235
PHT read accesses: 2743428
PHT write accesses: 188494
AT read accesses: 22534207
AT write accesses: 22534887
FT read accesses: 3383906
FT write accesses: 198360
PS read accesses: 1690952
PS write accesses: 175523
PHT tag read accesses: 7750950
PHT tag write accesses: 253102
AT tag read accesses: 489970605
AT tag write accesses: 22722735
FT tag read accesses: 134839245
FT tag write accesses: 1989207
PS tag read accesses: 388945964
PS tag write accesses: 1860375
[Bingo2] PHT Access: 94961
[Bingo2] PHT Hit PC+Addr: 2148
[Bingo2] PHT Hit PC+Offs: 72101
[Bingo2] PHT Miss: 20712
[Bingo2] Prefetch PC+Addr: 0
[Bingo2] Prefetch PC+Offs: 0
[Bingo2] Useful PC+Addr: 0
[Bingo2] Useful PC+Offs: 0
[Bingo2] Useless PC+Addr: 0
[Bingo2] Useless PC+Offs: 0
[Bingo2] L1 Prefetch per Region: 0.00000
[Bingo2] L2 Prefetch per Region: 8.68169
[Bingo2] L3 Prefetch per Region: 0.00000
[Bingo2] No Prefetch per Region: 23.31831
[Bingo2] Number of Voters Mean: 12.17306
[Bingo2] Number of Voters SD: 5.20574
PHT read accesses: 1493504
PHT write accesses: 62514
AT read accesses: 422007
AT write accesses: 484391
FT read accesses: 196223
FT write accesses: 94961
PS read accesses: 192717
PS write accesses: 74249
PHT tag read accesses: 3485495
PHT tag write accesses: 64662
AT tag read accesses: 53715362
AT tag write accesses: 484521
FT tag read accesses: 48498348
FT tag write accesses: 224366
PS tag read accesses: 10933609
PS tag write accesses: 263103
Core_0_LLC_total_access 1124317
Core_0_LLC_total_hit 466325
Core_0_LLC_total_miss 657992
Core_0_LLC_loads 126861
Core_0_LLC_load_hit 12421
Core_0_LLC_load_miss 114440
Core_0_LLC_RFOs 69726
Core_0_LLC_RFO_hit 20
Core_0_LLC_RFO_miss 69706
Core_0_LLC_prefetches 520878
Core_0_LLC_prefetch_hit 53961
Core_0_LLC_prefetch_miss 466917
Core_0_LLC_writebacks 406852
Core_0_LLC_writeback_hit 399923
Core_0_LLC_writeback_miss 6929


CPU 1 cumulative IPC: 0.74326 instructions: 83386583 cycles: 112190961
Core_1_L1D_total_access 27718265
Core_1_L1D_total_hit 26133307
Core_1_L1D_total_miss 1584958
Core_1_L1D_loads 24075857
Core_1_L1D_load_hit 23454092
Core_1_L1D_load_miss 621765
Core_1_L1D_RFOs 2222575
Core_1_L1D_RFO_hit 2151200
Core_1_L1D_RFO_miss 71375
Core_1_L1D_prefetches 1419833
Core_1_L1D_prefetch_hit 528015
Core_1_L1D_prefetch_miss 891818
Core_1_L1D_writebacks 0
Core_1_L1D_writeback_hit 0
Core_1_L1D_writeback_miss 0

Core_1_L1I_total_access 12656276
Core_1_L1I_total_hit 12651219
Core_1_L1I_total_miss 5057
Core_1_L1I_loads 12656276
Core_1_L1I_load_hit 12651219
Core_1_L1I_load_miss 5057
Core_1_L1I_RFOs 0
Core_1_L1I_RFO_hit 0
Core_1_L1I_RFO_miss 0
Core_1_L1I_prefetches 0
Core_1_L1I_prefetch_hit 0
Core_1_L1I_prefetch_miss 0
Core_1_L1I_writebacks 0
Core_1_L1I_writeback_hit 0
Core_1_L1I_writeback_miss 0

Core_1_L2C_total_access 2365951
Core_1_L2C_total_hit 1635260
Core_1_L2C_total_miss 730691
Core_1_L2C_loads 530509
Core_1_L2C_load_hit 323612
Core_1_L2C_load_miss 206897
Core_1_L2C_RFOs 70911
Core_1_L2C_RFO_hit 384
Core_1_L2C_RFO_miss 70527
Core_1_L2C_prefetches 1262208
Core_1_L2C_prefetch_hit 808947
Core_1_L2C_prefetch_miss 453261
Core_1_L2C_writebacks 502323
Core_1_L2C_writeback_hit 502317
Core_1_L2C_writeback_miss 6

[Bingo] PHT Access: 209568
[Bingo] PHT Hit PC+Addr: 65330
[Bingo] PHT Hit PC+Offs: 120165
[Bingo] PHT Miss: 24073
[Bingo] Prefetch PC+Addr: 0
[Bingo] Prefetch PC+Offs: 0
[Bingo] Useful PC+Addr: 0
[Bingo] Useful PC+Offs: 0
[Bingo] Useless PC+Addr: 0
[Bingo] Useless PC+Offs: 0
[Bingo] L1 Prefetch per Region: 10.96021
[Bingo] L2 Prefetch per Region: 0.43131
[Bingo] L3 Prefetch per Region: 0.00000
[Bingo] No Prefetch per Region: 20.60848
[Bingo] Number of Voters Mean: 12.81404
[Bingo] Number of Voters SD: 5.00144
PHT read accesses: 2894623
PHT write accesses: 200142
AT read accesses: 23544090
AT write accesses: 23544849
FT read accesses: 3430841
FT write accesses: 209568
PS read accesses: 1733792
PS write accesses: 185495
PHT tag read accesses: 8283416
PHT tag write accesses: 265472
AT tag read accesses: 508654612
AT tag write accesses: 23744298
FT tag read accesses: 137695343
FT tag write accesses: 2029468
PS tag read accesses: 405553245
PS tag write accesses: 1914310
[Bingo2] PHT Access: 104521
[Bingo2] PHT Hit PC+Addr: 2323
[Bingo2] PHT Hit PC+Offs: 75620
[Bingo2] PHT Miss: 26578
[Bingo2] Prefetch PC+Addr: 0
[Bingo2] Prefetch PC+Offs: 0
[Bingo2] Useful PC+Addr: 0
[Bingo2] Useful PC+Offs: 0
[Bingo2] Useless PC+Addr: 0
[Bingo2] Useless PC+Offs: 0
[Bingo2] L1 Prefetch per Region: 0.00000
[Bingo2] L2 Prefetch per Region: 8.34852
[Bingo2] L3 Prefetch per Region: 0.00000
[Bingo2] No Prefetch per Region: 23.65148
[Bingo2] Number of Voters Mean: 11.90514
[Bingo2] Number of Voters SD: 5.39843
PHT read accesses: 1599485
PHT write accesses: 66437
AT read accesses: 437420
AT write accesses: 503847
FT read accesses: 205011
FT write accesses: 104521
PS read accesses: 204404
PS write accesses: 77943
PHT tag read accesses: 3753330
PHT tag write accesses: 68760
AT tag read accesses: 54281265
AT tag write accesses: 503985
FT tag read accesses: 49034300
FT tag write accesses: 240345
PS tag read accesses: 11432731
PS tag write accesses: 278045
Core_1_LLC_total_access 1139003
Core_1_LLC_total_hit 484027
Core_1_LLC_total_miss 654976
Core_1_LLC_loads 139993
Core_1_LLC_load_hit 16570
Core_1_LLC_load_miss 123423
Core_1_LLC_RFOs 70527
Core_1_LLC_RFO_hit 21
Core_1_LLC_RFO_miss 70506
Core_1_LLC_prefetches 520165
Core_1_LLC_prefetch_hit 69211
Core_1_LLC_prefetch_miss 450954
Core_1_LLC_writebacks 408318
Core_1_LLC_writeback_hit 398225
Core_1_LLC_writeback_miss 10093


CPU 2 cumulative IPC: 0.69524 instructions: 78000001 cycles: 112190961
Core_2_L1D_total_access 25972062
Core_2_L1D_total_hit 24452952
Core_2_L1D_total_miss 1519110
Core_2_L1D_loads 22469140
Core_2_L1D_load_hit 21889614
Core_2_L1D_load_miss 579526
Core_2_L1D_RFOs 2188765
Core_2_L1D_RFO_hit 2117597
Core_2_L1D_RFO_miss 71168
Core_2_L1D_prefetches 1314157
Core_2_L1D_prefetch_hit 445741
Core_2_L1D_prefetch_miss 868416
Core_2_L1D_writebacks 0
Core_2_L1D_writeback_hit 0
Core_2_L1D_writeback_miss 0

Core_2_L1I_total_access 12066683
Core_2_L1I_total_hit 12064623
Core_2_L1I_total_miss 2060
Core_2_L1I_loads 12066683
Core_2_L1I_load_hit 12064623
Core_2_L1I_load_miss 2060
Core_2_L1I_RFOs 0
Core_2_L1I_RFO_hit 0
Core_2_L1I_RFO_miss 0
Core_2_L1I_prefetches 0
Core_2_L1I_prefetch_hit 0
Core_2_L1I_prefetch_miss 0
Core_2_L1I_writebacks 0
Core_2_L1I_writeback_hit 0
Core_2_L1I_writeback_miss 0

Core_2_L2C_total_access 2254590
Core_2_L2C_total_hit 1556909
Core_2_L2C_total_miss 697681
Core_2_L2C_loads 486540
Core_2_L2C_load_hit 293559
Core_2_L2C_load_miss 192981
Core_2_L2C_RFOs 71040
Core_2_L2C_RFO_hit 349
Core_2_L2C_RFO_miss 70691
Core_2_L2C_prefetches 1207642
Core_2_L2C_prefetch_hit 773639
Core_2_L2C_prefetch_miss 434003
Core_2_L2C_writebacks 489368
Core_2_L2C_writeback_hit 489362
Core_2_L2C_writeback_miss 6

[Bingo] PHT Access: 195600
[Bingo] PHT Hit PC+Addr: 58500
[Bingo] PHT Hit PC+Offs: 114093
[Bingo] PHT Miss: 23007
[Bingo] Prefetch PC+Addr: 0
[Bingo] Prefetch PC+Offs: 0
[Bingo] Useful PC+Addr: 0
[Bingo] Useful PC+Offs: 0
[Bingo] Useless PC+Addr: 0
[Bingo] Useless PC+Offs: 0
[Bingo] L1 Prefetch per Region: 10.91776
[Bingo] L2 Prefetch per Region: 0.45855
[Bingo] L3 Prefetch per Region: 0.00000
[Bingo] No Prefetch per Region: 20.62369
[Bingo] Number of Voters Mean: 12.98115
[Bingo] Number of Voters SD: 4.88640
PHT read accesses: 2713743
PHT write accesses: 186193
AT read accesses: 21926326
AT write accesses: 21926755
FT read accesses: 3375955
FT write accesses: 195600
PS read accesses: 1578354
PS write accesses: 172593
PHT tag read accesses: 7756065
PHT tag write accesses: 244693
AT tag read accesses: 482111947
AT tag write accesses: 22112582
FT tag read accesses: 136667232
FT tag write accesses: 1981189
PS tag read accesses: 379122457
PS tag write accesses: 1745972
[Bingo2] PHT Access: 100693
[Bingo2] PHT Hit PC+Addr: 1743
[Bingo2] PHT Hit PC+Offs: 73017
[Bingo2] PHT Miss: 25933
[Bingo2] Prefetch PC+Addr: 0
[Bingo2] Prefetch PC+Offs: 0
[Bingo2] Useful PC+Addr: 0
[Bingo2] Useful PC+Offs: 0
[Bingo2] Useless PC+Addr: 0
[Bingo2] Useless PC+Offs: 0
[Bingo2] L1 Prefetch per Region: 0.00000
[Bingo2] L2 Prefetch per Region: 8.96046
[Bingo2] L3 Prefetch per Region: 0.00000
[Bingo2] No Prefetch per Region: 23.03954
[Bingo2] Number of Voters Mean: 11.69530
[Bingo2] Number of Voters SD: 5.42004
PHT read accesses: 1543771
PHT write accesses: 61478
AT read accesses: 397711
AT write accesses: 459175
FT read accesses: 189541
FT write accesses: 100693
PS read accesses: 186126
PS write accesses: 74760
PHT tag read accesses: 3542455
PHT tag write accesses: 63221
AT tag read accesses: 53341693
AT tag write accesses: 459317
FT tag read accesses: 48715329
FT tag write accesses: 226309
PS tag read accesses: 10611311
PS tag write accesses: 256861
Core_2_LLC_total_access 1102614
Core_2_LLC_total_hit 435867
Core_2_LLC_total_miss 666747
Core_2_LLC_loads 121007
Core_2_LLC_load_hit 5954
Core_2_LLC_load_miss 115053
Core_2_LLC_RFOs 70691
Core_2_LLC_RFO_hit 7
Core_2_LLC_RFO_miss 70684
Core_2_LLC_prefetches 505977
Core_2_LLC_prefetch_hit 34876
Core_2_LLC_prefetch_miss 471101
Core_2_LLC_writebacks 404939
Core_2_LLC_writeback_hit 395030
Core_2_LLC_writeback_miss 9909


CPU 3 cumulative IPC: 0.69634 instructions: 78122516 cycles: 112190961
Core_3_L1D_total_access 26031245
Core_3_L1D_total_hit 24514538
Core_3_L1D_total_miss 1516707
Core_3_L1D_loads 22505305
Core_3_L1D_load_hit 21918040
Core_3_L1D_load_miss 587265
Core_3_L1D_RFOs 2188782
Core_3_L1D_RFO_hit 2117501
Core_3_L1D_RFO_miss 71281
Core_3_L1D_prefetches 1337158
Core_3_L1D_prefetch_hit 478997
Core_3_L1D_prefetch_miss 858161
Core_3_L1D_writebacks 0
Core_3_L1D_writeback_hit 0
Core_3_L1D_writeback_miss 0

Core_3_L1I_total_access 12084697
Core_3_L1I_total_hit 12082592
Core_3_L1I_total_miss 2105
Core_3_L1I_loads 12084697
Core_3_L1I_load_hit 12082592
Core_3_L1I_load_miss 2105
Core_3_L1I_RFOs 0
Core_3_L1I_RFO_hit 0
Core_3_L1I_RFO_miss 0
Core_3_L1I_prefetches 0
Core_3_L1I_prefetch_hit 0
Core_3_L1I_prefetch_miss 0
Core_3_L1I_writebacks 0
Core_3_L1I_writeback_hit 0
Core_3_L1I_writeback_miss 0

Core_3_L2C_total_access 2251530
Core_3_L2C_total_hit 1553707
Core_3_L2C_total_miss 697823
Core_3_L2C_loads 495374
Core_3_L2C_load_hit 300696
Core_3_L2C_load_miss 194678
Core_3_L2C_RFOs 71166
Core_3_L2C_RFO_hit 380
Core_3_L2C_RFO_miss 70786
Core_3_L2C_prefetches 1195200
Core_3_L2C_prefetch_hit 762847
Core_3_L2C_prefetch_miss 432353
Core_3_L2C_writebacks 489790
Core_3_L2C_writeback_hit 489784
Core_3_L2C_writeback_miss 6

[Bingo] PHT Access: 199118
[Bingo] PHT Hit PC+Addr: 60455
[Bingo] PHT Hit PC+Offs: 114458
[Bingo] PHT Miss: 24205
[Bingo] Prefetch PC+Addr: 0
[Bingo] Prefetch PC+Offs: 0
[Bingo] Useful PC+Addr: 0
[Bingo] Useful PC+Offs: 0
[Bingo] Useless PC+Addr: 0
[Bingo] Useless PC+Offs: 0
[Bingo] L1 Prefetch per Region: 10.93999
[Bingo] L2 Prefetch per Region: 0.43390
[Bingo] L3 Prefetch per Region: 0.00000
[Bingo] No Prefetch per Region: 20.62611
[Bingo] Number of Voters Mean: 12.92478
[Bingo] Number of Voters SD: 4.91307
PHT read accesses: 2758115
PHT write accesses: 189743
AT read accesses: 21967444
AT write accesses: 21968152
FT read accesses: 3381309
FT write accesses: 199118
PS read accesses: 1577717
PS write accesses: 174913
PHT tag read accesses: 7891199
PHT tag write accesses: 250198
AT tag read accesses: 482873448
AT tag write accesses: 22157249
FT tag read accesses: 136860066
FT tag write accesses: 1989095
PS tag read accesses: 379817091
PS tag write accesses: 1747838
[Bingo2] PHT Access: 101040
[Bingo2] PHT Hit PC+Addr: 1805
[Bingo2] PHT Hit PC+Offs: 74244
[Bingo2] PHT Miss: 24991
[Bingo2] Prefetch PC+Addr: 0
[Bingo2] Prefetch PC+Offs: 0
[Bingo2] Useful PC+Addr: 0
[Bingo2] Useful PC+Offs: 0
[Bingo2] Useless PC+Addr: 0
[Bingo2] Useless PC+Offs: 0
[Bingo2] L1 Prefetch per Region: 0.00000
[Bingo2] L2 Prefetch per Region: 9.24541
[Bingo2] L3 Prefetch per Region: 0.00000
[Bingo2] No Prefetch per Region: 22.75459
[Bingo2] Number of Voters Mean: 11.77438
[Bingo2] Number of Voters SD: 5.26738
PHT read accesses: 1548852
PHT write accesses: 62001
AT read accesses: 406391
AT write accesses: 468390
FT read accesses: 191207
FT write accesses: 101040
PS read accesses: 185718
PS write accesses: 76049
PHT tag read accesses: 3564764
PHT tag write accesses: 63806
AT tag read accesses: 53512420
AT tag write accesses: 468520
FT tag read accesses: 48740808
FT tag write accesses: 227746
PS tag read accesses: 10777718
PS tag write accesses: 257368
Core_3_LLC_total_access 1102280
Core_3_LLC_total_hit 432121
Core_3_LLC_total_miss 670159
Core_3_LLC_loads 122310
Core_3_LLC_load_hit 5384
Core_3_LLC_load_miss 116926
Core_3_LLC_RFOs 70786
Core_3_LLC_RFO_hit 14
Core_3_LLC_RFO_miss 70772
Core_3_LLC_prefetches 504721
Core_3_LLC_prefetch_hit 34530
Core_3_LLC_prefetch_miss 470191
Core_3_LLC_writebacks 404463
Core_3_LLC_writeback_hit 392193
Core_3_LLC_writeback_miss 12270


[ROI Statistics]
Core_0_instructions 78000000
Core_0_cycles 109486078
Core_0_IPC 0.71242

Core_0_branch_prediction_accuracy 99.14185
Core_0_branch_MPKI 0.25243
Core_0_average_ROB_occupancy_at_mispredict 423.89631

Core_0_L1D_total_access 25976083
Core_0_L1D_total_hit 24444021 L1D_total_Hit Ratio: 0.94102
Core_0_L1D_total_miss 1532062
Core_0_L1D_loads 22459361
Core_0_L1D_load_hit 21871309 L1D_load_Hit Ratio: 0.97382
Core_0_L1D_load_miss 588052
Core_0_L1D_RFOs 2189254
Core_0_L1D_RFO_hit 2118848 L1D_RFO_Hit Ratio: 0.96784
Core_0_L1D_RFO_miss 70406
Core_0_L1D_prefetches 1327468
Core_0_L1D_prefetch_hit 453864 L1D_prefetch_Hit Ratio: 0.34190
Core_0_L1D_prefetch_miss 873604
Core_0_L1D_writebacks 0
Core_0_L1D_writeback_hit 0 L1D_writeback_Hit Ratio: -nan
Core_0_L1D_writeback_miss 0
Core_0_L1D_prefetch_requested 1674330
Core_0_L1D_prefetch_issued 1674330
Core_0_L1D_prefetch_useful 924720 L1D_Useful Ratio: 0.55229
Core_0_L1D_prefetch_useless 19497
Core_0_L1D_prefetch_late 96552
Core_0_L1D_average_miss_latency 2222801.48274

Core_0_L1I_total_access 12072372
Core_0_L1I_total_hit 12070332 L1I_total_Hit Ratio: 0.99983
Core_0_L1I_total_miss 2040
Core_0_L1I_loads 12072372
Core_0_L1I_load_hit 12070332 L1I_load_Hit Ratio: 0.99983
Core_0_L1I_load_miss 2040
Core_0_L1I_RFOs 0
Core_0_L1I_RFO_hit 0 L1I_RFO_Hit Ratio: -nan
Core_0_L1I_RFO_miss 0
Core_0_L1I_prefetches 0
Core_0_L1I_prefetch_hit 0 L1I_prefetch_Hit Ratio: -nan
Core_0_L1I_prefetch_miss 0
Core_0_L1I_writebacks 0
Core_0_L1I_writeback_hit 0 L1I_writeback_Hit Ratio: -nan
Core_0_L1I_writeback_miss 0
Core_0_L1I_prefetch_requested 0
Core_0_L1I_prefetch_issued 0
Core_0_L1I_prefetch_useful 0 L1I_Useful Ratio: -nan
Core_0_L1I_prefetch_useless 0
Core_0_L1I_prefetch_late 0
Core_0_L1I_average_miss_latency 1411.28529

Core_0_L2C_total_access 2287730
Core_0_L2C_total_hit 1590121 L2C_total_Hit Ratio: 0.69506
Core_0_L2C_total_miss 697609
Core_0_L2C_loads 496344
Core_0_L2C_load_hit 307431 L2C_load_Hit Ratio: 0.61939
Core_0_L2C_load_miss 188913
Core_0_L2C_RFOs 69998
Core_0_L2C_RFO_hit 340 L2C_RFO_Hit Ratio: 0.00486
Core_0_L2C_RFO_miss 69658
Core_0_L2C_prefetches 1232855
Core_0_L2C_prefetch_hit 793823 L2C_prefetch_Hit Ratio: 0.64389
Core_0_L2C_prefetch_miss 439032
Core_0_L2C_writebacks 488533
Core_0_L2C_writeback_hit 488527 L2C_writeback_Hit Ratio: 0.99999
Core_0_L2C_writeback_miss 6
Core_0_L2C_prefetch_requested 430527
Core_0_L2C_prefetch_issued 430527
Core_0_L2C_prefetch_useful 98065 L2C_Useful Ratio: 0.22778
Core_0_L2C_prefetch_useless 323116
Core_0_L2C_prefetch_late 67279
Core_0_L2C_average_miss_latency 721.81468

Core_0_LLC_total_access 1102911
Core_0_LLC_total_hit 463479 LLC_total_Hit Ratio: 0.42023
Core_0_LLC_total_miss 639432
Core_0_LLC_loads 122067
Core_0_LLC_load_hit 12259 LLC_load_Hit Ratio: 0.10043
Core_0_LLC_load_miss 109808
Core_0_LLC_RFOs 69658
Core_0_LLC_RFO_hit 16 LLC_RFO_Hit Ratio: 0.00023
Core_0_LLC_RFO_miss 69642
Core_0_LLC_prefetches 505878
Core_0_LLC_prefetch_hit 52793 LLC_prefetch_Hit Ratio: 0.10436
Core_0_LLC_prefetch_miss 453085
Core_0_LLC_writebacks 405308
Core_0_LLC_writeback_hit 398411 LLC_writeback_Hit Ratio: 0.98298
Core_0_LLC_writeback_miss 6897
Core_0_LLC_prefetch_requested 0
Core_0_LLC_prefetch_issued 0
Core_0_LLC_prefetch_useful 15953 LLC_Useful Ratio: inf
Core_0_LLC_prefetch_useless 1431041
Core_0_LLC_prefetch_late 0
Core_0_LLC_average_miss_latency 3054.09889

Core_0_major_page_fault 0
Core_0_minor_page_fault 6178

Core_1_instructions 78000005
Core_1_cycles 108214926
Core_1_IPC 0.72079

Core_1_branch_prediction_accuracy 99.14359
Core_1_branch_MPKI 0.24979
Core_1_average_ROB_occupancy_at_mispredict 421.45561

Core_1_L1D_total_access 25963652
Core_1_L1D_total_hit 24482450 L1D_total_Hit Ratio: 0.94295
Core_1_L1D_total_miss 1481202
Core_1_L1D_loads 22454573
Core_1_L1D_load_hit 21869655 L1D_load_Hit Ratio: 0.97395
Core_1_L1D_load_miss 584918
Core_1_L1D_RFOs 2188606
Core_1_L1D_RFO_hit 2117345 L1D_RFO_Hit Ratio: 0.96744
Core_1_L1D_RFO_miss 71261
Core_1_L1D_prefetches 1320473
Core_1_L1D_prefetch_hit 495450 L1D_prefetch_Hit Ratio: 0.37521
Core_1_L1D_prefetch_miss 825023
Core_1_L1D_writebacks 0
Core_1_L1D_writeback_hit 0 L1D_writeback_Hit Ratio: -nan
Core_1_L1D_writeback_miss 0
Core_1_L1D_prefetch_requested 1684574
Core_1_L1D_prefetch_issued 1684574
Core_1_L1D_prefetch_useful 890679 L1D_Useful Ratio: 0.52873
Core_1_L1D_prefetch_useless 19158
Core_1_L1D_prefetch_late 97346
Core_1_L1D_average_miss_latency 2397767.43257

Core_1_L1I_total_access 12081203
Core_1_L1I_total_hit 12079176 L1I_total_Hit Ratio: 0.99983
Core_1_L1I_total_miss 2027
Core_1_L1I_loads 12081203
Core_1_L1I_load_hit 12079176 L1I_load_Hit Ratio: 0.99983
Core_1_L1I_load_miss 2027
Core_1_L1I_RFOs 0
Core_1_L1I_RFO_hit 0 L1I_RFO_Hit Ratio: -nan
Core_1_L1I_RFO_miss 0
Core_1_L1I_prefetches 0
Core_1_L1I_prefetch_hit 0 L1I_prefetch_Hit Ratio: -nan
Core_1_L1I_prefetch_miss 0
Core_1_L1I_writebacks 0
Core_1_L1I_writeback_hit 0 L1I_writeback_Hit Ratio: -nan
Core_1_L1I_writeback_miss 0
Core_1_L1I_prefetch_requested 0
Core_1_L1I_prefetch_issued 0
Core_1_L1I_prefetch_useful 0 L1I_Useful Ratio: -nan
Core_1_L1I_prefetch_useless 0
Core_1_L1I_prefetch_late 0
Core_1_L1I_average_miss_latency 1512.60829

Core_1_L2C_total_access 2231804
Core_1_L2C_total_hit 1534201 L2C_total_Hit Ratio: 0.68743
Core_1_L2C_total_miss 697603
Core_1_L2C_loads 493812
Core_1_L2C_load_hit 300313 L2C_load_Hit Ratio: 0.60815
Core_1_L2C_load_miss 193499
Core_1_L2C_RFOs 70797
Core_1_L2C_RFO_hit 356 L2C_RFO_Hit Ratio: 0.00503
Core_1_L2C_RFO_miss 70441
Core_1_L2C_prefetches 1178740
Core_1_L2C_prefetch_hit 745083 L2C_prefetch_Hit Ratio: 0.63210
Core_1_L2C_prefetch_miss 433657
Core_1_L2C_writebacks 488455
Core_1_L2C_writeback_hit 488449 L2C_writeback_Hit Ratio: 0.99999
Core_1_L2C_writeback_miss 6
Core_1_L2C_prefetch_requested 436587
Core_1_L2C_prefetch_issued 436587
Core_1_L2C_prefetch_useful 95661 L2C_Useful Ratio: 0.21911
Core_1_L2C_prefetch_useless 329382
Core_1_L2C_prefetch_late 66964
Core_1_L2C_average_miss_latency 706.91862

Core_1_LLC_total_access 1102744
Core_1_LLC_total_hit 480022 LLC_total_Hit Ratio: 0.43530
Core_1_LLC_total_miss 622722
Core_1_LLC_loads 127416
Core_1_LLC_load_hit 16449 LLC_load_Hit Ratio: 0.12910
Core_1_LLC_load_miss 110967
Core_1_LLC_RFOs 70441
Core_1_LLC_RFO_hit 16 LLC_RFO_Hit Ratio: 0.00023
Core_1_LLC_RFO_miss 70425
Core_1_LLC_prefetches 499741
Core_1_LLC_prefetch_hit 68458 LLC_prefetch_Hit Ratio: 0.13699
Core_1_LLC_prefetch_miss 431283
Core_1_LLC_writebacks 405146
Core_1_LLC_writeback_hit 395099 LLC_writeback_Hit Ratio: 0.97520
Core_1_LLC_writeback_miss 10047
Core_1_LLC_prefetch_requested 0
Core_1_LLC_prefetch_issued 0
Core_1_LLC_prefetch_useful 15953 LLC_Useful Ratio: inf
Core_1_LLC_prefetch_useless 1431041
Core_1_LLC_prefetch_late 0
Core_1_LLC_average_miss_latency 3136.05198

Core_1_major_page_fault 0
Core_1_minor_page_fault 6178

Core_2_instructions 78000001
Core_2_cycles 112190961
Core_2_IPC 0.69524

Core_2_branch_prediction_accuracy 99.16542
Core_2_branch_MPKI 0.25491
Core_2_average_ROB_occupancy_at_mispredict 434.76276

Core_2_L1D_total_access 25972062
Core_2_L1D_total_hit 24452952 L1D_total_Hit Ratio: 0.94151
Core_2_L1D_total_miss 1519110
Core_2_L1D_loads 22469140
Core_2_L1D_load_hit 21889614 L1D_load_Hit Ratio: 0.97421
Core_2_L1D_load_miss 579526
Core_2_L1D_RFOs 2188765
Core_2_L1D_RFO_hit 2117597 L1D_RFO_Hit Ratio: 0.96748
Core_2_L1D_RFO_miss 71168
Core_2_L1D_prefetches 1314157
Core_2_L1D_prefetch_hit 445741 L1D_prefetch_Hit Ratio: 0.33918
Core_2_L1D_prefetch_miss 868416
Core_2_L1D_writebacks 0
Core_2_L1D_writeback_hit 0 L1D_writeback_Hit Ratio: -nan
Core_2_L1D_writeback_miss 0
Core_2_L1D_prefetch_requested 1567555
Core_2_L1D_prefetch_issued 1567555
Core_2_L1D_prefetch_useful 873479 L1D_Useful Ratio: 0.55722
Core_2_L1D_prefetch_useless 18031
Core_2_L1D_prefetch_late 96193
Core_2_L1D_average_miss_latency 2266466.28958

Core_2_L1I_total_access 12066683
Core_2_L1I_total_hit 12064623 L1I_total_Hit Ratio: 0.99983
Core_2_L1I_total_miss 2060
Core_2_L1I_loads 12066683
Core_2_L1I_load_hit 12064623 L1I_load_Hit Ratio: 0.99983
Core_2_L1I_load_miss 2060
Core_2_L1I_RFOs 0
Core_2_L1I_RFO_hit 0 L1I_RFO_Hit Ratio: -nan
Core_2_L1I_RFO_miss 0
Core_2_L1I_prefetches 0
Core_2_L1I_prefetch_hit 0 L1I_prefetch_Hit Ratio: -nan
Core_2_L1I_prefetch_miss 0
Core_2_L1I_writebacks 0
Core_2_L1I_writeback_hit 0 L1I_writeback_Hit Ratio: -nan
Core_2_L1I_writeback_miss 0
Core_2_L1I_prefetch_requested 0
Core_2_L1I_prefetch_issued 0
Core_2_L1I_prefetch_useful 0 L1I_Useful Ratio: -nan
Core_2_L1I_prefetch_useless 0
Core_2_L1I_prefetch_late 0
Core_2_L1I_average_miss_latency 1292.24515

Core_2_L2C_total_access 2254590
Core_2_L2C_total_hit 1556909 L2C_total_Hit Ratio: 0.69055
Core_2_L2C_total_miss 697681
Core_2_L2C_loads 486540
Core_2_L2C_load_hit 293559 L2C_load_Hit Ratio: 0.60336
Core_2_L2C_load_miss 192981
Core_2_L2C_RFOs 71040
Core_2_L2C_RFO_hit 349 L2C_RFO_Hit Ratio: 0.00491
Core_2_L2C_RFO_miss 70691
Core_2_L2C_prefetches 1207642
Core_2_L2C_prefetch_hit 773639 L2C_prefetch_Hit Ratio: 0.64062
Core_2_L2C_prefetch_miss 434003
Core_2_L2C_writebacks 489368
Core_2_L2C_writeback_hit 489362 L2C_writeback_Hit Ratio: 0.99999
Core_2_L2C_writeback_miss 6
Core_2_L2C_prefetch_requested 436739
Core_2_L2C_prefetch_issued 436739
Core_2_L2C_prefetch_useful 89985 L2C_Useful Ratio: 0.20604
Core_2_L2C_prefetch_useless 310309
Core_2_L2C_prefetch_late 72015
Core_2_L2C_average_miss_latency 742.26368

Core_2_LLC_total_access 1102614
Core_2_LLC_total_hit 435867 LLC_total_Hit Ratio: 0.39530
Core_2_LLC_total_miss 666747
Core_2_LLC_loads 121007
Core_2_LLC_load_hit 5954 LLC_load_Hit Ratio: 0.04920
Core_2_LLC_load_miss 115053
Core_2_LLC_RFOs 70691
Core_2_LLC_RFO_hit 7 LLC_RFO_Hit Ratio: 0.00010
Core_2_LLC_RFO_miss 70684
Core_2_LLC_prefetches 505977
Core_2_LLC_prefetch_hit 34876 LLC_prefetch_Hit Ratio: 0.06893
Core_2_LLC_prefetch_miss 471101
Core_2_LLC_writebacks 404939
Core_2_LLC_writeback_hit 395030 LLC_writeback_Hit Ratio: 0.97553
Core_2_LLC_writeback_miss 9909
Core_2_LLC_prefetch_requested 0
Core_2_LLC_prefetch_issued 0
Core_2_LLC_prefetch_useful 15953 LLC_Useful Ratio: inf
Core_2_LLC_prefetch_useless 1431041
Core_2_LLC_prefetch_late 0
Core_2_LLC_average_miss_latency 2928.97990

Core_2_major_page_fault 0
Core_2_minor_page_fault 6067

Core_3_instructions 78000005
Core_3_cycles 112125985
Core_3_IPC 0.69565

Core_3_branch_prediction_accuracy 99.16553
Core_3_branch_MPKI 0.25456
Core_3_average_ROB_occupancy_at_mispredict 434.58918

Core_3_L1D_total_access 25985467
Core_3_L1D_total_hit 24471606 L1D_total_Hit Ratio: 0.94174
Core_3_L1D_total_miss 1513861
Core_3_L1D_loads 22462513
Core_3_L1D_load_hit 21876387 L1D_load_Hit Ratio: 0.97391
Core_3_L1D_load_miss 586126
Core_3_L1D_RFOs 2188513
Core_3_L1D_RFO_hit 2117232 L1D_RFO_Hit Ratio: 0.96743
Core_3_L1D_RFO_miss 71281
Core_3_L1D_prefetches 1334441
Core_3_L1D_prefetch_hit 477987 L1D_prefetch_Hit Ratio: 0.35819
Core_3_L1D_prefetch_miss 856454
Core_3_L1D_writebacks 0
Core_3_L1D_writeback_hit 0 L1D_writeback_Hit Ratio: -nan
Core_3_L1D_writeback_miss 0
Core_3_L1D_prefetch_requested 1590066
Core_3_L1D_prefetch_issued 1590066
Core_3_L1D_prefetch_useful 860907 L1D_Useful Ratio: 0.54143
Core_3_L1D_prefetch_useless 18106
Core_3_L1D_prefetch_late 95041
Core_3_L1D_average_miss_latency 2261681.79661

Core_3_L1I_total_access 12072399
Core_3_L1I_total_hit 12070294 L1I_total_Hit Ratio: 0.99983
Core_3_L1I_total_miss 2105
Core_3_L1I_loads 12072399
Core_3_L1I_load_hit 12070294 L1I_load_Hit Ratio: 0.99983
Core_3_L1I_load_miss 2105
Core_3_L1I_RFOs 0
Core_3_L1I_RFO_hit 0 L1I_RFO_Hit Ratio: -nan
Core_3_L1I_RFO_miss 0
Core_3_L1I_prefetches 0
Core_3_L1I_prefetch_hit 0 L1I_prefetch_Hit Ratio: -nan
Core_3_L1I_prefetch_miss 0
Core_3_L1I_writebacks 0
Core_3_L1I_writeback_hit 0 L1I_writeback_Hit Ratio: -nan
Core_3_L1I_writeback_miss 0
Core_3_L1I_prefetch_requested 0
Core_3_L1I_prefetch_issued 0
Core_3_L1I_prefetch_useful 0 L1I_Useful Ratio: -nan
Core_3_L1I_prefetch_useless 0
Core_3_L1I_prefetch_late 0
Core_3_L1I_average_miss_latency 1334.01758

Core_3_L2C_total_access 2248505
Core_3_L2C_total_hit 1550850 L2C_total_Hit Ratio: 0.68972
Core_3_L2C_total_miss 697655
Core_3_L2C_loads 494263
Core_3_L2C_load_hit 299611 L2C_load_Hit Ratio: 0.60618
Core_3_L2C_load_miss 194652
Core_3_L2C_RFOs 71166
Core_3_L2C_RFO_hit 380 L2C_RFO_Hit Ratio: 0.00534
Core_3_L2C_RFO_miss 70786
Core_3_L2C_prefetches 1193347
Core_3_L2C_prefetch_hit 761136 L2C_prefetch_Hit Ratio: 0.63782
Core_3_L2C_prefetch_miss 432211
Core_3_L2C_writebacks 489729
Core_3_L2C_writeback_hit 489723 L2C_writeback_Hit Ratio: 0.99999
Core_3_L2C_writeback_miss 6
Core_3_L2C_prefetch_requested 456733
Core_3_L2C_prefetch_issued 456733
Core_3_L2C_prefetch_useful 88442 L2C_Useful Ratio: 0.19364
Core_3_L2C_prefetch_useless 309851
Core_3_L2C_prefetch_late 72499
Core_3_L2C_average_miss_latency 750.95723

Core_3_LLC_total_access 1102112
Core_3_LLC_total_hit 432121 LLC_total_Hit Ratio: 0.39208
Core_3_LLC_total_miss 669991
Core_3_LLC_loads 122289
Core_3_LLC_load_hit 5384 LLC_load_Hit Ratio: 0.04403
Core_3_LLC_load_miss 116905
Core_3_LLC_RFOs 70786
Core_3_LLC_RFO_hit 14 LLC_RFO_Hit Ratio: 0.00020
Core_3_LLC_RFO_miss 70772
Core_3_LLC_prefetches 504574
Core_3_LLC_prefetch_hit 34530 LLC_prefetch_Hit Ratio: 0.06843
Core_3_LLC_prefetch_miss 470044
Core_3_LLC_writebacks 404463
Core_3_LLC_writeback_hit 392193 LLC_writeback_Hit Ratio: 0.96966
Core_3_LLC_writeback_miss 12270
Core_3_LLC_prefetch_requested 0
Core_3_LLC_prefetch_issued 0
Core_3_LLC_prefetch_useful 15953 LLC_Useful Ratio: inf
Core_3_LLC_prefetch_useless 1431041
Core_3_LLC_prefetch_late 0
Core_3_LLC_average_miss_latency 2914.79820

Core_3_major_page_fault 0
Core_3_minor_page_fault 6067

[Bingo] PHT Access: 198360
[Bingo] PHT Hit PC+Addr: 64608
[Bingo] PHT Hit PC+Offs: 110915
[Bingo] PHT Miss: 22837
[Bingo] Prefetch PC+Addr: 0
[Bingo] Prefetch PC+Offs: 0
[Bingo] Useful PC+Addr: 0
[Bingo] Useful PC+Offs: 0
[Bingo] Useless PC+Addr: 0
[Bingo] Useless PC+Offs: 0
[Bingo] L1 Prefetch per Region: 11.28121
[Bingo] L2 Prefetch per Region: 0.53441
[Bingo] L3 Prefetch per Region: 0.00000
[Bingo] No Prefetch per Region: 20.18438
[Bingo] Number of Voters Mean: 12.61326
[Bingo] Number of Voters SD: 6.02235
PHT read accesses: 2743428
PHT write accesses: 188494
AT read accesses: 22534207
AT write accesses: 22534887
FT read accesses: 3383906
FT write accesses: 198360
PS read accesses: 1690952
PS write accesses: 175523
PHT tag read accesses: 7750950
PHT tag write accesses: 253102
AT tag read accesses: 489970605
AT tag write accesses: 22722735
FT tag read accesses: 134839245
FT tag write accesses: 1989207
PS tag read accesses: 388945964
PS tag write accesses: 1860375
[Bingo2] PHT Access: 94961
[Bingo2] PHT Hit PC+Addr: 2148
[Bingo2] PHT Hit PC+Offs: 72101
[Bingo2] PHT Miss: 20712
[Bingo2] Prefetch PC+Addr: 0
[Bingo2] Prefetch PC+Offs: 0
[Bingo2] Useful PC+Addr: 0
[Bingo2] Useful PC+Offs: 0
[Bingo2] Useless PC+Addr: 0
[Bingo2] Useless PC+Offs: 0
[Bingo2] L1 Prefetch per Region: 0.00000
[Bingo2] L2 Prefetch per Region: 8.68169
[Bingo2] L3 Prefetch per Region: 0.00000
[Bingo2] No Prefetch per Region: 23.31831
[Bingo2] Number of Voters Mean: 12.17306
[Bingo2] Number of Voters SD: 5.20574
PHT read accesses: 1493504
PHT write accesses: 62514
AT read accesses: 422007
AT write accesses: 484391
FT read accesses: 196223
FT write accesses: 94961
PS read accesses: 192717
PS write accesses: 74249
PHT tag read accesses: 3485495
PHT tag write accesses: 64662
AT tag read accesses: 53715362
AT tag write accesses: 484521
FT tag read accesses: 48498348
FT tag write accesses: 224366
PS tag read accesses: 10933609
PS tag write accesses: 263103
[Bingo] PHT Access: 209568
[Bingo] PHT Hit PC+Addr: 65330
[Bingo] PHT Hit PC+Offs: 120165
[Bingo] PHT Miss: 24073
[Bingo] Prefetch PC+Addr: 0
[Bingo] Prefetch PC+Offs: 0
[Bingo] Useful PC+Addr: 0
[Bingo] Useful PC+Offs: 0
[Bingo] Useless PC+Addr: 0
[Bingo] Useless PC+Offs: 0
[Bingo] L1 Prefetch per Region: 10.96021
[Bingo] L2 Prefetch per Region: 0.43131
[Bingo] L3 Prefetch per Region: 0.00000
[Bingo] No Prefetch per Region: 20.60848
[Bingo] Number of Voters Mean: 12.81404
[Bingo] Number of Voters SD: 5.00144
PHT read accesses: 2894623
PHT write accesses: 200142
AT read accesses: 23544090
AT write accesses: 23544849
FT read accesses: 3430841
FT write accesses: 209568
PS read accesses: 1733792
PS write accesses: 185495
PHT tag read accesses: 8283416
PHT tag write accesses: 265472
AT tag read accesses: 508654612
AT tag write accesses: 23744298
FT tag read accesses: 137695343
FT tag write accesses: 2029468
PS tag read accesses: 405553245
PS tag write accesses: 1914310
[Bingo2] PHT Access: 104521
[Bingo2] PHT Hit PC+Addr: 2323
[Bingo2] PHT Hit PC+Offs: 75620
[Bingo2] PHT Miss: 26578
[Bingo2] Prefetch PC+Addr: 0
[Bingo2] Prefetch PC+Offs: 0
[Bingo2] Useful PC+Addr: 0
[Bingo2] Useful PC+Offs: 0
[Bingo2] Useless PC+Addr: 0
[Bingo2] Useless PC+Offs: 0
[Bingo2] L1 Prefetch per Region: 0.00000
[Bingo2] L2 Prefetch per Region: 8.34852
[Bingo2] L3 Prefetch per Region: 0.00000
[Bingo2] No Prefetch per Region: 23.65148
[Bingo2] Number of Voters Mean: 11.90514
[Bingo2] Number of Voters SD: 5.39843
PHT read accesses: 1599485
PHT write accesses: 66437
AT read accesses: 437420
AT write accesses: 503847
FT read accesses: 205011
FT write accesses: 104521
PS read accesses: 204404
PS write accesses: 77943
PHT tag read accesses: 3753330
PHT tag write accesses: 68760
AT tag read accesses: 54281265
AT tag write accesses: 503985
FT tag read accesses: 49034300
FT tag write accesses: 240345
PS tag read accesses: 11432731
PS tag write accesses: 278045
[Bingo] PHT Access: 195600
[Bingo] PHT Hit PC+Addr: 58500
[Bingo] PHT Hit PC+Offs: 114093
[Bingo] PHT Miss: 23007
[Bingo] Prefetch PC+Addr: 0
[Bingo] Prefetch PC+Offs: 0
[Bingo] Useful PC+Addr: 0
[Bingo] Useful PC+Offs: 0
[Bingo] Useless PC+Addr: 0
[Bingo] Useless PC+Offs: 0
[Bingo] L1 Prefetch per Region: 10.91776
[Bingo] L2 Prefetch per Region: 0.45855
[Bingo] L3 Prefetch per Region: 0.00000
[Bingo] No Prefetch per Region: 20.62369
[Bingo] Number of Voters Mean: 12.98115
[Bingo] Number of Voters SD: 4.88640
PHT read accesses: 2713743
PHT write accesses: 186193
AT read accesses: 21926326
AT write accesses: 21926755
FT read accesses: 3375955
FT write accesses: 195600
PS read accesses: 1578354
PS write accesses: 172593
PHT tag read accesses: 7756065
PHT tag write accesses: 244693
AT tag read accesses: 482111947
AT tag write accesses: 22112582
FT tag read accesses: 136667232
FT tag write accesses: 1981189
PS tag read accesses: 379122457
PS tag write accesses: 1745972
[Bingo2] PHT Access: 100693
[Bingo2] PHT Hit PC+Addr: 1743
[Bingo2] PHT Hit PC+Offs: 73017
[Bingo2] PHT Miss: 25933
[Bingo2] Prefetch PC+Addr: 0
[Bingo2] Prefetch PC+Offs: 0
[Bingo2] Useful PC+Addr: 0
[Bingo2] Useful PC+Offs: 0
[Bingo2] Useless PC+Addr: 0
[Bingo2] Useless PC+Offs: 0
[Bingo2] L1 Prefetch per Region: 0.00000
[Bingo2] L2 Prefetch per Region: 8.96046
[Bingo2] L3 Prefetch per Region: 0.00000
[Bingo2] No Prefetch per Region: 23.03954
[Bingo2] Number of Voters Mean: 11.69530
[Bingo2] Number of Voters SD: 5.42004
PHT read accesses: 1543771
PHT write accesses: 61478
AT read accesses: 397711
AT write accesses: 459175
FT read accesses: 189541
FT write accesses: 100693
PS read accesses: 186126
PS write accesses: 74760
PHT tag read accesses: 3542455
PHT tag write accesses: 63221
AT tag read accesses: 53341693
AT tag write accesses: 459317
FT tag read accesses: 48715329
FT tag write accesses: 226309
PS tag read accesses: 10611311
PS tag write accesses: 256861
[Bingo] PHT Access: 199118
[Bingo] PHT Hit PC+Addr: 60455
[Bingo] PHT Hit PC+Offs: 114458
[Bingo] PHT Miss: 24205
[Bingo] Prefetch PC+Addr: 0
[Bingo] Prefetch PC+Offs: 0
[Bingo] Useful PC+Addr: 0
[Bingo] Useful PC+Offs: 0
[Bingo] Useless PC+Addr: 0
[Bingo] Useless PC+Offs: 0
[Bingo] L1 Prefetch per Region: 10.93999
[Bingo] L2 Prefetch per Region: 0.43390
[Bingo] L3 Prefetch per Region: 0.00000
[Bingo] No Prefetch per Region: 20.62611
[Bingo] Number of Voters Mean: 12.92478
[Bingo] Number of Voters SD: 4.91307
PHT read accesses: 2758115
PHT write accesses: 189743
AT read accesses: 21967444
AT write accesses: 21968152
FT read accesses: 3381309
FT write accesses: 199118
PS read accesses: 1577717
PS write accesses: 174913
PHT tag read accesses: 7891199
PHT tag write accesses: 250198
AT tag read accesses: 482873448
AT tag write accesses: 22157249
FT tag read accesses: 136860066
FT tag write accesses: 1989095
PS tag read accesses: 379817091
PS tag write accesses: 1747838
[Bingo2] PHT Access: 101040
[Bingo2] PHT Hit PC+Addr: 1805
[Bingo2] PHT Hit PC+Offs: 74244
[Bingo2] PHT Miss: 24991
[Bingo2] Prefetch PC+Addr: 0
[Bingo2] Prefetch PC+Offs: 0
[Bingo2] Useful PC+Addr: 0
[Bingo2] Useful PC+Offs: 0
[Bingo2] Useless PC+Addr: 0
[Bingo2] Useless PC+Offs: 0
[Bingo2] L1 Prefetch per Region: 0.00000
[Bingo2] L2 Prefetch per Region: 9.24541
[Bingo2] L3 Prefetch per Region: 0.00000
[Bingo2] No Prefetch per Region: 22.75459
[Bingo2] Number of Voters Mean: 11.77438
[Bingo2] Number of Voters SD: 5.26738
PHT read accesses: 1548852
PHT write accesses: 62001
AT read accesses: 406391
AT write accesses: 468390
FT read accesses: 191207
FT write accesses: 101040
PS read accesses: 185718
PS write accesses: 76049
PHT tag read accesses: 3564764
PHT tag write accesses: 63806
AT tag read accesses: 53512420
AT tag write accesses: 468520
FT tag read accesses: 48740808
FT tag write accesses: 227746
PS tag read accesses: 10777718
PS tag write accesses: 257368
Channel_0_RQ_row_buffer_hit 1154423
Channel_0_RQ_row_buffer_miss 1456220
Channel_0_WQ_row_buffer_hit 446640
Channel_0_WQ_row_buffer_miss 966862
Channel_0_WQ_full 49063
Channel_0_dbus_congested 2893356

avg_congested_cycle 8

EzSearch AVG IPC :0.71242: L2-Pf-HR :0.64389 : L2-HR :0.69850 Uful:0.22778
EzSearch AVG IPC :0.72079: L2-Pf-HR :0.63210 : L2-HR :0.69116 Uful:0.21911
EzSearch AVG IPC :0.69524: L2-Pf-HR :0.64062 : L2-HR :0.69055 Uful:0.20604
EzSearch AVG IPC :0.69565: L2-Pf-HR :0.63782 : L2-HR :0.69007 Uful:0.19364
     > Finished combination: TraceType=770-tot Sim:78000000 Prefetcher=L2bingo_dpc3_PHT1k L1=bingo_dpc3_PHT1k
