TRACE: [662000000][OPT-350M]_[h16][s1024][d64] Warmup: 2000000 NumTraces: 662000000
L1:next_line:L2:029-SecTOP-L2-MultiMarkovDelta_ip_stride_v4-IPStrS256
*************************************************
   ChampSim Multicore Out-of-Order Simulator
   Last compiled: Oct 29 2024 05:01:44
*************************************************

trace_0 770-tot_memTraces_v3/memTraces[662000000][OPT-350M]_[h16][s1024][d64].champsim.xz
trace_1 770-tot_memTraces_v3/memTraces[662000000][OPT-350M]_[h16][s1024][d64].champsim.xz
trace_2 770-tot_memTraces_v3/memTraces[662000000][OPT-350M]_[h16][s1024][d64].champsim.xz
trace_3 770-tot_memTraces_v3/memTraces[662000000][OPT-350M]_[h16][s1024][d64].champsim.xz
CPU 0 L1D next line prefetcher
MK1: Size: 128 TMAX: 64 TMIN: 32 MKPTHRESH: 40
MK2: Size: 256 TMAX: 32 TMIN: 16 MK2PTHRESH: 30
MK3: Size: 384 TMAX: 16 TMIN: 8 MK3PTHRESH: 25
MK4: Size: 512 TMAX: 8 TMIN: 0 MK4PTHRESH: 20
Stride Size: 256 Prefetch Degree: 15

CPU 0 L2C prefetcher
CPU 1 L1D next line prefetcher
MK1: Size: 128 TMAX: 64 TMIN: 32 MKPTHRESH: 40
MK2: Size: 256 TMAX: 32 TMIN: 16 MK2PTHRESH: 30
MK3: Size: 384 TMAX: 16 TMIN: 8 MK3PTHRESH: 25
MK4: Size: 512 TMAX: 8 TMIN: 0 MK4PTHRESH: 20
Stride Size: 256 Prefetch Degree: 15

CPU 1 L2C prefetcher
CPU 2 L1D next line prefetcher
MK1: Size: 128 TMAX: 64 TMIN: 32 MKPTHRESH: 40
MK2: Size: 256 TMAX: 32 TMIN: 16 MK2PTHRESH: 30
MK3: Size: 384 TMAX: 16 TMIN: 8 MK3PTHRESH: 25
MK4: Size: 512 TMAX: 8 TMIN: 0 MK4PTHRESH: 20
Stride Size: 256 Prefetch Degree: 15

CPU 2 L2C prefetcher
CPU 3 L1D next line prefetcher
MK1: Size: 128 TMAX: 64 TMIN: 32 MKPTHRESH: 40
MK2: Size: 256 TMAX: 32 TMIN: 16 MK2PTHRESH: 30
MK3: Size: 384 TMAX: 16 TMIN: 8 MK3PTHRESH: 25
MK4: Size: 512 TMAX: 8 TMIN: 0 MK4PTHRESH: 20
Stride Size: 256 Prefetch Degree: 15

CPU 3 L2C prefetcher
MAIN.cc ln 751 stats print skipped
CPU 0 L2C prefetcher initialized


Cache Size: 4096
number of cache lines: 65536
CPU  3 inst:    1000001 cyc:     499813 now IPC :2.00075: AVG IPC :2.00075: L2-Pf-HR :0.78005: L2-HR :0.76288: (Sim:0h0m49s) 
CPU  1 inst:    1000001 cyc:     500075 now IPC :1.99970: AVG IPC :1.99970: L2-Pf-HR :0.78846: L2-HR :0.77142: (Sim:0h0m49s) 
CPU  0 inst:    1000001 cyc:     500313 now IPC :1.99875: AVG IPC :1.99875: L2-Pf-HR :0.79446: L2-HR :0.78056: (Sim:0h0m49s) 
CPU  2 inst:    1000001 cyc:     500451 now IPC :1.99820: AVG IPC :1.99820: L2-Pf-HR :0.75625: L2-HR :0.74321: (Sim:0h0m49s) 
CPU  3 inst:    2000000 cyc:     982361 now IPC :2.07233: AVG IPC :2.03591: L2-Pf-HR :0.84274: L2-HR :0.83850: (Sim:0h1m41s) 
CPU  1 inst:    2000000 cyc:     982661 now IPC :2.07217: AVG IPC :2.03529: L2-Pf-HR :0.85268: L2-HR :0.84778: (Sim:0h1m41s) 
CPU  0 inst:    2000000 cyc:     982914 now IPC :2.07210: AVG IPC :2.03477: L2-Pf-HR :0.86402: L2-HR :0.85897: (Sim:0h1m41s) 
CPU  2 inst:    2000000 cyc:     983012 now IPC :2.07227: AVG IPC :2.03456: L2-Pf-HR :0.82940: L2-HR :0.82538: (Sim:0h1m41s) 

Warmup complete CPU  0 instructions:    2000280 cycles:     983013 (Simulation time: 0 hr 1 min 41 sec) 
Warmup complete CPU  1 instructions:    2000771 cycles:     983013 (Simulation time: 0 hr 1 min 41 sec) 
Warmup complete CPU  2 instructions:    2000001 cycles:     983013 (Simulation time: 0 hr 1 min 41 sec) 
Warmup complete CPU  3 instructions:    2001379 cycles:     983012 (Simulation time: 0 hr 1 min 41 sec) 

CPU  3 inst:    3000001 cyc:    1496832 now IPC :1.94375: AVG IPC :1.94352: L2-Pf-HR :0.87280: L2-HR :0.89645: (Sim:0h2m26s) 
CPU  2 inst:    3000001 cyc:    1498619 now IPC :1.93946: AVG IPC :1.93947: L2-Pf-HR :0.85366: L2-HR :0.88070: (Sim:0h2m26s) 
CPU  1 inst:    3000001 cyc:    1499370 now IPC :1.93533: AVG IPC :1.93515: L2-Pf-HR :0.88403: L2-HR :0.90461: (Sim:0h2m26s) 
CPU  0 inst:    3000001 cyc:    1502342 now IPC :1.92520: AVG IPC :1.92502: L2-Pf-HR :0.87936: L2-HR :0.90126: (Sim:0h2m27s) 
CPU  3 inst:    4000002 cyc:    1991005 now IPC :2.02358: AVG IPC :1.98277: L2-Pf-HR :0.88450: L2-HR :0.90595: (Sim:0h3m4s) 
CPU  2 inst:    4000002 cyc:    1992695 now IPC :2.02398: AVG IPC :1.98082: L2-Pf-HR :0.86997: L2-HR :0.89397: (Sim:0h3m4s) 
CPU  0 inst:    4000002 cyc:    1992934 now IPC :2.03836: AVG IPC :1.98008: L2-Pf-HR :0.88883: L2-HR :0.90942: (Sim:0h3m4s) 
CPU  1 inst:    4000002 cyc:    1993017 now IPC :2.02574: AVG IPC :1.97943: L2-Pf-HR :0.89144: L2-HR :0.91141: (Sim:0h3m4s) 
CPU  3 inst:    5000003 cyc:    2478231 now IPC :2.05244: AVG IPC :2.00547: L2-Pf-HR :0.89000: L2-HR :0.91062: (Sim:0h3m31s) 
CPU  2 inst:    5000005 cyc:    2482242 now IPC :2.04271: AVG IPC :2.00103: L2-Pf-HR :0.87704: L2-HR :0.89962: (Sim:0h3m32s) 
CPU  0 inst:    5000003 cyc:    2484243 now IPC :2.03538: AVG IPC :1.99818: L2-Pf-HR :0.89459: L2-HR :0.91408: (Sim:0h3m32s) 
CPU  1 inst:    5000003 cyc:    2485281 now IPC :2.03143: AVG IPC :1.99647: L2-Pf-HR :0.89578: L2-HR :0.91491: (Sim:0h3m32s) 
CPU  3 inst:    6000004 cyc:    2953825 now IPC :2.10264: AVG IPC :2.02892: L2-Pf-HR :0.90379: L2-HR :0.92133: (Sim:0h4m0s) 
CPU  2 inst:    6000004 cyc:    2960482 now IPC :2.09100: AVG IPC :2.02279: L2-Pf-HR :0.89267: L2-HR :0.91165: (Sim:0h4m1s) 
CPU  0 inst:    6000004 cyc:    2960846 now IPC :2.09818: AVG IPC :2.02228: L2-Pf-HR :0.90935: L2-HR :0.92551: (Sim:0h4m1s) 
CPU  1 inst:    6000004 cyc:    2961453 now IPC :2.10008: AVG IPC :2.02141: L2-Pf-HR :0.90877: L2-HR :0.92488: (Sim:0h4m1s) 
CPU  3 inst:    7000001 cyc:    3631486 now IPC :1.47566: AVG IPC :1.88736: L2-Pf-HR :0.89699: L2-HR :0.91192: (Sim:0h4m32s) 
CPU  2 inst:    7000001 cyc:    3633360 now IPC :1.48615: AVG IPC :1.88655: L2-Pf-HR :0.88523: L2-HR :0.90182: (Sim:0h4m32s) 
CPU  0 inst:    7000001 cyc:    3635276 now IPC :1.48273: AVG IPC :1.88508: L2-Pf-HR :0.90023: L2-HR :0.91447: (Sim:0h4m33s) 
CPU  1 inst:    7000001 cyc:    3635653 now IPC :1.48324: AVG IPC :1.88462: L2-Pf-HR :0.90144: L2-HR :0.91504: (Sim:0h4m33s) 
CPU  2 inst:    8000001 cyc:    4089967 now IPC :2.19007: AVG IPC :1.93115: L2-Pf-HR :0.88636: L2-HR :0.90471: (Sim:0h4m59s) 
CPU  3 inst:    8000001 cyc:    4090881 now IPC :2.17678: AVG IPC :1.93014: L2-Pf-HR :0.89820: L2-HR :0.91441: (Sim:0h5m0s) 
CPU  0 inst:    8000001 cyc:    4094468 now IPC :2.17774: AVG IPC :1.92827: L2-Pf-HR :0.90253: L2-HR :0.91771: (Sim:0h5m0s) 
CPU  1 inst:    8000001 cyc:    4095092 now IPC :2.17657: AVG IPC :1.92772: L2-Pf-HR :0.90321: L2-HR :0.91756: (Sim:0h5m0s) 
CPU  2 inst:    9000000 cyc:    4546730 now IPC :2.18932: AVG IPC :1.96424: L2-Pf-HR :0.88840: L2-HR :0.90766: (Sim:0h5m27s) 
CPU  3 inst:    9000000 cyc:    4550493 now IPC :2.17575: AVG IPC :1.96178: L2-Pf-HR :0.89987: L2-HR :0.91681: (Sim:0h5m27s) 
CPU  0 inst:    9000000 cyc:    4552294 now IPC :2.18423: AVG IPC :1.96110: L2-Pf-HR :0.90422: L2-HR :0.92007: (Sim:0h5m27s) 
CPU  1 inst:    9000000 cyc:    4556278 now IPC :2.16832: AVG IPC :1.95878: L2-Pf-HR :0.90519: L2-HR :0.91992: (Sim:0h5m27s) 
CPU  2 inst:   10000001 cyc:    5008577 now IPC :2.16522: AVG IPC :1.98730: L2-Pf-HR :0.89052: L2-HR :0.91015: (Sim:0h5m54s) 
CPU  3 inst:   10000004 cyc:    5010548 now IPC :2.17366: AVG IPC :1.98598: L2-Pf-HR :0.90191: L2-HR :0.91912: (Sim:0h5m54s) 
CPU  0 inst:   10000004 cyc:    5012540 now IPC :2.17276: AVG IPC :1.98528: L2-Pf-HR :0.90558: L2-HR :0.92188: (Sim:0h5m54s) 
CPU  1 inst:   10000004 cyc:    5017237 now IPC :2.16940: AVG IPC :1.98284: L2-Pf-HR :0.90669: L2-HR :0.92172: (Sim:0h5m54s) 
CPU  2 inst:   11000005 cyc:    5465928 now IPC :2.18651: AVG IPC :2.00762: L2-Pf-HR :0.89429: L2-HR :0.91356: (Sim:0h6m21s) 
CPU  3 inst:   11000005 cyc:    5466459 now IPC :2.19341: AVG IPC :2.00708: L2-Pf-HR :0.90529: L2-HR :0.92215: (Sim:0h6m21s) 
CPU  0 inst:   11000005 cyc:    5471097 now IPC :2.18076: AVG IPC :2.00525: L2-Pf-HR :0.90864: L2-HR :0.92469: (Sim:0h6m21s) 
CPU  1 inst:   11000005 cyc:    5475347 now IPC :2.18288: AVG IPC :2.00324: L2-Pf-HR :0.90931: L2-HR :0.92413: (Sim:0h6m21s) 
CPU  2 inst:   12000005 cyc:    5919345 now IPC :2.20548: AVG IPC :2.02580: L2-Pf-HR :0.90221: L2-HR :0.92002: (Sim:0h6m48s) 
CPU  3 inst:   12000005 cyc:    5923124 now IPC :2.18979: AVG IPC :2.02397: L2-Pf-HR :0.91178: L2-HR :0.92749: (Sim:0h6m48s) 
CPU  0 inst:   12000005 cyc:    5927198 now IPC :2.19250: AVG IPC :2.02252: L2-Pf-HR :0.91555: L2-HR :0.93030: (Sim:0h6m49s) 
CPU  1 inst:   12000005 cyc:    5931324 now IPC :2.19309: AVG IPC :2.02074: L2-Pf-HR :0.91540: L2-HR :0.92911: (Sim:0h6m49s) 
CPU  2 inst:   13000004 cyc:    6480646 now IPC :1.78157: AVG IPC :2.00086: L2-Pf-HR :0.90096: L2-HR :0.91799: (Sim:0h7m16s) 
CPU  0 inst:   13000004 cyc:    6492857 now IPC :1.76785: AVG IPC :1.99638: L2-Pf-HR :0.91351: L2-HR :0.92772: (Sim:0h7m17s) 
CPU  3 inst:   13000004 cyc:    6493792 now IPC :1.75233: AVG IPC :1.99584: L2-Pf-HR :0.91036: L2-HR :0.92536: (Sim:0h7m17s) 
CPU  1 inst:   13000004 cyc:    6503905 now IPC :1.74648: AVG IPC :1.99229: L2-Pf-HR :0.91432: L2-HR :0.92731: (Sim:0h7m18s) 
CPU  2 inst:   14000001 cyc:    6937853 now IPC :2.18719: AVG IPC :2.01517: L2-Pf-HR :0.90206: L2-HR :0.91933: (Sim:0h7m53s) 
CPU  0 inst:   14000001 cyc:    6949734 now IPC :2.18877: AVG IPC :2.01111: L2-Pf-HR :0.91396: L2-HR :0.92849: (Sim:0h7m54s) 
CPU  3 inst:   14000001 cyc:    6953112 now IPC :2.17712: AVG IPC :2.00979: L2-Pf-HR :0.91135: L2-HR :0.92649: (Sim:0h7m55s) 
CPU  1 inst:   14000001 cyc:    6965171 now IPC :2.16794: AVG IPC :2.00584: L2-Pf-HR :0.91534: L2-HR :0.92852: (Sim:0h7m56s) 
CPU  2 inst:   15000005 cyc:    7395590 now IPC :2.18467: AVG IPC :2.02727: L2-Pf-HR :0.90363: L2-HR :0.92088: (Sim:0h8m26s) 
CPU  0 inst:   15000005 cyc:    7403318 now IPC :2.20467: AVG IPC :2.02478: L2-Pf-HR :0.91462: L2-HR :0.92936: (Sim:0h8m27s) 
CPU  3 inst:   15000005 cyc:    7409719 now IPC :2.19008: AVG IPC :2.02260: L2-Pf-HR :0.91238: L2-HR :0.92761: (Sim:0h8m27s) 
CPU  1 inst:   15000005 cyc:    7423055 now IPC :2.18397: AVG IPC :2.01850: L2-Pf-HR :0.91654: L2-HR :0.92984: (Sim:0h8m28s) 
CPU  2 inst:   16000000 cyc:    7852968 now IPC :2.18636: AVG IPC :2.03786: L2-Pf-HR :0.90723: L2-HR :0.92390: (Sim:0h8m53s) 
CPU  0 inst:   16000000 cyc:    7857676 now IPC :2.20090: AVG IPC :2.03642: L2-Pf-HR :0.91702: L2-HR :0.93152: (Sim:0h8m54s) 
CPU  3 inst:   16000000 cyc:    7866905 now IPC :2.18728: AVG IPC :2.03353: L2-Pf-HR :0.91537: L2-HR :0.93016: (Sim:0h8m54s) 
CPU  1 inst:   16000000 cyc:    7882689 now IPC :2.17563: AVG IPC :2.02897: L2-Pf-HR :0.91930: L2-HR :0.93230: (Sim:0h8m55s) 
CPU  0 inst:   17000005 cyc:    8562076 now IPC :1.41966: AVG IPC :1.97910: L2-Pf-HR :0.91422: L2-HR :0.92784: (Sim:0h9m38s) 
CPU  2 inst:   17000005 cyc:    8566332 now IPC :1.40182: AVG IPC :1.97803: L2-Pf-HR :0.90455: L2-HR :0.92021: (Sim:0h9m38s) 
CPU  3 inst:   17000005 cyc:    8568060 now IPC :1.42623: AVG IPC :1.97739: L2-Pf-HR :0.91285: L2-HR :0.92664: (Sim:0h9m38s) 
CPU  1 inst:   17000005 cyc:    8601591 now IPC :1.39102: AVG IPC :1.96877: L2-Pf-HR :0.91705: L2-HR :0.92907: (Sim:0h9m42s) 
CPU  0 inst:   18000000 cyc:    9049181 now IPC :2.05294: AVG IPC :1.98356: L2-Pf-HR :0.91455: L2-HR :0.92813: (Sim:0h10m22s) 
CPU  2 inst:   18000000 cyc:    9057854 now IPC :2.03449: AVG IPC :1.98146: L2-Pf-HR :0.90423: L2-HR :0.92006: (Sim:0h10m23s) 
CPU  3 inst:   18000000 cyc:    9058127 now IPC :2.04053: AVG IPC :1.98123: L2-Pf-HR :0.91275: L2-HR :0.92660: (Sim:0h10m23s) 
CPU  1 inst:   18000000 cyc:    9091218 now IPC :2.04236: AVG IPC :1.97321: L2-Pf-HR :0.91713: L2-HR :0.92923: (Sim:0h10m25s) 
CPU  0 inst:   19000001 cyc:    9528200 now IPC :2.08760: AVG IPC :1.98939: L2-Pf-HR :0.91521: L2-HR :0.92870: (Sim:0h11m4s) 
CPU  2 inst:   19000001 cyc:    9536200 now IPC :2.09054: AVG IPC :1.98756: L2-Pf-HR :0.90456: L2-HR :0.92040: (Sim:0h11m5s) 
CPU  3 inst:   19000001 cyc:    9541147 now IPC :2.07031: AVG IPC :1.98625: L2-Pf-HR :0.91332: L2-HR :0.92710: (Sim:0h11m6s) 
CPU  1 inst:   19000001 cyc:    9569718 now IPC :2.08987: AVG IPC :1.97972: L2-Pf-HR :0.91777: L2-HR :0.92981: (Sim:0h11m8s) 
CPU  0 inst:   20000005 cyc:   10007462 now IPC :2.08655: AVG IPC :1.99455: L2-Pf-HR :0.91568: L2-HR :0.92907: (Sim:0h11m48s) 
CPU  2 inst:   20000001 cyc:   10014368 now IPC :2.09132: AVG IPC :1.99306: L2-Pf-HR :0.90537: L2-HR :0.92104: (Sim:0h11m48s) 
CPU  3 inst:   20000005 cyc:   10018011 now IPC :2.09704: AVG IPC :1.99210: L2-Pf-HR :0.91395: L2-HR :0.92764: (Sim:0h11m49s) 
CPU  1 inst:   20000005 cyc:   10051515 now IPC :2.07557: AVG IPC :1.98481: L2-Pf-HR :0.91839: L2-HR :0.93035: (Sim:0h11m52s) 
CPU  0 inst:   21000000 cyc:   10494059 now IPC :2.05508: AVG IPC :1.99765: L2-Pf-HR :0.91618: L2-HR :0.92947: (Sim:0h12m31s) 
CPU  2 inst:   21000000 cyc:   10500503 now IPC :2.05704: AVG IPC :1.99632: L2-Pf-HR :0.90583: L2-HR :0.92148: (Sim:0h12m32s) 
CPU  3 inst:   21000000 cyc:   10504676 now IPC :2.05479: AVG IPC :1.99530: L2-Pf-HR :0.91436: L2-HR :0.92800: (Sim:0h12m32s) 
CPU  1 inst:   21000000 cyc:   10536543 now IPC :2.06173: AVG IPC :1.98871: L2-Pf-HR :0.91864: L2-HR :0.93061: (Sim:0h12m35s) 
CPU  0 inst:   22000004 cyc:   10974893 now IPC :2.07973: AVG IPC :2.00160: L2-Pf-HR :0.91818: L2-HR :0.93106: (Sim:0h13m14s) 
CPU  2 inst:   22000004 cyc:   10979712 now IPC :2.08678: AVG IPC :2.00066: L2-Pf-HR :0.90792: L2-HR :0.92316: (Sim:0h13m14s) 
CPU  3 inst:   22000004 cyc:   10985944 now IPC :2.07785: AVG IPC :1.99928: L2-Pf-HR :0.91607: L2-HR :0.92939: (Sim:0h13m14s) 
CPU  1 inst:   22000004 cyc:   11011411 now IPC :2.10586: AVG IPC :1.99426: L2-Pf-HR :0.92013: L2-HR :0.93185: (Sim:0h13m16s) 
CPU  0 inst:   23000002 cyc:   11947811 now IPC :1.02783: AVG IPC :1.91519: L2-Pf-HR :0.91694: L2-HR :0.92919: (Sim:0h13m51s) 
CPU  2 inst:   23000002 cyc:   11953149 now IPC :1.02729: AVG IPC :1.91429: L2-Pf-HR :0.90691: L2-HR :0.92140: (Sim:0h13m51s) 
CPU  3 inst:   23000002 cyc:   11962874 now IPC :1.02361: AVG IPC :1.91247: L2-Pf-HR :0.91507: L2-HR :0.92769: (Sim:0h13m52s) 
CPU  1 inst:   23000002 cyc:   11975773 now IPC :1.03695: AVG IPC :1.91028: L2-Pf-HR :0.91924: L2-HR :0.93030: (Sim:0h13m52s) 
CPU  0 inst:   24000002 cyc:   12476357 now IPC :1.89198: AVG IPC :1.91413: L2-Pf-HR :0.91667: L2-HR :0.92930: (Sim:0h14m18s) 
CPU  3 inst:   24000002 cyc:   12484813 now IPC :1.91593: AVG IPC :1.91262: L2-Pf-HR :0.91468: L2-HR :0.92772: (Sim:0h14m18s) 
CPU  2 inst:   24000005 cyc:   12494041 now IPC :1.84880: AVG IPC :1.91121: L2-Pf-HR :0.90642: L2-HR :0.92141: (Sim:0h14m19s) 
CPU  1 inst:   24000002 cyc:   12507848 now IPC :1.87943: AVG IPC :1.90885: L2-Pf-HR :0.91897: L2-HR :0.93041: (Sim:0h14m20s) 
CPU  0 inst:   25000005 cyc:   13008895 now IPC :1.87781: AVG IPC :1.91252: L2-Pf-HR :0.91652: L2-HR :0.92948: (Sim:0h14m46s) 
CPU  1 inst:   25000005 cyc:   13016468 now IPC :1.96611: AVG IPC :1.91127: L2-Pf-HR :0.91904: L2-HR :0.93076: (Sim:0h14m46s) 
CPU  3 inst:   25000005 cyc:   13017663 now IPC :1.87671: AVG IPC :1.91103: L2-Pf-HR :0.91457: L2-HR :0.92793: (Sim:0h14m46s) 
CPU  2 inst:   25000005 cyc:   13019971 now IPC :1.90139: AVG IPC :1.91078: L2-Pf-HR :0.90623: L2-HR :0.92161: (Sim:0h14m46s) 
CPU  0 inst:   26000002 cyc:   13511359 now IPC :1.99019: AVG IPC :1.91563: L2-Pf-HR :0.91648: L2-HR :0.92970: (Sim:0h15m13s) 
CPU  1 inst:   26000002 cyc:   13522004 now IPC :1.97809: AVG IPC :1.91397: L2-Pf-HR :0.91902: L2-HR :0.93102: (Sim:0h15m13s) 
CPU  3 inst:   26000002 cyc:   13524373 now IPC :1.97351: AVG IPC :1.91356: L2-Pf-HR :0.91456: L2-HR :0.92819: (Sim:0h15m13s) 
CPU  2 inst:   26000002 cyc:   13527488 now IPC :1.97037: AVG IPC :1.91319: L2-Pf-HR :0.90626: L2-HR :0.92193: (Sim:0h15m14s) 
CPU  3 inst:   27000003 cyc:   14023047 now IPC :2.00532: AVG IPC :1.91707: L2-Pf-HR :0.91473: L2-HR :0.92853: (Sim:0h15m40s) 
CPU  0 inst:   27000003 cyc:   14024754 now IPC :1.94782: AVG IPC :1.91690: L2-Pf-HR :0.91659: L2-HR :0.92998: (Sim:0h15m41s) 
CPU  1 inst:   27000003 cyc:   14031879 now IPC :1.96127: AVG IPC :1.91582: L2-Pf-HR :0.91904: L2-HR :0.93127: (Sim:0h15m41s) 
CPU  2 inst:   27000003 cyc:   14036151 now IPC :1.96594: AVG IPC :1.91525: L2-Pf-HR :0.90644: L2-HR :0.92231: (Sim:0h15m41s) 
CPU  3 inst:   28000003 cyc:   14489330 now IPC :2.14462: AVG IPC :1.92492: L2-Pf-HR :0.91609: L2-HR :0.92977: (Sim:0h16m9s) 
CPU  1 inst:   28000003 cyc:   14495965 now IPC :2.15477: AVG IPC :1.92402: L2-Pf-HR :0.92037: L2-HR :0.93251: (Sim:0h16m9s) 
CPU  0 inst:   28000003 cyc:   14496552 now IPC :2.11955: AVG IPC :1.92398: L2-Pf-HR :0.91820: L2-HR :0.93140: (Sim:0h16m9s) 
CPU  2 inst:   28000003 cyc:   14500123 now IPC :2.15530: AVG IPC :1.92349: L2-Pf-HR :0.90818: L2-HR :0.92383: (Sim:0h16m10s) 
CPU  2 inst:   29000004 cyc:   15286019 now IPC :1.27243: AVG IPC :1.88772: L2-Pf-HR :0.90819: L2-HR :0.92341: (Sim:0h16m40s) 
CPU  0 inst:   29000004 cyc:   15286370 now IPC :1.26612: AVG IPC :1.88765: L2-Pf-HR :0.91803: L2-HR :0.93090: (Sim:0h16m40s) 
CPU  3 inst:   29000004 cyc:   15287605 now IPC :1.25270: AVG IPC :1.88741: L2-Pf-HR :0.91597: L2-HR :0.92930: (Sim:0h16m40s) 
CPU  1 inst:   29000004 cyc:   15293781 now IPC :1.25342: AVG IPC :1.88664: L2-Pf-HR :0.92032: L2-HR :0.93212: (Sim:0h16m40s) 
CPU  2 inst:   30000002 cyc:   15817498 now IPC :1.88154: AVG IPC :1.88749: L2-Pf-HR :0.90841: L2-HR :0.92382: (Sim:0h17m8s) 
CPU  3 inst:   30000005 cyc:   15819471 now IPC :1.88017: AVG IPC :1.88715: L2-Pf-HR :0.91621: L2-HR :0.92968: (Sim:0h17m8s) 
CPU  0 inst:   30000005 cyc:   15822709 now IPC :1.86449: AVG IPC :1.88681: L2-Pf-HR :0.91809: L2-HR :0.93114: (Sim:0h17m8s) 
CPU  1 inst:   30000005 cyc:   15832607 now IPC :1.85589: AVG IPC :1.88552: L2-Pf-HR :0.92067: L2-HR :0.93257: (Sim:0h17m9s) 
CPU  3 inst:   31000003 cyc:   16393225 now IPC :1.74290: AVG IPC :1.88178: L2-Pf-HR :0.91632: L2-HR :0.92994: (Sim:0h17m40s) 
CPU  0 inst:   31000002 cyc:   16400026 now IPC :1.73215: AVG IPC :1.88102: L2-Pf-HR :0.91813: L2-HR :0.93133: (Sim:0h17m41s) 
CPU  1 inst:   31000003 cyc:   16406871 now IPC :1.74136: AVG IPC :1.88015: L2-Pf-HR :0.92090: L2-HR :0.93293: (Sim:0h17m41s) 
CPU  2 inst:   31000002 cyc:   16408500 now IPC :1.69204: AVG IPC :1.88001: L2-Pf-HR :0.90871: L2-HR :0.92423: (Sim:0h17m41s) 
CPU  3 inst:   32000002 cyc:   16960639 now IPC :1.76238: AVG IPC :1.87754: L2-Pf-HR :0.91701: L2-HR :0.93062: (Sim:0h18m26s) 
CPU  0 inst:   32000000 cyc:   16963033 now IPC :1.77617: AVG IPC :1.87733: L2-Pf-HR :0.91851: L2-HR :0.93179: (Sim:0h18m27s) 
CPU  1 inst:   32000000 cyc:   16973135 now IPC :1.76596: AVG IPC :1.87611: L2-Pf-HR :0.92152: L2-HR :0.93357: (Sim:0h18m27s) 
CPU  2 inst:   32000000 cyc:   16985981 now IPC :1.73166: AVG IPC :1.87465: L2-Pf-HR :0.90959: L2-HR :0.92505: (Sim:0h18m29s) 
CPU  3 inst:   33000000 cyc:   18364741 now IPC :0.71220: AVG IPC :1.78340: L2-Pf-HR :0.91628: L2-HR :0.92934: (Sim:0h19m30s) 
CPU  0 inst:   33000000 cyc:   18373699 now IPC :0.70889: AVG IPC :1.78255: L2-Pf-HR :0.91759: L2-HR :0.93039: (Sim:0h19m31s) 
CPU  1 inst:   33000000 cyc:   18409409 now IPC :0.69625: AVG IPC :1.77887: L2-Pf-HR :0.92081: L2-HR :0.93231: (Sim:0h19m33s) 
CPU  2 inst:   33000000 cyc:   18425792 now IPC :0.69454: AVG IPC :1.77724: L2-Pf-HR :0.90906: L2-HR :0.92385: (Sim:0h19m34s) 
CPU  1 inst:   34000003 cyc:   19217232 now IPC :1.23790: AVG IPC :1.75490: L2-Pf-HR :0.92101: L2-HR :0.93246: (Sim:0h20m24s) 
CPU  3 inst:   34000003 cyc:   19224183 now IPC :1.16355: AVG IPC :1.75420: L2-Pf-HR :0.91644: L2-HR :0.92946: (Sim:0h20m24s) 
CPU  0 inst:   34000003 cyc:   19229025 now IPC :1.16915: AVG IPC :1.75379: L2-Pf-HR :0.91795: L2-HR :0.93066: (Sim:0h20m24s) 
CPU  2 inst:   34000003 cyc:   19311800 now IPC :1.12866: AVG IPC :1.74589: L2-Pf-HR :0.90916: L2-HR :0.92392: (Sim:0h20m30s) 
CPU  1 inst:   35000004 cyc:   20089800 now IPC :1.14604: AVG IPC :1.72709: L2-Pf-HR :0.92116: L2-HR :0.93261: (Sim:0h21m19s) 
CPU  0 inst:   35000004 cyc:   20090247 now IPC :1.16114: AVG IPC :1.72708: L2-Pf-HR :0.91815: L2-HR :0.93082: (Sim:0h21m19s) 
CPU  3 inst:   35000004 cyc:   20093896 now IPC :1.14981: AVG IPC :1.72669: L2-Pf-HR :0.91654: L2-HR :0.92956: (Sim:0h21m19s) 
CPU  2 inst:   35000004 cyc:   20097975 now IPC :1.27198: AVG IPC :1.72640: L2-Pf-HR :0.90913: L2-HR :0.92393: (Sim:0h21m19s) 
CPU  2 inst:   36000005 cyc:   21024124 now IPC :1.07974: AVG IPC :1.69651: L2-Pf-HR :0.90900: L2-HR :0.92382: (Sim:0h22m9s) 
CPU  1 inst:   36000005 cyc:   21028588 now IPC :1.06520: AVG IPC :1.69610: L2-Pf-HR :0.92103: L2-HR :0.93251: (Sim:0h22m9s) 
CPU  0 inst:   36000005 cyc:   21075958 now IPC :1.01450: AVG IPC :1.69212: L2-Pf-HR :0.91798: L2-HR :0.93068: (Sim:0h22m12s) 
CPU  3 inst:   36000005 cyc:   21078090 now IPC :1.01606: AVG IPC :1.69189: L2-Pf-HR :0.91639: L2-HR :0.92945: (Sim:0h22m13s) 
CPU  3 inst:   37000002 cyc:   21884631 now IPC :1.23986: AVG IPC :1.67445: L2-Pf-HR :0.91658: L2-HR :0.92958: (Sim:0h23m4s) 
CPU  1 inst:   37000003 cyc:   21891064 now IPC :1.15945: AVG IPC :1.67396: L2-Pf-HR :0.92113: L2-HR :0.93259: (Sim:0h23m5s) 
CPU  0 inst:   37000003 cyc:   21896462 now IPC :1.21876: AVG IPC :1.67355: L2-Pf-HR :0.91820: L2-HR :0.93084: (Sim:0h23m5s) 
CPU  2 inst:   37000003 cyc:   21922799 now IPC :1.11275: AVG IPC :1.67146: L2-Pf-HR :0.90918: L2-HR :0.92396: (Sim:0h23m6s) 
CPU  2 inst:   38000004 cyc:   22648631 now IPC :1.37773: AVG IPC :1.66162: L2-Pf-HR :0.91009: L2-HR :0.92463: (Sim:0h23m56s) 
CPU  3 inst:   38000004 cyc:   22648957 now IPC :1.30834: AVG IPC :1.66153: L2-Pf-HR :0.91736: L2-HR :0.93016: (Sim:0h23m56s) 
CPU  1 inst:   38000004 cyc:   22649803 now IPC :1.31798: AVG IPC :1.66149: L2-Pf-HR :0.92177: L2-HR :0.93309: (Sim:0h23m56s) 
CPU  0 inst:   38000004 cyc:   22650187 now IPC :1.32675: AVG IPC :1.66149: L2-Pf-HR :0.91907: L2-HR :0.93147: (Sim:0h23m56s) 
CPU  0 inst:   39000000 cyc:   24188919 now IPC :0.64988: AVG IPC :1.59441: L2-Pf-HR :0.91870: L2-HR :0.93063: (Sim:0h25m2s) 
CPU  3 inst:   39000000 cyc:   24190455 now IPC :0.64872: AVG IPC :1.59426: L2-Pf-HR :0.91707: L2-HR :0.92938: (Sim:0h25m2s) 
CPU  1 inst:   39000000 cyc:   24200794 now IPC :0.64475: AVG IPC :1.59357: L2-Pf-HR :0.92146: L2-HR :0.93233: (Sim:0h25m3s) 
CPU  2 inst:   39000000 cyc:   24218623 now IPC :0.63694: AVG IPC :1.59238: L2-Pf-HR :0.90984: L2-HR :0.92384: (Sim:0h25m4s) 
CPU  0 inst:   40000002 cyc:   25032712 now IPC :1.18513: AVG IPC :1.58005: L2-Pf-HR :0.91900: L2-HR :0.93098: (Sim:0h25m54s) 
CPU  1 inst:   40000002 cyc:   25033335 now IPC :1.20114: AVG IPC :1.57999: L2-Pf-HR :0.92183: L2-HR :0.93271: (Sim:0h25m54s) 
CPU  2 inst:   40000002 cyc:   25035312 now IPC :1.22446: AVG IPC :1.57989: L2-Pf-HR :0.90993: L2-HR :0.92403: (Sim:0h25m55s) 
CPU  3 inst:   40000002 cyc:   25038145 now IPC :1.17968: AVG IPC :1.57965: L2-Pf-HR :0.91746: L2-HR :0.92980: (Sim:0h25m55s) 
CPU  1 inst:   41000000 cyc:   25892672 now IPC :1.16369: AVG IPC :1.56563: L2-Pf-HR :0.92198: L2-HR :0.93295: (Sim:0h26m42s) 
CPU  2 inst:   41000003 cyc:   25909036 now IPC :1.14453: AVG IPC :1.56463: L2-Pf-HR :0.90994: L2-HR :0.92419: (Sim:0h26m42s) 
CPU  0 inst:   41000003 cyc:   25919579 now IPC :1.12757: AVG IPC :1.56396: L2-Pf-HR :0.91919: L2-HR :0.93123: (Sim:0h26m43s) 
CPU  3 inst:   41000000 cyc:   25924734 now IPC :1.12792: AVG IPC :1.56359: L2-Pf-HR :0.91751: L2-HR :0.92994: (Sim:0h26m43s) 
CPU  1 inst:   42000001 cyc:   26780040 now IPC :1.12693: AVG IPC :1.55054: L2-Pf-HR :0.92206: L2-HR :0.93313: (Sim:0h27m14s) 
CPU  0 inst:   42000001 cyc:   26789116 now IPC :1.15004: AVG IPC :1.55001: L2-Pf-HR :0.91917: L2-HR :0.93133: (Sim:0h27m15s) 
CPU  3 inst:   42000001 cyc:   26799497 now IPC :1.14317: AVG IPC :1.54934: L2-Pf-HR :0.91760: L2-HR :0.93012: (Sim:0h27m15s) 
CPU  2 inst:   42000001 cyc:   26812758 now IPC :1.10653: AVG IPC :1.54860: L2-Pf-HR :0.91006: L2-HR :0.92442: (Sim:0h27m15s) 
CPU  0 inst:   43000003 cyc:   27662827 now IPC :1.14455: AVG IPC :1.53673: L2-Pf-HR :0.91934: L2-HR :0.93157: (Sim:0h27m48s) 
CPU  1 inst:   43000003 cyc:   27666253 now IPC :1.12840: AVG IPC :1.53652: L2-Pf-HR :0.92215: L2-HR :0.93333: (Sim:0h27m48s) 
CPU  2 inst:   43000003 cyc:   27667506 now IPC :1.16994: AVG IPC :1.53647: L2-Pf-HR :0.91017: L2-HR :0.92463: (Sim:0h27m48s) 
CPU  3 inst:   43000003 cyc:   27669285 now IPC :1.14971: AVG IPC :1.53632: L2-Pf-HR :0.91777: L2-HR :0.93037: (Sim:0h27m48s) 
CPU  1 inst:   44000000 cyc:   28332613 now IPC :1.50069: AVG IPC :1.53564: L2-Pf-HR :0.92274: L2-HR :0.93389: (Sim:0h28m17s) 
CPU  3 inst:   44000000 cyc:   28336236 now IPC :1.49936: AVG IPC :1.53542: L2-Pf-HR :0.91838: L2-HR :0.93094: (Sim:0h28m17s) 
CPU  2 inst:   44000000 cyc:   28336380 now IPC :1.49505: AVG IPC :1.53546: L2-Pf-HR :0.91088: L2-HR :0.92529: (Sim:0h28m17s) 
CPU  0 inst:   44000000 cyc:   28344215 now IPC :1.46759: AVG IPC :1.53501: L2-Pf-HR :0.92003: L2-HR :0.93219: (Sim:0h28m18s) 
CPU  2 inst:   45000005 cyc:   29563370 now IPC :0.81501: AVG IPC :1.50453: L2-Pf-HR :0.91103: L2-HR :0.92513: (Sim:0h29m1s) 
CPU  0 inst:   45000005 cyc:   29563821 now IPC :0.81994: AVG IPC :1.50450: L2-Pf-HR :0.92019: L2-HR :0.93205: (Sim:0h29m1s) 
CPU  1 inst:   45000005 cyc:   29568950 now IPC :0.80884: AVG IPC :1.50421: L2-Pf-HR :0.92290: L2-HR :0.93377: (Sim:0h29m1s) 
CPU  3 inst:   45000005 cyc:   29595986 now IPC :0.79381: AVG IPC :1.50277: L2-Pf-HR :0.91862: L2-HR :0.93085: (Sim:0h29m3s) 
CPU  2 inst:   46000002 cyc:   30367618 now IPC :1.24339: AVG IPC :1.49738: L2-Pf-HR :0.91121: L2-HR :0.92541: (Sim:0h29m48s) 
CPU  3 inst:   46000002 cyc:   30368839 now IPC :1.29390: AVG IPC :1.49727: L2-Pf-HR :0.91880: L2-HR :0.93110: (Sim:0h29m48s) 
CPU  0 inst:   46000002 cyc:   30369409 now IPC :1.24133: AVG IPC :1.49728: L2-Pf-HR :0.92027: L2-HR :0.93224: (Sim:0h29m48s) 
CPU  1 inst:   46000002 cyc:   30388215 now IPC :1.22060: AVG IPC :1.49631: L2-Pf-HR :0.92312: L2-HR :0.93404: (Sim:0h29m49s) 
CPU  2 inst:   47000005 cyc:   31198138 now IPC :1.20407: AVG IPC :1.48932: L2-Pf-HR :0.91131: L2-HR :0.92561: (Sim:0h30m37s) 
CPU  3 inst:   47000005 cyc:   31224709 now IPC :1.16841: AVG IPC :1.48797: L2-Pf-HR :0.91878: L2-HR :0.93118: (Sim:0h30m39s) 
CPU  0 inst:   47000005 cyc:   31255505 now IPC :1.12855: AVG IPC :1.48649: L2-Pf-HR :0.92024: L2-HR :0.93231: (Sim:0h30m40s) 
CPU  1 inst:   47000005 cyc:   31256780 now IPC :1.15133: AVG IPC :1.48641: L2-Pf-HR :0.92321: L2-HR :0.93421: (Sim:0h30m41s) 
CPU  1 inst:   48000001 cyc:   31996786 now IPC :1.35134: AVG IPC :1.48319: L2-Pf-HR :0.92339: L2-HR :0.93447: (Sim:0h31m29s) 
CPU  2 inst:   48000000 cyc:   32001754 now IPC :1.24437: AVG IPC :1.48297: L2-Pf-HR :0.91163: L2-HR :0.92596: (Sim:0h31m29s) 
CPU  0 inst:   48000005 cyc:   32004296 now IPC :1.33549: AVG IPC :1.48284: L2-Pf-HR :0.92031: L2-HR :0.93247: (Sim:0h31m29s) 
CPU  3 inst:   48000001 cyc:   32010123 now IPC :1.27321: AVG IPC :1.48253: L2-Pf-HR :0.91904: L2-HR :0.93149: (Sim:0h31m30s) 
CPU  2 inst:   49000003 cyc:   33525094 now IPC :0.65645: AVG IPC :1.44428: L2-Pf-HR :0.91136: L2-HR :0.92524: (Sim:0h32m34s) 
CPU  3 inst:   49000003 cyc:   33535775 now IPC :0.65546: AVG IPC :1.44377: L2-Pf-HR :0.91870: L2-HR :0.93076: (Sim:0h32m35s) 
CPU  1 inst:   49000005 cyc:   33551108 now IPC :0.64337: AVG IPC :1.44311: L2-Pf-HR :0.92310: L2-HR :0.93378: (Sim:0h32m36s) 
CPU  0 inst:   49000003 cyc:   33553931 now IPC :0.64531: AVG IPC :1.44300: L2-Pf-HR :0.91989: L2-HR :0.93168: (Sim:0h32m36s) 
CPU  3 inst:   50000000 cyc:   34450330 now IPC :1.09342: AVG IPC :1.43419: L2-Pf-HR :0.91877: L2-HR :0.93080: (Sim:0h33m27s) 
CPU  1 inst:   50000000 cyc:   34470483 now IPC :1.08769: AVG IPC :1.43335: L2-Pf-HR :0.92313: L2-HR :0.93379: (Sim:0h33m29s) 
CPU  2 inst:   50000003 cyc:   34488491 now IPC :1.03799: AVG IPC :1.43260: L2-Pf-HR :0.91140: L2-HR :0.92527: (Sim:0h33m29s) 
CPU  0 inst:   50000000 cyc:   34540086 now IPC :1.01404: AVG IPC :1.43039: L2-Pf-HR :0.91986: L2-HR :0.93165: (Sim:0h33m32s) 
CPU  0 inst:   51000002 cyc:   35422924 now IPC :1.13271: AVG IPC :1.42276: L2-Pf-HR :0.92012: L2-HR :0.93186: (Sim:0h34m24s) 
CPU  2 inst:   51000002 cyc:   35433694 now IPC :1.05797: AVG IPC :1.42232: L2-Pf-HR :0.91136: L2-HR :0.92525: (Sim:0h34m24s) 
CPU  3 inst:   51000002 cyc:   35434158 now IPC :1.01644: AVG IPC :1.42226: L2-Pf-HR :0.91874: L2-HR :0.93079: (Sim:0h34m25s) 
CPU  1 inst:   51000002 cyc:   35434355 now IPC :1.03748: AVG IPC :1.42227: L2-Pf-HR :0.92319: L2-HR :0.93385: (Sim:0h34m25s) 
CPU  1 inst:   52000000 cyc:   36379338 now IPC :1.05822: AVG IPC :1.41255: L2-Pf-HR :0.92319: L2-HR :0.93385: (Sim:0h35m19s) 
CPU  3 inst:   52000000 cyc:   36401764 now IPC :1.03348: AVG IPC :1.41164: L2-Pf-HR :0.91878: L2-HR :0.93083: (Sim:0h35m20s) 
CPU  0 inst:   52000000 cyc:   36420701 now IPC :1.00223: AVG IPC :1.41092: L2-Pf-HR :0.92000: L2-HR :0.93179: (Sim:0h35m21s) 
CPU  2 inst:   52000000 cyc:   36432416 now IPC :1.00128: AVG IPC :1.41046: L2-Pf-HR :0.91126: L2-HR :0.92517: (Sim:0h35m21s) 
CPU  3 inst:   53000003 cyc:   37348503 now IPC :1.05626: AVG IPC :1.40239: L2-Pf-HR :0.91875: L2-HR :0.93083: (Sim:0h36m14s) 
CPU  1 inst:   53000003 cyc:   37349916 now IPC :1.03032: AVG IPC :1.40235: L2-Pf-HR :0.92314: L2-HR :0.93383: (Sim:0h36m14s) 
CPU  0 inst:   53000003 cyc:   37386365 now IPC :1.03556: AVG IPC :1.40096: L2-Pf-HR :0.92000: L2-HR :0.93179: (Sim:0h36m17s) 
CPU  2 inst:   53000003 cyc:   37413541 now IPC :1.01924: AVG IPC :1.39992: L2-Pf-HR :0.91135: L2-HR :0.92526: (Sim:0h36m18s) 
CPU  0 inst:   54000000 cyc:   38139218 now IPC :1.32828: AVG IPC :1.39949: L2-Pf-HR :0.92041: L2-HR :0.93210: (Sim:0h37m5s) 
CPU  3 inst:   54000000 cyc:   38140260 now IPC :1.26301: AVG IPC :1.39942: L2-Pf-HR :0.91906: L2-HR :0.93108: (Sim:0h37m5s) 
CPU  1 inst:   54000000 cyc:   38200794 now IPC :1.17525: AVG IPC :1.39716: L2-Pf-HR :0.92341: L2-HR :0.93404: (Sim:0h37m9s) 
CPU  2 inst:   54000000 cyc:   38215166 now IPC :1.24746: AVG IPC :1.39664: L2-Pf-HR :0.91173: L2-HR :0.92554: (Sim:0h37m11s) 
CPU  3 inst:   55000001 cyc:   39587472 now IPC :0.69098: AVG IPC :1.37286: L2-Pf-HR :0.91896: L2-HR :0.93066: (Sim:0h38m8s) 
CPU  0 inst:   55000001 cyc:   39588079 now IPC :0.69020: AVG IPC :1.37287: L2-Pf-HR :0.92029: L2-HR :0.93167: (Sim:0h38m8s) 
CPU  2 inst:   55000001 cyc:   39647259 now IPC :0.69828: AVG IPC :1.37078: L2-Pf-HR :0.91177: L2-HR :0.92519: (Sim:0h38m11s) 
CPU  1 inst:   55000001 cyc:   39656666 now IPC :0.68687: AVG IPC :1.37042: L2-Pf-HR :0.92339: L2-HR :0.93369: (Sim:0h38m11s) 
CPU  0 inst:   56000001 cyc:   40469719 now IPC :1.13425: AVG IPC :1.36754: L2-Pf-HR :0.92035: L2-HR :0.93180: (Sim:0h38m56s) 
CPU  3 inst:   56000001 cyc:   40487697 now IPC :1.11083: AVG IPC :1.36689: L2-Pf-HR :0.91908: L2-HR :0.93083: (Sim:0h38m57s) 
CPU  1 inst:   56000001 cyc:   40514338 now IPC :1.16595: AVG IPC :1.36599: L2-Pf-HR :0.92344: L2-HR :0.93380: (Sim:0h38m58s) 
CPU  2 inst:   56000001 cyc:   40526558 now IPC :1.13727: AVG IPC :1.36558: L2-Pf-HR :0.91169: L2-HR :0.92522: (Sim:0h38m58s) 
CPU  3 inst:   57000004 cyc:   41324933 now IPC :1.19441: AVG IPC :1.36331: L2-Pf-HR :0.91915: L2-HR :0.93098: (Sim:0h39m47s) 
CPU  2 inst:   57000004 cyc:   41342889 now IPC :1.22500: AVG IPC :1.36274: L2-Pf-HR :0.91167: L2-HR :0.92532: (Sim:0h39m48s) 
CPU  0 inst:   57000004 cyc:   41369411 now IPC :1.11149: AVG IPC :1.36184: L2-Pf-HR :0.92054: L2-HR :0.93203: (Sim:0h39m49s) 
CPU  1 inst:   57000004 cyc:   41381700 now IPC :1.15292: AVG IPC :1.36141: L2-Pf-HR :0.92358: L2-HR :0.93400: (Sim:0h39m50s) 
CPU  1 inst:   58000005 cyc:   42216178 now IPC :1.19836: AVG IPC :1.35811: L2-Pf-HR :0.92363: L2-HR :0.93414: (Sim:0h40m42s) 
CPU  3 inst:   58000005 cyc:   42218884 now IPC :1.11863: AVG IPC :1.35801: L2-Pf-HR :0.91921: L2-HR :0.93114: (Sim:0h40m42s) 
CPU  2 inst:   58000005 cyc:   42223230 now IPC :1.13592: AVG IPC :1.35790: L2-Pf-HR :0.91166: L2-HR :0.92543: (Sim:0h40m42s) 
CPU  0 inst:   58000005 cyc:   42241274 now IPC :1.14697: AVG IPC :1.35730: L2-Pf-HR :0.92048: L2-HR :0.93208: (Sim:0h40m43s) 
CPU  3 inst:   59000005 cyc:   43130334 now IPC :1.09715: AVG IPC :1.35237: L2-Pf-HR :0.91924: L2-HR :0.93124: (Sim:0h41m36s) 
CPU  0 inst:   59000005 cyc:   43140630 now IPC :1.11191: AVG IPC :1.35206: L2-Pf-HR :0.92053: L2-HR :0.93220: (Sim:0h41m36s) 
CPU  1 inst:   59000005 cyc:   43152103 now IPC :1.06846: AVG IPC :1.35168: L2-Pf-HR :0.92363: L2-HR :0.93423: (Sim:0h41m37s) 
CPU  2 inst:   59000005 cyc:   43157330 now IPC :1.07055: AVG IPC :1.35153: L2-Pf-HR :0.91165: L2-HR :0.92551: (Sim:0h41m38s) 
CPU  1 inst:   60000005 cyc:   43878543 now IPC :1.37658: AVG IPC :1.35210: L2-Pf-HR :0.92388: L2-HR :0.93452: (Sim:0h42m25s) 
CPU  3 inst:   60000005 cyc:   43879048 now IPC :1.33562: AVG IPC :1.35207: L2-Pf-HR :0.91957: L2-HR :0.93159: (Sim:0h42m25s) 
CPU  2 inst:   60000005 cyc:   43887032 now IPC :1.37042: AVG IPC :1.35185: L2-Pf-HR :0.91198: L2-HR :0.92585: (Sim:0h42m26s) 
CPU  0 inst:   60000005 cyc:   43892606 now IPC :1.32983: AVG IPC :1.35167: L2-Pf-HR :0.92090: L2-HR :0.93256: (Sim:0h42m27s) 
CPU  1 inst:   61000005 cyc:   45013524 now IPC :0.88107: AVG IPC :1.33996: L2-Pf-HR :0.92409: L2-HR :0.93452: (Sim:0h43m16s) 
CPU  3 inst:   61000005 cyc:   45020276 now IPC :0.87625: AVG IPC :1.33974: L2-Pf-HR :0.91984: L2-HR :0.93162: (Sim:0h43m16s) 
CPU  0 inst:   61000005 cyc:   45023977 now IPC :0.88388: AVG IPC :1.33966: L2-Pf-HR :0.92117: L2-HR :0.93260: (Sim:0h43m17s) 
CPU  2 inst:   61000005 cyc:   45027448 now IPC :0.87687: AVG IPC :1.33956: L2-Pf-HR :0.91220: L2-HR :0.92584: (Sim:0h43m17s) 
CPU  2 inst:   62000000 cyc:   45828458 now IPC :1.24842: AVG IPC :1.33793: L2-Pf-HR :0.91233: L2-HR :0.92603: (Sim:0h43m54s) 
CPU  3 inst:   62000000 cyc:   45847421 now IPC :1.20897: AVG IPC :1.33733: L2-Pf-HR :0.91999: L2-HR :0.93180: (Sim:0h43m56s) 
CPU  0 inst:   62000000 cyc:   45847867 now IPC :1.21375: AVG IPC :1.33734: L2-Pf-HR :0.92122: L2-HR :0.93271: (Sim:0h43m56s) 
CPU  1 inst:   62000000 cyc:   45862677 now IPC :1.17764: AVG IPC :1.33689: L2-Pf-HR :0.92430: L2-HR :0.93475: (Sim:0h43m57s) 
CPU  0 inst:   63000001 cyc:   46706657 now IPC :1.16443: AVG IPC :1.33410: L2-Pf-HR :0.92115: L2-HR :0.93274: (Sim:0h44m47s) 
CPU  3 inst:   63000001 cyc:   46708417 now IPC :1.16145: AVG IPC :1.33402: L2-Pf-HR :0.91997: L2-HR :0.93186: (Sim:0h44m47s) 
CPU  2 inst:   63000001 cyc:   46708497 now IPC :1.13631: AVG IPC :1.33405: L2-Pf-HR :0.91235: L2-HR :0.92614: (Sim:0h44m47s) 
CPU  1 inst:   63000001 cyc:   46736687 now IPC :1.14415: AVG IPC :1.33321: L2-Pf-HR :0.92433: L2-HR :0.93485: (Sim:0h44m49s) 
CPU  0 inst:   64000001 cyc:   47528003 now IPC :1.21751: AVG IPC :1.33204: L2-Pf-HR :0.92110: L2-HR :0.93279: (Sim:0h45m38s) 
CPU  3 inst:   64000001 cyc:   47546983 now IPC :1.19251: AVG IPC :1.33147: L2-Pf-HR :0.92006: L2-HR :0.93201: (Sim:0h45m40s) 
CPU  2 inst:   64000001 cyc:   47558698 now IPC :1.17619: AVG IPC :1.33117: L2-Pf-HR :0.91246: L2-HR :0.92631: (Sim:0h45m40s) 
CPU  1 inst:   64000001 cyc:   47560090 now IPC :1.21447: AVG IPC :1.33111: L2-Pf-HR :0.92436: L2-HR :0.93496: (Sim:0h45m40s) 
CPU  0 inst:   65000005 cyc:   48768112 now IPC :0.80638: AVG IPC :1.31840: L2-Pf-HR :0.92087: L2-HR :0.93232: (Sim:0h46m35s) 
CPU  1 inst:   65000005 cyc:   48895153 now IPC :0.74903: AVG IPC :1.31489: L2-Pf-HR :0.92428: L2-HR :0.93461: (Sim:0h46m42s) 
CPU  3 inst:   65000005 cyc:   48895794 now IPC :0.74140: AVG IPC :1.31486: L2-Pf-HR :0.91997: L2-HR :0.93163: (Sim:0h46m42s) 
CPU  2 inst:   65000005 cyc:   48904017 now IPC :0.74332: AVG IPC :1.31466: L2-Pf-HR :0.91246: L2-HR :0.92600: (Sim:0h46m42s) 
CPU  0 inst:   66000003 cyc:   49663576 now IPC :1.11674: AVG IPC :1.31469: L2-Pf-HR :0.92081: L2-HR :0.93228: (Sim:0h47m25s) 
CPU  2 inst:   66000003 cyc:   49941108 now IPC :0.96423: AVG IPC :1.30724: L2-Pf-HR :0.91228: L2-HR :0.92584: (Sim:0h47m43s) 
CPU  3 inst:   66000003 cyc:   49964210 now IPC :0.93596: AVG IPC :1.30660: L2-Pf-HR :0.91981: L2-HR :0.93148: (Sim:0h47m44s) 
CPU  1 inst:   66000003 cyc:   49964594 now IPC :0.93507: AVG IPC :1.30660: L2-Pf-HR :0.92417: L2-HR :0.93449: (Sim:0h47m44s) 
CPU  0 inst:   67000001 cyc:   50529671 now IPC :1.15461: AVG IPC :1.31189: L2-Pf-HR :0.92093: L2-HR :0.93240: (Sim:0h48m19s) 
CPU  3 inst:   67000001 cyc:   50838822 now IPC :1.14336: AVG IPC :1.30373: L2-Pf-HR :0.91983: L2-HR :0.93152: (Sim:0h48m30s) 
CPU  1 inst:   67000001 cyc:   50840412 now IPC :1.14179: AVG IPC :1.30370: L2-Pf-HR :0.92423: L2-HR :0.93456: (Sim:0h48m30s) 
CPU  2 inst:   67000001 cyc:   50843729 now IPC :1.10788: AVG IPC :1.30363: L2-Pf-HR :0.91221: L2-HR :0.92580: (Sim:0h48m31s) 
CPU  0 inst:   68000005 cyc:   51461378 now IPC :1.07330: AVG IPC :1.30749: L2-Pf-HR :0.92083: L2-HR :0.93234: (Sim:0h48m51s) 
CPU  2 inst:   68000005 cyc:   51820653 now IPC :1.02363: AVG IPC :1.29825: L2-Pf-HR :0.91207: L2-HR :0.92571: (Sim:0h49m3s) 
CPU  3 inst:   68000005 cyc:   51824074 now IPC :1.01497: AVG IPC :1.29814: L2-Pf-HR :0.91973: L2-HR :0.93146: (Sim:0h49m3s) 
CPU  1 inst:   68000005 cyc:   51827861 now IPC :1.01271: AVG IPC :1.29805: L2-Pf-HR :0.92415: L2-HR :0.93451: (Sim:0h49m4s) 
CPU  0 inst:   69000000 cyc:   52338518 now IPC :1.14006: AVG IPC :1.30463: L2-Pf-HR :0.92088: L2-HR :0.93238: (Sim:0h49m22s) 
CPU  1 inst:   69000000 cyc:   52708299 now IPC :1.13579: AVG IPC :1.29529: L2-Pf-HR :0.92409: L2-HR :0.93447: (Sim:0h49m36s) 
CPU  2 inst:   69000000 cyc:   52709676 now IPC :1.12482: AVG IPC :1.29527: L2-Pf-HR :0.91210: L2-HR :0.92574: (Sim:0h49m36s) 
CPU  3 inst:   69000000 cyc:   52720309 now IPC :1.11577: AVG IPC :1.29498: L2-Pf-HR :0.91971: L2-HR :0.93145: (Sim:0h49m36s) 
CPU  0 inst:   70000004 cyc:   53284123 now IPC :1.05753: AVG IPC :1.30016: L2-Pf-HR :0.92104: L2-HR :0.93252: (Sim:0h49m56s) 
CPU  3 inst:   70000004 cyc:   53541650 now IPC :1.21753: AVG IPC :1.29377: L2-Pf-HR :0.91979: L2-HR :0.93151: (Sim:0h50m6s) 
CPU  2 inst:   70000004 cyc:   53542104 now IPC :1.20131: AVG IPC :1.29378: L2-Pf-HR :0.91219: L2-HR :0.92581: (Sim:0h50m6s) 
CPU  1 inst:   70000004 cyc:   53542168 now IPC :1.19923: AVG IPC :1.29377: L2-Pf-HR :0.92416: L2-HR :0.93453: (Sim:0h50m6s) 
CPU  0 inst:   71000005 cyc:   54155254 now IPC :1.14793: AVG IPC :1.29766: L2-Pf-HR :0.92129: L2-HR :0.93244: (Sim:0h50m33s) 
CPU  0 inst:   72000002 cyc:   54942437 now IPC :1.27035: AVG IPC :1.29727: L2-Pf-HR :0.92112: L2-HR :0.93235: (Sim:0h51m3s) 
CPU  2 inst:   71000004 cyc:   54969902 now IPC :0.70038: AVG IPC :1.27809: L2-Pf-HR :0.91233: L2-HR :0.92564: (Sim:0h51m4s) 
CPU  1 inst:   71000005 cyc:   54979658 now IPC :0.69566: AVG IPC :1.27784: L2-Pf-HR :0.92426: L2-HR :0.93437: (Sim:0h51m5s) 
CPU  3 inst:   71000005 cyc:   54980739 now IPC :0.69488: AVG IPC :1.27781: L2-Pf-HR :0.91991: L2-HR :0.93135: (Sim:0h51m5s) 
CPU  0 inst:   73000002 cyc:   55552612 now IPC :1.63887: AVG IPC :1.30109: L2-Pf-HR :0.92144: L2-HR :0.93267: (Sim:0h51m37s) 
CPU  1 inst:   72000002 cyc:   55966088 now IPC :1.01375: AVG IPC :1.27311: L2-Pf-HR :0.92424: L2-HR :0.93439: (Sim:0h51m58s) 
CPU  2 inst:   72000002 cyc:   55989111 now IPC :0.98115: AVG IPC :1.27259: L2-Pf-HR :0.91229: L2-HR :0.92565: (Sim:0h51m59s) 
CPU  3 inst:   72000002 cyc:   55991509 now IPC :0.98934: AVG IPC :1.27251: L2-Pf-HR :0.91991: L2-HR :0.93138: (Sim:0h51m59s) 
CPU  0 inst:   74000002 cyc:   56381107 now IPC :1.20701: AVG IPC :1.29968: L2-Pf-HR :0.92152: L2-HR :0.93280: (Sim:0h52m14s) 
CPU  3 inst:   73000002 cyc:   56770910 now IPC :1.28304: AVG IPC :1.27265: L2-Pf-HR :0.92009: L2-HR :0.93158: (Sim:0h52m29s) 
CPU  2 inst:   73000002 cyc:   56787244 now IPC :1.25292: AVG IPC :1.27231: L2-Pf-HR :0.91236: L2-HR :0.92578: (Sim:0h52m31s) 
CPU  1 inst:   73000002 cyc:   56839221 now IPC :1.14530: AVG IPC :1.27111: L2-Pf-HR :0.92444: L2-HR :0.93460: (Sim:0h52m33s) 
CPU  0 inst:   75000003 cyc:   57306131 now IPC :1.08105: AVG IPC :1.29609: L2-Pf-HR :0.92161: L2-HR :0.93293: (Sim:0h53m0s) 
CPU  1 inst:   74000002 cyc:   57666829 now IPC :1.20830: AVG IPC :1.27019: L2-Pf-HR :0.92447: L2-HR :0.93470: (Sim:0h53m20s) 
CPU  3 inst:   74000002 cyc:   57673328 now IPC :1.10813: AVG IPC :1.27003: L2-Pf-HR :0.92005: L2-HR :0.93163: (Sim:0h53m21s) 
CPU  2 inst:   74000002 cyc:   57712944 now IPC :1.08026: AVG IPC :1.26917: L2-Pf-HR :0.91229: L2-HR :0.92580: (Sim:0h53m24s) 
CPU  0 inst:   76000000 cyc:   58160204 now IPC :1.17086: AVG IPC :1.29422: L2-Pf-HR :0.92179: L2-HR :0.93313: (Sim:0h53m53s) 
CPU  1 inst:   75000003 cyc:   58444364 now IPC :1.28612: AVG IPC :1.27041: L2-Pf-HR :0.92448: L2-HR :0.93478: (Sim:0h54m13s) 
CPU  3 inst:   75000003 cyc:   58446531 now IPC :1.29332: AVG IPC :1.27035: L2-Pf-HR :0.92010: L2-HR :0.93174: (Sim:0h54m13s) 
CPU  2 inst:   75000003 cyc:   58448774 now IPC :1.35901: AVG IPC :1.27032: L2-Pf-HR :0.91234: L2-HR :0.92592: (Sim:0h54m13s) 
CPU  1 inst:   76000000 cyc:   59125980 now IPC :1.46710: AVG IPC :1.27271: L2-Pf-HR :0.92458: L2-HR :0.93493: (Sim:0h54m58s) 
CPU  3 inst:   76000000 cyc:   59138362 now IPC :1.44544: AVG IPC :1.27243: L2-Pf-HR :0.92021: L2-HR :0.93188: (Sim:0h54m59s) 
CPU  2 inst:   76000000 cyc:   59168152 now IPC :1.39009: AVG IPC :1.27180: L2-Pf-HR :0.91247: L2-HR :0.92609: (Sim:0h55m1s) 
CPU  0 inst:   77000002 cyc:   59291596 now IPC :0.88387: AVG IPC :1.28626: L2-Pf-HR :0.92216: L2-HR :0.93329: (Sim:0h55m12s) 
CPU  0 inst:   78000001 cyc:   59837483 now IPC :1.83188: AVG IPC :1.29132: L2-Pf-HR :0.92205: L2-HR :0.93326: (Sim:0h55m44s) 
CPU  1 inst:   77000002 cyc:   60161663 now IPC :0.96555: AVG IPC :1.26734: L2-Pf-HR :0.92485: L2-HR :0.93502: (Sim:0h55m52s) 
CPU  3 inst:   77000002 cyc:   60248087 now IPC :0.90113: AVG IPC :1.26548: L2-Pf-HR :0.92051: L2-HR :0.93200: (Sim:0h55m55s) 
CPU  2 inst:   77000002 cyc:   60283579 now IPC :0.89652: AVG IPC :1.26474: L2-Pf-HR :0.91282: L2-HR :0.92622: (Sim:0h55m56s) 
CPU  0 inst:   79000000 cyc:   60361102 now IPC :1.90978: AVG IPC :1.29677: L2-Pf-HR :0.92218: L2-HR :0.93344: (Sim:0h55m59s) 
CPU  1 inst:   78000003 cyc:   60924703 now IPC :1.31055: AVG IPC :1.26789: L2-Pf-HR :0.92489: L2-HR :0.93511: (Sim:0h56m20s) 
CPU  0 inst:   80000005 cyc:   61133996 now IPC :1.29384: AVG IPC :1.29673: L2-Pf-HR :0.92214: L2-HR :0.93348: (Sim:0h56m28s) 
CPU  3 inst:   78000001 cyc:   61139791 now IPC :1.12145: AVG IPC :1.26334: L2-Pf-HR :0.92053: L2-HR :0.93206: (Sim:0h56m28s) 
CPU  2 inst:   78000001 cyc:   61185504 now IPC :1.10874: AVG IPC :1.26241: L2-Pf-HR :0.91278: L2-HR :0.92626: (Sim:0h56m30s) 
CPU  1 inst:   79000000 cyc:   61570782 now IPC :1.54779: AVG IPC :1.27087: L2-Pf-HR :0.92492: L2-HR :0.93520: (Sim:0h56m56s) 
CPU  3 inst:   79000000 cyc:   61868400 now IPC :1.37248: AVG IPC :1.26465: L2-Pf-HR :0.92048: L2-HR :0.93210: (Sim:0h57m15s) 
CPU  2 inst:   79000000 cyc:   61890583 now IPC :1.41828: AVG IPC :1.26421: L2-Pf-HR :0.91276: L2-HR :0.92633: (Sim:0h57m17s) 
CPU  1 inst:   80000005 cyc:   62270825 now IPC :1.42849: AVG IPC :1.27267: L2-Pf-HR :0.92493: L2-HR :0.93529: (Sim:0h57m40s) 
CPU  2 inst:   80000005 cyc:   62529788 now IPC :1.56445: AVG IPC :1.26733: L2-Pf-HR :0.91284: L2-HR :0.92647: (Sim:0h57m54s) 
CPU  3 inst:   80000005 cyc:   62567071 now IPC :1.43130: AVG IPC :1.26654: L2-Pf-HR :0.92053: L2-HR :0.93221: (Sim:0h57m56s) 
CPU  0 inst:   81000005 cyc:   62715531 now IPC :0.63230: AVG IPC :1.27971: L2-Pf-HR :0.92212: L2-HR :0.93327: (Sim:0h58m2s) 
CPU  1 inst:   81000005 cyc:   63494379 now IPC :0.81729: AVG IPC :1.26376: L2-Pf-HR :0.92496: L2-HR :0.93511: (Sim:0h58m23s) 
CPU  0 inst:   82000000 cyc:   63548140 now IPC :1.20104: AVG IPC :1.27866: L2-Pf-HR :0.92187: L2-HR :0.93305: (Sim:0h58m24s) 
CPU  2 inst:   81000005 cyc:   63992483 now IPC :0.68367: AVG IPC :1.25378: L2-Pf-HR :0.91296: L2-HR :0.92633: (Sim:0h58m35s) 
CPU  3 inst:   81000005 cyc:   64006103 now IPC :0.69491: AVG IPC :1.25349: L2-Pf-HR :0.92061: L2-HR :0.93205: (Sim:0h58m36s) 
CPU  0 inst:   83000004 cyc:   64359901 now IPC :1.23189: AVG IPC :1.27806: L2-Pf-HR :0.92205: L2-HR :0.93319: (Sim:0h58m46s) 
CPU  1 inst:   82000000 cyc:   64487393 now IPC :1.00703: AVG IPC :1.25974: L2-Pf-HR :0.92484: L2-HR :0.93500: (Sim:0h58m51s) 
CPU  2 inst:   82000000 cyc:   65143211 now IPC :0.86901: AVG IPC :1.24688: L2-Pf-HR :0.91274: L2-HR :0.92615: (Sim:0h59m14s) 
CPU  3 inst:   82000000 cyc:   65166406 now IPC :0.86184: AVG IPC :1.24641: L2-Pf-HR :0.92046: L2-HR :0.93191: (Sim:0h59m15s) 
CPU  0 inst:   84000000 cyc:   65201408 now IPC :1.18834: AVG IPC :1.27689: L2-Pf-HR :0.92203: L2-HR :0.93320: (Sim:0h59m16s) 
CPU  1 inst:   83000004 cyc:   65410601 now IPC :1.08318: AVG IPC :1.25721: L2-Pf-HR :0.92486: L2-HR :0.93502: (Sim:0h59m23s) 
CPU  2 inst:   83000004 cyc:   66096400 now IPC :1.04911: AVG IPC :1.24398: L2-Pf-HR :0.91263: L2-HR :0.92607: (Sim:0h59m47s) 
CPU  0 inst:   85000003 cyc:   66145017 now IPC :1.05976: AVG IPC :1.27374: L2-Pf-HR :0.92201: L2-HR :0.93319: (Sim:0h59m48s) 
CPU  3 inst:   83000004 cyc:   66166325 now IPC :1.00008: AVG IPC :1.24263: L2-Pf-HR :0.92040: L2-HR :0.93187: (Sim:0h59m49s) 
CPU  1 inst:   84000005 cyc:   66349603 now IPC :1.06496: AVG IPC :1.25445: L2-Pf-HR :0.92486: L2-HR :0.93503: (Sim:0h59m55s) 
CPU  2 inst:   84000000 cyc:   67034183 now IPC :1.06634: AVG IPC :1.24146: L2-Pf-HR :0.91260: L2-HR :0.92606: (Sim:1h0m19s) 
CPU  3 inst:   84000005 cyc:   67038606 now IPC :1.14642: AVG IPC :1.24136: L2-Pf-HR :0.92037: L2-HR :0.93187: (Sim:1h0m19s) 
CPU  0 inst:   86000001 cyc:   67083902 now IPC :1.06509: AVG IPC :1.27078: L2-Pf-HR :0.92206: L2-HR :0.93324: (Sim:1h0m21s) 
CPU  1 inst:   85000003 cyc:   67284134 now IPC :1.07005: AVG IPC :1.25185: L2-Pf-HR :0.92479: L2-HR :0.93500: (Sim:1h0m28s) 
CPU  3 inst:   85000003 cyc:   67867297 now IPC :1.20672: AVG IPC :1.24093: L2-Pf-HR :0.92033: L2-HR :0.93184: (Sim:1h1m0s) 
CPU  2 inst:   85000003 cyc:   67872768 now IPC :1.19249: AVG IPC :1.24085: L2-Pf-HR :0.91256: L2-HR :0.92605: (Sim:1h1m0s) 
CPU  1 inst:   86000001 cyc:   68047381 now IPC :1.31019: AVG IPC :1.25252: L2-Pf-HR :0.92482: L2-HR :0.93503: (Sim:1h1m9s) 
CPU  0 inst:   87000000 cyc:   68442263 now IPC :0.73618: AVG IPC :1.26002: L2-Pf-HR :0.92252: L2-HR :0.93341: (Sim:1h1m24s) 
CPU  3 inst:   86000001 cyc:   68608418 now IPC :1.34930: AVG IPC :1.24212: L2-Pf-HR :0.92040: L2-HR :0.93191: (Sim:1h1m31s) 
CPU  2 inst:   86000001 cyc:   68615732 now IPC :1.34596: AVG IPC :1.24200: L2-Pf-HR :0.91266: L2-HR :0.92613: (Sim:1h1m31s) 
CPU  1 inst:   87000000 cyc:   69049968 now IPC :0.99742: AVG IPC :1.24876: L2-Pf-HR :0.92526: L2-HR :0.93521: (Sim:1h1m48s) 
CPU  0 inst:   88000000 cyc:   69193340 now IPC :1.33142: AVG IPC :1.26080: L2-Pf-HR :0.92209: L2-HR :0.93307: (Sim:1h1m53s) 
CPU  0 inst:   89000000 cyc:   69802958 now IPC :1.64037: AVG IPC :1.26416: L2-Pf-HR :0.92223: L2-HR :0.93324: (Sim:1h2m14s) 
CPU  2 inst:   87000000 cyc:   69866246 now IPC :0.79967: AVG IPC :1.23397: L2-Pf-HR :0.91315: L2-HR :0.92633: (Sim:1h2m18s) 
CPU  3 inst:   87000000 cyc:   69925274 now IPC :0.75938: AVG IPC :1.23290: L2-Pf-HR :0.92082: L2-HR :0.93207: (Sim:1h2m21s) 
CPU  1 inst:   88000003 cyc:   70031683 now IPC :1.01863: AVG IPC :1.24549: L2-Pf-HR :0.92495: L2-HR :0.93496: (Sim:1h2m26s) 
CPU  0 inst:   90000001 cyc:   70411074 now IPC :1.64442: AVG IPC :1.26750: L2-Pf-HR :0.92231: L2-HR :0.93336: (Sim:1h2m48s) 
CPU  1 inst:   89000003 cyc:   70711049 now IPC :1.47196: AVG IPC :1.24769: L2-Pf-HR :0.92506: L2-HR :0.93512: (Sim:1h3m7s) 
CPU  0 inst:   91000004 cyc:   71107277 now IPC :1.43637: AVG IPC :1.26917: L2-Pf-HR :0.92234: L2-HR :0.93345: (Sim:1h3m31s) 
CPU  3 inst:   88000000 cyc:   71174346 now IPC :0.80059: AVG IPC :1.22520: L2-Pf-HR :0.92053: L2-HR :0.93183: (Sim:1h3m36s) 
CPU  2 inst:   88000003 cyc:   71179629 now IPC :0.76139: AVG IPC :1.22513: L2-Pf-HR :0.91280: L2-HR :0.92606: (Sim:1h3m37s) 
CPU  1 inst:   90000004 cyc:   71517160 now IPC :1.24053: AVG IPC :1.24761: L2-Pf-HR :0.92511: L2-HR :0.93522: (Sim:1h3m59s) 
CPU  3 inst:   89000003 cyc:   71938070 now IPC :1.30938: AVG IPC :1.22611: L2-Pf-HR :0.92055: L2-HR :0.93191: (Sim:1h4m26s) 
CPU  2 inst:   89000001 cyc:   71949026 now IPC :1.29972: AVG IPC :1.22594: L2-Pf-HR :0.91274: L2-HR :0.92609: (Sim:1h4m26s) 
CPU  0 inst:   92000004 cyc:   71975810 now IPC :1.15137: AVG IPC :1.26773: L2-Pf-HR :0.92239: L2-HR :0.93355: (Sim:1h4m28s) 
CPU  1 inst:   91000004 cyc:   72299561 now IPC :1.27812: AVG IPC :1.24795: L2-Pf-HR :0.92508: L2-HR :0.93526: (Sim:1h4m52s) 
CPU  2 inst:   90000004 cyc:   72604195 now IPC :1.52633: AVG IPC :1.22869: L2-Pf-HR :0.91270: L2-HR :0.92613: (Sim:1h5m15s) 
CPU  3 inst:   90000004 cyc:   72615065 now IPC :1.47712: AVG IPC :1.22848: L2-Pf-HR :0.92053: L2-HR :0.93196: (Sim:1h5m15s) 
CPU  1 inst:   92000004 cyc:   73043815 now IPC :1.34363: AVG IPC :1.24893: L2-Pf-HR :0.92510: L2-HR :0.93534: (Sim:1h5m40s) 
CPU  0 inst:   93000003 cyc:   73227941 now IPC :0.79864: AVG IPC :1.25960: L2-Pf-HR :0.92284: L2-HR :0.93382: (Sim:1h5m52s) 
CPU  3 inst:   91000004 cyc:   73281120 now IPC :1.50138: AVG IPC :1.23100: L2-Pf-HR :0.92054: L2-HR :0.93203: (Sim:1h5m56s) 
CPU  2 inst:   91000004 cyc:   73304404 now IPC :1.42815: AVG IPC :1.23062: L2-Pf-HR :0.91269: L2-HR :0.92619: (Sim:1h5m57s) 
CPU  2 inst:   92000004 cyc:   73924816 now IPC :1.61183: AVG IPC :1.23386: L2-Pf-HR :0.91278: L2-HR :0.92632: (Sim:1h6m40s) 
CPU  3 inst:   92000004 cyc:   73929991 now IPC :1.54114: AVG IPC :1.23375: L2-Pf-HR :0.92062: L2-HR :0.93215: (Sim:1h6m40s) 
CPU  0 inst:   94000002 cyc:   74015728 now IPC :1.26938: AVG IPC :1.25971: L2-Pf-HR :0.92259: L2-HR :0.93365: (Sim:1h6m46s) 
CPU  1 inst:   93000005 cyc:   74062395 now IPC :0.98176: AVG IPC :1.24521: L2-Pf-HR :0.92555: L2-HR :0.93561: (Sim:1h6m50s) 
CPU  0 inst:   95000003 cyc:   74538678 now IPC :1.91223: AVG IPC :1.26434: L2-Pf-HR :0.92253: L2-HR :0.93367: (Sim:1h7m27s) 
CPU  1 inst:   94000002 cyc:   74684916 now IPC :1.60637: AVG IPC :1.24826: L2-Pf-HR :0.92542: L2-HR :0.93554: (Sim:1h7m35s) 
CPU  3 inst:   93000003 cyc:   74919296 now IPC :1.01081: AVG IPC :1.23077: L2-Pf-HR :0.92108: L2-HR :0.93243: (Sim:1h7m48s) 
CPU  2 inst:   93000005 cyc:   74931094 now IPC :0.99376: AVG IPC :1.23059: L2-Pf-HR :0.91326: L2-HR :0.92661: (Sim:1h7m49s) 
CPU  0 inst:   96000004 cyc:   75137520 now IPC :1.66989: AVG IPC :1.26762: L2-Pf-HR :0.92254: L2-HR :0.93374: (Sim:1h8m1s) 
CPU  1 inst:   95000003 cyc:   75250782 now IPC :1.76720: AVG IPC :1.25222: L2-Pf-HR :0.92549: L2-HR :0.93566: (Sim:1h8m8s) 
CPU  2 inst:   94000002 cyc:   75769783 now IPC :1.19233: AVG IPC :1.23016: L2-Pf-HR :0.91307: L2-HR :0.92650: (Sim:1h8m46s) 
CPU  3 inst:   94000002 cyc:   75802224 now IPC :1.13259: AVG IPC :1.22961: L2-Pf-HR :0.92091: L2-HR :0.93234: (Sim:1h8m48s) 
CPU  1 inst:   96000004 cyc:   75843025 now IPC :1.68850: AVG IPC :1.25567: L2-Pf-HR :0.92548: L2-HR :0.93572: (Sim:1h8m51s) 
CPU  0 inst:   97000002 cyc:   76217066 now IPC :0.92631: AVG IPC :1.26272: L2-Pf-HR :0.92276: L2-HR :0.93381: (Sim:1h9m16s) 
CPU  2 inst:   95000002 cyc:   76360977 now IPC :1.69149: AVG IPC :1.23378: L2-Pf-HR :0.91307: L2-HR :0.92657: (Sim:1h9m26s) 
CPU  3 inst:   95000003 cyc:   76405743 now IPC :1.65695: AVG IPC :1.23303: L2-Pf-HR :0.92091: L2-HR :0.93239: (Sim:1h9m28s) 
CPU  2 inst:   96000004 cyc:   77040573 now IPC :1.47147: AVG IPC :1.23591: L2-Pf-HR :0.91312: L2-HR :0.92667: (Sim:1h10m4s) 
CPU  3 inst:   96000004 cyc:   77045220 now IPC :1.56378: AVG IPC :1.23581: L2-Pf-HR :0.92094: L2-HR :0.93248: (Sim:1h10m4s) 
CPU  1 inst:   97000002 cyc:   77088710 now IPC :0.80277: AVG IPC :1.24825: L2-Pf-HR :0.92568: L2-HR :0.93578: (Sim:1h10m7s) 
CPU  0 inst:   98000003 cyc:   77494135 now IPC :0.78304: AVG IPC :1.25472: L2-Pf-HR :0.92234: L2-HR :0.93340: (Sim:1h10m35s) 
CPU  3 inst:   97000002 cyc:   78089913 now IPC :0.95722: AVG IPC :1.23204: L2-Pf-HR :0.92127: L2-HR :0.93263: (Sim:1h11m6s) 
CPU  2 inst:   97000002 cyc:   78117960 now IPC :0.92817: AVG IPC :1.23161: L2-Pf-HR :0.91348: L2-HR :0.92683: (Sim:1h11m7s) 
CPU  1 inst:   98000003 cyc:   78122231 now IPC :0.96757: AVG IPC :1.24449: L2-Pf-HR :0.92536: L2-HR :0.93545: (Sim:1h11m8s) 
CPU  0 inst:   99000001 cyc:   78200619 now IPC :1.41546: AVG IPC :1.25619: L2-Pf-HR :0.92244: L2-HR :0.93348: (Sim:1h11m11s) 
CPU  1 inst:   99000001 cyc:   78923785 now IPC :1.24757: AVG IPC :1.24452: L2-Pf-HR :0.92538: L2-HR :0.93548: (Sim:1h11m49s) 
CPU  0 inst:  100000002 cyc:   78972781 now IPC :1.29507: AVG IPC :1.25657: L2-Pf-HR :0.92248: L2-HR :0.93352: (Sim:1h11m52s) 
CPU  2 inst:   98000003 cyc:   79538893 now IPC :0.70376: AVG IPC :1.22206: L2-Pf-HR :0.91309: L2-HR :0.92645: (Sim:1h12m27s) 
CPU  3 inst:   98000003 cyc:   79539831 now IPC :0.68969: AVG IPC :1.22203: L2-Pf-HR :0.92091: L2-HR :0.93226: (Sim:1h12m27s) 
CPU  1 inst:  100000002 cyc:   79801795 now IPC :1.13894: AVG IPC :1.24335: L2-Pf-HR :0.92538: L2-HR :0.93550: (Sim:1h12m43s) 
CPU  0 inst:  101000000 cyc:   79837055 now IPC :1.15704: AVG IPC :1.25548: L2-Pf-HR :0.92245: L2-HR :0.93352: (Sim:1h12m45s) 
CPU  3 inst:   99000001 cyc:   80417306 now IPC :1.13963: AVG IPC :1.22112: L2-Pf-HR :0.92085: L2-HR :0.93223: (Sim:1h13m21s) 
CPU  2 inst:   99000001 cyc:   80435565 now IPC :1.11523: AVG IPC :1.22085: L2-Pf-HR :0.91296: L2-HR :0.92636: (Sim:1h13m22s) 
CPU  0 inst:  102000001 cyc:   80727589 now IPC :1.12292: AVG IPC :1.25400: L2-Pf-HR :0.92247: L2-HR :0.93354: (Sim:1h13m39s) 
CPU  1 inst:  101000000 cyc:   80846325 now IPC :0.95737: AVG IPC :1.23961: L2-Pf-HR :0.92532: L2-HR :0.93546: (Sim:1h13m47s) 
CPU  3 inst:  100000002 cyc:   81258178 now IPC :1.18924: AVG IPC :1.22078: L2-Pf-HR :0.92080: L2-HR :0.93221: (Sim:1h14m13s) 
CPU  2 inst:  100000002 cyc:   81260375 now IPC :1.21240: AVG IPC :1.22077: L2-Pf-HR :0.91292: L2-HR :0.92634: (Sim:1h14m13s) 
CPU  0 inst:  103000003 cyc:   81527843 now IPC :1.24961: AVG IPC :1.25396: L2-Pf-HR :0.92303: L2-HR :0.93397: (Sim:1h14m32s) 
CPU  1 inst:  102000001 cyc:   81639138 now IPC :1.26133: AVG IPC :1.23982: L2-Pf-HR :0.92530: L2-HR :0.93545: (Sim:1h14m39s) 
CPU  3 inst:  101000000 cyc:   82036236 now IPC :1.28525: AVG IPC :1.22140: L2-Pf-HR :0.92076: L2-HR :0.93218: (Sim:1h15m2s) 
CPU  2 inst:  101000000 cyc:   82036883 now IPC :1.28781: AVG IPC :1.22141: L2-Pf-HR :0.91290: L2-HR :0.92634: (Sim:1h15m2s) 
CPU  1 inst:  103000003 cyc:   82409891 now IPC :1.29744: AVG IPC :1.24037: L2-Pf-HR :0.92586: L2-HR :0.93588: (Sim:1h15m25s) 
CPU  3 inst:  102000001 cyc:   82776672 now IPC :1.35056: AVG IPC :1.22257: L2-Pf-HR :0.92083: L2-HR :0.93224: (Sim:1h15m44s) 
CPU  2 inst:  102000001 cyc:   82778182 now IPC :1.34898: AVG IPC :1.22257: L2-Pf-HR :0.91292: L2-HR :0.92636: (Sim:1h15m44s) 
CPU  0 inst:  104000001 cyc:   83175813 now IPC :0.60681: AVG IPC :1.24098: L2-Pf-HR :0.92249: L2-HR :0.93340: (Sim:1h16m8s) 
CPU  3 inst:  103000003 cyc:   83447395 now IPC :1.49093: AVG IPC :1.22475: L2-Pf-HR :0.92135: L2-HR :0.93264: (Sim:1h16m29s) 
CPU  2 inst:  103000003 cyc:   83454239 now IPC :1.47917: AVG IPC :1.22467: L2-Pf-HR :0.91350: L2-HR :0.92680: (Sim:1h16m29s) 
CPU  0 inst:  105000005 cyc:   83757820 now IPC :1.71820: AVG IPC :1.24434: L2-Pf-HR :0.92255: L2-HR :0.93349: (Sim:1h16m45s) 
CPU  1 inst:  104000001 cyc:   83784151 now IPC :0.72766: AVG IPC :1.23186: L2-Pf-HR :0.92535: L2-HR :0.93536: (Sim:1h16m47s) 
CPU  0 inst:  106000002 cyc:   84375432 now IPC :1.61913: AVG IPC :1.24711: L2-Pf-HR :0.92261: L2-HR :0.93359: (Sim:1h17m18s) 
CPU  1 inst:  105000005 cyc:   84391643 now IPC :1.64612: AVG IPC :1.23488: L2-Pf-HR :0.92547: L2-HR :0.93549: (Sim:1h17m19s) 
CPU  0 inst:  107000002 cyc:   85065659 now IPC :1.44880: AVG IPC :1.24877: L2-Pf-HR :0.92264: L2-HR :0.93367: (Sim:1h17m58s) 
CPU  1 inst:  106000002 cyc:   85105704 now IPC :1.40044: AVG IPC :1.23628: L2-Pf-HR :0.92552: L2-HR :0.93559: (Sim:1h18m0s) 
CPU  3 inst:  104000001 cyc:   85406914 now IPC :0.51033: AVG IPC :1.20817: L2-Pf-HR :0.92090: L2-HR :0.93215: (Sim:1h18m19s) 
CPU  2 inst:  104000004 cyc:   85491576 now IPC :0.49084: AVG IPC :1.20698: L2-Pf-HR :0.91303: L2-HR :0.92628: (Sim:1h18m24s) 
CPU  0 inst:  108000002 cyc:   85846237 now IPC :1.28110: AVG IPC :1.24907: L2-Pf-HR :0.92267: L2-HR :0.93374: (Sim:1h18m47s) 
CPU  1 inst:  107000002 cyc:   85888863 now IPC :1.27688: AVG IPC :1.23665: L2-Pf-HR :0.92551: L2-HR :0.93563: (Sim:1h18m50s) 
CPU  3 inst:  105000005 cyc:   86121786 now IPC :1.39886: AVG IPC :1.20977: L2-Pf-HR :0.92093: L2-HR :0.93222: (Sim:1h19m6s) 
CPU  2 inst:  105000000 cyc:   86248492 now IPC :1.32115: AVG IPC :1.20799: L2-Pf-HR :0.91298: L2-HR :0.92631: (Sim:1h19m15s) 
CPU  0 inst:  109000000 cyc:   86505178 now IPC :1.51758: AVG IPC :1.25113: L2-Pf-HR :0.92322: L2-HR :0.93420: (Sim:1h19m35s) 
CPU  1 inst:  108000002 cyc:   86623479 now IPC :1.36126: AVG IPC :1.23772: L2-Pf-HR :0.92550: L2-HR :0.93567: (Sim:1h19m42s) 
CPU  3 inst:  106000005 cyc:   86819018 now IPC :1.43424: AVG IPC :1.21160: L2-Pf-HR :0.92092: L2-HR :0.93226: (Sim:1h19m54s) 
CPU  2 inst:  106000002 cyc:   86909393 now IPC :1.51309: AVG IPC :1.21034: L2-Pf-HR :0.91292: L2-HR :0.92632: (Sim:1h20m0s) 
CPU  1 inst:  109000000 cyc:   87303009 now IPC :1.47160: AVG IPC :1.23956: L2-Pf-HR :0.92599: L2-HR :0.93610: (Sim:1h20m26s) 
CPU  3 inst:  107000002 cyc:   87412107 now IPC :1.68608: AVG IPC :1.21485: L2-Pf-HR :0.92092: L2-HR :0.93232: (Sim:1h20m34s) 
CPU  2 inst:  107000002 cyc:   87496965 now IPC :1.70192: AVG IPC :1.21368: L2-Pf-HR :0.91294: L2-HR :0.92640: (Sim:1h20m38s) 
CPU  0 inst:  110000002 cyc:   87826652 now IPC :0.75673: AVG IPC :1.24361: L2-Pf-HR :0.92291: L2-HR :0.93389: (Sim:1h20m58s) 
CPU  3 inst:  108000002 cyc:   88155728 now IPC :1.34477: AVG IPC :1.21596: L2-Pf-HR :0.92094: L2-HR :0.93239: (Sim:1h21m18s) 
CPU  2 inst:  108000002 cyc:   88228746 now IPC :1.36653: AVG IPC :1.21496: L2-Pf-HR :0.91297: L2-HR :0.92648: (Sim:1h21m22s) 
CPU  0 inst:  111000002 cyc:   88507436 now IPC :1.46889: AVG IPC :1.24536: L2-Pf-HR :0.92289: L2-HR :0.93392: (Sim:1h21m43s) 
CPU  3 inst:  109000000 cyc:   88740142 now IPC :1.71111: AVG IPC :1.21926: L2-Pf-HR :0.92146: L2-HR :0.93283: (Sim:1h22m3s) 
CPU  1 inst:  110000000 cyc:   88754643 now IPC :0.68888: AVG IPC :1.23046: L2-Pf-HR :0.92574: L2-HR :0.93582: (Sim:1h22m4s) 
CPU  2 inst:  109000000 cyc:   88811033 now IPC :1.71736: AVG IPC :1.21829: L2-Pf-HR :0.91355: L2-HR :0.92696: (Sim:1h22m8s) 
CPU  0 inst:  112000003 cyc:   89055053 now IPC :1.82610: AVG IPC :1.24897: L2-Pf-HR :0.92282: L2-HR :0.93392: (Sim:1h22m22s) 
CPU  1 inst:  111000002 cyc:   89366016 now IPC :1.63567: AVG IPC :1.23326: L2-Pf-HR :0.92579: L2-HR :0.93590: (Sim:1h22m38s) 
CPU  0 inst:  113000000 cyc:   89623886 now IPC :1.75798: AVG IPC :1.25224: L2-Pf-HR :0.92314: L2-HR :0.93421: (Sim:1h22m54s) 
CPU  1 inst:  112000003 cyc:   89988880 now IPC :1.60549: AVG IPC :1.23586: L2-Pf-HR :0.92581: L2-HR :0.93597: (Sim:1h23m16s) 
CPU  3 inst:  110000000 cyc:   90125781 now IPC :0.72169: AVG IPC :1.21152: L2-Pf-HR :0.92120: L2-HR :0.93255: (Sim:1h23m24s) 
CPU  2 inst:  110000005 cyc:   90212275 now IPC :0.71366: AVG IPC :1.21037: L2-Pf-HR :0.91326: L2-HR :0.92665: (Sim:1h23m30s) 
CPU  1 inst:  113000000 cyc:   90563409 now IPC :1.74055: AVG IPC :1.23910: L2-Pf-HR :0.92612: L2-HR :0.93627: (Sim:1h23m54s) 
CPU  3 inst:  111000002 cyc:   90720404 now IPC :1.68174: AVG IPC :1.21464: L2-Pf-HR :0.92121: L2-HR :0.93261: (Sim:1h24m3s) 
CPU  2 inst:  111000005 cyc:   90877141 now IPC :1.50406: AVG IPC :1.21254: L2-Pf-HR :0.91324: L2-HR :0.92669: (Sim:1h24m11s) 
CPU  3 inst:  112000003 cyc:   91412311 now IPC :1.44528: AVG IPC :1.21640: L2-Pf-HR :0.92122: L2-HR :0.93267: (Sim:1h24m42s) 
CPU  2 inst:  112000003 cyc:   91501176 now IPC :1.60247: AVG IPC :1.21523: L2-Pf-HR :0.91330: L2-HR :0.92680: (Sim:1h24m47s) 
CPU  0 inst:  114000003 cyc:   91610992 now IPC :0.50325: AVG IPC :1.23582: L2-Pf-HR :0.92268: L2-HR :0.93367: (Sim:1h24m54s) 
CPU  3 inst:  113000000 cyc:   91980501 now IPC :1.75997: AVG IPC :1.21980: L2-Pf-HR :0.92156: L2-HR :0.93298: (Sim:1h25m21s) 
CPU  2 inst:  113000000 cyc:   92047031 now IPC :1.83198: AVG IPC :1.21892: L2-Pf-HR :0.91370: L2-HR :0.92715: (Sim:1h25m26s) 
CPU  1 inst:  114000003 cyc:   92326038 now IPC :0.56734: AVG IPC :1.22614: L2-Pf-HR :0.92566: L2-HR :0.93573: (Sim:1h25m41s) 
CPU  0 inst:  115000000 cyc:   92335752 now IPC :1.37976: AVG IPC :1.23696: L2-Pf-HR :0.92266: L2-HR :0.93367: (Sim:1h25m41s) 
CPU  0 inst:  116000002 cyc:   93033201 now IPC :1.43380: AVG IPC :1.23845: L2-Pf-HR :0.92270: L2-HR :0.93371: (Sim:1h26m18s) 
CPU  1 inst:  115000000 cyc:   93034498 now IPC :1.41151: AVG IPC :1.22757: L2-Pf-HR :0.92571: L2-HR :0.93577: (Sim:1h26m18s) 
CPU  1 inst:  116000002 cyc:   93778826 now IPC :1.34350: AVG IPC :1.22850: L2-Pf-HR :0.92571: L2-HR :0.93579: (Sim:1h27m3s) 
CPU  0 inst:  117000000 cyc:   93784448 now IPC :1.33112: AVG IPC :1.23920: L2-Pf-HR :0.92269: L2-HR :0.93371: (Sim:1h27m3s) 
CPU  3 inst:  114000003 cyc:   93804679 now IPC :0.54819: AVG IPC :1.20660: L2-Pf-HR :0.92111: L2-HR :0.93244: (Sim:1h27m5s) 
CPU  2 inst:  114000003 cyc:   93875165 now IPC :0.54701: AVG IPC :1.20570: L2-Pf-HR :0.91324: L2-HR :0.92660: (Sim:1h27m9s) 
CPU  1 inst:  117000000 cyc:   94561619 now IPC :1.27747: AVG IPC :1.22891: L2-Pf-HR :0.92565: L2-HR :0.93575: (Sim:1h27m53s) 
CPU  3 inst:  115000000 cyc:   94646615 now IPC :1.18774: AVG IPC :1.20643: L2-Pf-HR :0.92110: L2-HR :0.93244: (Sim:1h27m59s) 
CPU  0 inst:  118000001 cyc:   94668009 now IPC :1.13178: AVG IPC :1.23819: L2-Pf-HR :0.92266: L2-HR :0.93370: (Sim:1h28m0s) 
CPU  2 inst:  115000000 cyc:   94702958 now IPC :1.20803: AVG IPC :1.20572: L2-Pf-HR :0.91319: L2-HR :0.92658: (Sim:1h28m3s) 
CPU  1 inst:  118000001 cyc:   95298213 now IPC :1.35760: AVG IPC :1.22991: L2-Pf-HR :0.92562: L2-HR :0.93574: (Sim:1h28m44s) 
CPU  0 inst:  119000001 cyc:   95423625 now IPC :1.32342: AVG IPC :1.23887: L2-Pf-HR :0.92306: L2-HR :0.93401: (Sim:1h28m53s) 
CPU  3 inst:  116000002 cyc:   95426246 now IPC :1.28266: AVG IPC :1.20706: L2-Pf-HR :0.92106: L2-HR :0.93243: (Sim:1h28m53s) 
CPU  2 inst:  116000002 cyc:   95432241 now IPC :1.37121: AVG IPC :1.20700: L2-Pf-HR :0.91313: L2-HR :0.92655: (Sim:1h28m54s) 
CPU  1 inst:  119000001 cyc:   95994712 now IPC :1.43575: AVG IPC :1.23142: L2-Pf-HR :0.92598: L2-HR :0.93602: (Sim:1h29m30s) 
CPU  3 inst:  117000000 cyc:   96094909 now IPC :1.49552: AVG IPC :1.20909: L2-Pf-HR :0.92103: L2-HR :0.93241: (Sim:1h29m36s) 
CPU  2 inst:  117000000 cyc:   96120085 now IPC :1.45382: AVG IPC :1.20878: L2-Pf-HR :0.91309: L2-HR :0.92652: (Sim:1h29m38s) 
CPU  3 inst:  118000001 cyc:   96926819 now IPC :1.20205: AVG IPC :1.20903: L2-Pf-HR :0.92105: L2-HR :0.93243: (Sim:1h30m19s) 
CPU  2 inst:  118000001 cyc:   96932777 now IPC :1.23048: AVG IPC :1.20897: L2-Pf-HR :0.91311: L2-HR :0.92654: (Sim:1h30m20s) 
CPU  0 inst:  120000002 cyc:   97125162 now IPC :0.58770: AVG IPC :1.22735: L2-Pf-HR :0.92273: L2-HR :0.93361: (Sim:1h30m32s) 
CPU  2 inst:  119000001 cyc:   97593629 now IPC :1.51320: AVG IPC :1.21105: L2-Pf-HR :0.91350: L2-HR :0.92685: (Sim:1h31m7s) 
CPU  3 inst:  119000001 cyc:   97596635 now IPC :1.49295: AVG IPC :1.21100: L2-Pf-HR :0.92141: L2-HR :0.93272: (Sim:1h31m7s) 
CPU  1 inst:  120000002 cyc:   97614486 now IPC :0.61737: AVG IPC :1.22113: L2-Pf-HR :0.92567: L2-HR :0.93565: (Sim:1h31m9s) 
CPU  0 inst:  121000002 cyc:   97690361 now IPC :1.76929: AVG IPC :1.23051: L2-Pf-HR :0.92273: L2-HR :0.93366: (Sim:1h31m14s) 
CPU  1 inst:  121000002 cyc:   98197639 now IPC :1.71482: AVG IPC :1.22409: L2-Pf-HR :0.92570: L2-HR :0.93571: (Sim:1h31m43s) 
CPU  0 inst:  122000003 cyc:   98325560 now IPC :1.57431: AVG IPC :1.23276: L2-Pf-HR :0.92279: L2-HR :0.93375: (Sim:1h31m50s) 
CPU  1 inst:  122000003 cyc:   98833968 now IPC :1.57152: AVG IPC :1.22635: L2-Pf-HR :0.92587: L2-HR :0.93588: (Sim:1h32m18s) 
CPU  0 inst:  123000000 cyc:   98962808 now IPC :1.56924: AVG IPC :1.23495: L2-Pf-HR :0.92291: L2-HR :0.93388: (Sim:1h32m25s) 
CPU  3 inst:  120000002 cyc:   99382477 now IPC :0.55996: AVG IPC :1.19918: L2-Pf-HR :0.92116: L2-HR :0.93237: (Sim:1h32m52s) 
CPU  2 inst:  120000002 cyc:   99412089 now IPC :0.54992: AVG IPC :1.19883: L2-Pf-HR :0.91324: L2-HR :0.92650: (Sim:1h32m54s) 
CPU  1 inst:  123000000 cyc:   99532934 now IPC :1.43068: AVG IPC :1.22780: L2-Pf-HR :0.92588: L2-HR :0.93594: (Sim:1h33m2s) 
CPU  0 inst:  124000000 cyc:   99693052 now IPC :1.36941: AVG IPC :1.23594: L2-Pf-HR :0.92293: L2-HR :0.93393: (Sim:1h33m13s) 
CPU  3 inst:  121000002 cyc:  100158403 now IPC :1.28878: AVG IPC :1.19988: L2-Pf-HR :0.92117: L2-HR :0.93242: (Sim:1h33m45s) 
CPU  2 inst:  121000002 cyc:  100175755 now IPC :1.30947: AVG IPC :1.19968: L2-Pf-HR :0.91317: L2-HR :0.92650: (Sim:1h33m47s) 
CPU  1 inst:  124000000 cyc:  100212124 now IPC :1.47234: AVG IPC :1.22947: L2-Pf-HR :0.92588: L2-HR :0.93598: (Sim:1h33m50s) 
CPU  0 inst:  125000000 cyc:  100380875 now IPC :1.45386: AVG IPC :1.23745: L2-Pf-HR :0.92332: L2-HR :0.93427: (Sim:1h34m3s) 
CPU  3 inst:  122000003 cyc:  100733691 now IPC :1.73826: AVG IPC :1.20299: L2-Pf-HR :0.92115: L2-HR :0.93246: (Sim:1h34m30s) 
CPU  2 inst:  122000003 cyc:  100735200 now IPC :1.78749: AVG IPC :1.20298: L2-Pf-HR :0.91314: L2-HR :0.92653: (Sim:1h34m30s) 
CPU  1 inst:  125000000 cyc:  100781570 now IPC :1.75609: AVG IPC :1.23248: L2-Pf-HR :0.92621: L2-HR :0.93628: (Sim:1h34m33s) 
CPU  2 inst:  123000000 cyc:  101337826 now IPC :1.65940: AVG IPC :1.20572: L2-Pf-HR :0.91317: L2-HR :0.92660: (Sim:1h35m8s) 
CPU  3 inst:  123000000 cyc:  101347898 now IPC :1.62811: AVG IPC :1.20559: L2-Pf-HR :0.92119: L2-HR :0.93253: (Sim:1h35m8s) 
CPU  0 inst:  126000001 cyc:  101548754 now IPC :0.85625: AVG IPC :1.23302: L2-Pf-HR :0.92314: L2-HR :0.93406: (Sim:1h35m21s) 
CPU  2 inst:  124000000 cyc:  102016526 now IPC :1.47341: AVG IPC :1.20752: L2-Pf-HR :0.91322: L2-HR :0.92668: (Sim:1h35m52s) 
CPU  3 inst:  124000000 cyc:  102040697 now IPC :1.44342: AVG IPC :1.20722: L2-Pf-HR :0.92122: L2-HR :0.93260: (Sim:1h35m54s) 
CPU  1 inst:  126000001 cyc:  102074799 now IPC :0.77326: AVG IPC :1.22660: L2-Pf-HR :0.92610: L2-HR :0.93612: (Sim:1h35m56s) 
CPU  0 inst:  127000004 cyc:  102208755 now IPC :1.51515: AVG IPC :1.23486: L2-Pf-HR :0.92315: L2-HR :0.93411: (Sim:1h36m6s) 
CPU  3 inst:  125000000 cyc:  102582894 now IPC :1.84435: AVG IPC :1.21062: L2-Pf-HR :0.92157: L2-HR :0.93291: (Sim:1h36m37s) 
CPU  2 inst:  125000000 cyc:  102611633 now IPC :1.68037: AVG IPC :1.21029: L2-Pf-HR :0.91361: L2-HR :0.92702: (Sim:1h36m40s) 
CPU  1 inst:  127000004 cyc:  102656393 now IPC :1.71942: AVG IPC :1.22942: L2-Pf-HR :0.92611: L2-HR :0.93617: (Sim:1h36m44s) 
CPU  0 inst:  128000005 cyc:  102701251 now IPC :2.03048: AVG IPC :1.23871: L2-Pf-HR :0.92310: L2-HR :0.93411: (Sim:1h36m47s) 
CPU  1 inst:  128000005 cyc:  103227939 now IPC :1.74964: AVG IPC :1.23233: L2-Pf-HR :0.92617: L2-HR :0.93626: (Sim:1h37m17s) 
CPU  0 inst:  129000004 cyc:  103264232 now IPC :1.77626: AVG IPC :1.24167: L2-Pf-HR :0.92331: L2-HR :0.93432: (Sim:1h37m19s) 
CPU  3 inst:  126000001 cyc:  103747581 now IPC :0.85860: AVG IPC :1.20663: L2-Pf-HR :0.92144: L2-HR :0.93274: (Sim:1h37m49s) 
CPU  2 inst:  126000001 cyc:  103774223 now IPC :0.86015: AVG IPC :1.20633: L2-Pf-HR :0.91345: L2-HR :0.92682: (Sim:1h37m50s) 
CPU  1 inst:  129000004 cyc:  103825249 now IPC :1.67417: AVG IPC :1.23489: L2-Pf-HR :0.92638: L2-HR :0.93645: (Sim:1h37m54s) 
CPU  3 inst:  127000004 cyc:  104376709 now IPC :1.58951: AVG IPC :1.20896: L2-Pf-HR :0.92146: L2-HR :0.93279: (Sim:1h38m25s) 
CPU  2 inst:  127000004 cyc:  104395092 now IPC :1.61065: AVG IPC :1.20876: L2-Pf-HR :0.91347: L2-HR :0.92687: (Sim:1h38m26s) 
CPU  0 inst:  130000000 cyc:  105055423 now IPC :0.55829: AVG IPC :1.22991: L2-Pf-HR :0.92298: L2-HR :0.93390: (Sim:1h39m2s) 
CPU  3 inst:  128000000 cyc:  105063329 now IPC :1.45640: AVG IPC :1.21059: L2-Pf-HR :0.92149: L2-HR :0.93286: (Sim:1h39m2s) 
CPU  2 inst:  128000005 cyc:  105067887 now IPC :1.48634: AVG IPC :1.21055: L2-Pf-HR :0.91353: L2-HR :0.92697: (Sim:1h39m2s) 
CPU  1 inst:  130000000 cyc:  105672486 now IPC :0.54135: AVG IPC :1.22266: L2-Pf-HR :0.92607: L2-HR :0.93607: (Sim:1h39m41s) 
CPU  2 inst:  129000004 cyc:  105724347 now IPC :1.52332: AVG IPC :1.21251: L2-Pf-HR :0.91378: L2-HR :0.92721: (Sim:1h39m45s) 
CPU  3 inst:  129000004 cyc:  105725902 now IPC :1.50927: AVG IPC :1.21248: L2-Pf-HR :0.92170: L2-HR :0.93306: (Sim:1h39m45s) 
CPU  0 inst:  131000001 cyc:  105804062 now IPC :1.33576: AVG IPC :1.23067: L2-Pf-HR :0.92296: L2-HR :0.93390: (Sim:1h39m52s) 
CPU  1 inst:  131000001 cyc:  106375704 now IPC :1.42204: AVG IPC :1.22399: L2-Pf-HR :0.92604: L2-HR :0.93606: (Sim:1h40m20s) 
CPU  0 inst:  132000005 cyc:  106564200 now IPC :1.31556: AVG IPC :1.23128: L2-Pf-HR :0.92299: L2-HR :0.93393: (Sim:1h40m28s) 
CPU  1 inst:  132000005 cyc:  107133303 now IPC :1.31996: AVG IPC :1.22467: L2-Pf-HR :0.92609: L2-HR :0.93610: (Sim:1h40m58s) 
CPU  0 inst:  133000000 cyc:  107365769 now IPC :1.24755: AVG IPC :1.23140: L2-Pf-HR :0.92301: L2-HR :0.93395: (Sim:1h41m11s) 
CPU  2 inst:  130000000 cyc:  107583289 now IPC :0.53794: AVG IPC :1.20075: L2-Pf-HR :0.91352: L2-HR :0.92683: (Sim:1h41m23s) 
CPU  3 inst:  130000000 cyc:  107593456 now IPC :0.53546: AVG IPC :1.20062: L2-Pf-HR :0.92142: L2-HR :0.93268: (Sim:1h41m24s) 
CPU  1 inst:  133000000 cyc:  107995063 now IPC :1.16041: AVG IPC :1.22415: L2-Pf-HR :0.92606: L2-HR :0.93609: (Sim:1h41m47s) 
CPU  0 inst:  134000004 cyc:  108258625 now IPC :1.12001: AVG IPC :1.23047: L2-Pf-HR :0.92303: L2-HR :0.93397: (Sim:1h42m0s) 
CPU  2 inst:  131000004 cyc:  108552063 now IPC :1.03224: AVG IPC :1.19923: L2-Pf-HR :0.91344: L2-HR :0.92678: (Sim:1h42m9s) 
CPU  3 inst:  131000004 cyc:  108570295 now IPC :1.02371: AVG IPC :1.19901: L2-Pf-HR :0.92137: L2-HR :0.93264: (Sim:1h42m10s) 
CPU  1 inst:  134000004 cyc:  108888937 now IPC :1.11873: AVG IPC :1.22328: L2-Pf-HR :0.92604: L2-HR :0.93607: (Sim:1h42m21s) 
CPU  0 inst:  135000002 cyc:  109151052 now IPC :1.12054: AVG IPC :1.22957: L2-Pf-HR :0.92330: L2-HR :0.93418: (Sim:1h42m31s) 
CPU  3 inst:  132000005 cyc:  109313288 now IPC :1.34591: AVG IPC :1.20002: L2-Pf-HR :0.92136: L2-HR :0.93264: (Sim:1h42m37s) 
CPU  2 inst:  132000005 cyc:  109315988 now IPC :1.30903: AVG IPC :1.20000: L2-Pf-HR :0.91338: L2-HR :0.92674: (Sim:1h42m37s) 
CPU  1 inst:  135000002 cyc:  109605370 now IPC :1.39580: AVG IPC :1.22442: L2-Pf-HR :0.92627: L2-HR :0.93626: (Sim:1h42m47s) 
CPU  2 inst:  133000000 cyc:  110020706 now IPC :1.41900: AVG IPC :1.20142: L2-Pf-HR :0.91334: L2-HR :0.92672: (Sim:1h43m0s) 
CPU  3 inst:  133000000 cyc:  110021838 now IPC :1.41133: AVG IPC :1.20139: L2-Pf-HR :0.92131: L2-HR :0.93262: (Sim:1h43m0s) 
CPU  0 inst:  136000000 cyc:  110834825 now IPC :0.59390: AVG IPC :1.21982: L2-Pf-HR :0.92309: L2-HR :0.93389: (Sim:1h43m22s) 
CPU  3 inst:  134000004 cyc:  110845508 now IPC :1.21408: AVG IPC :1.20149: L2-Pf-HR :0.92133: L2-HR :0.93263: (Sim:1h43m23s) 
CPU  2 inst:  134000004 cyc:  110887812 now IPC :1.15327: AVG IPC :1.20104: L2-Pf-HR :0.91336: L2-HR :0.92674: (Sim:1h43m24s) 
CPU  1 inst:  136000000 cyc:  111485847 now IPC :0.53178: AVG IPC :1.21263: L2-Pf-HR :0.92610: L2-HR :0.93600: (Sim:1h43m49s) 
CPU  0 inst:  137000000 cyc:  111503096 now IPC :1.49640: AVG IPC :1.22149: L2-Pf-HR :0.92313: L2-HR :0.93395: (Sim:1h43m50s) 
CPU  3 inst:  135000002 cyc:  111577744 now IPC :1.36568: AVG IPC :1.20258: L2-Pf-HR :0.92158: L2-HR :0.93284: (Sim:1h43m54s) 
CPU  2 inst:  135000002 cyc:  111595038 now IPC :1.41397: AVG IPC :1.20240: L2-Pf-HR :0.91363: L2-HR :0.92695: (Sim:1h43m55s) 
CPU  1 inst:  137000000 cyc:  112068030 now IPC :1.71767: AVG IPC :1.21528: L2-Pf-HR :0.92609: L2-HR :0.93603: (Sim:1h44m18s) 
CPU  0 inst:  138000004 cyc:  112088104 now IPC :1.70939: AVG IPC :1.22406: L2-Pf-HR :0.92310: L2-HR :0.93398: (Sim:1h44m19s) 
CPU  1 inst:  138000004 cyc:  112679517 now IPC :1.63536: AVG IPC :1.21758: L2-Pf-HR :0.92614: L2-HR :0.93611: (Sim:1h44m50s) 
CPU  0 inst:  139000001 cyc:  112732771 now IPC :1.55118: AVG IPC :1.22595: L2-Pf-HR :0.92314: L2-HR :0.93404: (Sim:1h44m52s) 
CPU  1 inst:  139000001 cyc:  113402661 now IPC :1.38285: AVG IPC :1.21864: L2-Pf-HR :0.92617: L2-HR :0.93617: (Sim:1h45m30s) 
CPU  0 inst:  140000005 cyc:  113448728 now IPC :1.39674: AVG IPC :1.22704: L2-Pf-HR :0.92319: L2-HR :0.93412: (Sim:1h45m33s) 
CPU  3 inst:  136000000 cyc:  113453854 now IPC :0.53302: AVG IPC :1.19141: L2-Pf-HR :0.92142: L2-HR :0.93257: (Sim:1h45m33s) 
CPU  2 inst:  136000000 cyc:  113528125 now IPC :0.51731: AVG IPC :1.19063: L2-Pf-HR :0.91348: L2-HR :0.92668: (Sim:1h45m38s) 
CPU  1 inst:  140000005 cyc:  114044716 now IPC :1.55751: AVG IPC :1.22057: L2-Pf-HR :0.92619: L2-HR :0.93622: (Sim:1h46m14s) 
CPU  0 inst:  141000005 cyc:  114092829 now IPC :1.55255: AVG IPC :1.22889: L2-Pf-HR :0.92346: L2-HR :0.93436: (Sim:1h46m18s) 
CPU  3 inst:  137000000 cyc:  114197974 now IPC :1.34387: AVG IPC :1.19241: L2-Pf-HR :0.92143: L2-HR :0.93262: (Sim:1h46m26s) 
CPU  2 inst:  137000000 cyc:  114251721 now IPC :1.38199: AVG IPC :1.19186: L2-Pf-HR :0.91345: L2-HR :0.92670: (Sim:1h46m30s) 
CPU  1 inst:  141000005 cyc:  114628115 now IPC :1.71409: AVG IPC :1.22310: L2-Pf-HR :0.92640: L2-HR :0.93643: (Sim:1h46m49s) 
CPU  3 inst:  138000004 cyc:  114831212 now IPC :1.57919: AVG IPC :1.19456: L2-Pf-HR :0.92140: L2-HR :0.93264: (Sim:1h46m56s) 
CPU  2 inst:  138000003 cyc:  114910489 now IPC :1.51799: AVG IPC :1.19374: L2-Pf-HR :0.91340: L2-HR :0.92671: (Sim:1h46m59s) 
CPU  0 inst:  142000003 cyc:  115392325 now IPC :0.76953: AVG IPC :1.22367: L2-Pf-HR :0.92337: L2-HR :0.93424: (Sim:1h47m14s) 
CPU  3 inst:  139000001 cyc:  115527590 now IPC :1.43600: AVG IPC :1.19603: L2-Pf-HR :0.92141: L2-HR :0.93269: (Sim:1h47m19s) 
CPU  2 inst:  139000001 cyc:  115545326 now IPC :1.57520: AVG IPC :1.19586: L2-Pf-HR :0.91341: L2-HR :0.92677: (Sim:1h47m19s) 
CPU  0 inst:  143000000 cyc:  116037931 now IPC :1.54893: AVG IPC :1.22550: L2-Pf-HR :0.92337: L2-HR :0.93427: (Sim:1h47m37s) 
CPU  1 inst:  142000003 cyc:  116202311 now IPC :0.63524: AVG IPC :1.21507: L2-Pf-HR :0.92637: L2-HR :0.93634: (Sim:1h47m43s) 
CPU  2 inst:  140000005 cyc:  116289939 now IPC :1.34298: AVG IPC :1.19681: L2-Pf-HR :0.91344: L2-HR :0.92684: (Sim:1h47m46s) 
CPU  3 inst:  140000005 cyc:  116293119 now IPC :1.30629: AVG IPC :1.19676: L2-Pf-HR :0.92144: L2-HR :0.93276: (Sim:1h47m46s) 
CPU  0 inst:  144000002 cyc:  116747619 now IPC :1.40907: AVG IPC :1.22662: L2-Pf-HR :0.92333: L2-HR :0.93428: (Sim:1h48m4s) 
CPU  1 inst:  143000000 cyc:  116887589 now IPC :1.45926: AVG IPC :1.21651: L2-Pf-HR :0.92636: L2-HR :0.93638: (Sim:1h48m11s) 
CPU  3 inst:  141000005 cyc:  116901632 now IPC :1.64335: AVG IPC :1.19911: L2-Pf-HR :0.92165: L2-HR :0.93296: (Sim:1h48m12s) 
CPU  2 inst:  141000005 cyc:  116910758 now IPC :1.61078: AVG IPC :1.19902: L2-Pf-HR :0.91367: L2-HR :0.92705: (Sim:1h48m12s) 
CPU  0 inst:  145000000 cyc:  117260884 now IPC :1.94831: AVG IPC :1.22981: L2-Pf-HR :0.92340: L2-HR :0.93437: (Sim:1h48m27s) 
CPU  1 inst:  144000002 cyc:  117441528 now IPC :1.80526: AVG IPC :1.21931: L2-Pf-HR :0.92637: L2-HR :0.93642: (Sim:1h48m32s) 
CPU  1 inst:  145000000 cyc:  117969778 now IPC :1.89304: AVG IPC :1.22235: L2-Pf-HR :0.92652: L2-HR :0.93658: (Sim:1h48m49s) 
CPU  3 inst:  142000003 cyc:  117974968 now IPC :0.93167: AVG IPC :1.19665: L2-Pf-HR :0.92159: L2-HR :0.93285: (Sim:1h48m49s) 
CPU  2 inst:  142000003 cyc:  117990174 now IPC :0.92643: AVG IPC :1.19651: L2-Pf-HR :0.91361: L2-HR :0.92694: (Sim:1h48m50s) 
CPU  3 inst:  143000000 cyc:  118536672 now IPC :1.78029: AVG IPC :1.19944: L2-Pf-HR :0.92162: L2-HR :0.93291: (Sim:1h49m8s) 
CPU  2 inst:  143000000 cyc:  118572725 now IPC :1.71658: AVG IPC :1.19908: L2-Pf-HR :0.91361: L2-HR :0.92699: (Sim:1h49m9s) 
CPU  0 inst:  146000003 cyc:  118995946 now IPC :0.57635: AVG IPC :1.22020: L2-Pf-HR :0.92321: L2-HR :0.93410: (Sim:1h49m23s) 
CPU  2 inst:  144000002 cyc:  119219052 now IPC :1.54721: AVG IPC :1.20099: L2-Pf-HR :0.91368: L2-HR :0.92708: (Sim:1h49m30s) 
CPU  3 inst:  144000002 cyc:  119243038 now IPC :1.41570: AVG IPC :1.20073: L2-Pf-HR :0.92167: L2-HR :0.93298: (Sim:1h49m30s) 
CPU  2 inst:  145000000 cyc:  119818242 now IPC :1.66892: AVG IPC :1.20335: L2-Pf-HR :0.91383: L2-HR :0.92724: (Sim:1h49m51s) 
CPU  3 inst:  145000000 cyc:  119858930 now IPC :1.62366: AVG IPC :1.20292: L2-Pf-HR :0.92176: L2-HR :0.93310: (Sim:1h49m53s) 
CPU  0 inst:  147000001 cyc:  119867592 now IPC :1.14725: AVG IPC :1.21967: L2-Pf-HR :0.92322: L2-HR :0.93411: (Sim:1h49m53s) 
CPU  1 inst:  146000003 cyc:  119950125 now IPC :0.50496: AVG IPC :1.21041: L2-Pf-HR :0.92634: L2-HR :0.93631: (Sim:1h49m57s) 
CPU  0 inst:  148000003 cyc:  120547865 now IPC :1.47000: AVG IPC :1.22109: L2-Pf-HR :0.92319: L2-HR :0.93409: (Sim:1h50m29s) 
CPU  1 inst:  147000001 cyc:  120687222 now IPC :1.35667: AVG IPC :1.21131: L2-Pf-HR :0.92632: L2-HR :0.93629: (Sim:1h50m36s) 
CPU  0 inst:  149000000 cyc:  121303030 now IPC :1.32421: AVG IPC :1.22174: L2-Pf-HR :0.92321: L2-HR :0.93412: (Sim:1h51m11s) 
CPU  1 inst:  148000003 cyc:  121396332 now IPC :1.41022: AVG IPC :1.21248: L2-Pf-HR :0.92636: L2-HR :0.93634: (Sim:1h51m16s) 
CPU  2 inst:  146000003 cyc:  121594433 now IPC :0.56300: AVG IPC :1.19392: L2-Pf-HR :0.91368: L2-HR :0.92698: (Sim:1h51m24s) 
CPU  3 inst:  146000003 cyc:  121611287 now IPC :0.57066: AVG IPC :1.19374: L2-Pf-HR :0.92160: L2-HR :0.93284: (Sim:1h51m25s) 
CPU  0 inst:  150000004 cyc:  122134548 now IPC :1.20262: AVG IPC :1.22161: L2-Pf-HR :0.92321: L2-HR :0.93413: (Sim:1h51m42s) 
CPU  1 inst:  149000000 cyc:  122338316 now IPC :1.06159: AVG IPC :1.21131: L2-Pf-HR :0.92634: L2-HR :0.93633: (Sim:1h51m50s) 
CPU  2 inst:  147000005 cyc:  122524008 now IPC :1.07576: AVG IPC :1.19301: L2-Pf-HR :0.91363: L2-HR :0.92695: (Sim:1h51m56s) 
CPU  3 inst:  147000001 cyc:  122572064 now IPC :1.04082: AVG IPC :1.19253: L2-Pf-HR :0.92157: L2-HR :0.93282: (Sim:1h51m57s) 
CPU  0 inst:  151000000 cyc:  122984898 now IPC :1.17598: AVG IPC :1.22129: L2-Pf-HR :0.92338: L2-HR :0.93426: (Sim:1h52m13s) 
CPU  1 inst:  150000004 cyc:  123167670 now IPC :1.20576: AVG IPC :1.21128: L2-Pf-HR :0.92628: L2-HR :0.93629: (Sim:1h52m20s) 
CPU  2 inst:  148000003 cyc:  123330820 now IPC :1.23944: AVG IPC :1.19332: L2-Pf-HR :0.91357: L2-HR :0.92691: (Sim:1h52m26s) 
CPU  3 inst:  148000003 cyc:  123343287 now IPC :1.29664: AVG IPC :1.19319: L2-Pf-HR :0.92154: L2-HR :0.93280: (Sim:1h52m27s) 
CPU  1 inst:  151000000 cyc:  123909356 now IPC :1.34827: AVG IPC :1.21210: L2-Pf-HR :0.92642: L2-HR :0.93640: (Sim:1h52m46s) 
CPU  2 inst:  149000000 cyc:  124069418 now IPC :1.35391: AVG IPC :1.19428: L2-Pf-HR :0.91355: L2-HR :0.92690: (Sim:1h52m51s) 
CPU  3 inst:  149000000 cyc:  124096288 now IPC :1.32802: AVG IPC :1.19401: L2-Pf-HR :0.92151: L2-HR :0.93279: (Sim:1h52m52s) 
CPU  2 inst:  150000004 cyc:  124806915 now IPC :1.35594: AVG IPC :1.19525: L2-Pf-HR :0.91361: L2-HR :0.92695: (Sim:1h53m12s) 
CPU  3 inst:  150000004 cyc:  124854415 now IPC :1.31905: AVG IPC :1.19478: L2-Pf-HR :0.92154: L2-HR :0.93281: (Sim:1h53m14s) 
CPU  0 inst:  152000000 cyc:  124897692 now IPC :0.52280: AVG IPC :1.21051: L2-Pf-HR :0.92328: L2-HR :0.93406: (Sim:1h53m15s) 
CPU  3 inst:  151000000 cyc:  125532874 now IPC :1.47392: AVG IPC :1.19630: L2-Pf-HR :0.92176: L2-HR :0.93298: (Sim:1h53m38s) 
CPU  2 inst:  151000000 cyc:  125533814 now IPC :1.37570: AVG IPC :1.19630: L2-Pf-HR :0.91385: L2-HR :0.92714: (Sim:1h53m38s) 
CPU  1 inst:  152000000 cyc:  125567473 now IPC :0.60309: AVG IPC :1.20400: L2-Pf-HR :0.92637: L2-HR :0.93624: (Sim:1h53m39s) 
CPU  0 inst:  153000001 cyc:  125588625 now IPC :1.44732: AVG IPC :1.21182: L2-Pf-HR :0.92334: L2-HR :0.93413: (Sim:1h53m40s) 
CPU  0 inst:  154000002 cyc:  126104261 now IPC :1.93935: AVG IPC :1.21482: L2-Pf-HR :0.92338: L2-HR :0.93420: (Sim:1h54m0s) 
CPU  1 inst:  153000001 cyc:  126126327 now IPC :1.78938: AVG IPC :1.20661: L2-Pf-HR :0.92639: L2-HR :0.93629: (Sim:1h54m1s) 
CPU  0 inst:  155000001 cyc:  126673430 now IPC :1.75695: AVG IPC :1.21727: L2-Pf-HR :0.92342: L2-HR :0.93426: (Sim:1h54m17s) 
CPU  1 inst:  154000002 cyc:  126701902 now IPC :1.73739: AVG IPC :1.20904: L2-Pf-HR :0.92647: L2-HR :0.93638: (Sim:1h54m18s) 
CPU  0 inst:  156000003 cyc:  127293477 now IPC :1.61278: AVG IPC :1.21922: L2-Pf-HR :0.92349: L2-HR :0.93435: (Sim:1h54m36s) 
CPU  1 inst:  155000003 cyc:  127310457 now IPC :1.64324: AVG IPC :1.21113: L2-Pf-HR :0.92653: L2-HR :0.93647: (Sim:1h54m37s) 
[...]

Core_3_L2C_total_access 41254013
Core_3_L2C_total_hit 35310634
Core_3_L2C_total_miss 5943379
Core_3_L2C_loads 5100676
Core_3_L2C_load_hit 4143710
Core_3_L2C_load_miss 956966
Core_3_L2C_RFOs 1002275
Core_3_L2C_RFO_hit 34410
Core_3_L2C_RFO_miss 967865
Core_3_L2C_prefetches 31279865
Core_3_L2C_prefetch_hit 27261391
Core_3_L2C_prefetch_miss 4018474
Core_3_L2C_writebacks 3871197
Core_3_L2C_writeback_hit 3871123
Core_3_L2C_writeback_miss 74

CPU 3 L1D next line prefetcher final stats
CPU 3 L2C PC-based stride prefetcher final stats
Stride Degree: 15
MK1  MARKOV_LRU_SIZE: 128
MK1  MARKOV_PREDICTION_PERCENTTHRESHOLD: 40.00000
MK1  OUTLIERS_THRESHOLD_Max: 64
MK1  OUTLIERS_THRESHOLD_Min: 32
MK2  MARKOV_LRU_SIZE: 256
MK2  MARKOV_PREDICTION_PERCENTTHRESHOLD: 30.00000
MK2  OUTLIERS_THRESHOLD_Max: 32
MK2  OUTLIERS_THRESHOLD_Min: 16
MK3  MARKOV_LRU_SIZE: 384
MK3  MARKOV_PREDICTION_PERCENTTHRESHOLD: 25.00000
MK3  OUTLIERS_THRESHOLD_Max: 16
MK3  OUTLIERS_THRESHOLD_Min: 8
MK4  MARKOV_LRU_SIZE: 512
MK4  MARKOV_PREDICTION_PERCENTTHRESHOLD: 20.00000
MK4  OUTLIERS_THRESHOLD_Max: 8
MK4  OUTLIERS_THRESHOLD_Min: 0
IPStride Degree/Access Ratio: 1.20073
MK1 IPDEltaMarkov  Degree/Access Ratio: 0.31802
MK2 IPDEltaMarkov  Degree/Access Ratio: 0.28108
MK3 IPDEltaMarkov  Degree/Access Ratio: 0.41180
MK4 IPDEltaMarkov  Degree/Access Ratio: 1.11255
Core_3_LLC_total_access 9309424
Core_3_LLC_total_hit 3757775
Core_3_LLC_total_miss 5551649
Core_3_LLC_loads 399706
Core_3_LLC_load_hit 90784
Core_3_LLC_load_miss 308922
Core_3_LLC_RFOs 967865
Core_3_LLC_RFO_hit 93
Core_3_LLC_RFO_miss 967772
Core_3_LLC_prefetches 4691591
Core_3_LLC_prefetch_hit 466645
Core_3_LLC_prefetch_miss 4224946
Core_3_LLC_writebacks 3250262
Core_3_LLC_writeback_hit 3200253
Core_3_LLC_writeback_miss 50009


[ROI Statistics]
Core_0_instructions 657000003
Core_0_cycles 993135279
Core_0_IPC 0.66154

Core_0_branch_prediction_accuracy 99.58638
Core_0_branch_MPKI 0.11921
Core_0_average_ROB_occupancy_at_mispredict 566.39295

Core_0_L1D_total_access 448485388
Core_0_L1D_total_hit 432160245 L1D_total_Hit Ratio: 0.96360
Core_0_L1D_total_miss 16325143
Core_0_L1D_loads 190885190
Core_0_L1D_load_hit 185046185 L1D_load_Hit Ratio: 0.96941
Core_0_L1D_load_miss 5839005
Core_0_L1D_RFOs 16902457
Core_0_L1D_RFO_hit 15898757 L1D_RFO_Hit Ratio: 0.94062
Core_0_L1D_RFO_miss 1003700
Core_0_L1D_prefetches 240697741
Core_0_L1D_prefetch_hit 231215303 L1D_prefetch_Hit Ratio: 0.96060
Core_0_L1D_prefetch_miss 9482438
Core_0_L1D_writebacks 0
Core_0_L1D_writeback_hit 0 L1D_writeback_Hit Ratio: -nan
Core_0_L1D_writeback_miss 0
Core_0_L1D_prefetch_requested 584767845
Core_0_L1D_prefetch_issued 295465731
Core_0_L1D_prefetch_useful 6780354 L1D_Useful Ratio: 0.02295
Core_0_L1D_prefetch_useless 2837779
Core_0_L1D_prefetch_late 720102
Core_0_L1D_average_miss_latency 17130651.22417

Core_0_L1I_total_access 102942857
Core_0_L1I_total_hit 102940907 L1I_total_Hit Ratio: 0.99998
Core_0_L1I_total_miss 1950
Core_0_L1I_loads 102942857
Core_0_L1I_load_hit 102940907 L1I_load_Hit Ratio: 0.99998
Core_0_L1I_load_miss 1950
Core_0_L1I_RFOs 0
Core_0_L1I_RFO_hit 0 L1I_RFO_Hit Ratio: -nan
Core_0_L1I_RFO_miss 0
Core_0_L1I_prefetches 0
Core_0_L1I_prefetch_hit 0 L1I_prefetch_Hit Ratio: -nan
Core_0_L1I_prefetch_miss 0
Core_0_L1I_writebacks 0
Core_0_L1I_writeback_hit 0 L1I_writeback_Hit Ratio: -nan
Core_0_L1I_writeback_miss 0
Core_0_L1I_prefetch_requested 0
Core_0_L1I_prefetch_issued 0
Core_0_L1I_prefetch_useful 0 L1I_Useful Ratio: -nan
Core_0_L1I_prefetch_useless 0
Core_0_L1I_prefetch_late 0
Core_0_L1I_average_miss_latency 2126.80205

Core_0_L2C_total_access 41948529
Core_0_L2C_total_hit 35903902 L2C_total_Hit Ratio: 0.85590
Core_0_L2C_total_miss 6044627
Core_0_L2C_loads 5126740
Core_0_L2C_load_hit 4166376 L2C_load_Hit Ratio: 0.81268
Core_0_L2C_load_miss 960364
Core_0_L2C_RFOs 1003693
Core_0_L2C_RFO_hit 35771 L2C_RFO_Hit Ratio: 0.03564
Core_0_L2C_RFO_miss 967922
Core_0_L2C_prefetches 31941879
Core_0_L2C_prefetch_hit 27825663 L2C_prefetch_Hit Ratio: 0.87113
Core_0_L2C_prefetch_miss 4116216
Core_0_L2C_writebacks 3876217
Core_0_L2C_writeback_hit 3876092 L2C_writeback_Hit Ratio: 0.99997
Core_0_L2C_writeback_miss 125
Core_0_L2C_prefetch_requested 49142917
Core_0_L2C_prefetch_issued 32372698
Core_0_L2C_prefetch_useful 1186372 L2C_Useful Ratio: 0.03665
Core_0_L2C_prefetch_useless 2951935
Core_0_L2C_prefetch_late 562718
Core_0_L2C_average_miss_latency 1162.99888

Core_0_LLC_total_access 9410502
Core_0_LLC_total_hit 3860632 LLC_total_Hit Ratio: 0.41025
Core_0_LLC_total_miss 5549870
Core_0_LLC_loads 399421
Core_0_LLC_load_hit 91740 LLC_load_Hit Ratio: 0.22968
Core_0_LLC_load_miss 307681
Core_0_LLC_RFOs 967922
Core_0_LLC_RFO_hit 84 LLC_RFO_Hit Ratio: 0.00009
Core_0_LLC_RFO_miss 967838
Core_0_LLC_prefetches 4790616
Core_0_LLC_prefetch_hit 560349 LLC_prefetch_Hit Ratio: 0.11697
Core_0_LLC_prefetch_miss 4230267
Core_0_LLC_writebacks 3252543
Core_0_LLC_writeback_hit 3208459 LLC_writeback_Hit Ratio: 0.98645
Core_0_LLC_writeback_miss 44084
Core_0_LLC_prefetch_requested 0
Core_0_LLC_prefetch_issued 0
Core_0_LLC_prefetch_useful 344428 LLC_Useful Ratio: inf
Core_0_LLC_prefetch_useless 16201256
Core_0_LLC_prefetch_late 110828
Core_0_LLC_average_miss_latency 4799.38276

Core_0_major_page_fault 0
Core_0_minor_page_fault 37966

Core_1_instructions 657000005
Core_1_cycles 996126525
Core_1_IPC 0.65955

Core_1_branch_prediction_accuracy 99.58939
Core_1_branch_MPKI 0.11884
Core_1_average_ROB_occupancy_at_mispredict 571.37194

Core_1_L1D_total_access 448067835
Core_1_L1D_total_hit 431606328 L1D_total_Hit Ratio: 0.96326
Core_1_L1D_total_miss 16461507
Core_1_L1D_loads 190800398
Core_1_L1D_load_hit 184871453 L1D_load_Hit Ratio: 0.96893
Core_1_L1D_load_miss 5928945
Core_1_L1D_RFOs 16904608
Core_1_L1D_RFO_hit 15902456 L1D_RFO_Hit Ratio: 0.94072
Core_1_L1D_RFO_miss 1002152
Core_1_L1D_prefetches 240362829
Core_1_L1D_prefetch_hit 230832419 L1D_prefetch_Hit Ratio: 0.96035
Core_1_L1D_prefetch_miss 9530410
Core_1_L1D_writebacks 0
Core_1_L1D_writeback_hit 0 L1D_writeback_Hit Ratio: -nan
Core_1_L1D_writeback_miss 0
Core_1_L1D_prefetch_requested 580881150
Core_1_L1D_prefetch_issued 293610255
Core_1_L1D_prefetch_useful 6797072 L1D_Useful Ratio: 0.02315
Core_1_L1D_prefetch_useless 2802595
Core_1_L1D_prefetch_late 738978
Core_1_L1D_average_miss_latency 17750372.95444

Core_1_L1I_total_access 102800930
Core_1_L1I_total_hit 102798986 L1I_total_Hit Ratio: 0.99998
Core_1_L1I_total_miss 1944
Core_1_L1I_loads 102800930
Core_1_L1I_load_hit 102798986 L1I_load_Hit Ratio: 0.99998
Core_1_L1I_load_miss 1944
Core_1_L1I_RFOs 0
Core_1_L1I_RFO_hit 0 L1I_RFO_Hit Ratio: -nan
Core_1_L1I_RFO_miss 0
Core_1_L1I_prefetches 0
Core_1_L1I_prefetch_hit 0 L1I_prefetch_Hit Ratio: -nan
Core_1_L1I_prefetch_miss 0
Core_1_L1I_writebacks 0
Core_1_L1I_writeback_hit 0 L1I_writeback_Hit Ratio: -nan
Core_1_L1I_writeback_miss 0
Core_1_L1I_prefetch_requested 0
Core_1_L1I_prefetch_issued 0
Core_1_L1I_prefetch_useful 0 L1I_Useful Ratio: -nan
Core_1_L1I_prefetch_useless 0
Core_1_L1I_prefetch_late 0
Core_1_L1I_average_miss_latency 1863.25206

Core_1_L2C_total_access 42273821
Core_1_L2C_total_hit 36323567 L2C_total_Hit Ratio: 0.85924
Core_1_L2C_total_miss 5950254
Core_1_L2C_loads 5194568
Core_1_L2C_load_hit 4229936 L2C_load_Hit Ratio: 0.81430
Core_1_L2C_load_miss 964632
Core_1_L2C_RFOs 1002151
Core_1_L2C_RFO_hit 34216 L2C_RFO_Hit Ratio: 0.03414
Core_1_L2C_RFO_miss 967935
Core_1_L2C_prefetches 32205810
Core_1_L2C_prefetch_hit 28188188 L2C_prefetch_Hit Ratio: 0.87525
Core_1_L2C_prefetch_miss 4017622
Core_1_L2C_writebacks 3871292
Core_1_L2C_writeback_hit 3871227 L2C_writeback_Hit Ratio: 0.99998
Core_1_L2C_writeback_miss 65
Core_1_L2C_prefetch_requested 48742323
Core_1_L2C_prefetch_issued 32525311
Core_1_L2C_prefetch_useful 1161701 L2C_Useful Ratio: 0.03572
Core_1_L2C_prefetch_useless 2827860
Core_1_L2C_prefetch_late 559877
Core_1_L2C_average_miss_latency 1183.52733

Core_1_LLC_total_access 9313239
Core_1_LLC_total_hit 3776056 LLC_total_Hit Ratio: 0.40545
Core_1_LLC_total_miss 5537183
Core_1_LLC_loads 404834
Core_1_LLC_load_hit 97610 LLC_load_Hit Ratio: 0.24111
Core_1_LLC_load_miss 307224
Core_1_LLC_RFOs 967935
Core_1_LLC_RFO_hit 112 LLC_RFO_Hit Ratio: 0.00012
Core_1_LLC_RFO_miss 967823
Core_1_LLC_prefetches 4692210
Core_1_LLC_prefetch_hit 466975 LLC_prefetch_Hit Ratio: 0.09952
Core_1_LLC_prefetch_miss 4225235
Core_1_LLC_writebacks 3248260
Core_1_LLC_writeback_hit 3211359 LLC_writeback_Hit Ratio: 0.98864
Core_1_LLC_writeback_miss 36901
Core_1_LLC_prefetch_requested 0
Core_1_LLC_prefetch_issued 0
Core_1_LLC_prefetch_useful 344428 LLC_Useful Ratio: inf
Core_1_LLC_prefetch_useless 16201256
Core_1_LLC_prefetch_late 110828
Core_1_LLC_average_miss_latency 4810.37928

Core_1_major_page_fault 0
Core_1_minor_page_fault 37887

Core_2_instructions 657000005
Core_2_cycles 997407812
Core_2_IPC 0.65871

Core_2_branch_prediction_accuracy 99.58944
Core_2_branch_MPKI 0.11916
Core_2_average_ROB_occupancy_at_mispredict 571.43194

Core_2_L1D_total_access 448009055
Core_2_L1D_total_hit 432170084 L1D_total_Hit Ratio: 0.96465
Core_2_L1D_total_miss 15838971
Core_2_L1D_loads 190798383
Core_2_L1D_load_hit 185192700 L1D_load_Hit Ratio: 0.97062
Core_2_L1D_load_miss 5605683
Core_2_L1D_RFOs 16905176
Core_2_L1D_RFO_hit 15902905 L1D_RFO_Hit Ratio: 0.94071
Core_2_L1D_RFO_miss 1002271
Core_2_L1D_prefetches 240305496
Core_2_L1D_prefetch_hit 231074479 L1D_prefetch_Hit Ratio: 0.96159
Core_2_L1D_prefetch_miss 9231017
Core_2_L1D_writebacks 0
Core_2_L1D_writeback_hit 0 L1D_writeback_Hit Ratio: -nan
Core_2_L1D_writeback_miss 0
Core_2_L1D_prefetch_requested 578298342
Core_2_L1D_prefetch_issued 292744722
Core_2_L1D_prefetch_useful 6478819 L1D_Useful Ratio: 0.02213
Core_2_L1D_prefetch_useless 2771023
Core_2_L1D_prefetch_late 706073
Core_2_L1D_average_miss_latency 18210934.47523

Core_2_L1I_total_access 103176037
Core_2_L1I_total_hit 103174088 L1I_total_Hit Ratio: 0.99998
Core_2_L1I_total_miss 1949
Core_2_L1I_loads 103176037
Core_2_L1I_load_hit 103174088 L1I_load_Hit Ratio: 0.99998
Core_2_L1I_load_miss 1949
Core_2_L1I_RFOs 0
Core_2_L1I_RFO_hit 0 L1I_RFO_Hit Ratio: -nan
Core_2_L1I_RFO_miss 0
Core_2_L1I_prefetches 0
Core_2_L1I_prefetch_hit 0 L1I_prefetch_Hit Ratio: -nan
Core_2_L1I_prefetch_miss 0
Core_2_L1I_writebacks 0
Core_2_L1I_writeback_hit 0 L1I_writeback_Hit Ratio: -nan
Core_2_L1I_writeback_miss 0
Core_2_L1I_prefetch_requested 0
Core_2_L1I_prefetch_issued 0
Core_2_L1I_prefetch_useful 0 L1I_Useful Ratio: -nan
Core_2_L1I_prefetch_useless 0
Core_2_L1I_prefetch_late 0
Core_2_L1I_average_miss_latency 1703.90662

Core_2_L2C_total_access 39652427
Core_2_L2C_total_hit 33670868 L2C_total_Hit Ratio: 0.84915
Core_2_L2C_total_miss 5981559
Core_2_L2C_loads 4903294
Core_2_L2C_load_hit 3938412 L2C_load_Hit Ratio: 0.80322
Core_2_L2C_load_miss 964882
Core_2_L2C_RFOs 1002266
Core_2_L2C_RFO_hit 34399 L2C_RFO_Hit Ratio: 0.03432
Core_2_L2C_RFO_miss 967867
Core_2_L2C_prefetches 29876173
Core_2_L2C_prefetch_hit 25827452 L2C_prefetch_Hit Ratio: 0.86448
Core_2_L2C_prefetch_miss 4048721
Core_2_L2C_writebacks 3870694
Core_2_L2C_writeback_hit 3870605 L2C_writeback_Hit Ratio: 0.99998
Core_2_L2C_writeback_miss 89
Core_2_L2C_prefetch_requested 44921246
Core_2_L2C_prefetch_issued 29726942
Core_2_L2C_prefetch_useful 1161438 L2C_Useful Ratio: 0.03907
Core_2_L2C_prefetch_useless 2849678
Core_2_L2C_prefetch_late 557619
Core_2_L2C_average_miss_latency 1214.10835

Core_2_LLC_total_access 9346923
Core_2_LLC_total_hit 3791448 LLC_total_Hit Ratio: 0.40564
Core_2_LLC_total_miss 5555475
Core_2_LLC_loads 407428
Core_2_LLC_load_hit 96732 LLC_load_Hit Ratio: 0.23742
Core_2_LLC_load_miss 310696
Core_2_LLC_RFOs 967866
Core_2_LLC_RFO_hit 75 LLC_RFO_Hit Ratio: 0.00008
Core_2_LLC_RFO_miss 967791
Core_2_LLC_prefetches 4721969
Core_2_LLC_prefetch_hit 499367 LLC_prefetch_Hit Ratio: 0.10575
Core_2_LLC_prefetch_miss 4222602
Core_2_LLC_writebacks 3249660
Core_2_LLC_writeback_hit 3195274 LLC_writeback_Hit Ratio: 0.98326
Core_2_LLC_writeback_miss 54386
Core_2_LLC_prefetch_requested 0
Core_2_LLC_prefetch_issued 0
Core_2_LLC_prefetch_useful 344428 LLC_Useful Ratio: inf
Core_2_LLC_prefetch_useless 16201256
Core_2_LLC_prefetch_late 110828
Core_2_LLC_average_miss_latency 4794.54059

Core_2_major_page_fault 0
Core_2_minor_page_fault 37887

Core_3_instructions 657000004
Core_3_cycles 997355330
Core_3_IPC 0.65874

Core_3_branch_prediction_accuracy 99.58944
Core_3_branch_MPKI 0.11915
Core_3_average_ROB_occupancy_at_mispredict 571.46622

Core_3_L1D_total_access 448049225
Core_3_L1D_total_hit 431833324 L1D_total_Hit Ratio: 0.96381
Core_3_L1D_total_miss 16215901
Core_3_L1D_loads 190794031
Core_3_L1D_load_hit 184981593 L1D_load_Hit Ratio: 0.96954
Core_3_L1D_load_miss 5812438
Core_3_L1D_RFOs 16905895
Core_3_L1D_RFO_hit 15903614 L1D_RFO_Hit Ratio: 0.94071
Core_3_L1D_RFO_miss 1002281
Core_3_L1D_prefetches 240349299
Core_3_L1D_prefetch_hit 230948117 L1D_prefetch_Hit Ratio: 0.96089
Core_3_L1D_prefetch_miss 9401182
Core_3_L1D_writebacks 0
Core_3_L1D_writeback_hit 0 L1D_writeback_Hit Ratio: -nan
Core_3_L1D_writeback_miss 0
Core_3_L1D_prefetch_requested 578398764
Core_3_L1D_prefetch_issued 292779953
Core_3_L1D_prefetch_useful 6628068 L1D_Useful Ratio: 0.02264
Core_3_L1D_prefetch_useless 2795318
Core_3_L1D_prefetch_late 716134
Core_3_L1D_average_miss_latency 17856117.41513

Core_3_L1I_total_access 102869187
Core_3_L1I_total_hit 102867233 L1I_total_Hit Ratio: 0.99998
Core_3_L1I_total_miss 1954
Core_3_L1I_loads 102869187
Core_3_L1I_load_hit 102867233 L1I_load_Hit Ratio: 0.99998
Core_3_L1I_load_miss 1954
Core_3_L1I_RFOs 0
Core_3_L1I_RFO_hit 0 L1I_RFO_Hit Ratio: -nan
Core_3_L1I_RFO_miss 0
Core_3_L1I_prefetches 0
Core_3_L1I_prefetch_hit 0 L1I_prefetch_Hit Ratio: -nan
Core_3_L1I_prefetch_miss 0
Core_3_L1I_writebacks 0
Core_3_L1I_writeback_hit 0 L1I_writeback_Hit Ratio: -nan
Core_3_L1I_writeback_miss 0
Core_3_L1I_prefetch_requested 0
Core_3_L1I_prefetch_issued 0
Core_3_L1I_prefetch_useful 0 L1I_Useful Ratio: -nan
Core_3_L1I_prefetch_useless 0
Core_3_L1I_prefetch_late 0
Core_3_L1I_average_miss_latency 1639.77226

Core_3_L2C_total_access 41248526
Core_3_L2C_total_hit 35306132 L2C_total_Hit Ratio: 0.85594
Core_3_L2C_total_miss 5942394
Core_3_L2C_loads 5100011
Core_3_L2C_load_hit 4143185 L2C_load_Hit Ratio: 0.81239
Core_3_L2C_load_miss 956826
Core_3_L2C_RFOs 1002275
Core_3_L2C_RFO_hit 34410 L2C_RFO_Hit Ratio: 0.03433
Core_3_L2C_RFO_miss 967865
Core_3_L2C_prefetches 31275205
Core_3_L2C_prefetch_hit 27257576 L2C_prefetch_Hit Ratio: 0.87154
Core_3_L2C_prefetch_miss 4017629
Core_3_L2C_writebacks 3871035
Core_3_L2C_writeback_hit 3870961 L2C_writeback_Hit Ratio: 0.99998
Core_3_L2C_writeback_miss 74
Core_3_L2C_prefetch_requested 46556613
Core_3_L2C_prefetch_issued 31405625
Core_3_L2C_prefetch_useful 1167412 L2C_Useful Ratio: 0.03717
Core_3_L2C_prefetch_useless 2812321
Core_3_L2C_prefetch_late 557369
Core_3_L2C_average_miss_latency 1223.29765

Core_3_LLC_total_access 9308403
Core_3_LLC_total_hit 3757094 LLC_total_Hit Ratio: 0.40362
Core_3_LLC_total_miss 5551309
Core_3_LLC_loads 399566
Core_3_LLC_load_hit 90660 LLC_load_Hit Ratio: 0.22690
Core_3_LLC_load_miss 308906
Core_3_LLC_RFOs 967865
Core_3_LLC_RFO_hit 93 LLC_RFO_Hit Ratio: 0.00010
Core_3_LLC_RFO_miss 967772
Core_3_LLC_prefetches 4690746
Core_3_LLC_prefetch_hit 466113 LLC_prefetch_Hit Ratio: 0.09937
Core_3_LLC_prefetch_miss 4224633
Core_3_LLC_writebacks 3250226
Core_3_LLC_writeback_hit 3200228 LLC_writeback_Hit Ratio: 0.98462
Core_3_LLC_writeback_miss 49998
Core_3_LLC_prefetch_requested 0
Core_3_LLC_prefetch_issued 0
Core_3_LLC_prefetch_useful 344428 LLC_Useful Ratio: inf
Core_3_LLC_prefetch_useless 16201256
Core_3_LLC_prefetch_late 110828
Core_3_LLC_average_miss_latency 4798.13867

Core_3_major_page_fault 0
Core_3_minor_page_fault 37887

CPU 0 L1D next line prefetcher final stats
CPU 0 L2C PC-based stride prefetcher final stats
Stride Degree: 15
MK1  MARKOV_LRU_SIZE: 128
MK1  MARKOV_PREDICTION_PERCENTTHRESHOLD: 40.00000
MK1  OUTLIERS_THRESHOLD_Max: 64
MK1  OUTLIERS_THRESHOLD_Min: 32
MK2  MARKOV_LRU_SIZE: 256
MK2  MARKOV_PREDICTION_PERCENTTHRESHOLD: 30.00000
MK2  OUTLIERS_THRESHOLD_Max: 32
MK2  OUTLIERS_THRESHOLD_Min: 16
MK3  MARKOV_LRU_SIZE: 384
MK3  MARKOV_PREDICTION_PERCENTTHRESHOLD: 25.00000
MK3  OUTLIERS_THRESHOLD_Max: 16
MK3  OUTLIERS_THRESHOLD_Min: 8
MK4  MARKOV_LRU_SIZE: 512
MK4  MARKOV_PREDICTION_PERCENTTHRESHOLD: 20.00000
MK4  OUTLIERS_THRESHOLD_Max: 8
MK4  OUTLIERS_THRESHOLD_Min: 0
IPStride Degree/Access Ratio: 1.20073
MK1 IPDEltaMarkov  Degree/Access Ratio: 0.31802
MK2 IPDEltaMarkov  Degree/Access Ratio: 0.28108
MK3 IPDEltaMarkov  Degree/Access Ratio: 0.41180
MK4 IPDEltaMarkov  Degree/Access Ratio: 1.11255
CPU 1 L1D next line prefetcher final stats
CPU 1 L2C PC-based stride prefetcher final stats
Stride Degree: 15
MK1  MARKOV_LRU_SIZE: 128
MK1  MARKOV_PREDICTION_PERCENTTHRESHOLD: 40.00000
MK1  OUTLIERS_THRESHOLD_Max: 64
MK1  OUTLIERS_THRESHOLD_Min: 32
MK2  MARKOV_LRU_SIZE: 256
MK2  MARKOV_PREDICTION_PERCENTTHRESHOLD: 30.00000
MK2  OUTLIERS_THRESHOLD_Max: 32
MK2  OUTLIERS_THRESHOLD_Min: 16
MK3  MARKOV_LRU_SIZE: 384
MK3  MARKOV_PREDICTION_PERCENTTHRESHOLD: 25.00000
MK3  OUTLIERS_THRESHOLD_Max: 16
MK3  OUTLIERS_THRESHOLD_Min: 8
MK4  MARKOV_LRU_SIZE: 512
MK4  MARKOV_PREDICTION_PERCENTTHRESHOLD: 20.00000
MK4  OUTLIERS_THRESHOLD_Max: 8
MK4  OUTLIERS_THRESHOLD_Min: 0
IPStride Degree/Access Ratio: 1.20073
MK1 IPDEltaMarkov  Degree/Access Ratio: 0.31802
MK2 IPDEltaMarkov  Degree/Access Ratio: 0.28108
MK3 IPDEltaMarkov  Degree/Access Ratio: 0.41180
MK4 IPDEltaMarkov  Degree/Access Ratio: 1.11255
CPU 2 L1D next line prefetcher final stats
CPU 2 L2C PC-based stride prefetcher final stats
Stride Degree: 15
MK1  MARKOV_LRU_SIZE: 128
MK1  MARKOV_PREDICTION_PERCENTTHRESHOLD: 40.00000
MK1  OUTLIERS_THRESHOLD_Max: 64
MK1  OUTLIERS_THRESHOLD_Min: 32
MK2  MARKOV_LRU_SIZE: 256
MK2  MARKOV_PREDICTION_PERCENTTHRESHOLD: 30.00000
MK2  OUTLIERS_THRESHOLD_Max: 32
MK2  OUTLIERS_THRESHOLD_Min: 16
MK3  MARKOV_LRU_SIZE: 384
MK3  MARKOV_PREDICTION_PERCENTTHRESHOLD: 25.00000
MK3  OUTLIERS_THRESHOLD_Max: 16
MK3  OUTLIERS_THRESHOLD_Min: 8
MK4  MARKOV_LRU_SIZE: 512
MK4  MARKOV_PREDICTION_PERCENTTHRESHOLD: 20.00000
MK4  OUTLIERS_THRESHOLD_Max: 8
MK4  OUTLIERS_THRESHOLD_Min: 0
IPStride Degree/Access Ratio: 1.20073
MK1 IPDEltaMarkov  Degree/Access Ratio: 0.31802
MK2 IPDEltaMarkov  Degree/Access Ratio: 0.28108
MK3 IPDEltaMarkov  Degree/Access Ratio: 0.41180
MK4 IPDEltaMarkov  Degree/Access Ratio: 1.11255
CPU 3 L1D next line prefetcher final stats
CPU 3 L2C PC-based stride prefetcher final stats
Stride Degree: 15
MK1  MARKOV_LRU_SIZE: 128
MK1  MARKOV_PREDICTION_PERCENTTHRESHOLD: 40.00000
MK1  OUTLIERS_THRESHOLD_Max: 64
MK1  OUTLIERS_THRESHOLD_Min: 32
MK2  MARKOV_LRU_SIZE: 256
MK2  MARKOV_PREDICTION_PERCENTTHRESHOLD: 30.00000
MK2  OUTLIERS_THRESHOLD_Max: 32
MK2  OUTLIERS_THRESHOLD_Min: 16
MK3  MARKOV_LRU_SIZE: 384
MK3  MARKOV_PREDICTION_PERCENTTHRESHOLD: 25.00000
MK3  OUTLIERS_THRESHOLD_Max: 16
MK3  OUTLIERS_THRESHOLD_Min: 8
MK4  MARKOV_LRU_SIZE: 512
MK4  MARKOV_PREDICTION_PERCENTTHRESHOLD: 20.00000
MK4  OUTLIERS_THRESHOLD_Max: 8
MK4  OUTLIERS_THRESHOLD_Min: 0
IPStride Degree/Access Ratio: 1.20073
MK1 IPDEltaMarkov  Degree/Access Ratio: 0.31802
MK2 IPDEltaMarkov  Degree/Access Ratio: 0.28108
MK3 IPDEltaMarkov  Degree/Access Ratio: 0.41180
MK4 IPDEltaMarkov  Degree/Access Ratio: 1.11255
Channel_0_RQ_row_buffer_hit 7337596
Channel_0_RQ_row_buffer_miss 14713074
Channel_0_WQ_row_buffer_hit 3529117
Channel_0_WQ_row_buffer_miss 9329751
Channel_0_WQ_full 11963
Channel_0_dbus_congested 24431208

avg_congested_cycle 8

EzSearch AVG IPC :0.66154: L2-Pf-HR :0.87113 : L2-HR :0.85651 Uful:0.03665
EzSearch AVG IPC :0.65955: L2-Pf-HR :0.87525 : L2-HR :0.85947 Uful:0.03572
EzSearch AVG IPC :0.65871: L2-Pf-HR :0.86448 : L2-HR :0.84915 Uful:0.03907
EzSearch AVG IPC :0.65874: L2-Pf-HR :0.87154 : L2-HR :0.85593 Uful:0.03717
     > Finished combination: TraceType=770-tot Sim:657000000 Prefetcher=L2029-SecTOP-L2-MultiMarkovDelta_ip_stride_v4-IPStrS256 L1=next_line
