*************************************************
   ChampSim Multicore Out-of-Order Simulator
   Last compiled: Aug 13 2024 03:10:09
*************************************************

trace_0 ./LLM_Traces/2B_Traces_SelfAttention_Phythia-70M-Seq1024-07-08-0125.champsim.xz
CPU 0 L2C next line prefetcher initialized
warmup_instructions 2000000
simulation_instructions 360000000
champsim_seed 200

num_cpus 1
cpu_freq 4000
dram_io_freq 2400
page_size 4096
block_size 64
max_read_per_cycle 8
max_fill_per_cycle 1
dram_channels 1
dram_ranks 1
dram_banks 8
dram_rows 65536
dram_columns 128
dram_row_size 8
dram_size 4096
dram_pages 1048576

fetch_width 6
decode_width 6
exec_width 4
lq_width 2
sq_width 2
retire_width 4
scheduler_size 128
branch_mispredict_penalty 20
rob_size 256
lq_size 72
sq_size 56
num_instr_destinations_sparc 4
num_instr_destinations 2
num_instr_sources 4

itlb_set 16
itlb_way 8
itlb_rq_size 16
itlb_wq_size 16
itlb_pq_size 0
itlb_mshr_size 8
itlb_latency 1

dtlb_set 16
dtlb_way 4
dtlb_rq_size 16
dtlb_wq_size 16
dtlb_pq_size 0
dtlb_mshr_size 8
dtlb_latency 1

stlb_set 128
stlb_way 12
stlb_rq_size 32
stlb_wq_size 32
stlb_pq_size 0
stlb_mshr_size 16
stlb_latency 8

l1i_size 32
l1i_set 64
l1i_way 8
l1i_rq_size 64
l1i_wq_size 64
l1i_pq_size 8
l1i_mshr_size 8
l1i_latency 1

l1d_size 32
l1d_set 64
l1d_way 8
l1d_rq_size 64
l1d_wq_size 64
l1d_pq_size 8
l1d_mshr_size 16
l1d_latency 4

l2c_size 512
l2c_set 1024
l2c_way 8
l2c_rq_size 32
l2c_wq_size 32
l2c_pq_size 16
l2c_mshr_size 32
l2c_latency 10

llc_size 2048
llc_set 2048
llc_way 16
llc_rq_size 32
llc_wq_size 32
llc_pq_size 32
llc_mshr_size 64
llc_latency 20

dram_channel_width 8
dram_wq_size 64
dram_rq_size 64
tRP 15
tRCD 15
tCAS 12.5
dram_dbus_turn_around_time 30
dram_write_high_wm 56
dram_write_low_wm 48
min_dram_writes_per_switch 16
dram_mtps 2400
dram_dbus_return_time 13


Heartbeat CPU  0 instructions:    1000001 cycles:     467320 heartbeat IPC: 2.13986 cumulative IPC: 2.13986 (Simulation time: 0 hr 0 min 3 sec) 
Heartbeat CPU  0 instructions:    2000000 cycles:    1041689 heartbeat IPC: 1.74104 cumulative IPC: 1.91996 (Simulation time: 0 hr 0 min 7 sec) 

Warmup complete CPU  0 instructions:    2000002 cycles:    1041690 (Simulation time: 0 hr 0 min 7 sec) 

Heartbeat CPU  0 instructions:    3000001 cycles:    2055693 heartbeat IPC: 0.98619 cumulative IPC: 0.98619 (Simulation time: 0 hr 0 min 13 sec) 
Heartbeat CPU  0 instructions:    4000000 cycles:    3115459 heartbeat IPC: 0.94360 cumulative IPC: 0.96443 (Simulation time: 0 hr 0 min 18 sec) 
Heartbeat CPU  0 instructions:    5000002 cycles:    4168623 heartbeat IPC: 0.94952 cumulative IPC: 0.95941 (Simulation time: 0 hr 0 min 23 sec) 
Heartbeat CPU  0 instructions:    6000001 cycles:    5225339 heartbeat IPC: 0.94633 cumulative IPC: 0.95610 (Simulation time: 0 hr 0 min 26 sec) 
Heartbeat CPU  0 instructions:    7000000 cycles:    6277744 heartbeat IPC: 0.95020 cumulative IPC: 0.95492 (Simulation time: 0 hr 0 min 30 sec) 
Heartbeat CPU  0 instructions:    8000000 cycles:    7335580 heartbeat IPC: 0.94533 cumulative IPC: 0.95331 (Simulation time: 0 hr 0 min 35 sec) 
Heartbeat CPU  0 instructions:    9000003 cycles:    8406732 heartbeat IPC: 0.93358 cumulative IPC: 0.95044 (Simulation time: 0 hr 0 min 39 sec) 
Heartbeat CPU  0 instructions:   10000003 cycles:    9475636 heartbeat IPC: 0.93554 cumulative IPC: 0.94855 (Simulation time: 0 hr 0 min 43 sec) 
Heartbeat CPU  0 instructions:   11000000 cycles:   10532941 heartbeat IPC: 0.94580 cumulative IPC: 0.94824 (Simulation time: 0 hr 0 min 48 sec) 
Heartbeat CPU  0 instructions:   12000000 cycles:   11609237 heartbeat IPC: 0.92911 cumulative IPC: 0.94629 (Simulation time: 0 hr 0 min 52 sec) 
Heartbeat CPU  0 instructions:   13000002 cycles:   12680145 heartbeat IPC: 0.93379 cumulative IPC: 0.94514 (Simulation time: 0 hr 0 min 57 sec) 
Heartbeat CPU  0 instructions:   14000002 cycles:   13732581 heartbeat IPC: 0.95018 cumulative IPC: 0.94556 (Simulation time: 0 hr 1 min 2 sec) 
Heartbeat CPU  0 instructions:   15000001 cycles:   14792661 heartbeat IPC: 0.94332 cumulative IPC: 0.94539 (Simulation time: 0 hr 1 min 6 sec) 
Heartbeat CPU  0 instructions:   16000000 cycles:   15856527 heartbeat IPC: 0.93997 cumulative IPC: 0.94500 (Simulation time: 0 hr 1 min 10 sec) 
Heartbeat CPU  0 instructions:   17000001 cycles:   16927099 heartbeat IPC: 0.93408 cumulative IPC: 0.94426 (Simulation time: 0 hr 1 min 15 sec) 
Heartbeat CPU  0 instructions:   18000003 cycles:   18012793 heartbeat IPC: 0.92107 cumulative IPC: 0.94278 (Simulation time: 0 hr 1 min 19 sec) 
Heartbeat CPU  0 instructions:   19000003 cycles:   19082646 heartbeat IPC: 0.93471 cumulative IPC: 0.94230 (Simulation time: 0 hr 1 min 24 sec) 
Heartbeat CPU  0 instructions:   20000000 cycles:   20161405 heartbeat IPC: 0.92699 cumulative IPC: 0.94144 (Simulation time: 0 hr 1 min 29 sec) 
Heartbeat CPU  0 instructions:   21000001 cycles:   21221068 heartbeat IPC: 0.94370 cumulative IPC: 0.94156 (Simulation time: 0 hr 1 min 33 sec) 
Heartbeat CPU  0 instructions:   22000001 cycles:   22304085 heartbeat IPC: 0.92335 cumulative IPC: 0.94063 (Simulation time: 0 hr 1 min 38 sec) 
Heartbeat CPU  0 instructions:   23000002 cycles:   23369344 heartbeat IPC: 0.93874 cumulative IPC: 0.94054 (Simulation time: 0 hr 1 min 41 sec) 
Heartbeat CPU  0 instructions:   24000000 cycles:   24441511 heartbeat IPC: 0.93269 cumulative IPC: 0.94018 (Simulation time: 0 hr 1 min 44 sec) 
Heartbeat CPU  0 instructions:   25000000 cycles:   25482495 heartbeat IPC: 0.96063 cumulative IPC: 0.94105 (Simulation time: 0 hr 1 min 48 sec) 
Heartbeat CPU  0 instructions:   26000003 cycles:   26609365 heartbeat IPC: 0.88742 cumulative IPC: 0.93869 (Simulation time: 0 hr 1 min 53 sec) 
Heartbeat CPU  0 instructions:   27000003 cycles:   27667552 heartbeat IPC: 0.94501 cumulative IPC: 0.93894 (Simulation time: 0 hr 1 min 58 sec) 
Heartbeat CPU  0 instructions:   28000000 cycles:   28735890 heartbeat IPC: 0.93603 cumulative IPC: 0.93882 (Simulation time: 0 hr 2 min 2 sec) 
Heartbeat CPU  0 instructions:   29000000 cycles:   29802700 heartbeat IPC: 0.93737 cumulative IPC: 0.93877 (Simulation time: 0 hr 2 min 7 sec) 
Heartbeat CPU  0 instructions:   30000001 cycles:   30879824 heartbeat IPC: 0.92840 cumulative IPC: 0.93840 (Simulation time: 0 hr 2 min 11 sec) 
Heartbeat CPU  0 instructions:   31000001 cycles:   31933860 heartbeat IPC: 0.94873 cumulative IPC: 0.93875 (Simulation time: 0 hr 2 min 16 sec) 
Heartbeat CPU  0 instructions:   32000000 cycles:   32990906 heartbeat IPC: 0.94603 cumulative IPC: 0.93899 (Simulation time: 0 hr 2 min 20 sec) 
Heartbeat CPU  0 instructions:   33000001 cycles:   34065190 heartbeat IPC: 0.93085 cumulative IPC: 0.93873 (Simulation time: 0 hr 2 min 25 sec) 
Heartbeat CPU  0 instructions:   34000000 cycles:   35132401 heartbeat IPC: 0.93702 cumulative IPC: 0.93867 (Simulation time: 0 hr 2 min 30 sec) 
Heartbeat CPU  0 instructions:   35000003 cycles:   36206895 heartbeat IPC: 0.93067 cumulative IPC: 0.93843 (Simulation time: 0 hr 2 min 35 sec) 
Heartbeat CPU  0 instructions:   36000000 cycles:   37271884 heartbeat IPC: 0.93897 cumulative IPC: 0.93844 (Simulation time: 0 hr 2 min 40 sec) 
Heartbeat CPU  0 instructions:   37000000 cycles:   38329945 heartbeat IPC: 0.94513 cumulative IPC: 0.93863 (Simulation time: 0 hr 2 min 45 sec) 
Heartbeat CPU  0 instructions:   38000003 cycles:   39415763 heartbeat IPC: 0.92097 cumulative IPC: 0.93813 (Simulation time: 0 hr 2 min 50 sec) 
Heartbeat CPU  0 instructions:   39000003 cycles:   40482373 heartbeat IPC: 0.93755 cumulative IPC: 0.93812 (Simulation time: 0 hr 2 min 54 sec) 
Heartbeat CPU  0 instructions:   40000000 cycles:   41544956 heartbeat IPC: 0.94110 cumulative IPC: 0.93820 (Simulation time: 0 hr 3 min 0 sec) 
Heartbeat CPU  0 instructions:   41000002 cycles:   42646785 heartbeat IPC: 0.90758 cumulative IPC: 0.93739 (Simulation time: 0 hr 3 min 5 sec) 
Heartbeat CPU  0 instructions:   42000001 cycles:   43712715 heartbeat IPC: 0.93815 cumulative IPC: 0.93740 (Simulation time: 0 hr 3 min 10 sec) 
Heartbeat CPU  0 instructions:   43000001 cycles:   44793058 heartbeat IPC: 0.92563 cumulative IPC: 0.93711 (Simulation time: 0 hr 3 min 15 sec) 
Heartbeat CPU  0 instructions:   44000000 cycles:   45873090 heartbeat IPC: 0.92590 cumulative IPC: 0.93684 (Simulation time: 0 hr 3 min 20 sec) 
Heartbeat CPU  0 instructions:   45000002 cycles:   46942037 heartbeat IPC: 0.93550 cumulative IPC: 0.93681 (Simulation time: 0 hr 3 min 25 sec) 
Heartbeat CPU  0 instructions:   46000001 cycles:   48026855 heartbeat IPC: 0.92181 cumulative IPC: 0.93647 (Simulation time: 0 hr 3 min 31 sec) 
Heartbeat CPU  0 instructions:   47000001 cycles:   49113505 heartbeat IPC: 0.92026 cumulative IPC: 0.93610 (Simulation time: 0 hr 3 min 36 sec) 
Heartbeat CPU  0 instructions:   48000000 cycles:   50194142 heartbeat IPC: 0.92538 cumulative IPC: 0.93586 (Simulation time: 0 hr 3 min 40 sec) 
Heartbeat CPU  0 instructions:   49000000 cycles:   51286255 heartbeat IPC: 0.91566 cumulative IPC: 0.93542 (Simulation time: 0 hr 3 min 46 sec) 
Heartbeat CPU  0 instructions:   50000000 cycles:   52281077 heartbeat IPC: 1.00520 cumulative IPC: 0.93678 (Simulation time: 0 hr 3 min 53 sec) 
Heartbeat CPU  0 instructions:   51000000 cycles:   53213132 heartbeat IPC: 1.07290 cumulative IPC: 0.93921 (Simulation time: 0 hr 3 min 58 sec) 
Heartbeat CPU  0 instructions:   52000000 cycles:   54143760 heartbeat IPC: 1.07454 cumulative IPC: 0.94158 (Simulation time: 0 hr 4 min 4 sec) 
Heartbeat CPU  0 instructions:   53000002 cycles:   55069372 heartbeat IPC: 1.08037 cumulative IPC: 0.94396 (Simulation time: 0 hr 4 min 10 sec) 
Heartbeat CPU  0 instructions:   54000003 cycles:   55999961 heartbeat IPC: 1.07459 cumulative IPC: 0.94617 (Simulation time: 0 hr 4 min 18 sec) 
Heartbeat CPU  0 instructions:   55000001 cycles:   56933043 heartbeat IPC: 1.07171 cumulative IPC: 0.94827 (Simulation time: 0 hr 4 min 24 sec) 
Heartbeat CPU  0 instructions:   56000000 cycles:   57866583 heartbeat IPC: 1.07119 cumulative IPC: 0.95029 (Simulation time: 0 hr 4 min 30 sec) 
Heartbeat CPU  0 instructions:   57000000 cycles:   58798474 heartbeat IPC: 1.07309 cumulative IPC: 0.95227 (Simulation time: 0 hr 4 min 37 sec) 
Heartbeat CPU  0 instructions:   58000001 cycles:   59736354 heartbeat IPC: 1.06624 cumulative IPC: 0.95409 (Simulation time: 0 hr 4 min 44 sec) 
Heartbeat CPU  0 instructions:   59000001 cycles:   60666178 heartbeat IPC: 1.07547 cumulative IPC: 0.95598 (Simulation time: 0 hr 4 min 51 sec) 
Heartbeat CPU  0 instructions:   60000000 cycles:   61586460 heartbeat IPC: 1.08662 cumulative IPC: 0.95797 (Simulation time: 0 hr 4 min 57 sec) 
Heartbeat CPU  0 instructions:   61000001 cycles:   62508959 heartbeat IPC: 1.08401 cumulative IPC: 0.95986 (Simulation time: 0 hr 5 min 3 sec) 
Heartbeat CPU  0 instructions:   62000001 cycles:   63433989 heartbeat IPC: 1.08105 cumulative IPC: 0.96166 (Simulation time: 0 hr 5 min 10 sec) 
Heartbeat CPU  0 instructions:   63000001 cycles:   64360172 heartbeat IPC: 1.07970 cumulative IPC: 0.96338 (Simulation time: 0 hr 5 min 14 sec) 
Heartbeat CPU  0 instructions:   64000000 cycles:   65272707 heartbeat IPC: 1.09585 cumulative IPC: 0.96527 (Simulation time: 0 hr 5 min 20 sec) 
Heartbeat CPU  0 instructions:   65000003 cycles:   66184949 heartbeat IPC: 1.09620 cumulative IPC: 0.96710 (Simulation time: 0 hr 5 min 25 sec) 
Heartbeat CPU  0 instructions:   66000000 cycles:   67336249 heartbeat IPC: 0.86858 cumulative IPC: 0.96539 (Simulation time: 0 hr 5 min 31 sec) 
Heartbeat CPU  0 instructions:   67000001 cycles:   68401741 heartbeat IPC: 0.93853 cumulative IPC: 0.96496 (Simulation time: 0 hr 5 min 37 sec) 
Heartbeat CPU  0 instructions:   68000000 cycles:   69443144 heartbeat IPC: 0.96024 cumulative IPC: 0.96489 (Simulation time: 0 hr 5 min 43 sec) 
Heartbeat CPU  0 instructions:   69000001 cycles:   70498814 heartbeat IPC: 0.94727 cumulative IPC: 0.96462 (Simulation time: 0 hr 5 min 48 sec) 
Heartbeat CPU  0 instructions:   70000001 cycles:   71558888 heartbeat IPC: 0.94333 cumulative IPC: 0.96430 (Simulation time: 0 hr 5 min 54 sec) 
Heartbeat CPU  0 instructions:   71000003 cycles:   72589552 heartbeat IPC: 0.97025 cumulative IPC: 0.96439 (Simulation time: 0 hr 5 min 58 sec) 
Heartbeat CPU  0 instructions:   72000000 cycles:   73627922 heartbeat IPC: 0.96304 cumulative IPC: 0.96437 (Simulation time: 0 hr 6 min 2 sec) 
Heartbeat CPU  0 instructions:   73000001 cycles:   74688345 heartbeat IPC: 0.94302 cumulative IPC: 0.96406 (Simulation time: 0 hr 6 min 7 sec) 
Heartbeat CPU  0 instructions:   74000001 cycles:   75749823 heartbeat IPC: 0.94208 cumulative IPC: 0.96375 (Simulation time: 0 hr 6 min 13 sec) 
Heartbeat CPU  0 instructions:   75000001 cycles:   76815928 heartbeat IPC: 0.93799 cumulative IPC: 0.96339 (Simulation time: 0 hr 6 min 18 sec) 
Heartbeat CPU  0 instructions:   76000000 cycles:   77873697 heartbeat IPC: 0.94539 cumulative IPC: 0.96314 (Simulation time: 0 hr 6 min 23 sec) 
Heartbeat CPU  0 instructions:   77000000 cycles:   78923427 heartbeat IPC: 0.95263 cumulative IPC: 0.96300 (Simulation time: 0 hr 6 min 29 sec) 
Heartbeat CPU  0 instructions:   78000002 cycles:   79971516 heartbeat IPC: 0.95412 cumulative IPC: 0.96288 (Simulation time: 0 hr 6 min 34 sec) 
Heartbeat CPU  0 instructions:   79000001 cycles:   81024223 heartbeat IPC: 0.94993 cumulative IPC: 0.96271 (Simulation time: 0 hr 6 min 40 sec) 
Heartbeat CPU  0 instructions:   80000000 cycles:   82065273 heartbeat IPC: 0.96057 cumulative IPC: 0.96268 (Simulation time: 0 hr 6 min 46 sec) 
Heartbeat CPU  0 instructions:   81000000 cycles:   83124291 heartbeat IPC: 0.94427 cumulative IPC: 0.96245 (Simulation time: 0 hr 6 min 52 sec) 
Heartbeat CPU  0 instructions:   82000000 cycles:   84197994 heartbeat IPC: 0.93136 cumulative IPC: 0.96204 (Simulation time: 0 hr 6 min 57 sec) 
Heartbeat CPU  0 instructions:   83000003 cycles:   85284415 heartbeat IPC: 0.92046 cumulative IPC: 0.96151 (Simulation time: 0 hr 7 min 2 sec) 
Heartbeat CPU  0 instructions:   84000000 cycles:   86363982 heartbeat IPC: 0.92629 cumulative IPC: 0.96106 (Simulation time: 0 hr 7 min 7 sec) 
Heartbeat CPU  0 instructions:   85000003 cycles:   87430327 heartbeat IPC: 0.93779 cumulative IPC: 0.96077 (Simulation time: 0 hr 7 min 13 sec) 
Heartbeat CPU  0 instructions:   86000001 cycles:   88493082 heartbeat IPC: 0.94095 cumulative IPC: 0.96053 (Simulation time: 0 hr 7 min 21 sec) 
Heartbeat CPU  0 instructions:   87000001 cycles:   89574481 heartbeat IPC: 0.92473 cumulative IPC: 0.96010 (Simulation time: 0 hr 7 min 28 sec) 
Heartbeat CPU  0 instructions:   88000000 cycles:   90643229 heartbeat IPC: 0.93567 cumulative IPC: 0.95980 (Simulation time: 0 hr 7 min 33 sec) 
Heartbeat CPU  0 instructions:   89000002 cycles:   91720639 heartbeat IPC: 0.92815 cumulative IPC: 0.95943 (Simulation time: 0 hr 7 min 38 sec) 
Heartbeat CPU  0 instructions:   90000002 cycles:   92751569 heartbeat IPC: 0.97000 cumulative IPC: 0.95955 (Simulation time: 0 hr 7 min 42 sec) 
Heartbeat CPU  0 instructions:   91000001 cycles:   93823827 heartbeat IPC: 0.93261 cumulative IPC: 0.95924 (Simulation time: 0 hr 7 min 47 sec) 
Heartbeat CPU  0 instructions:   92000000 cycles:   94897974 heartbeat IPC: 0.93097 cumulative IPC: 0.95891 (Simulation time: 0 hr 7 min 52 sec) 
Heartbeat CPU  0 instructions:   93000000 cycles:   95972988 heartbeat IPC: 0.93022 cumulative IPC: 0.95859 (Simulation time: 0 hr 7 min 57 sec) 
Heartbeat CPU  0 instructions:   94000001 cycles:   97024801 heartbeat IPC: 0.95074 cumulative IPC: 0.95850 (Simulation time: 0 hr 8 min 2 sec) 
Heartbeat CPU  0 instructions:   95000000 cycles:   98080407 heartbeat IPC: 0.94732 cumulative IPC: 0.95838 (Simulation time: 0 hr 8 min 8 sec) 
Heartbeat CPU  0 instructions:   96000000 cycles:   99140844 heartbeat IPC: 0.94301 cumulative IPC: 0.95821 (Simulation time: 0 hr 8 min 14 sec) 
Heartbeat CPU  0 instructions:   97000002 cycles:  100192318 heartbeat IPC: 0.95105 cumulative IPC: 0.95814 (Simulation time: 0 hr 8 min 19 sec) 
Heartbeat CPU  0 instructions:   98000000 cycles:  101258961 heartbeat IPC: 0.93752 cumulative IPC: 0.95792 (Simulation time: 0 hr 8 min 24 sec) 
Heartbeat CPU  0 instructions:   99000000 cycles:  102322946 heartbeat IPC: 0.93986 cumulative IPC: 0.95773 (Simulation time: 0 hr 8 min 29 sec) 
Heartbeat CPU  0 instructions:  100000000 cycles:  103400686 heartbeat IPC: 0.92787 cumulative IPC: 0.95741 (Simulation time: 0 hr 8 min 35 sec) 
Heartbeat CPU  0 instructions:  101000001 cycles:  104467046 heartbeat IPC: 0.93777 cumulative IPC: 0.95721 (Simulation time: 0 hr 8 min 41 sec) 
Heartbeat CPU  0 instructions:  102000003 cycles:  105530823 heartbeat IPC: 0.94005 cumulative IPC: 0.95704 (Simulation time: 0 hr 8 min 46 sec) 
Heartbeat CPU  0 instructions:  103000001 cycles:  106600272 heartbeat IPC: 0.93506 cumulative IPC: 0.95681 (Simulation time: 0 hr 8 min 51 sec) 
Heartbeat CPU  0 instructions:  104000000 cycles:  107652298 heartbeat IPC: 0.95055 cumulative IPC: 0.95675 (Simulation time: 0 hr 8 min 56 sec) 
Heartbeat CPU  0 instructions:  105000001 cycles:  108725900 heartbeat IPC: 0.93144 cumulative IPC: 0.95650 (Simulation time: 0 hr 9 min 1 sec) 
Heartbeat CPU  0 instructions:  106000003 cycles:  109791332 heartbeat IPC: 0.93859 cumulative IPC: 0.95632 (Simulation time: 0 hr 9 min 6 sec) 
Heartbeat CPU  0 instructions:  107000001 cycles:  110871713 heartbeat IPC: 0.92560 cumulative IPC: 0.95602 (Simulation time: 0 hr 9 min 11 sec) 
Heartbeat CPU  0 instructions:  108000000 cycles:  111946417 heartbeat IPC: 0.93049 cumulative IPC: 0.95578 (Simulation time: 0 hr 9 min 17 sec) 
Heartbeat CPU  0 instructions:  109000000 cycles:  113035914 heartbeat IPC: 0.91785 cumulative IPC: 0.95541 (Simulation time: 0 hr 9 min 23 sec) 
Heartbeat CPU  0 instructions:  110000002 cycles:  114115723 heartbeat IPC: 0.92609 cumulative IPC: 0.95513 (Simulation time: 0 hr 9 min 29 sec) 
Heartbeat CPU  0 instructions:  111000002 cycles:  115201102 heartbeat IPC: 0.92134 cumulative IPC: 0.95481 (Simulation time: 0 hr 9 min 34 sec) 
Heartbeat CPU  0 instructions:  112000000 cycles:  116257707 heartbeat IPC: 0.94643 cumulative IPC: 0.95473 (Simulation time: 0 hr 9 min 40 sec) 
Heartbeat CPU  0 instructions:  113000000 cycles:  117327973 heartbeat IPC: 0.93435 cumulative IPC: 0.95454 (Simulation time: 0 hr 9 min 45 sec) 
Heartbeat CPU  0 instructions:  114000000 cycles:  118363970 heartbeat IPC: 0.96525 cumulative IPC: 0.95464 (Simulation time: 0 hr 9 min 48 sec) 
Heartbeat CPU  0 instructions:  115000002 cycles:  119281284 heartbeat IPC: 1.09014 cumulative IPC: 0.95569 (Simulation time: 0 hr 9 min 53 sec) 
Heartbeat CPU  0 instructions:  116000000 cycles:  120203613 heartbeat IPC: 1.08421 cumulative IPC: 0.95668 (Simulation time: 0 hr 9 min 58 sec) 
Heartbeat CPU  0 instructions:  117000000 cycles:  121118653 heartbeat IPC: 1.09285 cumulative IPC: 0.95772 (Simulation time: 0 hr 10 min 4 sec) 
Heartbeat CPU  0 instructions:  118000003 cycles:  122036530 heartbeat IPC: 1.08947 cumulative IPC: 0.95872 (Simulation time: 0 hr 10 min 10 sec) 
Heartbeat CPU  0 instructions:  119000001 cycles:  122958453 heartbeat IPC: 1.08469 cumulative IPC: 0.95967 (Simulation time: 0 hr 10 min 17 sec) 
Heartbeat CPU  0 instructions:  120000000 cycles:  123870827 heartbeat IPC: 1.09604 cumulative IPC: 0.96068 (Simulation time: 0 hr 10 min 24 sec) 
Heartbeat CPU  0 instructions:  121000001 cycles:  124786502 heartbeat IPC: 1.09209 cumulative IPC: 0.96166 (Simulation time: 0 hr 10 min 29 sec) 
Heartbeat CPU  0 instructions:  122000000 cycles:  125692016 heartbeat IPC: 1.10434 cumulative IPC: 0.96269 (Simulation time: 0 hr 10 min 34 sec) 
Heartbeat CPU  0 instructions:  123000003 cycles:  126593915 heartbeat IPC: 1.10877 cumulative IPC: 0.96374 (Simulation time: 0 hr 10 min 37 sec) 
Heartbeat CPU  0 instructions:  124000000 cycles:  127497042 heartbeat IPC: 1.10726 cumulative IPC: 0.96477 (Simulation time: 0 hr 10 min 41 sec) 
Heartbeat CPU  0 instructions:  125000003 cycles:  128401251 heartbeat IPC: 1.10594 cumulative IPC: 0.96577 (Simulation time: 0 hr 10 min 45 sec) 
Heartbeat CPU  0 instructions:  126000003 cycles:  129312131 heartbeat IPC: 1.09784 cumulative IPC: 0.96671 (Simulation time: 0 hr 10 min 49 sec) 
Heartbeat CPU  0 instructions:  127000002 cycles:  130220539 heartbeat IPC: 1.10083 cumulative IPC: 0.96765 (Simulation time: 0 hr 10 min 53 sec) 
Heartbeat CPU  0 instructions:  128000000 cycles:  131130383 heartbeat IPC: 1.09909 cumulative IPC: 0.96857 (Simulation time: 0 hr 10 min 56 sec) 
Heartbeat CPU  0 instructions:  129000000 cycles:  132032906 heartbeat IPC: 1.10801 cumulative IPC: 0.96953 (Simulation time: 0 hr 11 min 0 sec) 
Heartbeat CPU  0 instructions:  130000000 cycles:  132589843 heartbeat IPC: 1.79554 cumulative IPC: 0.97303 (Simulation time: 0 hr 11 min 1 sec) 
Heartbeat CPU  0 instructions:  131000000 cycles:  132959277 heartbeat IPC: 2.70684 cumulative IPC: 0.97788 (Simulation time: 0 hr 11 min 2 sec) 
Heartbeat CPU  0 instructions:  132000000 cycles:  134273004 heartbeat IPC: 0.76119 cumulative IPC: 0.97575 (Simulation time: 0 hr 11 min 5 sec) 
Heartbeat CPU  0 instructions:  133000001 cycles:  141104203 heartbeat IPC: 0.14639 cumulative IPC: 0.93530 (Simulation time: 0 hr 11 min 20 sec) 
Heartbeat CPU  0 instructions:  134000000 cycles:  148371117 heartbeat IPC: 0.13761 cumulative IPC: 0.89595 (Simulation time: 0 hr 11 min 41 sec) 
Heartbeat CPU  0 instructions:  135000003 cycles:  155716079 heartbeat IPC: 0.13615 cumulative IPC: 0.85987 (Simulation time: 0 hr 12 min 3 sec) 
Heartbeat CPU  0 instructions:  136000000 cycles:  163025883 heartbeat IPC: 0.13680 cumulative IPC: 0.82724 (Simulation time: 0 hr 12 min 26 sec) 
Heartbeat CPU  0 instructions:  137000000 cycles:  167222938 heartbeat IPC: 0.23826 cumulative IPC: 0.81237 (Simulation time: 0 hr 12 min 41 sec) 
Heartbeat CPU  0 instructions:  138000002 cycles:  169377262 heartbeat IPC: 0.46418 cumulative IPC: 0.80791 (Simulation time: 0 hr 12 min 47 sec) 
Heartbeat CPU  0 instructions:  139000000 cycles:  171864539 heartbeat IPC: 0.40205 cumulative IPC: 0.80200 (Simulation time: 0 hr 12 min 53 sec) 
Heartbeat CPU  0 instructions:  140000000 cycles:  174369784 heartbeat IPC: 0.39916 cumulative IPC: 0.79618 (Simulation time: 0 hr 13 min 0 sec) 
Heartbeat CPU  0 instructions:  141000002 cycles:  176741601 heartbeat IPC: 0.42162 cumulative IPC: 0.79112 (Simulation time: 0 hr 13 min 6 sec) 
Heartbeat CPU  0 instructions:  142000001 cycles:  179091789 heartbeat IPC: 0.42550 cumulative IPC: 0.78630 (Simulation time: 0 hr 13 min 12 sec) 
Heartbeat CPU  0 instructions:  143000000 cycles:  181447706 heartbeat IPC: 0.42446 cumulative IPC: 0.78157 (Simulation time: 0 hr 13 min 18 sec) 
Heartbeat CPU  0 instructions:  144000000 cycles:  183895914 heartbeat IPC: 0.40846 cumulative IPC: 0.77657 (Simulation time: 0 hr 13 min 24 sec) 
Heartbeat CPU  0 instructions:  145000000 cycles:  186280030 heartbeat IPC: 0.41944 cumulative IPC: 0.77198 (Simulation time: 0 hr 13 min 32 sec) 
Heartbeat CPU  0 instructions:  146000003 cycles:  188682465 heartbeat IPC: 0.41625 cumulative IPC: 0.76742 (Simulation time: 0 hr 13 min 40 sec) 
Heartbeat CPU  0 instructions:  147000002 cycles:  191033199 heartbeat IPC: 0.42540 cumulative IPC: 0.76319 (Simulation time: 0 hr 13 min 48 sec) 
Heartbeat CPU  0 instructions:  148000000 cycles:  193402100 heartbeat IPC: 0.42214 cumulative IPC: 0.75899 (Simulation time: 0 hr 13 min 54 sec) 
Heartbeat CPU  0 instructions:  149000003 cycles:  195742292 heartbeat IPC: 0.42732 cumulative IPC: 0.75501 (Simulation time: 0 hr 14 min 1 sec) 
Heartbeat CPU  0 instructions:  150000001 cycles:  198070808 heartbeat IPC: 0.42946 cumulative IPC: 0.75116 (Simulation time: 0 hr 14 min 8 sec) 
Heartbeat CPU  0 instructions:  151000000 cycles:  200577049 heartbeat IPC: 0.39900 cumulative IPC: 0.74673 (Simulation time: 0 hr 14 min 15 sec) 
Heartbeat CPU  0 instructions:  152000000 cycles:  203106657 heartbeat IPC: 0.39532 cumulative IPC: 0.74234 (Simulation time: 0 hr 14 min 23 sec) 
Heartbeat CPU  0 instructions:  153000002 cycles:  205562623 heartbeat IPC: 0.40717 cumulative IPC: 0.73831 (Simulation time: 0 hr 14 min 29 sec) 
Heartbeat CPU  0 instructions:  154000003 cycles:  207973182 heartbeat IPC: 0.41484 cumulative IPC: 0.73454 (Simulation time: 0 hr 14 min 35 sec) 
Heartbeat CPU  0 instructions:  155000000 cycles:  210326690 heartbeat IPC: 0.42490 cumulative IPC: 0.73106 (Simulation time: 0 hr 14 min 41 sec) 
Heartbeat CPU  0 instructions:  156000000 cycles:  212685765 heartbeat IPC: 0.42389 cumulative IPC: 0.72764 (Simulation time: 0 hr 14 min 48 sec) 
Heartbeat CPU  0 instructions:  157000000 cycles:  215046396 heartbeat IPC: 0.42362 cumulative IPC: 0.72428 (Simulation time: 0 hr 14 min 55 sec) 
Heartbeat CPU  0 instructions:  158000001 cycles:  217380754 heartbeat IPC: 0.42838 cumulative IPC: 0.72109 (Simulation time: 0 hr 15 min 1 sec) 
Heartbeat CPU  0 instructions:  159000002 cycles:  219762105 heartbeat IPC: 0.41993 cumulative IPC: 0.71781 (Simulation time: 0 hr 15 min 8 sec) 
Heartbeat CPU  0 instructions:  160000000 cycles:  222196194 heartbeat IPC: 0.41083 cumulative IPC: 0.71443 (Simulation time: 0 hr 15 min 14 sec) 
Heartbeat CPU  0 instructions:  161000001 cycles:  224571838 heartbeat IPC: 0.42094 cumulative IPC: 0.71131 (Simulation time: 0 hr 15 min 21 sec) 
Heartbeat CPU  0 instructions:  162000000 cycles:  226938865 heartbeat IPC: 0.42247 cumulative IPC: 0.70829 (Simulation time: 0 hr 15 min 26 sec) 
Heartbeat CPU  0 instructions:  163000001 cycles:  229342826 heartbeat IPC: 0.41598 cumulative IPC: 0.70521 (Simulation time: 0 hr 15 min 33 sec) 
Heartbeat CPU  0 instructions:  164000000 cycles:  231710219 heartbeat IPC: 0.42241 cumulative IPC: 0.70231 (Simulation time: 0 hr 15 min 40 sec) 
Heartbeat CPU  0 instructions:  165000000 cycles:  234086282 heartbeat IPC: 0.42086 cumulative IPC: 0.69944 (Simulation time: 0 hr 15 min 46 sec) 
Heartbeat CPU  0 instructions:  166000002 cycles:  236538938 heartbeat IPC: 0.40772 cumulative IPC: 0.69640 (Simulation time: 0 hr 15 min 53 sec) 
Heartbeat CPU  0 instructions:  167000000 cycles:  238959911 heartbeat IPC: 0.41306 cumulative IPC: 0.69352 (Simulation time: 0 hr 15 min 59 sec) 
Heartbeat CPU  0 instructions:  168000000 cycles:  241317790 heartbeat IPC: 0.42411 cumulative IPC: 0.69087 (Simulation time: 0 hr 16 min 6 sec) 
Heartbeat CPU  0 instructions:  169000000 cycles:  243734129 heartbeat IPC: 0.41385 cumulative IPC: 0.68811 (Simulation time: 0 hr 16 min 12 sec) 
Heartbeat CPU  0 instructions:  170000000 cycles:  246128576 heartbeat IPC: 0.41763 cumulative IPC: 0.68547 (Simulation time: 0 hr 16 min 19 sec) 
Heartbeat CPU  0 instructions:  171000000 cycles:  248540319 heartbeat IPC: 0.41464 cumulative IPC: 0.68283 (Simulation time: 0 hr 16 min 26 sec) 
Heartbeat CPU  0 instructions:  172000000 cycles:  250945971 heartbeat IPC: 0.41569 cumulative IPC: 0.68026 (Simulation time: 0 hr 16 min 32 sec) 
Heartbeat CPU  0 instructions:  173000001 cycles:  253331256 heartbeat IPC: 0.41924 cumulative IPC: 0.67779 (Simulation time: 0 hr 16 min 39 sec) 
Heartbeat CPU  0 instructions:  174000000 cycles:  255721598 heartbeat IPC: 0.41835 cumulative IPC: 0.67536 (Simulation time: 0 hr 16 min 45 sec) 
Heartbeat CPU  0 instructions:  175000003 cycles:  258119853 heartbeat IPC: 0.41697 cumulative IPC: 0.67295 (Simulation time: 0 hr 16 min 51 sec) 
Heartbeat CPU  0 instructions:  176000000 cycles:  260457642 heartbeat IPC: 0.42775 cumulative IPC: 0.67074 (Simulation time: 0 hr 16 min 57 sec) 
Heartbeat CPU  0 instructions:  177000000 cycles:  262819657 heartbeat IPC: 0.42337 cumulative IPC: 0.66851 (Simulation time: 0 hr 17 min 2 sec) 
Heartbeat CPU  0 instructions:  178000000 cycles:  265261810 heartbeat IPC: 0.40947 cumulative IPC: 0.66611 (Simulation time: 0 hr 17 min 7 sec) 
Heartbeat CPU  0 instructions:  179000003 cycles:  267688026 heartbeat IPC: 0.41217 cumulative IPC: 0.66380 (Simulation time: 0 hr 17 min 13 sec) 
Heartbeat CPU  0 instructions:  180000000 cycles:  270114455 heartbeat IPC: 0.41213 cumulative IPC: 0.66153 (Simulation time: 0 hr 17 min 20 sec) 
Heartbeat CPU  0 instructions:  181000002 cycles:  272585655 heartbeat IPC: 0.40466 cumulative IPC: 0.65919 (Simulation time: 0 hr 17 min 26 sec) 
Heartbeat CPU  0 instructions:  182000001 cycles:  274960477 heartbeat IPC: 0.42108 cumulative IPC: 0.65713 (Simulation time: 0 hr 17 min 33 sec) 
Heartbeat CPU  0 instructions:  183000000 cycles:  277348347 heartbeat IPC: 0.41878 cumulative IPC: 0.65507 (Simulation time: 0 hr 17 min 40 sec) 
Heartbeat CPU  0 instructions:  184000000 cycles:  279702942 heartbeat IPC: 0.42470 cumulative IPC: 0.65312 (Simulation time: 0 hr 17 min 45 sec) 
Heartbeat CPU  0 instructions:  185000002 cycles:  282064566 heartbeat IPC: 0.42344 cumulative IPC: 0.65119 (Simulation time: 0 hr 17 min 51 sec) 
Heartbeat CPU  0 instructions:  186000000 cycles:  284396811 heartbeat IPC: 0.42877 cumulative IPC: 0.64936 (Simulation time: 0 hr 17 min 58 sec) 
Heartbeat CPU  0 instructions:  187000000 cycles:  286762591 heartbeat IPC: 0.42269 cumulative IPC: 0.64749 (Simulation time: 0 hr 18 min 4 sec) 
Heartbeat CPU  0 instructions:  188000000 cycles:  289121062 heartbeat IPC: 0.42400 cumulative IPC: 0.64566 (Simulation time: 0 hr 18 min 10 sec) 
Heartbeat CPU  0 instructions:  189000000 cycles:  291544157 heartbeat IPC: 0.41270 cumulative IPC: 0.64371 (Simulation time: 0 hr 18 min 17 sec) 
Heartbeat CPU  0 instructions:  190000001 cycles:  293876501 heartbeat IPC: 0.42875 cumulative IPC: 0.64200 (Simulation time: 0 hr 18 min 23 sec) 
Heartbeat CPU  0 instructions:  191000002 cycles:  296257534 heartbeat IPC: 0.41999 cumulative IPC: 0.64021 (Simulation time: 0 hr 18 min 30 sec) 
Heartbeat CPU  0 instructions:  192000000 cycles:  298610702 heartbeat IPC: 0.42496 cumulative IPC: 0.63851 (Simulation time: 0 hr 18 min 35 sec) 
Heartbeat CPU  0 instructions:  193000000 cycles:  300955475 heartbeat IPC: 0.42648 cumulative IPC: 0.63685 (Simulation time: 0 hr 18 min 41 sec) 
Heartbeat CPU  0 instructions:  194000002 cycles:  303305256 heartbeat IPC: 0.42557 cumulative IPC: 0.63521 (Simulation time: 0 hr 18 min 47 sec) 
Heartbeat CPU  0 instructions:  195000003 cycles:  305801169 heartbeat IPC: 0.40066 cumulative IPC: 0.63329 (Simulation time: 0 hr 18 min 54 sec) 
Heartbeat CPU  0 instructions:  196000000 cycles:  308243761 heartbeat IPC: 0.40940 cumulative IPC: 0.63151 (Simulation time: 0 hr 19 min 0 sec) 
Heartbeat CPU  0 instructions:  197000000 cycles:  310605411 heartbeat IPC: 0.42343 cumulative IPC: 0.62992 (Simulation time: 0 hr 19 min 7 sec) 
Heartbeat CPU  0 instructions:  198000000 cycles:  312967201 heartbeat IPC: 0.42341 cumulative IPC: 0.62836 (Simulation time: 0 hr 19 min 13 sec) 
Heartbeat CPU  0 instructions:  199000002 cycles:  315312126 heartbeat IPC: 0.42645 cumulative IPC: 0.62685 (Simulation time: 0 hr 19 min 19 sec) 
Heartbeat CPU  0 instructions:  200000000 cycles:  317658607 heartbeat IPC: 0.42617 cumulative IPC: 0.62536 (Simulation time: 0 hr 19 min 24 sec) 
Heartbeat CPU  0 instructions:  201000003 cycles:  319348959 heartbeat IPC: 0.59159 cumulative IPC: 0.62518 (Simulation time: 0 hr 19 min 29 sec) 
Heartbeat CPU  0 instructions:  202000000 cycles:  319982258 heartbeat IPC: 1.57903 cumulative IPC: 0.62708 (Simulation time: 0 hr 19 min 31 sec) 
Heartbeat CPU  0 instructions:  203000000 cycles:  320562402 heartbeat IPC: 1.72371 cumulative IPC: 0.62907 (Simulation time: 0 hr 19 min 35 sec) 
Heartbeat CPU  0 instructions:  204000000 cycles:  321168755 heartbeat IPC: 1.64920 cumulative IPC: 0.63100 (Simulation time: 0 hr 19 min 40 sec) 
Heartbeat CPU  0 instructions:  205000001 cycles:  321747611 heartbeat IPC: 1.72755 cumulative IPC: 0.63298 (Simulation time: 0 hr 19 min 44 sec) 
Heartbeat CPU  0 instructions:  206000000 cycles:  322290175 heartbeat IPC: 1.84310 cumulative IPC: 0.63502 (Simulation time: 0 hr 19 min 49 sec) 
Heartbeat CPU  0 instructions:  207000003 cycles:  322848068 heartbeat IPC: 1.79246 cumulative IPC: 0.63703 (Simulation time: 0 hr 19 min 54 sec) 
Heartbeat CPU  0 instructions:  208000000 cycles:  323427143 heartbeat IPC: 1.72689 cumulative IPC: 0.63899 (Simulation time: 0 hr 19 min 59 sec) 
Heartbeat CPU  0 instructions:  209000003 cycles:  324001583 heartbeat IPC: 1.74083 cumulative IPC: 0.64095 (Simulation time: 0 hr 20 min 3 sec) 
Heartbeat CPU  0 instructions:  210000003 cycles:  324581006 heartbeat IPC: 1.72585 cumulative IPC: 0.64289 (Simulation time: 0 hr 20 min 10 sec) 
Heartbeat CPU  0 instructions:  211000000 cycles:  325145840 heartbeat IPC: 1.77043 cumulative IPC: 0.64485 (Simulation time: 0 hr 20 min 16 sec) 
Heartbeat CPU  0 instructions:  212000000 cycles:  325780124 heartbeat IPC: 1.57658 cumulative IPC: 0.64667 (Simulation time: 0 hr 20 min 23 sec) 
Heartbeat CPU  0 instructions:  213000002 cycles:  326545318 heartbeat IPC: 1.30686 cumulative IPC: 0.64823 (Simulation time: 0 hr 20 min 32 sec) 
Heartbeat CPU  0 instructions:  214000002 cycles:  327278415 heartbeat IPC: 1.36408 cumulative IPC: 0.64983 (Simulation time: 0 hr 20 min 41 sec) 
Heartbeat CPU  0 instructions:  215000003 cycles:  328013989 heartbeat IPC: 1.35948 cumulative IPC: 0.65143 (Simulation time: 0 hr 20 min 49 sec) 
Heartbeat CPU  0 instructions:  216000000 cycles:  328790293 heartbeat IPC: 1.28815 cumulative IPC: 0.65294 (Simulation time: 0 hr 20 min 56 sec) 
Heartbeat CPU  0 instructions:  217000003 cycles:  329527306 heartbeat IPC: 1.35683 cumulative IPC: 0.65452 (Simulation time: 0 hr 21 min 5 sec) 
Heartbeat CPU  0 instructions:  218000002 cycles:  330257278 heartbeat IPC: 1.36991 cumulative IPC: 0.65611 (Simulation time: 0 hr 21 min 12 sec) 
Heartbeat CPU  0 instructions:  219000000 cycles:  331012034 heartbeat IPC: 1.32493 cumulative IPC: 0.65763 (Simulation time: 0 hr 21 min 19 sec) 
Heartbeat CPU  0 instructions:  220000000 cycles:  331769373 heartbeat IPC: 1.32041 cumulative IPC: 0.65915 (Simulation time: 0 hr 21 min 27 sec) 
Heartbeat CPU  0 instructions:  221000003 cycles:  332502837 heartbeat IPC: 1.36340 cumulative IPC: 0.66071 (Simulation time: 0 hr 21 min 34 sec) 
Heartbeat CPU  0 instructions:  222000002 cycles:  333338744 heartbeat IPC: 1.19630 cumulative IPC: 0.66206 (Simulation time: 0 hr 21 min 40 sec) 
Heartbeat CPU  0 instructions:  223000000 cycles:  334188744 heartbeat IPC: 1.17647 cumulative IPC: 0.66337 (Simulation time: 0 hr 21 min 49 sec) 
Heartbeat CPU  0 instructions:  224000000 cycles:  335031877 heartbeat IPC: 1.18605 cumulative IPC: 0.66469 (Simulation time: 0 hr 21 min 58 sec) 
Heartbeat CPU  0 instructions:  225000002 cycles:  335796061 heartbeat IPC: 1.30859 cumulative IPC: 0.66616 (Simulation time: 0 hr 22 min 5 sec) 
Heartbeat CPU  0 instructions:  226000000 cycles:  336519393 heartbeat IPC: 1.38249 cumulative IPC: 0.66770 (Simulation time: 0 hr 22 min 12 sec) 
Heartbeat CPU  0 instructions:  227000000 cycles:  337249909 heartbeat IPC: 1.36890 cumulative IPC: 0.66923 (Simulation time: 0 hr 22 min 20 sec) 
Heartbeat CPU  0 instructions:  228000000 cycles:  338036206 heartbeat IPC: 1.27178 cumulative IPC: 0.67063 (Simulation time: 0 hr 22 min 26 sec) 
Heartbeat CPU  0 instructions:  229000001 cycles:  338758260 heartbeat IPC: 1.38494 cumulative IPC: 0.67216 (Simulation time: 0 hr 22 min 33 sec) 
Heartbeat CPU  0 instructions:  230000001 cycles:  339484619 heartbeat IPC: 1.37673 cumulative IPC: 0.67367 (Simulation time: 0 hr 22 min 40 sec) 
Heartbeat CPU  0 instructions:  231000000 cycles:  340232721 heartbeat IPC: 1.33671 cumulative IPC: 0.67514 (Simulation time: 0 hr 22 min 47 sec) 
Heartbeat CPU  0 instructions:  232000000 cycles:  340995610 heartbeat IPC: 1.31081 cumulative IPC: 0.67656 (Simulation time: 0 hr 22 min 55 sec) 
Heartbeat CPU  0 instructions:  233000003 cycles:  341723565 heartbeat IPC: 1.37372 cumulative IPC: 0.67805 (Simulation time: 0 hr 23 min 2 sec) 
Heartbeat CPU  0 instructions:  234000001 cycles:  342455490 heartbeat IPC: 1.36626 cumulative IPC: 0.67953 (Simulation time: 0 hr 23 min 9 sec) 
Heartbeat CPU  0 instructions:  235000001 cycles:  343237899 heartbeat IPC: 1.27810 cumulative IPC: 0.68090 (Simulation time: 0 hr 23 min 16 sec) 
Heartbeat CPU  0 instructions:  236000000 cycles:  343974905 heartbeat IPC: 1.35684 cumulative IPC: 0.68235 (Simulation time: 0 hr 23 min 23 sec) 
Heartbeat CPU  0 instructions:  237000000 cycles:  344695313 heartbeat IPC: 1.38810 cumulative IPC: 0.68383 (Simulation time: 0 hr 23 min 31 sec) 
Heartbeat CPU  0 instructions:  238000001 cycles:  345427204 heartbeat IPC: 1.36633 cumulative IPC: 0.68528 (Simulation time: 0 hr 23 min 38 sec) 
Heartbeat CPU  0 instructions:  239000002 cycles:  346240670 heartbeat IPC: 1.22931 cumulative IPC: 0.68656 (Simulation time: 0 hr 23 min 46 sec) 
Heartbeat CPU  0 instructions:  240000000 cycles:  347132315 heartbeat IPC: 1.12152 cumulative IPC: 0.68768 (Simulation time: 0 hr 23 min 53 sec) 
Heartbeat CPU  0 instructions:  241000003 cycles:  347871032 heartbeat IPC: 1.35370 cumulative IPC: 0.68910 (Simulation time: 0 hr 23 min 59 sec) 
Heartbeat CPU  0 instructions:  242000002 cycles:  348607842 heartbeat IPC: 1.35720 cumulative IPC: 0.69052 (Simulation time: 0 hr 24 min 7 sec) 
Heartbeat CPU  0 instructions:  243000003 cycles:  349348302 heartbeat IPC: 1.35051 cumulative IPC: 0.69192 (Simulation time: 0 hr 24 min 14 sec) 
Heartbeat CPU  0 instructions:  244000000 cycles:  350121219 heartbeat IPC: 1.29380 cumulative IPC: 0.69325 (Simulation time: 0 hr 24 min 21 sec) 
Heartbeat CPU  0 instructions:  245000000 cycles:  350841686 heartbeat IPC: 1.38799 cumulative IPC: 0.69468 (Simulation time: 0 hr 24 min 28 sec) 
Heartbeat CPU  0 instructions:  246000003 cycles:  351560742 heartbeat IPC: 1.39072 cumulative IPC: 0.69611 (Simulation time: 0 hr 24 min 36 sec) 
Heartbeat CPU  0 instructions:  247000001 cycles:  352330969 heartbeat IPC: 1.29832 cumulative IPC: 0.69743 (Simulation time: 0 hr 24 min 42 sec) 
Heartbeat CPU  0 instructions:  248000000 cycles:  353064531 heartbeat IPC: 1.36321 cumulative IPC: 0.69882 (Simulation time: 0 hr 24 min 50 sec) 
Heartbeat CPU  0 instructions:  249000001 cycles:  353779336 heartbeat IPC: 1.39898 cumulative IPC: 0.70024 (Simulation time: 0 hr 24 min 57 sec) 
Heartbeat CPU  0 instructions:  250000002 cycles:  354513092 heartbeat IPC: 1.36285 cumulative IPC: 0.70161 (Simulation time: 0 hr 25 min 4 sec) 
Heartbeat CPU  0 instructions:  251000000 cycles:  355269082 heartbeat IPC: 1.32277 cumulative IPC: 0.70294 (Simulation time: 0 hr 25 min 11 sec) 
Heartbeat CPU  0 instructions:  252000000 cycles:  355988913 heartbeat IPC: 1.38921 cumulative IPC: 0.70433 (Simulation time: 0 hr 25 min 18 sec) 
Heartbeat CPU  0 instructions:  253000001 cycles:  356708569 heartbeat IPC: 1.38955 cumulative IPC: 0.70572 (Simulation time: 0 hr 25 min 25 sec) 
Heartbeat CPU  0 instructions:  254000003 cycles:  357456145 heartbeat IPC: 1.33766 cumulative IPC: 0.70704 (Simulation time: 0 hr 25 min 32 sec) 
Heartbeat CPU  0 instructions:  255000001 cycles:  358245797 heartbeat IPC: 1.26638 cumulative IPC: 0.70828 (Simulation time: 0 hr 25 min 41 sec) 
Heartbeat CPU  0 instructions:  256000000 cycles:  359062275 heartbeat IPC: 1.22477 cumulative IPC: 0.70946 (Simulation time: 0 hr 25 min 50 sec) 
Heartbeat CPU  0 instructions:  257000002 cycles:  359853123 heartbeat IPC: 1.26447 cumulative IPC: 0.71068 (Simulation time: 0 hr 25 min 59 sec) 
Heartbeat CPU  0 instructions:  258000001 cycles:  360607551 heartbeat IPC: 1.32551 cumulative IPC: 0.71197 (Simulation time: 0 hr 26 min 7 sec) 
Heartbeat CPU  0 instructions:  259000002 cycles:  361426492 heartbeat IPC: 1.22109 cumulative IPC: 0.71313 (Simulation time: 0 hr 26 min 15 sec) 
Heartbeat CPU  0 instructions:  260000000 cycles:  362221372 heartbeat IPC: 1.25805 cumulative IPC: 0.71433 (Simulation time: 0 hr 26 min 24 sec) 
Heartbeat CPU  0 instructions:  261000003 cycles:  362977627 heartbeat IPC: 1.32231 cumulative IPC: 0.71560 (Simulation time: 0 hr 26 min 32 sec) 
Heartbeat CPU  0 instructions:  262000003 cycles:  363738929 heartbeat IPC: 1.31354 cumulative IPC: 0.71685 (Simulation time: 0 hr 26 min 40 sec) 
Heartbeat CPU  0 instructions:  263000003 cycles:  364559955 heartbeat IPC: 1.21799 cumulative IPC: 0.71798 (Simulation time: 0 hr 26 min 50 sec) 
Heartbeat CPU  0 instructions:  264000000 cycles:  365320611 heartbeat IPC: 1.31465 cumulative IPC: 0.71923 (Simulation time: 0 hr 26 min 57 sec) 
Heartbeat CPU  0 instructions:  265000001 cycles:  366066485 heartbeat IPC: 1.34071 cumulative IPC: 0.72050 (Simulation time: 0 hr 27 min 5 sec) 
Heartbeat CPU  0 instructions:  266000000 cycles:  366850539 heartbeat IPC: 1.27542 cumulative IPC: 0.72169 (Simulation time: 0 hr 27 min 14 sec) 
Heartbeat CPU  0 instructions:  267000000 cycles:  367651683 heartbeat IPC: 1.24822 cumulative IPC: 0.72284 (Simulation time: 0 hr 27 min 23 sec) 
Heartbeat CPU  0 instructions:  268000000 cycles:  368408167 heartbeat IPC: 1.32191 cumulative IPC: 0.72407 (Simulation time: 0 hr 27 min 32 sec) 
Heartbeat CPU  0 instructions:  269000001 cycles:  369164108 heartbeat IPC: 1.32286 cumulative IPC: 0.72530 (Simulation time: 0 hr 27 min 40 sec) 
Heartbeat CPU  0 instructions:  270000003 cycles:  369967598 heartbeat IPC: 1.24457 cumulative IPC: 0.72643 (Simulation time: 0 hr 27 min 48 sec) 
Heartbeat CPU  0 instructions:  271000000 cycles:  370742016 heartbeat IPC: 1.29129 cumulative IPC: 0.72762 (Simulation time: 0 hr 27 min 58 sec) 
Heartbeat CPU  0 instructions:  272000000 cycles:  371565061 heartbeat IPC: 1.21500 cumulative IPC: 0.72870 (Simulation time: 0 hr 28 min 8 sec) 
Heartbeat CPU  0 instructions:  273000002 cycles:  372376511 heartbeat IPC: 1.23236 cumulative IPC: 0.72980 (Simulation time: 0 hr 28 min 18 sec) 
Heartbeat CPU  0 instructions:  274000003 cycles:  373136020 heartbeat IPC: 1.31664 cumulative IPC: 0.73100 (Simulation time: 0 hr 28 min 26 sec) 
Heartbeat CPU  0 instructions:  275000002 cycles:  373884853 heartbeat IPC: 1.33541 cumulative IPC: 0.73221 (Simulation time: 0 hr 28 min 35 sec) 
Heartbeat CPU  0 instructions:  276000000 cycles:  374644393 heartbeat IPC: 1.31658 cumulative IPC: 0.73340 (Simulation time: 0 hr 28 min 45 sec) 
Heartbeat CPU  0 instructions:  277000000 cycles:  375379518 heartbeat IPC: 1.36031 cumulative IPC: 0.73463 (Simulation time: 0 hr 28 min 55 sec) 
Heartbeat CPU  0 instructions:  278000001 cycles:  376139030 heartbeat IPC: 1.31664 cumulative IPC: 0.73581 (Simulation time: 0 hr 29 min 4 sec) 
Heartbeat CPU  0 instructions:  279000001 cycles:  376880210 heartbeat IPC: 1.34920 cumulative IPC: 0.73702 (Simulation time: 0 hr 29 min 13 sec) 
Heartbeat CPU  0 instructions:  280000000 cycles:  377618809 heartbeat IPC: 1.35391 cumulative IPC: 0.73823 (Simulation time: 0 hr 29 min 21 sec) 
Heartbeat CPU  0 instructions:  281000001 cycles:  378362461 heartbeat IPC: 1.34472 cumulative IPC: 0.73942 (Simulation time: 0 hr 29 min 29 sec) 
Heartbeat CPU  0 instructions:  282000000 cycles:  379102651 heartbeat IPC: 1.35100 cumulative IPC: 0.74062 (Simulation time: 0 hr 29 min 37 sec) 
Heartbeat CPU  0 instructions:  283000001 cycles:  379859227 heartbeat IPC: 1.32175 cumulative IPC: 0.74178 (Simulation time: 0 hr 29 min 45 sec) 
Heartbeat CPU  0 instructions:  284000000 cycles:  380597915 heartbeat IPC: 1.35375 cumulative IPC: 0.74297 (Simulation time: 0 hr 29 min 54 sec) 
Heartbeat CPU  0 instructions:  285000000 cycles:  381352529 heartbeat IPC: 1.32518 cumulative IPC: 0.74413 (Simulation time: 0 hr 30 min 2 sec) 
Heartbeat CPU  0 instructions:  286000002 cycles:  382101706 heartbeat IPC: 1.33480 cumulative IPC: 0.74529 (Simulation time: 0 hr 30 min 9 sec) 
Heartbeat CPU  0 instructions:  287000002 cycles:  382845536 heartbeat IPC: 1.34439 cumulative IPC: 0.74646 (Simulation time: 0 hr 30 min 17 sec) 
Heartbeat CPU  0 instructions:  288000000 cycles:  383586820 heartbeat IPC: 1.34901 cumulative IPC: 0.74762 (Simulation time: 0 hr 30 min 26 sec) 
Heartbeat CPU  0 instructions:  289000000 cycles:  384419870 heartbeat IPC: 1.20041 cumulative IPC: 0.74861 (Simulation time: 0 hr 30 min 34 sec) 
Heartbeat CPU  0 instructions:  290000001 cycles:  385237281 heartbeat IPC: 1.22338 cumulative IPC: 0.74962 (Simulation time: 0 hr 30 min 42 sec) 
Heartbeat CPU  0 instructions:  291000000 cycles:  385989727 heartbeat IPC: 1.32900 cumulative IPC: 0.75075 (Simulation time: 0 hr 30 min 51 sec) 
Heartbeat CPU  0 instructions:  292000000 cycles:  386718127 heartbeat IPC: 1.37287 cumulative IPC: 0.75193 (Simulation time: 0 hr 30 min 58 sec) 
Heartbeat CPU  0 instructions:  293000002 cycles:  387450007 heartbeat IPC: 1.36635 cumulative IPC: 0.75309 (Simulation time: 0 hr 31 min 6 sec) 
Heartbeat CPU  0 instructions:  294000002 cycles:  388179904 heartbeat IPC: 1.37006 cumulative IPC: 0.75425 (Simulation time: 0 hr 31 min 14 sec) 
Heartbeat CPU  0 instructions:  295000001 cycles:  388928425 heartbeat IPC: 1.33597 cumulative IPC: 0.75538 (Simulation time: 0 hr 31 min 23 sec) 
Heartbeat CPU  0 instructions:  296000000 cycles:  389656054 heartbeat IPC: 1.37433 cumulative IPC: 0.75653 (Simulation time: 0 hr 31 min 33 sec) 
Heartbeat CPU  0 instructions:  297000000 cycles:  390396377 heartbeat IPC: 1.35076 cumulative IPC: 0.75766 (Simulation time: 0 hr 31 min 41 sec) 
Heartbeat CPU  0 instructions:  298000000 cycles:  391135563 heartbeat IPC: 1.35284 cumulative IPC: 0.75879 (Simulation time: 0 hr 31 min 48 sec) 
Heartbeat CPU  0 instructions:  299000003 cycles:  391867538 heartbeat IPC: 1.36617 cumulative IPC: 0.75993 (Simulation time: 0 hr 31 min 56 sec) 
Heartbeat CPU  0 instructions:  300000000 cycles:  392633088 heartbeat IPC: 1.30625 cumulative IPC: 0.76100 (Simulation time: 0 hr 32 min 4 sec) 
Heartbeat CPU  0 instructions:  301000000 cycles:  393395665 heartbeat IPC: 1.31134 cumulative IPC: 0.76207 (Simulation time: 0 hr 32 min 11 sec) 
Heartbeat CPU  0 instructions:  302000001 cycles:  394131282 heartbeat IPC: 1.35940 cumulative IPC: 0.76318 (Simulation time: 0 hr 32 min 18 sec) 
Heartbeat CPU  0 instructions:  303000002 cycles:  394869207 heartbeat IPC: 1.35515 cumulative IPC: 0.76429 (Simulation time: 0 hr 32 min 25 sec) 
Heartbeat CPU  0 instructions:  304000000 cycles:  395626134 heartbeat IPC: 1.32113 cumulative IPC: 0.76536 (Simulation time: 0 hr 32 min 33 sec) 
Heartbeat CPU  0 instructions:  305000002 cycles:  396433092 heartbeat IPC: 1.23922 cumulative IPC: 0.76633 (Simulation time: 0 hr 32 min 40 sec) 
Heartbeat CPU  0 instructions:  306000003 cycles:  397230019 heartbeat IPC: 1.25482 cumulative IPC: 0.76731 (Simulation time: 0 hr 32 min 48 sec) 
Heartbeat CPU  0 instructions:  307000003 cycles:  398011690 heartbeat IPC: 1.27931 cumulative IPC: 0.76832 (Simulation time: 0 hr 32 min 56 sec) 
Heartbeat CPU  0 instructions:  308000000 cycles:  398763754 heartbeat IPC: 1.32967 cumulative IPC: 0.76938 (Simulation time: 0 hr 33 min 5 sec) 
Heartbeat CPU  0 instructions:  309000002 cycles:  399512672 heartbeat IPC: 1.33526 cumulative IPC: 0.77045 (Simulation time: 0 hr 33 min 12 sec) 
Heartbeat CPU  0 instructions:  310000000 cycles:  400255395 heartbeat IPC: 1.34639 cumulative IPC: 0.77152 (Simulation time: 0 hr 33 min 20 sec) 
Heartbeat CPU  0 instructions:  311000003 cycles:  400990189 heartbeat IPC: 1.36093 cumulative IPC: 0.77260 (Simulation time: 0 hr 33 min 27 sec) 
Heartbeat CPU  0 instructions:  312000000 cycles:  401745453 heartbeat IPC: 1.32404 cumulative IPC: 0.77364 (Simulation time: 0 hr 33 min 36 sec) 
Heartbeat CPU  0 instructions:  313000001 cycles:  402502799 heartbeat IPC: 1.32040 cumulative IPC: 0.77467 (Simulation time: 0 hr 33 min 44 sec) 
Heartbeat CPU  0 instructions:  314000001 cycles:  403262771 heartbeat IPC: 1.31584 cumulative IPC: 0.77569 (Simulation time: 0 hr 33 min 54 sec) 
Heartbeat CPU  0 instructions:  315000000 cycles:  403983351 heartbeat IPC: 1.38777 cumulative IPC: 0.77679 (Simulation time: 0 hr 34 min 3 sec) 
Heartbeat CPU  0 instructions:  316000000 cycles:  404710263 heartbeat IPC: 1.37568 cumulative IPC: 0.77787 (Simulation time: 0 hr 34 min 12 sec) 
Heartbeat CPU  0 instructions:  317000001 cycles:  405471818 heartbeat IPC: 1.31310 cumulative IPC: 0.77887 (Simulation time: 0 hr 34 min 18 sec) 
Heartbeat CPU  0 instructions:  318000000 cycles:  406209593 heartbeat IPC: 1.35543 cumulative IPC: 0.77992 (Simulation time: 0 hr 34 min 25 sec) 
Heartbeat CPU  0 instructions:  319000000 cycles:  406918791 heartbeat IPC: 1.41004 cumulative IPC: 0.78102 (Simulation time: 0 hr 34 min 32 sec) 
Heartbeat CPU  0 instructions:  320000000 cycles:  407649829 heartbeat IPC: 1.36792 cumulative IPC: 0.78208 (Simulation time: 0 hr 34 min 39 sec) 
Heartbeat CPU  0 instructions:  321000002 cycles:  408429973 heartbeat IPC: 1.28182 cumulative IPC: 0.78304 (Simulation time: 0 hr 34 min 48 sec) 
Heartbeat CPU  0 instructions:  322000001 cycles:  409203707 heartbeat IPC: 1.29243 cumulative IPC: 0.78400 (Simulation time: 0 hr 34 min 56 sec) 
Heartbeat CPU  0 instructions:  323000000 cycles:  409990379 heartbeat IPC: 1.27118 cumulative IPC: 0.78494 (Simulation time: 0 hr 35 min 3 sec) 
Heartbeat CPU  0 instructions:  324000000 cycles:  410778023 heartbeat IPC: 1.26961 cumulative IPC: 0.78587 (Simulation time: 0 hr 35 min 10 sec) 
Heartbeat CPU  0 instructions:  325000000 cycles:  411567035 heartbeat IPC: 1.26741 cumulative IPC: 0.78680 (Simulation time: 0 hr 35 min 18 sec) 
Heartbeat CPU  0 instructions:  326000003 cycles:  412361442 heartbeat IPC: 1.25880 cumulative IPC: 0.78771 (Simulation time: 0 hr 35 min 27 sec) 
Heartbeat CPU  0 instructions:  327000003 cycles:  413110104 heartbeat IPC: 1.33572 cumulative IPC: 0.78870 (Simulation time: 0 hr 35 min 34 sec) 
Heartbeat CPU  0 instructions:  328000000 cycles:  413873659 heartbeat IPC: 1.30966 cumulative IPC: 0.78967 (Simulation time: 0 hr 35 min 42 sec) 
Heartbeat CPU  0 instructions:  329000001 cycles:  414665300 heartbeat IPC: 1.26320 cumulative IPC: 0.79057 (Simulation time: 0 hr 35 min 49 sec) 
Heartbeat CPU  0 instructions:  330000000 cycles:  415453650 heartbeat IPC: 1.26847 cumulative IPC: 0.79148 (Simulation time: 0 hr 35 min 57 sec) 
Heartbeat CPU  0 instructions:  331000001 cycles:  416197645 heartbeat IPC: 1.34410 cumulative IPC: 0.79247 (Simulation time: 0 hr 36 min 5 sec) 
Heartbeat CPU  0 instructions:  332000000 cycles:  416976037 heartbeat IPC: 1.28470 cumulative IPC: 0.79339 (Simulation time: 0 hr 36 min 13 sec) 
Heartbeat CPU  0 instructions:  333000001 cycles:  417779083 heartbeat IPC: 1.24526 cumulative IPC: 0.79427 (Simulation time: 0 hr 36 min 21 sec) 
Heartbeat CPU  0 instructions:  334000002 cycles:  418548768 heartbeat IPC: 1.29923 cumulative IPC: 0.79520 (Simulation time: 0 hr 36 min 30 sec) 
Heartbeat CPU  0 instructions:  335000001 cycles:  419306301 heartbeat IPC: 1.32007 cumulative IPC: 0.79615 (Simulation time: 0 hr 36 min 37 sec) 
Heartbeat CPU  0 instructions:  336000000 cycles:  420083327 heartbeat IPC: 1.28696 cumulative IPC: 0.79706 (Simulation time: 0 hr 36 min 45 sec) 
Heartbeat CPU  0 instructions:  337000001 cycles:  420861737 heartbeat IPC: 1.28467 cumulative IPC: 0.79796 (Simulation time: 0 hr 36 min 53 sec) 
Heartbeat CPU  0 instructions:  338000001 cycles:  421644887 heartbeat IPC: 1.27689 cumulative IPC: 0.79885 (Simulation time: 0 hr 37 min 1 sec) 
Heartbeat CPU  0 instructions:  339000000 cycles:  422317980 heartbeat IPC: 1.48568 cumulative IPC: 0.79995 (Simulation time: 0 hr 37 min 7 sec) 
Heartbeat CPU  0 instructions:  340000000 cycles:  422769883 heartbeat IPC: 2.21286 cumulative IPC: 0.80146 (Simulation time: 0 hr 37 min 10 sec) 
Heartbeat CPU  0 instructions:  341000000 cycles:  423173264 heartbeat IPC: 2.47905 cumulative IPC: 0.80307 (Simulation time: 0 hr 37 min 12 sec) 
Heartbeat CPU  0 instructions:  342000001 cycles:  423881853 heartbeat IPC: 1.41126 cumulative IPC: 0.80409 (Simulation time: 0 hr 37 min 16 sec) 
Heartbeat CPU  0 instructions:  343000001 cycles:  424770527 heartbeat IPC: 1.12527 cumulative IPC: 0.80476 (Simulation time: 0 hr 37 min 20 sec) 
Heartbeat CPU  0 instructions:  344000000 cycles:  425519402 heartbeat IPC: 1.33534 cumulative IPC: 0.80570 (Simulation time: 0 hr 37 min 24 sec) 
Heartbeat CPU  0 instructions:  345000002 cycles:  426291159 heartbeat IPC: 1.29575 cumulative IPC: 0.80659 (Simulation time: 0 hr 37 min 28 sec) 
Heartbeat CPU  0 instructions:  346000001 cycles:  427059414 heartbeat IPC: 1.30165 cumulative IPC: 0.80748 (Simulation time: 0 hr 37 min 33 sec) 
Heartbeat CPU  0 instructions:  347000000 cycles:  427835228 heartbeat IPC: 1.28897 cumulative IPC: 0.80835 (Simulation time: 0 hr 37 min 37 sec) 
Heartbeat CPU  0 instructions:  348000000 cycles:  428617204 heartbeat IPC: 1.27881 cumulative IPC: 0.80921 (Simulation time: 0 hr 37 min 42 sec) 
Heartbeat CPU  0 instructions:  349000000 cycles:  429395437 heartbeat IPC: 1.28496 cumulative IPC: 0.81008 (Simulation time: 0 hr 37 min 47 sec) 
Heartbeat CPU  0 instructions:  350000003 cycles:  430178796 heartbeat IPC: 1.27656 cumulative IPC: 0.81093 (Simulation time: 0 hr 37 min 52 sec) 
Heartbeat CPU  0 instructions:  351000003 cycles:  430955083 heartbeat IPC: 1.28818 cumulative IPC: 0.81179 (Simulation time: 0 hr 37 min 56 sec) 
Heartbeat CPU  0 instructions:  352000000 cycles:  431734098 heartbeat IPC: 1.28367 cumulative IPC: 0.81264 (Simulation time: 0 hr 38 min 1 sec) 
Heartbeat CPU  0 instructions:  353000000 cycles:  432538304 heartbeat IPC: 1.24346 cumulative IPC: 0.81345 (Simulation time: 0 hr 38 min 6 sec) 
Heartbeat CPU  0 instructions:  354000000 cycles:  433593921 heartbeat IPC: 0.94731 cumulative IPC: 0.81377 (Simulation time: 0 hr 38 min 11 sec) 
Heartbeat CPU  0 instructions:  355000000 cycles:  434651659 heartbeat IPC: 0.94541 cumulative IPC: 0.81410 (Simulation time: 0 hr 38 min 17 sec) 
Heartbeat CPU  0 instructions:  356000000 cycles:  435721746 heartbeat IPC: 0.93450 cumulative IPC: 0.81439 (Simulation time: 0 hr 38 min 23 sec) 
Heartbeat CPU  0 instructions:  357000003 cycles:  436787499 heartbeat IPC: 0.93831 cumulative IPC: 0.81470 (Simulation time: 0 hr 38 min 29 sec) 
Heartbeat CPU  0 instructions:  358000003 cycles:  437845945 heartbeat IPC: 0.94478 cumulative IPC: 0.81501 (Simulation time: 0 hr 38 min 36 sec) 
Heartbeat CPU  0 instructions:  359000001 cycles:  438883593 heartbeat IPC: 0.96372 cumulative IPC: 0.81536 (Simulation time: 0 hr 38 min 42 sec) 
Heartbeat CPU  0 instructions:  360000000 cycles:  439939920 heartbeat IPC: 0.94668 cumulative IPC: 0.81568 (Simulation time: 0 hr 38 min 48 sec) 
Heartbeat CPU  0 instructions:  361000001 cycles:  441000769 heartbeat IPC: 0.94264 cumulative IPC: 0.81598 (Simulation time: 0 hr 38 min 54 sec) 
Heartbeat CPU  0 instructions:  362000001 cycles:  442051703 heartbeat IPC: 0.95153 cumulative IPC: 0.81631 (Simulation time: 0 hr 39 min 0 sec) 
Finished CPU 0 instructions: 360000003 cycles: 441010014 cumulative IPC: 0.81631 (Simulation time: 0 hr 39 min 0 sec) 

ChampSim completed all CPUs

[ROI Statistics]
Core_0_instructions 360000003
Core_0_cycles 441010014
Core_0_IPC 0.81631

Core_0_branch_prediction_accuracy 98.08116
Core_0_branch_MPKI 0.51551
Core_0_average_ROB_occupancy_at_mispredict 208.74987

Core_0_L1D_total_access 93305849
Core_0_L1D_total_hit 73584864
Core_0_L1D_total_miss 19720985
Core_0_L1D_loads 86784421
Core_0_L1D_load_hit 68258571
Core_0_L1D_load_miss 18525850
Core_0_L1D_RFOs 6521428
Core_0_L1D_RFO_hit 5326293
Core_0_L1D_RFO_miss 1195135
Core_0_L1D_prefetches 0
Core_0_L1D_prefetch_hit 0
Core_0_L1D_prefetch_miss 0
Core_0_L1D_writebacks 0
Core_0_L1D_writeback_hit 0
Core_0_L1D_writeback_miss 0
Core_0_L1D_prefetch_requested 0
Core_0_L1D_prefetch_issued 0
Core_0_L1D_prefetch_useful 0
Core_0_L1D_prefetch_useless 0
Core_0_L1D_prefetch_late 0
Core_0_L1D_average_miss_latency 41.38648

Core_0_L1I_total_access 115131437
Core_0_L1I_total_hit 115122029
Core_0_L1I_total_miss 9408
Core_0_L1I_loads 115131437
Core_0_L1I_load_hit 115122029
Core_0_L1I_load_miss 9408
Core_0_L1I_RFOs 0
Core_0_L1I_RFO_hit 0
Core_0_L1I_RFO_miss 0
Core_0_L1I_prefetches 0
Core_0_L1I_prefetch_hit 0
Core_0_L1I_prefetch_miss 0
Core_0_L1I_writebacks 0
Core_0_L1I_writeback_hit 0
Core_0_L1I_writeback_miss 0
Core_0_L1I_prefetch_requested 0
Core_0_L1I_prefetch_issued 0
Core_0_L1I_prefetch_useful 0
Core_0_L1I_prefetch_useless 0
Core_0_L1I_prefetch_late 0
Core_0_L1I_average_miss_latency 175.40774

Core_0_L2C_total_access 71222373
Core_0_L2C_total_hit 64375278
Core_0_L2C_total_miss 6847095
Core_0_L2C_loads 18535167
Core_0_L2C_load_hit 17169465
Core_0_L2C_load_miss 1365702
Core_0_L2C_RFOs 1195127
Core_0_L2C_RFO_hit 652209
Core_0_L2C_RFO_miss 542918
Core_0_L2C_prefetches 49440949
Core_0_L2C_prefetch_hit 44502746
Core_0_L2C_prefetch_miss 4938203
Core_0_L2C_writebacks 2051130
Core_0_L2C_writeback_hit 2050858
Core_0_L2C_writeback_miss 272
Core_0_L2C_prefetch_requested 93476626
Core_0_L2C_prefetch_issued 65468838
Core_0_L2C_prefetch_useful 3803283
Core_0_L2C_prefetch_useless 1157788
Core_0_L2C_prefetch_late 222312
Core_0_L2C_average_miss_latency 199.00108

Core_0_LLC_total_access 8592764
Core_0_LLC_total_hit 4664850
Core_0_LLC_total_miss 3927914
Core_0_LLC_loads 1147342
Core_0_LLC_load_hit 305227
Core_0_LLC_load_miss 842115
Core_0_LLC_RFOs 539032
Core_0_LLC_RFO_hit 2399
Core_0_LLC_RFO_miss 536633
Core_0_LLC_prefetches 5160449
Core_0_LLC_prefetch_hit 2611525
Core_0_LLC_prefetch_miss 2548924
Core_0_LLC_writebacks 1745941
Core_0_LLC_writeback_hit 1745699
Core_0_LLC_writeback_miss 242
Core_0_LLC_prefetch_requested 0
Core_0_LLC_prefetch_issued 0
Core_0_LLC_prefetch_useful 79378
Core_0_LLC_prefetch_useless 2472105
Core_0_LLC_prefetch_late 0
Core_0_LLC_average_miss_latency 302.53240

Core_0_major_page_fault 0
Core_0_minor_page_fault 18565

CPU 0 L2C next line prefetcher final stats
Channel_0_RQ_row_buffer_hit 1313951
Channel_0_RQ_row_buffer_miss 2613693
Channel_0_WQ_row_buffer_hit 438857
Channel_0_WQ_row_buffer_miss 1256136
Channel_0_WQ_full 0
Channel_0_dbus_congested 2379831

avg_congested_cycle 9
