*************************************************
   ChampSim Multicore Out-of-Order Simulator
   Last compiled: Jul 31 2024 21:28:46
*************************************************

trace_0 ./LLM_Traces/2B_Traces_SelfAttention_Phythia-70M-Seq1024-07-08-0125.champsim.xz
CPU 0 L2C next line prefetcher initialized
warmup_instructions 2000000
simulation_instructions 2000000000
champsim_seed 200

num_cpus 1
cpu_freq 4000
dram_io_freq 2400
page_size 4096
block_size 64
max_read_per_cycle 8
max_fill_per_cycle 1
dram_channels 1
dram_ranks 1
dram_banks 8
dram_rows 65536
dram_columns 128
dram_row_size 8
dram_size 4096
dram_pages 1048576

fetch_width 6
decode_width 6
exec_width 4
lq_width 2
sq_width 2
retire_width 4
scheduler_size 128
branch_mispredict_penalty 20
rob_size 256
lq_size 72
sq_size 56
num_instr_destinations_sparc 4
num_instr_destinations 2
num_instr_sources 4

itlb_set 16
itlb_way 8
itlb_rq_size 16
itlb_wq_size 16
itlb_pq_size 0
itlb_mshr_size 8
itlb_latency 1

dtlb_set 16
dtlb_way 4
dtlb_rq_size 16
dtlb_wq_size 16
dtlb_pq_size 0
dtlb_mshr_size 8
dtlb_latency 1

stlb_set 128
stlb_way 12
stlb_rq_size 32
stlb_wq_size 32
stlb_pq_size 0
stlb_mshr_size 16
stlb_latency 8

l1i_size 32
l1i_set 64
l1i_way 8
l1i_rq_size 64
l1i_wq_size 64
l1i_pq_size 8
l1i_mshr_size 8
l1i_latency 1

l1d_size 32
l1d_set 64
l1d_way 8
l1d_rq_size 64
l1d_wq_size 64
l1d_pq_size 8
l1d_mshr_size 16
l1d_latency 4

l2c_size 512
l2c_set 1024
l2c_way 8
l2c_rq_size 32
l2c_wq_size 32
l2c_pq_size 16
l2c_mshr_size 32
l2c_latency 10

llc_size 2048
llc_set 2048
llc_way 16
llc_rq_size 32
llc_wq_size 32
llc_pq_size 32
llc_mshr_size 64
llc_latency 20

dram_channel_width 8
dram_wq_size 64
dram_rq_size 64
tRP 15
tRCD 15
tCAS 12.5
dram_dbus_turn_around_time 30
dram_write_high_wm 56
dram_write_low_wm 48
min_dram_writes_per_switch 16
dram_mtps 2400
dram_dbus_return_time 13


Heartbeat CPU  0 instructions:    1000001 cycles:     456781 heartbeat IPC: 2.18924 cumulative IPC: 2.18924 (Simulation time: 0 hr 0 min 3 sec) 
Heartbeat CPU  0 instructions:    2000000 cycles:    1028150 heartbeat IPC: 1.75018 cumulative IPC: 1.94524 (Simulation time: 0 hr 0 min 10 sec) 

Warmup complete CPU  0 instructions:    2000002 cycles:    1028151 (Simulation time: 0 hr 0 min 10 sec) 

Heartbeat CPU  0 instructions:    3000001 cycles:    2203928 heartbeat IPC: 0.85050 cumulative IPC: 0.85050 (Simulation time: 0 hr 0 min 21 sec) 
Heartbeat CPU  0 instructions:    4000000 cycles:    3439836 heartbeat IPC: 0.80912 cumulative IPC: 0.82929 (Simulation time: 0 hr 0 min 28 sec) 
Heartbeat CPU  0 instructions:    5000002 cycles:    4668131 heartbeat IPC: 0.81414 cumulative IPC: 0.82418 (Simulation time: 0 hr 0 min 36 sec) 
Heartbeat CPU  0 instructions:    6000003 cycles:    5894751 heartbeat IPC: 0.81525 cumulative IPC: 0.82193 (Simulation time: 0 hr 0 min 43 sec) 
Heartbeat CPU  0 instructions:    7000000 cycles:    7125648 heartbeat IPC: 0.81241 cumulative IPC: 0.82001 (Simulation time: 0 hr 0 min 51 sec) 
Heartbeat CPU  0 instructions:    8000000 cycles:    8358405 heartbeat IPC: 0.81119 cumulative IPC: 0.81853 (Simulation time: 0 hr 1 min 0 sec) 
Heartbeat CPU  0 instructions:    9000003 cycles:    9601175 heartbeat IPC: 0.80466 cumulative IPC: 0.81651 (Simulation time: 0 hr 1 min 12 sec) 
Heartbeat CPU  0 instructions:   10000003 cycles:   10841574 heartbeat IPC: 0.80619 cumulative IPC: 0.81521 (Simulation time: 0 hr 1 min 22 sec) 
Heartbeat CPU  0 instructions:   11000000 cycles:   12052809 heartbeat IPC: 0.82560 cumulative IPC: 0.81635 (Simulation time: 0 hr 1 min 30 sec) 
Heartbeat CPU  0 instructions:   12000000 cycles:   13298135 heartbeat IPC: 0.80300 cumulative IPC: 0.81500 (Simulation time: 0 hr 1 min 38 sec) 
Heartbeat CPU  0 instructions:   13000002 cycles:   14543218 heartbeat IPC: 0.80316 cumulative IPC: 0.81391 (Simulation time: 0 hr 1 min 46 sec) 
Heartbeat CPU  0 instructions:   14000002 cycles:   15771201 heartbeat IPC: 0.81434 cumulative IPC: 0.81394 (Simulation time: 0 hr 1 min 55 sec) 
Heartbeat CPU  0 instructions:   15000003 cycles:   17005321 heartbeat IPC: 0.81029 cumulative IPC: 0.81366 (Simulation time: 0 hr 2 min 3 sec) 
Heartbeat CPU  0 instructions:   16000000 cycles:   18246062 heartbeat IPC: 0.80597 cumulative IPC: 0.81311 (Simulation time: 0 hr 2 min 13 sec) 
Heartbeat CPU  0 instructions:   17000002 cycles:   19492909 heartbeat IPC: 0.80202 cumulative IPC: 0.81236 (Simulation time: 0 hr 2 min 23 sec) 
Heartbeat CPU  0 instructions:   18000003 cycles:   20749996 heartbeat IPC: 0.79549 cumulative IPC: 0.81128 (Simulation time: 0 hr 2 min 34 sec) 
Heartbeat CPU  0 instructions:   19000001 cycles:   21987430 heartbeat IPC: 0.80812 cumulative IPC: 0.81110 (Simulation time: 0 hr 2 min 44 sec) 
Heartbeat CPU  0 instructions:   20000000 cycles:   23236914 heartbeat IPC: 0.80033 cumulative IPC: 0.81049 (Simulation time: 0 hr 2 min 55 sec) 
Heartbeat CPU  0 instructions:   21000001 cycles:   24469268 heartbeat IPC: 0.81146 cumulative IPC: 0.81054 (Simulation time: 0 hr 3 min 5 sec) 
Heartbeat CPU  0 instructions:   22000003 cycles:   25723923 heartbeat IPC: 0.79703 cumulative IPC: 0.80986 (Simulation time: 0 hr 3 min 16 sec) 
Heartbeat CPU  0 instructions:   23000002 cycles:   26952838 heartbeat IPC: 0.81373 cumulative IPC: 0.81004 (Simulation time: 0 hr 3 min 26 sec) 
Heartbeat CPU  0 instructions:   24000000 cycles:   28196860 heartbeat IPC: 0.80384 cumulative IPC: 0.80976 (Simulation time: 0 hr 3 min 36 sec) 
Heartbeat CPU  0 instructions:   25000000 cycles:   29312070 heartbeat IPC: 0.89669 cumulative IPC: 0.81318 (Simulation time: 0 hr 3 min 44 sec) 
Heartbeat CPU  0 instructions:   26000003 cycles:   30594593 heartbeat IPC: 0.77972 cumulative IPC: 0.81173 (Simulation time: 0 hr 3 min 56 sec) 
Heartbeat CPU  0 instructions:   27000003 cycles:   31826444 heartbeat IPC: 0.81179 cumulative IPC: 0.81173 (Simulation time: 0 hr 4 min 7 sec) 
Heartbeat CPU  0 instructions:   28000000 cycles:   33073021 heartbeat IPC: 0.80219 cumulative IPC: 0.81136 (Simulation time: 0 hr 4 min 18 sec) 
Heartbeat CPU  0 instructions:   29000000 cycles:   34319648 heartbeat IPC: 0.80216 cumulative IPC: 0.81102 (Simulation time: 0 hr 4 min 27 sec) 
Heartbeat CPU  0 instructions:   30000001 cycles:   35584024 heartbeat IPC: 0.79090 cumulative IPC: 0.81028 (Simulation time: 0 hr 4 min 37 sec) 
Heartbeat CPU  0 instructions:   31000002 cycles:   36827831 heartbeat IPC: 0.80398 cumulative IPC: 0.81006 (Simulation time: 0 hr 4 min 47 sec) 
Heartbeat CPU  0 instructions:   32000000 cycles:   38058382 heartbeat IPC: 0.81264 cumulative IPC: 0.81015 (Simulation time: 0 hr 4 min 58 sec) 
Heartbeat CPU  0 instructions:   33000001 cycles:   39314069 heartbeat IPC: 0.79638 cumulative IPC: 0.80970 (Simulation time: 0 hr 5 min 9 sec) 
Heartbeat CPU  0 instructions:   34000002 cycles:   40572900 heartbeat IPC: 0.79439 cumulative IPC: 0.80921 (Simulation time: 0 hr 5 min 20 sec) 
Heartbeat CPU  0 instructions:   35000002 cycles:   41839715 heartbeat IPC: 0.78938 cumulative IPC: 0.80859 (Simulation time: 0 hr 5 min 30 sec) 
Heartbeat CPU  0 instructions:   36000000 cycles:   43084148 heartbeat IPC: 0.80358 cumulative IPC: 0.80845 (Simulation time: 0 hr 5 min 41 sec) 
Heartbeat CPU  0 instructions:   37000000 cycles:   44304318 heartbeat IPC: 0.81956 cumulative IPC: 0.80876 (Simulation time: 0 hr 5 min 52 sec) 
Heartbeat CPU  0 instructions:   38000003 cycles:   45550095 heartbeat IPC: 0.80271 cumulative IPC: 0.80859 (Simulation time: 0 hr 6 min 2 sec) 
Heartbeat CPU  0 instructions:   39000003 cycles:   46778676 heartbeat IPC: 0.81395 cumulative IPC: 0.80873 (Simulation time: 0 hr 6 min 12 sec) 
Heartbeat CPU  0 instructions:   40000000 cycles:   48034197 heartbeat IPC: 0.79648 cumulative IPC: 0.80841 (Simulation time: 0 hr 6 min 22 sec) 
Heartbeat CPU  0 instructions:   41000002 cycles:   49314830 heartbeat IPC: 0.78087 cumulative IPC: 0.80768 (Simulation time: 0 hr 6 min 32 sec) 
Heartbeat CPU  0 instructions:   42000001 cycles:   50554663 heartbeat IPC: 0.80656 cumulative IPC: 0.80765 (Simulation time: 0 hr 6 min 42 sec) 
Heartbeat CPU  0 instructions:   43000001 cycles:   51806201 heartbeat IPC: 0.79902 cumulative IPC: 0.80744 (Simulation time: 0 hr 6 min 52 sec) 
Heartbeat CPU  0 instructions:   44000000 cycles:   53072154 heartbeat IPC: 0.78992 cumulative IPC: 0.80701 (Simulation time: 0 hr 7 min 2 sec) 
Heartbeat CPU  0 instructions:   45000002 cycles:   54314855 heartbeat IPC: 0.80470 cumulative IPC: 0.80696 (Simulation time: 0 hr 7 min 13 sec) 
Heartbeat CPU  0 instructions:   46000001 cycles:   55575315 heartbeat IPC: 0.79336 cumulative IPC: 0.80664 (Simulation time: 0 hr 7 min 23 sec) 
Heartbeat CPU  0 instructions:   47000001 cycles:   56831025 heartbeat IPC: 0.79636 cumulative IPC: 0.80641 (Simulation time: 0 hr 7 min 32 sec) 
Heartbeat CPU  0 instructions:   48000000 cycles:   58072133 heartbeat IPC: 0.80573 cumulative IPC: 0.80640 (Simulation time: 0 hr 7 min 42 sec) 
Heartbeat CPU  0 instructions:   49000000 cycles:   59255731 heartbeat IPC: 0.84488 cumulative IPC: 0.80718 (Simulation time: 0 hr 7 min 50 sec) 
Heartbeat CPU  0 instructions:   50000000 cycles:   60367585 heartbeat IPC: 0.89940 cumulative IPC: 0.80891 (Simulation time: 0 hr 8 min 1 sec) 
Heartbeat CPU  0 instructions:   51000000 cycles:   61409036 heartbeat IPC: 0.96020 cumulative IPC: 0.81152 (Simulation time: 0 hr 8 min 11 sec) 
Heartbeat CPU  0 instructions:   52000000 cycles:   62434542 heartbeat IPC: 0.97513 cumulative IPC: 0.81425 (Simulation time: 0 hr 8 min 20 sec) 
Heartbeat CPU  0 instructions:   53000002 cycles:   63478201 heartbeat IPC: 0.95817 cumulative IPC: 0.81665 (Simulation time: 0 hr 8 min 30 sec) 
Heartbeat CPU  0 instructions:   54000003 cycles:   64517322 heartbeat IPC: 0.96235 cumulative IPC: 0.81904 (Simulation time: 0 hr 8 min 39 sec) 
Heartbeat CPU  0 instructions:   55000001 cycles:   65561960 heartbeat IPC: 0.95727 cumulative IPC: 0.82127 (Simulation time: 0 hr 8 min 48 sec) 
Heartbeat CPU  0 instructions:   56000000 cycles:   66604191 heartbeat IPC: 0.95948 cumulative IPC: 0.82347 (Simulation time: 0 hr 8 min 57 sec) 
Heartbeat CPU  0 instructions:   57000000 cycles:   67653953 heartbeat IPC: 0.95260 cumulative IPC: 0.82551 (Simulation time: 0 hr 9 min 6 sec) 
Heartbeat CPU  0 instructions:   58000001 cycles:   68692977 heartbeat IPC: 0.96244 cumulative IPC: 0.82761 (Simulation time: 0 hr 9 min 17 sec) 
Heartbeat CPU  0 instructions:   59000001 cycles:   69728651 heartbeat IPC: 0.96555 cumulative IPC: 0.82969 (Simulation time: 0 hr 9 min 25 sec) 
Heartbeat CPU  0 instructions:   60000000 cycles:   70762744 heartbeat IPC: 0.96703 cumulative IPC: 0.83172 (Simulation time: 0 hr 9 min 35 sec) 
Heartbeat CPU  0 instructions:   61000001 cycles:   71801757 heartbeat IPC: 0.96245 cumulative IPC: 0.83364 (Simulation time: 0 hr 9 min 44 sec) 
Heartbeat CPU  0 instructions:   62000001 cycles:   72820434 heartbeat IPC: 0.98167 cumulative IPC: 0.83574 (Simulation time: 0 hr 9 min 53 sec) 
Heartbeat CPU  0 instructions:   63000000 cycles:   73845235 heartbeat IPC: 0.97580 cumulative IPC: 0.83772 (Simulation time: 0 hr 10 min 2 sec) 
Heartbeat CPU  0 instructions:   64000000 cycles:   74865066 heartbeat IPC: 0.98055 cumulative IPC: 0.83969 (Simulation time: 0 hr 10 min 11 sec) 
Heartbeat CPU  0 instructions:   65000003 cycles:   75839458 heartbeat IPC: 1.02628 cumulative IPC: 0.84212 (Simulation time: 0 hr 10 min 18 sec) 
Heartbeat CPU  0 instructions:   66000000 cycles:   77266093 heartbeat IPC: 0.70095 cumulative IPC: 0.83948 (Simulation time: 0 hr 10 min 28 sec) 
Heartbeat CPU  0 instructions:   67000001 cycles:   78512248 heartbeat IPC: 0.80247 cumulative IPC: 0.83888 (Simulation time: 0 hr 10 min 38 sec) 
Heartbeat CPU  0 instructions:   68000000 cycles:   79736711 heartbeat IPC: 0.81668 cumulative IPC: 0.83854 (Simulation time: 0 hr 10 min 48 sec) 
Heartbeat CPU  0 instructions:   69000001 cycles:   80954241 heartbeat IPC: 0.82134 cumulative IPC: 0.83827 (Simulation time: 0 hr 10 min 57 sec) 
Heartbeat CPU  0 instructions:   70000001 cycles:   82184848 heartbeat IPC: 0.81261 cumulative IPC: 0.83789 (Simulation time: 0 hr 11 min 6 sec) 
Heartbeat CPU  0 instructions:   71000003 cycles:   83386542 heartbeat IPC: 0.83216 cumulative IPC: 0.83780 (Simulation time: 0 hr 11 min 15 sec) 
Heartbeat CPU  0 instructions:   72000000 cycles:   84607244 heartbeat IPC: 0.81920 cumulative IPC: 0.83753 (Simulation time: 0 hr 11 min 24 sec) 
Heartbeat CPU  0 instructions:   73000001 cycles:   85834858 heartbeat IPC: 0.81459 cumulative IPC: 0.83720 (Simulation time: 0 hr 11 min 33 sec) 
Heartbeat CPU  0 instructions:   74000001 cycles:   87086857 heartbeat IPC: 0.79872 cumulative IPC: 0.83664 (Simulation time: 0 hr 11 min 42 sec) 
Heartbeat CPU  0 instructions:   75000001 cycles:   88327530 heartbeat IPC: 0.80601 cumulative IPC: 0.83620 (Simulation time: 0 hr 11 min 51 sec) 
Heartbeat CPU  0 instructions:   76000000 cycles:   89562328 heartbeat IPC: 0.80985 cumulative IPC: 0.83584 (Simulation time: 0 hr 12 min 0 sec) 
Heartbeat CPU  0 instructions:   77000003 cycles:   90783695 heartbeat IPC: 0.81876 cumulative IPC: 0.83560 (Simulation time: 0 hr 12 min 10 sec) 
Heartbeat CPU  0 instructions:   78000002 cycles:   91997261 heartbeat IPC: 0.82402 cumulative IPC: 0.83545 (Simulation time: 0 hr 12 min 18 sec) 
Heartbeat CPU  0 instructions:   79000001 cycles:   93213538 heartbeat IPC: 0.82218 cumulative IPC: 0.83527 (Simulation time: 0 hr 12 min 27 sec) 
Heartbeat CPU  0 instructions:   80000000 cycles:   94437317 heartbeat IPC: 0.81714 cumulative IPC: 0.83504 (Simulation time: 0 hr 12 min 36 sec) 
Heartbeat CPU  0 instructions:   81000000 cycles:   95684126 heartbeat IPC: 0.80205 cumulative IPC: 0.83460 (Simulation time: 0 hr 12 min 45 sec) 
Heartbeat CPU  0 instructions:   82000000 cycles:   96945011 heartbeat IPC: 0.79309 cumulative IPC: 0.83406 (Simulation time: 0 hr 12 min 54 sec) 
Heartbeat CPU  0 instructions:   83000003 cycles:   98202893 heartbeat IPC: 0.79499 cumulative IPC: 0.83355 (Simulation time: 0 hr 13 min 3 sec) 
Heartbeat CPU  0 instructions:   84000000 cycles:   99467107 heartbeat IPC: 0.79100 cumulative IPC: 0.83300 (Simulation time: 0 hr 13 min 12 sec) 
Heartbeat CPU  0 instructions:   85000003 cycles:  100701548 heartbeat IPC: 0.81009 cumulative IPC: 0.83272 (Simulation time: 0 hr 13 min 22 sec) 
Heartbeat CPU  0 instructions:   86000002 cycles:  101933673 heartbeat IPC: 0.81161 cumulative IPC: 0.83246 (Simulation time: 0 hr 13 min 31 sec) 
Heartbeat CPU  0 instructions:   87000001 cycles:  103174068 heartbeat IPC: 0.80619 cumulative IPC: 0.83214 (Simulation time: 0 hr 13 min 39 sec) 
Heartbeat CPU  0 instructions:   88000000 cycles:  104412949 heartbeat IPC: 0.80718 cumulative IPC: 0.83184 (Simulation time: 0 hr 13 min 48 sec) 
Heartbeat CPU  0 instructions:   89000002 cycles:  105644451 heartbeat IPC: 0.81202 cumulative IPC: 0.83161 (Simulation time: 0 hr 13 min 57 sec) 
Heartbeat CPU  0 instructions:   90000002 cycles:  106772372 heartbeat IPC: 0.88659 cumulative IPC: 0.83220 (Simulation time: 0 hr 14 min 4 sec) 
Heartbeat CPU  0 instructions:   91000001 cycles:  108035271 heartbeat IPC: 0.79183 cumulative IPC: 0.83172 (Simulation time: 0 hr 14 min 15 sec) 
Heartbeat CPU  0 instructions:   92000000 cycles:  109303092 heartbeat IPC: 0.78875 cumulative IPC: 0.83122 (Simulation time: 0 hr 14 min 26 sec) 
Heartbeat CPU  0 instructions:   93000000 cycles:  110558515 heartbeat IPC: 0.79654 cumulative IPC: 0.83082 (Simulation time: 0 hr 14 min 35 sec) 
Heartbeat CPU  0 instructions:   94000001 cycles:  111782620 heartbeat IPC: 0.81692 cumulative IPC: 0.83067 (Simulation time: 0 hr 14 min 45 sec) 
Heartbeat CPU  0 instructions:   95000000 cycles:  113014755 heartbeat IPC: 0.81160 cumulative IPC: 0.83046 (Simulation time: 0 hr 14 min 54 sec) 
Heartbeat CPU  0 instructions:   96000000 cycles:  114249672 heartbeat IPC: 0.80977 cumulative IPC: 0.83023 (Simulation time: 0 hr 15 min 3 sec) 
Heartbeat CPU  0 instructions:   97000002 cycles:  115468643 heartbeat IPC: 0.82037 cumulative IPC: 0.83013 (Simulation time: 0 hr 15 min 12 sec) 
Heartbeat CPU  0 instructions:   98000000 cycles:  116707847 heartbeat IPC: 0.80697 cumulative IPC: 0.82988 (Simulation time: 0 hr 15 min 20 sec) 
Heartbeat CPU  0 instructions:   99000000 cycles:  117930981 heartbeat IPC: 0.81757 cumulative IPC: 0.82975 (Simulation time: 0 hr 15 min 29 sec) 
Heartbeat CPU  0 instructions:  100000000 cycles:  119168892 heartbeat IPC: 0.80781 cumulative IPC: 0.82952 (Simulation time: 0 hr 15 min 38 sec) 
Heartbeat CPU  0 instructions:  101000001 cycles:  120424468 heartbeat IPC: 0.79645 cumulative IPC: 0.82917 (Simulation time: 0 hr 15 min 46 sec) 
Heartbeat CPU  0 instructions:  102000003 cycles:  121648383 heartbeat IPC: 0.81705 cumulative IPC: 0.82905 (Simulation time: 0 hr 15 min 55 sec) 
Heartbeat CPU  0 instructions:  103000001 cycles:  122875656 heartbeat IPC: 0.81481 cumulative IPC: 0.82890 (Simulation time: 0 hr 16 min 4 sec) 
Heartbeat CPU  0 instructions:  104000000 cycles:  124087650 heartbeat IPC: 0.82509 cumulative IPC: 0.82887 (Simulation time: 0 hr 16 min 14 sec) 
Heartbeat CPU  0 instructions:  105000001 cycles:  125330312 heartbeat IPC: 0.80472 cumulative IPC: 0.82863 (Simulation time: 0 hr 16 min 23 sec) 
Heartbeat CPU  0 instructions:  106000000 cycles:  126561459 heartbeat IPC: 0.81225 cumulative IPC: 0.82847 (Simulation time: 0 hr 16 min 32 sec) 
Heartbeat CPU  0 instructions:  107000000 cycles:  127804245 heartbeat IPC: 0.80464 cumulative IPC: 0.82823 (Simulation time: 0 hr 16 min 41 sec) 
Heartbeat CPU  0 instructions:  108000000 cycles:  129044200 heartbeat IPC: 0.80648 cumulative IPC: 0.82802 (Simulation time: 0 hr 16 min 51 sec) 
Heartbeat CPU  0 instructions:  109000000 cycles:  130309944 heartbeat IPC: 0.79005 cumulative IPC: 0.82765 (Simulation time: 0 hr 17 min 0 sec) 
Heartbeat CPU  0 instructions:  110000002 cycles:  131570533 heartbeat IPC: 0.79328 cumulative IPC: 0.82732 (Simulation time: 0 hr 17 min 10 sec) 
Heartbeat CPU  0 instructions:  111000002 cycles:  132816939 heartbeat IPC: 0.80231 cumulative IPC: 0.82708 (Simulation time: 0 hr 17 min 19 sec) 
Heartbeat CPU  0 instructions:  112000000 cycles:  134023341 heartbeat IPC: 0.82891 cumulative IPC: 0.82710 (Simulation time: 0 hr 17 min 27 sec) 
Heartbeat CPU  0 instructions:  113000000 cycles:  135247309 heartbeat IPC: 0.81701 cumulative IPC: 0.82701 (Simulation time: 0 hr 17 min 35 sec) 
Heartbeat CPU  0 instructions:  114000000 cycles:  136373864 heartbeat IPC: 0.88766 cumulative IPC: 0.82751 (Simulation time: 0 hr 17 min 43 sec) 
Heartbeat CPU  0 instructions:  115000002 cycles:  137410764 heartbeat IPC: 0.96442 cumulative IPC: 0.82855 (Simulation time: 0 hr 17 min 53 sec) 
Heartbeat CPU  0 instructions:  116000000 cycles:  138455657 heartbeat IPC: 0.95703 cumulative IPC: 0.82953 (Simulation time: 0 hr 18 min 2 sec) 
Heartbeat CPU  0 instructions:  117000000 cycles:  139488523 heartbeat IPC: 0.96818 cumulative IPC: 0.83056 (Simulation time: 0 hr 18 min 11 sec) 
Heartbeat CPU  0 instructions:  118000003 cycles:  140519820 heartbeat IPC: 0.96966 cumulative IPC: 0.83159 (Simulation time: 0 hr 18 min 20 sec) 
Heartbeat CPU  0 instructions:  119000001 cycles:  141565341 heartbeat IPC: 0.95646 cumulative IPC: 0.83252 (Simulation time: 0 hr 18 min 29 sec) 
Heartbeat CPU  0 instructions:  120000000 cycles:  142589464 heartbeat IPC: 0.97644 cumulative IPC: 0.83356 (Simulation time: 0 hr 18 min 38 sec) 
Heartbeat CPU  0 instructions:  121000001 cycles:  143617412 heartbeat IPC: 0.97281 cumulative IPC: 0.83456 (Simulation time: 0 hr 18 min 47 sec) 
Heartbeat CPU  0 instructions:  122000000 cycles:  144635903 heartbeat IPC: 0.98184 cumulative IPC: 0.83561 (Simulation time: 0 hr 18 min 56 sec) 
Heartbeat CPU  0 instructions:  123000003 cycles:  145649879 heartbeat IPC: 0.98622 cumulative IPC: 0.83667 (Simulation time: 0 hr 19 min 4 sec) 
Heartbeat CPU  0 instructions:  124000000 cycles:  146664267 heartbeat IPC: 0.98581 cumulative IPC: 0.83770 (Simulation time: 0 hr 19 min 13 sec) 
Heartbeat CPU  0 instructions:  125000003 cycles:  147675618 heartbeat IPC: 0.98878 cumulative IPC: 0.83875 (Simulation time: 0 hr 19 min 22 sec) 
Heartbeat CPU  0 instructions:  126000001 cycles:  148687663 heartbeat IPC: 0.98810 cumulative IPC: 0.83977 (Simulation time: 0 hr 19 min 31 sec) 
Heartbeat CPU  0 instructions:  127000002 cycles:  149712130 heartbeat IPC: 0.97612 cumulative IPC: 0.84071 (Simulation time: 0 hr 19 min 41 sec) 
Heartbeat CPU  0 instructions:  128000000 cycles:  150733569 heartbeat IPC: 0.97901 cumulative IPC: 0.84165 (Simulation time: 0 hr 19 min 49 sec) 
Heartbeat CPU  0 instructions:  129000000 cycles:  151733032 heartbeat IPC: 1.00054 cumulative IPC: 0.84271 (Simulation time: 0 hr 19 min 58 sec) 
Heartbeat CPU  0 instructions:  130000000 cycles:  152302690 heartbeat IPC: 1.75544 cumulative IPC: 0.84614 (Simulation time: 0 hr 20 min 0 sec) 
Heartbeat CPU  0 instructions:  131000000 cycles:  152675460 heartbeat IPC: 2.68262 cumulative IPC: 0.85066 (Simulation time: 0 hr 20 min 1 sec) 
Heartbeat CPU  0 instructions:  132000000 cycles:  153795215 heartbeat IPC: 0.89305 cumulative IPC: 0.85097 (Simulation time: 0 hr 20 min 5 sec) 
Heartbeat CPU  0 instructions:  133000003 cycles:  161257282 heartbeat IPC: 0.13401 cumulative IPC: 0.81758 (Simulation time: 0 hr 20 min 24 sec) 
Heartbeat CPU  0 instructions:  134000002 cycles:  169072188 heartbeat IPC: 0.12796 cumulative IPC: 0.78551 (Simulation time: 0 hr 20 min 43 sec) 
Heartbeat CPU  0 instructions:  135000002 cycles:  176931527 heartbeat IPC: 0.12724 cumulative IPC: 0.75610 (Simulation time: 0 hr 21 min 3 sec) 
Heartbeat CPU  0 instructions:  136000000 cycles:  184762272 heartbeat IPC: 0.12770 cumulative IPC: 0.72931 (Simulation time: 0 hr 21 min 24 sec) 
Heartbeat CPU  0 instructions:  137000000 cycles:  189250757 heartbeat IPC: 0.22279 cumulative IPC: 0.71724 (Simulation time: 0 hr 21 min 35 sec) 
Heartbeat CPU  0 instructions:  138000002 cycles:  191644388 heartbeat IPC: 0.41778 cumulative IPC: 0.71348 (Simulation time: 0 hr 21 min 40 sec) 
Heartbeat CPU  0 instructions:  139000000 cycles:  194249022 heartbeat IPC: 0.38393 cumulative IPC: 0.70903 (Simulation time: 0 hr 21 min 46 sec) 
Heartbeat CPU  0 instructions:  140000000 cycles:  196841000 heartbeat IPC: 0.38581 cumulative IPC: 0.70475 (Simulation time: 0 hr 21 min 52 sec) 
Heartbeat CPU  0 instructions:  141000002 cycles:  199289106 heartbeat IPC: 0.40848 cumulative IPC: 0.70110 (Simulation time: 0 hr 21 min 58 sec) 
Heartbeat CPU  0 instructions:  142000001 cycles:  201698422 heartbeat IPC: 0.41506 cumulative IPC: 0.69766 (Simulation time: 0 hr 22 min 4 sec) 
Heartbeat CPU  0 instructions:  143000000 cycles:  204096281 heartbeat IPC: 0.41704 cumulative IPC: 0.69435 (Simulation time: 0 hr 22 min 10 sec) 
Heartbeat CPU  0 instructions:  144000000 cycles:  206585244 heartbeat IPC: 0.40177 cumulative IPC: 0.69081 (Simulation time: 0 hr 22 min 16 sec) 
Heartbeat CPU  0 instructions:  145000000 cycles:  209011063 heartbeat IPC: 0.41223 cumulative IPC: 0.68756 (Simulation time: 0 hr 22 min 22 sec) 
Heartbeat CPU  0 instructions:  146000003 cycles:  211454866 heartbeat IPC: 0.40920 cumulative IPC: 0.68432 (Simulation time: 0 hr 22 min 28 sec) 
Heartbeat CPU  0 instructions:  147000002 cycles:  213858583 heartbeat IPC: 0.41602 cumulative IPC: 0.68129 (Simulation time: 0 hr 22 min 34 sec) 
Heartbeat CPU  0 instructions:  148000000 cycles:  216293963 heartbeat IPC: 0.41061 cumulative IPC: 0.67823 (Simulation time: 0 hr 22 min 40 sec) 
Heartbeat CPU  0 instructions:  149000003 cycles:  218685935 heartbeat IPC: 0.41807 cumulative IPC: 0.67537 (Simulation time: 0 hr 22 min 46 sec) 
Heartbeat CPU  0 instructions:  150000001 cycles:  221058733 heartbeat IPC: 0.42144 cumulative IPC: 0.67263 (Simulation time: 0 hr 22 min 52 sec) 
Heartbeat CPU  0 instructions:  151000000 cycles:  223599124 heartbeat IPC: 0.39364 cumulative IPC: 0.66945 (Simulation time: 0 hr 22 min 57 sec) 
Heartbeat CPU  0 instructions:  152000000 cycles:  226163782 heartbeat IPC: 0.38992 cumulative IPC: 0.66627 (Simulation time: 0 hr 23 min 3 sec) 
Heartbeat CPU  0 instructions:  153000002 cycles:  228675438 heartbeat IPC: 0.39814 cumulative IPC: 0.66331 (Simulation time: 0 hr 23 min 9 sec) 
Heartbeat CPU  0 instructions:  154000003 cycles:  231138129 heartbeat IPC: 0.40606 cumulative IPC: 0.66055 (Simulation time: 0 hr 23 min 15 sec) 
Heartbeat CPU  0 instructions:  155000000 cycles:  233547380 heartbeat IPC: 0.41507 cumulative IPC: 0.65801 (Simulation time: 0 hr 23 min 20 sec) 
Heartbeat CPU  0 instructions:  156000000 cycles:  235975588 heartbeat IPC: 0.41183 cumulative IPC: 0.65547 (Simulation time: 0 hr 23 min 26 sec) 
Heartbeat CPU  0 instructions:  157000000 cycles:  238401343 heartbeat IPC: 0.41224 cumulative IPC: 0.65298 (Simulation time: 0 hr 23 min 32 sec) 
Heartbeat CPU  0 instructions:  158000001 cycles:  240793878 heartbeat IPC: 0.41797 cumulative IPC: 0.65064 (Simulation time: 0 hr 23 min 38 sec) 
Heartbeat CPU  0 instructions:  159000002 cycles:  243226476 heartbeat IPC: 0.41108 cumulative IPC: 0.64823 (Simulation time: 0 hr 23 min 44 sec) 
Heartbeat CPU  0 instructions:  160000000 cycles:  245718954 heartbeat IPC: 0.40121 cumulative IPC: 0.64571 (Simulation time: 0 hr 23 min 50 sec) 
Heartbeat CPU  0 instructions:  161000001 cycles:  248145646 heartbeat IPC: 0.41208 cumulative IPC: 0.64342 (Simulation time: 0 hr 23 min 56 sec) 
Heartbeat CPU  0 instructions:  162000000 cycles:  250565584 heartbeat IPC: 0.41323 cumulative IPC: 0.64119 (Simulation time: 0 hr 24 min 2 sec) 
Heartbeat CPU  0 instructions:  163000001 cycles:  253023147 heartbeat IPC: 0.40691 cumulative IPC: 0.63890 (Simulation time: 0 hr 24 min 7 sec) 
Heartbeat CPU  0 instructions:  164000000 cycles:  255451059 heartbeat IPC: 0.41188 cumulative IPC: 0.63674 (Simulation time: 0 hr 24 min 13 sec) 
Heartbeat CPU  0 instructions:  165000000 cycles:  257867238 heartbeat IPC: 0.41388 cumulative IPC: 0.63464 (Simulation time: 0 hr 24 min 19 sec) 
Heartbeat CPU  0 instructions:  166000002 cycles:  260366739 heartbeat IPC: 0.40008 cumulative IPC: 0.63238 (Simulation time: 0 hr 24 min 24 sec) 
Heartbeat CPU  0 instructions:  167000000 cycles:  262844002 heartbeat IPC: 0.40367 cumulative IPC: 0.63021 (Simulation time: 0 hr 24 min 30 sec) 
Heartbeat CPU  0 instructions:  168000000 cycles:  265253688 heartbeat IPC: 0.41499 cumulative IPC: 0.62825 (Simulation time: 0 hr 24 min 36 sec) 
Heartbeat CPU  0 instructions:  169000000 cycles:  267733946 heartbeat IPC: 0.40318 cumulative IPC: 0.62616 (Simulation time: 0 hr 24 min 42 sec) 
Heartbeat CPU  0 instructions:  170000000 cycles:  270184987 heartbeat IPC: 0.40799 cumulative IPC: 0.62417 (Simulation time: 0 hr 24 min 48 sec) 
Heartbeat CPU  0 instructions:  171000000 cycles:  272650913 heartbeat IPC: 0.40553 cumulative IPC: 0.62219 (Simulation time: 0 hr 24 min 53 sec) 
Heartbeat CPU  0 instructions:  172000000 cycles:  275107207 heartbeat IPC: 0.40712 cumulative IPC: 0.62026 (Simulation time: 0 hr 25 min 0 sec) 
Heartbeat CPU  0 instructions:  173000001 cycles:  277534077 heartbeat IPC: 0.41205 cumulative IPC: 0.61843 (Simulation time: 0 hr 25 min 5 sec) 
Heartbeat CPU  0 instructions:  174000000 cycles:  279966992 heartbeat IPC: 0.41103 cumulative IPC: 0.61662 (Simulation time: 0 hr 25 min 11 sec) 
Heartbeat CPU  0 instructions:  175000000 cycles:  282410157 heartbeat IPC: 0.40931 cumulative IPC: 0.61482 (Simulation time: 0 hr 25 min 17 sec) 
Heartbeat CPU  0 instructions:  176000000 cycles:  284829084 heartbeat IPC: 0.41341 cumulative IPC: 0.61311 (Simulation time: 0 hr 25 min 23 sec) 
Heartbeat CPU  0 instructions:  177000000 cycles:  287250678 heartbeat IPC: 0.41295 cumulative IPC: 0.61141 (Simulation time: 0 hr 25 min 29 sec) 
Heartbeat CPU  0 instructions:  178000000 cycles:  289752756 heartbeat IPC: 0.39967 cumulative IPC: 0.60958 (Simulation time: 0 hr 25 min 35 sec) 
Heartbeat CPU  0 instructions:  179000003 cycles:  292242930 heartbeat IPC: 0.40158 cumulative IPC: 0.60780 (Simulation time: 0 hr 25 min 41 sec) 
Heartbeat CPU  0 instructions:  180000000 cycles:  294731598 heartbeat IPC: 0.40182 cumulative IPC: 0.60605 (Simulation time: 0 hr 25 min 46 sec) 
Heartbeat CPU  0 instructions:  181000002 cycles:  297272641 heartbeat IPC: 0.39354 cumulative IPC: 0.60423 (Simulation time: 0 hr 25 min 53 sec) 
Heartbeat CPU  0 instructions:  182000001 cycles:  299703289 heartbeat IPC: 0.41141 cumulative IPC: 0.60266 (Simulation time: 0 hr 25 min 59 sec) 
Heartbeat CPU  0 instructions:  183000000 cycles:  302153253 heartbeat IPC: 0.40817 cumulative IPC: 0.60108 (Simulation time: 0 hr 26 min 5 sec) 
Heartbeat CPU  0 instructions:  184000000 cycles:  304602802 heartbeat IPC: 0.40824 cumulative IPC: 0.59952 (Simulation time: 0 hr 26 min 12 sec) 
Heartbeat CPU  0 instructions:  185000002 cycles:  307081324 heartbeat IPC: 0.40347 cumulative IPC: 0.59794 (Simulation time: 0 hr 26 min 18 sec) 
Heartbeat CPU  0 instructions:  186000000 cycles:  309504599 heartbeat IPC: 0.41266 cumulative IPC: 0.59648 (Simulation time: 0 hr 26 min 24 sec) 
Heartbeat CPU  0 instructions:  187000000 cycles:  311942174 heartbeat IPC: 0.41024 cumulative IPC: 0.59502 (Simulation time: 0 hr 26 min 30 sec) 
Heartbeat CPU  0 instructions:  188000000 cycles:  314360142 heartbeat IPC: 0.41357 cumulative IPC: 0.59362 (Simulation time: 0 hr 26 min 36 sec) 
Heartbeat CPU  0 instructions:  189000000 cycles:  316854928 heartbeat IPC: 0.40084 cumulative IPC: 0.59210 (Simulation time: 0 hr 26 min 42 sec) 
Heartbeat CPU  0 instructions:  190000001 cycles:  319260819 heartbeat IPC: 0.41565 cumulative IPC: 0.59076 (Simulation time: 0 hr 26 min 48 sec) 
Heartbeat CPU  0 instructions:  191000002 cycles:  321701207 heartbeat IPC: 0.40977 cumulative IPC: 0.58939 (Simulation time: 0 hr 26 min 53 sec) 
Heartbeat CPU  0 instructions:  192000000 cycles:  324101860 heartbeat IPC: 0.41655 cumulative IPC: 0.58810 (Simulation time: 0 hr 26 min 59 sec) 
Heartbeat CPU  0 instructions:  193000000 cycles:  326504753 heartbeat IPC: 0.41617 cumulative IPC: 0.58683 (Simulation time: 0 hr 27 min 6 sec) 
Heartbeat CPU  0 instructions:  194000002 cycles:  328914012 heartbeat IPC: 0.41507 cumulative IPC: 0.58557 (Simulation time: 0 hr 27 min 12 sec) 
Heartbeat CPU  0 instructions:  195000003 cycles:  331467113 heartbeat IPC: 0.39168 cumulative IPC: 0.58407 (Simulation time: 0 hr 27 min 18 sec) 
Heartbeat CPU  0 instructions:  196000000 cycles:  333964961 heartbeat IPC: 0.40034 cumulative IPC: 0.58269 (Simulation time: 0 hr 27 min 24 sec) 
Heartbeat CPU  0 instructions:  197000000 cycles:  336383250 heartbeat IPC: 0.41352 cumulative IPC: 0.58147 (Simulation time: 0 hr 27 min 30 sec) 
Heartbeat CPU  0 instructions:  198000000 cycles:  338811157 heartbeat IPC: 0.41188 cumulative IPC: 0.58025 (Simulation time: 0 hr 27 min 36 sec) 
Heartbeat CPU  0 instructions:  199000002 cycles:  341211173 heartbeat IPC: 0.41666 cumulative IPC: 0.57910 (Simulation time: 0 hr 27 min 42 sec) 
Heartbeat CPU  0 instructions:  200000000 cycles:  343626138 heartbeat IPC: 0.41408 cumulative IPC: 0.57794 (Simulation time: 0 hr 27 min 48 sec) 
Heartbeat CPU  0 instructions:  201000003 cycles:  345355891 heartbeat IPC: 0.57812 cumulative IPC: 0.57794 (Simulation time: 0 hr 27 min 51 sec) 
Heartbeat CPU  0 instructions:  202000000 cycles:  345983555 heartbeat IPC: 1.59320 cumulative IPC: 0.57979 (Simulation time: 0 hr 27 min 53 sec) 
Heartbeat CPU  0 instructions:  203000003 cycles:  347027330 heartbeat IPC: 0.95806 cumulative IPC: 0.58093 (Simulation time: 0 hr 28 min 3 sec) 
Heartbeat CPU  0 instructions:  204000000 cycles:  348083838 heartbeat IPC: 0.94651 cumulative IPC: 0.58204 (Simulation time: 0 hr 28 min 14 sec) 
Heartbeat CPU  0 instructions:  205000001 cycles:  349037724 heartbeat IPC: 1.04834 cumulative IPC: 0.58332 (Simulation time: 0 hr 28 min 25 sec) 
Heartbeat CPU  0 instructions:  206000000 cycles:  349809268 heartbeat IPC: 1.29610 cumulative IPC: 0.58489 (Simulation time: 0 hr 28 min 36 sec) 
Heartbeat CPU  0 instructions:  207000002 cycles:  350653820 heartbeat IPC: 1.18406 cumulative IPC: 0.58634 (Simulation time: 0 hr 28 min 48 sec) 
Heartbeat CPU  0 instructions:  208000000 cycles:  351614476 heartbeat IPC: 1.04095 cumulative IPC: 0.58759 (Simulation time: 0 hr 29 min 1 sec) 
Heartbeat CPU  0 instructions:  209000002 cycles:  352579068 heartbeat IPC: 1.03671 cumulative IPC: 0.58882 (Simulation time: 0 hr 29 min 13 sec) 
Heartbeat CPU  0 instructions:  210000003 cycles:  353542735 heartbeat IPC: 1.03770 cumulative IPC: 0.59005 (Simulation time: 0 hr 29 min 24 sec) 
Heartbeat CPU  0 instructions:  211000000 cycles:  354373868 heartbeat IPC: 1.20317 cumulative IPC: 0.59149 (Simulation time: 0 hr 29 min 36 sec) 
Heartbeat CPU  0 instructions:  212000000 cycles:  355372976 heartbeat IPC: 1.00089 cumulative IPC: 0.59264 (Simulation time: 0 hr 29 min 49 sec) 
Heartbeat CPU  0 instructions:  213000003 cycles:  356618097 heartbeat IPC: 0.80314 cumulative IPC: 0.59338 (Simulation time: 0 hr 30 min 5 sec) 
Heartbeat CPU  0 instructions:  214000002 cycles:  357718566 heartbeat IPC: 0.90870 cumulative IPC: 0.59435 (Simulation time: 0 hr 30 min 22 sec) 
Heartbeat CPU  0 instructions:  215000000 cycles:  358837745 heartbeat IPC: 0.89351 cumulative IPC: 0.59529 (Simulation time: 0 hr 30 min 37 sec) 
Heartbeat CPU  0 instructions:  216000000 cycles:  360185841 heartbeat IPC: 0.74179 cumulative IPC: 0.59584 (Simulation time: 0 hr 30 min 54 sec) 
Heartbeat CPU  0 instructions:  217000003 cycles:  361338773 heartbeat IPC: 0.86736 cumulative IPC: 0.59671 (Simulation time: 0 hr 31 min 11 sec) 
Heartbeat CPU  0 instructions:  218000002 cycles:  362462708 heartbeat IPC: 0.88973 cumulative IPC: 0.59762 (Simulation time: 0 hr 31 min 27 sec) 
Heartbeat CPU  0 instructions:  219000002 cycles:  363725243 heartbeat IPC: 0.79206 cumulative IPC: 0.59830 (Simulation time: 0 hr 31 min 43 sec) 
Heartbeat CPU  0 instructions:  220000000 cycles:  365012604 heartbeat IPC: 0.77678 cumulative IPC: 0.59893 (Simulation time: 0 hr 31 min 59 sec) 
Heartbeat CPU  0 instructions:  221000003 cycles:  366157980 heartbeat IPC: 0.87308 cumulative IPC: 0.59979 (Simulation time: 0 hr 32 min 17 sec) 
Heartbeat CPU  0 instructions:  222000002 cycles:  367444110 heartbeat IPC: 0.77753 cumulative IPC: 0.60041 (Simulation time: 0 hr 32 min 33 sec) 
Heartbeat CPU  0 instructions:  223000002 cycles:  368819466 heartbeat IPC: 0.72708 cumulative IPC: 0.60088 (Simulation time: 0 hr 32 min 51 sec) 
Heartbeat CPU  0 instructions:  224000000 cycles:  370134977 heartbeat IPC: 0.76016 cumulative IPC: 0.60145 (Simulation time: 0 hr 33 min 8 sec) 
Heartbeat CPU  0 instructions:  225000001 cycles:  371354922 heartbeat IPC: 0.81971 cumulative IPC: 0.60217 (Simulation time: 0 hr 33 min 24 sec) 
Heartbeat CPU  0 instructions:  226000000 cycles:  372429131 heartbeat IPC: 0.93092 cumulative IPC: 0.60312 (Simulation time: 0 hr 33 min 41 sec) 
Heartbeat CPU  0 instructions:  227000001 cycles:  373513435 heartbeat IPC: 0.92225 cumulative IPC: 0.60405 (Simulation time: 0 hr 33 min 58 sec) 
Heartbeat CPU  0 instructions:  228000000 cycles:  374868932 heartbeat IPC: 0.73774 cumulative IPC: 0.60454 (Simulation time: 0 hr 34 min 15 sec) 
Heartbeat CPU  0 instructions:  229000000 cycles:  375972367 heartbeat IPC: 0.90626 cumulative IPC: 0.60542 (Simulation time: 0 hr 34 min 32 sec) 
Heartbeat CPU  0 instructions:  230000000 cycles:  377072530 heartbeat IPC: 0.90896 cumulative IPC: 0.60631 (Simulation time: 0 hr 34 min 48 sec) 
Heartbeat CPU  0 instructions:  231000003 cycles:  378259827 heartbeat IPC: 0.84225 cumulative IPC: 0.60705 (Simulation time: 0 hr 35 min 5 sec) 
Heartbeat CPU  0 instructions:  232000000 cycles:  379531536 heartbeat IPC: 0.78634 cumulative IPC: 0.60766 (Simulation time: 0 hr 35 min 22 sec) 
Heartbeat CPU  0 instructions:  233000003 cycles:  380610594 heartbeat IPC: 0.92674 cumulative IPC: 0.60856 (Simulation time: 0 hr 35 min 38 sec) 
Heartbeat CPU  0 instructions:  234000001 cycles:  381682645 heartbeat IPC: 0.93279 cumulative IPC: 0.60948 (Simulation time: 0 hr 35 min 55 sec) 
Heartbeat CPU  0 instructions:  235000003 cycles:  382983846 heartbeat IPC: 0.76852 cumulative IPC: 0.61002 (Simulation time: 0 hr 36 min 12 sec) 
Heartbeat CPU  0 instructions:  236000000 cycles:  384131556 heartbeat IPC: 0.87130 cumulative IPC: 0.61080 (Simulation time: 0 hr 36 min 29 sec) 
Heartbeat CPU  0 instructions:  237000000 cycles:  385207407 heartbeat IPC: 0.92950 cumulative IPC: 0.61169 (Simulation time: 0 hr 36 min 46 sec) 
Heartbeat CPU  0 instructions:  238000001 cycles:  386346598 heartbeat IPC: 0.87782 cumulative IPC: 0.61248 (Simulation time: 0 hr 37 min 2 sec) 
Heartbeat CPU  0 instructions:  239000003 cycles:  387593441 heartbeat IPC: 0.80203 cumulative IPC: 0.61309 (Simulation time: 0 hr 37 min 20 sec) 
Heartbeat CPU  0 instructions:  240000000 cycles:  389241805 heartbeat IPC: 0.60666 cumulative IPC: 0.61306 (Simulation time: 0 hr 37 min 36 sec) 
Heartbeat CPU  0 instructions:  241000000 cycles:  390371104 heartbeat IPC: 0.88551 cumulative IPC: 0.61385 (Simulation time: 0 hr 37 min 52 sec) 
Heartbeat CPU  0 instructions:  242000003 cycles:  391483904 heartbeat IPC: 0.89864 cumulative IPC: 0.61467 (Simulation time: 0 hr 38 min 9 sec) 
Heartbeat CPU  0 instructions:  243000003 cycles:  392658505 heartbeat IPC: 0.85135 cumulative IPC: 0.61538 (Simulation time: 0 hr 38 min 26 sec) 
Heartbeat CPU  0 instructions:  244000000 cycles:  393960939 heartbeat IPC: 0.76779 cumulative IPC: 0.61588 (Simulation time: 0 hr 38 min 43 sec) 
Heartbeat CPU  0 instructions:  245000001 cycles:  395060842 heartbeat IPC: 0.90917 cumulative IPC: 0.61670 (Simulation time: 0 hr 39 min 0 sec) 
Heartbeat CPU  0 instructions:  246000003 cycles:  396138793 heartbeat IPC: 0.92769 cumulative IPC: 0.61755 (Simulation time: 0 hr 39 min 17 sec) 
Heartbeat CPU  0 instructions:  247000001 cycles:  397435379 heartbeat IPC: 0.77125 cumulative IPC: 0.61805 (Simulation time: 0 hr 39 min 33 sec) 
Heartbeat CPU  0 instructions:  248000000 cycles:  398624504 heartbeat IPC: 0.84095 cumulative IPC: 0.61872 (Simulation time: 0 hr 39 min 49 sec) 
Heartbeat CPU  0 instructions:  249000001 cycles:  399726040 heartbeat IPC: 0.90782 cumulative IPC: 0.61952 (Simulation time: 0 hr 40 min 5 sec) 
Heartbeat CPU  0 instructions:  250000001 cycles:  400880321 heartbeat IPC: 0.86634 cumulative IPC: 0.62023 (Simulation time: 0 hr 40 min 22 sec) 
Heartbeat CPU  0 instructions:  251000002 cycles:  402202114 heartbeat IPC: 0.75655 cumulative IPC: 0.62068 (Simulation time: 0 hr 40 min 39 sec) 
Heartbeat CPU  0 instructions:  252000000 cycles:  403354922 heartbeat IPC: 0.86745 cumulative IPC: 0.62139 (Simulation time: 0 hr 40 min 56 sec) 
Heartbeat CPU  0 instructions:  253000001 cycles:  404465256 heartbeat IPC: 0.90063 cumulative IPC: 0.62215 (Simulation time: 0 hr 41 min 14 sec) 
Heartbeat CPU  0 instructions:  254000000 cycles:  405736085 heartbeat IPC: 0.78689 cumulative IPC: 0.62267 (Simulation time: 0 hr 41 min 32 sec) 
Heartbeat CPU  0 instructions:  255000002 cycles:  407063883 heartbeat IPC: 0.75313 cumulative IPC: 0.62310 (Simulation time: 0 hr 41 min 49 sec) 
Heartbeat CPU  0 instructions:  256000000 cycles:  408317086 heartbeat IPC: 0.79795 cumulative IPC: 0.62364 (Simulation time: 0 hr 42 min 7 sec) 
Heartbeat CPU  0 instructions:  257000002 cycles:  409639355 heartbeat IPC: 0.75628 cumulative IPC: 0.62407 (Simulation time: 0 hr 42 min 24 sec) 
Heartbeat CPU  0 instructions:  258000000 cycles:  410749610 heartbeat IPC: 0.90069 cumulative IPC: 0.62481 (Simulation time: 0 hr 42 min 40 sec) 
Heartbeat CPU  0 instructions:  259000003 cycles:  412035976 heartbeat IPC: 0.77739 cumulative IPC: 0.62529 (Simulation time: 0 hr 42 min 58 sec) 
Heartbeat CPU  0 instructions:  260000000 cycles:  413244550 heartbeat IPC: 0.82742 cumulative IPC: 0.62588 (Simulation time: 0 hr 43 min 16 sec) 
Heartbeat CPU  0 instructions:  261000003 cycles:  414320896 heartbeat IPC: 0.92907 cumulative IPC: 0.62667 (Simulation time: 0 hr 43 min 32 sec) 
Heartbeat CPU  0 instructions:  262000000 cycles:  415442463 heartbeat IPC: 0.89161 cumulative IPC: 0.62739 (Simulation time: 0 hr 43 min 49 sec) 
Heartbeat CPU  0 instructions:  263000003 cycles:  416797041 heartbeat IPC: 0.73824 cumulative IPC: 0.62775 (Simulation time: 0 hr 44 min 7 sec) 
Heartbeat CPU  0 instructions:  264000000 cycles:  417949266 heartbeat IPC: 0.86788 cumulative IPC: 0.62842 (Simulation time: 0 hr 44 min 23 sec) 
Heartbeat CPU  0 instructions:  265000002 cycles:  419048229 heartbeat IPC: 0.90995 cumulative IPC: 0.62916 (Simulation time: 0 hr 44 min 39 sec) 
Heartbeat CPU  0 instructions:  266000000 cycles:  420277753 heartbeat IPC: 0.81332 cumulative IPC: 0.62970 (Simulation time: 0 hr 44 min 58 sec) 
Heartbeat CPU  0 instructions:  267000000 cycles:  421575452 heartbeat IPC: 0.77059 cumulative IPC: 0.63013 (Simulation time: 0 hr 45 min 14 sec) 
Heartbeat CPU  0 instructions:  268000000 cycles:  422724781 heartbeat IPC: 0.87007 cumulative IPC: 0.63079 (Simulation time: 0 hr 45 min 32 sec) 
Heartbeat CPU  0 instructions:  269000003 cycles:  423857773 heartbeat IPC: 0.88262 cumulative IPC: 0.63146 (Simulation time: 0 hr 45 min 48 sec) 
Heartbeat CPU  0 instructions:  270000003 cycles:  425171667 heartbeat IPC: 0.76110 cumulative IPC: 0.63186 (Simulation time: 0 hr 46 min 7 sec) 
Heartbeat CPU  0 instructions:  271000000 cycles:  426412273 heartbeat IPC: 0.80606 cumulative IPC: 0.63237 (Simulation time: 0 hr 46 min 24 sec) 
Heartbeat CPU  0 instructions:  272000000 cycles:  427693253 heartbeat IPC: 0.78065 cumulative IPC: 0.63281 (Simulation time: 0 hr 46 min 40 sec) 
Heartbeat CPU  0 instructions:  273000002 cycles:  429031939 heartbeat IPC: 0.74700 cumulative IPC: 0.63317 (Simulation time: 0 hr 46 min 56 sec) 
Heartbeat CPU  0 instructions:  274000000 cycles:  430337630 heartbeat IPC: 0.76588 cumulative IPC: 0.63358 (Simulation time: 0 hr 47 min 14 sec) 
Heartbeat CPU  0 instructions:  275000000 cycles:  431614415 heartbeat IPC: 0.78322 cumulative IPC: 0.63402 (Simulation time: 0 hr 47 min 29 sec) 
Heartbeat CPU  0 instructions:  276000000 cycles:  432889181 heartbeat IPC: 0.78446 cumulative IPC: 0.63446 (Simulation time: 0 hr 47 min 45 sec) 
Heartbeat CPU  0 instructions:  277000000 cycles:  434024639 heartbeat IPC: 0.88070 cumulative IPC: 0.63511 (Simulation time: 0 hr 48 min 3 sec) 
Heartbeat CPU  0 instructions:  278000003 cycles:  435314904 heartbeat IPC: 0.77504 cumulative IPC: 0.63552 (Simulation time: 0 hr 48 min 21 sec) 
Heartbeat CPU  0 instructions:  279000001 cycles:  436573225 heartbeat IPC: 0.79471 cumulative IPC: 0.63598 (Simulation time: 0 hr 48 min 35 sec) 
Heartbeat CPU  0 instructions:  280000000 cycles:  437758300 heartbeat IPC: 0.84383 cumulative IPC: 0.63655 (Simulation time: 0 hr 48 min 50 sec) 
Heartbeat CPU  0 instructions:  281000001 cycles:  438974431 heartbeat IPC: 0.82228 cumulative IPC: 0.63706 (Simulation time: 0 hr 49 min 5 sec) 
Heartbeat CPU  0 instructions:  282000000 cycles:  440185262 heartbeat IPC: 0.82588 cumulative IPC: 0.63759 (Simulation time: 0 hr 49 min 21 sec) 
Heartbeat CPU  0 instructions:  283000001 cycles:  441472787 heartbeat IPC: 0.77668 cumulative IPC: 0.63799 (Simulation time: 0 hr 49 min 37 sec) 
Heartbeat CPU  0 instructions:  284000000 cycles:  442595592 heartbeat IPC: 0.89063 cumulative IPC: 0.63863 (Simulation time: 0 hr 49 min 53 sec) 
Heartbeat CPU  0 instructions:  285000002 cycles:  443863098 heartbeat IPC: 0.78895 cumulative IPC: 0.63906 (Simulation time: 0 hr 50 min 8 sec) 
Heartbeat CPU  0 instructions:  286000002 cycles:  445100734 heartbeat IPC: 0.80799 cumulative IPC: 0.63954 (Simulation time: 0 hr 50 min 23 sec) 
Heartbeat CPU  0 instructions:  287000000 cycles:  446298674 heartbeat IPC: 0.83476 cumulative IPC: 0.64006 (Simulation time: 0 hr 50 min 39 sec) 
Heartbeat CPU  0 instructions:  288000000 cycles:  447484587 heartbeat IPC: 0.84323 cumulative IPC: 0.64060 (Simulation time: 0 hr 50 min 54 sec) 
Heartbeat CPU  0 instructions:  289000002 cycles:  448795742 heartbeat IPC: 0.76269 cumulative IPC: 0.64096 (Simulation time: 0 hr 51 min 10 sec) 
Heartbeat CPU  0 instructions:  290000001 cycles:  450347883 heartbeat IPC: 0.64427 cumulative IPC: 0.64097 (Simulation time: 0 hr 51 min 25 sec) 
Heartbeat CPU  0 instructions:  291000003 cycles:  451647505 heartbeat IPC: 0.76946 cumulative IPC: 0.64134 (Simulation time: 0 hr 51 min 42 sec) 
Heartbeat CPU  0 instructions:  292000000 cycles:  452827157 heartbeat IPC: 0.84771 cumulative IPC: 0.64188 (Simulation time: 0 hr 51 min 59 sec) 
Heartbeat CPU  0 instructions:  293000003 cycles:  454062892 heartbeat IPC: 0.80924 cumulative IPC: 0.64233 (Simulation time: 0 hr 52 min 15 sec) 
Heartbeat CPU  0 instructions:  294000001 cycles:  455266079 heartbeat IPC: 0.83112 cumulative IPC: 0.64283 (Simulation time: 0 hr 52 min 33 sec) 
Heartbeat CPU  0 instructions:  295000001 cycles:  456544022 heartbeat IPC: 0.78251 cumulative IPC: 0.64323 (Simulation time: 0 hr 52 min 50 sec) 
Heartbeat CPU  0 instructions:  296000000 cycles:  457699419 heartbeat IPC: 0.86550 cumulative IPC: 0.64379 (Simulation time: 0 hr 53 min 11 sec) 
Heartbeat CPU  0 instructions:  297000000 cycles:  458929378 heartbeat IPC: 0.81304 cumulative IPC: 0.64424 (Simulation time: 0 hr 53 min 25 sec) 
Heartbeat CPU  0 instructions:  298000002 cycles:  460147424 heartbeat IPC: 0.82099 cumulative IPC: 0.64471 (Simulation time: 0 hr 53 min 41 sec) 
Heartbeat CPU  0 instructions:  299000000 cycles:  461260911 heartbeat IPC: 0.89808 cumulative IPC: 0.64533 (Simulation time: 0 hr 53 min 58 sec) 
Heartbeat CPU  0 instructions:  300000000 cycles:  462507130 heartbeat IPC: 0.80243 cumulative IPC: 0.64575 (Simulation time: 0 hr 54 min 13 sec) 
Heartbeat CPU  0 instructions:  301000003 cycles:  463817574 heartbeat IPC: 0.76310 cumulative IPC: 0.64608 (Simulation time: 0 hr 54 min 29 sec) 
Heartbeat CPU  0 instructions:  302000001 cycles:  464983458 heartbeat IPC: 0.85772 cumulative IPC: 0.64661 (Simulation time: 0 hr 54 min 42 sec) 
Heartbeat CPU  0 instructions:  303000003 cycles:  466163003 heartbeat IPC: 0.84779 cumulative IPC: 0.64712 (Simulation time: 0 hr 54 min 54 sec) 
Heartbeat CPU  0 instructions:  304000000 cycles:  467413597 heartbeat IPC: 0.79962 cumulative IPC: 0.64753 (Simulation time: 0 hr 55 min 5 sec) 
Heartbeat CPU  0 instructions:  305000001 cycles:  468725503 heartbeat IPC: 0.76225 cumulative IPC: 0.64785 (Simulation time: 0 hr 55 min 18 sec) 
Heartbeat CPU  0 instructions:  306000001 cycles:  470013701 heartbeat IPC: 0.77628 cumulative IPC: 0.64821 (Simulation time: 0 hr 55 min 33 sec) 
Heartbeat CPU  0 instructions:  307000002 cycles:  471286048 heartbeat IPC: 0.78595 cumulative IPC: 0.64858 (Simulation time: 0 hr 55 min 46 sec) 
Heartbeat CPU  0 instructions:  308000000 cycles:  472519651 heartbeat IPC: 0.81063 cumulative IPC: 0.64900 (Simulation time: 0 hr 55 min 59 sec) 
Heartbeat CPU  0 instructions:  309000001 cycles:  473751365 heartbeat IPC: 0.81188 cumulative IPC: 0.64943 (Simulation time: 0 hr 56 min 11 sec) 
Heartbeat CPU  0 instructions:  310000000 cycles:  474976164 heartbeat IPC: 0.81646 cumulative IPC: 0.64986 (Simulation time: 0 hr 56 min 23 sec) 
Heartbeat CPU  0 instructions:  311000003 cycles:  476142888 heartbeat IPC: 0.85710 cumulative IPC: 0.65037 (Simulation time: 0 hr 56 min 36 sec) 
Heartbeat CPU  0 instructions:  312000000 cycles:  477331850 heartbeat IPC: 0.84107 cumulative IPC: 0.65085 (Simulation time: 0 hr 56 min 52 sec) 
Heartbeat CPU  0 instructions:  313000001 cycles:  478561276 heartbeat IPC: 0.81339 cumulative IPC: 0.65126 (Simulation time: 0 hr 57 min 6 sec) 
Heartbeat CPU  0 instructions:  314000001 cycles:  479823480 heartbeat IPC: 0.79226 cumulative IPC: 0.65164 (Simulation time: 0 hr 57 min 26 sec) 
Heartbeat CPU  0 instructions:  315000003 cycles:  480929307 heartbeat IPC: 0.90430 cumulative IPC: 0.65222 (Simulation time: 0 hr 57 min 50 sec) 
Heartbeat CPU  0 instructions:  316000000 cycles:  482055679 heartbeat IPC: 0.88780 cumulative IPC: 0.65277 (Simulation time: 0 hr 58 min 10 sec) 
Heartbeat CPU  0 instructions:  317000001 cycles:  483398803 heartbeat IPC: 0.74453 cumulative IPC: 0.65302 (Simulation time: 0 hr 58 min 31 sec) 
Heartbeat CPU  0 instructions:  318000000 cycles:  484575339 heartbeat IPC: 0.84995 cumulative IPC: 0.65350 (Simulation time: 0 hr 58 min 54 sec) 
Heartbeat CPU  0 instructions:  319000000 cycles:  485671180 heartbeat IPC: 0.91254 cumulative IPC: 0.65409 (Simulation time: 0 hr 59 min 14 sec) 
Heartbeat CPU  0 instructions:  320000000 cycles:  486842731 heartbeat IPC: 0.85357 cumulative IPC: 0.65457 (Simulation time: 0 hr 59 min 36 sec) 
Heartbeat CPU  0 instructions:  321000003 cycles:  488183504 heartbeat IPC: 0.74584 cumulative IPC: 0.65482 (Simulation time: 0 hr 59 min 56 sec) 
Heartbeat CPU  0 instructions:  322000001 cycles:  489389538 heartbeat IPC: 0.82916 cumulative IPC: 0.65525 (Simulation time: 1 hr 0 min 17 sec) 
Heartbeat CPU  0 instructions:  323000001 cycles:  490659799 heartbeat IPC: 0.78724 cumulative IPC: 0.65559 (Simulation time: 1 hr 0 min 44 sec) 
Heartbeat CPU  0 instructions:  324000000 cycles:  491888091 heartbeat IPC: 0.81414 cumulative IPC: 0.65599 (Simulation time: 1 hr 1 min 14 sec) 
Heartbeat CPU  0 instructions:  325000003 cycles:  493184023 heartbeat IPC: 0.77165 cumulative IPC: 0.65630 (Simulation time: 1 hr 1 min 43 sec) 
Heartbeat CPU  0 instructions:  326000003 cycles:  494470942 heartbeat IPC: 0.77705 cumulative IPC: 0.65661 (Simulation time: 1 hr 2 min 15 sec) 
Heartbeat CPU  0 instructions:  327000003 cycles:  495607361 heartbeat IPC: 0.87996 cumulative IPC: 0.65712 (Simulation time: 1 hr 2 min 43 sec) 
Heartbeat CPU  0 instructions:  328000000 cycles:  496786348 heartbeat IPC: 0.84818 cumulative IPC: 0.65758 (Simulation time: 1 hr 3 min 13 sec) 
Heartbeat CPU  0 instructions:  329000001 cycles:  498069353 heartbeat IPC: 0.77942 cumulative IPC: 0.65789 (Simulation time: 1 hr 3 min 35 sec) 
Heartbeat CPU  0 instructions:  330000003 cycles:  499321228 heartbeat IPC: 0.79880 cumulative IPC: 0.65825 (Simulation time: 1 hr 3 min 56 sec) 
Heartbeat CPU  0 instructions:  331000001 cycles:  500430728 heartbeat IPC: 0.90131 cumulative IPC: 0.65879 (Simulation time: 1 hr 4 min 15 sec) 
Heartbeat CPU  0 instructions:  332000000 cycles:  501640702 heartbeat IPC: 0.82646 cumulative IPC: 0.65919 (Simulation time: 1 hr 4 min 36 sec) 
Heartbeat CPU  0 instructions:  333000002 cycles:  502956388 heartbeat IPC: 0.76006 cumulative IPC: 0.65946 (Simulation time: 1 hr 4 min 57 sec) 
Heartbeat CPU  0 instructions:  334000003 cycles:  504146173 heartbeat IPC: 0.84049 cumulative IPC: 0.65988 (Simulation time: 1 hr 5 min 18 sec) 
Heartbeat CPU  0 instructions:  335000002 cycles:  505301174 heartbeat IPC: 0.86580 cumulative IPC: 0.66036 (Simulation time: 1 hr 5 min 39 sec) 
Heartbeat CPU  0 instructions:  336000000 cycles:  506592890 heartbeat IPC: 0.77416 cumulative IPC: 0.66065 (Simulation time: 1 hr 6 min 1 sec) 
Heartbeat CPU  0 instructions:  337000001 cycles:  507848353 heartbeat IPC: 0.79652 cumulative IPC: 0.66098 (Simulation time: 1 hr 6 min 22 sec) 
Heartbeat CPU  0 instructions:  338000001 cycles:  509085384 heartbeat IPC: 0.80839 cumulative IPC: 0.66134 (Simulation time: 1 hr 6 min 43 sec) 
Heartbeat CPU  0 instructions:  339000000 cycles:  510111399 heartbeat IPC: 0.97464 cumulative IPC: 0.66197 (Simulation time: 1 hr 6 min 58 sec) 
Heartbeat CPU  0 instructions:  340000000 cycles:  510740088 heartbeat IPC: 1.59061 cumulative IPC: 0.66312 (Simulation time: 1 hr 7 min 6 sec) 
Heartbeat CPU  0 instructions:  341000000 cycles:  511163693 heartbeat IPC: 2.36069 cumulative IPC: 0.66453 (Simulation time: 1 hr 7 min 9 sec) 
Heartbeat CPU  0 instructions:  342000001 cycles:  512145685 heartbeat IPC: 1.01834 cumulative IPC: 0.66521 (Simulation time: 1 hr 7 min 14 sec) 
Heartbeat CPU  0 instructions:  343000001 cycles:  513337417 heartbeat IPC: 0.83911 cumulative IPC: 0.66561 (Simulation time: 1 hr 7 min 22 sec) 
Heartbeat CPU  0 instructions:  344000000 cycles:  514204079 heartbeat IPC: 1.15385 cumulative IPC: 0.66644 (Simulation time: 1 hr 7 min 30 sec) 
Heartbeat CPU  0 instructions:  345000000 cycles:  515102763 heartbeat IPC: 1.11274 cumulative IPC: 0.66722 (Simulation time: 1 hr 7 min 39 sec) 
Heartbeat CPU  0 instructions:  346000001 cycles:  516001348 heartbeat IPC: 1.11286 cumulative IPC: 0.66800 (Simulation time: 1 hr 7 min 47 sec) 
Heartbeat CPU  0 instructions:  347000000 cycles:  516894923 heartbeat IPC: 1.11910 cumulative IPC: 0.66878 (Simulation time: 1 hr 7 min 54 sec) 
Heartbeat CPU  0 instructions:  348000000 cycles:  517798352 heartbeat IPC: 1.10689 cumulative IPC: 0.66954 (Simulation time: 1 hr 8 min 1 sec) 
Heartbeat CPU  0 instructions:  349000000 cycles:  518711972 heartbeat IPC: 1.09455 cumulative IPC: 0.67029 (Simulation time: 1 hr 8 min 9 sec) 
Heartbeat CPU  0 instructions:  350000003 cycles:  519642188 heartbeat IPC: 1.07502 cumulative IPC: 0.67102 (Simulation time: 1 hr 8 min 17 sec) 
Heartbeat CPU  0 instructions:  351000003 cycles:  520562600 heartbeat IPC: 1.08647 cumulative IPC: 0.67176 (Simulation time: 1 hr 8 min 24 sec) 
Heartbeat CPU  0 instructions:  352000000 cycles:  521468681 heartbeat IPC: 1.10365 cumulative IPC: 0.67251 (Simulation time: 1 hr 8 min 32 sec) 
Heartbeat CPU  0 instructions:  353000000 cycles:  522402150 heartbeat IPC: 1.07127 cumulative IPC: 0.67322 (Simulation time: 1 hr 8 min 40 sec) 
Heartbeat CPU  0 instructions:  354000000 cycles:  523637494 heartbeat IPC: 0.80949 cumulative IPC: 0.67354 (Simulation time: 1 hr 8 min 50 sec) 
Heartbeat CPU  0 instructions:  355000000 cycles:  524866733 heartbeat IPC: 0.81351 cumulative IPC: 0.67387 (Simulation time: 1 hr 9 min 1 sec) 
Heartbeat CPU  0 instructions:  356000000 cycles:  526101395 heartbeat IPC: 0.80994 cumulative IPC: 0.67419 (Simulation time: 1 hr 9 min 12 sec) 
Heartbeat CPU  0 instructions:  357000003 cycles:  527330012 heartbeat IPC: 0.81393 cumulative IPC: 0.67452 (Simulation time: 1 hr 9 min 22 sec) 
Heartbeat CPU  0 instructions:  358000001 cycles:  528570371 heartbeat IPC: 0.80622 cumulative IPC: 0.67483 (Simulation time: 1 hr 9 min 33 sec) 
Heartbeat CPU  0 instructions:  359000001 cycles:  529773547 heartbeat IPC: 0.83113 cumulative IPC: 0.67518 (Simulation time: 1 hr 9 min 43 sec) 
Heartbeat CPU  0 instructions:  360000000 cycles:  531000380 heartbeat IPC: 0.81511 cumulative IPC: 0.67551 (Simulation time: 1 hr 9 min 54 sec) 
Heartbeat CPU  0 instructions:  361000001 cycles:  532235321 heartbeat IPC: 0.80976 cumulative IPC: 0.67582 (Simulation time: 1 hr 10 min 5 sec) 
Heartbeat CPU  0 instructions:  362000001 cycles:  533447022 heartbeat IPC: 0.82529 cumulative IPC: 0.67616 (Simulation time: 1 hr 10 min 15 sec) 
Heartbeat CPU  0 instructions:  363000000 cycles:  534685593 heartbeat IPC: 0.80738 cumulative IPC: 0.67646 (Simulation time: 1 hr 10 min 27 sec) 
Heartbeat CPU  0 instructions:  364000000 cycles:  535915459 heartbeat IPC: 0.81310 cumulative IPC: 0.67678 (Simulation time: 1 hr 10 min 39 sec) 
Heartbeat CPU  0 instructions:  365000002 cycles:  537172016 heartbeat IPC: 0.79583 cumulative IPC: 0.67706 (Simulation time: 1 hr 10 min 50 sec) 
Heartbeat CPU  0 instructions:  366000001 cycles:  538427200 heartbeat IPC: 0.79670 cumulative IPC: 0.67734 (Simulation time: 1 hr 11 min 1 sec) 
Heartbeat CPU  0 instructions:  367000002 cycles:  539676025 heartbeat IPC: 0.80075 cumulative IPC: 0.67762 (Simulation time: 1 hr 11 min 15 sec) 
Heartbeat CPU  0 instructions:  368000000 cycles:  540899923 heartbeat IPC: 0.81706 cumulative IPC: 0.67794 (Simulation time: 1 hr 11 min 24 sec) 
Heartbeat CPU  0 instructions:  369000001 cycles:  542134002 heartbeat IPC: 0.81032 cumulative IPC: 0.67824 (Simulation time: 1 hr 11 min 36 sec) 
Heartbeat CPU  0 instructions:  370000002 cycles:  543289276 heartbeat IPC: 0.86560 cumulative IPC: 0.67864 (Simulation time: 1 hr 11 min 44 sec) 
Heartbeat CPU  0 instructions:  371000002 cycles:  544545274 heartbeat IPC: 0.79618 cumulative IPC: 0.67891 (Simulation time: 1 hr 11 min 56 sec) 
Heartbeat CPU  0 instructions:  372000000 cycles:  545793915 heartbeat IPC: 0.80087 cumulative IPC: 0.67919 (Simulation time: 1 hr 12 min 13 sec) 
Heartbeat CPU  0 instructions:  373000000 cycles:  547043658 heartbeat IPC: 0.80016 cumulative IPC: 0.67947 (Simulation time: 1 hr 12 min 40 sec) 
Heartbeat CPU  0 instructions:  374000002 cycles:  548294095 heartbeat IPC: 0.79972 cumulative IPC: 0.67974 (Simulation time: 1 hr 13 min 4 sec) 
Heartbeat CPU  0 instructions:  375000000 cycles:  549536794 heartbeat IPC: 0.80470 cumulative IPC: 0.68003 (Simulation time: 1 hr 13 min 18 sec) 
Heartbeat CPU  0 instructions:  376000000 cycles:  550778693 heartbeat IPC: 0.80522 cumulative IPC: 0.68031 (Simulation time: 1 hr 13 min 30 sec) 
Heartbeat CPU  0 instructions:  377000003 cycles:  552015798 heartbeat IPC: 0.80834 cumulative IPC: 0.68060 (Simulation time: 1 hr 13 min 42 sec) 
Heartbeat CPU  0 instructions:  378000001 cycles:  553252012 heartbeat IPC: 0.80892 cumulative IPC: 0.68088 (Simulation time: 1 hr 13 min 52 sec) 
Heartbeat CPU  0 instructions:  379000000 cycles:  554515976 heartbeat IPC: 0.79116 cumulative IPC: 0.68114 (Simulation time: 1 hr 14 min 5 sec) 
Heartbeat CPU  0 instructions:  380000000 cycles:  555758624 heartbeat IPC: 0.80473 cumulative IPC: 0.68141 (Simulation time: 1 hr 14 min 15 sec) 
Heartbeat CPU  0 instructions:  381000002 cycles:  557011879 heartbeat IPC: 0.79792 cumulative IPC: 0.68167 (Simulation time: 1 hr 14 min 24 sec) 
Heartbeat CPU  0 instructions:  382000002 cycles:  558253296 heartbeat IPC: 0.80553 cumulative IPC: 0.68195 (Simulation time: 1 hr 14 min 34 sec) 
Heartbeat CPU  0 instructions:  383000002 cycles:  559495101 heartbeat IPC: 0.80528 cumulative IPC: 0.68222 (Simulation time: 1 hr 14 min 47 sec) 
Heartbeat CPU  0 instructions:  384000000 cycles:  560724277 heartbeat IPC: 0.81355 cumulative IPC: 0.68251 (Simulation time: 1 hr 15 min 1 sec) 
Heartbeat CPU  0 instructions:  385000003 cycles:  561965651 heartbeat IPC: 0.80556 cumulative IPC: 0.68279 (Simulation time: 1 hr 15 min 10 sec) 
Heartbeat CPU  0 instructions:  386000002 cycles:  563174831 heartbeat IPC: 0.82701 cumulative IPC: 0.68310 (Simulation time: 1 hr 15 min 19 sec) 
Heartbeat CPU  0 instructions:  387000001 cycles:  564413230 heartbeat IPC: 0.80749 cumulative IPC: 0.68337 (Simulation time: 1 hr 15 min 33 sec) 
Heartbeat CPU  0 instructions:  388000000 cycles:  565637171 heartbeat IPC: 0.81703 cumulative IPC: 0.68366 (Simulation time: 1 hr 15 min 47 sec) 
Heartbeat CPU  0 instructions:  389000002 cycles:  566904722 heartbeat IPC: 0.78892 cumulative IPC: 0.68389 (Simulation time: 1 hr 16 min 1 sec) 
Heartbeat CPU  0 instructions:  390000001 cycles:  568157973 heartbeat IPC: 0.79792 cumulative IPC: 0.68415 (Simulation time: 1 hr 16 min 19 sec) 
Heartbeat CPU  0 instructions:  391000003 cycles:  569406593 heartbeat IPC: 0.80089 cumulative IPC: 0.68440 (Simulation time: 1 hr 16 min 34 sec) 
Heartbeat CPU  0 instructions:  392000000 cycles:  570669075 heartbeat IPC: 0.79209 cumulative IPC: 0.68464 (Simulation time: 1 hr 16 min 49 sec) 
Heartbeat CPU  0 instructions:  393000001 cycles:  571919182 heartbeat IPC: 0.79993 cumulative IPC: 0.68489 (Simulation time: 1 hr 17 min 5 sec) 
Heartbeat CPU  0 instructions:  394000001 cycles:  573130561 heartbeat IPC: 0.82551 cumulative IPC: 0.68519 (Simulation time: 1 hr 17 min 18 sec) 
Heartbeat CPU  0 instructions:  395000000 cycles:  574241103 heartbeat IPC: 0.90046 cumulative IPC: 0.68561 (Simulation time: 1 hr 17 min 34 sec) 
Heartbeat CPU  0 instructions:  396000000 cycles:  575286513 heartbeat IPC: 0.95656 cumulative IPC: 0.68610 (Simulation time: 1 hr 17 min 48 sec) 
Heartbeat CPU  0 instructions:  397000002 cycles:  576321523 heartbeat IPC: 0.96618 cumulative IPC: 0.68661 (Simulation time: 1 hr 18 min 1 sec) 
Heartbeat CPU  0 instructions:  398000001 cycles:  577348336 heartbeat IPC: 0.97389 cumulative IPC: 0.68712 (Simulation time: 1 hr 18 min 14 sec) 
Heartbeat CPU  0 instructions:  399000003 cycles:  578375475 heartbeat IPC: 0.97358 cumulative IPC: 0.68763 (Simulation time: 1 hr 18 min 29 sec) 
Heartbeat CPU  0 instructions:  400000000 cycles:  579410799 heartbeat IPC: 0.96588 cumulative IPC: 0.68813 (Simulation time: 1 hr 18 min 43 sec) 
Heartbeat CPU  0 instructions:  401000001 cycles:  580433701 heartbeat IPC: 0.97761 cumulative IPC: 0.68864 (Simulation time: 1 hr 18 min 55 sec) 
Heartbeat CPU  0 instructions:  402000003 cycles:  581467357 heartbeat IPC: 0.96744 cumulative IPC: 0.68913 (Simulation time: 1 hr 19 min 8 sec) 
Heartbeat CPU  0 instructions:  403000003 cycles:  582499608 heartbeat IPC: 0.96876 cumulative IPC: 0.68963 (Simulation time: 1 hr 19 min 21 sec) 
Heartbeat CPU  0 instructions:  404000000 cycles:  583525091 heartbeat IPC: 0.97515 cumulative IPC: 0.69013 (Simulation time: 1 hr 19 min 36 sec) 
Heartbeat CPU  0 instructions:  405000002 cycles:  584535585 heartbeat IPC: 0.98962 cumulative IPC: 0.69065 (Simulation time: 1 hr 19 min 50 sec) 
Heartbeat CPU  0 instructions:  406000002 cycles:  585555191 heartbeat IPC: 0.98077 cumulative IPC: 0.69116 (Simulation time: 1 hr 20 min 6 sec) 
Heartbeat CPU  0 instructions:  407000001 cycles:  586561076 heartbeat IPC: 0.99415 cumulative IPC: 0.69168 (Simulation time: 1 hr 20 min 24 sec) 
Heartbeat CPU  0 instructions:  408000000 cycles:  587572593 heartbeat IPC: 0.98861 cumulative IPC: 0.69219 (Simulation time: 1 hr 20 min 39 sec) 
Heartbeat CPU  0 instructions:  409000003 cycles:  588574068 heartbeat IPC: 0.99853 cumulative IPC: 0.69271 (Simulation time: 1 hr 20 min 54 sec) 
Heartbeat CPU  0 instructions:  410000003 cycles:  589547044 heartbeat IPC: 1.02777 cumulative IPC: 0.69327 (Simulation time: 1 hr 21 min 12 sec) 
Heartbeat CPU  0 instructions:  411000000 cycles:  590860016 heartbeat IPC: 0.76163 cumulative IPC: 0.69342 (Simulation time: 1 hr 21 min 34 sec) 
Heartbeat CPU  0 instructions:  412000000 cycles:  592105716 heartbeat IPC: 0.80276 cumulative IPC: 0.69365 (Simulation time: 1 hr 21 min 50 sec) 
Heartbeat CPU  0 instructions:  413000000 cycles:  593348156 heartbeat IPC: 0.80487 cumulative IPC: 0.69388 (Simulation time: 1 hr 22 min 14 sec) 
Heartbeat CPU  0 instructions:  414000003 cycles:  594588387 heartbeat IPC: 0.80630 cumulative IPC: 0.69412 (Simulation time: 1 hr 22 min 36 sec) 
Heartbeat CPU  0 instructions:  415000002 cycles:  595792417 heartbeat IPC: 0.83054 cumulative IPC: 0.69439 (Simulation time: 1 hr 22 min 52 sec) 
Heartbeat CPU  0 instructions:  416000000 cycles:  596990874 heartbeat IPC: 0.83440 cumulative IPC: 0.69467 (Simulation time: 1 hr 23 min 7 sec) 
Heartbeat CPU  0 instructions:  417000003 cycles:  598192773 heartbeat IPC: 0.83202 cumulative IPC: 0.69495 (Simulation time: 1 hr 23 min 24 sec) 
Heartbeat CPU  0 instructions:  418000001 cycles:  599388555 heartbeat IPC: 0.83627 cumulative IPC: 0.69523 (Simulation time: 1 hr 23 min 40 sec) 
Heartbeat CPU  0 instructions:  419000003 cycles:  600589470 heartbeat IPC: 0.83270 cumulative IPC: 0.69551 (Simulation time: 1 hr 23 min 55 sec) 
Heartbeat CPU  0 instructions:  420000000 cycles:  601816468 heartbeat IPC: 0.81499 cumulative IPC: 0.69575 (Simulation time: 1 hr 24 min 13 sec) 
Heartbeat CPU  0 instructions:  421000002 cycles:  603034828 heartbeat IPC: 0.82078 cumulative IPC: 0.69601 (Simulation time: 1 hr 24 min 26 sec) 
Heartbeat CPU  0 instructions:  422000001 cycles:  604241325 heartbeat IPC: 0.82885 cumulative IPC: 0.69627 (Simulation time: 1 hr 24 min 40 sec) 
Heartbeat CPU  0 instructions:  423000001 cycles:  605472784 heartbeat IPC: 0.81204 cumulative IPC: 0.69651 (Simulation time: 1 hr 24 min 55 sec) 
Heartbeat CPU  0 instructions:  424000000 cycles:  606690771 heartbeat IPC: 0.82103 cumulative IPC: 0.69676 (Simulation time: 1 hr 25 min 8 sec) 
Heartbeat CPU  0 instructions:  425000000 cycles:  607916821 heartbeat IPC: 0.81563 cumulative IPC: 0.69700 (Simulation time: 1 hr 25 min 26 sec) 
Heartbeat CPU  0 instructions:  426000001 cycles:  609142534 heartbeat IPC: 0.81585 cumulative IPC: 0.69724 (Simulation time: 1 hr 25 min 42 sec) 
Heartbeat CPU  0 instructions:  427000001 cycles:  610386497 heartbeat IPC: 0.80388 cumulative IPC: 0.69745 (Simulation time: 1 hr 26 min 0 sec) 
Heartbeat CPU  0 instructions:  428000000 cycles:  611622800 heartbeat IPC: 0.80886 cumulative IPC: 0.69768 (Simulation time: 1 hr 26 min 24 sec) 
Heartbeat CPU  0 instructions:  429000000 cycles:  612885582 heartbeat IPC: 0.79190 cumulative IPC: 0.69787 (Simulation time: 1 hr 26 min 57 sec) 
Heartbeat CPU  0 instructions:  430000003 cycles:  614159389 heartbeat IPC: 0.78505 cumulative IPC: 0.69806 (Simulation time: 1 hr 27 min 21 sec) 
Heartbeat CPU  0 instructions:  431000001 cycles:  615421423 heartbeat IPC: 0.79237 cumulative IPC: 0.69825 (Simulation time: 1 hr 27 min 49 sec) 
Heartbeat CPU  0 instructions:  432000000 cycles:  616654633 heartbeat IPC: 0.81089 cumulative IPC: 0.69848 (Simulation time: 1 hr 28 min 7 sec) 
Heartbeat CPU  0 instructions:  433000000 cycles:  617876719 heartbeat IPC: 0.81827 cumulative IPC: 0.69871 (Simulation time: 1 hr 28 min 23 sec) 
Heartbeat CPU  0 instructions:  434000003 cycles:  619124813 heartbeat IPC: 0.80122 cumulative IPC: 0.69892 (Simulation time: 1 hr 28 min 40 sec) 
Heartbeat CPU  0 instructions:  435000002 cycles:  620294921 heartbeat IPC: 0.85462 cumulative IPC: 0.69921 (Simulation time: 1 hr 28 min 54 sec) 
Heartbeat CPU  0 instructions:  436000000 cycles:  621513182 heartbeat IPC: 0.82084 cumulative IPC: 0.69945 (Simulation time: 1 hr 29 min 11 sec) 
Heartbeat CPU  0 instructions:  437000003 cycles:  622735575 heartbeat IPC: 0.81807 cumulative IPC: 0.69969 (Simulation time: 1 hr 29 min 32 sec) 
Heartbeat CPU  0 instructions:  438000003 cycles:  623955844 heartbeat IPC: 0.81949 cumulative IPC: 0.69992 (Simulation time: 1 hr 29 min 56 sec) 
Heartbeat CPU  0 instructions:  439000002 cycles:  625184232 heartbeat IPC: 0.81407 cumulative IPC: 0.70015 (Simulation time: 1 hr 30 min 12 sec) 
Heartbeat CPU  0 instructions:  440000000 cycles:  626425213 heartbeat IPC: 0.80581 cumulative IPC: 0.70036 (Simulation time: 1 hr 30 min 31 sec) 
Heartbeat CPU  0 instructions:  441000001 cycles:  627655337 heartbeat IPC: 0.81293 cumulative IPC: 0.70058 (Simulation time: 1 hr 30 min 47 sec) 
Heartbeat CPU  0 instructions:  442000001 cycles:  628868414 heartbeat IPC: 0.82435 cumulative IPC: 0.70082 (Simulation time: 1 hr 31 min 2 sec) 
Heartbeat CPU  0 instructions:  443000003 cycles:  630095610 heartbeat IPC: 0.81487 cumulative IPC: 0.70104 (Simulation time: 1 hr 31 min 23 sec) 
Heartbeat CPU  0 instructions:  444000000 cycles:  631318727 heartbeat IPC: 0.81758 cumulative IPC: 0.70126 (Simulation time: 1 hr 31 min 48 sec) 
Heartbeat CPU  0 instructions:  445000001 cycles:  632559375 heartbeat IPC: 0.80603 cumulative IPC: 0.70147 (Simulation time: 1 hr 32 min 6 sec) 
Heartbeat CPU  0 instructions:  446000000 cycles:  633784794 heartbeat IPC: 0.81605 cumulative IPC: 0.70169 (Simulation time: 1 hr 32 min 28 sec) 
Heartbeat CPU  0 instructions:  447000003 cycles:  635025469 heartbeat IPC: 0.80602 cumulative IPC: 0.70190 (Simulation time: 1 hr 32 min 53 sec) 
Heartbeat CPU  0 instructions:  448000000 cycles:  636249001 heartbeat IPC: 0.81730 cumulative IPC: 0.70212 (Simulation time: 1 hr 33 min 28 sec) 
Heartbeat CPU  0 instructions:  449000001 cycles:  637480931 heartbeat IPC: 0.81174 cumulative IPC: 0.70233 (Simulation time: 1 hr 34 min 0 sec) 
Heartbeat CPU  0 instructions:  450000000 cycles:  638733540 heartbeat IPC: 0.79833 cumulative IPC: 0.70252 (Simulation time: 1 hr 34 min 37 sec) 
Heartbeat CPU  0 instructions:  451000002 cycles:  639987401 heartbeat IPC: 0.79754 cumulative IPC: 0.70271 (Simulation time: 1 hr 35 min 4 sec) 
Heartbeat CPU  0 instructions:  452000000 cycles:  641255482 heartbeat IPC: 0.78859 cumulative IPC: 0.70288 (Simulation time: 1 hr 35 min 39 sec) 
Heartbeat CPU  0 instructions:  453000003 cycles:  642506208 heartbeat IPC: 0.79954 cumulative IPC: 0.70306 (Simulation time: 1 hr 36 min 20 sec) 
Heartbeat CPU  0 instructions:  454000001 cycles:  643772428 heartbeat IPC: 0.78975 cumulative IPC: 0.70323 (Simulation time: 1 hr 36 min 59 sec) 
Heartbeat CPU  0 instructions:  455000002 cycles:  645026730 heartbeat IPC: 0.79726 cumulative IPC: 0.70342 (Simulation time: 1 hr 37 min 31 sec) 
Heartbeat CPU  0 instructions:  456000000 cycles:  646274980 heartbeat IPC: 0.80112 cumulative IPC: 0.70361 (Simulation time: 1 hr 38 min 1 sec) 
Heartbeat CPU  0 instructions:  457000001 cycles:  647531414 heartbeat IPC: 0.79590 cumulative IPC: 0.70379 (Simulation time: 1 hr 38 min 50 sec) 
Heartbeat CPU  0 instructions:  458000002 cycles:  648781195 heartbeat IPC: 0.80014 cumulative IPC: 0.70397 (Simulation time: 1 hr 39 min 26 sec) 
Heartbeat CPU  0 instructions:  459000002 cycles:  649955978 heartbeat IPC: 0.85122 cumulative IPC: 0.70424 (Simulation time: 1 hr 39 min 51 sec) 
Heartbeat CPU  0 instructions:  460000000 cycles:  650974145 heartbeat IPC: 0.98216 cumulative IPC: 0.70467 (Simulation time: 1 hr 40 min 21 sec) 
Heartbeat CPU  0 instructions:  461000001 cycles:  651997959 heartbeat IPC: 0.97674 cumulative IPC: 0.70510 (Simulation time: 1 hr 40 min 57 sec) 
Heartbeat CPU  0 instructions:  462000002 cycles:  652993464 heartbeat IPC: 1.00452 cumulative IPC: 0.70556 (Simulation time: 1 hr 41 min 19 sec) 
Heartbeat CPU  0 instructions:  463000002 cycles:  653981361 heartbeat IPC: 1.01225 cumulative IPC: 0.70602 (Simulation time: 1 hr 41 min 51 sec) 
Heartbeat CPU  0 instructions:  464000000 cycles:  654991292 heartbeat IPC: 0.99016 cumulative IPC: 0.70646 (Simulation time: 1 hr 42 min 31 sec) 
Heartbeat CPU  0 instructions:  465000000 cycles:  656000029 heartbeat IPC: 0.99134 cumulative IPC: 0.70690 (Simulation time: 1 hr 43 min 2 sec) 
Heartbeat CPU  0 instructions:  466000000 cycles:  657004311 heartbeat IPC: 0.99574 cumulative IPC: 0.70734 (Simulation time: 1 hr 43 min 30 sec) 
Heartbeat CPU  0 instructions:  467000003 cycles:  658013279 heartbeat IPC: 0.99111 cumulative IPC: 0.70778 (Simulation time: 1 hr 44 min 4 sec) 
Heartbeat CPU  0 instructions:  468000000 cycles:  659015050 heartbeat IPC: 0.99823 cumulative IPC: 0.70822 (Simulation time: 1 hr 44 min 37 sec) 
Heartbeat CPU  0 instructions:  469000002 cycles:  660023495 heartbeat IPC: 0.99163 cumulative IPC: 0.70865 (Simulation time: 1 hr 45 min 9 sec) 
Heartbeat CPU  0 instructions:  470000003 cycles:  661042883 heartbeat IPC: 0.98098 cumulative IPC: 0.70908 (Simulation time: 1 hr 45 min 46 sec) 
Heartbeat CPU  0 instructions:  471000000 cycles:  662054707 heartbeat IPC: 0.98831 cumulative IPC: 0.70950 (Simulation time: 1 hr 46 min 14 sec) 
Heartbeat CPU  0 instructions:  472000000 cycles:  663044308 heartbeat IPC: 1.01051 cumulative IPC: 0.70995 (Simulation time: 1 hr 46 min 47 sec) 
Heartbeat CPU  0 instructions:  473000001 cycles:  664045296 heartbeat IPC: 0.99901 cumulative IPC: 0.71039 (Simulation time: 1 hr 47 min 27 sec) 
Heartbeat CPU  0 instructions:  474000002 cycles:  665034252 heartbeat IPC: 1.01117 cumulative IPC: 0.71084 (Simulation time: 1 hr 47 min 52 sec) 
Heartbeat CPU  0 instructions:  475000002 cycles:  665702662 heartbeat IPC: 1.49609 cumulative IPC: 0.71163 (Simulation time: 1 hr 48 min 0 sec) 
Heartbeat CPU  0 instructions:  476000000 cycles:  671276740 heartbeat IPC: 0.17940 cumulative IPC: 0.70720 (Simulation time: 1 hr 48 min 42 sec) 
Heartbeat CPU  0 instructions:  477000001 cycles:  679118189 heartbeat IPC: 0.12753 cumulative IPC: 0.70050 (Simulation time: 1 hr 49 min 29 sec) 
Heartbeat CPU  0 instructions:  478000002 cycles:  686859074 heartbeat IPC: 0.12918 cumulative IPC: 0.69405 (Simulation time: 1 hr 50 min 6 sec) 
Heartbeat CPU  0 instructions:  479000001 cycles:  694733027 heartbeat IPC: 0.12700 cumulative IPC: 0.68761 (Simulation time: 1 hr 50 min 39 sec) 
Heartbeat CPU  0 instructions:  480000000 cycles:  702063129 heartbeat IPC: 0.13642 cumulative IPC: 0.68185 (Simulation time: 1 hr 51 min 5 sec) 
Heartbeat CPU  0 instructions:  481000000 cycles:  704820403 heartbeat IPC: 0.36268 cumulative IPC: 0.68060 (Simulation time: 1 hr 51 min 16 sec) 
Heartbeat CPU  0 instructions:  482000000 cycles:  707341783 heartbeat IPC: 0.39661 cumulative IPC: 0.67958 (Simulation time: 1 hr 51 min 24 sec) 
Heartbeat CPU  0 instructions:  483000000 cycles:  709820672 heartbeat IPC: 0.40341 cumulative IPC: 0.67862 (Simulation time: 1 hr 51 min 33 sec) 
Heartbeat CPU  0 instructions:  484000000 cycles:  712321087 heartbeat IPC: 0.39993 cumulative IPC: 0.67764 (Simulation time: 1 hr 51 min 42 sec) 
Heartbeat CPU  0 instructions:  485000002 cycles:  714718487 heartbeat IPC: 0.41712 cumulative IPC: 0.67676 (Simulation time: 1 hr 51 min 50 sec) 
Heartbeat CPU  0 instructions:  486000000 cycles:  717144619 heartbeat IPC: 0.41218 cumulative IPC: 0.67587 (Simulation time: 1 hr 51 min 59 sec) 
Heartbeat CPU  0 instructions:  487000003 cycles:  719564327 heartbeat IPC: 0.41327 cumulative IPC: 0.67498 (Simulation time: 1 hr 52 min 7 sec) 
Heartbeat CPU  0 instructions:  488000000 cycles:  721974828 heartbeat IPC: 0.41485 cumulative IPC: 0.67411 (Simulation time: 1 hr 52 min 16 sec) 
Heartbeat CPU  0 instructions:  489000003 cycles:  724389218 heartbeat IPC: 0.41418 cumulative IPC: 0.67325 (Simulation time: 1 hr 52 min 25 sec) 
Heartbeat CPU  0 instructions:  490000000 cycles:  726834875 heartbeat IPC: 0.40889 cumulative IPC: 0.67236 (Simulation time: 1 hr 52 min 36 sec) 
Heartbeat CPU  0 instructions:  491000000 cycles:  729313778 heartbeat IPC: 0.40340 cumulative IPC: 0.67144 (Simulation time: 1 hr 52 min 44 sec) 
Heartbeat CPU  0 instructions:  492000000 cycles:  731762638 heartbeat IPC: 0.40835 cumulative IPC: 0.67056 (Simulation time: 1 hr 52 min 52 sec) 
Heartbeat CPU  0 instructions:  493000000 cycles:  734178589 heartbeat IPC: 0.41392 cumulative IPC: 0.66971 (Simulation time: 1 hr 53 min 1 sec) 
Heartbeat CPU  0 instructions:  494000000 cycles:  736596958 heartbeat IPC: 0.41350 cumulative IPC: 0.66887 (Simulation time: 1 hr 53 min 9 sec) 
Heartbeat CPU  0 instructions:  495000000 cycles:  739005607 heartbeat IPC: 0.41517 cumulative IPC: 0.66804 (Simulation time: 1 hr 53 min 18 sec) 
Heartbeat CPU  0 instructions:  496000000 cycles:  741502347 heartbeat IPC: 0.40052 cumulative IPC: 0.66714 (Simulation time: 1 hr 53 min 26 sec) 
Heartbeat CPU  0 instructions:  497000000 cycles:  743917197 heartbeat IPC: 0.41410 cumulative IPC: 0.66632 (Simulation time: 1 hr 53 min 34 sec) 
Heartbeat CPU  0 instructions:  498000001 cycles:  746398148 heartbeat IPC: 0.40307 cumulative IPC: 0.66544 (Simulation time: 1 hr 53 min 43 sec) 
Heartbeat CPU  0 instructions:  499000002 cycles:  748848601 heartbeat IPC: 0.40809 cumulative IPC: 0.66460 (Simulation time: 1 hr 53 min 52 sec) 
Heartbeat CPU  0 instructions:  500000000 cycles:  751285472 heartbeat IPC: 0.41036 cumulative IPC: 0.66377 (Simulation time: 1 hr 53 min 59 sec) 
Heartbeat CPU  0 instructions:  501000002 cycles:  753730087 heartbeat IPC: 0.40906 cumulative IPC: 0.66295 (Simulation time: 1 hr 54 min 8 sec) 
Heartbeat CPU  0 instructions:  502000002 cycles:  756163536 heartbeat IPC: 0.41094 cumulative IPC: 0.66213 (Simulation time: 1 hr 54 min 16 sec) 
Heartbeat CPU  0 instructions:  503000003 cycles:  758586499 heartbeat IPC: 0.41272 cumulative IPC: 0.66134 (Simulation time: 1 hr 54 min 25 sec) 
Heartbeat CPU  0 instructions:  504000000 cycles:  761067166 heartbeat IPC: 0.40312 cumulative IPC: 0.66049 (Simulation time: 1 hr 54 min 33 sec) 
Heartbeat CPU  0 instructions:  505000000 cycles:  763530853 heartbeat IPC: 0.40590 cumulative IPC: 0.65967 (Simulation time: 1 hr 54 min 41 sec) 
Heartbeat CPU  0 instructions:  506000003 cycles:  765962806 heartbeat IPC: 0.41119 cumulative IPC: 0.65888 (Simulation time: 1 hr 54 min 49 sec) 
Heartbeat CPU  0 instructions:  507000003 cycles:  768393364 heartbeat IPC: 0.41143 cumulative IPC: 0.65810 (Simulation time: 1 hr 54 min 58 sec) 
Heartbeat CPU  0 instructions:  508000000 cycles:  770841259 heartbeat IPC: 0.40851 cumulative IPC: 0.65730 (Simulation time: 1 hr 55 min 6 sec) 
Heartbeat CPU  0 instructions:  509000002 cycles:  773284362 heartbeat IPC: 0.40932 cumulative IPC: 0.65652 (Simulation time: 1 hr 55 min 14 sec) 
Heartbeat CPU  0 instructions:  510000002 cycles:  775784083 heartbeat IPC: 0.40004 cumulative IPC: 0.65569 (Simulation time: 1 hr 55 min 23 sec) 
Heartbeat CPU  0 instructions:  511000000 cycles:  778309207 heartbeat IPC: 0.39602 cumulative IPC: 0.65485 (Simulation time: 1 hr 55 min 30 sec) 
Heartbeat CPU  0 instructions:  512000000 cycles:  780763595 heartbeat IPC: 0.40743 cumulative IPC: 0.65407 (Simulation time: 1 hr 55 min 39 sec) 
Heartbeat CPU  0 instructions:  513000003 cycles:  783175816 heartbeat IPC: 0.41456 cumulative IPC: 0.65333 (Simulation time: 1 hr 55 min 47 sec) 
Heartbeat CPU  0 instructions:  514000002 cycles:  785611411 heartbeat IPC: 0.41058 cumulative IPC: 0.65258 (Simulation time: 1 hr 55 min 55 sec) 
Heartbeat CPU  0 instructions:  515000002 cycles:  788024497 heartbeat IPC: 0.41441 cumulative IPC: 0.65185 (Simulation time: 1 hr 56 min 3 sec) 
Heartbeat CPU  0 instructions:  516000000 cycles:  790449842 heartbeat IPC: 0.41231 cumulative IPC: 0.65111 (Simulation time: 1 hr 56 min 13 sec) 
Heartbeat CPU  0 instructions:  517000000 cycles:  792883673 heartbeat IPC: 0.41087 cumulative IPC: 0.65037 (Simulation time: 1 hr 56 min 21 sec) 
Heartbeat CPU  0 instructions:  518000001 cycles:  795349501 heartbeat IPC: 0.40554 cumulative IPC: 0.64961 (Simulation time: 1 hr 56 min 29 sec) 
Heartbeat CPU  0 instructions:  519000003 cycles:  797779743 heartbeat IPC: 0.41148 cumulative IPC: 0.64888 (Simulation time: 1 hr 56 min 38 sec) 
Heartbeat CPU  0 instructions:  520000000 cycles:  800203647 heartbeat IPC: 0.41256 cumulative IPC: 0.64817 (Simulation time: 1 hr 56 min 46 sec) 
Heartbeat CPU  0 instructions:  521000003 cycles:  802628348 heartbeat IPC: 0.41242 cumulative IPC: 0.64745 (Simulation time: 1 hr 56 min 54 sec) 
Heartbeat CPU  0 instructions:  522000003 cycles:  805038427 heartbeat IPC: 0.41492 cumulative IPC: 0.64676 (Simulation time: 1 hr 57 min 2 sec) 
Heartbeat CPU  0 instructions:  523000000 cycles:  807466707 heartbeat IPC: 0.41181 cumulative IPC: 0.64605 (Simulation time: 1 hr 57 min 11 sec) 
Heartbeat CPU  0 instructions:  524000000 cycles:  809969571 heartbeat IPC: 0.39954 cumulative IPC: 0.64529 (Simulation time: 1 hr 57 min 19 sec) 
Heartbeat CPU  0 instructions:  525000000 cycles:  812504157 heartbeat IPC: 0.39454 cumulative IPC: 0.64450 (Simulation time: 1 hr 57 min 28 sec) 
Heartbeat CPU  0 instructions:  526000000 cycles:  814897581 heartbeat IPC: 0.41781 cumulative IPC: 0.64384 (Simulation time: 1 hr 57 min 36 sec) 
Heartbeat CPU  0 instructions:  527000002 cycles:  817282897 heartbeat IPC: 0.41923 cumulative IPC: 0.64318 (Simulation time: 1 hr 57 min 44 sec) 
Heartbeat CPU  0 instructions:  528000000 cycles:  819693609 heartbeat IPC: 0.41481 cumulative IPC: 0.64251 (Simulation time: 1 hr 57 min 52 sec) 
Heartbeat CPU  0 instructions:  529000002 cycles:  822106828 heartbeat IPC: 0.41439 cumulative IPC: 0.64184 (Simulation time: 1 hr 58 min 0 sec) 
Heartbeat CPU  0 instructions:  530000000 cycles:  824519861 heartbeat IPC: 0.41442 cumulative IPC: 0.64117 (Simulation time: 1 hr 58 min 8 sec) 
Heartbeat CPU  0 instructions:  531000000 cycles:  826943130 heartbeat IPC: 0.41267 cumulative IPC: 0.64050 (Simulation time: 1 hr 58 min 15 sec) 
Heartbeat CPU  0 instructions:  532000000 cycles:  829372259 heartbeat IPC: 0.41167 cumulative IPC: 0.63983 (Simulation time: 1 hr 58 min 23 sec) 
[...]
Heartbeat CPU  0 instructions: 1889000002 cycles: 2878432625 heartbeat IPC: 0.41290 cumulative IPC: 0.65580 (Simulation time: 6 hr 17 min 13 sec) 
Heartbeat CPU  0 instructions: 1890000001 cycles: 2880870428 heartbeat IPC: 0.41021 cumulative IPC: 0.65559 (Simulation time: 6 hr 17 min 18 sec) 
Heartbeat CPU  0 instructions: 1891000003 cycles: 2883286069 heartbeat IPC: 0.41397 cumulative IPC: 0.65539 (Simulation time: 6 hr 17 min 23 sec) 
Heartbeat CPU  0 instructions: 1892000000 cycles: 2885751519 heartbeat IPC: 0.40560 cumulative IPC: 0.65518 (Simulation time: 6 hr 17 min 28 sec) 
Heartbeat CPU  0 instructions: 1893000000 cycles: 2888241948 heartbeat IPC: 0.40154 cumulative IPC: 0.65496 (Simulation time: 6 hr 17 min 33 sec) 
Heartbeat CPU  0 instructions: 1894000001 cycles: 2890690065 heartbeat IPC: 0.40848 cumulative IPC: 0.65475 (Simulation time: 6 hr 17 min 39 sec) 
Heartbeat CPU  0 instructions: 1895000000 cycles: 2893144784 heartbeat IPC: 0.40738 cumulative IPC: 0.65454 (Simulation time: 6 hr 17 min 44 sec) 
Heartbeat CPU  0 instructions: 1896000000 cycles: 2895641322 heartbeat IPC: 0.40055 cumulative IPC: 0.65432 (Simulation time: 6 hr 17 min 49 sec) 
Heartbeat CPU  0 instructions: 1897000000 cycles: 2898075903 heartbeat IPC: 0.41075 cumulative IPC: 0.65411 (Simulation time: 6 hr 17 min 54 sec) 
Heartbeat CPU  0 instructions: 1898000003 cycles: 2900551160 heartbeat IPC: 0.40400 cumulative IPC: 0.65390 (Simulation time: 6 hr 17 min 59 sec) 
Heartbeat CPU  0 instructions: 1899000003 cycles: 2902983210 heartbeat IPC: 0.41118 cumulative IPC: 0.65370 (Simulation time: 6 hr 18 min 4 sec) 
Heartbeat CPU  0 instructions: 1900000000 cycles: 2905526910 heartbeat IPC: 0.39313 cumulative IPC: 0.65347 (Simulation time: 6 hr 18 min 9 sec) 
Heartbeat CPU  0 instructions: 1901000001 cycles: 2907983113 heartbeat IPC: 0.40713 cumulative IPC: 0.65326 (Simulation time: 6 hr 18 min 14 sec) 
Heartbeat CPU  0 instructions: 1902000003 cycles: 2910404833 heartbeat IPC: 0.41293 cumulative IPC: 0.65306 (Simulation time: 6 hr 18 min 19 sec) 
Heartbeat CPU  0 instructions: 1903000000 cycles: 2912844748 heartbeat IPC: 0.40985 cumulative IPC: 0.65286 (Simulation time: 6 hr 18 min 25 sec) 
Heartbeat CPU  0 instructions: 1904000000 cycles: 2915348883 heartbeat IPC: 0.39934 cumulative IPC: 0.65264 (Simulation time: 6 hr 18 min 30 sec) 
Heartbeat CPU  0 instructions: 1905000003 cycles: 2917787498 heartbeat IPC: 0.41007 cumulative IPC: 0.65244 (Simulation time: 6 hr 18 min 35 sec) 
Heartbeat CPU  0 instructions: 1906000000 cycles: 2920272729 heartbeat IPC: 0.40238 cumulative IPC: 0.65222 (Simulation time: 6 hr 18 min 40 sec) 
Heartbeat CPU  0 instructions: 1907000001 cycles: 2922737974 heartbeat IPC: 0.40564 cumulative IPC: 0.65202 (Simulation time: 6 hr 18 min 46 sec) 
Heartbeat CPU  0 instructions: 1908000000 cycles: 2925155591 heartbeat IPC: 0.41363 cumulative IPC: 0.65182 (Simulation time: 6 hr 18 min 51 sec) 
Heartbeat CPU  0 instructions: 1909000001 cycles: 2927589518 heartbeat IPC: 0.41086 cumulative IPC: 0.65162 (Simulation time: 6 hr 18 min 56 sec) 
Heartbeat CPU  0 instructions: 1910000000 cycles: 2930040926 heartbeat IPC: 0.40793 cumulative IPC: 0.65141 (Simulation time: 6 hr 19 min 1 sec) 
Heartbeat CPU  0 instructions: 1911000001 cycles: 2932502354 heartbeat IPC: 0.40627 cumulative IPC: 0.65121 (Simulation time: 6 hr 19 min 6 sec) 
Heartbeat CPU  0 instructions: 1912000000 cycles: 2933825067 heartbeat IPC: 0.75602 cumulative IPC: 0.65126 (Simulation time: 6 hr 19 min 9 sec) 
Heartbeat CPU  0 instructions: 1913000001 cycles: 2935115268 heartbeat IPC: 0.77507 cumulative IPC: 0.65131 (Simulation time: 6 hr 19 min 18 sec) 
Heartbeat CPU  0 instructions: 1914000003 cycles: 2936148670 heartbeat IPC: 0.96768 cumulative IPC: 0.65142 (Simulation time: 6 hr 19 min 28 sec) 
Heartbeat CPU  0 instructions: 1915000001 cycles: 2937107338 heartbeat IPC: 1.04311 cumulative IPC: 0.65155 (Simulation time: 6 hr 19 min 38 sec) 
Heartbeat CPU  0 instructions: 1916000000 cycles: 2937964172 heartbeat IPC: 1.16709 cumulative IPC: 0.65170 (Simulation time: 6 hr 19 min 47 sec) 
Heartbeat CPU  0 instructions: 1917000000 cycles: 2938738998 heartbeat IPC: 1.29061 cumulative IPC: 0.65187 (Simulation time: 6 hr 19 min 57 sec) 
Heartbeat CPU  0 instructions: 1918000002 cycles: 2939690842 heartbeat IPC: 1.05059 cumulative IPC: 0.65200 (Simulation time: 6 hr 20 min 6 sec) 
Heartbeat CPU  0 instructions: 1919000000 cycles: 2940660665 heartbeat IPC: 1.03111 cumulative IPC: 0.65212 (Simulation time: 6 hr 20 min 16 sec) 
Heartbeat CPU  0 instructions: 1920000000 cycles: 2941644134 heartbeat IPC: 1.01681 cumulative IPC: 0.65224 (Simulation time: 6 hr 20 min 26 sec) 
Heartbeat CPU  0 instructions: 1921000002 cycles: 2942535370 heartbeat IPC: 1.12204 cumulative IPC: 0.65239 (Simulation time: 6 hr 20 min 36 sec) 
Heartbeat CPU  0 instructions: 1922000003 cycles: 2943305128 heartbeat IPC: 1.29911 cumulative IPC: 0.65256 (Simulation time: 6 hr 20 min 46 sec) 
Heartbeat CPU  0 instructions: 1923000003 cycles: 2944232001 heartbeat IPC: 1.07890 cumulative IPC: 0.65269 (Simulation time: 6 hr 20 min 56 sec) 
Heartbeat CPU  0 instructions: 1924000000 cycles: 2945307961 heartbeat IPC: 0.92940 cumulative IPC: 0.65279 (Simulation time: 6 hr 21 min 8 sec) 
Heartbeat CPU  0 instructions: 1925000002 cycles: 2946588585 heartbeat IPC: 0.78087 cumulative IPC: 0.65285 (Simulation time: 6 hr 21 min 24 sec) 
Heartbeat CPU  0 instructions: 1926000000 cycles: 2947843545 heartbeat IPC: 0.79684 cumulative IPC: 0.65291 (Simulation time: 6 hr 21 min 39 sec) 
Heartbeat CPU  0 instructions: 1927000000 cycles: 2948968950 heartbeat IPC: 0.88857 cumulative IPC: 0.65300 (Simulation time: 6 hr 21 min 54 sec) 
Heartbeat CPU  0 instructions: 1928000000 cycles: 2950153136 heartbeat IPC: 0.84446 cumulative IPC: 0.65308 (Simulation time: 6 hr 22 min 10 sec) 
Heartbeat CPU  0 instructions: 1929000000 cycles: 2951507400 heartbeat IPC: 0.73841 cumulative IPC: 0.65311 (Simulation time: 6 hr 22 min 26 sec) 
Heartbeat CPU  0 instructions: 1930000003 cycles: 2952679986 heartbeat IPC: 0.85282 cumulative IPC: 0.65319 (Simulation time: 6 hr 22 min 40 sec) 
Heartbeat CPU  0 instructions: 1931000003 cycles: 2953843988 heartbeat IPC: 0.85911 cumulative IPC: 0.65327 (Simulation time: 6 hr 22 min 56 sec) 
Heartbeat CPU  0 instructions: 1932000000 cycles: 2955147491 heartbeat IPC: 0.76716 cumulative IPC: 0.65333 (Simulation time: 6 hr 23 min 11 sec) 
Heartbeat CPU  0 instructions: 1933000000 cycles: 2956475843 heartbeat IPC: 0.75281 cumulative IPC: 0.65337 (Simulation time: 6 hr 23 min 25 sec) 
Heartbeat CPU  0 instructions: 1934000002 cycles: 2958007839 heartbeat IPC: 0.65274 cumulative IPC: 0.65337 (Simulation time: 6 hr 23 min 41 sec) 
Heartbeat CPU  0 instructions: 1935000001 cycles: 2959217488 heartbeat IPC: 0.82669 cumulative IPC: 0.65344 (Simulation time: 6 hr 23 min 56 sec) 
Heartbeat CPU  0 instructions: 1936000000 cycles: 2960393817 heartbeat IPC: 0.85010 cumulative IPC: 0.65352 (Simulation time: 6 hr 24 min 11 sec) 
Heartbeat CPU  0 instructions: 1937000001 cycles: 2961704594 heartbeat IPC: 0.76291 cumulative IPC: 0.65357 (Simulation time: 6 hr 24 min 26 sec) 
Heartbeat CPU  0 instructions: 1938000000 cycles: 2962951278 heartbeat IPC: 0.80213 cumulative IPC: 0.65363 (Simulation time: 6 hr 24 min 41 sec) 
Heartbeat CPU  0 instructions: 1939000003 cycles: 2964111843 heartbeat IPC: 0.86165 cumulative IPC: 0.65371 (Simulation time: 6 hr 24 min 55 sec) 
Heartbeat CPU  0 instructions: 1940000000 cycles: 2965355036 heartbeat IPC: 0.80438 cumulative IPC: 0.65377 (Simulation time: 6 hr 25 min 10 sec) 
Heartbeat CPU  0 instructions: 1941000002 cycles: 2966659800 heartbeat IPC: 0.76642 cumulative IPC: 0.65382 (Simulation time: 6 hr 25 min 25 sec) 
Heartbeat CPU  0 instructions: 1942000003 cycles: 2967890133 heartbeat IPC: 0.81279 cumulative IPC: 0.65389 (Simulation time: 6 hr 25 min 41 sec) 
Heartbeat CPU  0 instructions: 1943000001 cycles: 2969071590 heartbeat IPC: 0.84641 cumulative IPC: 0.65397 (Simulation time: 6 hr 25 min 56 sec) 
Heartbeat CPU  0 instructions: 1944000000 cycles: 2970346510 heartbeat IPC: 0.78436 cumulative IPC: 0.65402 (Simulation time: 6 hr 26 min 11 sec) 
Heartbeat CPU  0 instructions: 1945000002 cycles: 2971623215 heartbeat IPC: 0.78327 cumulative IPC: 0.65408 (Simulation time: 6 hr 26 min 26 sec) 
Heartbeat CPU  0 instructions: 1946000002 cycles: 2972810388 heartbeat IPC: 0.84234 cumulative IPC: 0.65415 (Simulation time: 6 hr 26 min 40 sec) 
Heartbeat CPU  0 instructions: 1947000000 cycles: 2974015475 heartbeat IPC: 0.82981 cumulative IPC: 0.65422 (Simulation time: 6 hr 26 min 55 sec) 
Heartbeat CPU  0 instructions: 1948000000 cycles: 2975309646 heartbeat IPC: 0.77270 cumulative IPC: 0.65428 (Simulation time: 6 hr 27 min 10 sec) 
Heartbeat CPU  0 instructions: 1949000003 cycles: 2976641230 heartbeat IPC: 0.75099 cumulative IPC: 0.65432 (Simulation time: 6 hr 27 min 25 sec) 
Heartbeat CPU  0 instructions: 1950000000 cycles: 2978005432 heartbeat IPC: 0.73303 cumulative IPC: 0.65435 (Simulation time: 6 hr 27 min 39 sec) 
Heartbeat CPU  0 instructions: 1951000003 cycles: 2979316693 heartbeat IPC: 0.76263 cumulative IPC: 0.65440 (Simulation time: 6 hr 27 min 54 sec) 
Heartbeat CPU  0 instructions: 1952000000 cycles: 2980556520 heartbeat IPC: 0.80656 cumulative IPC: 0.65447 (Simulation time: 6 hr 28 min 8 sec) 
Heartbeat CPU  0 instructions: 1953000000 cycles: 2981837097 heartbeat IPC: 0.78090 cumulative IPC: 0.65452 (Simulation time: 6 hr 28 min 22 sec) 
Heartbeat CPU  0 instructions: 1954000000 cycles: 2983079007 heartbeat IPC: 0.80521 cumulative IPC: 0.65458 (Simulation time: 6 hr 28 min 36 sec) 
Heartbeat CPU  0 instructions: 1955000003 cycles: 2984236128 heartbeat IPC: 0.86422 cumulative IPC: 0.65466 (Simulation time: 6 hr 28 min 51 sec) 
Heartbeat CPU  0 instructions: 1956000000 cycles: 2985513430 heartbeat IPC: 0.78290 cumulative IPC: 0.65472 (Simulation time: 6 hr 29 min 6 sec) 
Heartbeat CPU  0 instructions: 1957000003 cycles: 2986780852 heartbeat IPC: 0.78901 cumulative IPC: 0.65478 (Simulation time: 6 hr 29 min 21 sec) 
Heartbeat CPU  0 instructions: 1958000003 cycles: 2987997844 heartbeat IPC: 0.82170 cumulative IPC: 0.65484 (Simulation time: 6 hr 29 min 35 sec) 
Heartbeat CPU  0 instructions: 1959000003 cycles: 2989176332 heartbeat IPC: 0.84854 cumulative IPC: 0.65492 (Simulation time: 6 hr 29 min 50 sec) 
Heartbeat CPU  0 instructions: 1960000000 cycles: 2990492509 heartbeat IPC: 0.75977 cumulative IPC: 0.65497 (Simulation time: 6 hr 30 min 4 sec) 
Heartbeat CPU  0 instructions: 1961000000 cycles: 2991659282 heartbeat IPC: 0.85706 cumulative IPC: 0.65505 (Simulation time: 6 hr 30 min 18 sec) 
Heartbeat CPU  0 instructions: 1962000002 cycles: 2992846179 heartbeat IPC: 0.84253 cumulative IPC: 0.65512 (Simulation time: 6 hr 30 min 32 sec) 
Heartbeat CPU  0 instructions: 1963000002 cycles: 2994083526 heartbeat IPC: 0.80818 cumulative IPC: 0.65518 (Simulation time: 6 hr 30 min 47 sec) 
Heartbeat CPU  0 instructions: 1964000000 cycles: 2995312230 heartbeat IPC: 0.81386 cumulative IPC: 0.65525 (Simulation time: 6 hr 31 min 0 sec) 
Heartbeat CPU  0 instructions: 1965000002 cycles: 2996487128 heartbeat IPC: 0.85114 cumulative IPC: 0.65533 (Simulation time: 6 hr 31 min 15 sec) 
Heartbeat CPU  0 instructions: 1966000000 cycles: 2997770117 heartbeat IPC: 0.77943 cumulative IPC: 0.65538 (Simulation time: 6 hr 31 min 29 sec) 
Heartbeat CPU  0 instructions: 1967000003 cycles: 2999114844 heartbeat IPC: 0.74365 cumulative IPC: 0.65542 (Simulation time: 6 hr 31 min 44 sec) 
Heartbeat CPU  0 instructions: 1968000000 cycles: 3000444302 heartbeat IPC: 0.75218 cumulative IPC: 0.65546 (Simulation time: 6 hr 31 min 59 sec) 
Heartbeat CPU  0 instructions: 1969000003 cycles: 3001630938 heartbeat IPC: 0.84272 cumulative IPC: 0.65553 (Simulation time: 6 hr 32 min 14 sec) 
Heartbeat CPU  0 instructions: 1970000000 cycles: 3002817084 heartbeat IPC: 0.84306 cumulative IPC: 0.65561 (Simulation time: 6 hr 32 min 28 sec) 
Heartbeat CPU  0 instructions: 1971000002 cycles: 3003939836 heartbeat IPC: 0.89067 cumulative IPC: 0.65570 (Simulation time: 6 hr 32 min 43 sec) 
Heartbeat CPU  0 instructions: 1972000000 cycles: 3005271056 heartbeat IPC: 0.75119 cumulative IPC: 0.65574 (Simulation time: 6 hr 32 min 57 sec) 
Heartbeat CPU  0 instructions: 1973000002 cycles: 3006422287 heartbeat IPC: 0.86864 cumulative IPC: 0.65582 (Simulation time: 6 hr 33 min 11 sec) 
Heartbeat CPU  0 instructions: 1974000000 cycles: 3007602609 heartbeat IPC: 0.84722 cumulative IPC: 0.65590 (Simulation time: 6 hr 33 min 26 sec) 
Heartbeat CPU  0 instructions: 1975000001 cycles: 3008834207 heartbeat IPC: 0.81195 cumulative IPC: 0.65596 (Simulation time: 6 hr 33 min 40 sec) 
Heartbeat CPU  0 instructions: 1976000000 cycles: 3010080138 heartbeat IPC: 0.80261 cumulative IPC: 0.65602 (Simulation time: 6 hr 33 min 55 sec) 
Heartbeat CPU  0 instructions: 1977000001 cycles: 3011266396 heartbeat IPC: 0.84299 cumulative IPC: 0.65609 (Simulation time: 6 hr 34 min 9 sec) 
Heartbeat CPU  0 instructions: 1978000003 cycles: 3012421495 heartbeat IPC: 0.86573 cumulative IPC: 0.65617 (Simulation time: 6 hr 34 min 23 sec) 
Heartbeat CPU  0 instructions: 1979000003 cycles: 3013750594 heartbeat IPC: 0.75239 cumulative IPC: 0.65622 (Simulation time: 6 hr 34 min 38 sec) 
Heartbeat CPU  0 instructions: 1980000000 cycles: 3014915046 heartbeat IPC: 0.85877 cumulative IPC: 0.65630 (Simulation time: 6 hr 34 min 53 sec) 
Heartbeat CPU  0 instructions: 1981000002 cycles: 3016127385 heartbeat IPC: 0.82485 cumulative IPC: 0.65636 (Simulation time: 6 hr 35 min 8 sec) 
Heartbeat CPU  0 instructions: 1982000001 cycles: 3017359384 heartbeat IPC: 0.81169 cumulative IPC: 0.65643 (Simulation time: 6 hr 35 min 24 sec) 
Heartbeat CPU  0 instructions: 1983000002 cycles: 3018655134 heartbeat IPC: 0.77175 cumulative IPC: 0.65648 (Simulation time: 6 hr 35 min 38 sec) 
Heartbeat CPU  0 instructions: 1984000000 cycles: 3020193232 heartbeat IPC: 0.65015 cumulative IPC: 0.65647 (Simulation time: 6 hr 35 min 52 sec) 
Heartbeat CPU  0 instructions: 1985000002 cycles: 3021432698 heartbeat IPC: 0.80680 cumulative IPC: 0.65653 (Simulation time: 6 hr 36 min 7 sec) 
Heartbeat CPU  0 instructions: 1986000002 cycles: 3022670712 heartbeat IPC: 0.80775 cumulative IPC: 0.65660 (Simulation time: 6 hr 36 min 22 sec) 
Heartbeat CPU  0 instructions: 1987000000 cycles: 3023957498 heartbeat IPC: 0.77713 cumulative IPC: 0.65665 (Simulation time: 6 hr 36 min 36 sec) 
Heartbeat CPU  0 instructions: 1988000000 cycles: 3025217655 heartbeat IPC: 0.79355 cumulative IPC: 0.65670 (Simulation time: 6 hr 36 min 50 sec) 
Heartbeat CPU  0 instructions: 1989000002 cycles: 3026400060 heartbeat IPC: 0.84574 cumulative IPC: 0.65678 (Simulation time: 6 hr 37 min 5 sec) 
Heartbeat CPU  0 instructions: 1990000002 cycles: 3027598033 heartbeat IPC: 0.83474 cumulative IPC: 0.65685 (Simulation time: 6 hr 37 min 20 sec) 
Heartbeat CPU  0 instructions: 1991000003 cycles: 3028904554 heartbeat IPC: 0.76539 cumulative IPC: 0.65690 (Simulation time: 6 hr 37 min 33 sec) 
Heartbeat CPU  0 instructions: 1992000000 cycles: 3030091715 heartbeat IPC: 0.84234 cumulative IPC: 0.65697 (Simulation time: 6 hr 37 min 47 sec) 
Heartbeat CPU  0 instructions: 1993000003 cycles: 3031329758 heartbeat IPC: 0.80773 cumulative IPC: 0.65703 (Simulation time: 6 hr 38 min 2 sec) 
Heartbeat CPU  0 instructions: 1994000003 cycles: 3032560167 heartbeat IPC: 0.81274 cumulative IPC: 0.65709 (Simulation time: 6 hr 38 min 16 sec) 
Heartbeat CPU  0 instructions: 1995000003 cycles: 3033840649 heartbeat IPC: 0.78096 cumulative IPC: 0.65715 (Simulation time: 6 hr 38 min 30 sec) 
Heartbeat CPU  0 instructions: 1996000000 cycles: 3035107415 heartbeat IPC: 0.78941 cumulative IPC: 0.65720 (Simulation time: 6 hr 38 min 45 sec) 
Heartbeat CPU  0 instructions: 1997000001 cycles: 3036316837 heartbeat IPC: 0.82684 cumulative IPC: 0.65727 (Simulation time: 6 hr 38 min 59 sec) 
Heartbeat CPU  0 instructions: 1998000003 cycles: 3037614345 heartbeat IPC: 0.77071 cumulative IPC: 0.65732 (Simulation time: 6 hr 39 min 14 sec) 
Heartbeat CPU  0 instructions: 1999000001 cycles: 3038901519 heartbeat IPC: 0.77689 cumulative IPC: 0.65737 (Simulation time: 6 hr 39 min 28 sec) 
Heartbeat CPU  0 instructions: 2000000000 cycles: 3040258094 heartbeat IPC: 0.73715 cumulative IPC: 0.65740 (Simulation time: 6 hr 39 min 41 sec) 
Heartbeat CPU  0 instructions: 2001000003 cycles: 3041690183 heartbeat IPC: 0.69828 cumulative IPC: 0.65742 (Simulation time: 6 hr 39 min 54 sec) 
Heartbeat CPU  0 instructions: 2002000002 cycles: 3042962361 heartbeat IPC: 0.78605 cumulative IPC: 0.65748 (Simulation time: 6 hr 40 min 8 sec) 
Finished CPU 0 instructions: 2000000000 cycles: 3041934210 cumulative IPC: 0.65748 (Simulation time: 6 hr 40 min 8 sec) 

ChampSim completed all CPUs

[ROI Statistics]
Core_0_instructions 2000000000
Core_0_cycles 3041934210
Core_0_IPC 0.65748

Core_0_branch_prediction_accuracy 98.17303
Core_0_branch_MPKI 0.51587
Core_0_average_ROB_occupancy_at_mispredict 208.76662

Core_0_L1D_total_access 522495694
Core_0_L1D_total_hit 412950199
Core_0_L1D_total_miss 109545495
Core_0_L1D_loads 483994352
Core_0_L1D_load_hit 381162151
Core_0_L1D_load_miss 102832201
Core_0_L1D_RFOs 38501342
Core_0_L1D_RFO_hit 31788048
Core_0_L1D_RFO_miss 6713294
Core_0_L1D_prefetches 0
Core_0_L1D_prefetch_hit 0
Core_0_L1D_prefetch_miss 0
Core_0_L1D_writebacks 0
Core_0_L1D_writeback_hit 0
Core_0_L1D_writeback_miss 0
Core_0_L1D_prefetch_requested 0
Core_0_L1D_prefetch_issued 0
Core_0_L1D_prefetch_useful 0
Core_0_L1D_prefetch_useless 0
Core_0_L1D_prefetch_late 0
Core_0_L1D_average_miss_latency 58.11302

Core_0_L1I_total_access 649907422
Core_0_L1I_total_hit 649860916
Core_0_L1I_total_miss 46506
Core_0_L1I_loads 649907422
Core_0_L1I_load_hit 649860916
Core_0_L1I_load_miss 46506
Core_0_L1I_RFOs 0
Core_0_L1I_RFO_hit 0
Core_0_L1I_RFO_miss 0
Core_0_L1I_prefetches 0
Core_0_L1I_prefetch_hit 0
Core_0_L1I_prefetch_miss 0
Core_0_L1I_writebacks 0
Core_0_L1I_writeback_hit 0
Core_0_L1I_writeback_miss 0
Core_0_L1I_prefetch_requested 0
Core_0_L1I_prefetch_issued 0
Core_0_L1I_prefetch_useful 0
Core_0_L1I_prefetch_useless 0
Core_0_L1I_prefetch_late 0
Core_0_L1I_average_miss_latency 210.59825

Core_0_L2C_total_access 205248296
Core_0_L2C_total_hit 168948229
Core_0_L2C_total_miss 36300067
Core_0_L2C_loads 102878268
Core_0_L2C_load_hit 78964778
Core_0_L2C_load_miss 23913490
Core_0_L2C_RFOs 6713214
Core_0_L2C_RFO_hit 3103236
Core_0_L2C_RFO_miss 3609978
Core_0_L2C_prefetches 83847623
Core_0_L2C_prefetch_hit 75071752
Core_0_L2C_prefetch_miss 8775871
Core_0_L2C_writebacks 11809191
Core_0_L2C_writeback_hit 11808463
Core_0_L2C_writeback_miss 728
Core_0_L2C_prefetch_requested 172156397
Core_0_L2C_prefetch_issued 99609702
Core_0_L2C_prefetch_useful 5344359
Core_0_L2C_prefetch_useless 3434564
Core_0_L2C_prefetch_late 688446
Core_0_L2C_average_miss_latency 189.83265

Core_0_LLC_total_access 46292117
Core_0_LLC_total_hit 24895340
Core_0_LLC_total_miss 21396777
Core_0_LLC_loads 23238235
Core_0_LLC_load_hit 13498291
Core_0_LLC_load_miss 9739944
Core_0_LLC_RFOs 3596800
Core_0_LLC_RFO_hit 26903
Core_0_LLC_RFO_miss 3569897
Core_0_LLC_prefetches 9464304
Core_0_LLC_prefetch_hit 1378149
Core_0_LLC_prefetch_miss 8086155
Core_0_LLC_writebacks 9992778
Core_0_LLC_writeback_hit 9991997
Core_0_LLC_writeback_miss 781
Core_0_LLC_prefetch_requested 0
Core_0_LLC_prefetch_issued 0
Core_0_LLC_prefetch_useful 284449
Core_0_LLC_prefetch_useless 7800541
Core_0_LLC_prefetch_late 0
Core_0_LLC_average_miss_latency 274.08557

Core_0_major_page_fault 0
Core_0_minor_page_fault 21169

CPU 0 L2C next line prefetcher final stats
Channel_0_RQ_row_buffer_hit 6460754
Channel_0_RQ_row_buffer_miss 14935100
Channel_0_WQ_row_buffer_hit 2577870
Channel_0_WQ_row_buffer_miss 7161822
Channel_0_WQ_full 0
Channel_0_dbus_congested 12997699

avg_congested_cycle 10
