TRACE: [21000000]_FE_Pythia-70M_[h8]_[s256]_[d64] Warmup: 2000000 NumTraces: 21000000
L1:bingo_dpc3:L2:bingo_dpc3
*************************************************
   ChampSim Multicore Out-of-Order Simulator
   Last compiled: Oct 20 2024 03:59:48
*************************************************

trace_0 777-comparisonScript_memoryTraces_s256/memTraces[21000000]_FE_Pythia-70M_[h8]_[s256]_[d64].champsim.xz
Bingo PHT WAYS: 16 and PHT_SIZE: 16384
Bingo2 PHT WAYS: 16 and PHT_SIZE: 16384
MAIN.cc ln 751 stats print skipped
CPU  0 inst:    1000000 cyc:     502708 now IPC :1.98923: AVG IPC :1.98923: L2-Pf-HR :0.79798: L2-HR :0.67215: (Sim:0h0m2s) 
CPU  0 inst:    2000000 cyc:     981779 now IPC :2.08737: AVG IPC :2.03712: L2-Pf-HR :0.80119: L2-HR :0.74406: (Sim:0h0m5s) 

Warmup complete CPU  0 instructions:    2000003 cycles:     981780 (Simulation time: 0 hr 0 min 5 sec) 

CPU  0 inst:    3000001 cyc:    1583444 now IPC :1.66206: AVG IPC :1.66205: L2-Pf-HR :0.79406: L2-HR :0.81868: (Sim:0h0m8s) 
CPU  0 inst:    4000000 cyc:    2194496 now IPC :1.63652: AVG IPC :1.64919: L2-Pf-HR :0.79231: L2-HR :0.81687: (Sim:0h0m10s) 
CPU  0 inst:    5000003 cyc:    2793657 now IPC :1.66901: AVG IPC :1.65574: L2-Pf-HR :0.79254: L2-HR :0.81805: (Sim:0h0m13s) 
CPU  0 inst:    6000003 cyc:    3432837 now IPC :1.56450: AVG IPC :1.63195: L2-Pf-HR :0.79481: L2-HR :0.81834: (Sim:0h0m16s) 
CPU  0 inst:    7000002 cyc:    4100691 now IPC :1.49733: AVG IPC :1.60312: L2-Pf-HR :0.79210: L2-HR :0.81722: (Sim:0h0m18s) 
CPU  0 inst:    8000000 cyc:    4777035 now IPC :1.47853: AVG IPC :1.58092: L2-Pf-HR :0.79436: L2-HR :0.81896: (Sim:0h0m21s) 
CPU  0 inst:    9000003 cyc:    7275896 now IPC :0.40018: AVG IPC :1.11215: L2-Pf-HR :0.65727: L2-HR :0.73706: (Sim:0h0m25s) 
CPU  0 inst:   10000003 cyc:   10703997 now IPC :0.29171: AVG IPC :0.82286: L2-Pf-HR :0.60128: L2-HR :0.70604: (Sim:0h0m30s) 
CPU  0 inst:   11000003 cyc:   14133669 now IPC :0.29157: AVG IPC :0.68431: L2-Pf-HR :0.55399: L2-HR :0.67941: (Sim:0h0m35s) 
CPU  0 inst:   12000000 cyc:   17563921 now IPC :0.29152: AVG IPC :0.60306: L2-Pf-HR :0.51360: L2-HR :0.65632: (Sim:0h0m39s) 
CPU  0 inst:   13000003 cyc:   20994668 now IPC :0.29148: AVG IPC :0.54965: L2-Pf-HR :0.47869: L2-HR :0.63613: (Sim:0h0m44s) 
CPU  0 inst:   14000000 cyc:   21905413 now IPC :1.09800: AVG IPC :0.57351: L2-Pf-HR :0.55062: L2-HR :0.67602: (Sim:0h0m47s) 
CPU  0 inst:   15000000 cyc:   22575233 now IPC :1.49294: AVG IPC :0.60203: L2-Pf-HR :0.60699: L2-HR :0.71112: (Sim:0h0m50s) 
CPU  0 inst:   16000000 cyc:   23210195 now IPC :1.57490: AVG IPC :0.62982: L2-Pf-HR :0.64772: L2-HR :0.73762: (Sim:0h0m53s) 
CPU  0 inst:   17000002 cyc:   23837832 now IPC :1.59328: AVG IPC :0.65628: L2-Pf-HR :0.67932: L2-HR :0.75864: (Sim:0h0m56s) 
CPU  0 inst:   18000002 cyc:   24460858 now IPC :1.60507: AVG IPC :0.68146: L2-Pf-HR :0.70460: L2-HR :0.77605: (Sim:0h0m58s) 
Finished CPU 0 instr: 16000003 cyc: 23479079 AVG IPC: 0.68146 (Sim time: 0h0m58s)

ChampSim completed all CPUs

[ROI Statistics]
Core_0_instructions 16000003
Core_0_cycles 23479079
Core_0_IPC 0.68146

Core_0_branch_prediction_accuracy 98.24560
Core_0_branch_MPKI 0.63131
Core_0_average_ROB_occupancy_at_mispredict 187.97782

Core_0_L1D_total_access 5293780
Core_0_L1D_total_hit 4723313 L1D_total_Hit Ratio: 0.89224
Core_0_L1D_total_miss 570467
Core_0_L1D_loads 4329907
Core_0_L1D_load_hit 4105160 L1D_load_Hit Ratio: 0.94809
Core_0_L1D_load_miss 224747
Core_0_L1D_RFOs 566492
Core_0_L1D_RFO_hit 563783 L1D_RFO_Hit Ratio: 0.99522
Core_0_L1D_RFO_miss 2709
Core_0_L1D_prefetches 397381
Core_0_L1D_prefetch_hit 54370 L1D_prefetch_Hit Ratio: 0.13682
Core_0_L1D_prefetch_miss 343011
Core_0_L1D_writebacks 0
Core_0_L1D_writeback_hit 0 L1D_writeback_Hit Ratio: -nan
Core_0_L1D_writeback_miss 0
Core_0_L1D_prefetch_requested 571953
Core_0_L1D_prefetch_issued 571953
Core_0_L1D_prefetch_useful 362555 L1D_Useful Ratio: 0.63389
Core_0_L1D_prefetch_useless 7813
Core_0_L1D_prefetch_late 62126
Core_0_L1D_average_miss_latency 1458655.20480

Core_0_L1I_total_access 4125629
Core_0_L1I_total_hit 4120928 L1I_total_Hit Ratio: 0.99886
Core_0_L1I_total_miss 4701
Core_0_L1I_loads 4125629
Core_0_L1I_load_hit 4120928 L1I_load_Hit Ratio: 0.99886
Core_0_L1I_load_miss 4701
Core_0_L1I_RFOs 0
Core_0_L1I_RFO_hit 0 L1I_RFO_Hit Ratio: -nan
Core_0_L1I_RFO_miss 0
Core_0_L1I_prefetches 0
Core_0_L1I_prefetch_hit 0 L1I_prefetch_Hit Ratio: -nan
Core_0_L1I_prefetch_miss 0
Core_0_L1I_writebacks 0
Core_0_L1I_writeback_hit 0 L1I_writeback_Hit Ratio: -nan
Core_0_L1I_writeback_miss 0
Core_0_L1I_prefetch_requested 0
Core_0_L1I_prefetch_issued 0
Core_0_L1I_prefetch_useful 0 L1I_Useful Ratio: -nan
Core_0_L1I_prefetch_useless 0
Core_0_L1I_prefetch_late 0
Core_0_L1I_average_miss_latency 210.12933

Core_0_L2C_total_access 766021
Core_0_L2C_total_hit 594474 L2C_total_Hit Ratio: 0.77605
Core_0_L2C_total_miss 171547
Core_0_L2C_loads 168206
Core_0_L2C_load_hit 141975 L2C_load_Hit Ratio: 0.84405
Core_0_L2C_load_miss 26231
Core_0_L2C_RFOs 2707
Core_0_L2C_RFO_hit 194 L2C_RFO_Hit Ratio: 0.07167
Core_0_L2C_RFO_miss 2513
Core_0_L2C_prefetches 482974
Core_0_L2C_prefetch_hit 340304 L2C_prefetch_Hit Ratio: 0.70460
Core_0_L2C_prefetch_miss 142670
Core_0_L2C_writebacks 112134
Core_0_L2C_writeback_hit 112001 L2C_writeback_Hit Ratio: 0.99881
Core_0_L2C_writeback_miss 133
Core_0_L2C_prefetch_requested 93012
Core_0_L2C_prefetch_issued 93012
Core_0_L2C_prefetch_useful 35467 L2C_Useful Ratio: 0.38132
Core_0_L2C_prefetch_useless 111926
Core_0_L2C_prefetch_late 2424
Core_0_L2C_average_miss_latency 318.90868

Core_0_LLC_total_access 272134
Core_0_LLC_total_hit 101939 LLC_total_Hit Ratio: 0.37459
Core_0_LLC_total_miss 170195
Core_0_LLC_loads 23850
Core_0_LLC_load_hit 404 LLC_load_Hit Ratio: 0.01694
Core_0_LLC_load_miss 23446
Core_0_LLC_RFOs 2513
Core_0_LLC_RFO_hit 16 LLC_RFO_Hit Ratio: 0.00637
Core_0_LLC_RFO_miss 2497
Core_0_LLC_prefetches 145051
Core_0_LLC_prefetch_hit 1917 LLC_prefetch_Hit Ratio: 0.01322
Core_0_LLC_prefetch_miss 143134
Core_0_LLC_writebacks 100720
Core_0_LLC_writeback_hit 99602 LLC_writeback_Hit Ratio: 0.98890
Core_0_LLC_writeback_miss 1118
Core_0_LLC_prefetch_requested 0
Core_0_LLC_prefetch_issued 0
Core_0_LLC_prefetch_useful 81 LLC_Useful Ratio: inf
Core_0_LLC_prefetch_useless 122847
Core_0_LLC_prefetch_late 0
Core_0_LLC_average_miss_latency 292.07186

Core_0_major_page_fault 0
Core_0_minor_page_fault 2376

[Bingo] PHT Access: 62932
[Bingo] PHT Hit PC+Addr: 29769
[Bingo] PHT Hit PC+Offs: 30713
[Bingo] PHT Miss: 2450
[Bingo] Prefetch PC+Addr: 0
[Bingo] Prefetch PC+Offs: 0
[Bingo] Useful PC+Addr: 0
[Bingo] Useful PC+Offs: 0
[Bingo] Useless PC+Addr: 0
[Bingo] Useless PC+Offs: 0
[Bingo] L1 Prefetch per Region: 9.71552
[Bingo] L2 Prefetch per Region: 0.66577
[Bingo] L3 Prefetch per Region: 0.00000
[Bingo] No Prefetch per Region: 21.61871
[Bingo] Number of Voters Mean: 13.21769
[Bingo] Number of Voters SD: 6.86709
PHT read accesses: 708233
PHT write accesses: 59749
AT read accesses: 3998205
AT write accesses: 3998205
FT read accesses: 865136
FT write accesses: 62932
PS read accesses: 270717
PS write accesses: 60482
PHT tag read accesses: 2174059
PHT tag write accesses: 89518
AT tag read accesses: 80652081
AT tag write accesses: 4057954
FT tag read accesses: 18598817
FT tag write accesses: 526902
PS tag read accesses: 71468258
PS tag write accesses: 329780
[Bingo2] PHT Access: 11333
[Bingo2] PHT Hit PC+Addr: 1125
[Bingo2] PHT Hit PC+Offs: 8492
[Bingo2] PHT Miss: 1716
[Bingo2] Prefetch PC+Addr: 0
[Bingo2] Prefetch PC+Offs: 0
[Bingo2] Useful PC+Addr: 0
[Bingo2] Useful PC+Offs: 0
[Bingo2] Useless PC+Addr: 0
[Bingo2] Useless PC+Offs: 0
[Bingo2] L1 Prefetch per Region: 0.00000
[Bingo2] L2 Prefetch per Region: 13.32640
[Bingo2] L3 Prefetch per Region: 0.00000
[Bingo2] No Prefetch per Region: 18.67360
[Bingo2] Number of Voters Mean: 14.49199
[Bingo2] Number of Voters SD: 6.07758
PHT read accesses: 132196
PHT write accesses: 8940
AT read accesses: 154643
AT write accesses: 163396
FT read accesses: 31950
FT write accesses: 11333
PS read accesses: 28505
PS write accesses: 9617
PHT tag read accesses: 430535
PHT tag write accesses: 10065
AT tag read accesses: 5863710
AT tag write accesses: 163583
FT tag read accesses: 3530167
FT tag write accesses: 31926
PS tag read accesses: 3001529
PS tag write accesses: 36823
Channel_0_RQ_row_buffer_hit 95397
Channel_0_RQ_row_buffer_miss 73680
Channel_0_WQ_row_buffer_hit 31855
Channel_0_WQ_row_buffer_miss 66317
Channel_0_WQ_full 0
Channel_0_dbus_congested 211407

avg_congested_cycle 11

EzSearch AVG IPC :0.68146: L2-Pf-HR :0.70460 : L2-HR :0.77605 Uful:0.38132
Finished combination: TraceType=777-comparisonScript Sim:16000000 Prefetcher=L2bingo_dpc3 L1=bingo_dpc3
