TRACE: [75000000]_FE_OPT-1_3B_[h16]_[s256]_[d128] Warmup: 2000000 NumTraces: 75000000
L1:bingo_dpc3:L2:bingo_dpc3
*************************************************
   ChampSim Multicore Out-of-Order Simulator
   Last compiled: Oct 20 2024 03:59:48
*************************************************

trace_0 777-comparisonScript_memoryTraces_s256/memTraces[75000000]_FE_OPT-1_3B_[h16]_[s256]_[d128].champsim.xz
Bingo PHT WAYS: 16 and PHT_SIZE: 16384
Bingo2 PHT WAYS: 16 and PHT_SIZE: 16384
MAIN.cc ln 751 stats print skipped
CPU  0 inst:    1000002 cyc:     503628 now IPC :1.98560: AVG IPC :1.98560: L2-Pf-HR :0.69075: L2-HR :0.62741: (Sim:0h0m3s) 
CPU  0 inst:    2000001 cyc:     980854 now IPC :2.09544: AVG IPC :2.03904: L2-Pf-HR :0.78568: L2-HR :0.71657: (Sim:0h0m6s) 

Warmup complete CPU  0 instructions:    2000001 cycles:     980854 (Simulation time: 0 hr 0 min 6 sec) 

CPU  0 inst:    3000000 cyc:    1618035 now IPC :1.56941: AVG IPC :1.56941: L2-Pf-HR :0.83428: L2-HR :0.79982: (Sim:0h0m8s) 
CPU  0 inst:    4000000 cyc:    2187778 now IPC :1.75518: AVG IPC :1.65710: L2-Pf-HR :0.86319: L2-HR :0.81655: (Sim:0h0m11s) 
CPU  0 inst:    5000000 cyc:    2778374 now IPC :1.69320: AVG IPC :1.66897: L2-Pf-HR :0.83364: L2-HR :0.81165: (Sim:0h0m13s) 
CPU  0 inst:    6000002 cyc:    3330582 now IPC :1.81092: AVG IPC :1.70233: L2-Pf-HR :0.84235: L2-HR :0.82277: (Sim:0h0m15s) 
CPU  0 inst:    7000002 cyc:    3933216 now IPC :1.65938: AVG IPC :1.69356: L2-Pf-HR :0.83120: L2-HR :0.81798: (Sim:0h0m18s) 
CPU  0 inst:    8000000 cyc:    4476253 now IPC :1.84149: AVG IPC :1.71654: L2-Pf-HR :0.83734: L2-HR :0.82470: (Sim:0h0m20s) 
CPU  0 inst:    9000003 cyc:    5076173 now IPC :1.66689: AVG IPC :1.70927: L2-Pf-HR :0.83057: L2-HR :0.82310: (Sim:0h0m23s) 
CPU  0 inst:   10000003 cyc:    5656950 now IPC :1.72183: AVG IPC :1.71083: L2-Pf-HR :0.83408: L2-HR :0.82633: (Sim:0h0m25s) 
CPU  0 inst:   11000000 cyc:    6283404 now IPC :1.59628: AVG IPC :1.69730: L2-Pf-HR :0.83131: L2-HR :0.82540: (Sim:0h0m28s) 
CPU  0 inst:   12000000 cyc:    6870228 now IPC :1.70409: AVG IPC :1.69797: L2-Pf-HR :0.83223: L2-HR :0.82623: (Sim:0h0m31s) 
CPU  0 inst:   13000002 cyc:    7497461 now IPC :1.59431: AVG IPC :1.68800: L2-Pf-HR :0.83060: L2-HR :0.82585: (Sim:0h0m33s) 
CPU  0 inst:   14000000 cyc:    8061585 now IPC :1.77266: AVG IPC :1.69474: L2-Pf-HR :0.83393: L2-HR :0.82929: (Sim:0h0m36s) 
CPU  0 inst:   15000002 cyc:    8677688 now IPC :1.62311: AVG IPC :1.68901: L2-Pf-HR :0.82938: L2-HR :0.82620: (Sim:0h0m38s) 
CPU  0 inst:   16000000 cyc:    9272179 now IPC :1.68211: AVG IPC :1.68851: L2-Pf-HR :0.83198: L2-HR :0.82690: (Sim:0h0m41s) 
CPU  0 inst:   17000000 cyc:    9890841 now IPC :1.61639: AVG IPC :1.68350: L2-Pf-HR :0.82953: L2-HR :0.82603: (Sim:0h0m43s) 
CPU  0 inst:   18000003 cyc:   10480882 now IPC :1.69480: AVG IPC :1.68421: L2-Pf-HR :0.83321: L2-HR :0.82793: (Sim:0h0m46s) 
CPU  0 inst:   19000000 cyc:   11104802 now IPC :1.60276: AVG IPC :1.67919: L2-Pf-HR :0.83106: L2-HR :0.82615: (Sim:0h0m48s) 
CPU  0 inst:   20000000 cyc:   11681304 now IPC :1.73460: AVG IPC :1.68217: L2-Pf-HR :0.83412: L2-HR :0.82770: (Sim:0h0m51s) 
CPU  0 inst:   21000001 cyc:   12308492 now IPC :1.59442: AVG IPC :1.67731: L2-Pf-HR :0.83075: L2-HR :0.82580: (Sim:0h0m53s) 
CPU  0 inst:   22000002 cyc:   12888632 now IPC :1.72372: AVG IPC :1.67957: L2-Pf-HR :0.83283: L2-HR :0.82712: (Sim:0h0m56s) 
CPU  0 inst:   23000002 cyc:   13520240 now IPC :1.58326: AVG IPC :1.67472: L2-Pf-HR :0.83035: L2-HR :0.82586: (Sim:0h0m58s) 
CPU  0 inst:   24000000 cyc:   14060669 now IPC :1.85038: AVG IPC :1.68198: L2-Pf-HR :0.83175: L2-HR :0.82757: (Sim:0h1m1s) 
CPU  0 inst:   25000001 cyc:   14644187 now IPC :1.71374: AVG IPC :1.68334: L2-Pf-HR :0.83006: L2-HR :0.82737: (Sim:0h1m3s) 
CPU  0 inst:   26000001 cyc:   15221351 now IPC :1.73261: AVG IPC :1.68533: L2-Pf-HR :0.83189: L2-HR :0.82809: (Sim:0h1m6s) 
CPU  0 inst:   27000003 cyc:   15812909 now IPC :1.69045: AVG IPC :1.68554: L2-Pf-HR :0.83016: L2-HR :0.82761: (Sim:0h1m8s) 
CPU  0 inst:   28000000 cyc:   16399522 now IPC :1.70470: AVG IPC :1.68627: L2-Pf-HR :0.83106: L2-HR :0.82790: (Sim:0h1m11s) 
CPU  0 inst:   29000001 cyc:   17022059 now IPC :1.60633: AVG IPC :1.68317: L2-Pf-HR :0.83045: L2-HR :0.82775: (Sim:0h1m13s) 
CPU  0 inst:   30000000 cyc:   17590126 now IPC :1.76035: AVG IPC :1.68581: L2-Pf-HR :0.83077: L2-HR :0.82780: (Sim:0h1m16s) 
CPU  0 inst:   31000003 cyc:   18148655 now IPC :1.79042: AVG IPC :1.68921: L2-Pf-HR :0.83301: L2-HR :0.82960: (Sim:0h1m18s) 
CPU  0 inst:   32000000 cyc:   18759298 now IPC :1.63761: AVG IPC :1.68744: L2-Pf-HR :0.83143: L2-HR :0.82842: (Sim:0h1m21s) 
CPU  0 inst:   33000000 cyc:   19386557 now IPC :1.59424: AVG IPC :1.68426: L2-Pf-HR :0.83389: L2-HR :0.82899: (Sim:0h1m23s) 
CPU  0 inst:   34000000 cyc:   24073641 now IPC :0.21335: AVG IPC :1.38571: L2-Pf-HR :0.74579: L2-HR :0.77489: (Sim:0h1m30s) 
CPU  0 inst:   35000000 cyc:   27504113 now IPC :0.29151: AVG IPC :1.24419: L2-Pf-HR :0.72668: L2-HR :0.76344: (Sim:0h1m35s) 
CPU  0 inst:   36000000 cyc:   30937171 now IPC :0.29129: AVG IPC :1.13499: L2-Pf-HR :0.70853: L2-HR :0.75257: (Sim:0h1m40s) 
CPU  0 inst:   37000000 cyc:   34373343 now IPC :0.29102: AVG IPC :1.04814: L2-Pf-HR :0.69126: L2-HR :0.74223: (Sim:0h1m45s) 
CPU  0 inst:   38000000 cyc:   37812450 now IPC :0.29077: AVG IPC :0.97742: L2-Pf-HR :0.67481: L2-HR :0.73239: (Sim:0h1m50s) 
CPU  0 inst:   39000000 cyc:   41253179 now IPC :0.29064: AVG IPC :0.91875: L2-Pf-HR :0.65913: L2-HR :0.72302: (Sim:0h1m55s) 
CPU  0 inst:   40000000 cyc:   44693900 now IPC :0.29064: AVG IPC :0.86931: L2-Pf-HR :0.64417: L2-HR :0.71407: (Sim:0h1m59s) 
CPU  0 inst:   41000000 cyc:   48134557 now IPC :0.29064: AVG IPC :0.82708: L2-Pf-HR :0.62986: L2-HR :0.70553: (Sim:0h2m4s) 
CPU  0 inst:   42000000 cyc:   51637568 now IPC :0.28547: AVG IPC :0.78963: L2-Pf-HR :0.61408: L2-HR :0.69532: (Sim:0h2m9s) 
CPU  0 inst:   43000000 cyc:   52411835 now IPC :1.29154: AVG IPC :0.79718: L2-Pf-HR :0.61893: L2-HR :0.69661: (Sim:0h2m12s) 
CPU  0 inst:   44000000 cyc:   52985060 now IPC :1.74452: AVG IPC :0.80763: L2-Pf-HR :0.62982: L2-HR :0.70236: (Sim:0h2m14s) 
CPU  0 inst:   45000003 cyc:   53661295 now IPC :1.47878: AVG IPC :0.81624: L2-Pf-HR :0.63608: L2-HR :0.70542: (Sim:0h2m17s) 
CPU  0 inst:   46000000 cyc:   54202118 now IPC :1.84903: AVG IPC :0.82674: L2-Pf-HR :0.64521: L2-HR :0.71054: (Sim:0h2m20s) 
CPU  0 inst:   47000002 cyc:   54896877 now IPC :1.43935: AVG IPC :0.83463: L2-Pf-HR :0.64980: L2-HR :0.71277: (Sim:0h2m22s) 
CPU  0 inst:   48000000 cyc:   55442922 now IPC :1.83135: AVG IPC :0.84462: L2-Pf-HR :0.65839: L2-HR :0.71772: (Sim:0h2m25s) 
CPU  0 inst:   49000001 cyc:   56082443 now IPC :1.56367: AVG IPC :0.85297: L2-Pf-HR :0.66180: L2-HR :0.71933: (Sim:0h2m28s) 
CPU  0 inst:   50000000 cyc:   56604138 now IPC :1.91683: AVG IPC :0.86295: L2-Pf-HR :0.66957: L2-HR :0.72388: (Sim:0h2m30s) 
CPU  0 inst:   51000002 cyc:   57269238 now IPC :1.50354: AVG IPC :0.87052: L2-Pf-HR :0.67198: L2-HR :0.72501: (Sim:0h2m33s) 
CPU  0 inst:   52000000 cyc:   57802474 now IPC :1.87534: AVG IPC :0.87995: L2-Pf-HR :0.67884: L2-HR :0.72911: (Sim:0h2m35s) 
CPU  0 inst:   53000002 cyc:   58461310 now IPC :1.51783: AVG IPC :0.88726: L2-Pf-HR :0.68052: L2-HR :0.72979: (Sim:0h2m38s) 
CPU  0 inst:   54000003 cyc:   58971381 now IPC :1.96051: AVG IPC :0.89670: L2-Pf-HR :0.68706: L2-HR :0.73386: (Sim:0h2m40s) 
CPU  0 inst:   55000001 cyc:   59630013 now IPC :1.51830: AVG IPC :0.90368: L2-Pf-HR :0.68841: L2-HR :0.73442: (Sim:0h2m43s) 
CPU  0 inst:   56000000 cyc:   60146952 now IPC :1.93446: AVG IPC :0.91268: L2-Pf-HR :0.69427: L2-HR :0.73807: (Sim:0h2m45s) 
CPU  0 inst:   57000001 cyc:   60795609 now IPC :1.54165: AVG IPC :0.91951: L2-Pf-HR :0.69559: L2-HR :0.73867: (Sim:0h2m48s) 
CPU  0 inst:   58000001 cyc:   61317350 now IPC :1.91666: AVG IPC :0.92813: L2-Pf-HR :0.70047: L2-HR :0.74169: (Sim:0h2m51s) 
CPU  0 inst:   59000001 cyc:   61957149 now IPC :1.56299: AVG IPC :0.93479: L2-Pf-HR :0.70221: L2-HR :0.74266: (Sim:0h2m53s) 
CPU  0 inst:   60000000 cyc:   62495838 now IPC :1.85636: AVG IPC :0.94286: L2-Pf-HR :0.70607: L2-HR :0.74500: (Sim:0h2m56s) 
CPU  0 inst:   61000001 cyc:   63135272 now IPC :1.56388: AVG IPC :0.94925: L2-Pf-HR :0.70831: L2-HR :0.74635: (Sim:0h2m58s) 
CPU  0 inst:   62000001 cyc:   63666574 now IPC :1.88217: AVG IPC :0.95716: L2-Pf-HR :0.71103: L2-HR :0.74794: (Sim:0h3m1s) 
CPU  0 inst:   63000003 cyc:   64221159 now IPC :1.80315: AVG IPC :0.96457: L2-Pf-HR :0.71502: L2-HR :0.75062: (Sim:0h3m3s) 
CPU  0 inst:   64000000 cyc:   64848776 now IPC :1.59332: AVG IPC :0.97075: L2-Pf-HR :0.71557: L2-HR :0.75062: (Sim:0h3m6s) 
CPU  0 inst:   65000002 cyc:   65371257 now IPC :1.91395: AVG IPC :0.97841: L2-Pf-HR :0.71964: L2-HR :0.75331: (Sim:0h3m8s) 
CPU  0 inst:   66000002 cyc:   66016084 now IPC :1.55080: AVG IPC :0.98408: L2-Pf-HR :0.71939: L2-HR :0.75280: (Sim:0h3m11s) 
CPU  0 inst:   67000002 cyc:   66527208 now IPC :1.95647: AVG IPC :0.99166: L2-Pf-HR :0.72324: L2-HR :0.75534: (Sim:0h3m13s) 
CPU  0 inst:   68000000 cyc:   67180022 now IPC :1.53183: AVG IPC :0.99699: L2-Pf-HR :0.72373: L2-HR :0.75543: (Sim:0h3m16s) 
CPU  0 inst:   69000003 cyc:   67709545 now IPC :1.88850: AVG IPC :1.00407: L2-Pf-HR :0.72738: L2-HR :0.75774: (Sim:0h3m18s) 
CPU  0 inst:   70000002 cyc:   68363086 now IPC :1.53012: AVG IPC :1.00917: L2-Pf-HR :0.72716: L2-HR :0.75737: (Sim:0h3m21s) 
CPU  0 inst:   71000001 cyc:   68880060 now IPC :1.93433: AVG IPC :1.01621: L2-Pf-HR :0.73077: L2-HR :0.75978: (Sim:0h3m23s) 
CPU  0 inst:   72000000 cyc:   69527164 now IPC :1.54535: AVG IPC :1.02121: L2-Pf-HR :0.73081: L2-HR :0.75967: (Sim:0h3m26s) 
Finished CPU 0 instr: 70000000 cyc: 68546318 AVG IPC: 1.02121 (Sim time: 0h3m26s)

ChampSim completed all CPUs

[ROI Statistics]
Core_0_instructions 70000000
Core_0_cycles 68546318
Core_0_IPC 1.02121

Core_0_branch_prediction_accuracy 97.65692
Core_0_branch_MPKI 0.58830
Core_0_average_ROB_occupancy_at_mispredict 228.65775

Core_0_L1D_total_access 20323832
Core_0_L1D_total_hit 18641186 L1D_total_Hit Ratio: 0.91721
Core_0_L1D_total_miss 1682646
Core_0_L1D_loads 16058859
Core_0_L1D_load_hit 15647159 L1D_load_Hit Ratio: 0.97436
Core_0_L1D_load_miss 411700
Core_0_L1D_RFOs 1596475
Core_0_L1D_RFO_hit 1577806 L1D_RFO_Hit Ratio: 0.98831
Core_0_L1D_RFO_miss 18669
Core_0_L1D_prefetches 2668498
Core_0_L1D_prefetch_hit 1416221 L1D_prefetch_Hit Ratio: 0.53072
Core_0_L1D_prefetch_miss 1252277
Core_0_L1D_writebacks 0
Core_0_L1D_writeback_hit 0 L1D_writeback_Hit Ratio: -nan
Core_0_L1D_writeback_miss 0
Core_0_L1D_prefetch_requested 2945086
Core_0_L1D_prefetch_issued 2945086
Core_0_L1D_prefetch_useful 1270652 L1D_Useful Ratio: 0.43145
Core_0_L1D_prefetch_useless 7944
Core_0_L1D_prefetch_late 127476
Core_0_L1D_average_miss_latency 2897234.26890

Core_0_L1I_total_access 15811270
Core_0_L1I_total_hit 15806420 L1I_total_Hit Ratio: 0.99969
Core_0_L1I_total_miss 4850
Core_0_L1I_loads 15811270
Core_0_L1I_load_hit 15806420 L1I_load_Hit Ratio: 0.99969
Core_0_L1I_load_miss 4850
Core_0_L1I_RFOs 0
Core_0_L1I_RFO_hit 0 L1I_RFO_Hit Ratio: -nan
Core_0_L1I_RFO_miss 0
Core_0_L1I_prefetches 0
Core_0_L1I_prefetch_hit 0 L1I_prefetch_Hit Ratio: -nan
Core_0_L1I_prefetch_miss 0
Core_0_L1I_writebacks 0
Core_0_L1I_writeback_hit 0 L1I_writeback_Hit Ratio: -nan
Core_0_L1I_writeback_miss 0
Core_0_L1I_prefetch_requested 0
Core_0_L1I_prefetch_issued 0
Core_0_L1I_prefetch_useful 0 L1I_Useful Ratio: -nan
Core_0_L1I_prefetch_useless 0
Core_0_L1I_prefetch_late 0
Core_0_L1I_average_miss_latency 226.42515

Core_0_L2C_total_access 2277930
Core_0_L2C_total_hit 1730470 L2C_total_Hit Ratio: 0.75967
Core_0_L2C_total_miss 547460
Core_0_L2C_loads 289699
Core_0_L2C_load_hit 185571 L2C_load_Hit Ratio: 0.64056
Core_0_L2C_load_miss 104128
Core_0_L2C_RFOs 18660
Core_0_L2C_RFO_hit 7800 L2C_RFO_Hit Ratio: 0.41801
Core_0_L2C_RFO_miss 10860
Core_0_L2C_prefetches 1595583
Core_0_L2C_prefetch_hit 1166065 L2C_prefetch_Hit Ratio: 0.73081
Core_0_L2C_prefetch_miss 429518
Core_0_L2C_writebacks 373988
Core_0_L2C_writeback_hit 371034 L2C_writeback_Hit Ratio: 0.99210
Core_0_L2C_writeback_miss 2954
Core_0_L2C_prefetch_requested 376543
Core_0_L2C_prefetch_issued 376543
Core_0_L2C_prefetch_useful 64012 L2C_Useful Ratio: 0.17000
Core_0_L2C_prefetch_useless 365264
Core_0_L2C_prefetch_late 11346
Core_0_L2C_average_miss_latency 277.35516

Core_0_LLC_total_access 825340
Core_0_LLC_total_hit 369051 LLC_total_Hit Ratio: 0.44715
Core_0_LLC_total_miss 456289
Core_0_LLC_loads 92787
Core_0_LLC_load_hit 20297 LLC_load_Hit Ratio: 0.21875
Core_0_LLC_load_miss 72490
Core_0_LLC_RFOs 10855
Core_0_LLC_RFO_hit 5905 LLC_RFO_Hit Ratio: 0.54399
Core_0_LLC_RFO_miss 4950
Core_0_LLC_prefetches 440857
Core_0_LLC_prefetch_hit 66562 LLC_prefetch_Hit Ratio: 0.15098
Core_0_LLC_prefetch_miss 374295
Core_0_LLC_writebacks 280841
Core_0_LLC_writeback_hit 276287 LLC_writeback_Hit Ratio: 0.98378
Core_0_LLC_writeback_miss 4554
Core_0_LLC_prefetch_requested 0
Core_0_LLC_prefetch_issued 0
Core_0_LLC_prefetch_useful 11385 LLC_Useful Ratio: inf
Core_0_LLC_prefetch_useless 345432
Core_0_LLC_prefetch_late 0
Core_0_LLC_average_miss_latency 297.87546

Core_0_major_page_fault 0
Core_0_minor_page_fault 5055

[Bingo] PHT Access: 164523
[Bingo] PHT Hit PC+Addr: 94835
[Bingo] PHT Hit PC+Offs: 67056
[Bingo] PHT Miss: 2632
[Bingo] Prefetch PC+Addr: 0
[Bingo] Prefetch PC+Offs: 0
[Bingo] Useful PC+Addr: 0
[Bingo] Useful PC+Offs: 0
[Bingo] Useless PC+Addr: 0
[Bingo] Useless PC+Offs: 0
[Bingo] L1 Prefetch per Region: 19.97165
[Bingo] L2 Prefetch per Region: 0.01334
[Bingo] L3 Prefetch per Region: 0.00000
[Bingo] No Prefetch per Region: 12.01501
[Bingo] Number of Voters Mean: 15.80188
[Bingo] Number of Voters SD: 2.91503
PHT read accesses: 1393200
PHT write accesses: 157093
AT read accesses: 15407453
AT write accesses: 15407452
FT read accesses: 1831354
FT write accesses: 164523
PS read accesses: 1218460
PS write accesses: 161891
PHT tag read accesses: 4927224
PHT tag write accesses: 251928
AT tag read accesses: 289762104
AT tag write accesses: 15564545
FT tag read accesses: 48222305
FT tag write accesses: 1162392
PS tag read accesses: 262752672
PS tag write accesses: 1374158
[Bingo2] PHT Access: 62214
[Bingo2] PHT Hit PC+Addr: 4013
[Bingo2] PHT Hit PC+Offs: 46687
[Bingo2] PHT Miss: 11514
[Bingo2] Prefetch PC+Addr: 0
[Bingo2] Prefetch PC+Offs: 0
[Bingo2] Useful PC+Addr: 0
[Bingo2] Useful PC+Offs: 0
[Bingo2] Useless PC+Addr: 0
[Bingo2] Useless PC+Offs: 0
[Bingo2] L1 Prefetch per Region: 0.00000
[Bingo2] L2 Prefetch per Region: 11.24925
[Bingo2] L3 Prefetch per Region: 0.00000
[Bingo2] No Prefetch per Region: 20.75075
[Bingo2] Number of Voters Mean: 12.57226
[Bingo2] Number of Voters SD: 5.98405
PHT read accesses: 710447
PHT write accesses: 35442
AT read accesses: 231587
AT write accesses: 259353
FT read accesses: 114309
FT write accesses: 62214
PS read accesses: 117675
PS write accesses: 50700
PHT tag read accesses: 2026220
PHT tag write accesses: 39455
AT tag read accesses: 15037698
AT tag write accesses: 267025
FT tag read accesses: 12664036
FT tag write accesses: 137515
PS tag read accesses: 6318479
PS tag write accesses: 162469
Channel_0_RQ_row_buffer_hit 294022
Channel_0_RQ_row_buffer_miss 157713
Channel_0_WQ_row_buffer_hit 90751
Channel_0_WQ_row_buffer_miss 133210
Channel_0_WQ_full 0
Channel_0_dbus_congested 509725

avg_congested_cycle 11

EzSearch AVG IPC :1.02121: L2-Pf-HR :0.73081 : L2-HR :0.75967 Uful:0.17000
Finished combination: TraceType=777-comparisonScript Sim:70000000 Prefetcher=L2bingo_dpc3 L1=bingo_dpc3
