TRACE: [151000000]_FE_OPT-6_7B_[h32]_[s256]_[d128] Warmup: 2000000 NumTraces: 151000000
L1:ipcp:L2:ipcp
*************************************************
   ChampSim Multicore Out-of-Order Simulator
   Last compiled: Oct 20 2024 04:58:10
*************************************************

trace_0 777-comparisonScript_memoryTraces_s256/memTraces[151000000]_FE_OPT-6_7B_[h32]_[s256]_[d128].champsim.xz
MAIN.cc ln 751 stats print skipped
CPU  0 inst:    1000001 cyc:     504789 now IPC :1.98103: AVG IPC :1.98103: L2-Pf-HR :0.84119: L2-HR :0.79701: (Sim:0h0m3s) 
CPU  0 inst:    2000001 cyc:     982103 now IPC :2.09506: AVG IPC :2.03645: L2-Pf-HR :0.89848: L2-HR :0.85086: (Sim:0h0m6s) 

Warmup complete CPU  0 instructions:    2000001 cycles:     982103 (Simulation time: 0 hr 0 min 6 sec) 

CPU  0 inst:    3000003 cyc:    1639647 now IPC :1.52081: AVG IPC :1.52081: L2-Pf-HR :0.92846: L2-HR :0.88631: (Sim:0h0m8s) 
CPU  0 inst:    4000000 cyc:    2238262 now IPC :1.67052: AVG IPC :1.59215: L2-Pf-HR :0.94353: L2-HR :0.89934: (Sim:0h0m11s) 
CPU  0 inst:    5000001 cyc:    2878372 now IPC :1.56223: AVG IPC :1.58205: L2-Pf-HR :0.93659: L2-HR :0.89579: (Sim:0h0m14s) 
CPU  0 inst:    6000003 cyc:    3482315 now IPC :1.65579: AVG IPC :1.59987: L2-Pf-HR :0.94103: L2-HR :0.89888: (Sim:0h0m16s) 
CPU  0 inst:    7000000 cyc:    4139862 now IPC :1.52080: AVG IPC :1.58340: L2-Pf-HR :0.93903: L2-HR :0.89714: (Sim:0h0m19s) 
CPU  0 inst:    8000000 cyc:    4745375 now IPC :1.65149: AVG IPC :1.59436: L2-Pf-HR :0.94235: L2-HR :0.89957: (Sim:0h0m22s) 
CPU  0 inst:    9000000 cyc:    5448747 now IPC :1.42172: AVG IPC :1.56717: L2-Pf-HR :0.94032: L2-HR :0.89782: (Sim:0h0m24s) 
CPU  0 inst:   10000003 cyc:    6088679 now IPC :1.56267: AVG IPC :1.56661: L2-Pf-HR :0.94269: L2-HR :0.89950: (Sim:0h0m27s) 
CPU  0 inst:   11000003 cyc:    6793415 now IPC :1.41897: AVG IPC :1.54870: L2-Pf-HR :0.94144: L2-HR :0.89842: (Sim:0h0m30s) 
CPU  0 inst:   12000000 cyc:    7429430 now IPC :1.57229: AVG IPC :1.55103: L2-Pf-HR :0.94325: L2-HR :0.89966: (Sim:0h0m32s) 
CPU  0 inst:   13000000 cyc:    8137691 now IPC :1.41191: AVG IPC :1.53726: L2-Pf-HR :0.94218: L2-HR :0.89884: (Sim:0h0m35s) 
CPU  0 inst:   14000003 cyc:    8773088 now IPC :1.57382: AVG IPC :1.54024: L2-Pf-HR :0.94408: L2-HR :0.90036: (Sim:0h0m38s) 
CPU  0 inst:   15000000 cyc:    9491269 now IPC :1.39240: AVG IPC :1.52776: L2-Pf-HR :0.94287: L2-HR :0.89931: (Sim:0h0m40s) 
CPU  0 inst:   16000000 cyc:   10125020 now IPC :1.57791: AVG IPC :1.53124: L2-Pf-HR :0.94410: L2-HR :0.90006: (Sim:0h0m43s) 
CPU  0 inst:   17000000 cyc:   10834638 now IPC :1.40921: AVG IPC :1.52245: L2-Pf-HR :0.94317: L2-HR :0.89942: (Sim:0h0m46s) 
CPU  0 inst:   18000000 cyc:   11483544 now IPC :1.54106: AVG IPC :1.52360: L2-Pf-HR :0.94403: L2-HR :0.89978: (Sim:0h0m49s) 
CPU  0 inst:   19000002 cyc:   12189784 now IPC :1.41595: AVG IPC :1.51682: L2-Pf-HR :0.94314: L2-HR :0.89912: (Sim:0h0m51s) 
CPU  0 inst:   20000000 cyc:   12833166 now IPC :1.55428: AVG IPC :1.51885: L2-Pf-HR :0.94390: L2-HR :0.89952: (Sim:0h0m54s) 
CPU  0 inst:   21000000 cyc:   13540796 now IPC :1.41317: AVG IPC :1.51290: L2-Pf-HR :0.94326: L2-HR :0.89900: (Sim:0h0m57s) 
CPU  0 inst:   22000000 cyc:   14180779 now IPC :1.56254: AVG IPC :1.51530: L2-Pf-HR :0.94404: L2-HR :0.89944: (Sim:0h0m59s) 
CPU  0 inst:   23000000 cyc:   14895072 now IPC :1.39999: AVG IPC :1.50938: L2-Pf-HR :0.94316: L2-HR :0.89866: (Sim:0h1m2s) 
CPU  0 inst:   24000000 cyc:   15532594 now IPC :1.56857: AVG IPC :1.51198: L2-Pf-HR :0.94404: L2-HR :0.89944: (Sim:0h1m5s) 
CPU  0 inst:   25000002 cyc:   16236186 now IPC :1.42128: AVG IPC :1.50779: L2-Pf-HR :0.94369: L2-HR :0.89915: (Sim:0h1m8s) 
CPU  0 inst:   26000003 cyc:   16883907 now IPC :1.54388: AVG IPC :1.50926: L2-Pf-HR :0.94430: L2-HR :0.89962: (Sim:0h1m10s) 
CPU  0 inst:   27000002 cyc:   17585931 now IPC :1.42445: AVG IPC :1.50568: L2-Pf-HR :0.94385: L2-HR :0.89927: (Sim:0h1m13s) 
CPU  0 inst:   28000000 cyc:   18231374 now IPC :1.54932: AVG IPC :1.50731: L2-Pf-HR :0.94455: L2-HR :0.89973: (Sim:0h1m16s) 
CPU  0 inst:   29000000 cyc:   18932021 now IPC :1.42725: AVG IPC :1.50419: L2-Pf-HR :0.94399: L2-HR :0.89939: (Sim:0h1m18s) 
CPU  0 inst:   30000002 cyc:   19580932 now IPC :1.54105: AVG IPC :1.50547: L2-Pf-HR :0.94464: L2-HR :0.89979: (Sim:0h1m21s) 
CPU  0 inst:   31000002 cyc:   20231650 now IPC :1.53676: AVG IPC :1.50653: L2-Pf-HR :0.94535: L2-HR :0.90037: (Sim:0h1m24s) 
CPU  0 inst:   32000000 cyc:   20925990 now IPC :1.44021: AVG IPC :1.50422: L2-Pf-HR :0.94460: L2-HR :0.89979: (Sim:0h1m26s) 
CPU  0 inst:   33000001 cyc:   21569118 now IPC :1.55490: AVG IPC :1.50580: L2-Pf-HR :0.94526: L2-HR :0.90046: (Sim:0h1m29s) 
CPU  0 inst:   34000000 cyc:   22270088 now IPC :1.42659: AVG IPC :1.50320: L2-Pf-HR :0.94470: L2-HR :0.89994: (Sim:0h1m32s) 
CPU  0 inst:   35000000 cyc:   22918795 now IPC :1.54153: AVG IPC :1.50433: L2-Pf-HR :0.94518: L2-HR :0.90023: (Sim:0h1m35s) 
CPU  0 inst:   36000000 cyc:   23622773 now IPC :1.42050: AVG IPC :1.50172: L2-Pf-HR :0.94474: L2-HR :0.89984: (Sim:0h1m37s) 
CPU  0 inst:   37000003 cyc:   24262028 now IPC :1.56433: AVG IPC :1.50344: L2-Pf-HR :0.94526: L2-HR :0.90013: (Sim:0h1m40s) 
CPU  0 inst:   38000003 cyc:   24965541 now IPC :1.42144: AVG IPC :1.50104: L2-Pf-HR :0.94468: L2-HR :0.89972: (Sim:0h1m43s) 
CPU  0 inst:   39000003 cyc:   25607225 now IPC :1.55840: AVG IPC :1.50253: L2-Pf-HR :0.94515: L2-HR :0.89993: (Sim:0h1m45s) 
CPU  0 inst:   40000000 cyc:   26310963 now IPC :1.42098: AVG IPC :1.50026: L2-Pf-HR :0.94468: L2-HR :0.89966: (Sim:0h1m48s) 
CPU  0 inst:   41000003 cyc:   26954934 now IPC :1.55287: AVG IPC :1.50157: L2-Pf-HR :0.94499: L2-HR :0.89978: (Sim:0h1m51s) 
CPU  0 inst:   42000001 cyc:   27653684 now IPC :1.43112: AVG IPC :1.49972: L2-Pf-HR :0.94441: L2-HR :0.89947: (Sim:0h1m54s) 
CPU  0 inst:   43000000 cyc:   28285373 now IPC :1.58306: AVG IPC :1.50165: L2-Pf-HR :0.94470: L2-HR :0.89973: (Sim:0h1m56s) 
CPU  0 inst:   44000000 cyc:   28993760 now IPC :1.41166: AVG IPC :1.49938: L2-Pf-HR :0.94418: L2-HR :0.89932: (Sim:0h1m59s) 
CPU  0 inst:   45000003 cyc:   29632092 now IPC :1.56659: AVG IPC :1.50087: L2-Pf-HR :0.94464: L2-HR :0.89967: (Sim:0h2m2s) 
CPU  0 inst:   46000003 cyc:   30334889 now IPC :1.42289: AVG IPC :1.49901: L2-Pf-HR :0.94425: L2-HR :0.89944: (Sim:0h2m4s) 
CPU  0 inst:   47000002 cyc:   30970259 now IPC :1.57388: AVG IPC :1.50059: L2-Pf-HR :0.94448: L2-HR :0.89969: (Sim:0h2m7s) 
CPU  0 inst:   48000000 cyc:   31669455 now IPC :1.43021: AVG IPC :1.49899: L2-Pf-HR :0.94410: L2-HR :0.89946: (Sim:0h2m10s) 
CPU  0 inst:   49000001 cyc:   32294156 now IPC :1.60077: AVG IPC :1.50102: L2-Pf-HR :0.94430: L2-HR :0.89967: (Sim:0h2m12s) 
CPU  0 inst:   50000003 cyc:   32993959 now IPC :1.42898: AVG IPC :1.49944: L2-Pf-HR :0.94380: L2-HR :0.89938: (Sim:0h2m15s) 
CPU  0 inst:   51000001 cyc:   33623922 now IPC :1.58739: AVG IPC :1.50114: L2-Pf-HR :0.94407: L2-HR :0.89960: (Sim:0h2m18s) 
CPU  0 inst:   52000000 cyc:   34319148 now IPC :1.43838: AVG IPC :1.49983: L2-Pf-HR :0.94372: L2-HR :0.89940: (Sim:0h2m20s) 
CPU  0 inst:   53000002 cyc:   34957173 now IPC :1.56734: AVG IPC :1.50110: L2-Pf-HR :0.94389: L2-HR :0.89953: (Sim:0h2m23s) 
CPU  0 inst:   54000000 cyc:   35652708 now IPC :1.43774: AVG IPC :1.49983: L2-Pf-HR :0.94347: L2-HR :0.89927: (Sim:0h2m26s) 
CPU  0 inst:   55000000 cyc:   36281476 now IPC :1.59041: AVG IPC :1.50144: L2-Pf-HR :0.94366: L2-HR :0.89946: (Sim:0h2m28s) 
CPU  0 inst:   56000000 cyc:   36985544 now IPC :1.42032: AVG IPC :1.49986: L2-Pf-HR :0.94331: L2-HR :0.89923: (Sim:0h2m31s) 
CPU  0 inst:   57000000 cyc:   37616381 now IPC :1.58520: AVG IPC :1.50133: L2-Pf-HR :0.94353: L2-HR :0.89945: (Sim:0h2m34s) 
CPU  0 inst:   58000000 cyc:   38318705 now IPC :1.42384: AVG IPC :1.49987: L2-Pf-HR :0.94327: L2-HR :0.89929: (Sim:0h2m37s) 
CPU  0 inst:   59000000 cyc:   38955239 now IPC :1.57101: AVG IPC :1.50106: L2-Pf-HR :0.94349: L2-HR :0.89948: (Sim:0h2m39s) 
CPU  0 inst:   60000000 cyc:   39653525 now IPC :1.43208: AVG IPC :1.49982: L2-Pf-HR :0.94327: L2-HR :0.89938: (Sim:0h2m42s) 
CPU  0 inst:   61000002 cyc:   40286574 now IPC :1.57966: AVG IPC :1.50110: L2-Pf-HR :0.94348: L2-HR :0.89959: (Sim:0h2m45s) 
CPU  0 inst:   62000001 cyc:   40982195 now IPC :1.43756: AVG IPC :1.50000: L2-Pf-HR :0.94317: L2-HR :0.89944: (Sim:0h2m47s) 
CPU  0 inst:   63000002 cyc:   41624723 now IPC :1.55635: AVG IPC :1.50089: L2-Pf-HR :0.94342: L2-HR :0.89962: (Sim:0h2m50s) 
CPU  0 inst:   64000000 cyc:   42299075 now IPC :1.48290: AVG IPC :1.50059: L2-Pf-HR :0.94337: L2-HR :0.89966: (Sim:0h2m53s) 
CPU  0 inst:   65000002 cyc:   42961348 now IPC :1.50995: AVG IPC :1.50074: L2-Pf-HR :0.94334: L2-HR :0.89966: (Sim:0h2m55s) 
CPU  0 inst:   66000003 cyc:   43601097 now IPC :1.56311: AVG IPC :1.50168: L2-Pf-HR :0.94366: L2-HR :0.89997: (Sim:0h2m58s) 
CPU  0 inst:   67000003 cyc:   49303091 now IPC :0.17538: AVG IPC :1.34517: L2-Pf-HR :0.90605: L2-HR :0.87337: (Sim:0h3m6s) 
CPU  0 inst:   68000000 cyc:   53540374 now IPC :0.23600: AVG IPC :1.25575: L2-Pf-HR :0.89329: L2-HR :0.86378: (Sim:0h3m12s) 
CPU  0 inst:   69000000 cyc:   56990224 now IPC :0.28987: AVG IPC :1.19626: L2-Pf-HR :0.88932: L2-HR :0.86007: (Sim:0h3m17s) 
CPU  0 inst:   70000000 cyc:   60440426 now IPC :0.28984: AVG IPC :1.14366: L2-Pf-HR :0.88538: L2-HR :0.85642: (Sim:0h3m22s) 
CPU  0 inst:   71000000 cyc:   63890872 now IPC :0.28982: AVG IPC :1.09683: L2-Pf-HR :0.88150: L2-HR :0.85283: (Sim:0h3m27s) 
CPU  0 inst:   72000000 cyc:   67341713 now IPC :0.28978: AVG IPC :1.05486: L2-Pf-HR :0.87766: L2-HR :0.84930: (Sim:0h3m32s) 
CPU  0 inst:   73000000 cyc:   70791628 now IPC :0.28986: AVG IPC :1.01705: L2-Pf-HR :0.87386: L2-HR :0.84583: (Sim:0h3m37s) 
CPU  0 inst:   74000000 cyc:   74241648 now IPC :0.28985: AVG IPC :0.98281: L2-Pf-HR :0.87011: L2-HR :0.84242: (Sim:0h3m42s) 
CPU  0 inst:   75000000 cyc:   77691448 now IPC :0.28987: AVG IPC :0.95164: L2-Pf-HR :0.86640: L2-HR :0.83906: (Sim:0h3m47s) 
CPU  0 inst:   76000000 cyc:   81141983 now IPC :0.28981: AVG IPC :0.92316: L2-Pf-HR :0.86273: L2-HR :0.83575: (Sim:0h3m52s) 
CPU  0 inst:   77000000 cyc:   84591801 now IPC :0.28987: AVG IPC :0.89703: L2-Pf-HR :0.85912: L2-HR :0.83250: (Sim:0h3m57s) 
CPU  0 inst:   78000000 cyc:   88041677 now IPC :0.28987: AVG IPC :0.87297: L2-Pf-HR :0.85554: L2-HR :0.82930: (Sim:0h4m2s) 
CPU  0 inst:   79000000 cyc:   91492122 now IPC :0.28982: AVG IPC :0.85073: L2-Pf-HR :0.85200: L2-HR :0.82615: (Sim:0h4m7s) 
CPU  0 inst:   80000000 cyc:   94942355 now IPC :0.28984: AVG IPC :0.83014: L2-Pf-HR :0.84849: L2-HR :0.82304: (Sim:0h4m12s) 
CPU  0 inst:   81000000 cyc:   98392190 now IPC :0.28987: AVG IPC :0.81100: L2-Pf-HR :0.84503: L2-HR :0.81999: (Sim:0h4m17s) 
CPU  0 inst:   82000000 cyc:  101842368 now IPC :0.28984: AVG IPC :0.79318: L2-Pf-HR :0.84160: L2-HR :0.81698: (Sim:0h4m22s) 
CPU  0 inst:   83000000 cyc:  105292106 now IPC :0.28988: AVG IPC :0.77653: L2-Pf-HR :0.83822: L2-HR :0.81402: (Sim:0h4m27s) 
CPU  0 inst:   84000000 cyc:  108316078 now IPC :0.33069: AVG IPC :0.76397: L2-Pf-HR :0.83393: L2-HR :0.81040: (Sim:0h4m32s) 
CPU  0 inst:   85000002 cyc:  108926380 now IPC :1.63854: AVG IPC :0.76892: L2-Pf-HR :0.83764: L2-HR :0.81354: (Sim:0h4m35s) 
CPU  0 inst:   86000001 cyc:  109657551 now IPC :1.36767: AVG IPC :0.77294: L2-Pf-HR :0.83994: L2-HR :0.81562: (Sim:0h4m37s) 
CPU  0 inst:   87000001 cyc:  110258031 now IPC :1.66533: AVG IPC :0.77785: L2-Pf-HR :0.84329: L2-HR :0.81858: (Sim:0h4m40s) 
CPU  0 inst:   88000000 cyc:  110961609 now IPC :1.42131: AVG IPC :0.78196: L2-Pf-HR :0.84583: L2-HR :0.82097: (Sim:0h4m43s) 
CPU  0 inst:   89000000 cyc:  111591294 now IPC :1.58810: AVG IPC :0.78655: L2-Pf-HR :0.84849: L2-HR :0.82327: (Sim:0h4m45s) 
CPU  0 inst:   90000000 cyc:  112186200 now IPC :1.68094: AVG IPC :0.79134: L2-Pf-HR :0.85143: L2-HR :0.82587: (Sim:0h4m48s) 
CPU  0 inst:   91000003 cyc:  112836287 now IPC :1.53826: AVG IPC :0.79568: L2-Pf-HR :0.85319: L2-HR :0.82755: (Sim:0h4m51s) 
CPU  0 inst:   92000000 cyc:  113400792 now IPC :1.77146: AVG IPC :0.80058: L2-Pf-HR :0.85600: L2-HR :0.83007: (Sim:0h4m53s) 
CPU  0 inst:   93000000 cyc:  114097575 now IPC :1.43517: AVG IPC :0.80449: L2-Pf-HR :0.85751: L2-HR :0.83151: (Sim:0h4m56s) 
CPU  0 inst:   94000003 cyc:  114669928 now IPC :1.74718: AVG IPC :0.80923: L2-Pf-HR :0.86008: L2-HR :0.83388: (Sim:0h4m59s) 
CPU  0 inst:   95000000 cyc:  115347967 now IPC :1.47484: AVG IPC :0.81318: L2-Pf-HR :0.86136: L2-HR :0.83519: (Sim:0h5m2s) 
CPU  0 inst:   96000000 cyc:  115935698 now IPC :1.70146: AVG IPC :0.81772: L2-Pf-HR :0.86369: L2-HR :0.83728: (Sim:0h5m4s) 
CPU  0 inst:   97000002 cyc:  116620292 now IPC :1.46072: AVG IPC :0.82153: L2-Pf-HR :0.86484: L2-HR :0.83847: (Sim:0h5m7s) 
CPU  0 inst:   98000003 cyc:  117208423 now IPC :1.70030: AVG IPC :0.82597: L2-Pf-HR :0.86707: L2-HR :0.84050: (Sim:0h5m10s) 
CPU  0 inst:   99000001 cyc:  117887821 now IPC :1.47189: AVG IPC :0.82973: L2-Pf-HR :0.86805: L2-HR :0.84155: (Sim:0h5m12s) 
CPU  0 inst:  100000000 cyc:  118466250 now IPC :1.72882: AVG IPC :0.83416: L2-Pf-HR :0.87005: L2-HR :0.84340: (Sim:0h5m15s) 
CPU  0 inst:  101000000 cyc:  119146991 now IPC :1.46899: AVG IPC :0.83781: L2-Pf-HR :0.87094: L2-HR :0.84437: (Sim:0h5m18s) 
CPU  0 inst:  102000001 cyc:  119710656 now IPC :1.77411: AVG IPC :0.84226: L2-Pf-HR :0.87279: L2-HR :0.84614: (Sim:0h5m20s) 
CPU  0 inst:  103000003 cyc:  120394995 now IPC :1.46127: AVG IPC :0.84580: L2-Pf-HR :0.87358: L2-HR :0.84702: (Sim:0h5m23s) 
CPU  0 inst:  104000000 cyc:  120978205 now IPC :1.71464: AVG IPC :0.85003: L2-Pf-HR :0.87535: L2-HR :0.84866: (Sim:0h5m26s) 
CPU  0 inst:  105000001 cyc:  121661441 now IPC :1.46362: AVG IPC :0.85350: L2-Pf-HR :0.87615: L2-HR :0.84953: (Sim:0h5m28s) 
CPU  0 inst:  106000001 cyc:  122239417 now IPC :1.73018: AVG IPC :0.85768: L2-Pf-HR :0.87779: L2-HR :0.85108: (Sim:0h5m31s) 
CPU  0 inst:  107000001 cyc:  122916156 now IPC :1.47767: AVG IPC :0.86112: L2-Pf-HR :0.87863: L2-HR :0.85199: (Sim:0h5m34s) 
CPU  0 inst:  108000000 cyc:  123492354 now IPC :1.73551: AVG IPC :0.86523: L2-Pf-HR :0.88007: L2-HR :0.85341: (Sim:0h5m36s) 
CPU  0 inst:  109000001 cyc:  124143579 now IPC :1.53557: AVG IPC :0.86878: L2-Pf-HR :0.88120: L2-HR :0.85459: (Sim:0h5m39s) 
CPU  0 inst:  110000002 cyc:  124752157 now IPC :1.64318: AVG IPC :0.87259: L2-Pf-HR :0.88224: L2-HR :0.85559: (Sim:0h5m42s) 
CPU  0 inst:  111000000 cyc:  125332114 now IPC :1.72426: AVG IPC :0.87656: L2-Pf-HR :0.88367: L2-HR :0.85697: (Sim:0h5m44s) 
CPU  0 inst:  112000000 cyc:  126023215 now IPC :1.44697: AVG IPC :0.87971: L2-Pf-HR :0.88421: L2-HR :0.85761: (Sim:0h5m47s) 
CPU  0 inst:  113000002 cyc:  126596390 now IPC :1.74467: AVG IPC :0.88366: L2-Pf-HR :0.88562: L2-HR :0.85899: (Sim:0h5m50s) 
CPU  0 inst:  114000001 cyc:  127288935 now IPC :1.44395: AVG IPC :0.88673: L2-Pf-HR :0.88609: L2-HR :0.85952: (Sim:0h5m53s) 
CPU  0 inst:  115000001 cyc:  127858529 now IPC :1.75564: AVG IPC :0.89063: L2-Pf-HR :0.88737: L2-HR :0.86078: (Sim:0h5m55s) 
CPU  0 inst:  116000000 cyc:  128533344 now IPC :1.48189: AVG IPC :0.89376: L2-Pf-HR :0.88777: L2-HR :0.86129: (Sim:0h5m58s) 
CPU  0 inst:  117000003 cyc:  129116251 now IPC :1.71554: AVG IPC :0.89750: L2-Pf-HR :0.88902: L2-HR :0.86248: (Sim:0h6m0s) 
CPU  0 inst:  118000002 cyc:  129793089 now IPC :1.47746: AVG IPC :0.90054: L2-Pf-HR :0.88940: L2-HR :0.86297: (Sim:0h6m3s) 
CPU  0 inst:  119000002 cyc:  130382801 now IPC :1.69574: AVG IPC :0.90417: L2-Pf-HR :0.89058: L2-HR :0.86410: (Sim:0h6m6s) 
CPU  0 inst:  120000000 cyc:  131056617 now IPC :1.48408: AVG IPC :0.90717: L2-Pf-HR :0.89096: L2-HR :0.86458: (Sim:0h6m9s) 
CPU  0 inst:  121000001 cyc:  131643373 now IPC :1.70429: AVG IPC :0.91075: L2-Pf-HR :0.89213: L2-HR :0.86570: (Sim:0h6m11s) 
CPU  0 inst:  122000002 cyc:  132318713 now IPC :1.48074: AVG IPC :0.91368: L2-Pf-HR :0.89250: L2-HR :0.86621: (Sim:0h6m14s) 
CPU  0 inst:  123000003 cyc:  132899455 now IPC :1.72194: AVG IPC :0.91724: L2-Pf-HR :0.89360: L2-HR :0.86726: (Sim:0h6m16s) 
CPU  0 inst:  124000000 cyc:  133582131 now IPC :1.46482: AVG IPC :0.92006: L2-Pf-HR :0.89402: L2-HR :0.86776: (Sim:0h6m19s) 
CPU  0 inst:  125000002 cyc:  134156295 now IPC :1.74167: AVG IPC :0.92360: L2-Pf-HR :0.89501: L2-HR :0.86876: (Sim:0h6m22s) 
CPU  0 inst:  126000003 cyc:  134835427 now IPC :1.47247: AVG IPC :0.92639: L2-Pf-HR :0.89542: L2-HR :0.86925: (Sim:0h6m24s) 
CPU  0 inst:  127000000 cyc:  135420282 now IPC :1.70982: AVG IPC :0.92980: L2-Pf-HR :0.89636: L2-HR :0.87017: (Sim:0h6m27s) 
CPU  0 inst:  128000000 cyc:  136103334 now IPC :1.46402: AVG IPC :0.93250: L2-Pf-HR :0.89675: L2-HR :0.87063: (Sim:0h6m29s) 
CPU  0 inst:  129000000 cyc:  136677801 now IPC :1.74074: AVG IPC :0.93592: L2-Pf-HR :0.89758: L2-HR :0.87150: (Sim:0h6m32s) 
CPU  0 inst:  130000002 cyc:  137304517 now IPC :1.59562: AVG IPC :0.93895: L2-Pf-HR :0.89825: L2-HR :0.87222: (Sim:0h6m34s) 
CPU  0 inst:  131000000 cyc:  137938303 now IPC :1.57782: AVG IPC :0.94191: L2-Pf-HR :0.89874: L2-HR :0.87271: (Sim:0h6m37s) 
CPU  0 inst:  132000000 cyc:  138514322 now IPC :1.73605: AVG IPC :0.94523: L2-Pf-HR :0.89963: L2-HR :0.87361: (Sim:0h6m39s) 
CPU  0 inst:  133000003 cyc:  139193618 now IPC :1.47212: AVG IPC :0.94782: L2-Pf-HR :0.89985: L2-HR :0.87389: (Sim:0h6m41s) 
CPU  0 inst:  134000000 cyc:  139764982 now IPC :1.75019: AVG IPC :0.95113: L2-Pf-HR :0.90070: L2-HR :0.87475: (Sim:0h6m44s) 
CPU  0 inst:  135000003 cyc:  140454515 now IPC :1.45026: AVG IPC :0.95359: L2-Pf-HR :0.90085: L2-HR :0.87497: (Sim:0h6m46s) 
CPU  0 inst:  136000000 cyc:  141021764 now IPC :1.76289: AVG IPC :0.95687: L2-Pf-HR :0.90172: L2-HR :0.87585: (Sim:0h6m49s) 
CPU  0 inst:  137000001 cyc:  141695880 now IPC :1.48343: AVG IPC :0.95939: L2-Pf-HR :0.90187: L2-HR :0.87609: (Sim:0h6m51s) 
CPU  0 inst:  138000003 cyc:  142281210 now IPC :1.70844: AVG IPC :0.96250: L2-Pf-HR :0.90266: L2-HR :0.87687: (Sim:0h6m54s) 
CPU  0 inst:  139000001 cyc:  142962462 now IPC :1.46788: AVG IPC :0.96492: L2-Pf-HR :0.90281: L2-HR :0.87710: (Sim:0h6m56s) 
CPU  0 inst:  140000000 cyc:  143547400 now IPC :1.70958: AVG IPC :0.96798: L2-Pf-HR :0.90359: L2-HR :0.87787: (Sim:0h6m59s) 
CPU  0 inst:  141000001 cyc:  144225878 now IPC :1.47389: AVG IPC :0.97037: L2-Pf-HR :0.90372: L2-HR :0.87808: (Sim:0h7m1s) 
CPU  0 inst:  142000003 cyc:  144788201 now IPC :1.77834: AVG IPC :0.97353: L2-Pf-HR :0.90446: L2-HR :0.87885: (Sim:0h7m3s) 
CPU  0 inst:  143000002 cyc:  145476708 now IPC :1.45242: AVG IPC :0.97581: L2-Pf-HR :0.90460: L2-HR :0.87907: (Sim:0h7m6s) 
CPU  0 inst:  144000000 cyc:  146048465 now IPC :1.74899: AVG IPC :0.97886: L2-Pf-HR :0.90530: L2-HR :0.87978: (Sim:0h7m8s) 
CPU  0 inst:  145000001 cyc:  146729881 now IPC :1.46753: AVG IPC :0.98115: L2-Pf-HR :0.90549: L2-HR :0.88004: (Sim:0h7m11s) 
CPU  0 inst:  146000002 cyc:  147309631 now IPC :1.72488: AVG IPC :0.98409: L2-Pf-HR :0.90617: L2-HR :0.88072: (Sim:0h7m13s) 
CPU  0 inst:  147000000 cyc:  147984023 now IPC :1.48281: AVG IPC :0.98638: L2-Pf-HR :0.90637: L2-HR :0.88099: (Sim:0h7m16s) 
CPU  0 inst:  148000000 cyc:  148564193 now IPC :1.72363: AVG IPC :0.98928: L2-Pf-HR :0.90696: L2-HR :0.88159: (Sim:0h7m18s) 
Finished CPU 0 instr: 146000002 cyc: 147582126 AVG IPC: 0.98928 (Sim time: 0h7m18s)

ChampSim completed all CPUs

[ROI Statistics]
Core_0_instructions 146000002
Core_0_cycles 147582126
Core_0_IPC 0.98928

Core_0_branch_prediction_accuracy 97.68989
Core_0_branch_MPKI 0.56897
Core_0_average_ROB_occupancy_at_mispredict 232.60061

Core_0_L1D_total_access 72761365
Core_0_L1D_total_hit 69115607 L1D_total_Hit Ratio: 0.94989
Core_0_L1D_total_miss 3645758
Core_0_L1D_loads 33440292
Core_0_L1D_load_hit 32183274 L1D_load_Hit Ratio: 0.96241
Core_0_L1D_load_miss 1257018
Core_0_L1D_RFOs 3174851
Core_0_L1D_RFO_hit 3057850 L1D_RFO_Hit Ratio: 0.96315
Core_0_L1D_RFO_miss 117001
Core_0_L1D_prefetches 36146222
Core_0_L1D_prefetch_hit 33874483 L1D_prefetch_Hit Ratio: 0.93715
Core_0_L1D_prefetch_miss 2271739
Core_0_L1D_writebacks 0
Core_0_L1D_writeback_hit 0 L1D_writeback_Hit Ratio: -nan
Core_0_L1D_writeback_miss 0
Core_0_L1D_prefetch_requested 92643226
Core_0_L1D_prefetch_issued 51061273
Core_0_L1D_prefetch_useful 2202123 L1D_Useful Ratio: 0.04313
Core_0_L1D_prefetch_useless 95456
Core_0_L1D_prefetch_late 382446
Core_0_L1D_average_miss_latency 9930635.19544

Core_0_L1I_total_access 32865054
Core_0_L1I_total_hit 32860235 L1I_total_Hit Ratio: 0.99985
Core_0_L1I_total_miss 4819
Core_0_L1I_loads 32865054
Core_0_L1I_load_hit 32860235 L1I_load_Hit Ratio: 0.99985
Core_0_L1I_load_miss 4819
Core_0_L1I_RFOs 0
Core_0_L1I_RFO_hit 0 L1I_RFO_Hit Ratio: -nan
Core_0_L1I_RFO_miss 0
Core_0_L1I_prefetches 0
Core_0_L1I_prefetch_hit 0 L1I_prefetch_Hit Ratio: -nan
Core_0_L1I_prefetch_miss 0
Core_0_L1I_writebacks 0
Core_0_L1I_writeback_hit 0 L1I_writeback_Hit Ratio: -nan
Core_0_L1I_writeback_miss 0
Core_0_L1I_prefetch_requested 0
Core_0_L1I_prefetch_issued 0
Core_0_L1I_prefetch_useful 0 L1I_Useful Ratio: -nan
Core_0_L1I_prefetch_useless 0
Core_0_L1I_prefetch_late 0
Core_0_L1I_average_miss_latency 278.69537

Core_0_L2C_total_access 9491850
Core_0_L2C_total_hit 8367881 L2C_total_Hit Ratio: 0.88159
Core_0_L2C_total_miss 1123969
Core_0_L2C_loads 879237
Core_0_L2C_load_hit 562640 L2C_load_Hit Ratio: 0.63992
Core_0_L2C_load_miss 316597
Core_0_L2C_RFOs 116996
Core_0_L2C_RFO_hit 30959 L2C_RFO_Hit Ratio: 0.26462
Core_0_L2C_RFO_miss 86037
Core_0_L2C_prefetches 7721079
Core_0_L2C_prefetch_hit 7002674 L2C_prefetch_Hit Ratio: 0.90696
Core_0_L2C_prefetch_miss 718405
Core_0_L2C_writebacks 774538
Core_0_L2C_writeback_hit 771608 L2C_writeback_Hit Ratio: 0.99622
Core_0_L2C_writeback_miss 2930
Core_0_L2C_prefetch_requested 9144277
Core_0_L2C_prefetch_issued 9046544
Core_0_L2C_prefetch_useful 181390 L2C_Useful Ratio: 0.02005
Core_0_L2C_prefetch_useless 542918
Core_0_L2C_prefetch_late 10898
Core_0_L2C_average_miss_latency 286.10060

Core_0_LLC_total_access 1704561
Core_0_LLC_total_hit 782225 LLC_total_Hit Ratio: 0.45890
Core_0_LLC_total_miss 922336
Core_0_LLC_loads 305823
Core_0_LLC_load_hit 40112 LLC_load_Hit Ratio: 0.13116
Core_0_LLC_load_miss 265711
Core_0_LLC_RFOs 86026
Core_0_LLC_RFO_hit 11603 LLC_RFO_Hit Ratio: 0.13488
Core_0_LLC_RFO_miss 74423
Core_0_LLC_prefetches 729173
Core_0_LLC_prefetch_hit 155790 LLC_prefetch_Hit Ratio: 0.21365
Core_0_LLC_prefetch_miss 573383
Core_0_LLC_writebacks 583539
Core_0_LLC_writeback_hit 574720 LLC_writeback_Hit Ratio: 0.98489
Core_0_LLC_writeback_miss 8819
Core_0_LLC_prefetch_requested 0
Core_0_LLC_prefetch_issued 0
Core_0_LLC_prefetch_useful 7845 LLC_Useful Ratio: inf
Core_0_LLC_prefetch_useless 554827
Core_0_LLC_prefetch_late 0
Core_0_LLC_average_miss_latency 314.19603

Core_0_major_page_fault 0
Core_0_minor_page_fault 9160


Channel_0_RQ_row_buffer_hit 487293
Channel_0_RQ_row_buffer_miss 426224
Channel_0_WQ_row_buffer_hit 157862
Channel_0_WQ_row_buffer_miss 301115
Channel_0_WQ_full 0
Channel_0_dbus_congested 734777

avg_congested_cycle 11

EzSearch AVG IPC :0.98928: L2-Pf-HR :0.90696 : L2-HR :0.88159 Uful:0.02005
Finished combination: TraceType=777-comparisonScript Sim:146000000 Prefetcher=L2ipcp L1=ipcp
