TRACE: [42000000]_FE_OPT-350M_[h16]_[s256]_[d64] Warmup: 2000000 NumTraces: 42000000
L1:no:L2:spp_berti_src
Initialize SIGNATURE TABLE
ST_SET: 1
ST_WAY: 256
ST_TAG_BIT: 16
ST_TAG_MASK: ffff

Initialize PATTERN TABLE
PT_SET: 512
PT_WAY: 4
SIG_DELTA_BIT: 7
C_SIG_BIT: 4
C_DELTA_BIT: 4

Initialize PREFETCH FILTER
FILTER_SET: 1024
*************************************************
   ChampSim Multicore Out-of-Order Simulator
   Last compiled: Oct 20 2024 04:17:22
*************************************************

trace_0 777-comparisonScript_memoryTraces_s256/memTraces[42000000]_FE_OPT-350M_[h16]_[s256]_[d64].champsim.xz
ST_WAYS: 256
PT_SETS: 512
MAIN.cc ln 751 stats print skipped
CPU  0 inst:    1000000 cyc:     503959 now IPC :1.98429: AVG IPC :1.98429: L2-Pf-HR :0.98773: L2-HR :0.88758: (Sim:0h0m3s) 
CPU  0 inst:    2000001 cyc:     984285 now IPC :2.08192: AVG IPC :2.03193: L2-Pf-HR :0.99267: L2-HR :0.91671: (Sim:0h0m5s) 

Warmup complete CPU  0 instructions:    2000001 cycles:     984285 (Simulation time: 0 hr 0 min 5 sec) 

CPU  0 inst:    3000002 cyc:    1668980 now IPC :1.46051: AVG IPC :1.46051: L2-Pf-HR :0.99712: L2-HR :0.93965: (Sim:0h0m8s) 
CPU  0 inst:    4000000 cyc:    2358156 now IPC :1.45101: AVG IPC :1.45574: L2-Pf-HR :0.99706: L2-HR :0.93959: (Sim:0h0m11s) 
CPU  0 inst:    5000000 cyc:    3051047 now IPC :1.44323: AVG IPC :1.45155: L2-Pf-HR :0.99702: L2-HR :0.93980: (Sim:0h0m13s) 
CPU  0 inst:    6000002 cyc:    3768291 now IPC :1.39423: AVG IPC :1.43678: L2-Pf-HR :0.99709: L2-HR :0.93983: (Sim:0h0m16s) 
CPU  0 inst:    7000002 cyc:    4514019 now IPC :1.34097: AVG IPC :1.41654: L2-Pf-HR :0.99705: L2-HR :0.93991: (Sim:0h0m18s) 
CPU  0 inst:    8000000 cyc:    5270060 now IPC :1.32268: AVG IPC :1.39998: L2-Pf-HR :0.99702: L2-HR :0.93979: (Sim:0h0m21s) 
CPU  0 inst:    9000002 cyc:    6028426 now IPC :1.31863: AVG IPC :1.38775: L2-Pf-HR :0.99701: L2-HR :0.93993: (Sim:0h0m24s) 
CPU  0 inst:   10000000 cyc:    6780791 now IPC :1.32914: AVG IPC :1.38014: L2-Pf-HR :0.99701: L2-HR :0.93986: (Sim:0h0m26s) 
CPU  0 inst:   11000001 cyc:    7537173 now IPC :1.32208: AVG IPC :1.37344: L2-Pf-HR :0.99697: L2-HR :0.93975: (Sim:0h0m29s) 
CPU  0 inst:   12000000 cyc:    8292728 now IPC :1.32353: AVG IPC :1.36828: L2-Pf-HR :0.99697: L2-HR :0.93975: (Sim:0h0m32s) 
CPU  0 inst:   13000000 cyc:    9039205 now IPC :1.33963: AVG IPC :1.36562: L2-Pf-HR :0.99698: L2-HR :0.93993: (Sim:0h0m34s) 
CPU  0 inst:   14000001 cyc:    9795655 now IPC :1.32197: AVG IPC :1.36188: L2-Pf-HR :0.99697: L2-HR :0.94000: (Sim:0h0m37s) 
CPU  0 inst:   15000001 cyc:   10560658 now IPC :1.30718: AVG IPC :1.35751: L2-Pf-HR :0.99697: L2-HR :0.93984: (Sim:0h0m40s) 
CPU  0 inst:   16000000 cyc:   11313910 now IPC :1.32758: AVG IPC :1.35532: L2-Pf-HR :0.99696: L2-HR :0.93988: (Sim:0h0m42s) 
CPU  0 inst:   17000000 cyc:   12146826 now IPC :1.20060: AVG IPC :1.34378: L2-Pf-HR :0.99697: L2-HR :0.93959: (Sim:0h0m45s) 
CPU  0 inst:   18000000 cyc:   17061509 now IPC :0.20347: AVG IPC :0.99520: L2-Pf-HR :0.99352: L2-HR :0.90008: (Sim:0h0m51s) 
CPU  0 inst:   19000000 cyc:   20638912 now IPC :0.27953: AVG IPC :0.86494: L2-Pf-HR :0.98813: L2-HR :0.89223: (Sim:0h0m57s) 
CPU  0 inst:   20000000 cyc:   24220416 now IPC :0.27921: AVG IPC :0.77466: L2-Pf-HR :0.98279: L2-HR :0.88467: (Sim:0h1m2s) 
CPU  0 inst:   21000000 cyc:   27804423 now IPC :0.27902: AVG IPC :0.70842: L2-Pf-HR :0.97750: L2-HR :0.87736: (Sim:0h1m6s) 
CPU  0 inst:   22000000 cyc:   31391270 now IPC :0.27880: AVG IPC :0.65774: L2-Pf-HR :0.97228: L2-HR :0.87031: (Sim:0h1m11s) 
CPU  0 inst:   23000000 cyc:   34980666 now IPC :0.27860: AVG IPC :0.61771: L2-Pf-HR :0.96712: L2-HR :0.86349: (Sim:0h1m16s) 
CPU  0 inst:   24000000 cyc:   38569329 now IPC :0.27866: AVG IPC :0.58534: L2-Pf-HR :0.96201: L2-HR :0.85690: (Sim:0h1m21s) 
CPU  0 inst:   25000000 cyc:   42159634 now IPC :0.27853: AVG IPC :0.55859: L2-Pf-HR :0.95695: L2-HR :0.85052: (Sim:0h1m26s) 
CPU  0 inst:   26000000 cyc:   45492687 now IPC :0.30003: AVG IPC :0.53922: L2-Pf-HR :0.95287: L2-HR :0.84534: (Sim:0h1m30s) 
CPU  0 inst:   27000001 cyc:   46212626 now IPC :1.38901: AVG IPC :0.55275: L2-Pf-HR :0.95588: L2-HR :0.85508: (Sim:0h1m33s) 
CPU  0 inst:   28000000 cyc:   46928131 now IPC :1.39761: AVG IPC :0.56591: L2-Pf-HR :0.95846: L2-HR :0.86338: (Sim:0h1m36s) 
CPU  0 inst:   29000001 cyc:   47624696 now IPC :1.43562: AVG IPC :0.57890: L2-Pf-HR :0.96080: L2-HR :0.87088: (Sim:0h1m39s) 
CPU  0 inst:   30000003 cyc:   48327948 now IPC :1.42197: AVG IPC :0.59142: L2-Pf-HR :0.96271: L2-HR :0.87714: (Sim:0h1m41s) 
CPU  0 inst:   31000003 cyc:   49030167 now IPC :1.42406: AVG IPC :0.60359: L2-Pf-HR :0.96433: L2-HR :0.88250: (Sim:0h1m44s) 
CPU  0 inst:   32000000 cyc:   49715369 now IPC :1.45942: AVG IPC :0.61562: L2-Pf-HR :0.96574: L2-HR :0.88722: (Sim:0h1m47s) 
CPU  0 inst:   33000003 cyc:   50394281 now IPC :1.47295: AVG IPC :0.62740: L2-Pf-HR :0.96705: L2-HR :0.89144: (Sim:0h1m49s) 
CPU  0 inst:   34000002 cyc:   51072714 now IPC :1.47398: AVG IPC :0.63887: L2-Pf-HR :0.96821: L2-HR :0.89525: (Sim:0h1m52s) 
CPU  0 inst:   35000001 cyc:   51743778 now IPC :1.49017: AVG IPC :0.65012: L2-Pf-HR :0.96928: L2-HR :0.89885: (Sim:0h1m55s) 
CPU  0 inst:   36000000 cyc:   52420774 now IPC :1.47711: AVG IPC :0.66101: L2-Pf-HR :0.97020: L2-HR :0.90196: (Sim:0h1m58s) 
CPU  0 inst:   37000002 cyc:   53104013 now IPC :1.46362: AVG IPC :0.67153: L2-Pf-HR :0.97104: L2-HR :0.90472: (Sim:0h2m0s) 
CPU  0 inst:   38000001 cyc:   53786231 now IPC :1.46581: AVG IPC :0.68179: L2-Pf-HR :0.97181: L2-HR :0.90727: (Sim:0h2m3s) 
CPU  0 inst:   39000001 cyc:   54464510 now IPC :1.47432: AVG IPC :0.69184: L2-Pf-HR :0.97250: L2-HR :0.90962: (Sim:0h2m6s) 
Finished CPU 0 instr: 37000000 cyc: 53480225 AVG IPC: 0.69184 (Sim time: 0h2m6s)

ChampSim completed all CPUs

[ROI Statistics]
Core_0_instructions 37000000
Core_0_cycles 53480225
Core_0_IPC 0.69184

Core_0_branch_prediction_accuracy 98.43740
Core_0_branch_MPKI 0.50573
Core_0_average_ROB_occupancy_at_mispredict 199.23301

Core_0_L1D_total_access 11153489
Core_0_L1D_total_hit 9776881 L1D_total_Hit Ratio: 0.87658
Core_0_L1D_total_miss 1376608
Core_0_L1D_loads 10041563
Core_0_L1D_load_hit 8731796 L1D_load_Hit Ratio: 0.86957
Core_0_L1D_load_miss 1309767
Core_0_L1D_RFOs 1111926
Core_0_L1D_RFO_hit 1045085 L1D_RFO_Hit Ratio: 0.93989
Core_0_L1D_RFO_miss 66841
Core_0_L1D_prefetches 0
Core_0_L1D_prefetch_hit 0 L1D_prefetch_Hit Ratio: -nan
Core_0_L1D_prefetch_miss 0
Core_0_L1D_writebacks 0
Core_0_L1D_writeback_hit 0 L1D_writeback_Hit Ratio: -nan
Core_0_L1D_writeback_miss 0
Core_0_L1D_prefetch_requested 0
Core_0_L1D_prefetch_issued 0
Core_0_L1D_prefetch_useful 0 L1D_Useful Ratio: -nan
Core_0_L1D_prefetch_useless 0
Core_0_L1D_prefetch_late 0
Core_0_L1D_average_miss_latency 57.87638

Core_0_L1I_total_access 9114907
Core_0_L1I_total_hit 9110199 L1I_total_Hit Ratio: 0.99948
Core_0_L1I_total_miss 4708
Core_0_L1I_loads 9114907
Core_0_L1I_load_hit 9110199 L1I_load_Hit Ratio: 0.99948
Core_0_L1I_load_miss 4708
Core_0_L1I_RFOs 0
Core_0_L1I_RFO_hit 0 L1I_RFO_Hit Ratio: -nan
Core_0_L1I_RFO_miss 0
Core_0_L1I_prefetches 0
Core_0_L1I_prefetch_hit 0 L1I_prefetch_Hit Ratio: -nan
Core_0_L1I_prefetch_miss 0
Core_0_L1I_writebacks 0
Core_0_L1I_writeback_hit 0 L1I_writeback_Hit Ratio: -nan
Core_0_L1I_writeback_miss 0
Core_0_L1I_prefetch_requested 0
Core_0_L1I_prefetch_issued 0
Core_0_L1I_prefetch_useful 0 L1I_Useful Ratio: -nan
Core_0_L1I_prefetch_useless 0
Core_0_L1I_prefetch_late 0
Core_0_L1I_average_miss_latency 305.91143

Core_0_L2C_total_access 4073245
Core_0_L2C_total_hit 3705101 L2C_total_Hit Ratio: 0.90962
Core_0_L2C_total_miss 368144
Core_0_L2C_loads 1314475
Core_0_L2C_load_hit 1079848 L2C_load_Hit Ratio: 0.82151
Core_0_L2C_load_miss 234627
Core_0_L2C_RFOs 66841
Core_0_L2C_RFO_hit 958 L2C_RFO_Hit Ratio: 0.01433
Core_0_L2C_RFO_miss 65883
Core_0_L2C_prefetches 2452529
Core_0_L2C_prefetch_hit 2385073 L2C_prefetch_Hit Ratio: 0.97250
Core_0_L2C_prefetch_miss 67456
Core_0_L2C_writebacks 239400
Core_0_L2C_writeback_hit 239222 L2C_writeback_Hit Ratio: 0.99926
Core_0_L2C_writeback_miss 178
Core_0_L2C_prefetch_requested 5863554
Core_0_L2C_prefetch_issued 5538510
Core_0_L2C_prefetch_useful 68338 L2C_Useful Ratio: 0.01234
Core_0_L2C_prefetch_useless 96
Core_0_L2C_prefetch_late 19035
Core_0_L2C_average_miss_latency 176.03615

Core_0_LLC_total_access 1355399
Core_0_LLC_total_hit 985062 LLC_total_Hit Ratio: 0.72677
Core_0_LLC_total_miss 370337
Core_0_LLC_loads 215612
Core_0_LLC_load_hit 110378 LLC_load_Hit Ratio: 0.51193
Core_0_LLC_load_miss 105234
Core_0_LLC_RFOs 65883
Core_0_LLC_RFO_hit 178 LLC_RFO_Hit Ratio: 0.00270
Core_0_LLC_RFO_miss 65705
Core_0_LLC_prefetches 865855
Core_0_LLC_prefetch_hit 667594 LLC_prefetch_Hit Ratio: 0.77102
Core_0_LLC_prefetch_miss 198261
Core_0_LLC_writebacks 208049
Core_0_LLC_writeback_hit 206912 LLC_writeback_Hit Ratio: 0.99453
Core_0_LLC_writeback_miss 1137
Core_0_LLC_prefetch_requested 0
Core_0_LLC_prefetch_issued 0
Core_0_LLC_prefetch_useful 115292 LLC_Useful Ratio: inf
Core_0_LLC_prefetch_useless 82412
Core_0_LLC_prefetch_late 33737
Core_0_LLC_average_miss_latency 277.90658

Core_0_major_page_fault 0
Core_0_minor_page_fault 3908

 All Calls: 1358664
 Critical Calls: 1358664
------------------
Depth Distribution
------------------
depth 0: 0
depth 1: 885389
depth 2: 837893
depth 3: 788609
depth 4: 735652
depth 5: 655598
depth 6: 558524
depth 7: 422962
depth 8: 278296
depth 9: 158641
depth 10: 90247
depth 11: 57167
depth 12: 38673
depth 13: 18887
depth 14: 6056
depth 15: 5892
depth 16: 24
depth 17: 0
depth 18: 0
depth 19: 0
depth 20: 0
depth 21: 0
depth 22: 0
depth 23: 0
depth 24: 0
depth 25: 0
depth 26: 0
depth 27: 0
depth 28: 0
depth 29: 0
Total: 5538510
-----------------------------
-----------------------------
	Captured at Filter
-----------------------------
depth 0: 0
depth 1: 380263
depth 2: 354929
depth 3: 329951
depth 4: 300240
depth 5: 257120
depth 6: 197447
depth 7: 119778
depth 8: 58085
depth 9: 23376
depth 10: 5451
depth 11: 941
depth 12: 209
depth 13: 75
depth 14: 29
depth 15: 24
depth 16: 0
depth 17: 0
depth 18: 0
depth 19: 0
depth 20: 0
depth 21: 0
depth 22: 0
depth 23: 0
depth 24: 0
depth 25: 0
depth 26: 0
depth 27: 0
depth 28: 0
depth 29: 0
-----------------------------
-----------------------------
		Lost at Page
-----------------------------
depth 0: 0
depth 1: 61532
depth 2: 107049
depth 3: 151648
depth 4: 194837
depth 5: 230987
depth 6: 254532
depth 7: 253914
depth 8: 202680
depth 9: 142360
depth 10: 39284
depth 11: 14928
depth 12: 9789
depth 13: 4834
depth 14: 1691
depth 15: 1810
depth 16: 1
depth 17: 0
depth 18: 0
depth 19: 0
depth 20: 0
depth 21: 0
depth 22: 0
depth 23: 0
depth 24: 0
depth 25: 0
depth 26: 0
depth 27: 0
depth 28: 0
depth 29: 0
-----------------------------
-----------------------------
	Lost due to PQ Size
-----------------------------
325044
-----------------------------
ST read accesses: 1308792
ST write accesses: 5683
PT read accesses: 54825704
PT write accesses: 1957815
FILTER read accesses: 9323779
FILTER write accesses: 1261899
GHR read accesses: 9968450
GHR write accesses: 1654500
GHR counter read accesses: 44954558
GHR counter write accesses: 2226776
ST tag read accesses: 513622112
ST tag write accesses: 5799804
Channel_0_RQ_row_buffer_hit 171683
Channel_0_RQ_row_buffer_miss 197518
Channel_0_WQ_row_buffer_hit 84599
Channel_0_WQ_row_buffer_miss 121180
Channel_0_WQ_full 0
Channel_0_dbus_congested 272019

avg_congested_cycle 11

EzSearch AVG IPC :0.69184: L2-Pf-HR :0.97250 : L2-HR :0.90962 Uful:0.01234
Finished combination: TraceType=777-comparisonScript Sim:37000000 Prefetcher=L2spp_berti_src L1=no
