TRACE: [151000000]_FE_OPT-6_7B_[h32]_[s256]_[d128] Warmup: 2000000 NumTraces: 151000000
L1:isb_ideal:L2:isb_ideal
*************************************************
   ChampSim Multicore Out-of-Order Simulator
   Last compiled: Oct 20 2024 05:12:04
*************************************************

trace_0 777-comparisonScript_memoryTraces_s256/memTraces[151000000]_FE_OPT-6_7B_[h32]_[s256]_[d128].champsim.xz
L1D: Ideal ISB Prefetching
Ideal ISB Prefetching
MAIN.cc ln 751 stats print skipped
CPU  0 inst:    1000001 cyc:     505409 now IPC :1.97860: AVG IPC :1.97860: L2-Pf-HR :0.99736: L2-HR :0.88871: (Sim:0h0m2s) 
CPU  0 inst:    2000001 cyc:     984077 now IPC :2.08913: AVG IPC :2.03236: L2-Pf-HR :0.99741: L2-HR :0.92893: (Sim:0h0m5s) 

Warmup complete CPU  0 instructions:    2000001 cycles:     984077 (Simulation time: 0 hr 0 min 5 sec) 

CPU  0 inst:    3000002 cyc:    1750075 now IPC :1.30549: AVG IPC :1.30549: L2-Pf-HR :0.99699: L2-HR :0.95045: (Sim:0h0m8s) 
CPU  0 inst:    4000000 cyc:    2410198 now IPC :1.51487: AVG IPC :1.40240: L2-Pf-HR :0.99706: L2-HR :0.95803: (Sim:0h0m10s) 
CPU  0 inst:    5000001 cyc:    3161966 now IPC :1.33020: AVG IPC :1.37748: L2-Pf-HR :0.99692: L2-HR :0.95611: (Sim:0h0m13s) 
CPU  0 inst:    6000003 cyc:    3834022 now IPC :1.48797: AVG IPC :1.40354: L2-Pf-HR :0.99684: L2-HR :0.95785: (Sim:0h0m15s) 
CPU  0 inst:    7000000 cyc:    4593549 now IPC :1.31660: AVG IPC :1.38524: L2-Pf-HR :0.99679: L2-HR :0.95667: (Sim:0h0m18s) 
CPU  0 inst:    8000000 cyc:    5262413 now IPC :1.49507: AVG IPC :1.40241: L2-Pf-HR :0.99680: L2-HR :0.95805: (Sim:0h0m20s) 
CPU  0 inst:    9000003 cyc:    6074310 now IPC :1.23169: AVG IPC :1.37518: L2-Pf-HR :0.99678: L2-HR :0.95695: (Sim:0h0m23s) 
CPU  0 inst:   10000001 cyc:    6772172 now IPC :1.43295: AVG IPC :1.38215: L2-Pf-HR :0.99677: L2-HR :0.95805: (Sim:0h0m26s) 
CPU  0 inst:   11000002 cyc:    7581408 now IPC :1.23573: AVG IPC :1.36419: L2-Pf-HR :0.99681: L2-HR :0.95740: (Sim:0h0m28s) 
CPU  0 inst:   12000000 cyc:    8282531 now IPC :1.42628: AVG IPC :1.37015: L2-Pf-HR :0.99684: L2-HR :0.95810: (Sim:0h0m31s) 
CPU  0 inst:   13000001 cyc:    9098695 now IPC :1.22525: AVG IPC :1.35558: L2-Pf-HR :0.99687: L2-HR :0.95754: (Sim:0h0m33s) 
CPU  0 inst:   14000003 cyc:    9788913 now IPC :1.44882: AVG IPC :1.36289: L2-Pf-HR :0.99693: L2-HR :0.95836: (Sim:0h0m36s) 
CPU  0 inst:   15000000 cyc:   10613688 now IPC :1.21245: AVG IPC :1.35000: L2-Pf-HR :0.99694: L2-HR :0.95773: (Sim:0h0m39s) 
CPU  0 inst:   16000000 cyc:   11304082 now IPC :1.44845: AVG IPC :1.35659: L2-Pf-HR :0.99694: L2-HR :0.95828: (Sim:0h0m41s) 
CPU  0 inst:   17000003 cyc:   12120907 now IPC :1.22426: AVG IPC :1.34688: L2-Pf-HR :0.99692: L2-HR :0.95787: (Sim:0h0m44s) 
CPU  0 inst:   18000000 cyc:   12829493 now IPC :1.41126: AVG IPC :1.35073: L2-Pf-HR :0.99689: L2-HR :0.95817: (Sim:0h0m47s) 
CPU  0 inst:   19000002 cyc:   13639703 now IPC :1.23425: AVG IPC :1.34328: L2-Pf-HR :0.99686: L2-HR :0.95779: (Sim:0h0m50s) 
CPU  0 inst:   20000000 cyc:   14345719 now IPC :1.41640: AVG IPC :1.34714: L2-Pf-HR :0.99684: L2-HR :0.95807: (Sim:0h0m52s) 
CPU  0 inst:   21000000 cyc:   15159112 now IPC :1.22942: AVG IPC :1.34038: L2-Pf-HR :0.99683: L2-HR :0.95776: (Sim:0h0m55s) 
CPU  0 inst:   22000002 cyc:   15851327 now IPC :1.44464: AVG IPC :1.34524: L2-Pf-HR :0.99677: L2-HR :0.95808: (Sim:0h0m57s) 
CPU  0 inst:   23000002 cyc:   16671413 now IPC :1.21938: AVG IPC :1.33866: L2-Pf-HR :0.99673: L2-HR :0.95767: (Sim:0h1m0s) 
CPU  0 inst:   24000000 cyc:   17369268 now IPC :1.43296: AVG IPC :1.34268: L2-Pf-HR :0.99676: L2-HR :0.95807: (Sim:0h1m3s) 
CPU  0 inst:   25000002 cyc:   18173943 now IPC :1.24274: AVG IPC :1.33800: L2-Pf-HR :0.99680: L2-HR :0.95785: (Sim:0h1m6s) 
CPU  0 inst:   26000003 cyc:   18884252 now IPC :1.40784: AVG IPC :1.34077: L2-Pf-HR :0.99680: L2-HR :0.95814: (Sim:0h1m8s) 
CPU  0 inst:   27000001 cyc:   19688677 now IPC :1.24312: AVG IPC :1.33657: L2-Pf-HR :0.99682: L2-HR :0.95789: (Sim:0h1m11s) 
CPU  0 inst:   28000000 cyc:   20387710 now IPC :1.43055: AVG IPC :1.33996: L2-Pf-HR :0.99683: L2-HR :0.95822: (Sim:0h1m14s) 
CPU  0 inst:   29000000 cyc:   21203042 now IPC :1.22649: AVG IPC :1.33538: L2-Pf-HR :0.99685: L2-HR :0.95797: (Sim:0h1m17s) 
CPU  0 inst:   30000003 cyc:   21903468 now IPC :1.42771: AVG IPC :1.33847: L2-Pf-HR :0.99686: L2-HR :0.95824: (Sim:0h1m20s) 
CPU  0 inst:   31000002 cyc:   22614136 now IPC :1.40713: AVG IPC :1.34073: L2-Pf-HR :0.99688: L2-HR :0.95861: (Sim:0h1m22s) 
CPU  0 inst:   32000000 cyc:   23416384 now IPC :1.24649: AVG IPC :1.33736: L2-Pf-HR :0.99689: L2-HR :0.95826: (Sim:0h1m25s) 
CPU  0 inst:   33000000 cyc:   24118802 now IPC :1.42365: AVG IPC :1.33998: L2-Pf-HR :0.99691: L2-HR :0.95861: (Sim:0h1m28s) 
CPU  0 inst:   34000000 cyc:   24922164 now IPC :1.24477: AVG IPC :1.33678: L2-Pf-HR :0.99690: L2-HR :0.95832: (Sim:0h1m31s) 
CPU  0 inst:   35000000 cyc:   25626225 now IPC :1.42033: AVG IPC :1.33917: L2-Pf-HR :0.99688: L2-HR :0.95851: (Sim:0h1m34s) 
CPU  0 inst:   36000000 cyc:   26434578 now IPC :1.23708: AVG IPC :1.33593: L2-Pf-HR :0.99688: L2-HR :0.95827: (Sim:0h1m37s) 
CPU  0 inst:   37000000 cyc:   27126810 now IPC :1.44460: AVG IPC :1.33880: L2-Pf-HR :0.99687: L2-HR :0.95848: (Sim:0h1m39s) 
CPU  0 inst:   38000002 cyc:   27947985 now IPC :1.21777: AVG IPC :1.33512: L2-Pf-HR :0.99685: L2-HR :0.95822: (Sim:0h1m42s) 
CPU  0 inst:   39000002 cyc:   28641096 now IPC :1.44277: AVG IPC :1.33782: L2-Pf-HR :0.99683: L2-HR :0.95839: (Sim:0h1m45s) 
CPU  0 inst:   40000000 cyc:   29452970 now IPC :1.23172: AVG IPC :1.33479: L2-Pf-HR :0.99682: L2-HR :0.95822: (Sim:0h1m48s) 
CPU  0 inst:   41000001 cyc:   30160636 now IPC :1.41310: AVG IPC :1.33669: L2-Pf-HR :0.99680: L2-HR :0.95833: (Sim:0h1m51s) 
CPU  0 inst:   42000000 cyc:   30972127 now IPC :1.23230: AVG IPC :1.33386: L2-Pf-HR :0.99680: L2-HR :0.95817: (Sim:0h1m54s) 
CPU  0 inst:   43000002 cyc:   31667280 now IPC :1.43854: AVG IPC :1.33624: L2-Pf-HR :0.99679: L2-HR :0.95832: (Sim:0h1m56s) 
CPU  0 inst:   44000000 cyc:   32487673 now IPC :1.21893: AVG IPC :1.33318: L2-Pf-HR :0.99677: L2-HR :0.95809: (Sim:0h1m59s) 
CPU  0 inst:   45000003 cyc:   33183074 now IPC :1.43802: AVG IPC :1.33545: L2-Pf-HR :0.99677: L2-HR :0.95828: (Sim:0h2m2s) 
CPU  0 inst:   46000003 cyc:   33997894 now IPC :1.22726: AVG IPC :1.33278: L2-Pf-HR :0.99679: L2-HR :0.95814: (Sim:0h2m5s) 
CPU  0 inst:   47000002 cyc:   34701606 now IPC :1.42103: AVG IPC :1.33462: L2-Pf-HR :0.99678: L2-HR :0.95827: (Sim:0h2m8s) 
CPU  0 inst:   48000000 cyc:   35514869 now IPC :1.22961: AVG IPC :1.33214: L2-Pf-HR :0.99678: L2-HR :0.95813: (Sim:0h2m11s) 
CPU  0 inst:   49000001 cyc:   36207686 now IPC :1.44338: AVG IPC :1.33433: L2-Pf-HR :0.99677: L2-HR :0.95828: (Sim:0h2m13s) 
CPU  0 inst:   50000003 cyc:   37032482 now IPC :1.21242: AVG IPC :1.33154: L2-Pf-HR :0.99677: L2-HR :0.95810: (Sim:0h2m16s) 
CPU  0 inst:   51000000 cyc:   37725741 now IPC :1.44246: AVG IPC :1.33364: L2-Pf-HR :0.99677: L2-HR :0.95823: (Sim:0h2m19s) 
CPU  0 inst:   52000000 cyc:   38535926 now IPC :1.23429: AVG IPC :1.33149: L2-Pf-HR :0.99676: L2-HR :0.95810: (Sim:0h2m22s) 
CPU  0 inst:   53000003 cyc:   39243691 now IPC :1.41290: AVG IPC :1.33300: L2-Pf-HR :0.99676: L2-HR :0.95819: (Sim:0h2m25s) 
CPU  0 inst:   54000001 cyc:   40051316 now IPC :1.23820: AVG IPC :1.33104: L2-Pf-HR :0.99674: L2-HR :0.95806: (Sim:0h2m28s) 
CPU  0 inst:   55000002 cyc:   40748878 now IPC :1.43357: AVG IPC :1.33284: L2-Pf-HR :0.99674: L2-HR :0.95819: (Sim:0h2m30s) 
CPU  0 inst:   56000000 cyc:   41569622 now IPC :1.21840: AVG IPC :1.33052: L2-Pf-HR :0.99673: L2-HR :0.95803: (Sim:0h2m33s) 
CPU  0 inst:   57000001 cyc:   42267800 now IPC :1.43230: AVG IPC :1.33224: L2-Pf-HR :0.99673: L2-HR :0.95817: (Sim:0h2m36s) 
CPU  0 inst:   58000000 cyc:   43079966 now IPC :1.23127: AVG IPC :1.33030: L2-Pf-HR :0.99674: L2-HR :0.95806: (Sim:0h2m39s) 
CPU  0 inst:   59000001 cyc:   43784621 now IPC :1.41914: AVG IPC :1.33176: L2-Pf-HR :0.99674: L2-HR :0.95818: (Sim:0h2m42s) 
CPU  0 inst:   60000000 cyc:   44593323 now IPC :1.23655: AVG IPC :1.32999: L2-Pf-HR :0.99676: L2-HR :0.95809: (Sim:0h2m45s) 
CPU  0 inst:   61000003 cyc:   45289590 now IPC :1.43623: AVG IPC :1.33166: L2-Pf-HR :0.99676: L2-HR :0.95823: (Sim:0h2m47s) 
CPU  0 inst:   62000000 cyc:   46108210 now IPC :1.22156: AVG IPC :1.32967: L2-Pf-HR :0.99677: L2-HR :0.95811: (Sim:0h2m51s) 
CPU  0 inst:   63000002 cyc:   46808597 now IPC :1.42778: AVG IPC :1.33117: L2-Pf-HR :0.99677: L2-HR :0.95823: (Sim:0h2m53s) 
CPU  0 inst:   64000000 cyc:   47581368 now IPC :1.29404: AVG IPC :1.33055: L2-Pf-HR :0.99679: L2-HR :0.95823: (Sim:0h2m56s) 
CPU  0 inst:   65000000 cyc:   48323888 now IPC :1.34677: AVG IPC :1.33080: L2-Pf-HR :0.99679: L2-HR :0.95824: (Sim:0h2m59s) 
CPU  0 inst:   66000002 cyc:   49027854 now IPC :1.42053: AVG IPC :1.33212: L2-Pf-HR :0.99680: L2-HR :0.95842: (Sim:0h3m2s) 
CPU  0 inst:   67000003 cyc:   54778220 now IPC :0.17390: AVG IPC :1.20831: L2-Pf-HR :0.99680: L2-HR :0.94487: (Sim:0h3m13s) 
CPU  0 inst:   68000000 cyc:   60251780 now IPC :0.18270: AVG IPC :1.11359: L2-Pf-HR :0.99680: L2-HR :0.93977: (Sim:0h3m21s) 
CPU  0 inst:   69000000 cyc:   65507029 now IPC :0.19029: AVG IPC :1.03839: L2-Pf-HR :0.99680: L2-HR :0.93776: (Sim:0h3m27s) 
CPU  0 inst:   70000000 cyc:   70541860 now IPC :0.19862: AVG IPC :0.97760: L2-Pf-HR :0.99680: L2-HR :0.93575: (Sim:0h3m33s) 
CPU  0 inst:   71000000 cyc:   75589773 now IPC :0.19810: AVG IPC :0.92486: L2-Pf-HR :0.99680: L2-HR :0.93376: (Sim:0h3m40s) 
CPU  0 inst:   72000000 cyc:   80522278 now IPC :0.20274: AVG IPC :0.88008: L2-Pf-HR :0.99680: L2-HR :0.93178: (Sim:0h3m46s) 
CPU  0 inst:   73000000 cyc:   85477702 now IPC :0.20180: AVG IPC :0.84030: L2-Pf-HR :0.99680: L2-HR :0.92981: (Sim:0h3m52s) 
CPU  0 inst:   74000000 cyc:   90522169 now IPC :0.19824: AVG IPC :0.80413: L2-Pf-HR :0.99680: L2-HR :0.92786: (Sim:0h3m58s) 
CPU  0 inst:   75000000 cyc:   95444150 now IPC :0.20317: AVG IPC :0.77281: L2-Pf-HR :0.99680: L2-HR :0.92592: (Sim:0h4m4s) 
CPU  0 inst:   76000000 cyc:  100376597 now IPC :0.20274: AVG IPC :0.74452: L2-Pf-HR :0.99680: L2-HR :0.92399: (Sim:0h4m9s) 
CPU  0 inst:   77000000 cyc:  105411330 now IPC :0.19862: AVG IPC :0.71820: L2-Pf-HR :0.99680: L2-HR :0.92208: (Sim:0h4m16s) 
CPU  0 inst:   78000000 cyc:  110428799 now IPC :0.19930: AVG IPC :0.69441: L2-Pf-HR :0.99680: L2-HR :0.92018: (Sim:0h4m22s) 
CPU  0 inst:   79000000 cyc:  115437600 now IPC :0.19965: AVG IPC :0.67276: L2-Pf-HR :0.99680: L2-HR :0.91829: (Sim:0h4m28s) 
CPU  0 inst:   80000000 cyc:  120482923 now IPC :0.19820: AVG IPC :0.65273: L2-Pf-HR :0.99680: L2-HR :0.91641: (Sim:0h4m34s) 
CPU  0 inst:   81000000 cyc:  125598096 now IPC :0.19550: AVG IPC :0.63396: L2-Pf-HR :0.99680: L2-HR :0.91454: (Sim:0h4m40s) 
CPU  0 inst:   82000000 cyc:  130646648 now IPC :0.19808: AVG IPC :0.61699: L2-Pf-HR :0.99680: L2-HR :0.91269: (Sim:0h4m46s) 
CPU  0 inst:   83000000 cyc:  135666883 now IPC :0.19919: AVG IPC :0.60141: L2-Pf-HR :0.99680: L2-HR :0.91084: (Sim:0h4m52s) 
CPU  0 inst:   84000000 cyc:  139863468 now IPC :0.23829: AVG IPC :0.59044: L2-Pf-HR :0.99664: L2-HR :0.90843: (Sim:0h4m58s) 
CPU  0 inst:   85000002 cyc:  140556119 now IPC :1.44373: AVG IPC :0.59468: L2-Pf-HR :0.99649: L2-HR :0.90921: (Sim:0h5m1s) 
CPU  0 inst:   86000001 cyc:  141463118 now IPC :1.10254: AVG IPC :0.59795: L2-Pf-HR :0.99624: L2-HR :0.90958: (Sim:0h5m4s) 
CPU  0 inst:   87000001 cyc:  142140083 now IPC :1.47718: AVG IPC :0.60217: L2-Pf-HR :0.99605: L2-HR :0.91021: (Sim:0h5m8s) 
CPU  0 inst:   88000000 cyc:  143006040 now IPC :1.15479: AVG IPC :0.60554: L2-Pf-HR :0.99591: L2-HR :0.91064: (Sim:0h5m11s) 
CPU  0 inst:   89000002 cyc:  143736479 now IPC :1.36904: AVG IPC :0.60945: L2-Pf-HR :0.99564: L2-HR :0.91099: (Sim:0h5m14s) 
CPU  0 inst:   90000000 cyc:  144409354 now IPC :1.48616: AVG IPC :0.61356: L2-Pf-HR :0.99549: L2-HR :0.91163: (Sim:0h5m17s) 
CPU  0 inst:   91000003 cyc:  145241641 now IPC :1.20151: AVG IPC :0.61695: L2-Pf-HR :0.99528: L2-HR :0.91169: (Sim:0h5m21s) 
CPU  0 inst:   92000000 cyc:  145873760 now IPC :1.58198: AVG IPC :0.62116: L2-Pf-HR :0.99516: L2-HR :0.91227: (Sim:0h5m24s) 
CPU  0 inst:   93000000 cyc:  146721533 now IPC :1.17956: AVG IPC :0.62441: L2-Pf-HR :0.99493: L2-HR :0.91236: (Sim:0h5m28s) 
CPU  0 inst:   94000002 cyc:  147365190 now IPC :1.55363: AVG IPC :0.62850: L2-Pf-HR :0.99483: L2-HR :0.91295: (Sim:0h5m31s) 
CPU  0 inst:   95000000 cyc:  148199275 now IPC :1.19892: AVG IPC :0.63173: L2-Pf-HR :0.99461: L2-HR :0.91313: (Sim:0h5m34s) 
CPU  0 inst:   96000000 cyc:  148856112 now IPC :1.52245: AVG IPC :0.63568: L2-Pf-HR :0.99453: L2-HR :0.91364: (Sim:0h5m38s) 
CPU  0 inst:   97000002 cyc:  149693054 now IPC :1.19483: AVG IPC :0.63883: L2-Pf-HR :0.99430: L2-HR :0.91376: (Sim:0h5m41s) 
CPU  0 inst:   98000003 cyc:  150353615 now IPC :1.51387: AVG IPC :0.64270: L2-Pf-HR :0.99421: L2-HR :0.91421: (Sim:0h5m44s) 
CPU  0 inst:   99000001 cyc:  151196333 now IPC :1.18663: AVG IPC :0.64575: L2-Pf-HR :0.99398: L2-HR :0.91428: (Sim:0h5m48s) 
CPU  0 inst:  100000000 cyc:  151845935 now IPC :1.53940: AVG IPC :0.64960: L2-Pf-HR :0.99387: L2-HR :0.91472: (Sim:0h5m51s) 
CPU  0 inst:  101000003 cyc:  152690307 now IPC :1.18432: AVG IPC :0.65258: L2-Pf-HR :0.99365: L2-HR :0.91483: (Sim:0h5m55s) 
CPU  0 inst:  102000001 cyc:  153318403 now IPC :1.59211: AVG IPC :0.65645: L2-Pf-HR :0.99355: L2-HR :0.91535: (Sim:0h5m58s) 
CPU  0 inst:  103000003 cyc:  154166670 now IPC :1.17888: AVG IPC :0.65934: L2-Pf-HR :0.99335: L2-HR :0.91552: (Sim:0h6m1s) 
CPU  0 inst:  104000000 cyc:  154808896 now IPC :1.55708: AVG IPC :0.66309: L2-Pf-HR :0.99326: L2-HR :0.91602: (Sim:0h6m4s) 
CPU  0 inst:  105000001 cyc:  155656707 now IPC :1.17951: AVG IPC :0.66592: L2-Pf-HR :0.99309: L2-HR :0.91618: (Sim:0h6m8s) 
CPU  0 inst:  106000001 cyc:  156305690 now IPC :1.54087: AVG IPC :0.66958: L2-Pf-HR :0.99300: L2-HR :0.91663: (Sim:0h6m11s) 
CPU  0 inst:  107000001 cyc:  157145009 now IPC :1.19144: AVG IPC :0.67238: L2-Pf-HR :0.99285: L2-HR :0.91677: (Sim:0h6m14s) 
CPU  0 inst:  108000000 cyc:  157789769 now IPC :1.55096: AVG IPC :0.67600: L2-Pf-HR :0.99273: L2-HR :0.91717: (Sim:0h6m17s) 
CPU  0 inst:  109000000 cyc:  158582392 now IPC :1.26163: AVG IPC :0.67894: L2-Pf-HR :0.99267: L2-HR :0.91746: (Sim:0h6m21s) 
CPU  0 inst:  110000000 cyc:  159283601 now IPC :1.42611: AVG IPC :0.68225: L2-Pf-HR :0.99247: L2-HR :0.91761: (Sim:0h6m24s) 
CPU  0 inst:  111000001 cyc:  159929919 now IPC :1.54723: AVG IPC :0.68577: L2-Pf-HR :0.99240: L2-HR :0.91804: (Sim:0h6m27s) 
CPU  0 inst:  112000000 cyc:  160787364 now IPC :1.16625: AVG IPC :0.68835: L2-Pf-HR :0.99224: L2-HR :0.91801: (Sim:0h6m31s) 
CPU  0 inst:  113000002 cyc:  161440207 now IPC :1.53176: AVG IPC :0.69178: L2-Pf-HR :0.99217: L2-HR :0.91841: (Sim:0h6m34s) 
CPU  0 inst:  114000000 cyc:  162290570 now IPC :1.17597: AVG IPC :0.69433: L2-Pf-HR :0.99199: L2-HR :0.91840: (Sim:0h6m37s) 
CPU  0 inst:  115000001 cyc:  162937437 now IPC :1.54591: AVG IPC :0.69773: L2-Pf-HR :0.99194: L2-HR :0.91880: (Sim:0h6m40s) 
CPU  0 inst:  116000000 cyc:  163773167 now IPC :1.19656: AVG IPC :0.70029: L2-Pf-HR :0.99177: L2-HR :0.91886: (Sim:0h6m44s) 
CPU  0 inst:  117000003 cyc:  164432527 now IPC :1.51663: AVG IPC :0.70359: L2-Pf-HR :0.99174: L2-HR :0.91924: (Sim:0h6m47s) 
CPU  0 inst:  118000003 cyc:  165278974 now IPC :1.18141: AVG IPC :0.70605: L2-Pf-HR :0.99158: L2-HR :0.91929: (Sim:0h6m51s) 
CPU  0 inst:  119000002 cyc:  165941262 now IPC :1.50992: AVG IPC :0.70927: L2-Pf-HR :0.99154: L2-HR :0.91964: (Sim:0h6m54s) 
CPU  0 inst:  120000000 cyc:  166783693 now IPC :1.18704: AVG IPC :0.71170: L2-Pf-HR :0.99139: L2-HR :0.91970: (Sim:0h6m57s) 
CPU  0 inst:  121000001 cyc:  167429171 now IPC :1.54924: AVG IPC :0.71495: L2-Pf-HR :0.99134: L2-HR :0.92007: (Sim:0h7m0s) 
CPU  0 inst:  122000003 cyc:  168272011 now IPC :1.18647: AVG IPC :0.71733: L2-Pf-HR :0.99122: L2-HR :0.92021: (Sim:0h7m4s) 
CPU  0 inst:  123000003 cyc:  168914304 now IPC :1.55692: AVG IPC :0.72054: L2-Pf-HR :0.99119: L2-HR :0.92059: (Sim:0h7m7s) 
CPU  0 inst:  124000000 cyc:  169758879 now IPC :1.18402: AVG IPC :0.72286: L2-Pf-HR :0.99109: L2-HR :0.92068: (Sim:0h7m10s) 
CPU  0 inst:  125000001 cyc:  170402561 now IPC :1.55356: AVG IPC :0.72601: L2-Pf-HR :0.99105: L2-HR :0.92102: (Sim:0h7m13s) 
CPU  0 inst:  126000000 cyc:  171249462 now IPC :1.18077: AVG IPC :0.72827: L2-Pf-HR :0.99095: L2-HR :0.92111: (Sim:0h7m17s) 
CPU  0 inst:  127000003 cyc:  171898081 now IPC :1.54174: AVG IPC :0.73136: L2-Pf-HR :0.99091: L2-HR :0.92142: (Sim:0h7m20s) 
CPU  0 inst:  128000000 cyc:  172743501 now IPC :1.18284: AVG IPC :0.73358: L2-Pf-HR :0.99083: L2-HR :0.92149: (Sim:0h7m23s) 
CPU  0 inst:  129000003 cyc:  173387924 now IPC :1.55178: AVG IPC :0.73664: L2-Pf-HR :0.99076: L2-HR :0.92179: (Sim:0h7m26s) 
CPU  0 inst:  130000002 cyc:  174140896 now IPC :1.32807: AVG IPC :0.73921: L2-Pf-HR :0.99072: L2-HR :0.92201: (Sim:0h7m29s) 
CPU  0 inst:  131000003 cyc:  174883666 now IPC :1.34631: AVG IPC :0.74181: L2-Pf-HR :0.99059: L2-HR :0.92208: (Sim:0h7m33s) 
CPU  0 inst:  132000000 cyc:  175533177 now IPC :1.53962: AVG IPC :0.74478: L2-Pf-HR :0.99055: L2-HR :0.92241: (Sim:0h7m36s) 
CPU  0 inst:  133000000 cyc:  176379363 now IPC :1.18177: AVG IPC :0.74688: L2-Pf-HR :0.99043: L2-HR :0.92234: (Sim:0h7m39s) 
CPU  0 inst:  134000003 cyc:  177020029 now IPC :1.56088: AVG IPC :0.74985: L2-Pf-HR :0.99040: L2-HR :0.92264: (Sim:0h7m42s) 
CPU  0 inst:  135000002 cyc:  177876832 now IPC :1.16713: AVG IPC :0.75187: L2-Pf-HR :0.99027: L2-HR :0.92259: (Sim:0h7m46s) 
CPU  0 inst:  136000000 cyc:  178520611 now IPC :1.55332: AVG IPC :0.75477: L2-Pf-HR :0.99026: L2-HR :0.92290: (Sim:0h7m49s) 
CPU  0 inst:  137000001 cyc:  179358548 now IPC :1.19341: AVG IPC :0.75683: L2-Pf-HR :0.99013: L2-HR :0.92291: (Sim:0h7m52s) 
CPU  0 inst:  138000002 cyc:  180018008 now IPC :1.51639: AVG IPC :0.75963: L2-Pf-HR :0.99012: L2-HR :0.92320: (Sim:0h7m55s) 
CPU  0 inst:  139000003 cyc:  180866458 now IPC :1.17862: AVG IPC :0.76161: L2-Pf-HR :0.99000: L2-HR :0.92322: (Sim:0h7m59s) 
CPU  0 inst:  140000000 cyc:  181523630 now IPC :1.52167: AVG IPC :0.76438: L2-Pf-HR :0.98998: L2-HR :0.92352: (Sim:0h8m2s) 
CPU  0 inst:  141000000 cyc:  182361896 now IPC :1.19294: AVG IPC :0.76636: L2-Pf-HR :0.98987: L2-HR :0.92356: (Sim:0h8m5s) 
CPU  0 inst:  142000000 cyc:  182990582 now IPC :1.59062: AVG IPC :0.76920: L2-Pf-HR :0.98984: L2-HR :0.92388: (Sim:0h8m8s) 
CPU  0 inst:  143000002 cyc:  183843415 now IPC :1.17256: AVG IPC :0.77108: L2-Pf-HR :0.98975: L2-HR :0.92390: (Sim:0h8m12s) 
CPU  0 inst:  144000000 cyc:  184488735 now IPC :1.54962: AVG IPC :0.77382: L2-Pf-HR :0.98973: L2-HR :0.92418: (Sim:0h8m15s) 
CPU  0 inst:  145000002 cyc:  185334462 now IPC :1.18242: AVG IPC :0.77570: L2-Pf-HR :0.98965: L2-HR :0.92420: (Sim:0h8m19s) 
CPU  0 inst:  146000001 cyc:  185984609 now IPC :1.53811: AVG IPC :0.77838: L2-Pf-HR :0.98962: L2-HR :0.92445: (Sim:0h8m22s) 
CPU  0 inst:  147000003 cyc:  186820020 now IPC :1.19702: AVG IPC :0.78026: L2-Pf-HR :0.98956: L2-HR :0.92447: (Sim:0h8m25s) 
CPU  0 inst:  148000000 cyc:  187476475 now IPC :1.52333: AVG IPC :0.78287: L2-Pf-HR :0.98950: L2-HR :0.92468: (Sim:0h8m28s) 
Finished CPU 0 instr: 146000002 cyc: 186492434 AVG IPC: 0.78287 (Sim time: 0h8m28s)

ChampSim completed all CPUs

[ROI Statistics]
Core_0_instructions 146000002
Core_0_cycles 186492434
Core_0_IPC 0.78287

Core_0_branch_prediction_accuracy 97.68989
Core_0_branch_MPKI 0.56897
Core_0_average_ROB_occupancy_at_mispredict 232.39623

Core_0_L1D_total_access 36773696
Core_0_L1D_total_hit 33620635 L1D_total_Hit Ratio: 0.91426
Core_0_L1D_total_miss 3153061
Core_0_L1D_loads 33195490
Core_0_L1D_load_hit 30204356 L1D_load_Hit Ratio: 0.90989
Core_0_L1D_load_miss 2991134
Core_0_L1D_RFOs 3139383
Core_0_L1D_RFO_hit 2977456 L1D_RFO_Hit Ratio: 0.94842
Core_0_L1D_RFO_miss 161927
Core_0_L1D_prefetches 438823
Core_0_L1D_prefetch_hit 438823 L1D_prefetch_Hit Ratio: 1.00000
Core_0_L1D_prefetch_miss 0
Core_0_L1D_writebacks 0
Core_0_L1D_writeback_hit 0 L1D_writeback_Hit Ratio: -nan
Core_0_L1D_writeback_miss 0
Core_0_L1D_prefetch_requested 17066868
Core_0_L1D_prefetch_issued 11659744
Core_0_L1D_prefetch_useful 0 L1D_Useful Ratio: 0.00000
Core_0_L1D_prefetch_useless 0
Core_0_L1D_prefetch_late 0
Core_0_L1D_average_miss_latency 108.40834

Core_0_L1I_total_access 32672525
Core_0_L1I_total_hit 32667705 L1I_total_Hit Ratio: 0.99985
Core_0_L1I_total_miss 4820
Core_0_L1I_loads 32672525
Core_0_L1I_load_hit 32667705 L1I_load_Hit Ratio: 0.99985
Core_0_L1I_load_miss 4820
Core_0_L1I_RFOs 0
Core_0_L1I_RFO_hit 0 L1I_RFO_Hit Ratio: -nan
Core_0_L1I_RFO_miss 0
Core_0_L1I_prefetches 0
Core_0_L1I_prefetch_hit 0 L1I_prefetch_Hit Ratio: -nan
Core_0_L1I_prefetch_miss 0
Core_0_L1I_writebacks 0
Core_0_L1I_writeback_hit 0 L1I_writeback_Hit Ratio: -nan
Core_0_L1I_writeback_miss 0
Core_0_L1I_prefetch_requested 0
Core_0_L1I_prefetch_issued 0
Core_0_L1I_prefetch_useful 0 L1I_Useful Ratio: -nan
Core_0_L1I_prefetch_useless 0
Core_0_L1I_prefetch_late 0
Core_0_L1I_average_miss_latency 261.90290

Core_0_L2C_total_access 14362081
Core_0_L2C_total_hit 13280390 L2C_total_Hit Ratio: 0.92468
Core_0_L2C_total_miss 1081691
Core_0_L2C_loads 2995631
Core_0_L2C_load_hit 2170816 L2C_load_Hit Ratio: 0.72466
Core_0_L2C_load_miss 824815
Core_0_L2C_RFOs 161922
Core_0_L2C_RFO_hit 18083 L2C_RFO_Hit Ratio: 0.11168
Core_0_L2C_RFO_miss 143839
Core_0_L2C_prefetches 10442466
Core_0_L2C_prefetch_hit 10332792 L2C_prefetch_Hit Ratio: 0.98950
Core_0_L2C_prefetch_miss 109674
Core_0_L2C_writebacks 762062
Core_0_L2C_writeback_hit 758699 L2C_writeback_Hit Ratio: 0.99559
Core_0_L2C_writeback_miss 3363
Core_0_L2C_prefetch_requested 2307345
Core_0_L2C_prefetch_issued 45940
Core_0_L2C_prefetch_useful 109882 L2C_Useful Ratio: 2.39186
Core_0_L2C_prefetch_useless 175
Core_0_L2C_prefetch_late 2387
Core_0_L2C_average_miss_latency 277.39057

Core_0_LLC_total_access 1656681
Core_0_LLC_total_hit 738497 LLC_total_Hit Ratio: 0.44577
Core_0_LLC_total_miss 918184
Core_0_LLC_loads 822415
Core_0_LLC_load_hit 44048 LLC_load_Hit Ratio: 0.05356
Core_0_LLC_load_miss 778367
Core_0_LLC_RFOs 143839
Core_0_LLC_RFO_hit 12167 LLC_RFO_Hit Ratio: 0.08459
Core_0_LLC_RFO_miss 131672
Core_0_LLC_prefetches 118498
Core_0_LLC_prefetch_hit 118386 LLC_prefetch_Hit Ratio: 0.99905
Core_0_LLC_prefetch_miss 112
Core_0_LLC_writebacks 571929
Core_0_LLC_writeback_hit 563896 LLC_writeback_Hit Ratio: 0.98595
Core_0_LLC_writeback_miss 8033
Core_0_LLC_prefetch_requested 0
Core_0_LLC_prefetch_issued 0
Core_0_LLC_prefetch_useful 22 LLC_Useful Ratio: inf
Core_0_LLC_prefetch_useless 89
Core_0_LLC_prefetch_late 1
Core_0_LLC_average_miss_latency 291.03617

Core_0_major_page_fault 0
Core_0_minor_page_fault 9160

CPU 0 L1D next line prefetcher final stats
Prefetcher final stats
Training Unit Size: 4601
Addr table size: 514351 514356


Triggers: 838077
No Prediction: 532250 63.50848
Stream end: 25852
No translation: 23024786 2747.33539
Predictions: 45940 5.48160


Stream divergence: 21424 2.55633
Stream divergence -- new stream: 0
Channel_0_RQ_row_buffer_hit 535687
Channel_0_RQ_row_buffer_miss 374464
Channel_0_WQ_row_buffer_hit 224277
Channel_0_WQ_row_buffer_miss 233473
Channel_0_WQ_full 0
Channel_0_dbus_congested 357918

avg_congested_cycle 11

EzSearch AVG IPC :0.78287: L2-Pf-HR :0.98950 : L2-HR :0.92468 Uful:2.39186
Finished combination: TraceType=777-comparisonScript Sim:146000000 Prefetcher=L2isb_ideal L1=isb_ideal
