TRACE: [103000000]_FE_OPT-2_7B_[h32]_[s256]_[d80] Warmup: 2000000 NumTraces: 103000000
L1:next_line:L2:029-SecTOP-L2-MultiMarkovDelta_ip_stride_v4
*************************************************
   ChampSim Multicore Out-of-Order Simulator
   Last compiled: Oct 21 2024 08:08:12
*************************************************

trace_0 777-comparisonScript_memoryTraces_s256/memTraces[103000000]_FE_OPT-2_7B_[h32]_[s256]_[d80].champsim.xz
CPU 0 L1D next line prefetcher
MK1: Size: 128 TMAX: 64 TMIN: 32 MKPTHRESH: 20
MK2: Size: 256 TMAX: 32 TMIN: 16 MKPTHRESH: 20
MK3: Size: 384 TMAX: 16 TMIN: 8 MKPTHRESH: 20
MK4: Size: 512 TMAX: 8 TMIN: 0 MKPTHRESH: 15
Stride Size: 512 Prefetch Degree: 14

CPU 0 L2C prefetcher
MAIN.cc ln 751 stats print skipped
CPU 0 L2C prefetcher initialized


Cache Size: 512
number of cache lines: 8192
CPU  0 inst:    1000000 cyc:     502347 now IPC :1.99066: AVG IPC :1.99066: L2-Pf-HR :0.87906: L2-HR :0.85545: (Sim:0h0m3s) 
CPU  0 inst:    2000001 cyc:     982697 now IPC :2.08182: AVG IPC :2.03522: L2-Pf-HR :0.91419: L2-HR :0.89761: (Sim:0h0m5s) 

Warmup complete CPU  0 instructions:    2000001 cycles:     982697 (Simulation time: 0 hr 0 min 5 sec) 

CPU  0 inst:    3000002 cyc:    1561918 now IPC :1.72646: AVG IPC :1.72646: L2-Pf-HR :0.94070: L2-HR :0.93448: (Sim:0h0m8s) 
CPU  0 inst:    4000000 cyc:    2090249 now IPC :1.89275: AVG IPC :1.80578: L2-Pf-HR :0.95287: L2-HR :0.94889: (Sim:0h0m10s) 
CPU  0 inst:    5000002 cyc:    2669809 now IPC :1.72545: AVG IPC :1.77819: L2-Pf-HR :0.94551: L2-HR :0.94133: (Sim:0h0m13s) 
CPU  0 inst:    6000002 cyc:    3254006 now IPC :1.71175: AVG IPC :1.76110: L2-Pf-HR :0.94355: L2-HR :0.93902: (Sim:0h0m15s) 
CPU  0 inst:    7000002 cyc:    3868163 now IPC :1.62825: AVG IPC :1.73282: L2-Pf-HR :0.94372: L2-HR :0.93870: (Sim:0h0m18s) 
CPU  0 inst:    8000000 cyc:    4463861 now IPC :1.67870: AVG IPC :1.72356: L2-Pf-HR :0.94565: L2-HR :0.94064: (Sim:0h0m21s) 
CPU  0 inst:    9000001 cyc:    5025079 now IPC :1.78184: AVG IPC :1.73165: L2-Pf-HR :0.94616: L2-HR :0.94147: (Sim:0h0m24s) 
CPU  0 inst:   10000002 cyc:    5660383 now IPC :1.57405: AVG IPC :1.71025: L2-Pf-HR :0.94501: L2-HR :0.94014: (Sim:0h0m26s) 
CPU  0 inst:   11000000 cyc:    6282520 now IPC :1.60736: AVG IPC :1.69817: L2-Pf-HR :0.94459: L2-HR :0.93949: (Sim:0h0m29s) 
CPU  0 inst:   12000000 cyc:    6908973 now IPC :1.59629: AVG IPC :1.68740: L2-Pf-HR :0.94454: L2-HR :0.93914: (Sim:0h0m32s) 
CPU  0 inst:   13000000 cyc:    7458821 now IPC :1.81868: AVG IPC :1.69855: L2-Pf-HR :0.94575: L2-HR :0.94069: (Sim:0h0m35s) 
CPU  0 inst:   14000003 cyc:    8080644 now IPC :1.60818: AVG IPC :1.69063: L2-Pf-HR :0.94487: L2-HR :0.93980: (Sim:0h0m37s) 
CPU  0 inst:   15000003 cyc:    8722910 now IPC :1.55699: AVG IPC :1.67954: L2-Pf-HR :0.94463: L2-HR :0.93940: (Sim:0h0m40s) 
CPU  0 inst:   16000000 cyc:    9352333 now IPC :1.58875: AVG IPC :1.67271: L2-Pf-HR :0.94487: L2-HR :0.93953: (Sim:0h0m43s) 
CPU  0 inst:   17000002 cyc:    9899248 now IPC :1.82844: AVG IPC :1.68226: L2-Pf-HR :0.94561: L2-HR :0.94040: (Sim:0h0m46s) 
CPU  0 inst:   18000002 cyc:   10529756 now IPC :1.58602: AVG IPC :1.67591: L2-Pf-HR :0.94487: L2-HR :0.93965: (Sim:0h0m48s) 
CPU  0 inst:   19000000 cyc:   11145358 now IPC :1.62442: AVG IPC :1.67279: L2-Pf-HR :0.94439: L2-HR :0.93911: (Sim:0h0m51s) 
CPU  0 inst:   20000000 cyc:   11761032 now IPC :1.62424: AVG IPC :1.67002: L2-Pf-HR :0.94419: L2-HR :0.93876: (Sim:0h0m54s) 
CPU  0 inst:   21000002 cyc:   12312793 now IPC :1.81238: AVG IPC :1.67695: L2-Pf-HR :0.94479: L2-HR :0.93947: (Sim:0h0m57s) 
CPU  0 inst:   22000002 cyc:   12931543 now IPC :1.61616: AVG IPC :1.67380: L2-Pf-HR :0.94450: L2-HR :0.93918: (Sim:0h0m59s) 
CPU  0 inst:   23000003 cyc:   13552769 now IPC :1.60972: AVG IPC :1.67063: L2-Pf-HR :0.94427: L2-HR :0.93895: (Sim:0h1m2s) 
CPU  0 inst:   24000000 cyc:   14167849 now IPC :1.62580: AVG IPC :1.66854: L2-Pf-HR :0.94425: L2-HR :0.93887: (Sim:0h1m5s) 
CPU  0 inst:   25000001 cyc:   14775875 now IPC :1.64467: AVG IPC :1.66749: L2-Pf-HR :0.94465: L2-HR :0.93925: (Sim:0h1m8s) 
CPU  0 inst:   26000003 cyc:   15340533 now IPC :1.77099: AVG IPC :1.67156: L2-Pf-HR :0.94497: L2-HR :0.93969: (Sim:0h1m10s) 
CPU  0 inst:   27000003 cyc:   15954364 now IPC :1.62911: AVG IPC :1.66982: L2-Pf-HR :0.94449: L2-HR :0.93916: (Sim:0h1m13s) 
CPU  0 inst:   28000000 cyc:   16571796 now IPC :1.61961: AVG IPC :1.66783: L2-Pf-HR :0.94429: L2-HR :0.93892: (Sim:0h1m16s) 
CPU  0 inst:   29000003 cyc:   17191381 now IPC :1.61399: AVG IPC :1.66577: L2-Pf-HR :0.94430: L2-HR :0.93889: (Sim:0h1m19s) 
CPU  0 inst:   30000000 cyc:   17729923 now IPC :1.85686: AVG IPC :1.67192: L2-Pf-HR :0.94468: L2-HR :0.93938: (Sim:0h1m21s) 
CPU  0 inst:   31000003 cyc:   18363170 now IPC :1.57917: AVG IPC :1.66854: L2-Pf-HR :0.94429: L2-HR :0.93897: (Sim:0h1m24s) 
CPU  0 inst:   32000000 cyc:   18984835 now IPC :1.60858: AVG IPC :1.66647: L2-Pf-HR :0.94422: L2-HR :0.93888: (Sim:0h1m27s) 
CPU  0 inst:   33000002 cyc:   19593786 now IPC :1.64217: AVG IPC :1.66567: L2-Pf-HR :0.94428: L2-HR :0.93890: (Sim:0h1m30s) 
CPU  0 inst:   34000002 cyc:   20132232 now IPC :1.85720: AVG IPC :1.67106: L2-Pf-HR :0.94484: L2-HR :0.93958: (Sim:0h1m33s) 
CPU  0 inst:   35000000 cyc:   20758788 now IPC :1.59602: AVG IPC :1.66868: L2-Pf-HR :0.94447: L2-HR :0.93920: (Sim:0h1m35s) 
CPU  0 inst:   36000000 cyc:   21384287 now IPC :1.59872: AVG IPC :1.66654: L2-Pf-HR :0.94430: L2-HR :0.93901: (Sim:0h1m38s) 
CPU  0 inst:   37000001 cyc:   22008380 now IPC :1.60233: AVG IPC :1.66463: L2-Pf-HR :0.94430: L2-HR :0.93896: (Sim:0h1m41s) 
CPU  0 inst:   38000001 cyc:   22583421 now IPC :1.73901: AVG IPC :1.66661: L2-Pf-HR :0.94459: L2-HR :0.93931: (Sim:0h1m44s) 
CPU  0 inst:   39000003 cyc:   23167382 now IPC :1.71245: AVG IPC :1.66782: L2-Pf-HR :0.94457: L2-HR :0.93931: (Sim:0h1m46s) 
CPU  0 inst:   40000000 cyc:   23790077 now IPC :1.60592: AVG IPC :1.66613: L2-Pf-HR :0.94433: L2-HR :0.93905: (Sim:0h1m49s) 
CPU  0 inst:   41000001 cyc:   24415613 now IPC :1.59863: AVG IPC :1.66433: L2-Pf-HR :0.94418: L2-HR :0.93885: (Sim:0h1m52s) 
CPU  0 inst:   42000000 cyc:   25501678 now IPC :0.92075: AVG IPC :1.63139: L2-Pf-HR :0.94235: L2-HR :0.93697: (Sim:0h1m55s) 
CPU  0 inst:   43000002 cyc:   31551976 now IPC :0.16528: AVG IPC :1.34122: L2-Pf-HR :0.91393: L2-HR :0.91391: (Sim:0h2m4s) 
CPU  0 inst:   44000000 cyc:   35350262 now IPC :0.26328: AVG IPC :1.22208: L2-Pf-HR :0.90797: L2-HR :0.90875: (Sim:0h2m10s) 
CPU  0 inst:   45000000 cyc:   38771675 now IPC :0.29228: AVG IPC :1.13790: L2-Pf-HR :0.90508: L2-HR :0.90624: (Sim:0h2m15s) 
CPU  0 inst:   46000000 cyc:   42194380 now IPC :0.29217: AVG IPC :1.06766: L2-Pf-HR :0.90233: L2-HR :0.90385: (Sim:0h2m20s) 
CPU  0 inst:   47000000 cyc:   45617127 now IPC :0.29216: AVG IPC :1.00819: L2-Pf-HR :0.89968: L2-HR :0.90155: (Sim:0h2m26s) 
CPU  0 inst:   48000000 cyc:   49039456 now IPC :0.29220: AVG IPC :0.95720: L2-Pf-HR :0.89709: L2-HR :0.89931: (Sim:0h2m31s) 
CPU  0 inst:   49000000 cyc:   52461569 now IPC :0.29222: AVG IPC :0.91300: L2-Pf-HR :0.89456: L2-HR :0.89713: (Sim:0h2m36s) 
CPU  0 inst:   50000000 cyc:   55884191 now IPC :0.29217: AVG IPC :0.87429: L2-Pf-HR :0.89208: L2-HR :0.89499: (Sim:0h2m41s) 
CPU  0 inst:   51000000 cyc:   59306494 now IPC :0.29220: AVG IPC :0.84014: L2-Pf-HR :0.88967: L2-HR :0.89291: (Sim:0h2m47s) 
CPU  0 inst:   52000000 cyc:   62728766 now IPC :0.29220: AVG IPC :0.80977: L2-Pf-HR :0.88731: L2-HR :0.89088: (Sim:0h2m52s) 
CPU  0 inst:   53000000 cyc:   66151052 now IPC :0.29220: AVG IPC :0.78259: L2-Pf-HR :0.88502: L2-HR :0.88891: (Sim:0h2m57s) 
CPU  0 inst:   54000000 cyc:   69573123 now IPC :0.29222: AVG IPC :0.75812: L2-Pf-HR :0.88276: L2-HR :0.88698: (Sim:0h3m2s) 
CPU  0 inst:   55000000 cyc:   72996126 now IPC :0.29214: AVG IPC :0.73597: L2-Pf-HR :0.88058: L2-HR :0.88511: (Sim:0h3m8s) 
CPU  0 inst:   56000000 cyc:   76417952 now IPC :0.29224: AVG IPC :0.71585: L2-Pf-HR :0.87841: L2-HR :0.88326: (Sim:0h3m13s) 
CPU  0 inst:   57000000 cyc:   79840663 now IPC :0.29217: AVG IPC :0.69746: L2-Pf-HR :0.87634: L2-HR :0.88149: (Sim:0h3m18s) 
CPU  0 inst:   58000000 cyc:   83263596 now IPC :0.29215: AVG IPC :0.68060: L2-Pf-HR :0.87429: L2-HR :0.87974: (Sim:0h3m23s) 
CPU  0 inst:   59000000 cyc:   86685711 now IPC :0.29222: AVG IPC :0.66509: L2-Pf-HR :0.87228: L2-HR :0.87804: (Sim:0h3m29s) 
CPU  0 inst:   60000000 cyc:   89336052 now IPC :0.37731: AVG IPC :0.65645: L2-Pf-HR :0.86997: L2-HR :0.87560: (Sim:0h3m33s) 
CPU  0 inst:   61000000 cyc:   89950726 now IPC :1.62688: AVG IPC :0.66316: L2-Pf-HR :0.87209: L2-HR :0.87736: (Sim:0h3m36s) 
CPU  0 inst:   62000000 cyc:   90587917 now IPC :1.56939: AVG IPC :0.66960: L2-Pf-HR :0.87327: L2-HR :0.87822: (Sim:0h3m39s) 
CPU  0 inst:   63000002 cyc:   91294841 now IPC :1.41458: AVG IPC :0.67544: L2-Pf-HR :0.87415: L2-HR :0.87886: (Sim:0h3m42s) 
CPU  0 inst:   64000000 cyc:   91964851 now IPC :1.49251: AVG IPC :0.68145: L2-Pf-HR :0.87507: L2-HR :0.87953: (Sim:0h3m44s) 
CPU  0 inst:   65000000 cyc:   92501131 now IPC :1.86470: AVG IPC :0.68839: L2-Pf-HR :0.87665: L2-HR :0.88087: (Sim:0h3m47s) 
CPU  0 inst:   66000003 cyc:   93114641 now IPC :1.62997: AVG IPC :0.69466: L2-Pf-HR :0.87735: L2-HR :0.88138: (Sim:0h3m50s) 
CPU  0 inst:   67000000 cyc:   93762931 now IPC :1.54251: AVG IPC :0.70058: L2-Pf-HR :0.87796: L2-HR :0.88181: (Sim:0h3m53s) 
CPU  0 inst:   68000000 cyc:   94396008 now IPC :1.57959: AVG IPC :0.70654: L2-Pf-HR :0.87884: L2-HR :0.88249: (Sim:0h3m56s) 
CPU  0 inst:   69000002 cyc:   94925800 now IPC :1.88754: AVG IPC :0.71320: L2-Pf-HR :0.88025: L2-HR :0.88370: (Sim:0h3m58s) 
CPU  0 inst:   70000002 cyc:   95574951 now IPC :1.54047: AVG IPC :0.71887: L2-Pf-HR :0.88083: L2-HR :0.88413: (Sim:0h4m1s) 
CPU  0 inst:   71000002 cyc:   96219802 now IPC :1.55075: AVG IPC :0.72451: L2-Pf-HR :0.88134: L2-HR :0.88448: (Sim:0h4m4s) 
CPU  0 inst:   72000000 cyc:   96787121 now IPC :1.76267: AVG IPC :0.73066: L2-Pf-HR :0.88262: L2-HR :0.88560: (Sim:0h4m7s) 
CPU  0 inst:   73000001 cyc:   97393264 now IPC :1.64978: AVG IPC :0.73643: L2-Pf-HR :0.88327: L2-HR :0.88609: (Sim:0h4m9s) 
CPU  0 inst:   74000001 cyc:   98043057 now IPC :1.53895: AVG IPC :0.74181: L2-Pf-HR :0.88370: L2-HR :0.88638: (Sim:0h4m12s) 
CPU  0 inst:   75000002 cyc:   98684018 now IPC :1.56016: AVG IPC :0.74718: L2-Pf-HR :0.88433: L2-HR :0.88688: (Sim:0h4m15s) 
CPU  0 inst:   76000000 cyc:   99220753 now IPC :1.86311: AVG IPC :0.75327: L2-Pf-HR :0.88559: L2-HR :0.88797: (Sim:0h4m18s) 
CPU  0 inst:   77000000 cyc:   99859302 now IPC :1.56605: AVG IPC :0.75852: L2-Pf-HR :0.88597: L2-HR :0.88822: (Sim:0h4m20s) 
CPU  0 inst:   78000003 cyc:  100501899 now IPC :1.55619: AVG IPC :0.76367: L2-Pf-HR :0.88633: L2-HR :0.88847: (Sim:0h4m23s) 
CPU  0 inst:   79000003 cyc:  101131640 now IPC :1.58795: AVG IPC :0.76885: L2-Pf-HR :0.88690: L2-HR :0.88890: (Sim:0h4m26s) 
CPU  0 inst:   80000000 cyc:  101661086 now IPC :1.88876: AVG IPC :0.77474: L2-Pf-HR :0.88800: L2-HR :0.88987: (Sim:0h4m29s) 
CPU  0 inst:   81000003 cyc:  102319418 now IPC :1.51899: AVG IPC :0.77958: L2-Pf-HR :0.88833: L2-HR :0.89010: (Sim:0h4m31s) 
CPU  0 inst:   82000003 cyc:  102955889 now IPC :1.57116: AVG IPC :0.78452: L2-Pf-HR :0.88863: L2-HR :0.89032: (Sim:0h4m34s) 
CPU  0 inst:   83000003 cyc:  103519784 now IPC :1.77338: AVG IPC :0.78996: L2-Pf-HR :0.88963: L2-HR :0.89121: (Sim:0h4m37s) 
CPU  0 inst:   84000000 cyc:  104137088 now IPC :1.61994: AVG IPC :0.79492: L2-Pf-HR :0.89010: L2-HR :0.89156: (Sim:0h4m40s) 
CPU  0 inst:   85000002 cyc:  104779749 now IPC :1.55603: AVG IPC :0.79964: L2-Pf-HR :0.89038: L2-HR :0.89174: (Sim:0h4m42s) 
CPU  0 inst:   86000000 cyc:  105412532 now IPC :1.58032: AVG IPC :0.80437: L2-Pf-HR :0.89081: L2-HR :0.89207: (Sim:0h4m45s) 
CPU  0 inst:   87000001 cyc:  105952251 now IPC :1.85282: AVG IPC :0.80976: L2-Pf-HR :0.89171: L2-HR :0.89287: (Sim:0h4m48s) 
CPU  0 inst:   88000000 cyc:  106591197 now IPC :1.56508: AVG IPC :0.81433: L2-Pf-HR :0.89198: L2-HR :0.89304: (Sim:0h4m50s) 
CPU  0 inst:   89000002 cyc:  107238243 now IPC :1.54549: AVG IPC :0.81878: L2-Pf-HR :0.89221: L2-HR :0.89320: (Sim:0h4m53s) 
CPU  0 inst:   90000001 cyc:  107869431 now IPC :1.58431: AVG IPC :0.82330: L2-Pf-HR :0.89261: L2-HR :0.89351: (Sim:0h4m56s) 
CPU  0 inst:   91000002 cyc:  108404732 now IPC :1.86811: AVG IPC :0.82851: L2-Pf-HR :0.89342: L2-HR :0.89423: (Sim:0h4m58s) 
CPU  0 inst:   92000000 cyc:  109046384 now IPC :1.55847: AVG IPC :0.83284: L2-Pf-HR :0.89366: L2-HR :0.89440: (Sim:0h5m1s) 
CPU  0 inst:   93000003 cyc:  109678192 now IPC :1.58276: AVG IPC :0.83720: L2-Pf-HR :0.89391: L2-HR :0.89458: (Sim:0h5m4s) 
CPU  0 inst:   94000001 cyc:  110235651 now IPC :1.79385: AVG IPC :0.84208: L2-Pf-HR :0.89472: L2-HR :0.89531: (Sim:0h5m7s) 
CPU  0 inst:   95000001 cyc:  110859798 now IPC :1.60219: AVG IPC :0.84640: L2-Pf-HR :0.89497: L2-HR :0.89548: (Sim:0h5m9s) 
CPU  0 inst:   96000000 cyc:  111509166 now IPC :1.53996: AVG IPC :0.85048: L2-Pf-HR :0.89512: L2-HR :0.89557: (Sim:0h5m12s) 
CPU  0 inst:   97000001 cyc:  112145586 now IPC :1.57129: AVG IPC :0.85460: L2-Pf-HR :0.89541: L2-HR :0.89579: (Sim:0h5m15s) 
CPU  0 inst:   98000000 cyc:  112682671 now IPC :1.86190: AVG IPC :0.85945: L2-Pf-HR :0.89623: L2-HR :0.89653: (Sim:0h5m17s) 
CPU  0 inst:   99000000 cyc:  113315181 now IPC :1.58100: AVG IPC :0.86351: L2-Pf-HR :0.89639: L2-HR :0.89663: (Sim:0h5m20s) 
CPU  0 inst:  100000000 cyc:  113964995 now IPC :1.53890: AVG IPC :0.86739: L2-Pf-HR :0.89657: L2-HR :0.89675: (Sim:0h5m23s) 
Finished CPU 0 instr: 98000001 cyc: 112982306 AVG IPC: 0.86739 (Sim time: 0h5m23s)

ChampSim completed all CPUs

[ROI Statistics]
Core_0_instructions 98000001
Core_0_cycles 112982306
Core_0_IPC 0.86739

Core_0_branch_prediction_accuracy 98.32500
Core_0_branch_MPKI 0.51250
Core_0_average_ROB_occupancy_at_mispredict 220.59683

Core_0_L1D_total_access 62444741
Core_0_L1D_total_hit 59839054 L1D_total_Hit Ratio: 0.95827
Core_0_L1D_total_miss 2605687
Core_0_L1D_loads 22976736
Core_0_L1D_load_hit 21807765 L1D_load_Hit Ratio: 0.94912
Core_0_L1D_load_miss 1168971
Core_0_L1D_RFOs 2939684
Core_0_L1D_RFO_hit 2800484 L1D_RFO_Hit Ratio: 0.95265
Core_0_L1D_RFO_miss 139200
Core_0_L1D_prefetches 36528321
Core_0_L1D_prefetch_hit 35230805 L1D_prefetch_Hit Ratio: 0.96448
Core_0_L1D_prefetch_miss 1297516
Core_0_L1D_writebacks 0
Core_0_L1D_writeback_hit 0 L1D_writeback_Hit Ratio: -nan
Core_0_L1D_writeback_miss 0
Core_0_L1D_prefetch_requested 71275065
Core_0_L1D_prefetch_issued 44207150
Core_0_L1D_prefetch_useful 1126214 L1D_Useful Ratio: 0.02548
Core_0_L1D_prefetch_useless 198952
Core_0_L1D_prefetch_late 324785
Core_0_L1D_average_miss_latency 8540455.11088

Core_0_L1I_total_access 23306796
Core_0_L1I_total_hit 23301955 L1I_total_Hit Ratio: 0.99979
Core_0_L1I_total_miss 4841
Core_0_L1I_loads 23306796
Core_0_L1I_load_hit 23301955 L1I_load_Hit Ratio: 0.99979
Core_0_L1I_load_miss 4841
Core_0_L1I_RFOs 0
Core_0_L1I_RFO_hit 0 L1I_RFO_Hit Ratio: -nan
Core_0_L1I_RFO_miss 0
Core_0_L1I_prefetches 0
Core_0_L1I_prefetch_hit 0 L1I_prefetch_Hit Ratio: -nan
Core_0_L1I_prefetch_miss 0
Core_0_L1I_writebacks 0
Core_0_L1I_writeback_hit 0 L1I_writeback_Hit Ratio: -nan
Core_0_L1I_writeback_miss 0
Core_0_L1I_prefetch_requested 0
Core_0_L1I_prefetch_issued 0
Core_0_L1I_prefetch_useful 0 L1I_Useful Ratio: -nan
Core_0_L1I_prefetch_useless 0
Core_0_L1I_prefetch_late 0
Core_0_L1I_average_miss_latency 323.62694

Core_0_L2C_total_access 10178701
Core_0_L2C_total_hit 9127788 L2C_total_Hit Ratio: 0.89675
Core_0_L2C_total_miss 1050913
Core_0_L2C_loads 849655
Core_0_L2C_load_hit 720503 L2C_load_Hit Ratio: 0.84799
Core_0_L2C_load_miss 129152
Core_0_L2C_RFOs 139185
Core_0_L2C_RFO_hit 99350 L2C_RFO_Hit Ratio: 0.71380
Core_0_L2C_RFO_miss 39835
Core_0_L2C_prefetches 8500588
Core_0_L2C_prefetch_hit 7621363 L2C_prefetch_Hit Ratio: 0.89657
Core_0_L2C_prefetch_miss 879225
Core_0_L2C_writebacks 689273
Core_0_L2C_writeback_hit 686572 L2C_writeback_Hit Ratio: 0.99608
Core_0_L2C_writeback_miss 2701
Core_0_L2C_prefetch_requested 20957870
Core_0_L2C_prefetch_issued 13333996
Core_0_L2C_prefetch_useful 310035 L2C_Useful Ratio: 0.02325
Core_0_L2C_prefetch_useless 580155
Core_0_L2C_prefetch_late 12840
Core_0_L2C_average_miss_latency 261.80607

Core_0_LLC_total_access 1606315
Core_0_LLC_total_hit 794250 LLC_total_Hit Ratio: 0.49445
Core_0_LLC_total_miss 812065
Core_0_LLC_loads 116319
Core_0_LLC_load_hit 26012 LLC_load_Hit Ratio: 0.22363
Core_0_LLC_load_miss 90307
Core_0_LLC_RFOs 39835
Core_0_LLC_RFO_hit 10679 LLC_RFO_Hit Ratio: 0.26808
Core_0_LLC_RFO_miss 29156
Core_0_LLC_prefetches 924867
Core_0_LLC_prefetch_hit 235075 LLC_prefetch_Hit Ratio: 0.25417
Core_0_LLC_prefetch_miss 689792
Core_0_LLC_writebacks 525294
Core_0_LLC_writeback_hit 522484 LLC_writeback_Hit Ratio: 0.99465
Core_0_LLC_writeback_miss 2810
Core_0_LLC_prefetch_requested 0
Core_0_LLC_prefetch_issued 0
Core_0_LLC_prefetch_useful 17041 LLC_Useful Ratio: inf
Core_0_LLC_prefetch_useless 661981
Core_0_LLC_prefetch_late 11049
Core_0_LLC_average_miss_latency 328.48232

Core_0_major_page_fault 0
Core_0_minor_page_fault 7596

CPU 0 L1D next line prefetcher final stats
CPU 0 L2C PC-based stride prefetcher final stats
Stride Degree: 14
MK1  MARKOV_LRU_SIZE: 128
MK1  MARKOV_PREDICTION_PERCENTTHRESHOLD: 20.00000
MK1  OUTLIERS_THRESHOLD_Max: 64
MK1  OUTLIERS_THRESHOLD_Min: 32
MK2  MARKOV_LRU_SIZE: 512
MK2  MARKOV_PREDICTION_PERCENTTHRESHOLD: 15.00000
MK2  OUTLIERS_THRESHOLD_Max: 8
MK2  OUTLIERS_THRESHOLD_Min: 0
MK3  MARKOV_LRU_SIZE: 384
MK3  MARKOV_PREDICTION_PERCENTTHRESHOLD: 20.00000
MK3  OUTLIERS_THRESHOLD_Max: 16
MK3  OUTLIERS_THRESHOLD_Min: 8
MK4  MARKOV_LRU_SIZE: 512
MK4  MARKOV_PREDICTION_PERCENTTHRESHOLD: 15.00000
MK4  OUTLIERS_THRESHOLD_Max: 8
MK4  OUTLIERS_THRESHOLD_Min: 0
IPStride Degree/Access Ratio: 4.58050
MK1 IPDEltaMarkov  Degree/Access Ratio: 0.26737
MK2 IPDEltaMarkov  Degree/Access Ratio: 1.75845
MK3 IPDEltaMarkov  Degree/Access Ratio: 0.83427
MK4 IPDEltaMarkov  Degree/Access Ratio: 1.76671
Channel_0_RQ_row_buffer_hit 430229
Channel_0_RQ_row_buffer_miss 379026
Channel_0_WQ_row_buffer_hit 134979
Channel_0_WQ_row_buffer_miss 294244
Channel_0_WQ_full 0
Channel_0_dbus_congested 927195

avg_congested_cycle 11

EzSearch AVG IPC :0.86739: L2-Pf-HR :0.89657 : L2-HR :0.89675 Uful:0.02325
Finished combination: TraceType=777-comparisonScript Sim:98000000 Prefetcher=L2029-SecTOP-L2-MultiMarkovDelta_ip_stride_v4 L1=next_line
