TRACE: [39000000]_FE_[OPT-6_7B]_[h32]_[s128]_[d128] Warmup: 2000000 NumTraces: 39000000
L1:berti:L2:berti
*************************************************
   ChampSim Multicore Out-of-Order Simulator
   Last compiled: Oct 20 2024 05:13:54
*************************************************

trace_0 777-comparisonScript_memoryTraces_s128/memTraces[39000000]_FE_[OPT-6_7B]_[h32]_[s128]_[d128].champsim.xz
CPU 0 L1D Berti prefetcher
CPU 0 L2C Berti prefetcher
MAIN.cc ln 751 stats print skipped
CPU  0 inst:    1000002 cyc:     513865 now IPC :1.94604: AVG IPC :1.94604: L2-Pf-HR :0.71109: L2-HR :0.70244: (Sim:0h0m4s) 
CPU  0 inst:    2000001 cyc:    1004908 now IPC :2.03648: AVG IPC :1.99023: L2-Pf-HR :0.76569: L2-HR :0.75874: (Sim:0h0m8s) 

Warmup complete CPU  0 instructions:    2000001 cycles:    1004908 (Simulation time: 0 hr 0 min 8 sec) 

CPU  0 inst:    3000002 cyc:    1630983 now IPC :1.59725: AVG IPC :1.59725: L2-Pf-HR :0.82800: L2-HR :0.81860: (Sim:0h0m11s) 
CPU  0 inst:    4000000 cyc:    2244933 now IPC :1.62879: AVG IPC :1.61287: L2-Pf-HR :0.82425: L2-HR :0.81893: (Sim:0h0m15s) 
CPU  0 inst:    5000000 cyc:    2838706 now IPC :1.68415: AVG IPC :1.63595: L2-Pf-HR :0.82810: L2-HR :0.82063: (Sim:0h0m18s) 
CPU  0 inst:    6000001 cyc:    3463827 now IPC :1.59969: AVG IPC :1.62673: L2-Pf-HR :0.82733: L2-HR :0.82027: (Sim:0h0m22s) 
CPU  0 inst:    7000003 cyc:    4107736 now IPC :1.55302: AVG IPC :1.61143: L2-Pf-HR :0.82309: L2-HR :0.81983: (Sim:0h0m26s) 
CPU  0 inst:    8000000 cyc:    4764616 now IPC :1.52234: AVG IPC :1.59587: L2-Pf-HR :0.82268: L2-HR :0.81996: (Sim:0h0m29s) 
CPU  0 inst:    9000003 cyc:    5403973 now IPC :1.56408: AVG IPC :1.59125: L2-Pf-HR :0.82344: L2-HR :0.82201: (Sim:0h0m33s) 
CPU  0 inst:   10000003 cyc:    6027289 now IPC :1.60432: AVG IPC :1.59287: L2-Pf-HR :0.82522: L2-HR :0.82254: (Sim:0h0m37s) 
CPU  0 inst:   11000003 cyc:    6706382 now IPC :1.47255: AVG IPC :1.57854: L2-Pf-HR :0.82472: L2-HR :0.82170: (Sim:0h0m40s) 
CPU  0 inst:   12000000 cyc:    7350588 now IPC :1.55229: AVG IPC :1.57588: L2-Pf-HR :0.82320: L2-HR :0.82138: (Sim:0h0m44s) 
CPU  0 inst:   13000002 cyc:    7996923 now IPC :1.54719: AVG IPC :1.57322: L2-Pf-HR :0.82401: L2-HR :0.82211: (Sim:0h0m48s) 
CPU  0 inst:   14000001 cyc:    8666120 now IPC :1.49433: AVG IPC :1.56633: L2-Pf-HR :0.82411: L2-HR :0.82164: (Sim:0h0m51s) 
CPU  0 inst:   15000003 cyc:    9293316 now IPC :1.59440: AVG IPC :1.56846: L2-Pf-HR :0.82499: L2-HR :0.82218: (Sim:0h0m55s) 
CPU  0 inst:   16000000 cyc:    9945351 now IPC :1.53366: AVG IPC :1.56592: L2-Pf-HR :0.82427: L2-HR :0.82155: (Sim:0h0m59s) 
CPU  0 inst:   17000000 cyc:   10620597 now IPC :1.48094: AVG IPC :1.55995: L2-Pf-HR :0.82423: L2-HR :0.82122: (Sim:0h1m2s) 
CPU  0 inst:   18000002 cyc:   12054374 now IPC :0.69746: AVG IPC :1.44803: L2-Pf-HR :0.77526: L2-HR :0.79234: (Sim:0h1m6s) 
CPU  0 inst:   19000001 cyc:   15265552 now IPC :0.31141: AVG IPC :1.19209: L2-Pf-HR :0.74086: L2-HR :0.76518: (Sim:0h1m12s) 
CPU  0 inst:   20000000 cyc:   18379536 now IPC :0.32113: AVG IPC :1.03599: L2-Pf-HR :0.73029: L2-HR :0.75128: (Sim:0h1m17s) 
CPU  0 inst:   21000002 cyc:   21492840 now IPC :0.32120: AVG IPC :0.92738: L2-Pf-HR :0.72049: L2-HR :0.73867: (Sim:0h1m23s) 
CPU  0 inst:   22000003 cyc:   24607543 now IPC :0.32106: AVG IPC :0.84736: L2-Pf-HR :0.71138: L2-HR :0.72718: (Sim:0h1m29s) 
CPU  0 inst:   23000001 cyc:   26533952 now IPC :0.51910: AVG IPC :0.82259: L2-Pf-HR :0.70749: L2-HR :0.72143: (Sim:0h1m34s) 
CPU  0 inst:   24000000 cyc:   27166432 now IPC :1.58108: AVG IPC :0.84093: L2-Pf-HR :0.71376: L2-HR :0.72660: (Sim:0h1m38s) 
CPU  0 inst:   25000001 cyc:   27856713 now IPC :1.44869: AVG IPC :0.85655: L2-Pf-HR :0.71870: L2-HR :0.73075: (Sim:0h1m41s) 
CPU  0 inst:   26000003 cyc:   28541278 now IPC :1.46078: AVG IPC :0.87157: L2-Pf-HR :0.72355: L2-HR :0.73488: (Sim:0h1m45s) 
CPU  0 inst:   27000001 cyc:   29222499 now IPC :1.46795: AVG IPC :0.88597: L2-Pf-HR :0.72783: L2-HR :0.73857: (Sim:0h1m49s) 
CPU  0 inst:   28000000 cyc:   29878062 now IPC :1.52540: AVG IPC :0.90049: L2-Pf-HR :0.73203: L2-HR :0.74220: (Sim:0h1m53s) 
CPU  0 inst:   29000002 cyc:   30528258 now IPC :1.53800: AVG IPC :0.91453: L2-Pf-HR :0.73586: L2-HR :0.74554: (Sim:0h1m57s) 
CPU  0 inst:   30000002 cyc:   31176044 now IPC :1.54372: AVG IPC :0.92804: L2-Pf-HR :0.73960: L2-HR :0.74881: (Sim:0h2m1s) 
CPU  0 inst:   31000001 cyc:   31786761 now IPC :1.63742: AVG IPC :0.94211: L2-Pf-HR :0.74371: L2-HR :0.75211: (Sim:0h2m5s) 
CPU  0 inst:   32000000 cyc:   32442466 now IPC :1.52507: AVG IPC :0.95427: L2-Pf-HR :0.74632: L2-HR :0.75427: (Sim:0h2m9s) 
CPU  0 inst:   33000002 cyc:   33101029 now IPC :1.51846: AVG IPC :0.96585: L2-Pf-HR :0.74928: L2-HR :0.75679: (Sim:0h2m12s) 
CPU  0 inst:   34000001 cyc:   33777260 now IPC :1.47878: AVG IPC :0.97643: L2-Pf-HR :0.75183: L2-HR :0.75895: (Sim:0h2m16s) 
CPU  0 inst:   35000001 cyc:   34438249 now IPC :1.51288: AVG IPC :0.98704: L2-Pf-HR :0.75433: L2-HR :0.76103: (Sim:0h2m20s) 
CPU  0 inst:   36000000 cyc:   35091934 now IPC :1.52979: AVG IPC :0.99745: L2-Pf-HR :0.75653: L2-HR :0.76304: (Sim:0h2m24s) 
Finished CPU 0 instr: 34000000 cyc: 34087034 AVG IPC: 0.99745 (Sim time: 0h2m24s)

ChampSim completed all CPUs

[ROI Statistics]
Core_0_instructions 34000000
Core_0_cycles 34087034
Core_0_IPC 0.99745

Core_0_branch_prediction_accuracy 97.98506
Core_0_branch_MPKI 0.54424
Core_0_average_ROB_occupancy_at_mispredict 232.38316

Core_0_L1D_total_access 14619965
Core_0_L1D_total_hit 13835671 L1D_total_Hit Ratio: 0.94635
Core_0_L1D_total_miss 784294
Core_0_L1D_loads 7821551
Core_0_L1D_load_hit 7617464 L1D_load_Hit Ratio: 0.97391
Core_0_L1D_load_miss 204087
Core_0_L1D_RFOs 892867
Core_0_L1D_RFO_hit 848712 L1D_RFO_Hit Ratio: 0.95055
Core_0_L1D_RFO_miss 44155
Core_0_L1D_prefetches 5905547
Core_0_L1D_prefetch_hit 5369495 L1D_prefetch_Hit Ratio: 0.90923
Core_0_L1D_prefetch_miss 536052
Core_0_L1D_writebacks 0
Core_0_L1D_writeback_hit 0 L1D_writeback_Hit Ratio: -nan
Core_0_L1D_writeback_miss 0
Core_0_L1D_prefetch_requested 6765988
Core_0_L1D_prefetch_issued 6765988
Core_0_L1D_prefetch_useful 526040 L1D_Useful Ratio: 0.07775
Core_0_L1D_prefetch_useless 41989
Core_0_L1D_prefetch_late 40651
Core_0_L1D_average_miss_latency 774614.82953

Core_0_L1I_total_access 7718464
Core_0_L1I_total_hit 7713684 L1I_total_Hit Ratio: 0.99938
Core_0_L1I_total_miss 4780
Core_0_L1I_loads 7718464
Core_0_L1I_load_hit 7713684 L1I_load_Hit Ratio: 0.99938
Core_0_L1I_load_miss 4780
Core_0_L1I_RFOs 0
Core_0_L1I_RFO_hit 0 L1I_RFO_Hit Ratio: -nan
Core_0_L1I_RFO_miss 0
Core_0_L1I_prefetches 0
Core_0_L1I_prefetch_hit 0 L1I_prefetch_Hit Ratio: -nan
Core_0_L1I_prefetch_miss 0
Core_0_L1I_writebacks 0
Core_0_L1I_writeback_hit 0 L1I_writeback_Hit Ratio: -nan
Core_0_L1I_writeback_miss 0
Core_0_L1I_prefetch_requested 0
Core_0_L1I_prefetch_issued 0
Core_0_L1I_prefetch_useful 0 L1I_Useful Ratio: -nan
Core_0_L1I_prefetch_useless 0
Core_0_L1I_prefetch_late 0
Core_0_L1I_average_miss_latency 256.01883

Core_0_L2C_total_access 1156455
Core_0_L2C_total_hit 882422 L2C_total_Hit Ratio: 0.76304
Core_0_L2C_total_miss 274033
Core_0_L2C_loads 168337
Core_0_L2C_load_hit 103289 L2C_load_Hit Ratio: 0.61358
Core_0_L2C_load_miss 65048
Core_0_L2C_RFOs 44147
Core_0_L2C_RFO_hit 11008 L2C_RFO_Hit Ratio: 0.24935
Core_0_L2C_RFO_miss 33139
Core_0_L2C_prefetches 722181
Core_0_L2C_prefetch_hit 546352 L2C_prefetch_Hit Ratio: 0.75653
Core_0_L2C_prefetch_miss 175829
Core_0_L2C_writebacks 221790
Core_0_L2C_writeback_hit 221773 L2C_writeback_Hit Ratio: 0.99992
Core_0_L2C_writeback_miss 17
Core_0_L2C_prefetch_requested 240807
Core_0_L2C_prefetch_issued 205853
Core_0_L2C_prefetch_useful 57381 L2C_Useful Ratio: 0.27875
Core_0_L2C_prefetch_useless 125847
Core_0_L2C_prefetch_late 5155
Core_0_L2C_average_miss_latency 323.04658

Core_0_LLC_total_access 396491
Core_0_LLC_total_hit 122883 LLC_total_Hit Ratio: 0.30993
Core_0_LLC_total_miss 273608
Core_0_LLC_loads 60030
Core_0_LLC_load_hit 177 LLC_load_Hit Ratio: 0.00295
Core_0_LLC_load_miss 59853
Core_0_LLC_RFOs 33137
Core_0_LLC_RFO_hit 4 LLC_RFO_Hit Ratio: 0.00012
Core_0_LLC_RFO_miss 33133
Core_0_LLC_prefetches 180849
Core_0_LLC_prefetch_hit 1503 LLC_prefetch_Hit Ratio: 0.00831
Core_0_LLC_prefetch_miss 179346
Core_0_LLC_writebacks 122475
Core_0_LLC_writeback_hit 121199 LLC_writeback_Hit Ratio: 0.98958
Core_0_LLC_writeback_miss 1276
Core_0_LLC_prefetch_requested 0
Core_0_LLC_prefetch_issued 0
Core_0_LLC_prefetch_useful 17 LLC_Useful Ratio: inf
Core_0_LLC_prefetch_useless 168238
Core_0_LLC_prefetch_late 0
Core_0_LLC_average_miss_latency 296.08294

Core_0_major_page_fault 0
Core_0_minor_page_fault 3814

CPU 0 L1D berti prefetcher final stats
0-> Hits: 22, Late: 5, Early: 0, Misses: 0
1-> Hits: 2, Late: 1, Early: 0, Misses: 0
3-> Hits: 5, Late: 0, Early: 0, Misses: 0
4-> Hits: 2, Late: 0, Early: 0, Misses: 0
5-> Hits: 3, Late: 1, Early: 0, Misses: 0
6-> Hits: 1, Late: 0, Early: 0, Misses: 0
7-> Hits: 2, Late: 0, Early: 0, Misses: 0
8-> Hits: 0, Late: 1, Early: 0, Misses: 0
9-> Hits: 2, Late: 0, Early: 0, Misses: 0
a-> Hits: 0, Late: 2, Early: 0, Misses: 0
b-> Hits: 5, Late: 0, Early: 0, Misses: 0
e-> Hits: 61, Late: 0, Early: 0, Misses: 0
10-> Hits: 2, Late: 0, Early: 0, Misses: 0
11-> Hits: 0, Late: 1, Early: 0, Misses: 0
13-> Hits: 1, Late: 0, Early: 0, Misses: 0
14-> Hits: 2, Late: 0, Early: 0, Misses: 0
16-> Hits: 12, Late: 0, Early: 0, Misses: 0
17-> Hits: 3, Late: 0, Early: 0, Misses: 0
18-> Hits: 1, Late: 0, Early: 0, Misses: 0
1a-> Hits: 346, Late: 2, Early: 0, Misses: 0
1b-> Hits: 1, Late: 0, Early: 0, Misses: 0
1c-> Hits: 62, Late: 0, Early: 0, Misses: 0
1d-> Hits: 3, Late: 1, Early: 0, Misses: 0
1e-> Hits: 3, Late: 0, Early: 0, Misses: 0
1f-> Hits: 1, Late: 0, Early: 0, Misses: 0
20-> Hits: 3, Late: 1, Early: 0, Misses: 0
21-> Hits: 320, Late: 1, Early: 0, Misses: 0
22-> Hits: 2, Late: 2, Early: 0, Misses: 0
24-> Hits: 33, Late: 0, Early: 0, Misses: 0
25-> Hits: 3, Late: 0, Early: 0, Misses: 0
27-> Hits: 43, Late: 0, Early: 0, Misses: 0
28-> Hits: 10, Late: 0, Early: 0, Misses: 0
2a-> Hits: 400, Late: 2, Early: 0, Misses: 0
2b-> Hits: 6, Late: 0, Early: 0, Misses: 0
2c-> Hits: 1, Late: 0, Early: 0, Misses: 0
2d-> Hits: 1, Late: 0, Early: 0, Misses: 0
2f-> Hits: 12, Late: 0, Early: 0, Misses: 0
30-> Hits: 7, Late: 2, Early: 0, Misses: 0
33-> Hits: 11, Late: 0, Early: 0, Misses: 0
34-> Hits: 11, Late: 1, Early: 0, Misses: 0
35-> Hits: 9, Late: 0, Early: 0, Misses: 332
36-> Hits: 2, Late: 0, Early: 0, Misses: 0
37-> Hits: 1, Late: 0, Early: 0, Misses: 0
38-> Hits: 4, Late: 0, Early: 0, Misses: 0
39-> Hits: 2, Late: 0, Early: 0, Misses: 0
3a-> Hits: 2, Late: 0, Early: 0, Misses: 0
3c-> Hits: 2, Late: 0, Early: 0, Misses: 0
3d-> Hits: 0, Late: 58, Early: 0, Misses: 0
3e-> Hits: 2, Late: 0, Early: 0, Misses: 0
3f-> Hits: 1, Late: 0, Early: 0, Misses: 0
40-> Hits: 2, Late: 2, Early: 0, Misses: 0
43-> Hits: 2, Late: 0, Early: 0, Misses: 0
44-> Hits: 3, Late: 0, Early: 0, Misses: 0
45-> Hits: 2, Late: 0, Early: 0, Misses: 0
46-> Hits: 2, Late: 0, Early: 0, Misses: 0
47-> Hits: 2, Late: 0, Early: 0, Misses: 0
48-> Hits: 63, Late: 0, Early: 0, Misses: 0
49-> Hits: 65, Late: 0, Early: 0, Misses: 0
4a-> Hits: 60, Late: 0, Early: 0, Misses: 0
4b-> Hits: 60, Late: 0, Early: 0, Misses: 0
4d-> Hits: 60, Late: 0, Early: 0, Misses: 0
4e-> Hits: 1, Late: 0, Early: 0, Misses: 0
4f-> Hits: 58, Late: 0, Early: 0, Misses: 0
50-> Hits: 8, Late: 2, Early: 0, Misses: 0
51-> Hits: 58, Late: 0, Early: 0, Misses: 0
52-> Hits: 56, Late: 0, Early: 0, Misses: 0
53-> Hits: 61, Late: 0, Early: 0, Misses: 0
54-> Hits: 3, Late: 0, Early: 0, Misses: 0
56-> Hits: 1, Late: 0, Early: 0, Misses: 0
58-> Hits: 3, Late: 0, Early: 0, Misses: 0
5a-> Hits: 2, Late: 0, Early: 0, Misses: 0
5c-> Hits: 3, Late: 1, Early: 0, Misses: 0
5d-> Hits: 4, Late: 0, Early: 0, Misses: 0
61-> Hits: 3, Late: 0, Early: 0, Misses: 0
62-> Hits: 2, Late: 0, Early: 0, Misses: 0
63-> Hits: 0, Late: 2, Early: 0, Misses: 0
64-> Hits: 345, Late: 2, Early: 0, Misses: 0
69-> Hits: 2, Late: 0, Early: 0, Misses: 0
6a-> Hits: 2, Late: 0, Early: 0, Misses: 0
6b-> Hits: 1, Late: 0, Early: 0, Misses: 0
6f-> Hits: 1, Late: 0, Early: 0, Misses: 0
70-> Hits: 2, Late: 1, Early: 0, Misses: 0
76-> Hits: 2, Late: 1, Early: 0, Misses: 0
77-> Hits: 2, Late: 0, Early: 0, Misses: 0
78-> Hits: 296, Late: 0, Early: 0, Misses: 50
79-> Hits: 1, Late: 0, Early: 0, Misses: 0
7a-> Hits: 3, Late: 0, Early: 0, Misses: 0
7b-> Hits: 3, Late: 2, Early: 0, Misses: 0
7c-> Hits: 1, Late: 0, Early: 0, Misses: 0
7d-> Hits: 1, Late: 0, Early: 0, Misses: 0
7e-> Hits: 3, Late: 0, Early: 0, Misses: 0
7f-> Hits: 5, Late: 0, Early: 0, Misses: 0
80-> Hits: 9105, Late: 27, Early: 0, Misses: 54
81-> Hits: 1, Late: 0, Early: 0, Misses: 0
82-> Hits: 2, Late: 0, Early: 0, Misses: 0
84-> Hits: 4, Late: 1, Early: 0, Misses: 0
86-> Hits: 1, Late: 0, Early: 0, Misses: 0
88-> Hits: 8621, Late: 0, Early: 0, Misses: 313
89-> Hits: 57, Late: 2, Early: 0, Misses: 0
8a-> Hits: 2, Late: 0, Early: 0, Misses: 0
8f-> Hits: 54, Late: 0, Early: 0, Misses: 8
90-> Hits: 0, Late: 1, Early: 0, Misses: 0
91-> Hits: 2, Late: 0, Early: 0, Misses: 0
92-> Hits: 9123, Late: 26, Early: 0, Misses: 26
94-> Hits: 35, Late: 0, Early: 0, Misses: 0
95-> Hits: 1, Late: 0, Early: 0, Misses: 0
96-> Hits: 3, Late: 0, Early: 0, Misses: 0
98-> Hits: 3, Late: 0, Early: 0, Misses: 0
99-> Hits: 1, Late: 0, Early: 0, Misses: 0
9a-> Hits: 5, Late: 0, Early: 0, Misses: 0
9b-> Hits: 2, Late: 0, Early: 0, Misses: 1
9c-> Hits: 4787, Late: 0, Early: 0, Misses: 0
9d-> Hits: 2, Late: 0, Early: 0, Misses: 0
9e-> Hits: 2, Late: 0, Early: 0, Misses: 0
9f-> Hits: 4, Late: 0, Early: 0, Misses: 0
a0-> Hits: 1754, Late: 0, Early: 0, Misses: 40
a1-> Hits: 5, Late: 0, Early: 0, Misses: 0
a2-> Hits: 1, Late: 0, Early: 0, Misses: 0
a3-> Hits: 3, Late: 0, Early: 0, Misses: 0
a4-> Hits: 61, Late: 1, Early: 0, Misses: 0
a5-> Hits: 4, Late: 0, Early: 0, Misses: 0
a6-> Hits: 9150, Late: 0, Early: 0, Misses: 26
a7-> Hits: 4, Late: 0, Early: 0, Misses: 0
a8-> Hits: 3, Late: 0, Early: 0, Misses: 0
a9-> Hits: 4, Late: 0, Early: 0, Misses: 0
aa-> Hits: 3, Late: 0, Early: 0, Misses: 0
ab-> Hits: 5, Late: 0, Early: 0, Misses: 0
ac-> Hits: 1507, Late: 1, Early: 0, Misses: 57
ad-> Hits: 4, Late: 0, Early: 0, Misses: 0
ae-> Hits: 7, Late: 0, Early: 0, Misses: 0
af-> Hits: 5, Late: 0, Early: 0, Misses: 0
b0-> Hits: 14, Late: 7, Early: 0, Misses: 0
b1-> Hits: 1, Late: 1, Early: 0, Misses: 0
b3-> Hits: 5, Late: 0, Early: 0, Misses: 1
b4-> Hits: 4, Late: 0, Early: 0, Misses: 0
b6-> Hits: 3811, Late: 3274, Early: 0, Misses: 2096
b7-> Hits: 1828, Late: 1, Early: 0, Misses: 0
b8-> Hits: 2, Late: 1, Early: 0, Misses: 0
ba-> Hits: 2, Late: 0, Early: 0, Misses: 0
bb-> Hits: 2205, Late: 4435, Early: 0, Misses: 2536
bc-> Hits: 2, Late: 0, Early: 0, Misses: 0
bf-> Hits: 1, Late: 0, Early: 0, Misses: 0
c0-> Hits: 11, Late: 60, Early: 0, Misses: 0
c1-> Hits: 1, Late: 0, Early: 0, Misses: 0
c2-> Hits: 5, Late: 0, Early: 0, Misses: 1
c3-> Hits: 6, Late: 0, Early: 0, Misses: 0
c4-> Hits: 300, Late: 0, Early: 0, Misses: 44
c5-> Hits: 1, Late: 0, Early: 0, Misses: 0
c6-> Hits: 99, Late: 0, Early: 0, Misses: 0
c7-> Hits: 5, Late: 0, Early: 0, Misses: 0
c8-> Hits: 10, Late: 0, Early: 0, Misses: 0
c9-> Hits: 1, Late: 0, Early: 0, Misses: 0
ca-> Hits: 0, Late: 0, Early: 0, Misses: 1
cb-> Hits: 884, Late: 5943, Early: 0, Misses: 2692
cc-> Hits: 1, Late: 0, Early: 0, Misses: 0
cf-> Hits: 1, Late: 0, Early: 0, Misses: 0
d0-> Hits: 1095, Late: 6162, Early: 0, Misses: 3741
d1-> Hits: 4, Late: 0, Early: 0, Misses: 0
d2-> Hits: 6, Late: 0, Early: 0, Misses: 0
d3-> Hits: 20, Late: 0, Early: 0, Misses: 13
d4-> Hits: 1, Late: 0, Early: 0, Misses: 0
d5-> Hits: 2, Late: 0, Early: 0, Misses: 0
d6-> Hits: 2, Late: 0, Early: 0, Misses: 0
d7-> Hits: 1, Late: 0, Early: 0, Misses: 0
d8-> Hits: 1, Late: 0, Early: 0, Misses: 0
d9-> Hits: 17, Late: 0, Early: 0, Misses: 332
da-> Hits: 517, Late: 54, Early: 0, Misses: 1253
db-> Hits: 2, Late: 0, Early: 0, Misses: 0
dd-> Hits: 2, Late: 0, Early: 0, Misses: 0
df-> Hits: 1, Late: 0, Early: 0, Misses: 0
e0-> Hits: 12, Late: 6, Early: 0, Misses: 0
e1-> Hits: 1, Late: 0, Early: 0, Misses: 0
e5-> Hits: 148, Late: 440, Early: 0, Misses: 1236
ea-> Hits: 2, Late: 0, Early: 0, Misses: 0
ef-> Hits: 70, Late: 469, Early: 0, Misses: 1285
f3-> Hits: 345, Late: 1, Early: 0, Misses: 0
f4-> Hits: 1, Late: 0, Early: 0, Misses: 0
f6-> Hits: 2, Late: 0, Early: 0, Misses: 0
f7-> Hits: 4, Late: 0, Early: 0, Misses: 0
f8-> Hits: 3, Late: 0, Early: 0, Misses: 0
fa-> Hits: 2, Late: 0, Early: 0, Misses: 0
fb-> Hits: 16, Late: 0, Early: 0, Misses: 0
fc-> Hits: 1, Late: 0, Early: 0, Misses: 0
fd-> Hits: 2, Late: 0, Early: 0, Misses: 0
fe-> Hits: 1, Late: 0, Early: 0, Misses: 0
ff-> Hits: 4, Late: 0, Early: 0, Misses: 0
100-> Hits: 10, Late: 3, Early: 0, Misses: 0
101-> Hits: 1, Late: 0, Early: 0, Misses: 0
103-> Hits: 1, Late: 0, Early: 0, Misses: 0
104-> Hits: 0, Late: 1, Early: 0, Misses: 0
106-> Hits: 1, Late: 0, Early: 0, Misses: 0
107-> Hits: 1, Late: 0, Early: 0, Misses: 0
10a-> Hits: 1, Late: 0, Early: 0, Misses: 0
10b-> Hits: 3, Late: 0, Early: 0, Misses: 0
10d-> Hits: 3, Late: 0, Early: 0, Misses: 0
10e-> Hits: 1, Late: 0, Early: 0, Misses: 0
10f-> Hits: 1, Late: 0, Early: 0, Misses: 0
110-> Hits: 1, Late: 1, Early: 0, Misses: 0
112-> Hits: 11, Late: 1, Early: 0, Misses: 0
114-> Hits: 1, Late: 0, Early: 0, Misses: 0
115-> Hits: 58245, Late: 4, Early: 0, Misses: 120
116-> Hits: 1, Late: 0, Early: 0, Misses: 0
117-> Hits: 3, Late: 0, Early: 0, Misses: 0
118-> Hits: 0, Late: 1, Early: 0, Misses: 0
11a-> Hits: 4, Late: 0, Early: 0, Misses: 0
11b-> Hits: 3, Late: 0, Early: 0, Misses: 0
11c-> Hits: 12545, Late: 0, Early: 0, Misses: 40
11d-> Hits: 1, Late: 0, Early: 0, Misses: 0
11e-> Hits: 2, Late: 0, Early: 0, Misses: 0
11f-> Hits: 1, Late: 0, Early: 0, Misses: 0
120-> Hits: 2, Late: 2, Early: 0, Misses: 0
121-> Hits: 1, Late: 0, Early: 0, Misses: 0
122-> Hits: 2, Late: 0, Early: 0, Misses: 0
123-> Hits: 1, Late: 0, Early: 0, Misses: 0
124-> Hits: 3, Late: 0, Early: 0, Misses: 0
125-> Hits: 1, Late: 0, Early: 0, Misses: 0
126-> Hits: 1, Late: 0, Early: 0, Misses: 0
127-> Hits: 58369, Late: 0, Early: 0, Misses: 0
128-> Hits: 319, Late: 0, Early: 0, Misses: 24
129-> Hits: 1, Late: 0, Early: 0, Misses: 0
12b-> Hits: 14, Late: 0, Early: 0, Misses: 0
12c-> Hits: 25, Late: 0, Early: 0, Misses: 0
12d-> Hits: 2, Late: 0, Early: 0, Misses: 0
12e-> Hits: 6273, Late: 0, Early: 0, Misses: 15
12f-> Hits: 1, Late: 0, Early: 0, Misses: 0
130-> Hits: 2, Late: 1, Early: 0, Misses: 0
132-> Hits: 1, Late: 0, Early: 0, Misses: 0
133-> Hits: 1, Late: 0, Early: 0, Misses: 0
134-> Hits: 0, Late: 1, Early: 0, Misses: 0
136-> Hits: 1, Late: 0, Early: 0, Misses: 0
137-> Hits: 1, Late: 0, Early: 0, Misses: 0
138-> Hits: 1, Late: 0, Early: 0, Misses: 0
139-> Hits: 10487, Late: 0, Early: 0, Misses: 7
13a-> Hits: 10, Late: 0, Early: 0, Misses: 0
13b-> Hits: 1, Late: 0, Early: 0, Misses: 0
13c-> Hits: 1, Late: 0, Early: 0, Misses: 0
13e-> Hits: 1, Late: 0, Early: 0, Misses: 0
13f-> Hits: 1, Late: 0, Early: 0, Misses: 0
140-> Hits: 1, Late: 3, Early: 0, Misses: 0
142-> Hits: 4, Late: 0, Early: 0, Misses: 0
143-> Hits: 1, Late: 0, Early: 0, Misses: 0
144-> Hits: 4775, Late: 2, Early: 0, Misses: 26
145-> Hits: 1, Late: 0, Early: 0, Misses: 0
147-> Hits: 60, Late: 0, Early: 0, Misses: 0
148-> Hits: 2, Late: 0, Early: 0, Misses: 0
149-> Hits: 4, Late: 0, Early: 0, Misses: 0
14a-> Hits: 58369, Late: 0, Early: 0, Misses: 0
14d-> Hits: 0, Late: 1, Early: 0, Misses: 0
14f-> Hits: 59, Late: 0, Early: 0, Misses: 0
154-> Hits: 11712, Late: 0, Early: 0, Misses: 24
155-> Hits: 2, Late: 2, Early: 0, Misses: 0
156-> Hits: 0, Late: 1, Early: 0, Misses: 0
159-> Hits: 62, Late: 0, Early: 0, Misses: 0
15b-> Hits: 2, Late: 0, Early: 0, Misses: 0
15d-> Hits: 3, Late: 0, Early: 0, Misses: 0
15f-> Hits: 21106, Late: 0, Early: 0, Misses: 62
160-> Hits: 1, Late: 0, Early: 0, Misses: 0
163-> Hits: 101, Late: 0, Early: 0, Misses: 52
164-> Hits: 345, Late: 0, Early: 0, Misses: 0
165-> Hits: 2, Late: 0, Early: 0, Misses: 0
168-> Hits: 1, Late: 0, Early: 0, Misses: 0
169-> Hits: 58, Late: 0, Early: 0, Misses: 0
16a-> Hits: 8746, Late: 1, Early: 0, Misses: 30
16b-> Hits: 60, Late: 0, Early: 0, Misses: 0
16d-> Hits: 116, Late: 0, Early: 0, Misses: 0
16e-> Hits: 5, Late: 0, Early: 0, Misses: 343
16f-> Hits: 60, Late: 0, Early: 0, Misses: 0
171-> Hits: 58, Late: 0, Early: 0, Misses: 0
172-> Hits: 2, Late: 0, Early: 0, Misses: 0
175-> Hits: 14528, Late: 0, Early: 0, Misses: 38
176-> Hits: 59, Late: 0, Early: 0, Misses: 0
177-> Hits: 59, Late: 0, Early: 0, Misses: 0
178-> Hits: 1, Late: 0, Early: 0, Misses: 0
17a-> Hits: 0, Late: 1, Early: 0, Misses: 0
17b-> Hits: 22451, Late: 0, Early: 0, Misses: 0
17c-> Hits: 26, Late: 1, Early: 0, Misses: 0
17d-> Hits: 2, Late: 0, Early: 0, Misses: 0
17e-> Hits: 2, Late: 0, Early: 0, Misses: 0
180-> Hits: 13, Late: 6, Early: 0, Misses: 0
181-> Hits: 10, Late: 0, Early: 0, Misses: 0
184-> Hits: 7, Late: 0, Early: 0, Misses: 0
185-> Hits: 13017, Late: 0, Early: 0, Misses: 44
188-> Hits: 2, Late: 0, Early: 0, Misses: 0
189-> Hits: 3, Late: 0, Early: 0, Misses: 0
18b-> Hits: 58347, Late: 2, Early: 0, Misses: 21
18c-> Hits: 3, Late: 0, Early: 0, Misses: 0
18e-> Hits: 1, Late: 0, Early: 0, Misses: 0
18f-> Hits: 1, Late: 0, Early: 0, Misses: 0
190-> Hits: 10, Late: 1, Early: 0, Misses: 0
192-> Hits: 2, Late: 0, Early: 0, Misses: 0
194-> Hits: 1, Late: 0, Early: 0, Misses: 57
195-> Hits: 2, Late: 0, Early: 0, Misses: 0
197-> Hits: 15126, Late: 0, Early: 0, Misses: 14
198-> Hits: 5, Late: 0, Early: 0, Misses: 0
199-> Hits: 6, Late: 0, Early: 0, Misses: 57
19a-> Hits: 3, Late: 0, Early: 0, Misses: 0
19b-> Hits: 9, Late: 0, Early: 0, Misses: 0
19c-> Hits: 3, Late: 0, Early: 0, Misses: 0
19d-> Hits: 12, Late: 1, Early: 0, Misses: 0
19e-> Hits: 2, Late: 0, Early: 0, Misses: 0
19f-> Hits: 4, Late: 0, Early: 0, Misses: 0
1a0-> Hits: 4, Late: 0, Early: 0, Misses: 0
1a1-> Hits: 5, Late: 0, Early: 0, Misses: 0
1a2-> Hits: 5488, Late: 0, Early: 0, Misses: 17
1a4-> Hits: 7, Late: 1, Early: 0, Misses: 0
1a5-> Hits: 1, Late: 0, Early: 0, Misses: 0
1a6-> Hits: 2, Late: 0, Early: 0, Misses: 0
1a7-> Hits: 4, Late: 0, Early: 0, Misses: 0
1a8-> Hits: 3, Late: 0, Early: 0, Misses: 0
1a9-> Hits: 9, Late: 0, Early: 0, Misses: 0
1ad-> Hits: 6566, Late: 0, Early: 0, Misses: 79
1ae-> Hits: 2, Late: 0, Early: 0, Misses: 0
1af-> Hits: 7, Late: 0, Early: 0, Misses: 0
1b0-> Hits: 5, Late: 2, Early: 0, Misses: 0
1b1-> Hits: 4, Late: 0, Early: 0, Misses: 0
1b3-> Hits: 58367, Late: 2, Early: 0, Misses: 3
1b5-> Hits: 2, Late: 2, Early: 0, Misses: 0
1b6-> Hits: 2, Late: 1, Early: 0, Misses: 0
1b7-> Hits: 8, Late: 3, Early: 0, Misses: 3
1b8-> Hits: 2, Late: 2, Early: 0, Misses: 0
1ba-> Hits: 2, Late: 0, Early: 0, Misses: 0
1bc-> Hits: 23669, Late: 0, Early: 0, Misses: 34
1bd-> Hits: 5, Late: 0, Early: 0, Misses: 0
1be-> Hits: 5, Late: 0, Early: 0, Misses: 0
1bf-> Hits: 7, Late: 0, Early: 0, Misses: 0
1c0-> Hits: 3, Late: 3, Early: 0, Misses: 0
1c2-> Hits: 57, Late: 2, Early: 0, Misses: 0
1c3-> Hits: 4, Late: 0, Early: 0, Misses: 0
1c4-> Hits: 3, Late: 0, Early: 0, Misses: 0
1c5-> Hits: 1, Late: 1, Early: 0, Misses: 0
1c6-> Hits: 4, Late: 0, Early: 0, Misses: 0
1c7-> Hits: 10266, Late: 2, Early: 0, Misses: 76
1c8-> Hits: 4, Late: 0, Early: 0, Misses: 0
1c9-> Hits: 1, Late: 0, Early: 0, Misses: 0
1ca-> Hits: 2, Late: 0, Early: 0, Misses: 0
1cc-> Hits: 1, Late: 2, Early: 0, Misses: 0
1cd-> Hits: 8, Late: 0, Early: 0, Misses: 0
1ce-> Hits: 3, Late: 0, Early: 0, Misses: 0
1d0-> Hits: 12, Late: 1, Early: 0, Misses: 0
1d2-> Hits: 3721, Late: 0, Early: 0, Misses: 1
1d4-> Hits: 1, Late: 0, Early: 0, Misses: 0
1d6-> Hits: 6, Late: 0, Early: 0, Misses: 0
1d7-> Hits: 1, Late: 0, Early: 0, Misses: 0
1d8-> Hits: 7, Late: 0, Early: 0, Misses: 0
1da-> Hits: 3, Late: 0, Early: 0, Misses: 0
1db-> Hits: 4, Late: 1, Early: 0, Misses: 0
1dd-> Hits: 58088, Late: 0, Early: 0, Misses: 280
1de-> Hits: 9, Late: 1, Early: 0, Misses: 0
1df-> Hits: 13, Late: 0, Early: 0, Misses: 0
1e0-> Hits: 28, Late: 87, Early: 0, Misses: 294
1e1-> Hits: 8, Late: 1, Early: 0, Misses: 0
1e2-> Hits: 1, Late: 1, Early: 0, Misses: 0
1e3-> Hits: 10189, Late: 0, Early: 0, Misses: 0
1e4-> Hits: 0, Late: 1, Early: 0, Misses: 0
1e5-> Hits: 2, Late: 1, Early: 0, Misses: 0
1e8-> Hits: 0, Late: 1, Early: 0, Misses: 0
1ea-> Hits: 0, Late: 1, Early: 0, Misses: 0
1eb-> Hits: 5, Late: 0, Early: 0, Misses: 0
1ec-> Hits: 15, Late: 108, Early: 0, Misses: 279
1ef-> Hits: 18, Late: 0, Early: 0, Misses: 41
1f0-> Hits: 13, Late: 3, Early: 0, Misses: 342
1f1-> Hits: 2, Late: 0, Early: 0, Misses: 0
1f2-> Hits: 1, Late: 0, Early: 0, Misses: 0
1f4-> Hits: 1, Late: 0, Early: 0, Misses: 343
1f6-> Hits: 1, Late: 0, Early: 0, Misses: 0
1f7-> Hits: 4, Late: 0, Early: 0, Misses: 10
1f8-> Hits: 5, Late: 0, Early: 0, Misses: 0
1f9-> Hits: 9, Late: 114, Early: 0, Misses: 280
1fa-> Hits: 1, Late: 0, Early: 0, Misses: 0
1fb-> Hits: 0, Late: 1, Early: 0, Misses: 0
1fc-> Hits: 2, Late: 0, Early: 0, Misses: 57
1fd-> Hits: 0, Late: 1, Early: 0, Misses: 0
1fe-> Hits: 22, Late: 0, Early: 0, Misses: 0
200-> Hits: 2, Late: 0, Early: 0, Misses: 0
201-> Hits: 5, Late: 0, Early: 0, Misses: 0
202-> Hits: 1, Late: 0, Early: 0, Misses: 0
203-> Hits: 13, Late: 0, Early: 0, Misses: 53
205-> Hits: 3, Late: 0, Early: 0, Misses: 0
206-> Hits: 11, Late: 120, Early: 0, Misses: 274
207-> Hits: 11, Late: 0, Early: 0, Misses: 0
208-> Hits: 28, Late: 1, Early: 0, Misses: 0
20a-> Hits: 5, Late: 0, Early: 0, Misses: 0
20c-> Hits: 5, Late: 0, Early: 0, Misses: 0
20e-> Hits: 6, Late: 0, Early: 0, Misses: 0
20f-> Hits: 12, Late: 4, Early: 0, Misses: 0
210-> Hits: 1840, Late: 3, Early: 0, Misses: 0
212-> Hits: 5, Late: 0, Early: 0, Misses: 0
213-> Hits: 2, Late: 123, Early: 0, Misses: 275
214-> Hits: 14, Late: 0, Early: 0, Misses: 312
216-> Hits: 3, Late: 0, Early: 0, Misses: 0
217-> Hits: 12, Late: 1, Early: 0, Misses: 0
218-> Hits: 3, Late: 0, Early: 0, Misses: 0
219-> Hits: 0, Late: 1, Early: 0, Misses: 0
21a-> Hits: 8, Late: 1, Early: 0, Misses: 0
21d-> Hits: 2, Late: 0, Early: 0, Misses: 0
21e-> Hits: 5, Late: 125, Early: 0, Misses: 270
21f-> Hits: 10, Late: 0, Early: 0, Misses: 0
220-> Hits: 6, Late: 4, Early: 0, Misses: 0
221-> Hits: 4, Late: 1, Early: 0, Misses: 0
224-> Hits: 2, Late: 1, Early: 0, Misses: 0
225-> Hits: 7, Late: 0, Early: 0, Misses: 0
226-> Hits: 1, Late: 0, Early: 0, Misses: 0
227-> Hits: 0, Late: 1, Early: 0, Misses: 0
228-> Hits: 1, Late: 0, Early: 0, Misses: 0
22a-> Hits: 3, Late: 0, Early: 0, Misses: 0
22b-> Hits: 10, Late: 135, Early: 0, Misses: 263
22c-> Hits: 5, Late: 0, Early: 0, Misses: 0
22d-> Hits: 3, Late: 0, Early: 0, Misses: 0
22e-> Hits: 1, Late: 0, Early: 0, Misses: 0
22f-> Hits: 3, Late: 0, Early: 0, Misses: 0
230-> Hits: 4, Late: 1, Early: 0, Misses: 0
231-> Hits: 7, Late: 0, Early: 0, Misses: 0
232-> Hits: 4, Late: 0, Early: 0, Misses: 0
233-> Hits: 4, Late: 0, Early: 0, Misses: 0
234-> Hits: 1, Late: 0, Early: 0, Misses: 0
235-> Hits: 2, Late: 0, Early: 0, Misses: 0
236-> Hits: 1, Late: 0, Early: 0, Misses: 0
238-> Hits: 5, Late: 122, Early: 0, Misses: 273
23a-> Hits: 4, Late: 8, Early: 0, Misses: 0
23b-> Hits: 4, Late: 0, Early: 0, Misses: 0
23c-> Hits: 4, Late: 0, Early: 0, Misses: 0
23d-> Hits: 61, Late: 0, Early: 0, Misses: 0
23e-> Hits: 6, Late: 0, Early: 0, Misses: 0
23f-> Hits: 6, Late: 0, Early: 0, Misses: 0
240-> Hits: 12, Late: 5, Early: 0, Misses: 0
241-> Hits: 2, Late: 0, Early: 0, Misses: 0
245-> Hits: 6, Late: 0, Early: 0, Misses: 1
246-> Hits: 4, Late: 0, Early: 0, Misses: 0
247-> Hits: 1, Late: 0, Early: 0, Misses: 0
248-> Hits: 4, Late: 0, Early: 0, Misses: 0
249-> Hits: 2, Late: 0, Early: 0, Misses: 0
24a-> Hits: 1, Late: 1, Early: 0, Misses: 0
24b-> Hits: 1, Late: 0, Early: 0, Misses: 0
24d-> Hits: 2, Late: 0, Early: 0, Misses: 0
24e-> Hits: 1, Late: 0, Early: 0, Misses: 0
24f-> Hits: 5, Late: 0, Early: 0, Misses: 0
250-> Hits: 4, Late: 1, Early: 0, Misses: 0
251-> Hits: 4, Late: 0, Early: 0, Misses: 0
252-> Hits: 4, Late: 1, Early: 0, Misses: 0
253-> Hits: 1, Late: 0, Early: 0, Misses: 0
254-> Hits: 4, Late: 0, Early: 0, Misses: 0
255-> Hits: 3, Late: 1, Early: 0, Misses: 0
256-> Hits: 3, Late: 0, Early: 0, Misses: 0
258-> Hits: 4, Late: 0, Early: 0, Misses: 0
25a-> Hits: 3, Late: 0, Early: 0, Misses: 0
25c-> Hits: 1, Late: 0, Early: 0, Misses: 0
25d-> Hits: 1, Late: 0, Early: 0, Misses: 0
25e-> Hits: 1, Late: 0, Early: 0, Misses: 0
25f-> Hits: 2, Late: 3, Early: 0, Misses: 0
260-> Hits: 1833, Late: 3, Early: 0, Misses: 0
261-> Hits: 1, Late: 0, Early: 0, Misses: 0
262-> Hits: 9, Late: 0, Early: 0, Misses: 0
263-> Hits: 9, Late: 1, Early: 0, Misses: 0
264-> Hits: 2, Late: 0, Early: 0, Misses: 0
265-> Hits: 3, Late: 0, Early: 0, Misses: 0
266-> Hits: 4, Late: 0, Early: 0, Misses: 0
267-> Hits: 6, Late: 0, Early: 0, Misses: 0
268-> Hits: 1652, Late: 0, Early: 0, Misses: 177
269-> Hits: 1, Late: 0, Early: 0, Misses: 0
26a-> Hits: 2, Late: 0, Early: 0, Misses: 0
26b-> Hits: 1, Late: 0, Early: 0, Misses: 0
26d-> Hits: 58, Late: 0, Early: 0, Misses: 0
26e-> Hits: 0, Late: 0, Early: 0, Misses: 58
270-> Hits: 17, Late: 1, Early: 0, Misses: 0
271-> Hits: 1, Late: 0, Early: 0, Misses: 0
274-> Hits: 1, Late: 0, Early: 0, Misses: 0
275-> Hits: 58, Late: 0, Early: 0, Misses: 0
276-> Hits: 1704, Late: 0, Early: 0, Misses: 121
277-> Hits: 1, Late: 0, Early: 0, Misses: 0
278-> Hits: 1, Late: 0, Early: 0, Misses: 0
27a-> Hits: 58, Late: 0, Early: 0, Misses: 0
27b-> Hits: 5, Late: 0, Early: 0, Misses: 0
27c-> Hits: 2, Late: 0, Early: 0, Misses: 0
27d-> Hits: 192, Late: 1, Early: 0, Misses: 0
27e-> Hits: 6, Late: 0, Early: 0, Misses: 0
27f-> Hits: 58, Late: 0, Early: 0, Misses: 0
280-> Hits: 0, Late: 2, Early: 0, Misses: 0
281-> Hits: 1, Late: 0, Early: 0, Misses: 0
282-> Hits: 1653, Late: 0, Early: 0, Misses: 176
284-> Hits: 4, Late: 0, Early: 0, Misses: 0
285-> Hits: 21, Late: 1, Early: 0, Misses: 0
289-> Hits: 0, Late: 1, Early: 0, Misses: 0
28a-> Hits: 2, Late: 0, Early: 0, Misses: 0
28f-> Hits: 10, Late: 0, Early: 0, Misses: 0
290-> Hits: 1, Late: 0, Early: 0, Misses: 0
291-> Hits: 1, Late: 0, Early: 0, Misses: 0
293-> Hits: 1, Late: 0, Early: 0, Misses: 0
297-> Hits: 1, Late: 0, Early: 0, Misses: 0
298-> Hits: 1, Late: 0, Early: 0, Misses: 0
299-> Hits: 1, Late: 0, Early: 0, Misses: 0
29a-> Hits: 1, Late: 0, Early: 0, Misses: 0
29d-> Hits: 11, Late: 2, Early: 0, Misses: 0
29e-> Hits: 2, Late: 0, Early: 0, Misses: 0
29f-> Hits: 11, Late: 0, Early: 0, Misses: 0
2a0-> Hits: 2, Late: 1, Early: 0, Misses: 0
2a1-> Hits: 2, Late: 0, Early: 0, Misses: 0
2a2-> Hits: 30, Late: 0, Early: 0, Misses: 0
2a4-> Hits: 4, Late: 0, Early: 0, Misses: 0
2a5-> Hits: 1, Late: 0, Early: 0, Misses: 0
2a6-> Hits: 4, Late: 0, Early: 0, Misses: 0
2a7-> Hits: 5, Late: 0, Early: 0, Misses: 0
2a8-> Hits: 1, Late: 0, Early: 0, Misses: 0
2a9-> Hits: 7, Late: 0, Early: 0, Misses: 0
2aa-> Hits: 5, Late: 0, Early: 0, Misses: 0
2ad-> Hits: 1, Late: 1, Early: 0, Misses: 0
2ae-> Hits: 180, Late: 0, Early: 0, Misses: 12
2af-> Hits: 1, Late: 1, Early: 0, Misses: 0
2b1-> Hits: 1, Late: 1, Early: 0, Misses: 0
2b3-> Hits: 1, Late: 1, Early: 0, Misses: 0
2b6-> Hits: 1, Late: 1, Early: 0, Misses: 0
2b7-> Hits: 0, Late: 1, Early: 0, Misses: 0
2bd-> Hits: 168, Late: 0, Early: 0, Misses: 0
2c0-> Hits: 879, Late: 149, Early: 0, Misses: 0
2c1-> Hits: 2, Late: 0, Early: 0, Misses: 0
2c3-> Hits: 1, Late: 0, Early: 0, Misses: 0
2c5-> Hits: 1003, Late: 1, Early: 0, Misses: 32
2c6-> Hits: 3, Late: 0, Early: 0, Misses: 0
2c8-> Hits: 2, Late: 0, Early: 0, Misses: 0
2c9-> Hits: 6, Late: 2, Early: 0, Misses: 0
2ca-> Hits: 641, Late: 366, Early: 0, Misses: 0
2cc-> Hits: 2, Late: 1, Early: 0, Misses: 0
2cd-> Hits: 1, Late: 2, Early: 0, Misses: 0
2d0-> Hits: 959, Late: 46, Early: 0, Misses: 0
2d1-> Hits: 1, Late: 1, Early: 0, Misses: 0
2d3-> Hits: 0, Late: 1, Early: 0, Misses: 0
2d6-> Hits: 2, Late: 1, Early: 0, Misses: 0
2d8-> Hits: 1, Late: 0, Early: 0, Misses: 0
2da-> Hits: 2, Late: 0, Early: 0, Misses: 0
2db-> Hits: 3, Late: 0, Early: 0, Misses: 0
2dc-> Hits: 4, Late: 0, Early: 0, Misses: 0
2de-> Hits: 2, Late: 0, Early: 0, Misses: 0
2df-> Hits: 8, Late: 0, Early: 0, Misses: 0
2e0-> Hits: 656, Late: 373, Early: 0, Misses: 0
2e2-> Hits: 16, Late: 0, Early: 0, Misses: 0
2e4-> Hits: 2, Late: 0, Early: 0, Misses: 0
2e5-> Hits: 970, Late: 56, Early: 0, Misses: 0
2e6-> Hits: 5, Late: 1, Early: 0, Misses: 0
2e9-> Hits: 1, Late: 0, Early: 0, Misses: 0
2ea-> Hits: 681, Late: 344, Early: 0, Misses: 0
2ed-> Hits: 1, Late: 0, Early: 0, Misses: 0
2ee-> Hits: 127, Late: 0, Early: 0, Misses: 26
2ef-> Hits: 1, Late: 0, Early: 0, Misses: 0
2f0-> Hits: 963, Late: 63, Early: 0, Misses: 0
2f1-> Hits: 2, Late: 0, Early: 0, Misses: 0
2f2-> Hits: 1, Late: 0, Early: 0, Misses: 0
2f3-> Hits: 88, Late: 0, Early: 0, Misses: 2
2f4-> Hits: 10, Late: 0, Early: 0, Misses: 0
2f5-> Hits: 13, Late: 0, Early: 0, Misses: 0
2f6-> Hits: 10, Late: 0, Early: 0, Misses: 0
2f7-> Hits: 26, Late: 0, Early: 0, Misses: 0
2f8-> Hits: 10, Late: 0, Early: 0, Misses: 0
2fa-> Hits: 10, Late: 0, Early: 0, Misses: 0
2fb-> Hits: 44, Late: 1, Early: 0, Misses: 3
2ff-> Hits: 639, Late: 385, Early: 0, Misses: 0
300-> Hits: 9086, Late: 31, Early: 0, Misses: 36
301-> Hits: 2, Late: 0, Early: 0, Misses: 0
302-> Hits: 2, Late: 0, Early: 0, Misses: 0
304-> Hits: 2034, Late: 112, Early: 0, Misses: 1
305-> Hits: 10, Late: 0, Early: 0, Misses: 0
306-> Hits: 2, Late: 0, Early: 0, Misses: 0
308-> Hits: 1, Late: 1, Early: 0, Misses: 0
309-> Hits: 1650, Late: 492, Early: 0, Misses: 10
30a-> Hits: 2, Late: 0, Early: 0, Misses: 0
30b-> Hits: 2, Late: 0, Early: 0, Misses: 0
30c-> Hits: 1, Late: 0, Early: 0, Misses: 0
30f-> Hits: 1884, Late: 192, Early: 0, Misses: 3
310-> Hits: 1, Late: 1, Early: 0, Misses: 0
312-> Hits: 3, Late: 0, Early: 0, Misses: 0
313-> Hits: 1, Late: 0, Early: 0, Misses: 0
314-> Hits: 1038, Late: 144, Early: 0, Misses: 220
315-> Hits: 688, Late: 0, Early: 0, Misses: 0
316-> Hits: 3, Late: 0, Early: 0, Misses: 0
317-> Hits: 7, Late: 4, Early: 0, Misses: 0
318-> Hits: 13, Late: 1, Early: 0, Misses: 0
319-> Hits: 7, Late: 0, Early: 0, Misses: 0
31a-> Hits: 3725, Late: 6137, Early: 0, Misses: 0
31b-> Hits: 5, Late: 0, Early: 0, Misses: 0
31d-> Hits: 5, Late: 0, Early: 0, Misses: 0
31e-> Hits: 602, Late: 364, Early: 0, Misses: 0
31f-> Hits: 1687, Late: 7497, Early: 0, Misses: 0
320-> Hits: 559, Late: 0, Early: 0, Misses: 0
323-> Hits: 908, Late: 56, Early: 0, Misses: 0
324-> Hits: 1, Late: 0, Early: 0, Misses: 0
325-> Hits: 932, Late: 8243, Early: 0, Misses: 0
326-> Hits: 2, Late: 0, Early: 0, Misses: 0
328-> Hits: 573, Late: 373, Early: 0, Misses: 0
32a-> Hits: 794, Late: 8380, Early: 0, Misses: 0
32c-> Hits: 1, Late: 0, Early: 0, Misses: 0
32d-> Hits: 1, Late: 0, Early: 0, Misses: 0
32e-> Hits: 902, Late: 55, Early: 0, Misses: 0
32f-> Hits: 1, Late: 0, Early: 0, Misses: 0
330-> Hits: 4, Late: 1, Early: 0, Misses: 0
332-> Hits: 5, Late: 0, Early: 0, Misses: 0
333-> Hits: 2, Late: 0, Early: 0, Misses: 0
334-> Hits: 9070, Late: 26, Early: 0, Misses: 25
335-> Hits: 27, Late: 0, Early: 0, Misses: 0
336-> Hits: 1, Late: 0, Early: 0, Misses: 0
338-> Hits: 4, Late: 0, Early: 0, Misses: 0
339-> Hits: 1, Late: 0, Early: 0, Misses: 0
33a-> Hits: 6, Late: 0, Early: 0, Misses: 0
33c-> Hits: 1, Late: 0, Early: 0, Misses: 0
33d-> Hits: 2, Late: 0, Early: 0, Misses: 0
33f-> Hits: 1, Late: 0, Early: 0, Misses: 0
340-> Hits: 2, Late: 2, Early: 0, Misses: 0
341-> Hits: 3, Late: 0, Early: 0, Misses: 0
344-> Hits: 2, Late: 2, Early: 0, Misses: 0
347-> Hits: 4, Late: 2, Early: 0, Misses: 0
34a-> Hits: 4, Late: 0, Early: 0, Misses: 0
34b-> Hits: 1, Late: 0, Early: 0, Misses: 0
34c-> Hits: 3, Late: 1, Early: 0, Misses: 0
34d-> Hits: 3, Late: 2, Early: 0, Misses: 0
34e-> Hits: 1, Late: 0, Early: 0, Misses: 0
34f-> Hits: 292894, Late: 0, Early: 0, Misses: 1008
350-> Hits: 360, Late: 3, Early: 0, Misses: 0
351-> Hits: 1, Late: 0, Early: 0, Misses: 0
352-> Hits: 0, Late: 1, Early: 0, Misses: 0
353-> Hits: 3, Late: 0, Early: 0, Misses: 0
355-> Hits: 0, Late: 1, Early: 0, Misses: 0
356-> Hits: 34358, Late: 0, Early: 0, Misses: 56
357-> Hits: 344, Late: 0, Early: 0, Misses: 0
358-> Hits: 3, Late: 1, Early: 0, Misses: 0
359-> Hits: 5, Late: 1, Early: 0, Misses: 0
35a-> Hits: 344, Late: 0, Early: 0, Misses: 0
35c-> Hits: 293401, Late: 47, Early: 0, Misses: 111
35d-> Hits: 58, Late: 0, Early: 0, Misses: 286
360-> Hits: 15, Late: 0, Early: 0, Misses: 0
361-> Hits: 1028, Late: 0, Early: 0, Misses: 0
362-> Hits: 4, Late: 0, Early: 0, Misses: 0
363-> Hits: 9, Late: 0, Early: 0, Misses: 0
364-> Hits: 4, Late: 0, Early: 0, Misses: 0
366-> Hits: 4, Late: 1, Early: 0, Misses: 0
367-> Hits: 1, Late: 0, Early: 0, Misses: 0
368-> Hits: 6, Late: 0, Early: 0, Misses: 0
36a-> Hits: 4, Late: 0, Early: 0, Misses: 0
36c-> Hits: 9, Late: 0, Early: 0, Misses: 0
36d-> Hits: 0, Late: 1, Early: 0, Misses: 0
36e-> Hits: 0, Late: 1, Early: 0, Misses: 0
36f-> Hits: 1, Late: 0, Early: 0, Misses: 0
370-> Hits: 3, Late: 0, Early: 0, Misses: 0
372-> Hits: 44418, Late: 0, Early: 0, Misses: 68
374-> Hits: 2, Late: 0, Early: 0, Misses: 0
375-> Hits: 1027, Late: 0, Early: 0, Misses: 0
376-> Hits: 4, Late: 0, Early: 0, Misses: 0
377-> Hits: 2, Late: 0, Early: 0, Misses: 0
379-> Hits: 2, Late: 1, Early: 0, Misses: 0
37a-> Hits: 10, Late: 1, Early: 0, Misses: 0
37b-> Hits: 3, Late: 0, Early: 0, Misses: 0
37d-> Hits: 3, Late: 1, Early: 0, Misses: 0
37f-> Hits: 2, Late: 2, Early: 0, Misses: 0
380-> Hits: 2, Late: 0, Early: 0, Misses: 0
382-> Hits: 1, Late: 0, Early: 0, Misses: 0
383-> Hits: 0, Late: 2, Early: 0, Misses: 0
385-> Hits: 2, Late: 0, Early: 0, Misses: 0
387-> Hits: 38171, Late: 1, Early: 0, Misses: 110
388-> Hits: 1, Late: 0, Early: 0, Misses: 0
389-> Hits: 4, Late: 0, Early: 0, Misses: 0
38a-> Hits: 0, Late: 1, Early: 0, Misses: 0
38b-> Hits: 2, Late: 0, Early: 0, Misses: 0
38d-> Hits: 293371, Late: 60, Early: 0, Misses: 122
38e-> Hits: 1, Late: 0, Early: 0, Misses: 0
391-> Hits: 5, Late: 0, Early: 0, Misses: 0
392-> Hits: 1, Late: 0, Early: 0, Misses: 0
393-> Hits: 2, Late: 0, Early: 0, Misses: 0
394-> Hits: 5, Late: 0, Early: 0, Misses: 0
395-> Hits: 1, Late: 0, Early: 0, Misses: 0
396-> Hits: 2, Late: 1, Early: 0, Misses: 0
398-> Hits: 1, Late: 0, Early: 0, Misses: 0
399-> Hits: 226521, Late: 0, Early: 0, Misses: 17
39a-> Hits: 1, Late: 1, Early: 0, Misses: 0
39b-> Hits: 1, Late: 0, Early: 0, Misses: 0
39c-> Hits: 1, Late: 0, Early: 0, Misses: 0
39d-> Hits: 1, Late: 0, Early: 0, Misses: 0
3a0-> Hits: 1, Late: 2, Early: 0, Misses: 0
3a2-> Hits: 1, Late: 0, Early: 0, Misses: 0
3a3-> Hits: 290456, Late: 12, Early: 0, Misses: 30
3a7-> Hits: 3, Late: 0, Early: 0, Misses: 0
3aa-> Hits: 3, Late: 0, Early: 0, Misses: 0
3ab-> Hits: 1, Late: 0, Early: 0, Misses: 0
3ac-> Hits: 18885, Late: 0, Early: 0, Misses: 0
3af-> Hits: 1, Late: 0, Early: 0, Misses: 0
3b0-> Hits: 3, Late: 0, Early: 0, Misses: 0
3b1-> Hits: 156795, Late: 0, Early: 0, Misses: 733
3b2-> Hits: 2, Late: 0, Early: 0, Misses: 0
3b3-> Hits: 1, Late: 0, Early: 0, Misses: 0
3b5-> Hits: 1, Late: 0, Early: 0, Misses: 0
3b7-> Hits: 1, Late: 0, Early: 0, Misses: 0
3b9-> Hits: 3, Late: 0, Early: 0, Misses: 0
3c0-> Hits: 11, Late: 0, Early: 0, Misses: 1
3c6-> Hits: 35431, Late: 1, Early: 0, Misses: 44
3c8-> Hits: 1, Late: 0, Early: 0, Misses: 0
3ca-> Hits: 5, Late: 0, Early: 0, Misses: 0
3cb-> Hits: 1, Late: 0, Early: 0, Misses: 0
3cd-> Hits: 6, Late: 0, Early: 0, Misses: 0
3ce-> Hits: 2, Late: 0, Early: 0, Misses: 0
3cf-> Hits: 1, Late: 1, Early: 0, Misses: 0
3d0-> Hits: 4, Late: 0, Early: 0, Misses: 0
3d5-> Hits: 1, Late: 0, Early: 0, Misses: 0
3d6-> Hits: 2, Late: 0, Early: 0, Misses: 0
3db-> Hits: 39425, Late: 0, Early: 0, Misses: 68
3dc-> Hits: 1, Late: 0, Early: 0, Misses: 0
3dd-> Hits: 4, Late: 0, Early: 0, Misses: 0
3e0-> Hits: 65544, Late: 1, Early: 0, Misses: 0
3e1-> Hits: 293337, Late: 77, Early: 0, Misses: 140
3e4-> Hits: 2, Late: 0, Early: 0, Misses: 0
3e5-> Hits: 2, Late: 0, Early: 0, Misses: 0
3e6-> Hits: 2, Late: 0, Early: 0, Misses: 0
3e8-> Hits: 3, Late: 0, Early: 0, Misses: 0
3ea-> Hits: 2, Late: 0, Early: 0, Misses: 0
3eb-> Hits: 1, Late: 0, Early: 0, Misses: 0
3ec-> Hits: 2, Late: 0, Early: 0, Misses: 0
3ed-> Hits: 1, Late: 0, Early: 0, Misses: 0
3ee-> Hits: 2, Late: 0, Early: 0, Misses: 0
3ef-> Hits: 8, Late: 0, Early: 0, Misses: 0
3f0-> Hits: 9, Late: 4, Early: 0, Misses: 0
3f5-> Hits: 1, Late: 0, Early: 0, Misses: 0
3f7-> Hits: 84602, Late: 0, Early: 0, Misses: 132
3fe-> Hits: 2, Late: 0, Early: 0, Misses: 0
3ff-> Hits: 1, Late: 0, Early: 0, Misses: 0
400-> Hits: 5, Late: 0, Early: 0, Misses: 0
401-> Hits: 4, Late: 0, Early: 0, Misses: 0
402-> Hits: 293418, Late: 11, Early: 0, Misses: 47
403-> Hits: 1, Late: 0, Early: 0, Misses: 0
404-> Hits: 4, Late: 0, Early: 0, Misses: 0
405-> Hits: 1, Late: 1, Early: 0, Misses: 0
406-> Hits: 4, Late: 0, Early: 0, Misses: 0
408-> Hits: 5, Late: 0, Early: 0, Misses: 0
40a-> Hits: 4, Late: 0, Early: 0, Misses: 0
40b-> Hits: 2, Late: 1, Early: 0, Misses: 1
40c-> Hits: 20248, Late: 0, Early: 0, Misses: 0
40d-> Hits: 1, Late: 0, Early: 0, Misses: 0
40e-> Hits: 2, Late: 0, Early: 0, Misses: 0
410-> Hits: 6, Late: 0, Early: 0, Misses: 0
413-> Hits: 1, Late: 0, Early: 0, Misses: 0
416-> Hits: 293529, Late: 16, Early: 0, Misses: 9
419-> Hits: 3, Late: 0, Early: 0, Misses: 0
41a-> Hits: 2, Late: 0, Early: 0, Misses: 0
41c-> Hits: 2, Late: 0, Early: 0, Misses: 0
41e-> Hits: 154105, Late: 0, Early: 0, Misses: 356
420-> Hits: 9, Late: 0, Early: 0, Misses: 0
422-> Hits: 2, Late: 0, Early: 0, Misses: 0
424-> Hits: 9, Late: 0, Early: 0, Misses: 0
426-> Hits: 2, Late: 0, Early: 0, Misses: 0
427-> Hits: 2, Late: 0, Early: 0, Misses: 0
428-> Hits: 5, Late: 2, Early: 0, Misses: 0
42a-> Hits: 2, Late: 0, Early: 0, Misses: 0
42b-> Hits: 3, Late: 0, Early: 0, Misses: 0
42c-> Hits: 2, Late: 0, Early: 0, Misses: 0
42d-> Hits: 1, Late: 0, Early: 0, Misses: 0
42e-> Hits: 293410, Late: 59, Early: 0, Misses: 86
437-> Hits: 0, Late: 1, Early: 0, Misses: 0
438-> Hits: 6, Late: 0, Early: 0, Misses: 0
43a-> Hits: 83602, Late: 0, Early: 0, Misses: 221
43b-> Hits: 3, Late: 1, Early: 0, Misses: 0
43f-> Hits: 1, Late: 0, Early: 0, Misses: 0
440-> Hits: 9, Late: 4, Early: 0, Misses: 0
441-> Hits: 2, Late: 0, Early: 0, Misses: 0
443-> Hits: 7, Late: 1, Early: 0, Misses: 0
444-> Hits: 1, Late: 0, Early: 0, Misses: 0
447-> Hits: 4, Late: 0, Early: 0, Misses: 0
448-> Hits: 6, Late: 0, Early: 0, Misses: 0
44a-> Hits: 3, Late: 0, Early: 0, Misses: 0
44b-> Hits: 3, Late: 0, Early: 0, Misses: 0
44c-> Hits: 1, Late: 1, Early: 0, Misses: 0
44f-> Hits: 59892, Late: 0, Early: 0, Misses: 58
450-> Hits: 8, Late: 0, Early: 0, Misses: 0
451-> Hits: 2, Late: 0, Early: 0, Misses: 0
453-> Hits: 4, Late: 0, Early: 0, Misses: 0
454-> Hits: 59, Late: 57, Early: 0, Misses: 0
458-> Hits: 2, Late: 0, Early: 0, Misses: 0
459-> Hits: 10, Late: 1, Early: 0, Misses: 0
45a-> Hits: 11, Late: 0, Early: 0, Misses: 0
45b-> Hits: 68, Late: 0, Early: 0, Misses: 0
45d-> Hits: 65, Late: 0, Early: 0, Misses: 0
45e-> Hits: 2, Late: 0, Early: 0, Misses: 0
45f-> Hits: 3, Late: 0, Early: 0, Misses: 0
460-> Hits: 4, Late: 0, Early: 0, Misses: 0
461-> Hits: 1, Late: 0, Early: 0, Misses: 0
463-> Hits: 3, Late: 0, Early: 0, Misses: 0
464-> Hits: 38777, Late: 0, Early: 0, Misses: 27
466-> Hits: 6, Late: 0, Early: 0, Misses: 0
468-> Hits: 7, Late: 0, Early: 0, Misses: 0
46a-> Hits: 293407, Late: 71, Early: 0, Misses: 98
46d-> Hits: 4, Late: 0, Early: 0, Misses: 0
470-> Hits: 66048, Late: 1, Early: 0, Misses: 0
471-> Hits: 41, Late: 1, Early: 0, Misses: 0
472-> Hits: 1, Late: 0, Early: 0, Misses: 0
473-> Hits: 3, Late: 0, Early: 0, Misses: 0
475-> Hits: 2, Late: 0, Early: 0, Misses: 0
476-> Hits: 125678, Late: 4, Early: 0, Misses: 1
477-> Hits: 3, Late: 0, Early: 0, Misses: 0
478-> Hits: 540, Late: 0, Early: 0, Misses: 0
47a-> Hits: 2, Late: 0, Early: 0, Misses: 0
47b-> Hits: 1, Late: 0, Early: 0, Misses: 0
47c-> Hits: 3, Late: 0, Early: 0, Misses: 0
47d-> Hits: 560, Late: 0, Early: 0, Misses: 0
47e-> Hits: 3, Late: 0, Early: 0, Misses: 0
47f-> Hits: 10, Late: 0, Early: 0, Misses: 0
480-> Hits: 6, Late: 3, Early: 0, Misses: 0
481-> Hits: 1, Late: 0, Early: 0, Misses: 0
482-> Hits: 5, Late: 0, Early: 0, Misses: 0
483-> Hits: 294049, Late: 2, Early: 0, Misses: 7
484-> Hits: 2, Late: 0, Early: 0, Misses: 0
486-> Hits: 119, Late: 0, Early: 0, Misses: 0
487-> Hits: 6, Late: 0, Early: 0, Misses: 0
488-> Hits: 19, Late: 0, Early: 0, Misses: 0
489-> Hits: 9, Late: 0, Early: 0, Misses: 0
48a-> Hits: 1, Late: 0, Early: 0, Misses: 0
48b-> Hits: 5, Late: 0, Early: 0, Misses: 0
48d-> Hits: 9, Late: 2, Early: 0, Misses: 0
48e-> Hits: 2, Late: 0, Early: 0, Misses: 0
48f-> Hits: 5, Late: 0, Early: 0, Misses: 0
490-> Hits: 20132, Late: 3, Early: 0, Misses: 0
491-> Hits: 5, Late: 0, Early: 0, Misses: 0
493-> Hits: 114, Late: 1, Early: 0, Misses: 0
494-> Hits: 117, Late: 0, Early: 0, Misses: 0
495-> Hits: 115, Late: 0, Early: 0, Misses: 0
496-> Hits: 4, Late: 0, Early: 0, Misses: 0
497-> Hits: 118, Late: 0, Early: 0, Misses: 0
498-> Hits: 140844, Late: 0, Early: 0, Misses: 3
499-> Hits: 115, Late: 0, Early: 0, Misses: 0
49b-> Hits: 118, Late: 0, Early: 0, Misses: 0
49d-> Hits: 308, Late: 0, Early: 0, Misses: 0
4a0-> Hits: 2, Late: 1, Early: 0, Misses: 0
4a2-> Hits: 3, Late: 0, Early: 0, Misses: 0
4a3-> Hits: 171, Late: 0, Early: 0, Misses: 0
4a5-> Hits: 58, Late: 0, Early: 0, Misses: 0
4a6-> Hits: 2, Late: 0, Early: 0, Misses: 0
4ab-> Hits: 5, Late: 0, Early: 0, Misses: 0
4ac-> Hits: 3, Late: 1, Early: 0, Misses: 0
4ad-> Hits: 47903, Late: 0, Early: 0, Misses: 8
4ae-> Hits: 6, Late: 0, Early: 0, Misses: 0
4b0-> Hits: 66, Late: 0, Early: 0, Misses: 0
4b1-> Hits: 3, Late: 0, Early: 0, Misses: 0
4b2-> Hits: 8, Late: 0, Early: 0, Misses: 0
4b3-> Hits: 293392, Late: 74, Early: 0, Misses: 90
4b4-> Hits: 4, Late: 1, Early: 0, Misses: 0
4b7-> Hits: 16, Late: 0, Early: 0, Misses: 0
4b8-> Hits: 58, Late: 0, Early: 0, Misses: 0
4bb-> Hits: 20, Late: 0, Early: 0, Misses: 0
4bc-> Hits: 1, Late: 0, Early: 0, Misses: 0
4be-> Hits: 1, Late: 1, Early: 0, Misses: 0
4c0-> Hits: 2, Late: 1, Early: 0, Misses: 0
4c1-> Hits: 1, Late: 0, Early: 0, Misses: 0
4c2-> Hits: 2, Late: 0, Early: 0, Misses: 0
4c4-> Hits: 2, Late: 0, Early: 0, Misses: 0
4c5-> Hits: 18, Late: 0, Early: 0, Misses: 0
4c6-> Hits: 8, Late: 0, Early: 0, Misses: 0
4c7-> Hits: 0, Late: 1, Early: 0, Misses: 0
4c8-> Hits: 2, Late: 0, Early: 0, Misses: 0
4c9-> Hits: 79009, Late: 0, Early: 0, Misses: 10
4cb-> Hits: 3, Late: 0, Early: 0, Misses: 0
4cc-> Hits: 1, Late: 0, Early: 0, Misses: 0
4cd-> Hits: 4, Late: 0, Early: 0, Misses: 0
4ce-> Hits: 4, Late: 2, Early: 0, Misses: 0
4cf-> Hits: 4, Late: 1, Early: 0, Misses: 0
4d0-> Hits: 4, Late: 0, Early: 0, Misses: 0
4d1-> Hits: 27, Late: 0, Early: 0, Misses: 0
4d2-> Hits: 4, Late: 0, Early: 0, Misses: 0
4d3-> Hits: 1, Late: 0, Early: 0, Misses: 0
4d4-> Hits: 6, Late: 0, Early: 0, Misses: 0
4d5-> Hits: 1, Late: 1, Early: 0, Misses: 0
4d6-> Hits: 6, Late: 56, Early: 0, Misses: 0
4d7-> Hits: 4, Late: 0, Early: 0, Misses: 0
4da-> Hits: 1, Late: 0, Early: 0, Misses: 0
4dc-> Hits: 3, Late: 2, Early: 0, Misses: 0
4dd-> Hits: 5, Late: 0, Early: 0, Misses: 0
4de-> Hits: 72598, Late: 56, Early: 0, Misses: 4
4df-> Hits: 7, Late: 0, Early: 0, Misses: 0
4e0-> Hits: 34, Late: 5, Early: 0, Misses: 0
4e2-> Hits: 8, Late: 0, Early: 0, Misses: 0
4e4-> Hits: 2, Late: 0, Early: 0, Misses: 0
4e5-> Hits: 6, Late: 0, Early: 0, Misses: 0
4e6-> Hits: 1, Late: 0, Early: 0, Misses: 0
4e7-> Hits: 3, Late: 0, Early: 0, Misses: 0
4e8-> Hits: 6, Late: 0, Early: 0, Misses: 0
4e9-> Hits: 3, Late: 0, Early: 0, Misses: 0
4ea-> Hits: 2, Late: 0, Early: 0, Misses: 0
4eb-> Hits: 23, Late: 0, Early: 0, Misses: 0
4ec-> Hits: 1, Late: 0, Early: 0, Misses: 0
4ed-> Hits: 293539, Late: 5, Early: 0, Misses: 14
4ef-> Hits: 2, Late: 0, Early: 0, Misses: 0
4f1-> Hits: 4, Late: 0, Early: 0, Misses: 0
4f2-> Hits: 34, Late: 0, Early: 0, Misses: 0
4f3-> Hits: 5, Late: 1, Early: 0, Misses: 0
4f6-> Hits: 1, Late: 0, Early: 0, Misses: 0
4f7-> Hits: 4, Late: 0, Early: 0, Misses: 0
4f8-> Hits: 31, Late: 0, Early: 0, Misses: 32
4f9-> Hits: 60, Late: 0, Early: 0, Misses: 0
4fa-> Hits: 18765, Late: 0, Early: 0, Misses: 0
4fb-> Hits: 57, Late: 0, Early: 0, Misses: 0
4fc-> Hits: 1, Late: 0, Early: 0, Misses: 0
4fd-> Hits: 117, Late: 0, Early: 0, Misses: 0
4fe-> Hits: 2, Late: 0, Early: 0, Misses: 0
4ff-> Hits: 70, Late: 0, Early: 0, Misses: 0
500-> Hits: 3, Late: 1, Early: 0, Misses: 0
501-> Hits: 1, Late: 0, Early: 0, Misses: 0
502-> Hits: 2, Late: 0, Early: 0, Misses: 0
503-> Hits: 2, Late: 0, Early: 0, Misses: 0
504-> Hits: 26, Late: 0, Early: 0, Misses: 32
505-> Hits: 57, Late: 0, Early: 0, Misses: 0
506-> Hits: 5, Late: 0, Early: 0, Misses: 0
507-> Hits: 293436, Late: 13, Early: 0, Misses: 106
508-> Hits: 1, Late: 0, Early: 0, Misses: 0
509-> Hits: 1, Late: 0, Early: 0, Misses: 0
50b-> Hits: 0, Late: 1, Early: 0, Misses: 0
50c-> Hits: 1, Late: 1, Early: 0, Misses: 0
50d-> Hits: 3, Late: 0, Early: 0, Misses: 0
510-> Hits: 2, Late: 0, Early: 0, Misses: 0
511-> Hits: 2, Late: 0, Early: 0, Misses: 0
514-> Hits: 0, Late: 1, Early: 0, Misses: 0
515-> Hits: 1, Late: 0, Early: 0, Misses: 0
516-> Hits: 292145, Late: 1, Early: 0, Misses: 1410
518-> Hits: 1, Late: 0, Early: 0, Misses: 0
519-> Hits: 2, Late: 0, Early: 0, Misses: 0
51a-> Hits: 1, Late: 0, Early: 0, Misses: 0
51b-> Hits: 3, Late: 0, Early: 0, Misses: 0
51c-> Hits: 2, Late: 0, Early: 0, Misses: 0
51d-> Hits: 58, Late: 0, Early: 0, Misses: 0
51f-> Hits: 2, Late: 0, Early: 0, Misses: 0
520-> Hits: 65537, Late: 34, Early: 0, Misses: 160
521-> Hits: 58, Late: 0, Early: 0, Misses: 0
522-> Hits: 1, Late: 0, Early: 0, Misses: 0
523-> Hits: 1, Late: 0, Early: 0, Misses: 0
524-> Hits: 9, Late: 0, Early: 0, Misses: 0
527-> Hits: 9, Late: 0, Early: 0, Misses: 0
528-> Hits: 65535, Late: 1, Early: 0, Misses: 0
529-> Hits: 58, Late: 0, Early: 0, Misses: 0
52a-> Hits: 1, Late: 0, Early: 0, Misses: 0
52b-> Hits: 2, Late: 0, Early: 0, Misses: 0
52e-> Hits: 2, Late: 0, Early: 0, Misses: 0
530-> Hits: 8, Late: 1, Early: 0, Misses: 0
532-> Hits: 1, Late: 0, Early: 0, Misses: 0
534-> Hits: 1, Late: 0, Early: 0, Misses: 0
535-> Hits: 1, Late: 0, Early: 0, Misses: 0
536-> Hits: 1, Late: 0, Early: 0, Misses: 0
539-> Hits: 1, Late: 0, Early: 0, Misses: 0
53a-> Hits: 9, Late: 0, Early: 0, Misses: 0
53c-> Hits: 65593, Late: 1, Early: 0, Misses: 0
53d-> Hits: 1, Late: 0, Early: 0, Misses: 0
53e-> Hits: 0, Late: 1, Early: 0, Misses: 0
53f-> Hits: 4, Late: 0, Early: 0, Misses: 0
540-> Hits: 0, Late: 1, Early: 0, Misses: 0
541-> Hits: 2, Late: 0, Early: 0, Misses: 0
544-> Hits: 1, Late: 0, Early: 0, Misses: 0
545-> Hits: 65550, Late: 0, Early: 0, Misses: 0
547-> Hits: 0, Late: 1, Early: 0, Misses: 0
548-> Hits: 2, Late: 0, Early: 0, Misses: 0
549-> Hits: 1, Late: 0, Early: 0, Misses: 0
54a-> Hits: 1, Late: 0, Early: 0, Misses: 0
54b-> Hits: 1, Late: 0, Early: 0, Misses: 0
54c-> Hits: 1, Late: 0, Early: 0, Misses: 0
54d-> Hits: 2, Late: 56, Early: 0, Misses: 0
54e-> Hits: 65536, Late: 0, Early: 0, Misses: 0
550-> Hits: 0, Late: 2, Early: 0, Misses: 0
553-> Hits: 8, Late: 1, Early: 0, Misses: 0
554-> Hits: 2, Late: 0, Early: 0, Misses: 0
555-> Hits: 9, Late: 0, Early: 0, Misses: 0
556-> Hits: 9, Late: 0, Early: 0, Misses: 0
557-> Hits: 65538, Late: 1, Early: 0, Misses: 0
558-> Hits: 3, Late: 0, Early: 0, Misses: 0
559-> Hits: 2, Late: 0, Early: 0, Misses: 0
55a-> Hits: 0, Late: 1, Early: 0, Misses: 0
55b-> Hits: 2, Late: 0, Early: 0, Misses: 0
55c-> Hits: 3, Late: 3, Early: 0, Misses: 0
55d-> Hits: 3, Late: 1, Early: 0, Misses: 0
55e-> Hits: 6, Late: 0, Early: 0, Misses: 0
55f-> Hits: 3, Late: 0, Early: 0, Misses: 0
560-> Hits: 65546, Late: 2, Early: 0, Misses: 0
561-> Hits: 59, Late: 0, Early: 0, Misses: 0
562-> Hits: 5, Late: 0, Early: 0, Misses: 0
563-> Hits: 4, Late: 3, Early: 0, Misses: 0
564-> Hits: 172, Late: 1, Early: 0, Misses: 0
565-> Hits: 5, Late: 0, Early: 0, Misses: 0
566-> Hits: 2, Late: 0, Early: 0, Misses: 0
567-> Hits: 3, Late: 0, Early: 0, Misses: 0
568-> Hits: 10, Late: 0, Early: 0, Misses: 0
569-> Hits: 65535, Late: 1, Early: 0, Misses: 0
56a-> Hits: 4, Late: 0, Early: 0, Misses: 0
56d-> Hits: 149, Late: 0, Early: 0, Misses: 0
56e-> Hits: 3, Late: 0, Early: 0, Misses: 0
56f-> Hits: 1, Late: 0, Early: 0, Misses: 0
570-> Hits: 13, Late: 0, Early: 0, Misses: 0
572-> Hits: 65538, Late: 1, Early: 0, Misses: 0
574-> Hits: 4, Late: 1, Early: 0, Misses: 0
576-> Hits: 3, Late: 0, Early: 0, Misses: 0
577-> Hits: 66, Late: 56, Early: 0, Misses: 0
578-> Hits: 13, Late: 0, Early: 0, Misses: 0
579-> Hits: 4, Late: 0, Early: 0, Misses: 0
57b-> Hits: 2, Late: 0, Early: 0, Misses: 0
57c-> Hits: 1, Late: 3, Early: 0, Misses: 0
57d-> Hits: 5, Late: 0, Early: 0, Misses: 0
580-> Hits: 6, Late: 2, Early: 0, Misses: 0
581-> Hits: 3, Late: 3, Early: 0, Misses: 0
582-> Hits: 2, Late: 0, Early: 0, Misses: 0
583-> Hits: 30, Late: 0, Early: 0, Misses: 0
584-> Hits: 65540, Late: 2, Early: 0, Misses: 0
586-> Hits: 1, Late: 2, Early: 0, Misses: 0
587-> Hits: 3, Late: 0, Early: 0, Misses: 0
588-> Hits: 6, Late: 1, Early: 0, Misses: 0
58b-> Hits: 3, Late: 0, Early: 0, Misses: 0
58c-> Hits: 4, Late: 2, Early: 0, Misses: 0
58e-> Hits: 9, Late: 0, Early: 0, Misses: 0
590-> Hits: 17, Late: 5, Early: 0, Misses: 0
591-> Hits: 65535, Late: 2, Early: 0, Misses: 0
594-> Hits: 1, Late: 0, Early: 0, Misses: 0
595-> Hits: 3, Late: 0, Early: 0, Misses: 0
598-> Hits: 15, Late: 0, Early: 0, Misses: 0
599-> Hits: 8, Late: 2, Early: 0, Misses: 0
59a-> Hits: 2, Late: 0, Early: 0, Misses: 0
59b-> Hits: 10, Late: 0, Early: 0, Misses: 0
59d-> Hits: 11, Late: 1, Early: 0, Misses: 0
59e-> Hits: 3, Late: 1, Early: 0, Misses: 0
59f-> Hits: 4, Late: 0, Early: 0, Misses: 0
5a0-> Hits: 2, Late: 2, Early: 0, Misses: 0
5a2-> Hits: 7, Late: 0, Early: 0, Misses: 0
5a3-> Hits: 2, Late: 0, Early: 0, Misses: 0
5a5-> Hits: 65536, Late: 1, Early: 0, Misses: 0
5a6-> Hits: 2, Late: 0, Early: 0, Misses: 0
5a7-> Hits: 1, Late: 0, Early: 0, Misses: 0
5a9-> Hits: 3, Late: 0, Early: 0, Misses: 0
5aa-> Hits: 13, Late: 6, Early: 0, Misses: 0
5ac-> Hits: 1, Late: 0, Early: 0, Misses: 0
5ae-> Hits: 3, Late: 0, Early: 0, Misses: 0
5af-> Hits: 7, Late: 0, Early: 0, Misses: 0
5b0-> Hits: 2, Late: 1, Early: 0, Misses: 0
5b1-> Hits: 1, Late: 1, Early: 0, Misses: 0
5b2-> Hits: 2, Late: 0, Early: 0, Misses: 0
5b4-> Hits: 0, Late: 2, Early: 0, Misses: 0
5b5-> Hits: 1, Late: 0, Early: 0, Misses: 0
5b6-> Hits: 5, Late: 0, Early: 0, Misses: 0
5b8-> Hits: 4, Late: 0, Early: 0, Misses: 0
5bb-> Hits: 2, Late: 0, Early: 0, Misses: 0
5bc-> Hits: 2, Late: 0, Early: 0, Misses: 0
5bd-> Hits: 1, Late: 0, Early: 0, Misses: 0
5be-> Hits: 6, Late: 58, Early: 0, Misses: 0
5bf-> Hits: 9, Late: 0, Early: 0, Misses: 0
5c0-> Hits: 2563, Late: 0, Early: 0, Misses: 0
5c1-> Hits: 9027, Late: 3, Early: 0, Misses: 148
5c2-> Hits: 5, Late: 0, Early: 0, Misses: 0
5c3-> Hits: 9, Late: 0, Early: 0, Misses: 0
5c4-> Hits: 8, Late: 0, Early: 0, Misses: 0
5c5-> Hits: 1, Late: 0, Early: 0, Misses: 0
5c6-> Hits: 7, Late: 0, Early: 0, Misses: 0
5c7-> Hits: 6, Late: 0, Early: 0, Misses: 0
5c8-> Hits: 7, Late: 0, Early: 0, Misses: 0
5c9-> Hits: 2, Late: 0, Early: 0, Misses: 0
5ca-> Hits: 67, Late: 0, Early: 0, Misses: 0
5cb-> Hits: 2, Late: 0, Early: 0, Misses: 0
5cc-> Hits: 51, Late: 0, Early: 0, Misses: 0
5ce-> Hits: 0, Late: 1, Early: 0, Misses: 0
5d0-> Hits: 64, Late: 62, Early: 0, Misses: 0
5d1-> Hits: 65548, Late: 1, Early: 0, Misses: 0
5d2-> Hits: 5, Late: 0, Early: 0, Misses: 0
5d5-> Hits: 3, Late: 0, Early: 0, Misses: 0
5d6-> Hits: 3, Late: 2, Early: 0, Misses: 0
5d7-> Hits: 3, Late: 0, Early: 0, Misses: 0
5d8-> Hits: 3, Late: 4, Early: 0, Misses: 0
5db-> Hits: 59898, Late: 2, Early: 0, Misses: 0
5dc-> Hits: 49, Late: 2, Early: 0, Misses: 0
5dd-> Hits: 8943, Late: 58, Early: 0, Misses: 176
5de-> Hits: 4, Late: 0, Early: 0, Misses: 0
5df-> Hits: 8, Late: 5, Early: 0, Misses: 0
5e0-> Hits: 3, Late: 2, Early: 0, Misses: 0
5e1-> Hits: 5, Late: 0, Early: 0, Misses: 0
5e2-> Hits: 5, Late: 0, Early: 0, Misses: 0
5e3-> Hits: 6, Late: 0, Early: 0, Misses: 0
5e4-> Hits: 2, Late: 0, Early: 0, Misses: 0
5e5-> Hits: 3, Late: 0, Early: 0, Misses: 0
5e6-> Hits: 4, Late: 3, Early: 0, Misses: 0
5e7-> Hits: 5, Late: 0, Early: 0, Misses: 0
5e9-> Hits: 2, Late: 0, Early: 0, Misses: 0
5ea-> Hits: 60, Late: 0, Early: 0, Misses: 0
5eb-> Hits: 3, Late: 0, Early: 0, Misses: 0
5ed-> Hits: 2, Late: 0, Early: 0, Misses: 0
5ee-> Hits: 3, Late: 0, Early: 0, Misses: 0
5f0-> Hits: 3, Late: 1, Early: 0, Misses: 0
5f1-> Hits: 2, Late: 0, Early: 0, Misses: 0
5f2-> Hits: 8, Late: 0, Early: 0, Misses: 0
5f3-> Hits: 7, Late: 0, Early: 0, Misses: 0
5f4-> Hits: 74, Late: 0, Early: 0, Misses: 0
5f5-> Hits: 9171, Late: 1, Early: 0, Misses: 4
5f6-> Hits: 1, Late: 0, Early: 0, Misses: 0
5f7-> Hits: 6, Late: 0, Early: 0, Misses: 0
5f8-> Hits: 5, Late: 0, Early: 0, Misses: 0
5f9-> Hits: 7, Late: 0, Early: 0, Misses: 0
5fa-> Hits: 1, Late: 0, Early: 0, Misses: 0
5fb-> Hits: 6, Late: 0, Early: 0, Misses: 0
5fc-> Hits: 1, Late: 0, Early: 0, Misses: 0
5fd-> Hits: 1, Late: 0, Early: 0, Misses: 0
5fe-> Hits: 12, Late: 0, Early: 0, Misses: 0
5ff-> Hits: 3, Late: 0, Early: 0, Misses: 1
600-> Hits: 1, Late: 2, Early: 0, Misses: 0
602-> Hits: 9, Late: 0, Early: 0, Misses: 0
604-> Hits: 5, Late: 0, Early: 0, Misses: 0
605-> Hits: 17, Late: 1, Early: 0, Misses: 0
606-> Hits: 21, Late: 0, Early: 0, Misses: 0
607-> Hits: 16, Late: 0, Early: 0, Misses: 0
608-> Hits: 5, Late: 2, Early: 0, Misses: 0
609-> Hits: 16, Late: 0, Early: 0, Misses: 0
60a-> Hits: 4, Late: 0, Early: 0, Misses: 0
60b-> Hits: 19, Late: 0, Early: 0, Misses: 0
60c-> Hits: 3, Late: 0, Early: 0, Misses: 0
60e-> Hits: 5, Late: 0, Early: 0, Misses: 0
610-> Hits: 2, Late: 1, Early: 0, Misses: 0
611-> Hits: 1, Late: 0, Early: 0, Misses: 0
614-> Hits: 2, Late: 0, Early: 0, Misses: 0
616-> Hits: 3, Late: 0, Early: 0, Misses: 0
619-> Hits: 2, Late: 0, Early: 0, Misses: 0
61a-> Hits: 4, Late: 0, Early: 0, Misses: 0
61c-> Hits: 3, Late: 0, Early: 0, Misses: 0
61d-> Hits: 32, Late: 0, Early: 0, Misses: 0
61e-> Hits: 1, Late: 0, Early: 0, Misses: 0
620-> Hits: 8, Late: 1, Early: 0, Misses: 0
621-> Hits: 3, Late: 1, Early: 0, Misses: 0
623-> Hits: 3, Late: 0, Early: 0, Misses: 0
625-> Hits: 18, Late: 3, Early: 0, Misses: 0
626-> Hits: 1, Late: 0, Early: 0, Misses: 0
628-> Hits: 4, Late: 1, Early: 0, Misses: 0
62a-> Hits: 1, Late: 1, Early: 0, Misses: 0
62b-> Hits: 9, Late: 0, Early: 0, Misses: 0
62c-> Hits: 1, Late: 0, Early: 0, Misses: 0
62f-> Hits: 4, Late: 1, Early: 0, Misses: 0
630-> Hits: 3, Late: 0, Early: 0, Misses: 0
631-> Hits: 3, Late: 0, Early: 0, Misses: 0
634-> Hits: 2, Late: 0, Early: 0, Misses: 0
635-> Hits: 1, Late: 1, Early: 0, Misses: 0
636-> Hits: 1, Late: 1, Early: 0, Misses: 0
637-> Hits: 3, Late: 0, Early: 0, Misses: 0
638-> Hits: 3, Late: 0, Early: 0, Misses: 0
639-> Hits: 3, Late: 0, Early: 0, Misses: 0
63b-> Hits: 3, Late: 0, Early: 0, Misses: 0
63c-> Hits: 7, Late: 0, Early: 0, Misses: 0
63d-> Hits: 12, Late: 0, Early: 0, Misses: 0
63e-> Hits: 2, Late: 0, Early: 0, Misses: 0
63f-> Hits: 3, Late: 0, Early: 0, Misses: 0
640-> Hits: 2, Late: 0, Early: 0, Misses: 0
641-> Hits: 5, Late: 0, Early: 0, Misses: 0
642-> Hits: 2, Late: 0, Early: 0, Misses: 0
643-> Hits: 3, Late: 0, Early: 0, Misses: 0
644-> Hits: 2, Late: 0, Early: 0, Misses: 0
646-> Hits: 5, Late: 0, Early: 0, Misses: 0
647-> Hits: 4, Late: 0, Early: 0, Misses: 0
648-> Hits: 4, Late: 0, Early: 0, Misses: 0
64b-> Hits: 1, Late: 0, Early: 0, Misses: 0
64c-> Hits: 2, Late: 0, Early: 0, Misses: 0
64f-> Hits: 4, Late: 0, Early: 0, Misses: 0
653-> Hits: 3, Late: 0, Early: 0, Misses: 0
654-> Hits: 4, Late: 2, Early: 0, Misses: 0
655-> Hits: 1, Late: 0, Early: 0, Misses: 0
656-> Hits: 7, Late: 1, Early: 0, Misses: 0
657-> Hits: 1, Late: 0, Early: 0, Misses: 0
658-> Hits: 35, Late: 0, Early: 0, Misses: 0
659-> Hits: 9, Late: 0, Early: 0, Misses: 0
65a-> Hits: 2, Late: 0, Early: 0, Misses: 0
65b-> Hits: 2, Late: 0, Early: 0, Misses: 0
65c-> Hits: 3, Late: 0, Early: 0, Misses: 0
65d-> Hits: 60, Late: 0, Early: 0, Misses: 0
65e-> Hits: 7, Late: 0, Early: 0, Misses: 0
65f-> Hits: 1, Late: 0, Early: 0, Misses: 0
660-> Hits: 2, Late: 28, Early: 0, Misses: 126
662-> Hits: 9, Late: 0, Early: 0, Misses: 0
666-> Hits: 56, Late: 0, Early: 0, Misses: 0
667-> Hits: 61, Late: 0, Early: 0, Misses: 0
668-> Hits: 69, Late: 1, Early: 0, Misses: 0
66a-> Hits: 58, Late: 0, Early: 0, Misses: 0
66c-> Hits: 68, Late: 0, Early: 0, Misses: 0
66d-> Hits: 1, Late: 0, Early: 0, Misses: 0
66e-> Hits: 64, Late: 0, Early: 0, Misses: 0
66f-> Hits: 1, Late: 0, Early: 0, Misses: 0
670-> Hits: 51, Late: 0, Early: 0, Misses: 0
671-> Hits: 52, Late: 0, Early: 0, Misses: 0
672-> Hits: 45, Late: 0, Early: 0, Misses: 0
674-> Hits: 45, Late: 0, Early: 0, Misses: 0
678-> Hits: 1, Late: 0, Early: 0, Misses: 0
679-> Hits: 8, Late: 0, Early: 0, Misses: 0
67a-> Hits: 4, Late: 0, Early: 0, Misses: 0
67b-> Hits: 9, Late: 0, Early: 0, Misses: 0
67c-> Hits: 1, Late: 0, Early: 0, Misses: 0
67d-> Hits: 3, Late: 0, Early: 0, Misses: 0
67f-> Hits: 2, Late: 0, Early: 0, Misses: 0
680-> Hits: 13, Late: 58, Early: 0, Misses: 0
681-> Hits: 3, Late: 0, Early: 0, Misses: 0
683-> Hits: 145, Late: 1, Early: 0, Misses: 51
685-> Hits: 4, Late: 0, Early: 0, Misses: 0
686-> Hits: 10, Late: 0, Early: 0, Misses: 0
688-> Hits: 1, Late: 0, Early: 0, Misses: 0
689-> Hits: 9, Late: 0, Early: 0, Misses: 0
68a-> Hits: 33, Late: 0, Early: 0, Misses: 0
68c-> Hits: 2, Late: 0, Early: 0, Misses: 0
68d-> Hits: 7, Late: 0, Early: 0, Misses: 0
68e-> Hits: 2, Late: 0, Early: 0, Misses: 0
690-> Hits: 3, Late: 0, Early: 0, Misses: 0
693-> Hits: 1, Late: 0, Early: 0, Misses: 0
694-> Hits: 3, Late: 0, Early: 0, Misses: 0
695-> Hits: 2, Late: 0, Early: 0, Misses: 0
698-> Hits: 2, Late: 1, Early: 0, Misses: 0
69a-> Hits: 0, Late: 1, Early: 0, Misses: 0
69c-> Hits: 3, Late: 0, Early: 0, Misses: 0
69f-> Hits: 1, Late: 0, Early: 0, Misses: 0
6a0-> Hits: 3, Late: 0, Early: 0, Misses: 0
6a3-> Hits: 6, Late: 0, Early: 0, Misses: 0
6a4-> Hits: 9, Late: 1, Early: 0, Misses: 0
6a5-> Hits: 2, Late: 0, Early: 0, Misses: 0
6a6-> Hits: 1, Late: 0, Early: 0, Misses: 0
6a7-> Hits: 8, Late: 0, Early: 0, Misses: 0
6ac-> Hits: 2, Late: 0, Early: 0, Misses: 0
6ad-> Hits: 5, Late: 0, Early: 0, Misses: 0
6ae-> Hits: 1, Late: 0, Early: 0, Misses: 0
6af-> Hits: 2, Late: 0, Early: 0, Misses: 0
6b0-> Hits: 1, Late: 0, Early: 0, Misses: 0
6b1-> Hits: 0, Late: 1, Early: 0, Misses: 0
6b2-> Hits: 1, Late: 1, Early: 0, Misses: 0
6b3-> Hits: 4, Late: 0, Early: 0, Misses: 0
6b4-> Hits: 14, Late: 1, Early: 0, Misses: 0
6b5-> Hits: 1, Late: 57, Early: 0, Misses: 0
6b6-> Hits: 2, Late: 0, Early: 0, Misses: 0
6b7-> Hits: 9, Late: 1, Early: 0, Misses: 0
6b9-> Hits: 1, Late: 0, Early: 0, Misses: 0
6ba-> Hits: 5, Late: 0, Early: 0, Misses: 0
6bb-> Hits: 2, Late: 0, Early: 0, Misses: 0
6bc-> Hits: 2, Late: 0, Early: 0, Misses: 0
6bd-> Hits: 1, Late: 0, Early: 0, Misses: 0
6be-> Hits: 1, Late: 0, Early: 0, Misses: 0
6bf-> Hits: 1, Late: 0, Early: 0, Misses: 0
6c0-> Hits: 3, Late: 2, Early: 0, Misses: 0
6c3-> Hits: 3, Late: 0, Early: 0, Misses: 0
6c4-> Hits: 9, Late: 0, Early: 0, Misses: 0
6c5-> Hits: 1, Late: 0, Early: 0, Misses: 0
6c7-> Hits: 2, Late: 0, Early: 0, Misses: 0
6c9-> Hits: 3, Late: 0, Early: 0, Misses: 0
6ca-> Hits: 1, Late: 1, Early: 0, Misses: 0
6cc-> Hits: 2, Late: 0, Early: 0, Misses: 0
6cd-> Hits: 1, Late: 0, Early: 0, Misses: 0
6ce-> Hits: 7, Late: 0, Early: 0, Misses: 0
6d0-> Hits: 3, Late: 2, Early: 0, Misses: 0
6d1-> Hits: 3, Late: 0, Early: 0, Misses: 0
6d2-> Hits: 1, Late: 0, Early: 0, Misses: 0
6d3-> Hits: 9, Late: 0, Early: 0, Misses: 0
6d4-> Hits: 12, Late: 0, Early: 0, Misses: 0
6d5-> Hits: 11, Late: 0, Early: 0, Misses: 0
6d6-> Hits: 3, Late: 0, Early: 0, Misses: 0
6d7-> Hits: 15, Late: 0, Early: 0, Misses: 0
6d9-> Hits: 12, Late: 0, Early: 0, Misses: 0
6da-> Hits: 2, Late: 0, Early: 0, Misses: 0
6db-> Hits: 11, Late: 0, Early: 0, Misses: 0
6dc-> Hits: 1, Late: 0, Early: 0, Misses: 0
6dd-> Hits: 10, Late: 0, Early: 0, Misses: 0
6de-> Hits: 2, Late: 0, Early: 0, Misses: 0
6df-> Hits: 5, Late: 0, Early: 0, Misses: 0
6e0-> Hits: 0, Late: 1, Early: 0, Misses: 0
6e1-> Hits: 1, Late: 0, Early: 0, Misses: 0
6e2-> Hits: 4, Late: 0, Early: 0, Misses: 0
6e3-> Hits: 1, Late: 0, Early: 0, Misses: 0
6e4-> Hits: 2, Late: 0, Early: 0, Misses: 0
6e5-> Hits: 1, Late: 0, Early: 0, Misses: 0
6e6-> Hits: 1, Late: 0, Early: 0, Misses: 0
6e7-> Hits: 2, Late: 2, Early: 0, Misses: 0
6e8-> Hits: 5, Late: 0, Early: 0, Misses: 0
6eb-> Hits: 1, Late: 3, Early: 0, Misses: 0
6ed-> Hits: 44, Late: 45, Early: 0, Misses: 0
6ee-> Hits: 3, Late: 1, Early: 0, Misses: 0
6ef-> Hits: 1, Late: 0, Early: 0, Misses: 0
6f0-> Hits: 5, Late: 6, Early: 0, Misses: 0
6f1-> Hits: 0, Late: 1, Early: 0, Misses: 0
6f2-> Hits: 3, Late: 0, Early: 0, Misses: 0
6f3-> Hits: 2, Late: 0, Early: 0, Misses: 0
6f5-> Hits: 1, Late: 0, Early: 0, Misses: 0
6f6-> Hits: 4, Late: 0, Early: 0, Misses: 0
6f8-> Hits: 2, Late: 1, Early: 0, Misses: 0
6f9-> Hits: 7, Late: 0, Early: 0, Misses: 0
6fa-> Hits: 3, Late: 0, Early: 0, Misses: 0
6fb-> Hits: 3, Late: 54, Early: 0, Misses: 0
6fc-> Hits: 3, Late: 0, Early: 0, Misses: 0
6fe-> Hits: 5, Late: 0, Early: 0, Misses: 0
700-> Hits: 6, Late: 0, Early: 0, Misses: 0
701-> Hits: 0, Late: 1, Early: 0, Misses: 0
702-> Hits: 4, Late: 0, Early: 0, Misses: 0
703-> Hits: 4, Late: 0, Early: 0, Misses: 0
706-> Hits: 4, Late: 0, Early: 0, Misses: 0
708-> Hits: 1, Late: 1, Early: 0, Misses: 0
709-> Hits: 0, Late: 2, Early: 0, Misses: 0
70a-> Hits: 1, Late: 0, Early: 0, Misses: 0
70b-> Hits: 3, Late: 1, Early: 0, Misses: 0
70d-> Hits: 7, Late: 2, Early: 0, Misses: 0
70e-> Hits: 1, Late: 0, Early: 0, Misses: 0
70f-> Hits: 1, Late: 0, Early: 0, Misses: 0
710-> Hits: 0, Late: 1, Early: 0, Misses: 0
711-> Hits: 1, Late: 1, Early: 0, Misses: 0
713-> Hits: 1, Late: 0, Early: 0, Misses: 0
716-> Hits: 3, Late: 0, Early: 0, Misses: 0
718-> Hits: 3, Late: 0, Early: 0, Misses: 0
719-> Hits: 3, Late: 1, Early: 0, Misses: 0
71b-> Hits: 61, Late: 0, Early: 0, Misses: 0
71d-> Hits: 1, Late: 0, Early: 0, Misses: 0
71e-> Hits: 4, Late: 0, Early: 0, Misses: 0
720-> Hits: 5, Late: 1, Early: 0, Misses: 0
721-> Hits: 1, Late: 0, Early: 0, Misses: 0
722-> Hits: 3, Late: 0, Early: 0, Misses: 0
723-> Hits: 7, Late: 2, Early: 0, Misses: 0
724-> Hits: 2, Late: 0, Early: 0, Misses: 0
725-> Hits: 1, Late: 0, Early: 0, Misses: 0
726-> Hits: 0, Late: 1, Early: 0, Misses: 0
727-> Hits: 1, Late: 0, Early: 0, Misses: 0
729-> Hits: 5, Late: 57, Early: 0, Misses: 0
72b-> Hits: 4, Late: 0, Early: 0, Misses: 0
72c-> Hits: 3, Late: 0, Early: 0, Misses: 0
72d-> Hits: 3, Late: 0, Early: 0, Misses: 0
72e-> Hits: 1, Late: 0, Early: 0, Misses: 0
72f-> Hits: 1, Late: 0, Early: 0, Misses: 0
730-> Hits: 4, Late: 0, Early: 0, Misses: 0
733-> Hits: 5, Late: 1, Early: 0, Misses: 0
734-> Hits: 1, Late: 0, Early: 0, Misses: 0
736-> Hits: 0, Late: 1, Early: 0, Misses: 0
737-> Hits: 51, Late: 6, Early: 0, Misses: 0
73a-> Hits: 1, Late: 0, Early: 0, Misses: 0
73c-> Hits: 4, Late: 0, Early: 0, Misses: 0
73e-> Hits: 3, Late: 1, Early: 0, Misses: 0
740-> Hits: 6, Late: 1, Early: 0, Misses: 0
741-> Hits: 4, Late: 0, Early: 0, Misses: 0
742-> Hits: 2, Late: 0, Early: 0, Misses: 0
744-> Hits: 6, Late: 0, Early: 0, Misses: 0
745-> Hits: 2, Late: 0, Early: 0, Misses: 0
747-> Hits: 1, Late: 0, Early: 0, Misses: 0
74b-> Hits: 1, Late: 2, Early: 0, Misses: 0
74c-> Hits: 1, Late: 0, Early: 0, Misses: 0
74e-> Hits: 3, Late: 0, Early: 0, Misses: 0
74f-> Hits: 2, Late: 0, Early: 0, Misses: 0
750-> Hits: 4, Late: 0, Early: 0, Misses: 0
751-> Hits: 4, Late: 0, Early: 0, Misses: 0
752-> Hits: 5, Late: 0, Early: 0, Misses: 0
753-> Hits: 2, Late: 0, Early: 0, Misses: 0
754-> Hits: 5, Late: 0, Early: 0, Misses: 0
755-> Hits: 3, Late: 0, Early: 0, Misses: 0
756-> Hits: 4, Late: 0, Early: 0, Misses: 0
758-> Hits: 4, Late: 0, Early: 0, Misses: 0
75a-> Hits: 5, Late: 2, Early: 0, Misses: 0
75b-> Hits: 4, Late: 0, Early: 0, Misses: 0
75c-> Hits: 5, Late: 2, Early: 0, Misses: 0
75d-> Hits: 1, Late: 0, Early: 0, Misses: 0
75f-> Hits: 1, Late: 0, Early: 0, Misses: 0
760-> Hits: 4, Late: 0, Early: 0, Misses: 0
761-> Hits: 5, Late: 0, Early: 0, Misses: 0
762-> Hits: 1, Late: 0, Early: 0, Misses: 0
763-> Hits: 1, Late: 0, Early: 0, Misses: 0
765-> Hits: 1, Late: 0, Early: 0, Misses: 0
766-> Hits: 2, Late: 2, Early: 0, Misses: 0
768-> Hits: 5, Late: 1, Early: 0, Misses: 0
76a-> Hits: 1, Late: 0, Early: 0, Misses: 0
76b-> Hits: 1, Late: 1, Early: 0, Misses: 0
76c-> Hits: 2, Late: 0, Early: 0, Misses: 0
76f-> Hits: 1, Late: 0, Early: 0, Misses: 0
770-> Hits: 2, Late: 2, Early: 0, Misses: 0
771-> Hits: 1, Late: 0, Early: 0, Misses: 0
772-> Hits: 1, Late: 1, Early: 0, Misses: 0
774-> Hits: 6, Late: 0, Early: 0, Misses: 0
775-> Hits: 3, Late: 2, Early: 0, Misses: 0
776-> Hits: 1, Late: 0, Early: 0, Misses: 0
77a-> Hits: 1, Late: 1, Early: 0, Misses: 0
77c-> Hits: 4, Late: 0, Early: 0, Misses: 0
77e-> Hits: 1, Late: 0, Early: 0, Misses: 0
780-> Hits: 5, Late: 3, Early: 0, Misses: 0
781-> Hits: 2, Late: 0, Early: 0, Misses: 0
783-> Hits: 1, Late: 0, Early: 0, Misses: 0
784-> Hits: 5, Late: 1, Early: 0, Misses: 0
785-> Hits: 18, Late: 0, Early: 0, Misses: 0
78a-> Hits: 3, Late: 0, Early: 0, Misses: 0
78b-> Hits: 2, Late: 0, Early: 0, Misses: 0
78f-> Hits: 1, Late: 0, Early: 0, Misses: 0
790-> Hits: 1, Late: 2, Early: 0, Misses: 0
792-> Hits: 10, Late: 0, Early: 0, Misses: 0
793-> Hits: 10, Late: 0, Early: 0, Misses: 0
794-> Hits: 4, Late: 0, Early: 0, Misses: 0
796-> Hits: 4, Late: 0, Early: 0, Misses: 0
797-> Hits: 1, Late: 0, Early: 0, Misses: 0
798-> Hits: 3, Late: 0, Early: 0, Misses: 0
79a-> Hits: 3, Late: 0, Early: 0, Misses: 0
79b-> Hits: 0, Late: 1, Early: 0, Misses: 0
79c-> Hits: 3, Late: 0, Early: 0, Misses: 0
79f-> Hits: 2, Late: 1, Early: 0, Misses: 0
7a0-> Hits: 2, Late: 1, Early: 0, Misses: 0
7a3-> Hits: 1, Late: 0, Early: 0, Misses: 0
7a5-> Hits: 1, Late: 0, Early: 0, Misses: 0
7a6-> Hits: 13, Late: 0, Early: 0, Misses: 0
7a7-> Hits: 3, Late: 0, Early: 0, Misses: 0
7a8-> Hits: 3, Late: 0, Early: 0, Misses: 0
7aa-> Hits: 2, Late: 0, Early: 0, Misses: 0
7ab-> Hits: 3, Late: 0, Early: 0, Misses: 0
7ac-> Hits: 2, Late: 0, Early: 0, Misses: 0
7af-> Hits: 1, Late: 0, Early: 0, Misses: 0
7b0-> Hits: 3, Late: 0, Early: 0, Misses: 0
7b1-> Hits: 0, Late: 1, Early: 0, Misses: 0
7b4-> Hits: 1, Late: 0, Early: 0, Misses: 0
7b5-> Hits: 10, Late: 2, Early: 0, Misses: 0
7b8-> Hits: 3, Late: 0, Early: 0, Misses: 0
7b9-> Hits: 4, Late: 0, Early: 0, Misses: 0
7ba-> Hits: 8, Late: 0, Early: 0, Misses: 0
7bc-> Hits: 42, Late: 0, Early: 0, Misses: 0
7c1-> Hits: 2, Late: 0, Early: 0, Misses: 0
7c3-> Hits: 1, Late: 0, Early: 0, Misses: 0
7c4-> Hits: 1, Late: 0, Early: 0, Misses: 0
7c8-> Hits: 49, Late: 0, Early: 0, Misses: 0
7d0-> Hits: 3, Late: 2, Early: 0, Misses: 0
7d4-> Hits: 4, Late: 0, Early: 0, Misses: 0
7d6-> Hits: 3, Late: 0, Early: 0, Misses: 0
7d7-> Hits: 12, Late: 0, Early: 0, Misses: 0
7d9-> Hits: 3, Late: 0, Early: 0, Misses: 0
7da-> Hits: 1, Late: 0, Early: 0, Misses: 0
7db-> Hits: 3, Late: 0, Early: 0, Misses: 0
7dd-> Hits: 8, Late: 0, Early: 0, Misses: 0
7de-> Hits: 2, Late: 1, Early: 0, Misses: 0
7df-> Hits: 7, Late: 3, Early: 0, Misses: 0
7e0-> Hits: 4100, Late: 4, Early: 0, Misses: 0
7e1-> Hits: 11, Late: 0, Early: 0, Misses: 0
7e2-> Hits: 3, Late: 0, Early: 0, Misses: 0
7e4-> Hits: 1, Late: 0, Early: 0, Misses: 0
7e5-> Hits: 5, Late: 5, Early: 0, Misses: 0
7e6-> Hits: 2, Late: 0, Early: 0, Misses: 0
7e7-> Hits: 4097, Late: 0, Early: 0, Misses: 0
7e8-> Hits: 1, Late: 0, Early: 0, Misses: 0
7e9-> Hits: 5, Late: 0, Early: 0, Misses: 0
7ea-> Hits: 2040, Late: 1, Early: 0, Misses: 0
7eb-> Hits: 3, Late: 0, Early: 0, Misses: 0
7ec-> Hits: 3, Late: 0, Early: 0, Misses: 0
7ed-> Hits: 1, Late: 0, Early: 0, Misses: 0
7ee-> Hits: 3, Late: 1, Early: 0, Misses: 0
7ef-> Hits: 1, Late: 1, Early: 0, Misses: 0
7f0-> Hits: 7, Late: 2, Early: 0, Misses: 0
7f1-> Hits: 2039, Late: 0, Early: 0, Misses: 0
7f2-> Hits: 2, Late: 0, Early: 0, Misses: 0
7f3-> Hits: 7, Late: 0, Early: 0, Misses: 0
7f4-> Hits: 1, Late: 0, Early: 0, Misses: 0
7f6-> Hits: 1, Late: 0, Early: 0, Misses: 0
7f7-> Hits: 1, Late: 0, Early: 0, Misses: 0
7f8-> Hits: 3, Late: 0, Early: 0, Misses: 0
7fa-> Hits: 9, Late: 3, Early: 0, Misses: 0
7fb-> Hits: 4, Late: 1, Early: 0, Misses: 0
7fc-> Hits: 3, Late: 0, Early: 0, Misses: 0
7fd-> Hits: 2, Late: 0, Early: 0, Misses: 0
7ff-> Hits: 2, Late: 0, Early: 0, Misses: 0
800-> Hits: 4, Late: 0, Early: 0, Misses: 0
801-> Hits: 5, Late: 1, Early: 0, Misses: 0
803-> Hits: 0, Late: 1, Early: 0, Misses: 0
804-> Hits: 3, Late: 0, Early: 0, Misses: 0
805-> Hits: 1, Late: 0, Early: 0, Misses: 57
808-> Hits: 2, Late: 1, Early: 0, Misses: 0
809-> Hits: 9, Late: 0, Early: 0, Misses: 0
80a-> Hits: 42, Late: 0, Early: 0, Misses: 0
810-> Hits: 3, Late: 1, Early: 0, Misses: 0
811-> Hits: 1, Late: 0, Early: 0, Misses: 0
812-> Hits: 4099, Late: 0, Early: 0, Misses: 0
813-> Hits: 3, Late: 0, Early: 0, Misses: 0
814-> Hits: 57, Late: 0, Early: 0, Misses: 0
815-> Hits: 3, Late: 0, Early: 0, Misses: 0
816-> Hits: 60, Late: 0, Early: 0, Misses: 0
819-> Hits: 3, Late: 0, Early: 0, Misses: 0
81a-> Hits: 7, Late: 0, Early: 0, Misses: 0
81c-> Hits: 1, Late: 0, Early: 0, Misses: 0
81d-> Hits: 3, Late: 1, Early: 0, Misses: 1
81e-> Hits: 14, Late: 0, Early: 0, Misses: 0
81f-> Hits: 5, Late: 0, Early: 0, Misses: 0
820-> Hits: 11, Late: 3, Early: 0, Misses: 0
821-> Hits: 9, Late: 0, Early: 0, Misses: 0
822-> Hits: 4, Late: 0, Early: 0, Misses: 0
823-> Hits: 1, Late: 0, Early: 0, Misses: 0
824-> Hits: 4, Late: 0, Early: 0, Misses: 0
825-> Hits: 5, Late: 0, Early: 0, Misses: 0
826-> Hits: 6, Late: 0, Early: 0, Misses: 0
827-> Hits: 3, Late: 0, Early: 0, Misses: 0
828-> Hits: 9, Late: 0, Early: 0, Misses: 0
829-> Hits: 2, Late: 0, Early: 0, Misses: 0
82a-> Hits: 4, Late: 57, Early: 0, Misses: 0
82b-> Hits: 1, Late: 0, Early: 0, Misses: 0
82c-> Hits: 4, Late: 0, Early: 0, Misses: 0
82d-> Hits: 4, Late: 0, Early: 0, Misses: 0
82e-> Hits: 4, Late: 0, Early: 0, Misses: 0
82f-> Hits: 5, Late: 0, Early: 0, Misses: 0
830-> Hits: 61425, Late: 25, Early: 0, Misses: 0
831-> Hits: 58, Late: 2, Early: 0, Misses: 0
832-> Hits: 4, Late: 0, Early: 0, Misses: 0
834-> Hits: 4, Late: 0, Early: 0, Misses: 0
835-> Hits: 18, Late: 0, Early: 0, Misses: 0
836-> Hits: 4, Late: 0, Early: 0, Misses: 0
838-> Hits: 4, Late: 2, Early: 0, Misses: 0
839-> Hits: 6, Late: 0, Early: 0, Misses: 0
83a-> Hits: 6, Late: 0, Early: 0, Misses: 0
83c-> Hits: 2, Late: 0, Early: 0, Misses: 0
83d-> Hits: 1, Late: 1, Early: 0, Misses: 0
83e-> Hits: 1, Late: 0, Early: 0, Misses: 0
840-> Hits: 1, Late: 0, Early: 0, Misses: 0
841-> Hits: 2, Late: 0, Early: 0, Misses: 0
842-> Hits: 3, Late: 0, Early: 0, Misses: 0
844-> Hits: 4, Late: 0, Early: 0, Misses: 0
847-> Hits: 5, Late: 0, Early: 0, Misses: 1
849-> Hits: 5, Late: 0, Early: 0, Misses: 0
84a-> Hits: 2, Late: 0, Early: 0, Misses: 0
84b-> Hits: 63, Late: 0, Early: 0, Misses: 0
84d-> Hits: 3, Late: 0, Early: 0, Misses: 0
84e-> Hits: 3, Late: 1, Early: 0, Misses: 0
84f-> Hits: 3, Late: 0, Early: 0, Misses: 0
850-> Hits: 3, Late: 0, Early: 0, Misses: 0
851-> Hits: 4, Late: 0, Early: 0, Misses: 0
852-> Hits: 1, Late: 0, Early: 0, Misses: 0
853-> Hits: 6, Late: 0, Early: 0, Misses: 0
854-> Hits: 2, Late: 2, Early: 0, Misses: 0
855-> Hits: 3, Late: 60, Early: 0, Misses: 0
856-> Hits: 1, Late: 0, Early: 0, Misses: 0
857-> Hits: 5, Late: 0, Early: 0, Misses: 0
859-> Hits: 1, Late: 0, Early: 0, Misses: 0
85b-> Hits: 2, Late: 0, Early: 0, Misses: 0
85c-> Hits: 11, Late: 0, Early: 0, Misses: 0
85d-> Hits: 4, Late: 0, Early: 0, Misses: 0
85e-> Hits: 4, Late: 1, Early: 0, Misses: 0
85f-> Hits: 3, Late: 0, Early: 0, Misses: 0
861-> Hits: 2, Late: 1, Early: 0, Misses: 0
862-> Hits: 58, Late: 1, Early: 0, Misses: 0
864-> Hits: 3, Late: 0, Early: 0, Misses: 0
866-> Hits: 1, Late: 0, Early: 0, Misses: 0
867-> Hits: 1, Late: 0, Early: 0, Misses: 0
868-> Hits: 1, Late: 0, Early: 0, Misses: 0
869-> Hits: 1, Late: 1, Early: 0, Misses: 0
86a-> Hits: 2, Late: 0, Early: 0, Misses: 0
86b-> Hits: 1, Late: 0, Early: 0, Misses: 0
86c-> Hits: 5, Late: 0, Early: 0, Misses: 0
86d-> Hits: 1, Late: 1, Early: 0, Misses: 0
86e-> Hits: 5, Late: 0, Early: 0, Misses: 0
870-> Hits: 3, Late: 3, Early: 0, Misses: 0
871-> Hits: 18, Late: 0, Early: 0, Misses: 0
872-> Hits: 3, Late: 0, Early: 0, Misses: 0
873-> Hits: 4, Late: 0, Early: 0, Misses: 0
874-> Hits: 5, Late: 1, Early: 0, Misses: 0
875-> Hits: 1, Late: 0, Early: 0, Misses: 0
876-> Hits: 2, Late: 0, Early: 0, Misses: 0
878-> Hits: 1, Late: 1, Early: 0, Misses: 0
87a-> Hits: 12, Late: 1, Early: 0, Misses: 0
87b-> Hits: 4, Late: 0, Early: 0, Misses: 0
87c-> Hits: 2, Late: 0, Early: 0, Misses: 0
87d-> Hits: 6, Late: 0, Early: 0, Misses: 0
87f-> Hits: 7, Late: 0, Early: 0, Misses: 0
880-> Hits: 2, Late: 0, Early: 0, Misses: 0
881-> Hits: 5, Late: 0, Early: 0, Misses: 0
882-> Hits: 1, Late: 1, Early: 0, Misses: 0
884-> Hits: 1, Late: 0, Early: 0, Misses: 0
885-> Hits: 10, Late: 3, Early: 0, Misses: 0
886-> Hits: 2, Late: 0, Early: 0, Misses: 0
888-> Hits: 1, Late: 2, Early: 0, Misses: 0
889-> Hits: 2, Late: 1, Early: 0, Misses: 0
88a-> Hits: 2, Late: 0, Early: 0, Misses: 0
88b-> Hits: 2, Late: 0, Early: 0, Misses: 0
88c-> Hits: 4, Late: 0, Early: 0, Misses: 0
88d-> Hits: 5, Late: 0, Early: 0, Misses: 0
88e-> Hits: 1, Late: 0, Early: 0, Misses: 0
88f-> Hits: 4, Late: 2, Early: 0, Misses: 0
890-> Hits: 1, Late: 2, Early: 0, Misses: 0
891-> Hits: 9, Late: 1, Early: 0, Misses: 0
893-> Hits: 2, Late: 0, Early: 0, Misses: 0
894-> Hits: 0, Late: 1, Early: 0, Misses: 0
895-> Hits: 2, Late: 0, Early: 0, Misses: 0
896-> Hits: 2, Late: 0, Early: 0, Misses: 0
89a-> Hits: 2, Late: 1, Early: 0, Misses: 0
89b-> Hits: 3, Late: 0, Early: 0, Misses: 0
89c-> Hits: 3, Late: 0, Early: 0, Misses: 0
89d-> Hits: 1, Late: 0, Early: 0, Misses: 0
89e-> Hits: 4, Late: 0, Early: 0, Misses: 0
89f-> Hits: 1, Late: 0, Early: 0, Misses: 0
8a0-> Hits: 11, Late: 2, Early: 0, Misses: 0
8a1-> Hits: 4, Late: 0, Early: 0, Misses: 0
8a2-> Hits: 1, Late: 0, Early: 0, Misses: 0
8a3-> Hits: 2, Late: 0, Early: 0, Misses: 0
8a4-> Hits: 11, Late: 0, Early: 0, Misses: 0
8a5-> Hits: 2, Late: 1, Early: 0, Misses: 0
8a6-> Hits: 59, Late: 0, Early: 0, Misses: 0
8a7-> Hits: 7, Late: 0, Early: 0, Misses: 0
8a8-> Hits: 4, Late: 0, Early: 0, Misses: 0
8aa-> Hits: 0, Late: 1, Early: 0, Misses: 0
8ab-> Hits: 4, Late: 0, Early: 0, Misses: 0
8ac-> Hits: 3, Late: 0, Early: 0, Misses: 0
8ad-> Hits: 3, Late: 0, Early: 0, Misses: 0
8ae-> Hits: 8, Late: 0, Early: 0, Misses: 0
8af-> Hits: 8, Late: 0, Early: 0, Misses: 1
8b1-> Hits: 1, Late: 0, Early: 0, Misses: 0
8b2-> Hits: 1, Late: 0, Early: 0, Misses: 0
8b4-> Hits: 1, Late: 0, Early: 0, Misses: 0
8b6-> Hits: 1, Late: 0, Early: 0, Misses: 0
8b7-> Hits: 1, Late: 0, Early: 0, Misses: 0
8b8-> Hits: 3, Late: 1, Early: 0, Misses: 0
8bc-> Hits: 3, Late: 0, Early: 0, Misses: 0
8be-> Hits: 1, Late: 0, Early: 0, Misses: 0
8bf-> Hits: 9, Late: 0, Early: 0, Misses: 0
8c0-> Hits: 13, Late: 0, Early: 0, Misses: 0
8c1-> Hits: 1, Late: 0, Early: 0, Misses: 0
8c2-> Hits: 4, Late: 0, Early: 0, Misses: 0
8c3-> Hits: 3, Late: 0, Early: 0, Misses: 0
8c4-> Hits: 3, Late: 0, Early: 0, Misses: 0
8c6-> Hits: 3, Late: 0, Early: 0, Misses: 0
8c8-> Hits: 13, Late: 0, Early: 0, Misses: 0
8c9-> Hits: 21, Late: 0, Early: 0, Misses: 0
8ca-> Hits: 1, Late: 0, Early: 0, Misses: 0
8cb-> Hits: 19, Late: 0, Early: 0, Misses: 0
8cc-> Hits: 2, Late: 0, Early: 0, Misses: 0
8cd-> Hits: 13, Late: 0, Early: 0, Misses: 0
8ce-> Hits: 61, Late: 1, Early: 0, Misses: 0
8cf-> Hits: 14, Late: 0, Early: 0, Misses: 0
[...]
d92-> Hits: 12, Late: 2, Early: 0, Misses: 0
d93-> Hits: 23, Late: 0, Early: 0, Misses: 0
d94-> Hits: 4, Late: 0, Early: 0, Misses: 0
d96-> Hits: 1, Late: 0, Early: 0, Misses: 0
d97-> Hits: 3, Late: 3, Early: 0, Misses: 0
d98-> Hits: 59, Late: 0, Early: 0, Misses: 0
d99-> Hits: 5, Late: 0, Early: 0, Misses: 0
d9c-> Hits: 1, Late: 0, Early: 0, Misses: 0
d9f-> Hits: 1, Late: 0, Early: 0, Misses: 0
da0-> Hits: 7, Late: 1, Early: 0, Misses: 0
da1-> Hits: 22, Late: 1208, Early: 0, Misses: 0
da2-> Hits: 61, Late: 2, Early: 0, Misses: 0
da3-> Hits: 1, Late: 0, Early: 0, Misses: 0
da5-> Hits: 3, Late: 0, Early: 0, Misses: 0
da6-> Hits: 10, Late: 4, Early: 0, Misses: 0
da7-> Hits: 3, Late: 0, Early: 0, Misses: 0
da8-> Hits: 2, Late: 0, Early: 0, Misses: 0
da9-> Hits: 1, Late: 0, Early: 0, Misses: 0
daa-> Hits: 1, Late: 0, Early: 0, Misses: 0
dab-> Hits: 3, Late: 0, Early: 0, Misses: 0
dac-> Hits: 10, Late: 0, Early: 0, Misses: 0
dad-> Hits: 14, Late: 0, Early: 0, Misses: 0
dae-> Hits: 1, Late: 0, Early: 0, Misses: 0
daf-> Hits: 3, Late: 0, Early: 0, Misses: 0
db0-> Hits: 7, Late: 4, Early: 0, Misses: 0
db1-> Hits: 71, Late: 1453, Early: 0, Misses: 518
db2-> Hits: 0, Late: 0, Early: 0, Misses: 1
db3-> Hits: 2, Late: 0, Early: 0, Misses: 0
db5-> Hits: 3, Late: 0, Early: 0, Misses: 0
db7-> Hits: 3, Late: 0, Early: 0, Misses: 0
db8-> Hits: 3, Late: 0, Early: 0, Misses: 0
db9-> Hits: 2, Late: 0, Early: 0, Misses: 0
dba-> Hits: 30, Late: 0, Early: 0, Misses: 24
dbb-> Hits: 2, Late: 0, Early: 0, Misses: 0
dbc-> Hits: 1, Late: 0, Early: 0, Misses: 0
dbd-> Hits: 1, Late: 0, Early: 0, Misses: 0
dbe-> Hits: 5, Late: 0, Early: 0, Misses: 0
dbf-> Hits: 8, Late: 0, Early: 0, Misses: 0
dc0-> Hits: 14, Late: 7, Early: 0, Misses: 0
dc1-> Hits: 52, Late: 790, Early: 0, Misses: 0
dc2-> Hits: 3, Late: 2, Early: 0, Misses: 0
dc3-> Hits: 5, Late: 0, Early: 0, Misses: 0
dc7-> Hits: 11, Late: 1, Early: 0, Misses: 0
dc8-> Hits: 3, Late: 1, Early: 0, Misses: 0
dca-> Hits: 3, Late: 0, Early: 0, Misses: 0
dcb-> Hits: 6, Late: 0, Early: 0, Misses: 0
dcc-> Hits: 63, Late: 2, Early: 0, Misses: 0
dcd-> Hits: 67, Late: 0, Early: 0, Misses: 0
dcf-> Hits: 57, Late: 0, Early: 0, Misses: 0
dd1-> Hits: 85, Late: 1223, Early: 0, Misses: 0
dd2-> Hits: 34, Late: 0, Early: 0, Misses: 24
dd3-> Hits: 63, Late: 0, Early: 0, Misses: 0
dd5-> Hits: 4, Late: 0, Early: 0, Misses: 0
dd6-> Hits: 4, Late: 0, Early: 0, Misses: 0
dd8-> Hits: 64, Late: 0, Early: 0, Misses: 0
dd9-> Hits: 57, Late: 0, Early: 0, Misses: 0
dda-> Hits: 4, Late: 0, Early: 0, Misses: 0
ddc-> Hits: 8, Late: 0, Early: 0, Misses: 0
dde-> Hits: 4, Late: 0, Early: 0, Misses: 0
ddf-> Hits: 4, Late: 0, Early: 0, Misses: 0
de0-> Hits: 3, Late: 0, Early: 0, Misses: 0
de2-> Hits: 2, Late: 0, Early: 0, Misses: 0
de3-> Hits: 5, Late: 0, Early: 0, Misses: 0
de4-> Hits: 2, Late: 0, Early: 0, Misses: 0
de7-> Hits: 1, Late: 0, Early: 0, Misses: 0
de8-> Hits: 1, Late: 0, Early: 0, Misses: 0
de9-> Hits: 4, Late: 0, Early: 0, Misses: 0
deb-> Hits: 1, Late: 0, Early: 0, Misses: 0
dec-> Hits: 1, Late: 0, Early: 0, Misses: 0
ded-> Hits: 5, Late: 0, Early: 0, Misses: 0
dee-> Hits: 5, Late: 0, Early: 0, Misses: 0
def-> Hits: 5, Late: 0, Early: 0, Misses: 0
df0-> Hits: 1, Late: 0, Early: 0, Misses: 0
df1-> Hits: 16, Late: 0, Early: 0, Misses: 0
df2-> Hits: 3, Late: 0, Early: 0, Misses: 0
df3-> Hits: 6, Late: 0, Early: 0, Misses: 0
df4-> Hits: 1, Late: 0, Early: 0, Misses: 0
df5-> Hits: 6, Late: 0, Early: 0, Misses: 0
df7-> Hits: 7, Late: 0, Early: 0, Misses: 0
df8-> Hits: 1, Late: 0, Early: 0, Misses: 0
df9-> Hits: 2, Late: 0, Early: 0, Misses: 0
dfb-> Hits: 1, Late: 0, Early: 0, Misses: 0
dfd-> Hits: 3, Late: 0, Early: 0, Misses: 0
e00-> Hits: 4, Late: 0, Early: 0, Misses: 0
e01-> Hits: 2, Late: 0, Early: 0, Misses: 0
e02-> Hits: 4, Late: 0, Early: 0, Misses: 0
e03-> Hits: 1, Late: 0, Early: 0, Misses: 0
e05-> Hits: 3, Late: 1, Early: 0, Misses: 0
e06-> Hits: 7, Late: 0, Early: 0, Misses: 0
e07-> Hits: 0, Late: 57, Early: 0, Misses: 0
e0f-> Hits: 27, Late: 0, Early: 0, Misses: 32
e10-> Hits: 3, Late: 0, Early: 0, Misses: 0
e12-> Hits: 6, Late: 0, Early: 0, Misses: 0
e13-> Hits: 7, Late: 0, Early: 0, Misses: 0
e14-> Hits: 4, Late: 0, Early: 0, Misses: 0
e15-> Hits: 2, Late: 0, Early: 0, Misses: 0
e16-> Hits: 2, Late: 0, Early: 0, Misses: 0
e17-> Hits: 1, Late: 0, Early: 0, Misses: 0
e18-> Hits: 4, Late: 0, Early: 0, Misses: 0
e19-> Hits: 61, Late: 0, Early: 0, Misses: 0
e1a-> Hits: 2, Late: 0, Early: 0, Misses: 0
e1b-> Hits: 58, Late: 0, Early: 0, Misses: 0
e1c-> Hits: 4, Late: 0, Early: 0, Misses: 0
e1d-> Hits: 0, Late: 3, Early: 0, Misses: 0
e1e-> Hits: 0, Late: 58, Early: 0, Misses: 0
e20-> Hits: 14, Late: 2, Early: 0, Misses: 0
e22-> Hits: 3, Late: 0, Early: 0, Misses: 0
e23-> Hits: 62, Late: 58, Early: 0, Misses: 0
e25-> Hits: 1, Late: 0, Early: 0, Misses: 0
e26-> Hits: 2, Late: 0, Early: 0, Misses: 0
e27-> Hits: 2, Late: 0, Early: 0, Misses: 0
e28-> Hits: 8, Late: 58, Early: 0, Misses: 0
e2a-> Hits: 2, Late: 1, Early: 0, Misses: 0
e2c-> Hits: 1, Late: 58, Early: 0, Misses: 0
e2d-> Hits: 2, Late: 0, Early: 0, Misses: 0
e30-> Hits: 17, Late: 0, Early: 0, Misses: 0
e31-> Hits: 0, Late: 58, Early: 0, Misses: 0
e33-> Hits: 3, Late: 0, Early: 0, Misses: 0
e35-> Hits: 16, Late: 0, Early: 0, Misses: 0
e36-> Hits: 2, Late: 0, Early: 0, Misses: 0
e38-> Hits: 1, Late: 0, Early: 0, Misses: 0
e39-> Hits: 7, Late: 58, Early: 0, Misses: 0
e3a-> Hits: 1, Late: 0, Early: 0, Misses: 0
e3b-> Hits: 0, Late: 1, Early: 0, Misses: 0
e3c-> Hits: 6, Late: 1, Early: 0, Misses: 0
e3d-> Hits: 13, Late: 5, Early: 0, Misses: 0
e3e-> Hits: 2, Late: 0, Early: 0, Misses: 0
e3f-> Hits: 1, Late: 0, Early: 0, Misses: 0
e40-> Hits: 6, Late: 1, Early: 0, Misses: 0
e41-> Hits: 9, Late: 58, Early: 0, Misses: 0
e42-> Hits: 2, Late: 0, Early: 0, Misses: 0
e43-> Hits: 1, Late: 0, Early: 0, Misses: 0
e44-> Hits: 3, Late: 0, Early: 0, Misses: 0
e45-> Hits: 1, Late: 1, Early: 0, Misses: 0
e47-> Hits: 2, Late: 0, Early: 0, Misses: 0
e48-> Hits: 3, Late: 0, Early: 0, Misses: 0
e49-> Hits: 0, Late: 58, Early: 0, Misses: 0
e4a-> Hits: 1, Late: 0, Early: 0, Misses: 0
e4c-> Hits: 1, Late: 1, Early: 0, Misses: 0
e4d-> Hits: 3, Late: 0, Early: 0, Misses: 0
e4f-> Hits: 2, Late: 0, Early: 0, Misses: 0
e50-> Hits: 0, Late: 3, Early: 0, Misses: 0
e51-> Hits: 2, Late: 0, Early: 0, Misses: 0
e54-> Hits: 1, Late: 0, Early: 0, Misses: 0
e55-> Hits: 3, Late: 0, Early: 0, Misses: 0
e57-> Hits: 8, Late: 0, Early: 0, Misses: 0
e58-> Hits: 2, Late: 0, Early: 0, Misses: 0
e59-> Hits: 20, Late: 0, Early: 0, Misses: 0
e5a-> Hits: 22, Late: 0, Early: 0, Misses: 0
e5b-> Hits: 22, Late: 0, Early: 0, Misses: 0
e5c-> Hits: 2, Late: 0, Early: 0, Misses: 0
e5d-> Hits: 20, Late: 0, Early: 0, Misses: 0
e5e-> Hits: 7, Late: 0, Early: 0, Misses: 0
e5f-> Hits: 20, Late: 0, Early: 0, Misses: 0
e60-> Hits: 6, Late: 2, Early: 0, Misses: 0
e61-> Hits: 22, Late: 0, Early: 0, Misses: 0
e62-> Hits: 2, Late: 0, Early: 0, Misses: 0
e63-> Hits: 26, Late: 0, Early: 0, Misses: 0
e64-> Hits: 0, Late: 1, Early: 0, Misses: 0
e65-> Hits: 6, Late: 0, Early: 0, Misses: 0
e68-> Hits: 2, Late: 0, Early: 0, Misses: 0
e6b-> Hits: 1, Late: 0, Early: 0, Misses: 0
e6c-> Hits: 1, Late: 0, Early: 0, Misses: 0
e6f-> Hits: 2, Late: 0, Early: 0, Misses: 0
e70-> Hits: 5, Late: 1, Early: 0, Misses: 0
e71-> Hits: 5, Late: 0, Early: 0, Misses: 1
e72-> Hits: 64, Late: 0, Early: 0, Misses: 0
e73-> Hits: 2, Late: 0, Early: 0, Misses: 0
e74-> Hits: 5, Late: 0, Early: 0, Misses: 0
e75-> Hits: 7, Late: 0, Early: 0, Misses: 0
e76-> Hits: 6, Late: 0, Early: 0, Misses: 0
e77-> Hits: 1, Late: 0, Early: 0, Misses: 0
e79-> Hits: 2, Late: 0, Early: 0, Misses: 0
e7a-> Hits: 1, Late: 0, Early: 0, Misses: 0
e7b-> Hits: 1, Late: 0, Early: 0, Misses: 0
e7d-> Hits: 0, Late: 0, Early: 0, Misses: 57
e7e-> Hits: 57, Late: 0, Early: 0, Misses: 0
e7f-> Hits: 60, Late: 0, Early: 0, Misses: 0
e80-> Hits: 1, Late: 0, Early: 0, Misses: 0
e81-> Hits: 6, Late: 0, Early: 0, Misses: 57
e82-> Hits: 4, Late: 0, Early: 0, Misses: 0
e83-> Hits: 60, Late: 0, Early: 0, Misses: 0
e84-> Hits: 53, Late: 0, Early: 0, Misses: 0
e85-> Hits: 57, Late: 0, Early: 0, Misses: 0
e86-> Hits: 3, Late: 0, Early: 0, Misses: 0
e87-> Hits: 57, Late: 0, Early: 0, Misses: 0
e88-> Hits: 60, Late: 0, Early: 0, Misses: 0
e8a-> Hits: 3, Late: 0, Early: 0, Misses: 0
e8b-> Hits: 2, Late: 0, Early: 0, Misses: 0
e8d-> Hits: 1, Late: 0, Early: 0, Misses: 0
e90-> Hits: 2, Late: 0, Early: 0, Misses: 0
e91-> Hits: 2, Late: 0, Early: 0, Misses: 0
e92-> Hits: 4, Late: 0, Early: 0, Misses: 0
e94-> Hits: 4, Late: 0, Early: 0, Misses: 0
e95-> Hits: 2, Late: 0, Early: 0, Misses: 0
e96-> Hits: 1, Late: 0, Early: 0, Misses: 0
e97-> Hits: 2, Late: 0, Early: 0, Misses: 0
e98-> Hits: 2, Late: 0, Early: 0, Misses: 0
e99-> Hits: 59, Late: 0, Early: 0, Misses: 0
e9a-> Hits: 2, Late: 0, Early: 0, Misses: 0
e9d-> Hits: 1, Late: 0, Early: 0, Misses: 0
ea0-> Hits: 2, Late: 1, Early: 0, Misses: 0
ea1-> Hits: 4, Late: 0, Early: 0, Misses: 0
ea2-> Hits: 2, Late: 0, Early: 0, Misses: 0
ea5-> Hits: 1, Late: 0, Early: 0, Misses: 0
ea6-> Hits: 0, Late: 1, Early: 0, Misses: 0
ea7-> Hits: 1, Late: 0, Early: 0, Misses: 0
ea8-> Hits: 1, Late: 0, Early: 0, Misses: 0
ea9-> Hits: 2, Late: 0, Early: 0, Misses: 0
eaa-> Hits: 1, Late: 0, Early: 0, Misses: 0
eab-> Hits: 5, Late: 0, Early: 0, Misses: 0
eac-> Hits: 1, Late: 0, Early: 0, Misses: 0
eaf-> Hits: 0, Late: 1, Early: 0, Misses: 0
eb0-> Hits: 43983, Late: 7372, Early: 0, Misses: 0
eb3-> Hits: 1, Late: 0, Early: 0, Misses: 0
eb4-> Hits: 1, Late: 0, Early: 0, Misses: 0
eb5-> Hits: 48270, Late: 1212, Early: 0, Misses: 0
eb6-> Hits: 3, Late: 2, Early: 0, Misses: 0
eb8-> Hits: 1, Late: 0, Early: 0, Misses: 0
eba-> Hits: 39890, Late: 12001, Early: 0, Misses: 0
ebc-> Hits: 3, Late: 0, Early: 0, Misses: 0
ebd-> Hits: 1, Late: 0, Early: 0, Misses: 0
ebe-> Hits: 2, Late: 0, Early: 0, Misses: 0
ebf-> Hits: 2, Late: 1, Early: 0, Misses: 0
ec0-> Hits: 43531, Late: 5609, Early: 0, Misses: 0
ec1-> Hits: 13, Late: 0, Early: 0, Misses: 0
ec2-> Hits: 1, Late: 1, Early: 0, Misses: 0
ec3-> Hits: 2, Late: 0, Early: 0, Misses: 0
ec4-> Hits: 1, Late: 1, Early: 0, Misses: 0
ec5-> Hits: 7, Late: 0, Early: 0, Misses: 0
ec6-> Hits: 37046, Late: 13907, Early: 0, Misses: 0
ec7-> Hits: 1, Late: 1, Early: 0, Misses: 0
ec8-> Hits: 1, Late: 0, Early: 0, Misses: 0
eca-> Hits: 1, Late: 0, Early: 0, Misses: 0
ecb-> Hits: 0, Late: 1, Early: 0, Misses: 0
ecc-> Hits: 41412, Late: 5647, Early: 0, Misses: 0
ecd-> Hits: 1, Late: 0, Early: 0, Misses: 0
ece-> Hits: 0, Late: 1, Early: 0, Misses: 0
ecf-> Hits: 5, Late: 0, Early: 0, Misses: 0
ed0-> Hits: 2, Late: 0, Early: 0, Misses: 0
ed1-> Hits: 61, Late: 0, Early: 0, Misses: 0
ed2-> Hits: 31293, Late: 18657, Early: 0, Misses: 0
ed3-> Hits: 2, Late: 0, Early: 0, Misses: 0
ed5-> Hits: 5, Late: 1, Early: 0, Misses: 0
ed6-> Hits: 1, Late: 0, Early: 0, Misses: 0
ed7-> Hits: 2, Late: 1, Early: 0, Misses: 0
ed8-> Hits: 41845, Late: 6577, Early: 0, Misses: 58
ed9-> Hits: 5, Late: 0, Early: 0, Misses: 0
edb-> Hits: 2, Late: 0, Early: 0, Misses: 0
edc-> Hits: 3, Late: 0, Early: 0, Misses: 0
edd-> Hits: 0, Late: 1, Early: 0, Misses: 0
edf-> Hits: 0, Late: 1, Early: 0, Misses: 0
ee0-> Hits: 6, Late: 2, Early: 0, Misses: 57
ee1-> Hits: 6, Late: 58, Early: 0, Misses: 0
ee2-> Hits: 3, Late: 0, Early: 0, Misses: 0
ee3-> Hits: 5, Late: 0, Early: 0, Misses: 0
ee4-> Hits: 8, Late: 0, Early: 0, Misses: 0
ee5-> Hits: 5, Late: 0, Early: 0, Misses: 0
ee7-> Hits: 5, Late: 0, Early: 0, Misses: 0
ee8-> Hits: 1, Late: 0, Early: 0, Misses: 0
ee9-> Hits: 6, Late: 0, Early: 0, Misses: 0
eea-> Hits: 5, Late: 0, Early: 0, Misses: 0
eeb-> Hits: 2, Late: 0, Early: 0, Misses: 0
eec-> Hits: 2, Late: 0, Early: 0, Misses: 0
eed-> Hits: 2, Late: 0, Early: 0, Misses: 0
eee-> Hits: 2, Late: 0, Early: 0, Misses: 0
eef-> Hits: 16, Late: 0, Early: 0, Misses: 0
ef0-> Hits: 5, Late: 0, Early: 0, Misses: 0
ef1-> Hits: 2, Late: 0, Early: 0, Misses: 0
ef2-> Hits: 3, Late: 0, Early: 0, Misses: 0
ef3-> Hits: 1, Late: 0, Early: 0, Misses: 0
ef4-> Hits: 60, Late: 0, Early: 0, Misses: 0
ef5-> Hits: 1, Late: 0, Early: 0, Misses: 0
ef6-> Hits: 2, Late: 0, Early: 0, Misses: 0
ef7-> Hits: 2, Late: 0, Early: 0, Misses: 0
ef8-> Hits: 3, Late: 2, Early: 0, Misses: 0
ef9-> Hits: 1, Late: 0, Early: 0, Misses: 0
efa-> Hits: 8, Late: 0, Early: 0, Misses: 0
efb-> Hits: 5, Late: 0, Early: 0, Misses: 0
efc-> Hits: 4, Late: 0, Early: 0, Misses: 0
efd-> Hits: 2, Late: 0, Early: 0, Misses: 0
efe-> Hits: 43326, Late: 15952, Early: 0, Misses: 0
eff-> Hits: 6, Late: 0, Early: 0, Misses: 0
f00-> Hits: 4, Late: 0, Early: 0, Misses: 0
f01-> Hits: 4, Late: 0, Early: 0, Misses: 0
f02-> Hits: 4, Late: 0, Early: 0, Misses: 0
f03-> Hits: 2, Late: 0, Early: 0, Misses: 0
f04-> Hits: 6, Late: 0, Early: 0, Misses: 0
f05-> Hits: 3, Late: 0, Early: 0, Misses: 0
f06-> Hits: 8, Late: 0, Early: 0, Misses: 0
f07-> Hits: 2, Late: 0, Early: 0, Misses: 0
f08-> Hits: 4, Late: 0, Early: 0, Misses: 0
f09-> Hits: 9, Late: 0, Early: 0, Misses: 0
f0b-> Hits: 2, Late: 0, Early: 0, Misses: 0
f0c-> Hits: 4, Late: 4, Early: 0, Misses: 0
f0d-> Hits: 2, Late: 0, Early: 0, Misses: 0
f0e-> Hits: 2, Late: 0, Early: 0, Misses: 0
f10-> Hits: 41, Late: 3, Early: 0, Misses: 0
f13-> Hits: 35, Late: 0, Early: 0, Misses: 0
f15-> Hits: 1, Late: 0, Early: 0, Misses: 0
f16-> Hits: 4, Late: 0, Early: 0, Misses: 0
f17-> Hits: 65, Late: 0, Early: 0, Misses: 0
f18-> Hits: 1, Late: 0, Early: 0, Misses: 0
f19-> Hits: 5, Late: 2, Early: 0, Misses: 0
f1c-> Hits: 1, Late: 0, Early: 0, Misses: 0
f1e-> Hits: 2, Late: 0, Early: 0, Misses: 0
f20-> Hits: 1, Late: 0, Early: 0, Misses: 0
f21-> Hits: 23, Late: 0, Early: 0, Misses: 0
f22-> Hits: 7, Late: 0, Early: 0, Misses: 2
f23-> Hits: 16, Late: 0, Early: 0, Misses: 0
f24-> Hits: 39, Late: 0, Early: 0, Misses: 0
f25-> Hits: 1, Late: 0, Early: 0, Misses: 0
f26-> Hits: 1, Late: 0, Early: 0, Misses: 0
f27-> Hits: 66, Late: 0, Early: 0, Misses: 0
f28-> Hits: 2, Late: 0, Early: 0, Misses: 0
f29-> Hits: 16, Late: 0, Early: 0, Misses: 2
f2a-> Hits: 6, Late: 0, Early: 0, Misses: 0
f2b-> Hits: 58, Late: 1, Early: 0, Misses: 0
f2f-> Hits: 5, Late: 0, Early: 0, Misses: 0
f30-> Hits: 11, Late: 2, Early: 0, Misses: 0
f31-> Hits: 290, Late: 0, Early: 0, Misses: 0
f32-> Hits: 35, Late: 0, Early: 0, Misses: 0
f33-> Hits: 9, Late: 0, Early: 0, Misses: 0
f34-> Hits: 1, Late: 2, Early: 0, Misses: 0
f37-> Hits: 59, Late: 0, Early: 0, Misses: 0
f39-> Hits: 3, Late: 0, Early: 0, Misses: 0
f3b-> Hits: 8, Late: 0, Early: 0, Misses: 0
f3c-> Hits: 8, Late: 0, Early: 0, Misses: 0
f3d-> Hits: 83, Late: 0, Early: 0, Misses: 1
f3e-> Hits: 5, Late: 0, Early: 0, Misses: 0
f3f-> Hits: 15, Late: 0, Early: 0, Misses: 0
f41-> Hits: 8, Late: 0, Early: 0, Misses: 0
f43-> Hits: 10, Late: 0, Early: 0, Misses: 0
f44-> Hits: 4, Late: 0, Early: 0, Misses: 0
f45-> Hits: 8, Late: 0, Early: 0, Misses: 0
f49-> Hits: 2, Late: 0, Early: 0, Misses: 0
f4c-> Hits: 0, Late: 1, Early: 0, Misses: 0
f50-> Hits: 0, Late: 1, Early: 0, Misses: 0
f53-> Hits: 10, Late: 0, Early: 0, Misses: 0
f54-> Hits: 2, Late: 0, Early: 0, Misses: 0
f59-> Hits: 152, Late: 1, Early: 0, Misses: 192
f5a-> Hits: 62, Late: 0, Early: 0, Misses: 0
f5b-> Hits: 1, Late: 0, Early: 0, Misses: 0
f5d-> Hits: 1, Late: 0, Early: 0, Misses: 0
f5e-> Hits: 2, Late: 0, Early: 0, Misses: 0
f5f-> Hits: 2, Late: 0, Early: 0, Misses: 0
f60-> Hits: 13, Late: 2, Early: 0, Misses: 0
f61-> Hits: 0, Late: 0, Early: 0, Misses: 1
f63-> Hits: 2, Late: 0, Early: 0, Misses: 0
f64-> Hits: 0, Late: 0, Early: 0, Misses: 344
f65-> Hits: 4, Late: 1, Early: 0, Misses: 0
f66-> Hits: 8, Late: 0, Early: 0, Misses: 0
f68-> Hits: 2, Late: 0, Early: 0, Misses: 0
f6c-> Hits: 25, Late: 1, Early: 0, Misses: 0
f6d-> Hits: 11, Late: 0, Early: 0, Misses: 0
f6f-> Hits: 11, Late: 2, Early: 0, Misses: 0
f70-> Hits: 0, Late: 60, Early: 0, Misses: 0
f73-> Hits: 1, Late: 1, Early: 0, Misses: 0
f74-> Hits: 2, Late: 0, Early: 0, Misses: 344
f78-> Hits: 0, Late: 0, Early: 0, Misses: 344
f7a-> Hits: 4, Late: 0, Early: 0, Misses: 0
f7d-> Hits: 2, Late: 0, Early: 0, Misses: 16
f7f-> Hits: 3, Late: 1, Early: 0, Misses: 0
f80-> Hits: 4, Late: 1, Early: 0, Misses: 0
f85-> Hits: 3, Late: 0, Early: 0, Misses: 0
f86-> Hits: 2, Late: 1, Early: 0, Misses: 0
f87-> Hits: 14, Late: 0, Early: 0, Misses: 0
f89-> Hits: 1, Late: 0, Early: 0, Misses: 0
f8b-> Hits: 11, Late: 0, Early: 0, Misses: 1
f8c-> Hits: 6, Late: 0, Early: 0, Misses: 0
f8d-> Hits: 4, Late: 0, Early: 0, Misses: 0
f8f-> Hits: 1, Late: 0, Early: 0, Misses: 0
f90-> Hits: 6, Late: 0, Early: 0, Misses: 0
f91-> Hits: 1, Late: 0, Early: 0, Misses: 0
f92-> Hits: 2, Late: 0, Early: 0, Misses: 0
f93-> Hits: 6, Late: 0, Early: 0, Misses: 0
f94-> Hits: 1, Late: 0, Early: 0, Misses: 0
f95-> Hits: 0, Late: 2, Early: 0, Misses: 0
f96-> Hits: 1, Late: 0, Early: 0, Misses: 0
f98-> Hits: 1, Late: 0, Early: 0, Misses: 0
f9a-> Hits: 16, Late: 0, Early: 0, Misses: 0
f9c-> Hits: 3, Late: 0, Early: 0, Misses: 0
f9d-> Hits: 16, Late: 3, Early: 0, Misses: 0
f9e-> Hits: 1, Late: 0, Early: 0, Misses: 0
f9f-> Hits: 7, Late: 0, Early: 0, Misses: 0
fa0-> Hits: 4, Late: 1, Early: 0, Misses: 0
fa1-> Hits: 1, Late: 0, Early: 0, Misses: 0
fa4-> Hits: 1, Late: 0, Early: 0, Misses: 0
faa-> Hits: 3, Late: 0, Early: 0, Misses: 0
fb0-> Hits: 20, Late: 3, Early: 0, Misses: 344
fb1-> Hits: 3, Late: 3, Early: 0, Misses: 0
fb3-> Hits: 10, Late: 0, Early: 0, Misses: 0
fb6-> Hits: 1, Late: 0, Early: 0, Misses: 0
fb8-> Hits: 4, Late: 0, Early: 0, Misses: 0
fba-> Hits: 36, Late: 1, Early: 0, Misses: 0
fbb-> Hits: 56, Late: 2, Early: 0, Misses: 0
fbe-> Hits: 1, Late: 0, Early: 0, Misses: 0
fbf-> Hits: 2, Late: 0, Early: 0, Misses: 0
fc0-> Hits: 3, Late: 0, Early: 0, Misses: 0
fc4-> Hits: 9, Late: 0, Early: 0, Misses: 0
fc5-> Hits: 2, Late: 0, Early: 0, Misses: 0
fc6-> Hits: 2, Late: 0, Early: 0, Misses: 0
fc7-> Hits: 2, Late: 0, Early: 0, Misses: 0
fc8-> Hits: 8, Late: 0, Early: 0, Misses: 0
fca-> Hits: 2, Late: 0, Early: 0, Misses: 0
fcb-> Hits: 1, Late: 0, Early: 0, Misses: 0
fcd-> Hits: 1, Late: 1, Early: 0, Misses: 0
fce-> Hits: 1, Late: 0, Early: 0, Misses: 0
fd0-> Hits: 4, Late: 0, Early: 0, Misses: 0
fd2-> Hits: 1, Late: 0, Early: 0, Misses: 0
fd6-> Hits: 6, Late: 0, Early: 0, Misses: 0
fd7-> Hits: 6, Late: 0, Early: 0, Misses: 0
fd8-> Hits: 10, Late: 0, Early: 0, Misses: 0
fda-> Hits: 6, Late: 0, Early: 0, Misses: 0
fdc-> Hits: 7, Late: 1, Early: 0, Misses: 0
fde-> Hits: 8, Late: 0, Early: 0, Misses: 0
fdf-> Hits: 156, Late: 0, Early: 0, Misses: 25
fe0-> Hits: 7, Late: 0, Early: 0, Misses: 0
fe1-> Hits: 4, Late: 0, Early: 0, Misses: 0
fe2-> Hits: 2, Late: 0, Early: 0, Misses: 0
fe3-> Hits: 4, Late: 0, Early: 0, Misses: 0
fe4-> Hits: 57, Late: 2, Early: 0, Misses: 0
fe5-> Hits: 10, Late: 4, Early: 0, Misses: 0
fe6-> Hits: 2, Late: 0, Early: 0, Misses: 0
fe7-> Hits: 1, Late: 1, Early: 0, Misses: 0
feb-> Hits: 1, Late: 2, Early: 0, Misses: 0
fec-> Hits: 5, Late: 0, Early: 0, Misses: 0
fed-> Hits: 6, Late: 0, Early: 0, Misses: 0
fef-> Hits: 0, Late: 1, Early: 0, Misses: 0
ff0-> Hits: 8, Late: 0, Early: 0, Misses: 0
ff2-> Hits: 9, Late: 1, Early: 0, Misses: 343
ff3-> Hits: 14, Late: 0, Early: 0, Misses: 0
ff5-> Hits: 1, Late: 0, Early: 0, Misses: 0
ff7-> Hits: 4, Late: 0, Early: 0, Misses: 0
ff9-> Hits: 26, Late: 0, Early: 0, Misses: 20
ffd-> Hits: 2, Late: 0, Early: 0, Misses: 0
ffe-> Hits: 22, Late: 0, Early: 0, Misses: 2
fff-> Hits: 12, Late: 0, Early: 0, Misses: 0
Total misses (from ip) 266061
Total accesses (misses) 8568648 266061
Pref: Addr 0 IP 0 Current 0
CPU 0 L2C berti prefetcher final stats
Channel_0_RQ_row_buffer_hit 160865
Channel_0_RQ_row_buffer_miss 111467
Channel_0_WQ_row_buffer_hit 53540
Channel_0_WQ_row_buffer_miss 60974
Channel_0_WQ_full 0
Channel_0_dbus_congested 178718

avg_congested_cycle 10

EzSearch AVG IPC :0.99745: L2-Pf-HR :0.75653 : L2-HR :0.76304 Uful:0.27875
Finished combination: TraceType=777-comparisonScript Sim:34000000 Prefetcher=L2berti L1=berti
