TRACE: [42000000]_FE_OPT-350M_[h16]_[s256]_[d64] Warmup: 2000000 NumTraces: 42000000
L1:bingo_dpc3_PHT1k:L2:bingo_dpc3_PHT1k
*************************************************
   ChampSim Multicore Out-of-Order Simulator
   Last compiled: Oct 20 2024 06:49:05
*************************************************

trace_0 777-comparisonScript_memoryTraces_s256/memTraces[42000000]_FE_OPT-350M_[h16]_[s256]_[d64].champsim.xz
Bingo PHT WAYS: 16 and PHT_SIZE: 1024
Bingo2 PHT WAYS: 16 and PHT_SIZE: 1024
MAIN.cc ln 751 stats print skipped
CPU  0 inst:    1000000 cyc:     502780 now IPC :1.98894: AVG IPC :1.98894: L2-Pf-HR :0.79553: L2-HR :0.67392: (Sim:0h0m2s) 
CPU  0 inst:    2000000 cyc:     981885 now IPC :2.08723: AVG IPC :2.03690: L2-Pf-HR :0.79884: L2-HR :0.74350: (Sim:0h0m5s) 

Warmup complete CPU  0 instructions:    2000004 cycles:     981886 (Simulation time: 0 hr 0 min 5 sec) 

CPU  0 inst:    3000002 cyc:    1593040 now IPC :1.63625: AVG IPC :1.63625: L2-Pf-HR :0.79549: L2-HR :0.81551: (Sim:0h0m8s) 
CPU  0 inst:    4000000 cyc:    2208159 now IPC :1.62570: AVG IPC :1.63095: L2-Pf-HR :0.78699: L2-HR :0.81168: (Sim:0h0m10s) 
CPU  0 inst:    5000002 cyc:    2816975 now IPC :1.64254: AVG IPC :1.63480: L2-Pf-HR :0.78689: L2-HR :0.81219: (Sim:0h0m13s) 
CPU  0 inst:    6000002 cyc:    3430657 now IPC :1.62951: AVG IPC :1.63347: L2-Pf-HR :0.78579: L2-HR :0.81425: (Sim:0h0m15s) 
CPU  0 inst:    7000003 cyc:    4084148 now IPC :1.53024: AVG IPC :1.61173: L2-Pf-HR :0.78530: L2-HR :0.81487: (Sim:0h0m18s) 
CPU  0 inst:    8000000 cyc:    4742819 now IPC :1.51820: AVG IPC :1.59535: L2-Pf-HR :0.78520: L2-HR :0.81511: (Sim:0h0m21s) 
CPU  0 inst:    9000002 cyc:    5418904 now IPC :1.47911: AVG IPC :1.57764: L2-Pf-HR :0.78794: L2-HR :0.81577: (Sim:0h0m23s) 
CPU  0 inst:   10000000 cyc:    6105834 now IPC :1.45575: AVG IPC :1.56130: L2-Pf-HR :0.78257: L2-HR :0.81195: (Sim:0h0m26s) 
CPU  0 inst:   11000001 cyc:    6756926 now IPC :1.53588: AVG IPC :1.55843: L2-Pf-HR :0.78511: L2-HR :0.81445: (Sim:0h0m29s) 
CPU  0 inst:   12000000 cyc:    7409239 now IPC :1.53300: AVG IPC :1.55585: L2-Pf-HR :0.78598: L2-HR :0.81576: (Sim:0h0m31s) 
CPU  0 inst:   13000003 cyc:    8066565 now IPC :1.52132: AVG IPC :1.55265: L2-Pf-HR :0.78807: L2-HR :0.81678: (Sim:0h0m34s) 
CPU  0 inst:   14000003 cyc:    8725784 now IPC :1.51695: AVG IPC :1.54961: L2-Pf-HR :0.78735: L2-HR :0.81650: (Sim:0h0m37s) 
CPU  0 inst:   15000002 cyc:    9396270 now IPC :1.49145: AVG IPC :1.54497: L2-Pf-HR :0.78702: L2-HR :0.81608: (Sim:0h0m40s) 
CPU  0 inst:   16000000 cyc:   10073746 now IPC :1.47606: AVG IPC :1.53984: L2-Pf-HR :0.78792: L2-HR :0.81674: (Sim:0h0m42s) 
CPU  0 inst:   17000000 cyc:   10789856 now IPC :1.39643: AVG IPC :1.52937: L2-Pf-HR :0.79036: L2-HR :0.81679: (Sim:0h0m45s) 
CPU  0 inst:   18000000 cyc:   15774291 now IPC :0.20062: AVG IPC :1.08164: L2-Pf-HR :0.65413: L2-HR :0.74234: (Sim:0h0m52s) 
CPU  0 inst:   19000000 cyc:   19204436 now IPC :0.29153: AVG IPC :0.93291: L2-Pf-HR :0.62747: L2-HR :0.72739: (Sim:0h0m57s) 
CPU  0 inst:   20000000 cyc:   22637123 now IPC :0.29132: AVG IPC :0.83121: L2-Pf-HR :0.60289: L2-HR :0.71348: (Sim:0h1m2s) 
CPU  0 inst:   21000000 cyc:   26073531 now IPC :0.29100: AVG IPC :0.75722: L2-Pf-HR :0.58017: L2-HR :0.70053: (Sim:0h1m7s) 
CPU  0 inst:   22000000 cyc:   29512410 now IPC :0.29079: AVG IPC :0.70100: L2-Pf-HR :0.55910: L2-HR :0.68843: (Sim:0h1m12s) 
CPU  0 inst:   23000000 cyc:   32952476 now IPC :0.29069: AVG IPC :0.65685: L2-Pf-HR :0.53951: L2-HR :0.67711: (Sim:0h1m17s) 
CPU  0 inst:   24000000 cyc:   36392535 now IPC :0.29069: AVG IPC :0.62128: L2-Pf-HR :0.52124: L2-HR :0.66648: (Sim:0h1m22s) 
CPU  0 inst:   25000000 cyc:   39833018 now IPC :0.29066: AVG IPC :0.59200: L2-Pf-HR :0.50417: L2-HR :0.65649: (Sim:0h1m27s) 
CPU  0 inst:   26000002 cyc:   43065645 now IPC :0.30935: AVG IPC :0.57029: L2-Pf-HR :0.49442: L2-HR :0.64928: (Sim:0h1m31s) 
CPU  0 inst:   27000002 cyc:   43784511 now IPC :1.39108: AVG IPC :0.58408: L2-Pf-HR :0.53241: L2-HR :0.67092: (Sim:0h1m35s) 
CPU  0 inst:   28000000 cyc:   44459811 now IPC :1.48082: AVG IPC :0.59800: L2-Pf-HR :0.56436: L2-HR :0.68970: (Sim:0h1m38s) 
CPU  0 inst:   29000003 cyc:   45083798 now IPC :1.60260: AVG IPC :0.61222: L2-Pf-HR :0.59197: L2-HR :0.70677: (Sim:0h1m41s) 
CPU  0 inst:   30000000 cyc:   45707139 now IPC :1.60425: AVG IPC :0.62604: L2-Pf-HR :0.61538: L2-HR :0.72130: (Sim:0h1m44s) 
CPU  0 inst:   31000003 cyc:   46344177 now IPC :1.56977: AVG IPC :0.63930: L2-Pf-HR :0.63485: L2-HR :0.73363: (Sim:0h1m47s) 
CPU  0 inst:   32000000 cyc:   46972592 now IPC :1.59130: AVG IPC :0.65231: L2-Pf-HR :0.65168: L2-HR :0.74449: (Sim:0h1m50s) 
CPU  0 inst:   33000000 cyc:   47587576 now IPC :1.62606: AVG IPC :0.66515: L2-Pf-HR :0.66670: L2-HR :0.75417: (Sim:0h1m53s) 
CPU  0 inst:   34000000 cyc:   48201284 now IPC :1.62944: AVG IPC :0.67769: L2-Pf-HR :0.68008: L2-HR :0.76299: (Sim:0h1m56s) 
CPU  0 inst:   35000001 cyc:   48809097 now IPC :1.64524: AVG IPC :0.68998: L2-Pf-HR :0.69249: L2-HR :0.77130: (Sim:0h1m59s) 
CPU  0 inst:   36000000 cyc:   49422233 now IPC :1.63096: AVG IPC :0.70189: L2-Pf-HR :0.70327: L2-HR :0.77848: (Sim:0h2m2s) 
CPU  0 inst:   37000000 cyc:   50044389 now IPC :1.60731: AVG IPC :0.71338: L2-Pf-HR :0.71264: L2-HR :0.78487: (Sim:0h2m5s) 
CPU  0 inst:   38000003 cyc:   50660081 now IPC :1.62419: AVG IPC :0.72466: L2-Pf-HR :0.72122: L2-HR :0.79072: (Sim:0h2m7s) 
CPU  0 inst:   39000000 cyc:   51270622 now IPC :1.63789: AVG IPC :0.73575: L2-Pf-HR :0.72906: L2-HR :0.79614: (Sim:0h2m10s) 
Finished CPU 0 instr: 37000000 cyc: 50288737 AVG IPC: 0.73575 (Sim time: 0h2m10s)

ChampSim completed all CPUs

[ROI Statistics]
Core_0_instructions 37000000
Core_0_cycles 50288737
Core_0_IPC 0.73575

Core_0_branch_prediction_accuracy 98.43740
Core_0_branch_MPKI 0.50573
Core_0_average_ROB_occupancy_at_mispredict 199.23568

Core_0_L1D_total_access 12231457
Core_0_L1D_total_hit 10838413 L1D_total_Hit Ratio: 0.88611
Core_0_L1D_total_miss 1393044
Core_0_L1D_loads 10125520
Core_0_L1D_load_hit 9574965 L1D_load_Hit Ratio: 0.94563
Core_0_L1D_load_miss 550555
Core_0_L1D_RFOs 1164454
Core_0_L1D_RFO_hit 1159492 L1D_RFO_Hit Ratio: 0.99574
Core_0_L1D_RFO_miss 4962
Core_0_L1D_prefetches 941483
Core_0_L1D_prefetch_hit 103956 L1D_prefetch_Hit Ratio: 0.11042
Core_0_L1D_prefetch_miss 837527
Core_0_L1D_writebacks 0
Core_0_L1D_writeback_hit 0 L1D_writeback_Hit Ratio: -nan
Core_0_L1D_writeback_miss 0
Core_0_L1D_prefetch_requested 1272094
Core_0_L1D_prefetch_issued 1272094
Core_0_L1D_prefetch_useful 847465 L1D_Useful Ratio: 0.66620
Core_0_L1D_prefetch_useless 16881
Core_0_L1D_prefetch_late 143565
Core_0_L1D_average_miss_latency 3021498.98375

Core_0_L1I_total_access 9296106
Core_0_L1I_total_hit 9291399 L1I_total_Hit Ratio: 0.99949
Core_0_L1I_total_miss 4707
Core_0_L1I_loads 9296106
Core_0_L1I_load_hit 9291399 L1I_load_Hit Ratio: 0.99949
Core_0_L1I_load_miss 4707
Core_0_L1I_RFOs 0
Core_0_L1I_RFO_hit 0 L1I_RFO_Hit Ratio: -nan
Core_0_L1I_RFO_miss 0
Core_0_L1I_prefetches 0
Core_0_L1I_prefetch_hit 0 L1I_prefetch_Hit Ratio: -nan
Core_0_L1I_prefetch_miss 0
Core_0_L1I_writebacks 0
Core_0_L1I_writeback_hit 0 L1I_writeback_Hit Ratio: -nan
Core_0_L1I_writeback_miss 0
Core_0_L1I_prefetch_requested 0
Core_0_L1I_prefetch_issued 0
Core_0_L1I_prefetch_useful 0 L1I_Useful Ratio: -nan
Core_0_L1I_prefetch_useless 0
Core_0_L1I_prefetch_late 0
Core_0_L1I_average_miss_latency 244.85936

Core_0_L2C_total_access 1808383
Core_0_L2C_total_hit 1439733 L2C_total_Hit Ratio: 0.79614
Core_0_L2C_total_miss 368650
Core_0_L2C_loads 412558
Core_0_L2C_load_hit 360723 L2C_load_Hit Ratio: 0.87436
Core_0_L2C_load_miss 51835
Core_0_L2C_RFOs 4961
Core_0_L2C_RFO_hit 342 L2C_RFO_Hit Ratio: 0.06894
Core_0_L2C_RFO_miss 4619
Core_0_L2C_prefetches 1151466
Core_0_L2C_prefetch_hit 839489 L2C_prefetch_Hit Ratio: 0.72906
Core_0_L2C_prefetch_miss 311977
Core_0_L2C_writebacks 239398
Core_0_L2C_writeback_hit 239179 L2C_writeback_Hit Ratio: 0.99909
Core_0_L2C_writeback_miss 219
Core_0_L2C_prefetch_requested 202110
Core_0_L2C_prefetch_issued 202110
Core_0_L2C_prefetch_useful 86617 L2C_Useful Ratio: 0.42856
Core_0_L2C_prefetch_useless 229993
Core_0_L2C_prefetch_late 4119
Core_0_L2C_average_miss_latency 336.14512

Core_0_LLC_total_access 576356
Core_0_LLC_total_hit 208136 LLC_total_Hit Ratio: 0.36112
Core_0_LLC_total_miss 368220
Core_0_LLC_loads 47763
Core_0_LLC_load_hit 439 LLC_load_Hit Ratio: 0.00919
Core_0_LLC_load_miss 47324
Core_0_LLC_RFOs 4619
Core_0_LLC_RFO_hit 123 LLC_RFO_Hit Ratio: 0.02663
Core_0_LLC_RFO_miss 4496
Core_0_LLC_prefetches 316047
Core_0_LLC_prefetch_hit 801 LLC_prefetch_Hit Ratio: 0.00253
Core_0_LLC_prefetch_miss 315246
Core_0_LLC_writebacks 207927
Core_0_LLC_writeback_hit 206773 LLC_writeback_Hit Ratio: 0.99445
Core_0_LLC_writeback_miss 1154
Core_0_LLC_prefetch_requested 0
Core_0_LLC_prefetch_issued 0
Core_0_LLC_prefetch_useful 102 LLC_Useful Ratio: inf
Core_0_LLC_prefetch_useless 292576
Core_0_LLC_prefetch_late 0
Core_0_LLC_average_miss_latency 306.81123

Core_0_major_page_fault 0
Core_0_minor_page_fault 3908

[Bingo] PHT Access: 154375
[Bingo] PHT Hit PC+Addr: 65815
[Bingo] PHT Hit PC+Offs: 72362
[Bingo] PHT Miss: 16198
[Bingo] Prefetch PC+Addr: 0
[Bingo] Prefetch PC+Offs: 0
[Bingo] Useful PC+Addr: 0
[Bingo] Useful PC+Offs: 0
[Bingo] Useless PC+Addr: 0
[Bingo] Useless PC+Offs: 0
[Bingo] L1 Prefetch per Region: 9.91629
[Bingo] L2 Prefetch per Region: 0.52984
[Bingo] L3 Prefetch per Region: 0.00000
[Bingo] No Prefetch per Region: 21.55387
[Bingo] Number of Voters Mean: 9.95499
[Bingo] Number of Voters SD: 6.78356
PHT read accesses: 2021191
PHT write accesses: 147215
AT read accesses: 9451792
AT write accesses: 9451793
FT read accesses: 1847472
FT write accesses: 154375
PS read accesses: 605998
PS write accesses: 138177
PHT tag read accesses: 5670350
PHT tag write accesses: 213030
AT tag read accesses: 189837409
AT tag write accesses: 9599008
FT tag read accesses: 43330476
FT tag write accesses: 1155236
PS tag read accesses: 167078406
PS tag write accesses: 741443
[Bingo2] PHT Access: 23277
[Bingo2] PHT Hit PC+Addr: 1347
[Bingo2] PHT Hit PC+Offs: 19157
[Bingo2] PHT Miss: 2773
[Bingo2] Prefetch PC+Addr: 0
[Bingo2] Prefetch PC+Offs: 0
[Bingo2] Useful PC+Addr: 0
[Bingo2] Useful PC+Offs: 0
[Bingo2] Useless PC+Addr: 0
[Bingo2] Useless PC+Offs: 0
[Bingo2] L1 Prefetch per Region: 0.00000
[Bingo2] L2 Prefetch per Region: 13.68777
[Bingo2] L3 Prefetch per Region: 0.00000
[Bingo2] No Prefetch per Region: 18.31223
[Bingo2] Number of Voters Mean: 13.85144
[Bingo2] Number of Voters SD: 4.74203
PHT read accesses: 354763
PHT write accesses: 19507
AT read accesses: 383970
AT write accesses: 403124
FT read accesses: 70336
FT write accesses: 23277
PS read accesses: 62159
PS write accesses: 20504
PHT tag read accesses: 970263
PHT tag write accesses: 20854
AT tag read accesses: 13433104
AT tag write accesses: 403477
FT tag read accesses: 7545665
FT tag write accesses: 68442
PS tag read accesses: 7279510
PS tag write accesses: 80468
Channel_0_RQ_row_buffer_hit 208158
Channel_0_RQ_row_buffer_miss 158908
Channel_0_WQ_row_buffer_hit 72861
Channel_0_WQ_row_buffer_miss 133052
Channel_0_WQ_full 0
Channel_0_dbus_congested 462564

avg_congested_cycle 11

EzSearch AVG IPC :0.73575: L2-Pf-HR :0.72906 : L2-HR :0.79614 Uful:0.42856
Finished combination: TraceType=777-comparisonScript Sim:37000000 Prefetcher=L2bingo_dpc3_PHT1k L1=bingo_dpc3_PHT1k
