TRACE: [75000000]_FE_OPT-1_3B_[h16]_[s256]_[d128] Warmup: 2000000 NumTraces: 75000000
L1:bingo_dpc3_PHT1k:L2:bingo_dpc3_PHT1k
*************************************************
   ChampSim Multicore Out-of-Order Simulator
   Last compiled: Oct 20 2024 06:49:05
*************************************************

trace_0 777-comparisonScript_memoryTraces_s256/memTraces[75000000]_FE_OPT-1_3B_[h16]_[s256]_[d128].champsim.xz
Bingo PHT WAYS: 16 and PHT_SIZE: 1024
Bingo2 PHT WAYS: 16 and PHT_SIZE: 1024
MAIN.cc ln 751 stats print skipped
CPU  0 inst:    1000002 cyc:     503634 now IPC :1.98557: AVG IPC :1.98557: L2-Pf-HR :0.68990: L2-HR :0.62727: (Sim:0h0m2s) 
CPU  0 inst:    2000001 cyc:     980859 now IPC :2.09545: AVG IPC :2.03903: L2-Pf-HR :0.78485: L2-HR :0.71646: (Sim:0h0m5s) 

Warmup complete CPU  0 instructions:    2000001 cycles:     980859 (Simulation time: 0 hr 0 min 5 sec) 

CPU  0 inst:    3000000 cyc:    1625695 now IPC :1.55078: AVG IPC :1.55078: L2-Pf-HR :0.83854: L2-HR :0.79327: (Sim:0h0m7s) 
CPU  0 inst:    4000000 cyc:    2189577 now IPC :1.77342: AVG IPC :1.65464: L2-Pf-HR :0.85781: L2-HR :0.81385: (Sim:0h0m10s) 
CPU  0 inst:    5000000 cyc:    2795879 now IPC :1.64934: AVG IPC :1.65287: L2-Pf-HR :0.83715: L2-HR :0.80982: (Sim:0h0m12s) 
CPU  0 inst:    6000002 cyc:    3344298 now IPC :1.82343: AVG IPC :1.69245: L2-Pf-HR :0.84943: L2-HR :0.82386: (Sim:0h0m15s) 
CPU  0 inst:    7000002 cyc:    3977815 now IPC :1.57849: AVG IPC :1.66836: L2-Pf-HR :0.84157: L2-HR :0.81626: (Sim:0h0m17s) 
CPU  0 inst:    8000000 cyc:    4529217 now IPC :1.81356: AVG IPC :1.69092: L2-Pf-HR :0.84612: L2-HR :0.82257: (Sim:0h0m20s) 
CPU  0 inst:    9000003 cyc:    5144669 now IPC :1.62483: AVG IPC :1.68115: L2-Pf-HR :0.83998: L2-HR :0.82059: (Sim:0h0m22s) 
CPU  0 inst:   10000003 cyc:    5713436 now IPC :1.75819: AVG IPC :1.69041: L2-Pf-HR :0.84228: L2-HR :0.82525: (Sim:0h0m25s) 
CPU  0 inst:   11000000 cyc:    6374813 now IPC :1.51199: AVG IPC :1.66853: L2-Pf-HR :0.84061: L2-HR :0.82281: (Sim:0h0m27s) 
CPU  0 inst:   12000000 cyc:    6970918 now IPC :1.67756: AVG IPC :1.66943: L2-Pf-HR :0.84088: L2-HR :0.82365: (Sim:0h0m30s) 
CPU  0 inst:   13000002 cyc:    7625615 now IPC :1.52743: AVG IPC :1.65544: L2-Pf-HR :0.84127: L2-HR :0.82335: (Sim:0h0m32s) 
CPU  0 inst:   14000000 cyc:    8197684 now IPC :1.74804: AVG IPC :1.66278: L2-Pf-HR :0.84367: L2-HR :0.82629: (Sim:0h0m35s) 
CPU  0 inst:   15000002 cyc:    8832702 now IPC :1.57476: AVG IPC :1.65566: L2-Pf-HR :0.83949: L2-HR :0.82300: (Sim:0h0m37s) 
CPU  0 inst:   16000000 cyc:    9405450 now IPC :1.74597: AVG IPC :1.66180: L2-Pf-HR :0.84083: L2-HR :0.82517: (Sim:0h0m40s) 
CPU  0 inst:   17000000 cyc:   10017365 now IPC :1.63421: AVG IPC :1.65993: L2-Pf-HR :0.83945: L2-HR :0.82477: (Sim:0h0m42s) 
CPU  0 inst:   18000003 cyc:   10592970 now IPC :1.73731: AVG IPC :1.66457: L2-Pf-HR :0.84029: L2-HR :0.82586: (Sim:0h0m45s) 
CPU  0 inst:   19000000 cyc:   11243790 now IPC :1.53652: AVG IPC :1.65645: L2-Pf-HR :0.83913: L2-HR :0.82408: (Sim:0h0m47s) 
CPU  0 inst:   20000000 cyc:   11808186 now IPC :1.77181: AVG IPC :1.66246: L2-Pf-HR :0.84074: L2-HR :0.82549: (Sim:0h0m50s) 
CPU  0 inst:   21000001 cyc:   12452607 now IPC :1.55178: AVG IPC :1.65624: L2-Pf-HR :0.83776: L2-HR :0.82348: (Sim:0h0m52s) 
CPU  0 inst:   22000002 cyc:   13022713 now IPC :1.75406: AVG IPC :1.66087: L2-Pf-HR :0.84068: L2-HR :0.82541: (Sim:0h0m55s) 
CPU  0 inst:   23000002 cyc:   13684074 now IPC :1.51203: AVG IPC :1.65312: L2-Pf-HR :0.83812: L2-HR :0.82342: (Sim:0h0m57s) 
CPU  0 inst:   24000000 cyc:   14242159 now IPC :1.79184: AVG IPC :1.65896: L2-Pf-HR :0.83980: L2-HR :0.82543: (Sim:0h1m0s) 
CPU  0 inst:   25000001 cyc:   14857735 now IPC :1.62450: AVG IPC :1.65743: L2-Pf-HR :0.83835: L2-HR :0.82482: (Sim:0h1m2s) 
CPU  0 inst:   26000001 cyc:   15435561 now IPC :1.73062: AVG IPC :1.66036: L2-Pf-HR :0.83991: L2-HR :0.82559: (Sim:0h1m5s) 
CPU  0 inst:   27000003 cyc:   16068241 now IPC :1.58058: AVG IPC :1.65701: L2-Pf-HR :0.83926: L2-HR :0.82484: (Sim:0h1m7s) 
CPU  0 inst:   28000000 cyc:   16649994 now IPC :1.71894: AVG IPC :1.65931: L2-Pf-HR :0.83964: L2-HR :0.82521: (Sim:0h1m10s) 
CPU  0 inst:   29000001 cyc:   17297855 now IPC :1.54354: AVG IPC :1.65472: L2-Pf-HR :0.83939: L2-HR :0.82499: (Sim:0h1m12s) 
CPU  0 inst:   30000000 cyc:   17879178 now IPC :1.72021: AVG IPC :1.65697: L2-Pf-HR :0.83976: L2-HR :0.82533: (Sim:0h1m15s) 
CPU  0 inst:   31000002 cyc:   18454887 now IPC :1.73699: AVG IPC :1.65961: L2-Pf-HR :0.84173: L2-HR :0.82676: (Sim:0h1m17s) 
CPU  0 inst:   32000000 cyc:   19092571 now IPC :1.56817: AVG IPC :1.65639: L2-Pf-HR :0.84014: L2-HR :0.82545: (Sim:0h1m20s) 
CPU  0 inst:   33000000 cyc:   19709167 now IPC :1.62181: AVG IPC :1.65525: L2-Pf-HR :0.84259: L2-HR :0.82632: (Sim:0h1m22s) 
CPU  0 inst:   34000000 cyc:   24403589 now IPC :0.21302: AVG IPC :1.36619: L2-Pf-HR :0.75062: L2-HR :0.77219: (Sim:0h1m29s) 
CPU  0 inst:   35000000 cyc:   27834061 now IPC :0.29151: AVG IPC :1.22890: L2-Pf-HR :0.73070: L2-HR :0.76070: (Sim:0h1m34s) 
CPU  0 inst:   36000000 cyc:   31267119 now IPC :0.29129: AVG IPC :1.12262: L2-Pf-HR :0.71181: L2-HR :0.74980: (Sim:0h1m39s) 
CPU  0 inst:   37000000 cyc:   34703291 now IPC :0.29102: AVG IPC :1.03788: L2-Pf-HR :0.69387: L2-HR :0.73944: (Sim:0h1m44s) 
CPU  0 inst:   38000000 cyc:   38142398 now IPC :0.29077: AVG IPC :0.96874: L2-Pf-HR :0.67681: L2-HR :0.72959: (Sim:0h1m49s) 
CPU  0 inst:   39000000 cyc:   41583127 now IPC :0.29064: AVG IPC :0.91128: L2-Pf-HR :0.66057: L2-HR :0.72020: (Sim:0h1m54s) 
CPU  0 inst:   40000000 cyc:   45023848 now IPC :0.29064: AVG IPC :0.86279: L2-Pf-HR :0.64509: L2-HR :0.71125: (Sim:0h1m59s) 
CPU  0 inst:   41000000 cyc:   48464505 now IPC :0.29064: AVG IPC :0.82134: L2-Pf-HR :0.63032: L2-HR :0.70270: (Sim:0h2m4s) 
CPU  0 inst:   42000001 cyc:   51975647 now IPC :0.28481: AVG IPC :0.78439: L2-Pf-HR :0.61442: L2-HR :0.69257: (Sim:0h2m9s) 
CPU  0 inst:   43000000 cyc:   52745583 now IPC :1.29881: AVG IPC :0.79205: L2-Pf-HR :0.61937: L2-HR :0.69387: (Sim:0h2m11s) 
CPU  0 inst:   44000000 cyc:   53304171 now IPC :1.79023: AVG IPC :0.80270: L2-Pf-HR :0.62997: L2-HR :0.69943: (Sim:0h2m14s) 
CPU  0 inst:   45000003 cyc:   54016030 now IPC :1.40478: AVG IPC :0.81078: L2-Pf-HR :0.63734: L2-HR :0.70300: (Sim:0h2m16s) 
CPU  0 inst:   46000000 cyc:   54580820 now IPC :1.77056: AVG IPC :0.82090: L2-Pf-HR :0.64703: L2-HR :0.70836: (Sim:0h2m19s) 
CPU  0 inst:   47000002 cyc:   55305558 now IPC :1.37981: AVG IPC :0.82835: L2-Pf-HR :0.65252: L2-HR :0.71086: (Sim:0h2m22s) 
CPU  0 inst:   48000000 cyc:   55858320 now IPC :1.80909: AVG IPC :0.83823: L2-Pf-HR :0.66155: L2-HR :0.71601: (Sim:0h2m24s) 
CPU  0 inst:   49000001 cyc:   56508678 now IPC :1.53762: AVG IPC :0.84642: L2-Pf-HR :0.66547: L2-HR :0.71787: (Sim:0h2m27s) 
CPU  0 inst:   50000000 cyc:   57036293 now IPC :1.89532: AVG IPC :0.85630: L2-Pf-HR :0.67359: L2-HR :0.72265: (Sim:0h2m29s) 
CPU  0 inst:   51000002 cyc:   57714899 now IPC :1.47361: AVG IPC :0.86368: L2-Pf-HR :0.67664: L2-HR :0.72415: (Sim:0h2m32s) 
CPU  0 inst:   52000000 cyc:   58261122 now IPC :1.83075: AVG IPC :0.87290: L2-Pf-HR :0.68388: L2-HR :0.72847: (Sim:0h2m34s) 
CPU  0 inst:   53000002 cyc:   58923829 now IPC :1.50897: AVG IPC :0.88018: L2-Pf-HR :0.68631: L2-HR :0.72966: (Sim:0h2m37s) 
CPU  0 inst:   54000003 cyc:   59447919 now IPC :1.90807: AVG IPC :0.88939: L2-Pf-HR :0.69278: L2-HR :0.73365: (Sim:0h2m40s) 
CPU  0 inst:   55000001 cyc:   60097765 now IPC :1.53882: AVG IPC :0.89653: L2-Pf-HR :0.69513: L2-HR :0.73491: (Sim:0h2m42s) 
CPU  0 inst:   56000000 cyc:   60630082 now IPC :1.87858: AVG IPC :0.90529: L2-Pf-HR :0.70095: L2-HR :0.73847: (Sim:0h2m45s) 
CPU  0 inst:   57000001 cyc:   61276492 now IPC :1.54701: AVG IPC :0.91217: L2-Pf-HR :0.70319: L2-HR :0.73962: (Sim:0h2m47s) 
CPU  0 inst:   58000001 cyc:   61825911 now IPC :1.82010: AVG IPC :0.92037: L2-Pf-HR :0.70814: L2-HR :0.74264: (Sim:0h2m50s) 
CPU  0 inst:   59000001 cyc:   62460335 now IPC :1.57623: AVG IPC :0.92714: L2-Pf-HR :0.71040: L2-HR :0.74398: (Sim:0h2m52s) 
CPU  0 inst:   60000000 cyc:   63010818 now IPC :1.81658: AVG IPC :0.93503: L2-Pf-HR :0.71448: L2-HR :0.74648: (Sim:0h2m55s) 
CPU  0 inst:   61000001 cyc:   63654084 now IPC :1.55457: AVG IPC :0.94139: L2-Pf-HR :0.71710: L2-HR :0.74801: (Sim:0h2m57s) 
CPU  0 inst:   62000001 cyc:   64203966 now IPC :1.81857: AVG IPC :0.94902: L2-Pf-HR :0.72012: L2-HR :0.74984: (Sim:0h3m0s) 
CPU  0 inst:   63000003 cyc:   64765305 now IPC :1.78146: AVG IPC :0.95635: L2-Pf-HR :0.72413: L2-HR :0.75256: (Sim:0h3m2s) 
CPU  0 inst:   64000000 cyc:   65378941 now IPC :1.62963: AVG IPC :0.96276: L2-Pf-HR :0.72552: L2-HR :0.75323: (Sim:0h3m5s) 
CPU  0 inst:   65000002 cyc:   65913544 now IPC :1.87055: AVG IPC :0.97024: L2-Pf-HR :0.72936: L2-HR :0.75579: (Sim:0h3m7s) 
CPU  0 inst:   66000002 cyc:   66559061 now IPC :1.54915: AVG IPC :0.97593: L2-Pf-HR :0.73021: L2-HR :0.75605: (Sim:0h3m10s) 
CPU  0 inst:   67000002 cyc:   67093169 now IPC :1.87228: AVG IPC :0.98318: L2-Pf-HR :0.73398: L2-HR :0.75842: (Sim:0h3m12s) 
CPU  0 inst:   68000000 cyc:   67748237 now IPC :1.52656: AVG IPC :0.98851: L2-Pf-HR :0.73498: L2-HR :0.75891: (Sim:0h3m15s) 
CPU  0 inst:   69000003 cyc:   68283248 now IPC :1.86913: AVG IPC :0.99551: L2-Pf-HR :0.73850: L2-HR :0.76120: (Sim:0h3m17s) 
CPU  0 inst:   70000002 cyc:   68941112 now IPC :1.52007: AVG IPC :1.00058: L2-Pf-HR :0.73878: L2-HR :0.76118: (Sim:0h3m20s) 
CPU  0 inst:   71000001 cyc:   69477212 now IPC :1.86532: AVG IPC :1.00735: L2-Pf-HR :0.74236: L2-HR :0.76350: (Sim:0h3m22s) 
CPU  0 inst:   72000000 cyc:   70131011 now IPC :1.52952: AVG IPC :1.01229: L2-Pf-HR :0.74289: L2-HR :0.76370: (Sim:0h3m25s) 
Finished CPU 0 instr: 70000000 cyc: 69150160 AVG IPC: 1.01229 (Sim time: 0h3m25s)

ChampSim completed all CPUs

[ROI Statistics]
Core_0_instructions 70000000
Core_0_cycles 69150160
Core_0_IPC 1.01229

Core_0_branch_prediction_accuracy 97.65692
Core_0_branch_MPKI 0.58830
Core_0_average_ROB_occupancy_at_mispredict 228.66548

Core_0_L1D_total_access 20295747
Core_0_L1D_total_hit 18615100 L1D_total_Hit Ratio: 0.91719
Core_0_L1D_total_miss 1680647
Core_0_L1D_loads 16053520
Core_0_L1D_load_hit 15629501 L1D_load_Hit Ratio: 0.97359
Core_0_L1D_load_miss 424019
Core_0_L1D_RFOs 1596567
Core_0_L1D_RFO_hit 1577915 L1D_RFO_Hit Ratio: 0.98832
Core_0_L1D_RFO_miss 18652
Core_0_L1D_prefetches 2645660
Core_0_L1D_prefetch_hit 1407684 L1D_prefetch_Hit Ratio: 0.53207
Core_0_L1D_prefetch_miss 1237976
Core_0_L1D_writebacks 0
Core_0_L1D_writeback_hit 0 L1D_writeback_Hit Ratio: -nan
Core_0_L1D_writeback_miss 0
Core_0_L1D_prefetch_requested 2914439
Core_0_L1D_prefetch_issued 2914439
Core_0_L1D_prefetch_useful 1256835 L1D_Useful Ratio: 0.43124
Core_0_L1D_prefetch_useless 7352
Core_0_L1D_prefetch_late 123265
Core_0_L1D_average_miss_latency 2835800.31187

Core_0_L1I_total_access 15820554
Core_0_L1I_total_hit 15815703 L1I_total_Hit Ratio: 0.99969
Core_0_L1I_total_miss 4851
Core_0_L1I_loads 15820554
Core_0_L1I_load_hit 15815703 L1I_load_Hit Ratio: 0.99969
Core_0_L1I_load_miss 4851
Core_0_L1I_RFOs 0
Core_0_L1I_RFO_hit 0 L1I_RFO_Hit Ratio: -nan
Core_0_L1I_RFO_miss 0
Core_0_L1I_prefetches 0
Core_0_L1I_prefetch_hit 0 L1I_prefetch_Hit Ratio: -nan
Core_0_L1I_prefetch_miss 0
Core_0_L1I_writebacks 0
Core_0_L1I_writeback_hit 0 L1I_writeback_Hit Ratio: -nan
Core_0_L1I_writeback_miss 0
Core_0_L1I_prefetch_requested 0
Core_0_L1I_prefetch_issued 0
Core_0_L1I_prefetch_useful 0 L1I_Useful Ratio: -nan
Core_0_L1I_prefetch_useless 0
Core_0_L1I_prefetch_late 0
Core_0_L1I_average_miss_latency 237.99278

Core_0_L2C_total_access 2264146
Core_0_L2C_total_hit 1729126 L2C_total_Hit Ratio: 0.76370
Core_0_L2C_total_miss 535020
Core_0_L2C_loads 306216
Core_0_L2C_load_hit 187444 L2C_load_Hit Ratio: 0.61213
Core_0_L2C_load_miss 118772
Core_0_L2C_RFOs 18645
Core_0_L2C_RFO_hit 7941 L2C_RFO_Hit Ratio: 0.42591
Core_0_L2C_RFO_miss 10704
Core_0_L2C_prefetches 1565331
Core_0_L2C_prefetch_hit 1162871 L2C_prefetch_Hit Ratio: 0.74289
Core_0_L2C_prefetch_miss 402460
Core_0_L2C_writebacks 373954
Core_0_L2C_writeback_hit 370870 L2C_writeback_Hit Ratio: 0.99175
Core_0_L2C_writeback_miss 3084
Core_0_L2C_prefetch_requested 351866
Core_0_L2C_prefetch_issued 351866
Core_0_L2C_prefetch_useful 56206 L2C_Useful Ratio: 0.15974
Core_0_L2C_prefetch_useless 346107
Core_0_L2C_prefetch_late 10874
Core_0_L2C_average_miss_latency 282.32967

Core_0_LLC_total_access 807999
Core_0_LLC_total_hit 352017 LLC_total_Hit Ratio: 0.43567
Core_0_LLC_total_miss 455982
Core_0_LLC_loads 107904
Core_0_LLC_load_hit 18620 LLC_load_Hit Ratio: 0.17256
Core_0_LLC_load_miss 89284
Core_0_LLC_RFOs 10702
Core_0_LLC_RFO_hit 5743 LLC_RFO_Hit Ratio: 0.53663
Core_0_LLC_RFO_miss 4959
Core_0_LLC_prefetches 413328
Core_0_LLC_prefetch_hit 56222 LLC_prefetch_Hit Ratio: 0.13602
Core_0_LLC_prefetch_miss 357106
Core_0_LLC_writebacks 276065
Core_0_LLC_writeback_hit 271432 LLC_writeback_Hit Ratio: 0.98322
Core_0_LLC_writeback_miss 4633
Core_0_LLC_prefetch_requested 0
Core_0_LLC_prefetch_issued 0
Core_0_LLC_prefetch_useful 9719 LLC_Useful Ratio: inf
Core_0_LLC_prefetch_useless 331576
Core_0_LLC_prefetch_late 0
Core_0_LLC_average_miss_latency 297.51739

Core_0_major_page_fault 0
Core_0_minor_page_fault 5055

[Bingo] PHT Access: 164582
[Bingo] PHT Hit PC+Addr: 91622
[Bingo] PHT Hit PC+Offs: 66791
[Bingo] PHT Miss: 6169
[Bingo] Prefetch PC+Addr: 0
[Bingo] Prefetch PC+Offs: 0
[Bingo] Useful PC+Addr: 0
[Bingo] Useful PC+Offs: 0
[Bingo] Useless PC+Addr: 0
[Bingo] Useless PC+Offs: 0
[Bingo] L1 Prefetch per Region: 20.12295
[Bingo] L2 Prefetch per Region: 0.01303
[Bingo] L3 Prefetch per Region: 0.00000
[Bingo] No Prefetch per Region: 11.86402
[Bingo] Number of Voters Mean: 14.31856
[Bingo] Number of Voters SD: 3.95189
PHT read accesses: 1920755
PHT write accesses: 157070
AT read accesses: 15412705
AT write accesses: 15412704
FT read accesses: 1831511
FT write accesses: 164582
PS read accesses: 1173264
PS write accesses: 158413
PHT tag read accesses: 5486782
PHT tag write accesses: 248692
AT tag read accesses: 289815480
AT tag write accesses: 15569774
FT tag read accesses: 48192779
FT tag write accesses: 1162559
PS tag read accesses: 262731727
PS tag write accesses: 1326010
[Bingo2] PHT Access: 62177
[Bingo2] PHT Hit PC+Addr: 3161
[Bingo2] PHT Hit PC+Offs: 40233
[Bingo2] PHT Miss: 18783
[Bingo2] Prefetch PC+Addr: 0
[Bingo2] Prefetch PC+Offs: 0
[Bingo2] Useful PC+Addr: 0
[Bingo2] Useful PC+Offs: 0
[Bingo2] Useless PC+Addr: 0
[Bingo2] Useless PC+Offs: 0
[Bingo2] L1 Prefetch per Region: 0.00000
[Bingo2] L2 Prefetch per Region: 11.98472
[Bingo2] L3 Prefetch per Region: 0.00000
[Bingo2] No Prefetch per Region: 20.01528
[Bingo2] Number of Voters Mean: 10.89230
[Bingo2] Number of Voters SD: 6.08778
PHT read accesses: 961444
PHT write accesses: 35434
AT read accesses: 248272
AT write accesses: 276146
FT read accesses: 113618
FT write accesses: 62177
PS read accesses: 102300
PS write accesses: 43394
PHT tag read accesses: 2067956
PHT tag write accesses: 38595
AT tag read accesses: 15103097
AT tag write accesses: 283703
FT tag read accesses: 12459898
FT tag write accesses: 137040
PS tag read accesses: 6373529
PS tag write accesses: 141107
Channel_0_RQ_row_buffer_hit 294549
Channel_0_RQ_row_buffer_miss 156800
Channel_0_WQ_row_buffer_hit 92856
Channel_0_WQ_row_buffer_miss 131312
Channel_0_WQ_full 0
Channel_0_dbus_congested 493053

avg_congested_cycle 11

EzSearch AVG IPC :1.01229: L2-Pf-HR :0.74289 : L2-HR :0.76370 Uful:0.15974
Finished combination: TraceType=777-comparisonScript Sim:70000000 Prefetcher=L2bingo_dpc3_PHT1k L1=bingo_dpc3_PHT1k
