TRACE: [39000000]_FE_[OPT-6_7B]_[h32]_[s128]_[d128] Warmup: 2000000 NumTraces: 39000000
L1:no:L2:no
*************************************************
   ChampSim Multicore Out-of-Order Simulator
   Last compiled: Oct 18 2024 17:01:11
*************************************************

trace_0 777-comparisonScript_memoryTraces_s128/memTraces[39000000]_FE_[OPT-6_7B]_[h32]_[s128]_[d128].champsim.xz
MAIN.cc ln 751 stats print skipped
CPU  0 inst:    1000002 cyc:     514606 now IPC :1.94324: AVG IPC :1.94324: L2-Pf-HR :-nan: L2-HR :0.65264: (Sim:0h0m2s) 
CPU  0 inst:    2000001 cyc:    1006872 now IPC :2.03142: AVG IPC :1.98635: L2-Pf-HR :-nan: L2-HR :0.71701: (Sim:0h0m5s) 

Warmup complete CPU  0 instructions:    2000001 cycles:    1006872 (Simulation time: 0 hr 0 min 5 sec) 

CPU  0 inst:    3000001 cyc:    1796906 now IPC :1.26577: AVG IPC :1.26577: L2-Pf-HR :-nan: L2-HR :0.78361: (Sim:0h0m7s) 
CPU  0 inst:    4000000 cyc:    2582885 now IPC :1.27230: AVG IPC :1.26902: L2-Pf-HR :-nan: L2-HR :0.78502: (Sim:0h0m9s) 
CPU  0 inst:    5000003 cyc:    3330345 now IPC :1.33787: AVG IPC :1.29117: L2-Pf-HR :-nan: L2-HR :0.78692: (Sim:0h0m12s) 
CPU  0 inst:    6000001 cyc:    4129109 now IPC :1.25193: AVG IPC :1.28113: L2-Pf-HR :-nan: L2-HR :0.78681: (Sim:0h0m14s) 
CPU  0 inst:    7000002 cyc:    4953845 now IPC :1.21251: AVG IPC :1.26679: L2-Pf-HR :-nan: L2-HR :0.78618: (Sim:0h0m16s) 
CPU  0 inst:    8000000 cyc:    5783716 now IPC :1.20500: AVG IPC :1.25606: L2-Pf-HR :-nan: L2-HR :0.78605: (Sim:0h0m19s) 
CPU  0 inst:    9000003 cyc:    6609509 now IPC :1.21096: AVG IPC :1.24941: L2-Pf-HR :-nan: L2-HR :0.78584: (Sim:0h0m21s) 
CPU  0 inst:   10000001 cyc:    7377962 now IPC :1.30131: AVG IPC :1.25567: L2-Pf-HR :-nan: L2-HR :0.78686: (Sim:0h0m24s) 
CPU  0 inst:   11000003 cyc:    8222346 now IPC :1.18430: AVG IPC :1.24732: L2-Pf-HR :-nan: L2-HR :0.78597: (Sim:0h0m26s) 
CPU  0 inst:   12000000 cyc:    9041898 now IPC :1.22018: AVG IPC :1.24455: L2-Pf-HR :-nan: L2-HR :0.78572: (Sim:0h0m28s) 
CPU  0 inst:   13000002 cyc:    9857291 now IPC :1.22640: AVG IPC :1.24288: L2-Pf-HR :-nan: L2-HR :0.78628: (Sim:0h0m31s) 
CPU  0 inst:   14000000 cyc:   10687963 now IPC :1.20384: AVG IPC :1.23953: L2-Pf-HR :-nan: L2-HR :0.78598: (Sim:0h0m33s) 
CPU  0 inst:   15000001 cyc:   11470507 now IPC :1.27788: AVG IPC :1.24240: L2-Pf-HR :-nan: L2-HR :0.78681: (Sim:0h0m35s) 
CPU  0 inst:   16000000 cyc:   12293383 now IPC :1.21525: AVG IPC :1.24042: L2-Pf-HR :-nan: L2-HR :0.78604: (Sim:0h0m38s) 
CPU  0 inst:   17000003 cyc:   13127704 now IPC :1.19858: AVG IPC :1.23754: L2-Pf-HR :-nan: L2-HR :0.78593: (Sim:0h0m40s) 
CPU  0 inst:   18000001 cyc:   14742731 now IPC :0.61918: AVG IPC :1.16483: L2-Pf-HR :-nan: L2-HR :0.75610: (Sim:0h0m43s) 
CPU  0 inst:   19000001 cyc:   19222919 now IPC :0.22320: AVG IPC :0.93324: L2-Pf-HR :-nan: L2-HR :0.72600: (Sim:0h0m48s) 
CPU  0 inst:   20000000 cyc:   24025309 now IPC :0.20823: AVG IPC :0.78198: L2-Pf-HR :-nan: L2-HR :0.70860: (Sim:0h0m53s) 
CPU  0 inst:   21000002 cyc:   28886654 now IPC :0.20570: AVG IPC :0.68150: L2-Pf-HR :-nan: L2-HR :0.69267: (Sim:0h0m58s) 
CPU  0 inst:   22000003 cyc:   33753001 now IPC :0.20549: AVG IPC :0.61076: L2-Pf-HR :-nan: L2-HR :0.67804: (Sim:0h1m3s) 
CPU  0 inst:   23000003 cyc:   36484265 now IPC :0.36613: AVG IPC :0.59193: L2-Pf-HR :-nan: L2-HR :0.67182: (Sim:0h1m7s) 
CPU  0 inst:   24000000 cyc:   37280875 now IPC :1.25532: AVG IPC :0.60649: L2-Pf-HR :-nan: L2-HR :0.67758: (Sim:0h1m9s) 
CPU  0 inst:   25000001 cyc:   38147588 now IPC :1.15379: AVG IPC :0.61927: L2-Pf-HR :-nan: L2-HR :0.68273: (Sim:0h1m11s) 
CPU  0 inst:   26000003 cyc:   38998381 now IPC :1.17538: AVG IPC :0.63172: L2-Pf-HR :-nan: L2-HR :0.68777: (Sim:0h1m14s) 
CPU  0 inst:   27000000 cyc:   39850920 now IPC :1.17296: AVG IPC :0.64360: L2-Pf-HR :-nan: L2-HR :0.69219: (Sim:0h1m16s) 
CPU  0 inst:   28000000 cyc:   40677806 now IPC :1.20936: AVG IPC :0.65539: L2-Pf-HR :-nan: L2-HR :0.69637: (Sim:0h1m18s) 
CPU  0 inst:   29000001 cyc:   41476483 now IPC :1.25207: AVG IPC :0.66717: L2-Pf-HR :-nan: L2-HR :0.70028: (Sim:0h1m21s) 
CPU  0 inst:   30000002 cyc:   42276683 now IPC :1.24969: AVG IPC :0.67846: L2-Pf-HR :-nan: L2-HR :0.70381: (Sim:0h1m23s) 
CPU  0 inst:   31000002 cyc:   43026636 now IPC :1.33342: AVG IPC :0.69015: L2-Pf-HR :-nan: L2-HR :0.70739: (Sim:0h1m25s) 
CPU  0 inst:   32000000 cyc:   43824919 now IPC :1.25269: AVG IPC :0.70064: L2-Pf-HR :-nan: L2-HR :0.71009: (Sim:0h1m28s) 
CPU  0 inst:   33000002 cyc:   44616824 now IPC :1.26278: AVG IPC :0.71085: L2-Pf-HR :-nan: L2-HR :0.71315: (Sim:0h1m30s) 
CPU  0 inst:   34000002 cyc:   45425930 now IPC :1.23593: AVG IPC :0.72041: L2-Pf-HR :-nan: L2-HR :0.71576: (Sim:0h1m32s) 
CPU  0 inst:   35000002 cyc:   46224749 now IPC :1.25185: AVG IPC :0.72980: L2-Pf-HR :-nan: L2-HR :0.71829: (Sim:0h1m35s) 
CPU  0 inst:   36000000 cyc:   47024445 now IPC :1.25047: AVG IPC :0.73885: L2-Pf-HR :-nan: L2-HR :0.72079: (Sim:0h1m37s) 
Finished CPU 0 instr: 34000000 cyc: 46017581 AVG IPC: 0.73885 (Sim time: 0h1m37s)

ChampSim completed all CPUs

[ROI Statistics]
Core_0_instructions 34000000
Core_0_cycles 46017581
Core_0_IPC 0.73885

Core_0_branch_prediction_accuracy 97.98506
Core_0_branch_MPKI 0.54424
Core_0_average_ROB_occupancy_at_mispredict 232.12662

Core_0_L1D_total_access 8663631
Core_0_L1D_total_hit 7920454 L1D_total_Hit Ratio: 0.91422
Core_0_L1D_total_miss 743177
Core_0_L1D_loads 7772108
Core_0_L1D_load_hit 7073006 L1D_load_Hit Ratio: 0.91005
Core_0_L1D_load_miss 699102
Core_0_L1D_RFOs 891523
Core_0_L1D_RFO_hit 847448 L1D_RFO_Hit Ratio: 0.95056
Core_0_L1D_RFO_miss 44075
Core_0_L1D_prefetches 0
Core_0_L1D_prefetch_hit 0 L1D_prefetch_Hit Ratio: -nan
Core_0_L1D_prefetch_miss 0
Core_0_L1D_writebacks 0
Core_0_L1D_writeback_hit 0 L1D_writeback_Hit Ratio: -nan
Core_0_L1D_writeback_miss 0
Core_0_L1D_prefetch_requested 0
Core_0_L1D_prefetch_issued 0
Core_0_L1D_prefetch_useful 0 L1D_Useful Ratio: -nan
Core_0_L1D_prefetch_useless 0
Core_0_L1D_prefetch_late 0
Core_0_L1D_average_miss_latency 125.24700

Core_0_L1I_total_access 7650876
Core_0_L1I_total_hit 7646100 L1I_total_Hit Ratio: 0.99938
Core_0_L1I_total_miss 4776
Core_0_L1I_loads 7650876
Core_0_L1I_load_hit 7646100 L1I_load_Hit Ratio: 0.99938
Core_0_L1I_load_miss 4776
Core_0_L1I_RFOs 0
Core_0_L1I_RFO_hit 0 L1I_RFO_Hit Ratio: -nan
Core_0_L1I_RFO_miss 0
Core_0_L1I_prefetches 0
Core_0_L1I_prefetch_hit 0 L1I_prefetch_Hit Ratio: -nan
Core_0_L1I_prefetch_miss 0
Core_0_L1I_writebacks 0
Core_0_L1I_writeback_hit 0 L1I_writeback_Hit Ratio: -nan
Core_0_L1I_writeback_miss 0
Core_0_L1I_prefetch_requested 0
Core_0_L1I_prefetch_issued 0
Core_0_L1I_prefetch_useful 0 L1I_Useful Ratio: -nan
Core_0_L1I_prefetch_useless 0
Core_0_L1I_prefetch_late 0
Core_0_L1I_average_miss_latency 233.96608

Core_0_L2C_total_access 967837
Core_0_L2C_total_hit 697610 L2C_total_Hit Ratio: 0.72079
Core_0_L2C_total_miss 270227
Core_0_L2C_loads 703866
Core_0_L2C_load_hit 466825 L2C_load_Hit Ratio: 0.66323
Core_0_L2C_load_miss 237041
Core_0_L2C_RFOs 44075
Core_0_L2C_RFO_hit 10900 L2C_RFO_Hit Ratio: 0.24731
Core_0_L2C_RFO_miss 33175
Core_0_L2C_prefetches 0
Core_0_L2C_prefetch_hit 0 L2C_prefetch_Hit Ratio: -nan
Core_0_L2C_prefetch_miss 0
Core_0_L2C_writebacks 219896
Core_0_L2C_writeback_hit 219885 L2C_writeback_Hit Ratio: 0.99995
Core_0_L2C_writeback_miss 11
Core_0_L2C_prefetch_requested 0
Core_0_L2C_prefetch_issued 0
Core_0_L2C_prefetch_useful 0 L2C_Useful Ratio: -nan
Core_0_L2C_prefetch_useless 0
Core_0_L2C_prefetch_late 0
Core_0_L2C_average_miss_latency 307.58834

Core_0_LLC_total_access 392389
Core_0_LLC_total_hit 123094 LLC_total_Hit Ratio: 0.31370
Core_0_LLC_total_miss 269295
Core_0_LLC_loads 237041
Core_0_LLC_load_hit 2191 LLC_load_Hit Ratio: 0.00924
Core_0_LLC_load_miss 234850
Core_0_LLC_RFOs 33175
Core_0_LLC_RFO_hit 2 LLC_RFO_Hit Ratio: 0.00006
Core_0_LLC_RFO_miss 33173
Core_0_LLC_prefetches 0
Core_0_LLC_prefetch_hit 0 LLC_prefetch_Hit Ratio: -nan
Core_0_LLC_prefetch_miss 0
Core_0_LLC_writebacks 122173
Core_0_LLC_writeback_hit 120901 LLC_writeback_Hit Ratio: 0.98959
Core_0_LLC_writeback_miss 1272
Core_0_LLC_prefetch_requested 0
Core_0_LLC_prefetch_issued 0
Core_0_LLC_prefetch_useful 0 LLC_Useful Ratio: -nan
Core_0_LLC_prefetch_useless 0
Core_0_LLC_prefetch_late 0
Core_0_LLC_average_miss_latency 278.12497

Core_0_major_page_fault 0
Core_0_minor_page_fault 3814

Channel_0_RQ_row_buffer_hit 167066
Channel_0_RQ_row_buffer_miss 100957
Channel_0_WQ_row_buffer_hit 63433
Channel_0_WQ_row_buffer_miss 50668
Channel_0_WQ_full 0
Channel_0_dbus_congested 93517

avg_congested_cycle 11

EzSearch AVG IPC :0.73885: L2-Pf-HR :-nan : L2-HR :0.72079 Uful:-nan
Finished combination: TraceType=777-comparisonScript Sim:34000000 Prefetcher=L2no L1=no
