TRACE: [103000000]_FE_OPT-2_7B_[h32]_[s256]_[d80] Warmup: 2000000 NumTraces: 103000000
L1:ipcp:L2:ipcp
*************************************************
   ChampSim Multicore Out-of-Order Simulator
   Last compiled: Oct 20 2024 04:58:10
*************************************************

trace_0 777-comparisonScript_memoryTraces_s256/memTraces[103000000]_FE_OPT-2_7B_[h32]_[s256]_[d80].champsim.xz
MAIN.cc ln 751 stats print skipped
CPU  0 inst:    1000000 cyc:     502856 now IPC :1.98864: AVG IPC :1.98864: L2-Pf-HR :0.86874: L2-HR :0.80516: (Sim:0h0m3s) 
CPU  0 inst:    2000001 cyc:     983155 now IPC :2.08204: AVG IPC :2.03427: L2-Pf-HR :0.91429: L2-HR :0.85122: (Sim:0h0m6s) 

Warmup complete CPU  0 instructions:    2000001 cycles:     983155 (Simulation time: 0 hr 0 min 6 sec) 

CPU  0 inst:    3000002 cyc:    1652204 now IPC :1.49466: AVG IPC :1.49466: L2-Pf-HR :0.94955: L2-HR :0.88947: (Sim:0h0m9s) 
CPU  0 inst:    4000000 cyc:    2295456 now IPC :1.55460: AVG IPC :1.52404: L2-Pf-HR :0.96204: L2-HR :0.89917: (Sim:0h0m11s) 
CPU  0 inst:    5000002 cyc:    2962522 now IPC :1.49910: AVG IPC :1.51564: L2-Pf-HR :0.95789: L2-HR :0.89531: (Sim:0h0m14s) 
CPU  0 inst:    6000002 cyc:    3643075 now IPC :1.46939: AVG IPC :1.50381: L2-Pf-HR :0.95621: L2-HR :0.89396: (Sim:0h0m17s) 
CPU  0 inst:    7000003 cyc:    4362867 now IPC :1.38929: AVG IPC :1.47942: L2-Pf-HR :0.95574: L2-HR :0.89330: (Sim:0h0m20s) 
CPU  0 inst:    8000000 cyc:    5102475 now IPC :1.35206: AVG IPC :1.45655: L2-Pf-HR :0.95503: L2-HR :0.89315: (Sim:0h0m22s) 
CPU  0 inst:    9000001 cyc:    5794278 now IPC :1.44550: AVG IPC :1.45496: L2-Pf-HR :0.95662: L2-HR :0.89460: (Sim:0h0m25s) 
CPU  0 inst:   10000002 cyc:    6542310 now IPC :1.33684: AVG IPC :1.43907: L2-Pf-HR :0.95546: L2-HR :0.89420: (Sim:0h0m28s) 
CPU  0 inst:   11000000 cyc:    7283073 now IPC :1.34996: AVG IPC :1.42859: L2-Pf-HR :0.95497: L2-HR :0.89374: (Sim:0h0m31s) 
CPU  0 inst:   12000000 cyc:    8035780 now IPC :1.32854: AVG IPC :1.41791: L2-Pf-HR :0.95434: L2-HR :0.89303: (Sim:0h0m34s) 
CPU  0 inst:   13000000 cyc:    8722641 now IPC :1.45590: AVG IPC :1.42128: L2-Pf-HR :0.95540: L2-HR :0.89406: (Sim:0h0m36s) 
CPU  0 inst:   14000003 cyc:    9460214 now IPC :1.35580: AVG IPC :1.41559: L2-Pf-HR :0.95493: L2-HR :0.89370: (Sim:0h0m39s) 
CPU  0 inst:   15000003 cyc:   10217628 now IPC :1.32028: AVG IPC :1.40777: L2-Pf-HR :0.95448: L2-HR :0.89345: (Sim:0h0m42s) 
CPU  0 inst:   16000000 cyc:   10962745 now IPC :1.34207: AVG IPC :1.40286: L2-Pf-HR :0.95406: L2-HR :0.89335: (Sim:0h0m45s) 
CPU  0 inst:   17000002 cyc:   11654872 now IPC :1.44482: AVG IPC :1.40558: L2-Pf-HR :0.95499: L2-HR :0.89388: (Sim:0h0m47s) 
CPU  0 inst:   18000002 cyc:   12397648 now IPC :1.34630: AVG IPC :1.40173: L2-Pf-HR :0.95457: L2-HR :0.89353: (Sim:0h0m50s) 
CPU  0 inst:   19000001 cyc:   13129899 now IPC :1.36565: AVG IPC :1.39955: L2-Pf-HR :0.95425: L2-HR :0.89320: (Sim:0h0m53s) 
CPU  0 inst:   20000000 cyc:   13870490 now IPC :1.35027: AVG IPC :1.39672: L2-Pf-HR :0.95405: L2-HR :0.89294: (Sim:0h0m56s) 
CPU  0 inst:   21000002 cyc:   14579210 now IPC :1.41100: AVG IPC :1.39746: L2-Pf-HR :0.95455: L2-HR :0.89336: (Sim:0h0m58s) 
CPU  0 inst:   22000002 cyc:   15308484 now IPC :1.37123: AVG IPC :1.39613: L2-Pf-HR :0.95429: L2-HR :0.89328: (Sim:0h1m1s) 
CPU  0 inst:   23000003 cyc:   16049875 now IPC :1.34882: AVG IPC :1.39380: L2-Pf-HR :0.95415: L2-HR :0.89322: (Sim:0h1m4s) 
CPU  0 inst:   24000000 cyc:   16783653 now IPC :1.36281: AVG IPC :1.39236: L2-Pf-HR :0.95382: L2-HR :0.89302: (Sim:0h1m7s) 
CPU  0 inst:   25000001 cyc:   17522820 now IPC :1.35288: AVG IPC :1.39060: L2-Pf-HR :0.95381: L2-HR :0.89306: (Sim:0h1m10s) 
CPU  0 inst:   26000003 cyc:   18219059 now IPC :1.43629: AVG IPC :1.39244: L2-Pf-HR :0.95449: L2-HR :0.89351: (Sim:0h1m12s) 
CPU  0 inst:   27000003 cyc:   18959374 now IPC :1.35078: AVG IPC :1.39073: L2-Pf-HR :0.95440: L2-HR :0.89333: (Sim:0h1m15s) 
CPU  0 inst:   28000000 cyc:   19703018 now IPC :1.34473: AVG IPC :1.38890: L2-Pf-HR :0.95418: L2-HR :0.89318: (Sim:0h1m18s) 
CPU  0 inst:   29000003 cyc:   20443255 now IPC :1.35092: AVG IPC :1.38745: L2-Pf-HR :0.95384: L2-HR :0.89294: (Sim:0h1m21s) 
CPU  0 inst:   30000000 cyc:   21130039 now IPC :1.45606: AVG IPC :1.38979: L2-Pf-HR :0.95442: L2-HR :0.89335: (Sim:0h1m24s) 
CPU  0 inst:   31000003 cyc:   21888173 now IPC :1.31903: AVG IPC :1.38723: L2-Pf-HR :0.95426: L2-HR :0.89313: (Sim:0h1m26s) 
CPU  0 inst:   32000000 cyc:   22625414 now IPC :1.35640: AVG IPC :1.38618: L2-Pf-HR :0.95413: L2-HR :0.89314: (Sim:0h1m29s) 
CPU  0 inst:   33000002 cyc:   23355644 now IPC :1.36943: AVG IPC :1.38563: L2-Pf-HR :0.95390: L2-HR :0.89312: (Sim:0h1m32s) 
CPU  0 inst:   34000002 cyc:   24046698 now IPC :1.44706: AVG IPC :1.38747: L2-Pf-HR :0.95439: L2-HR :0.89350: (Sim:0h1m35s) 
CPU  0 inst:   35000000 cyc:   24797306 now IPC :1.33225: AVG IPC :1.38573: L2-Pf-HR :0.95429: L2-HR :0.89334: (Sim:0h1m38s) 
CPU  0 inst:   36000000 cyc:   25540521 now IPC :1.34551: AVG IPC :1.38451: L2-Pf-HR :0.95411: L2-HR :0.89321: (Sim:0h1m40s) 
CPU  0 inst:   37000001 cyc:   26283490 now IPC :1.34595: AVG IPC :1.38338: L2-Pf-HR :0.95416: L2-HR :0.89316: (Sim:0h1m43s) 
CPU  0 inst:   38000001 cyc:   27001094 now IPC :1.39353: AVG IPC :1.38366: L2-Pf-HR :0.95400: L2-HR :0.89320: (Sim:0h1m46s) 
CPU  0 inst:   39000003 cyc:   27707318 now IPC :1.41598: AVG IPC :1.38451: L2-Pf-HR :0.95410: L2-HR :0.89339: (Sim:0h1m49s) 
CPU  0 inst:   40000000 cyc:   28456070 now IPC :1.33555: AVG IPC :1.38318: L2-Pf-HR :0.95404: L2-HR :0.89330: (Sim:0h1m52s) 
CPU  0 inst:   41000001 cyc:   29201781 now IPC :1.34100: AVG IPC :1.38207: L2-Pf-HR :0.95394: L2-HR :0.89314: (Sim:0h1m55s) 
CPU  0 inst:   42000000 cyc:   30406927 now IPC :0.82977: AVG IPC :1.35944: L2-Pf-HR :0.94907: L2-HR :0.88939: (Sim:0h1m58s) 
CPU  0 inst:   43000000 cyc:   36543943 now IPC :0.16295: AVG IPC :1.15296: L2-Pf-HR :0.88455: L2-HR :0.85078: (Sim:0h2m7s) 
CPU  0 inst:   44000000 cyc:   40370176 now IPC :0.26135: AVG IPC :1.06634: L2-Pf-HR :0.87196: L2-HR :0.84174: (Sim:0h2m12s) 
CPU  0 inst:   45000000 cyc:   43819419 now IPC :0.28992: AVG IPC :1.00382: L2-Pf-HR :0.86598: L2-HR :0.83672: (Sim:0h2m18s) 
CPU  0 inst:   46000000 cyc:   47269401 now IPC :0.28986: AVG IPC :0.95061: L2-Pf-HR :0.86013: L2-HR :0.83181: (Sim:0h2m23s) 
CPU  0 inst:   47000000 cyc:   50718858 now IPC :0.28990: AVG IPC :0.90478: L2-Pf-HR :0.85437: L2-HR :0.82702: (Sim:0h2m28s) 
CPU  0 inst:   48000000 cyc:   54170217 now IPC :0.28974: AVG IPC :0.86487: L2-Pf-HR :0.84870: L2-HR :0.82234: (Sim:0h2m33s) 
CPU  0 inst:   49000000 cyc:   57619322 now IPC :0.28993: AVG IPC :0.82986: L2-Pf-HR :0.84315: L2-HR :0.81777: (Sim:0h2m38s) 
CPU  0 inst:   50000000 cyc:   61068809 now IPC :0.28990: AVG IPC :0.79886: L2-Pf-HR :0.83770: L2-HR :0.81330: (Sim:0h2m43s) 
CPU  0 inst:   51000000 cyc:   64518362 now IPC :0.28989: AVG IPC :0.77123: L2-Pf-HR :0.83234: L2-HR :0.80893: (Sim:0h2m48s) 
CPU  0 inst:   52000000 cyc:   67967282 now IPC :0.28995: AVG IPC :0.74645: L2-Pf-HR :0.82708: L2-HR :0.80466: (Sim:0h2m53s) 
CPU  0 inst:   53000000 cyc:   71417094 now IPC :0.28987: AVG IPC :0.72408: L2-Pf-HR :0.82190: L2-HR :0.80048: (Sim:0h2m58s) 
CPU  0 inst:   54000000 cyc:   74866209 now IPC :0.28993: AVG IPC :0.70381: L2-Pf-HR :0.81680: L2-HR :0.79640: (Sim:0h3m3s) 
CPU  0 inst:   55000000 cyc:   78315554 now IPC :0.28991: AVG IPC :0.68535: L2-Pf-HR :0.81180: L2-HR :0.79240: (Sim:0h3m8s) 
CPU  0 inst:   56000000 cyc:   81764772 now IPC :0.28992: AVG IPC :0.66847: L2-Pf-HR :0.80688: L2-HR :0.78849: (Sim:0h3m13s) 
CPU  0 inst:   57000000 cyc:   85213737 now IPC :0.28994: AVG IPC :0.65297: L2-Pf-HR :0.80204: L2-HR :0.78466: (Sim:0h3m18s) 
CPU  0 inst:   58000000 cyc:   88662554 now IPC :0.28995: AVG IPC :0.63869: L2-Pf-HR :0.79728: L2-HR :0.78090: (Sim:0h3m23s) 
CPU  0 inst:   59000000 cyc:   92112419 now IPC :0.28987: AVG IPC :0.62549: L2-Pf-HR :0.79260: L2-HR :0.77723: (Sim:0h3m28s) 
CPU  0 inst:   60000000 cyc:   94740100 now IPC :0.38056: AVG IPC :0.61862: L2-Pf-HR :0.78870: L2-HR :0.77431: (Sim:0h3m32s) 
CPU  0 inst:   61000000 cyc:   95375089 now IPC :1.57483: AVG IPC :0.62505: L2-Pf-HR :0.79575: L2-HR :0.77992: (Sim:0h3m35s) 
CPU  0 inst:   62000001 cyc:   96013323 now IPC :1.56683: AVG IPC :0.63138: L2-Pf-HR :0.80138: L2-HR :0.78440: (Sim:0h3m37s) 
CPU  0 inst:   63000002 cyc:   96707584 now IPC :1.44038: AVG IPC :0.63725: L2-Pf-HR :0.80614: L2-HR :0.78843: (Sim:0h3m40s) 
CPU  0 inst:   64000000 cyc:   97396091 now IPC :1.45242: AVG IPC :0.64307: L2-Pf-HR :0.81030: L2-HR :0.79193: (Sim:0h3m43s) 
CPU  0 inst:   65000000 cyc:   97947040 now IPC :1.81505: AVG IPC :0.64973: L2-Pf-HR :0.81599: L2-HR :0.79661: (Sim:0h3m45s) 
CPU  0 inst:   66000003 cyc:   98567656 now IPC :1.61131: AVG IPC :0.65584: L2-Pf-HR :0.81953: L2-HR :0.79974: (Sim:0h3m48s) 
CPU  0 inst:   67000000 cyc:   99212745 now IPC :1.55017: AVG IPC :0.66172: L2-Pf-HR :0.82256: L2-HR :0.80253: (Sim:0h3m51s) 
CPU  0 inst:   68000000 cyc:   99850811 now IPC :1.56724: AVG IPC :0.66756: L2-Pf-HR :0.82590: L2-HR :0.80553: (Sim:0h3m54s) 
CPU  0 inst:   69000002 cyc:  100392776 now IPC :1.84514: AVG IPC :0.67398: L2-Pf-HR :0.83020: L2-HR :0.80924: (Sim:0h3m56s) 
CPU  0 inst:   70000002 cyc:  101032180 now IPC :1.56396: AVG IPC :0.67967: L2-Pf-HR :0.83277: L2-HR :0.81171: (Sim:0h3m59s) 
CPU  0 inst:   71000002 cyc:  101677868 now IPC :1.54874: AVG IPC :0.68524: L2-Pf-HR :0.83509: L2-HR :0.81389: (Sim:0h4m2s) 
CPU  0 inst:   72000000 cyc:  102266093 now IPC :1.70003: AVG IPC :0.69113: L2-Pf-HR :0.83870: L2-HR :0.81714: (Sim:0h4m4s) 
CPU  0 inst:   73000001 cyc:  102875526 now IPC :1.64087: AVG IPC :0.69681: L2-Pf-HR :0.84121: L2-HR :0.81943: (Sim:0h4m7s) 
CPU  0 inst:   74000001 cyc:  103512815 now IPC :1.56915: AVG IPC :0.70224: L2-Pf-HR :0.84310: L2-HR :0.82137: (Sim:0h4m10s) 
CPU  0 inst:   75000000 cyc:  104152007 now IPC :1.56447: AVG IPC :0.70758: L2-Pf-HR :0.84510: L2-HR :0.82334: (Sim:0h4m13s) 
CPU  0 inst:   76000000 cyc:  104706085 now IPC :1.80480: AVG IPC :0.71344: L2-Pf-HR :0.84813: L2-HR :0.82609: (Sim:0h4m15s) 
CPU  0 inst:   77000000 cyc:  105343500 now IPC :1.56884: AVG IPC :0.71866: L2-Pf-HR :0.84979: L2-HR :0.82775: (Sim:0h4m18s) 
CPU  0 inst:   78000003 cyc:  105980424 now IPC :1.57005: AVG IPC :0.72383: L2-Pf-HR :0.85128: L2-HR :0.82931: (Sim:0h4m21s) 
CPU  0 inst:   79000003 cyc:  106607771 now IPC :1.59401: AVG IPC :0.72900: L2-Pf-HR :0.85298: L2-HR :0.83101: (Sim:0h4m23s) 
CPU  0 inst:   80000000 cyc:  107150969 now IPC :1.84094: AVG IPC :0.73469: L2-Pf-HR :0.85561: L2-HR :0.83342: (Sim:0h4m26s) 
CPU  0 inst:   81000000 cyc:  107805114 now IPC :1.52871: AVG IPC :0.73955: L2-Pf-HR :0.85697: L2-HR :0.83489: (Sim:0h4m29s) 
CPU  0 inst:   82000002 cyc:  108450196 now IPC :1.55019: AVG IPC :0.74441: L2-Pf-HR :0.85813: L2-HR :0.83612: (Sim:0h4m31s) 
CPU  0 inst:   83000003 cyc:  109023709 now IPC :1.74364: AVG IPC :0.74972: L2-Pf-HR :0.86038: L2-HR :0.83826: (Sim:0h4m34s) 
CPU  0 inst:   84000000 cyc:  109640924 now IPC :1.62018: AVG IPC :0.75466: L2-Pf-HR :0.86177: L2-HR :0.83964: (Sim:0h4m37s) 
CPU  0 inst:   85000002 cyc:  110285450 now IPC :1.55153: AVG IPC :0.75936: L2-Pf-HR :0.86281: L2-HR :0.84080: (Sim:0h4m39s) 
CPU  0 inst:   86000000 cyc:  110919714 now IPC :1.57663: AVG IPC :0.76408: L2-Pf-HR :0.86402: L2-HR :0.84204: (Sim:0h4m42s) 
CPU  0 inst:   87000001 cyc:  111469937 now IPC :1.81745: AVG IPC :0.76932: L2-Pf-HR :0.86601: L2-HR :0.84395: (Sim:0h4m45s) 
CPU  0 inst:   88000000 cyc:  112108496 now IPC :1.56602: AVG IPC :0.77390: L2-Pf-HR :0.86701: L2-HR :0.84503: (Sim:0h4m48s) 
CPU  0 inst:   89000002 cyc:  112750884 now IPC :1.55669: AVG IPC :0.77840: L2-Pf-HR :0.86790: L2-HR :0.84603: (Sim:0h4m50s) 
CPU  0 inst:   90000001 cyc:  113385058 now IPC :1.57685: AVG IPC :0.78290: L2-Pf-HR :0.86900: L2-HR :0.84719: (Sim:0h4m53s) 
CPU  0 inst:   91000002 cyc:  113928739 now IPC :1.83932: AVG IPC :0.78799: L2-Pf-HR :0.87071: L2-HR :0.84885: (Sim:0h4m56s) 
CPU  0 inst:   92000000 cyc:  114562147 now IPC :1.57876: AVG IPC :0.79240: L2-Pf-HR :0.87150: L2-HR :0.84977: (Sim:0h4m58s) 
CPU  0 inst:   93000002 cyc:  115195997 now IPC :1.57766: AVG IPC :0.79676: L2-Pf-HR :0.87222: L2-HR :0.85059: (Sim:0h5m1s) 
CPU  0 inst:   94000000 cyc:  115766391 now IPC :1.75317: AVG IPC :0.80151: L2-Pf-HR :0.87382: L2-HR :0.85217: (Sim:0h5m4s) 
CPU  0 inst:   95000001 cyc:  116391978 now IPC :1.59850: AVG IPC :0.80583: L2-Pf-HR :0.87462: L2-HR :0.85303: (Sim:0h5m6s) 
CPU  0 inst:   96000000 cyc:  117031696 now IPC :1.56319: AVG IPC :0.81001: L2-Pf-HR :0.87517: L2-HR :0.85373: (Sim:0h5m9s) 
CPU  0 inst:   97000002 cyc:  117666669 now IPC :1.57487: AVG IPC :0.81417: L2-Pf-HR :0.87586: L2-HR :0.85453: (Sim:0h5m12s) 
CPU  0 inst:   98000000 cyc:  118214774 now IPC :1.82446: AVG IPC :0.81889: L2-Pf-HR :0.87741: L2-HR :0.85604: (Sim:0h5m14s) 
CPU  0 inst:   99000000 cyc:  118846874 now IPC :1.58203: AVG IPC :0.82298: L2-Pf-HR :0.87801: L2-HR :0.85673: (Sim:0h5m17s) 
CPU  0 inst:  100000000 cyc:  119494279 now IPC :1.54463: AVG IPC :0.82693: L2-Pf-HR :0.87853: L2-HR :0.85736: (Sim:0h5m20s) 
Finished CPU 0 instr: 98000001 cyc: 118511132 AVG IPC: 0.82693 (Sim time: 0h5m20s)

ChampSim completed all CPUs

[ROI Statistics]
Core_0_instructions 98000001
Core_0_cycles 118511132
Core_0_IPC 0.82693

Core_0_branch_prediction_accuracy 98.32500
Core_0_branch_MPKI 0.51250
Core_0_average_ROB_occupancy_at_mispredict 220.65822

Core_0_L1D_total_access 49106843
Core_0_L1D_total_hit 46491220 L1D_total_Hit Ratio: 0.94674
Core_0_L1D_total_miss 2615623
Core_0_L1D_loads 22950431
Core_0_L1D_load_hit 22013174 L1D_load_Hit Ratio: 0.95916
Core_0_L1D_load_miss 937257
Core_0_L1D_RFOs 2894036
Core_0_L1D_RFO_hit 2772928 L1D_RFO_Hit Ratio: 0.95815
Core_0_L1D_RFO_miss 121108
Core_0_L1D_prefetches 23262376
Core_0_L1D_prefetch_hit 21705118 L1D_prefetch_Hit Ratio: 0.93306
Core_0_L1D_prefetch_miss 1557258
Core_0_L1D_writebacks 0
Core_0_L1D_writeback_hit 0 L1D_writeback_Hit Ratio: -nan
Core_0_L1D_writeback_miss 0
Core_0_L1D_prefetch_requested 59159401
Core_0_L1D_prefetch_issued 33187556
Core_0_L1D_prefetch_useful 1521277 L1D_Useful Ratio: 0.04584
Core_0_L1D_prefetch_useless 61783
Core_0_L1D_prefetch_late 302529
Core_0_L1D_average_miss_latency 8594010.45764

Core_0_L1I_total_access 23466112
Core_0_L1I_total_hit 23461270 L1I_total_Hit Ratio: 0.99979
Core_0_L1I_total_miss 4842
Core_0_L1I_loads 23466112
Core_0_L1I_load_hit 23461270 L1I_load_Hit Ratio: 0.99979
Core_0_L1I_load_miss 4842
Core_0_L1I_RFOs 0
Core_0_L1I_RFO_hit 0 L1I_RFO_Hit Ratio: -nan
Core_0_L1I_RFO_miss 0
Core_0_L1I_prefetches 0
Core_0_L1I_prefetch_hit 0 L1I_prefetch_Hit Ratio: -nan
Core_0_L1I_prefetch_miss 0
Core_0_L1I_writebacks 0
Core_0_L1I_writeback_hit 0 L1I_writeback_Hit Ratio: -nan
Core_0_L1I_writeback_miss 0
Core_0_L1I_prefetch_requested 0
Core_0_L1I_prefetch_issued 0
Core_0_L1I_prefetch_useful 0 L1I_Useful Ratio: -nan
Core_0_L1I_prefetch_useless 0
Core_0_L1I_prefetch_late 0
Core_0_L1I_average_miss_latency 290.86245

Core_0_L2C_total_access 6559703
Core_0_L2C_total_hit 5624040 L2C_total_Hit Ratio: 0.85736
Core_0_L2C_total_miss 935663
Core_0_L2C_loads 639643
Core_0_L2C_load_hit 411232 L2C_load_Hit Ratio: 0.64291
Core_0_L2C_load_miss 228411
Core_0_L2C_RFOs 121099
Core_0_L2C_RFO_hit 36321 L2C_RFO_Hit Ratio: 0.29993
Core_0_L2C_RFO_miss 84778
Core_0_L2C_prefetches 5109721
Core_0_L2C_prefetch_hit 4489036 L2C_prefetch_Hit Ratio: 0.87853
Core_0_L2C_prefetch_miss 620685
Core_0_L2C_writebacks 689240
Core_0_L2C_writeback_hit 687451 L2C_writeback_Hit Ratio: 0.99740
Core_0_L2C_writeback_miss 1789
Core_0_L2C_prefetch_requested 6228129
Core_0_L2C_prefetch_issued 6148477
Core_0_L2C_prefetch_useful 133576 L2C_Useful Ratio: 0.02173
Core_0_L2C_prefetch_useless 491001
Core_0_L2C_prefetch_late 16271
Core_0_L2C_average_miss_latency 287.26680

Core_0_LLC_total_access 1441026
Core_0_LLC_total_hit 630436 LLC_total_Hit Ratio: 0.43749
Core_0_LLC_total_miss 810590
Core_0_LLC_loads 212272
Core_0_LLC_load_hit 7634 LLC_load_Hit Ratio: 0.03596
Core_0_LLC_load_miss 204638
Core_0_LLC_RFOs 84776
Core_0_LLC_RFO_hit 10405 LLC_RFO_Hit Ratio: 0.12274
Core_0_LLC_RFO_miss 74371
Core_0_LLC_prefetches 636814
Core_0_LLC_prefetch_hit 108588 LLC_prefetch_Hit Ratio: 0.17052
Core_0_LLC_prefetch_miss 528226
Core_0_LLC_writebacks 507164
Core_0_LLC_writeback_hit 503809 LLC_writeback_Hit Ratio: 0.99338
Core_0_LLC_writeback_miss 3355
Core_0_LLC_prefetch_requested 0
Core_0_LLC_prefetch_issued 0
Core_0_LLC_prefetch_useful 1457 LLC_Useful Ratio: inf
Core_0_LLC_prefetch_useless 510853
Core_0_LLC_prefetch_late 0
Core_0_LLC_average_miss_latency 299.97759

Core_0_major_page_fault 0
Core_0_minor_page_fault 7596


Channel_0_RQ_row_buffer_hit 390242
Channel_0_RQ_row_buffer_miss 416992
Channel_0_WQ_row_buffer_hit 131980
Channel_0_WQ_row_buffer_miss 297234
Channel_0_WQ_full 0
Channel_0_dbus_congested 757998

avg_congested_cycle 11

EzSearch AVG IPC :0.82693: L2-Pf-HR :0.87853 : L2-HR :0.85736 Uful:0.02173
Finished combination: TraceType=777-comparisonScript Sim:98000000 Prefetcher=L2ipcp L1=ipcp
