TRACE: [21000000]_FE_Pythia-70M_[h8]_[s256]_[d64] Warmup: 2000000 NumTraces: 21000000
L1:bingo_dpc3_PHT1k:L2:bingo_dpc3_PHT1k
*************************************************
   ChampSim Multicore Out-of-Order Simulator
   Last compiled: Oct 20 2024 06:49:05
*************************************************

trace_0 777-comparisonScript_memoryTraces_s256/memTraces[21000000]_FE_Pythia-70M_[h8]_[s256]_[d64].champsim.xz
Bingo PHT WAYS: 16 and PHT_SIZE: 1024
Bingo2 PHT WAYS: 16 and PHT_SIZE: 1024
MAIN.cc ln 751 stats print skipped
CPU  0 inst:    1000000 cyc:     502714 now IPC :1.98920: AVG IPC :1.98920: L2-Pf-HR :0.79720: L2-HR :0.67222: (Sim:0h0m3s) 
CPU  0 inst:    2000000 cyc:     981804 now IPC :2.08729: AVG IPC :2.03707: L2-Pf-HR :0.80542: L2-HR :0.74265: (Sim:0h0m6s) 

Warmup complete CPU  0 instructions:    2000003 cycles:     981805 (Simulation time: 0 hr 0 min 6 sec) 

CPU  0 inst:    3000001 cyc:    1589359 now IPC :1.64594: AVG IPC :1.64594: L2-Pf-HR :0.80008: L2-HR :0.81884: (Sim:0h0m8s) 
CPU  0 inst:    4000000 cyc:    2199185 now IPC :1.63981: AVG IPC :1.64287: L2-Pf-HR :0.79485: L2-HR :0.81649: (Sim:0h0m11s) 
CPU  0 inst:    5000003 cyc:    2798821 now IPC :1.66768: AVG IPC :1.65106: L2-Pf-HR :0.79662: L2-HR :0.81828: (Sim:0h0m13s) 
CPU  0 inst:    6000003 cyc:    3432549 now IPC :1.57796: AVG IPC :1.63216: L2-Pf-HR :0.79661: L2-HR :0.81782: (Sim:0h0m16s) 
CPU  0 inst:    7000002 cyc:    4100898 now IPC :1.49622: AVG IPC :1.60303: L2-Pf-HR :0.79402: L2-HR :0.81700: (Sim:0h0m18s) 
CPU  0 inst:    8000000 cyc:    4792366 now IPC :1.44620: AVG IPC :1.57457: L2-Pf-HR :0.79565: L2-HR :0.81728: (Sim:0h0m20s) 
CPU  0 inst:    9000003 cyc:    7288927 now IPC :0.40055: AVG IPC :1.10986: L2-Pf-HR :0.65589: L2-HR :0.73680: (Sim:0h0m24s) 
CPU  0 inst:   10000003 cyc:   10717028 now IPC :0.29171: AVG IPC :0.82176: L2-Pf-HR :0.59850: L2-HR :0.70575: (Sim:0h0m28s) 
CPU  0 inst:   11000003 cyc:   14146700 now IPC :0.29157: AVG IPC :0.68364: L2-Pf-HR :0.55026: L2-HR :0.67909: (Sim:0h0m33s) 
CPU  0 inst:   12000000 cyc:   17576952 now IPC :0.29152: AVG IPC :0.60259: L2-Pf-HR :0.50921: L2-HR :0.65600: (Sim:0h0m37s) 
CPU  0 inst:   13000003 cyc:   21007699 now IPC :0.29148: AVG IPC :0.54929: L2-Pf-HR :0.47385: L2-HR :0.63579: (Sim:0h0m41s) 
CPU  0 inst:   14000000 cyc:   21932402 now IPC :1.08143: AVG IPC :0.57278: L2-Pf-HR :0.54637: L2-HR :0.67763: (Sim:0h0m44s) 
CPU  0 inst:   15000003 cyc:   22619800 now IPC :1.45477: AVG IPC :0.60080: L2-Pf-HR :0.60093: L2-HR :0.71295: (Sim:0h0m47s) 
CPU  0 inst:   16000000 cyc:   23268831 now IPC :1.54075: AVG IPC :0.62817: L2-Pf-HR :0.64082: L2-HR :0.73962: (Sim:0h0m49s) 
CPU  0 inst:   17000002 cyc:   23901131 now IPC :1.58153: AVG IPC :0.65447: L2-Pf-HR :0.67177: L2-HR :0.76064: (Sim:0h0m52s) 
CPU  0 inst:   18000003 cyc:   24532257 now IPC :1.58447: AVG IPC :0.67939: L2-Pf-HR :0.69676: L2-HR :0.77808: (Sim:0h0m54s) 
Finished CPU 0 instr: 16000000 cyc: 23550452 AVG IPC: 0.67939 (Sim time: 0h0m54s)

ChampSim completed all CPUs

[ROI Statistics]
Core_0_instructions 16000000
Core_0_cycles 23550452
Core_0_IPC 0.67939

Core_0_branch_prediction_accuracy 98.24560
Core_0_branch_MPKI 0.63131
Core_0_average_ROB_occupancy_at_mispredict 187.95674

Core_0_L1D_total_access 5257773
Core_0_L1D_total_hit 4685239 L1D_total_Hit Ratio: 0.89111
Core_0_L1D_total_miss 572534
Core_0_L1D_loads 4326772
Core_0_L1D_load_hit 4080575 L1D_load_Hit Ratio: 0.94310
Core_0_L1D_load_miss 246197
Core_0_L1D_RFOs 566483
Core_0_L1D_RFO_hit 563758 L1D_RFO_Hit Ratio: 0.99519
Core_0_L1D_RFO_miss 2725
Core_0_L1D_prefetches 364518
Core_0_L1D_prefetch_hit 40906 L1D_prefetch_Hit Ratio: 0.11222
Core_0_L1D_prefetch_miss 323612
Core_0_L1D_writebacks 0
Core_0_L1D_writeback_hit 0 L1D_writeback_Hit Ratio: -nan
Core_0_L1D_writeback_miss 0
Core_0_L1D_prefetch_requested 534508
Core_0_L1D_prefetch_issued 534508
Core_0_L1D_prefetch_useful 340377 L1D_Useful Ratio: 0.63680
Core_0_L1D_prefetch_useless 9874
Core_0_L1D_prefetch_late 57830
Core_0_L1D_average_miss_latency 1299898.55575

Core_0_L1I_total_access 4117231
Core_0_L1I_total_hit 4112529 L1I_total_Hit Ratio: 0.99886
Core_0_L1I_total_miss 4702
Core_0_L1I_loads 4117231
Core_0_L1I_load_hit 4112529 L1I_load_Hit Ratio: 0.99886
Core_0_L1I_load_miss 4702
Core_0_L1I_RFOs 0
Core_0_L1I_RFO_hit 0 L1I_RFO_Hit Ratio: -nan
Core_0_L1I_RFO_miss 0
Core_0_L1I_prefetches 0
Core_0_L1I_prefetch_hit 0 L1I_prefetch_Hit Ratio: -nan
Core_0_L1I_prefetch_miss 0
Core_0_L1I_writebacks 0
Core_0_L1I_writeback_hit 0 L1I_writeback_Hit Ratio: -nan
Core_0_L1I_writeback_miss 0
Core_0_L1I_prefetch_requested 0
Core_0_L1I_prefetch_issued 0
Core_0_L1I_prefetch_useful 0 L1I_Useful Ratio: -nan
Core_0_L1I_prefetch_useless 0
Core_0_L1I_prefetch_late 0
Core_0_L1I_average_miss_latency 219.54487

Core_0_L2C_total_access 772438
Core_0_L2C_total_hit 601019 L2C_total_Hit Ratio: 0.77808
Core_0_L2C_total_miss 171419
Core_0_L2C_loads 193938
Core_0_L2C_load_hit 165750 L2C_load_Hit Ratio: 0.85465
Core_0_L2C_load_miss 28188
Core_0_L2C_RFOs 2723
Core_0_L2C_RFO_hit 210 L2C_RFO_Hit Ratio: 0.07712
Core_0_L2C_RFO_miss 2513
Core_0_L2C_prefetches 463644
Core_0_L2C_prefetch_hit 323048 L2C_prefetch_Hit Ratio: 0.69676
Core_0_L2C_prefetch_miss 140596
Core_0_L2C_writebacks 112133
Core_0_L2C_writeback_hit 112011 L2C_writeback_Hit Ratio: 0.99891
Core_0_L2C_writeback_miss 122
Core_0_L2C_prefetch_requested 91004
Core_0_L2C_prefetch_issued 91004
Core_0_L2C_prefetch_useful 35388 L2C_Useful Ratio: 0.38886
Core_0_L2C_prefetch_useless 109690
Core_0_L2C_prefetch_late 2376
Core_0_L2C_average_miss_latency 318.13052

Core_0_LLC_total_access 272011
Core_0_LLC_total_hit 101930 LLC_total_Hit Ratio: 0.37473
Core_0_LLC_total_miss 170081
Core_0_LLC_loads 25866
Core_0_LLC_load_hit 407 LLC_load_Hit Ratio: 0.01573
Core_0_LLC_load_miss 25459
Core_0_LLC_RFOs 2513
Core_0_LLC_RFO_hit 16 LLC_RFO_Hit Ratio: 0.00637
Core_0_LLC_RFO_miss 2497
Core_0_LLC_prefetches 142918
Core_0_LLC_prefetch_hit 1909 LLC_prefetch_Hit Ratio: 0.01336
Core_0_LLC_prefetch_miss 141009
Core_0_LLC_writebacks 100714
Core_0_LLC_writeback_hit 99598 LLC_writeback_Hit Ratio: 0.98892
Core_0_LLC_writeback_miss 1116
Core_0_LLC_prefetch_requested 0
Core_0_LLC_prefetch_issued 0
Core_0_LLC_prefetch_useful 76 LLC_Useful Ratio: inf
Core_0_LLC_prefetch_useless 120879
Core_0_LLC_prefetch_late 0
Core_0_LLC_average_miss_latency 291.17699

Core_0_major_page_fault 0
Core_0_minor_page_fault 2376

[Bingo] PHT Access: 63052
[Bingo] PHT Hit PC+Addr: 8774
[Bingo] PHT Hit PC+Offs: 46006
[Bingo] PHT Miss: 8272
[Bingo] Prefetch PC+Addr: 0
[Bingo] Prefetch PC+Offs: 0
[Bingo] Useful PC+Addr: 0
[Bingo] Useful PC+Offs: 0
[Bingo] Useless PC+Addr: 0
[Bingo] Useless PC+Offs: 0
[Bingo] L1 Prefetch per Region: 9.85860
[Bingo] L2 Prefetch per Region: 0.76154
[Bingo] L3 Prefetch per Region: 0.00000
[Bingo] No Prefetch per Region: 21.37986
[Bingo] Number of Voters Mean: 7.73643
[Bingo] Number of Voters SD: 6.80262
PHT read accesses: 934970
PHT write accesses: 60068
AT read accesses: 3997757
AT write accesses: 3997757
FT read accesses: 866210
FT write accesses: 63052
PS read accesses: 247603
PS write accesses: 54780
PHT tag read accesses: 2728275
PHT tag write accesses: 68842
AT tag read accesses: 80688229
AT tag write accesses: 4057825
FT tag read accesses: 18648941
FT tag write accesses: 527619
PS tag read accesses: 71279166
PS tag write accesses: 301453
[Bingo2] PHT Access: 11312
[Bingo2] PHT Hit PC+Addr: 971
[Bingo2] PHT Hit PC+Offs: 7772
[Bingo2] PHT Miss: 2569
[Bingo2] Prefetch PC+Addr: 0
[Bingo2] Prefetch PC+Offs: 0
[Bingo2] Useful PC+Addr: 0
[Bingo2] Useful PC+Offs: 0
[Bingo2] Useless PC+Addr: 0
[Bingo2] Useless PC+Offs: 0
[Bingo2] L1 Prefetch per Region: 0.00000
[Bingo2] L2 Prefetch per Region: 13.78714
[Bingo2] L3 Prefetch per Region: 0.00000
[Bingo2] No Prefetch per Region: 18.21286
[Bingo2] Number of Voters Mean: 13.86503
[Bingo2] Number of Voters SD: 5.72479
PHT read accesses: 167068
PHT write accesses: 8919
AT read accesses: 180474
AT write accesses: 189214
FT read accesses: 31707
FT write accesses: 11312
PS read accesses: 26712
PS write accesses: 8743
PHT tag read accesses: 446064
PHT tag write accesses: 9890
AT tag read accesses: 6272452
AT tag write accesses: 189393
FT tag read accesses: 3524050
FT tag write accesses: 31769
PS tag read accesses: 3387783
PS tag write accesses: 34450
Channel_0_RQ_row_buffer_hit 95408
Channel_0_RQ_row_buffer_miss 73557
Channel_0_WQ_row_buffer_hit 32199
Channel_0_WQ_row_buffer_miss 65964
Channel_0_WQ_full 0
Channel_0_dbus_congested 212259

avg_congested_cycle 11

EzSearch AVG IPC :0.67939: L2-Pf-HR :0.69676 : L2-HR :0.77808 Uful:0.38886
Finished combination: TraceType=777-comparisonScript Sim:16000000 Prefetcher=L2bingo_dpc3_PHT1k L1=bingo_dpc3_PHT1k
