TRACE: [39000000]_FE_[OPT-6_7B]_[h32]_[s128]_[d128] Warmup: 2000000 NumTraces: 39000000
L1:bingo_dpc3_PHT1k:L2:bingo_dpc3_PHT1k
*************************************************
   ChampSim Multicore Out-of-Order Simulator
   Last compiled: Oct 20 2024 06:49:05
*************************************************

trace_0 777-comparisonScript_memoryTraces_s128/memTraces[39000000]_FE_[OPT-6_7B]_[h32]_[s128]_[d128].champsim.xz
Bingo PHT WAYS: 16 and PHT_SIZE: 1024
Bingo2 PHT WAYS: 16 and PHT_SIZE: 1024
MAIN.cc ln 751 stats print skipped
CPU  0 inst:    1000002 cyc:     513389 now IPC :1.94784: AVG IPC :1.94784: L2-Pf-HR :0.72475: L2-HR :0.66377: (Sim:0h0m2s) 
CPU  0 inst:    2000001 cyc:    1004561 now IPC :2.03594: AVG IPC :1.99092: L2-Pf-HR :0.74901: L2-HR :0.73127: (Sim:0h0m5s) 

Warmup complete CPU  0 instructions:    2000001 cycles:    1004561 (Simulation time: 0 hr 0 min 5 sec) 

CPU  0 inst:    3000002 cyc:    1601550 now IPC :1.67507: AVG IPC :1.67507: L2-Pf-HR :0.76166: L2-HR :0.79659: (Sim:0h0m7s) 
CPU  0 inst:    4000000 cyc:    2184608 now IPC :1.71509: AVG IPC :1.69485: L2-Pf-HR :0.76339: L2-HR :0.80317: (Sim:0h0m10s) 
CPU  0 inst:    5000003 cyc:    2749896 now IPC :1.76902: AVG IPC :1.71887: L2-Pf-HR :0.76817: L2-HR :0.80515: (Sim:0h0m12s) 
CPU  0 inst:    6000001 cyc:    3345940 now IPC :1.67773: AVG IPC :1.70839: L2-Pf-HR :0.76562: L2-HR :0.80389: (Sim:0h0m15s) 
CPU  0 inst:    7000003 cyc:    3965143 now IPC :1.61498: AVG IPC :1.68886: L2-Pf-HR :0.76247: L2-HR :0.80183: (Sim:0h0m17s) 
CPU  0 inst:    8000000 cyc:    4594729 now IPC :1.58834: AVG IPC :1.67123: L2-Pf-HR :0.76114: L2-HR :0.80088: (Sim:0h0m20s) 
CPU  0 inst:    9000003 cyc:    5210961 now IPC :1.62277: AVG IPC :1.66413: L2-Pf-HR :0.76138: L2-HR :0.80169: (Sim:0h0m22s) 
CPU  0 inst:   10000003 cyc:    5799061 now IPC :1.70039: AVG IPC :1.66858: L2-Pf-HR :0.76429: L2-HR :0.80345: (Sim:0h0m25s) 
CPU  0 inst:   11000003 cyc:    6434427 now IPC :1.57390: AVG IPC :1.65750: L2-Pf-HR :0.76283: L2-HR :0.80249: (Sim:0h0m27s) 
CPU  0 inst:   12000000 cyc:    7048180 now IPC :1.62932: AVG IPC :1.65464: L2-Pf-HR :0.76178: L2-HR :0.80179: (Sim:0h0m30s) 
CPU  0 inst:   13000002 cyc:    7663914 now IPC :1.62408: AVG IPC :1.65181: L2-Pf-HR :0.76127: L2-HR :0.80153: (Sim:0h0m32s) 
CPU  0 inst:   14000001 cyc:    8281878 now IPC :1.61822: AVG IPC :1.64896: L2-Pf-HR :0.76104: L2-HR :0.80155: (Sim:0h0m35s) 
CPU  0 inst:   15000002 cyc:    8870279 now IPC :1.69952: AVG IPC :1.65274: L2-Pf-HR :0.76325: L2-HR :0.80308: (Sim:0h0m38s) 
CPU  0 inst:   16000000 cyc:    9485632 now IPC :1.62508: AVG IPC :1.65073: L2-Pf-HR :0.76232: L2-HR :0.80237: (Sim:0h0m40s) 
CPU  0 inst:   17000000 cyc:   10116311 now IPC :1.58559: AVG IPC :1.64623: L2-Pf-HR :0.76181: L2-HR :0.80202: (Sim:0h0m43s) 
CPU  0 inst:   18000001 cyc:   11573262 now IPC :0.68637: AVG IPC :1.51390: L2-Pf-HR :0.71798: L2-HR :0.77294: (Sim:0h0m46s) 
CPU  0 inst:   19000001 cyc:   14850256 now IPC :0.30516: AVG IPC :1.22782: L2-Pf-HR :0.66997: L2-HR :0.74330: (Sim:0h0m51s) 
CPU  0 inst:   20000000 cyc:   18005142 now IPC :0.31697: AVG IPC :1.05879: L2-Pf-HR :0.64189: L2-HR :0.72627: (Sim:0h0m56s) 
CPU  0 inst:   21000002 cyc:   21160407 now IPC :0.31693: AVG IPC :0.94265: L2-Pf-HR :0.61596: L2-HR :0.71055: (Sim:0h1m1s) 
CPU  0 inst:   22000003 cyc:   24317230 now IPC :0.31677: AVG IPC :0.85790: L2-Pf-HR :0.59211: L2-HR :0.69608: (Sim:0h1m5s) 
CPU  0 inst:   23000001 cyc:   26267486 now IPC :0.51275: AVG IPC :0.83126: L2-Pf-HR :0.58467: L2-HR :0.68881: (Sim:0h1m9s) 
CPU  0 inst:   24000000 cyc:   26867158 now IPC :1.66758: AVG IPC :0.85065: L2-Pf-HR :0.59381: L2-HR :0.69554: (Sim:0h1m11s) 
CPU  0 inst:   25000001 cyc:   27521396 now IPC :1.52850: AVG IPC :0.86737: L2-Pf-HR :0.60117: L2-HR :0.70094: (Sim:0h1m14s) 
CPU  0 inst:   26000003 cyc:   28179274 now IPC :1.52004: AVG IPC :0.88317: L2-Pf-HR :0.60790: L2-HR :0.70581: (Sim:0h1m16s) 
CPU  0 inst:   27000001 cyc:   28828979 now IPC :1.53916: AVG IPC :0.89849: L2-Pf-HR :0.61402: L2-HR :0.71017: (Sim:0h1m18s) 
CPU  0 inst:   28000000 cyc:   29450955 now IPC :1.60778: AVG IPC :0.91400: L2-Pf-HR :0.61971: L2-HR :0.71433: (Sim:0h1m21s) 
CPU  0 inst:   29000002 cyc:   30071582 now IPC :1.61128: AVG IPC :0.92889: L2-Pf-HR :0.62504: L2-HR :0.71823: (Sim:0h1m23s) 
CPU  0 inst:   30000002 cyc:   30686993 now IPC :1.62493: AVG IPC :0.94332: L2-Pf-HR :0.63015: L2-HR :0.72208: (Sim:0h1m26s) 
CPU  0 inst:   31000001 cyc:   31262109 now IPC :1.73878: AVG IPC :0.95844: L2-Pf-HR :0.63602: L2-HR :0.72639: (Sim:0h1m28s) 
CPU  0 inst:   32000000 cyc:   31880815 now IPC :1.61627: AVG IPC :0.97162: L2-Pf-HR :0.63990: L2-HR :0.72928: (Sim:0h1m30s) 
CPU  0 inst:   33000002 cyc:   32509030 now IPC :1.59181: AVG IPC :0.98399: L2-Pf-HR :0.64392: L2-HR :0.73215: (Sim:0h1m33s) 
CPU  0 inst:   34000001 cyc:   33142063 now IPC :1.57969: AVG IPC :0.99572: L2-Pf-HR :0.64757: L2-HR :0.73477: (Sim:0h1m35s) 
CPU  0 inst:   35000001 cyc:   33771523 now IPC :1.58866: AVG IPC :1.00711: L2-Pf-HR :0.65095: L2-HR :0.73713: (Sim:0h1m37s) 
CPU  0 inst:   36000000 cyc:   34399721 now IPC :1.59185: AVG IPC :1.01811: L2-Pf-HR :0.65420: L2-HR :0.73945: (Sim:0h1m40s) 
Finished CPU 0 instr: 34000000 cyc: 33395168 AVG IPC: 1.01811 (Sim time: 0h1m40s)

ChampSim completed all CPUs

[ROI Statistics]
Core_0_instructions 34000000
Core_0_cycles 33395168
Core_0_IPC 1.01811

Core_0_branch_prediction_accuracy 97.98506
Core_0_branch_MPKI 0.54424
Core_0_average_ROB_occupancy_at_mispredict 232.33636

Core_0_L1D_total_access 9346849
Core_0_L1D_total_hit 8594157 L1D_total_Hit Ratio: 0.91947
Core_0_L1D_total_miss 752692
Core_0_L1D_loads 7837041
Core_0_L1D_load_hit 7636017 L1D_load_Hit Ratio: 0.97435
Core_0_L1D_load_miss 201024
Core_0_L1D_RFOs 924454
Core_0_L1D_RFO_hit 912750 L1D_RFO_Hit Ratio: 0.98734
Core_0_L1D_RFO_miss 11704
Core_0_L1D_prefetches 585354
Core_0_L1D_prefetch_hit 45390 L1D_prefetch_Hit Ratio: 0.07754
Core_0_L1D_prefetch_miss 539964
Core_0_L1D_writebacks 0
Core_0_L1D_writeback_hit 0 L1D_writeback_Hit Ratio: -nan
Core_0_L1D_writeback_miss 0
Core_0_L1D_prefetch_requested 728712
Core_0_L1D_prefetch_issued 728712
Core_0_L1D_prefetch_useful 563378 L1D_Useful Ratio: 0.77311
Core_0_L1D_prefetch_useless 9339
Core_0_L1D_prefetch_late 52146
Core_0_L1D_average_miss_latency 1003687.31190

Core_0_L1I_total_access 7713751
Core_0_L1I_total_hit 7708970 L1I_total_Hit Ratio: 0.99938
Core_0_L1I_total_miss 4781
Core_0_L1I_loads 7713751
Core_0_L1I_load_hit 7708970 L1I_load_Hit Ratio: 0.99938
Core_0_L1I_load_miss 4781
Core_0_L1I_RFOs 0
Core_0_L1I_RFO_hit 0 L1I_RFO_Hit Ratio: -nan
Core_0_L1I_RFO_miss 0
Core_0_L1I_prefetches 0
Core_0_L1I_prefetch_hit 0 L1I_prefetch_Hit Ratio: -nan
Core_0_L1I_prefetch_miss 0
Core_0_L1I_writebacks 0
Core_0_L1I_writeback_hit 0 L1I_writeback_Hit Ratio: -nan
Core_0_L1I_writeback_miss 0
Core_0_L1I_prefetch_requested 0
Core_0_L1I_prefetch_issued 0
Core_0_L1I_prefetch_useful 0 L1I_Useful Ratio: -nan
Core_0_L1I_prefetch_useless 0
Core_0_L1I_prefetch_late 0
Core_0_L1I_average_miss_latency 205.11086

Core_0_L2C_total_access 1042154
Core_0_L2C_total_hit 770622 L2C_total_Hit Ratio: 0.73945
Core_0_L2C_total_miss 271532
Core_0_L2C_loads 154217
Core_0_L2C_load_hit 111131 L2C_load_Hit Ratio: 0.72061
Core_0_L2C_load_miss 43086
Core_0_L2C_RFOs 11668
Core_0_L2C_RFO_hit 9962 L2C_RFO_Hit Ratio: 0.85379
Core_0_L2C_RFO_miss 1706
Core_0_L2C_prefetches 655657
Core_0_L2C_prefetch_hit 428928 L2C_prefetch_Hit Ratio: 0.65420
Core_0_L2C_prefetch_miss 226729
Core_0_L2C_writebacks 220612
Core_0_L2C_writeback_hit 220601 L2C_writeback_Hit Ratio: 0.99995
Core_0_L2C_writeback_miss 11
Core_0_L2C_prefetch_requested 106575
Core_0_L2C_prefetch_issued 106575
Core_0_L2C_prefetch_useful 51160 L2C_Useful Ratio: 0.48004
Core_0_L2C_prefetch_useless 180509
Core_0_L2C_prefetch_late 5483
Core_0_L2C_average_miss_latency 311.06563

Core_0_LLC_total_access 393957
Core_0_LLC_total_hit 123356 LLC_total_Hit Ratio: 0.31312
Core_0_LLC_total_miss 270601
Core_0_LLC_loads 37628
Core_0_LLC_load_hit 278 LLC_load_Hit Ratio: 0.00739
Core_0_LLC_load_miss 37350
Core_0_LLC_RFOs 1706
Core_0_LLC_RFO_hit 2 LLC_RFO_Hit Ratio: 0.00117
Core_0_LLC_RFO_miss 1704
Core_0_LLC_prefetches 232187
Core_0_LLC_prefetch_hit 1913 LLC_prefetch_Hit Ratio: 0.00824
Core_0_LLC_prefetch_miss 230274
Core_0_LLC_writebacks 122436
Core_0_LLC_writeback_hit 121163 LLC_writeback_Hit Ratio: 0.98960
Core_0_LLC_writeback_miss 1273
Core_0_LLC_prefetch_requested 0
Core_0_LLC_prefetch_issued 0
Core_0_LLC_prefetch_useful 60 LLC_Useful Ratio: inf
Core_0_LLC_prefetch_useless 212507
Core_0_LLC_prefetch_late 0
Core_0_LLC_average_miss_latency 283.24881

Core_0_major_page_fault 0
Core_0_minor_page_fault 3814

[Bingo] PHT Access: 43326
[Bingo] PHT Hit PC+Addr: 6675
[Bingo] PHT Hit PC+Offs: 32527
[Bingo] PHT Miss: 4124
[Bingo] Prefetch PC+Addr: 0
[Bingo] Prefetch PC+Offs: 0
[Bingo] Useful PC+Addr: 0
[Bingo] Useful PC+Offs: 0
[Bingo] Useless PC+Addr: 0
[Bingo] Useless PC+Offs: 0
[Bingo] L1 Prefetch per Region: 19.55331
[Bingo] L2 Prefetch per Region: 0.00000
[Bingo] L3 Prefetch per Region: 0.00000
[Bingo] No Prefetch per Region: 12.44669
[Bingo] Number of Voters Mean: 15.06296
[Bingo] Number of Voters SD: 3.85530
PHT read accesses: 600967
PHT write accesses: 40791
AT read accesses: 7517358
AT write accesses: 7517358
FT read accesses: 811118
FT write accesses: 43326
PS read accesses: 352577
PS write accesses: 39202
PHT tag read accesses: 1814196
PHT tag write accesses: 47466
AT tag read accesses: 139245657
AT tag write accesses: 7558149
FT tag read accesses: 20288299
FT tag write accesses: 470475
PS tag read accesses: 127111607
PS tag write accesses: 391699
[Bingo2] PHT Access: 9554
[Bingo2] PHT Hit PC+Addr: 959
[Bingo2] PHT Hit PC+Offs: 7032
[Bingo2] PHT Miss: 1563
[Bingo2] Prefetch PC+Addr: 0
[Bingo2] Prefetch PC+Offs: 0
[Bingo2] Useful PC+Addr: 0
[Bingo2] Useful PC+Offs: 0
[Bingo2] Useless PC+Addr: 0
[Bingo2] Useless PC+Offs: 0
[Bingo2] L1 Prefetch per Region: 0.00000
[Bingo2] L2 Prefetch per Region: 16.66612
[Bingo2] L3 Prefetch per Region: 0.00000
[Bingo2] No Prefetch per Region: 15.33388
[Bingo2] Number of Voters Mean: 14.21288
[Bingo2] Number of Voters SD: 4.30941
PHT read accesses: 139231
PHT write accesses: 7410
AT read accesses: 142306
AT write accesses: 149481
FT read accesses: 27632
FT write accesses: 9554
PS read accesses: 40117
PS write accesses: 7991
PHT tag read accesses: 368250
PHT tag write accesses: 8369
AT tag read accesses: 7165888
AT tag write accesses: 149716
FT tag read accesses: 4999399
FT tag write accesses: 27184
PS tag read accesses: 2781517
PS tag write accesses: 48075
Channel_0_RQ_row_buffer_hit 185065
Channel_0_RQ_row_buffer_miss 84263
Channel_0_WQ_row_buffer_hit 44189
Channel_0_WQ_row_buffer_miss 70189
Channel_0_WQ_full 0
Channel_0_dbus_congested 305974

avg_congested_cycle 11

EzSearch AVG IPC :1.01811: L2-Pf-HR :0.65420 : L2-HR :0.73945 Uful:0.48004
Finished combination: TraceType=777-comparisonScript Sim:34000000 Prefetcher=L2bingo_dpc3_PHT1k L1=bingo_dpc3_PHT1k
