TRACE: [27000000]_FE_[OPT-2_7B]_[h32]_[s128]_[d80] Warmup: 2000000 NumTraces: 27000000
L1:isb_ideal:L2:isb_ideal
*************************************************
   ChampSim Multicore Out-of-Order Simulator
   Last compiled: Oct 20 2024 05:12:04
*************************************************

trace_0 777-comparisonScript_memoryTraces_s128/memTraces[27000000]_FE_[OPT-2_7B]_[h32]_[s128]_[d80].champsim.xz
L1D: Ideal ISB Prefetching
Ideal ISB Prefetching
MAIN.cc ln 751 stats print skipped
CPU  0 inst:    1000001 cyc:     515390 now IPC :1.94028: AVG IPC :1.94028: L2-Pf-HR :1.00000: L2-HR :0.90172: (Sim:0h0m2s) 
CPU  0 inst:    2000000 cyc:    1004479 now IPC :2.04462: AVG IPC :1.99108: L2-Pf-HR :1.00000: L2-HR :0.92290: (Sim:0h0m5s) 

Warmup complete CPU  0 instructions:    2000002 cycles:    1004480 (Simulation time: 0 hr 0 min 5 sec) 

CPU  0 inst:    3000002 cyc:    1748562 now IPC :1.34394: AVG IPC :1.34394: L2-Pf-HR :1.00000: L2-HR :0.94327: (Sim:0h0m8s) 
CPU  0 inst:    4000000 cyc:    2490751 now IPC :1.34736: AVG IPC :1.34565: L2-Pf-HR :1.00000: L2-HR :0.94346: (Sim:0h0m10s) 
CPU  0 inst:    5000002 cyc:    3230839 now IPC :1.35119: AVG IPC :1.34749: L2-Pf-HR :1.00000: L2-HR :0.94478: (Sim:0h0m13s) 
CPU  0 inst:    6000002 cyc:    4035921 now IPC :1.24211: AVG IPC :1.31950: L2-Pf-HR :1.00000: L2-HR :0.94396: (Sim:0h0m16s) 
CPU  0 inst:    7000000 cyc:    4846253 now IPC :1.23406: AVG IPC :1.30148: L2-Pf-HR :1.00000: L2-HR :0.94390: (Sim:0h0m19s) 
CPU  0 inst:    8000000 cyc:    5662085 now IPC :1.22574: AVG IPC :1.28822: L2-Pf-HR :1.00000: L2-HR :0.94377: (Sim:0h0m21s) 
CPU  0 inst:    9000003 cyc:    6465073 now IPC :1.24535: AVG IPC :1.28191: L2-Pf-HR :1.00000: L2-HR :0.94366: (Sim:0h0m24s) 
CPU  0 inst:   10000000 cyc:    7283020 now IPC :1.22257: AVG IPC :1.27418: L2-Pf-HR :1.00000: L2-HR :0.94357: (Sim:0h0m26s) 
CPU  0 inst:   11000003 cyc:    8091305 now IPC :1.23719: AVG IPC :1.26996: L2-Pf-HR :0.99999: L2-HR :0.94359: (Sim:0h0m29s) 
CPU  0 inst:   12000000 cyc:   10956008 now IPC :0.34908: AVG IPC :1.00487: L2-Pf-HR :0.97937: L2-HR :0.91397: (Sim:0h0m33s) 
CPU  0 inst:   13000003 cyc:   14925122 now IPC :0.25195: AVG IPC :0.79019: L2-Pf-HR :0.97485: L2-HR :0.90312: (Sim:0h0m38s) 
CPU  0 inst:   14000000 cyc:   18944248 now IPC :0.24881: AVG IPC :0.66890: L2-Pf-HR :0.97038: L2-HR :0.89276: (Sim:0h0m43s) 
CPU  0 inst:   15000000 cyc:   22995163 now IPC :0.24686: AVG IPC :0.59116: L2-Pf-HR :0.96595: L2-HR :0.88284: (Sim:0h0m48s) 
CPU  0 inst:   16000000 cyc:   27110578 now IPC :0.24299: AVG IPC :0.53627: L2-Pf-HR :0.96127: L2-HR :0.87212: (Sim:0h0m53s) 
CPU  0 inst:   17000003 cyc:   27964234 now IPC :1.17144: AVG IPC :0.55638: L2-Pf-HR :0.96487: L2-HR :0.87787: (Sim:0h0m55s) 
CPU  0 inst:   18000002 cyc:   28784783 now IPC :1.21870: AVG IPC :0.57595: L2-Pf-HR :0.96806: L2-HR :0.88340: (Sim:0h0m58s) 
CPU  0 inst:   19000002 cyc:   29617228 now IPC :1.20128: AVG IPC :0.59414: L2-Pf-HR :0.97073: L2-HR :0.88828: (Sim:0h1m1s) 
CPU  0 inst:   20000000 cyc:   30443082 now IPC :1.21087: AVG IPC :0.61144: L2-Pf-HR :0.97298: L2-HR :0.89230: (Sim:0h1m4s) 
CPU  0 inst:   21000001 cyc:   31232321 now IPC :1.26704: AVG IPC :0.62856: L2-Pf-HR :0.97491: L2-HR :0.89586: (Sim:0h1m7s) 
CPU  0 inst:   22000000 cyc:   32011612 now IPC :1.28322: AVG IPC :0.64501: L2-Pf-HR :0.97659: L2-HR :0.89896: (Sim:0h1m9s) 
CPU  0 inst:   23000001 cyc:   32719472 now IPC :1.41271: AVG IPC :0.66215: L2-Pf-HR :0.97803: L2-HR :0.90203: (Sim:0h1m12s) 
CPU  0 inst:   24000000 cyc:   33506883 now IPC :1.26998: AVG IPC :0.67687: L2-Pf-HR :0.97931: L2-HR :0.90432: (Sim:0h1m15s) 
Finished CPU 0 instr: 22000001 cyc: 32502416 AVG IPC: 0.67687 (Sim time: 0h1m15s)

ChampSim completed all CPUs

[ROI Statistics]
Core_0_instructions 22000001
Core_0_cycles 32502416
Core_0_IPC 0.67687

Core_0_branch_prediction_accuracy 98.69587
Core_0_branch_MPKI 0.44541
Core_0_average_ROB_occupancy_at_mispredict 218.69181

Core_0_L1D_total_access 5921996
Core_0_L1D_total_hit 5412294 L1D_total_Hit Ratio: 0.91393
Core_0_L1D_total_miss 509702
Core_0_L1D_loads 5158116
Core_0_L1D_load_hit 4687860 L1D_load_Hit Ratio: 0.90883
Core_0_L1D_load_miss 470256
Core_0_L1D_RFOs 761683
Core_0_L1D_RFO_hit 722237 L1D_RFO_Hit Ratio: 0.94821
Core_0_L1D_RFO_miss 39446
Core_0_L1D_prefetches 2197
Core_0_L1D_prefetch_hit 2197 L1D_prefetch_Hit Ratio: 1.00000
Core_0_L1D_prefetch_miss 0
Core_0_L1D_writebacks 0
Core_0_L1D_writeback_hit 0 L1D_writeback_Hit Ratio: -nan
Core_0_L1D_writeback_miss 0
Core_0_L1D_prefetch_requested 2934228
Core_0_L1D_prefetch_issued 1920682
Core_0_L1D_prefetch_useful 0 L1D_Useful Ratio: 0.00000
Core_0_L1D_prefetch_useless 0
Core_0_L1D_prefetch_late 0
Core_0_L1D_average_miss_latency 104.47199

Core_0_L1I_total_access 5288807
Core_0_L1I_total_hit 5283998 L1I_total_Hit Ratio: 0.99909
Core_0_L1I_total_miss 4809
Core_0_L1I_loads 5288807
Core_0_L1I_load_hit 5283998 L1I_load_Hit Ratio: 0.99909
Core_0_L1I_load_miss 4809
Core_0_L1I_RFOs 0
Core_0_L1I_RFO_hit 0 L1I_RFO_Hit Ratio: -nan
Core_0_L1I_RFO_miss 0
Core_0_L1I_prefetches 0
Core_0_L1I_prefetch_hit 0 L1I_prefetch_Hit Ratio: -nan
Core_0_L1I_prefetch_miss 0
Core_0_L1I_writebacks 0
Core_0_L1I_writeback_hit 0 L1I_writeback_Hit Ratio: -nan
Core_0_L1I_writeback_miss 0
Core_0_L1I_prefetch_requested 0
Core_0_L1I_prefetch_issued 0
Core_0_L1I_prefetch_useful 0 L1I_Useful Ratio: -nan
Core_0_L1I_prefetch_useless 0
Core_0_L1I_prefetch_late 0
Core_0_L1I_average_miss_latency 221.37742

Core_0_L2C_total_access 2282667
Core_0_L2C_total_hit 2064269 L2C_total_Hit Ratio: 0.90432
Core_0_L2C_total_miss 218398
Core_0_L2C_loads 475065
Core_0_L2C_load_hit 322801 L2C_load_Hit Ratio: 0.67949
Core_0_L2C_load_miss 152264
Core_0_L2C_RFOs 39443
Core_0_L2C_RFO_hit 6262 L2C_RFO_Hit Ratio: 0.15876
Core_0_L2C_RFO_miss 33181
Core_0_L2C_prefetches 1592313
Core_0_L2C_prefetch_hit 1559368 L2C_prefetch_Hit Ratio: 0.97931
Core_0_L2C_prefetch_miss 32945
Core_0_L2C_writebacks 175846
Core_0_L2C_writeback_hit 175838 L2C_writeback_Hit Ratio: 0.99995
Core_0_L2C_writeback_miss 8
Core_0_L2C_prefetch_requested 265316
Core_0_L2C_prefetch_issued 33511
Core_0_L2C_prefetch_useful 32937 L2C_Useful Ratio: 0.98287
Core_0_L2C_prefetch_useless 8
Core_0_L2C_prefetch_late 461
Core_0_L2C_average_miss_latency 284.33404

Core_0_LLC_total_access 328292
Core_0_LLC_total_hit 114697 LLC_total_Hit Ratio: 0.34937
Core_0_LLC_total_miss 213595
Core_0_LLC_loads 151803
Core_0_LLC_load_hit 3012 LLC_load_Hit Ratio: 0.01984
Core_0_LLC_load_miss 148791
Core_0_LLC_RFOs 33181
Core_0_LLC_RFO_hit 10 LLC_RFO_Hit Ratio: 0.00030
Core_0_LLC_RFO_miss 33171
Core_0_LLC_prefetches 33463
Core_0_LLC_prefetch_hit 2649 LLC_prefetch_Hit Ratio: 0.07916
Core_0_LLC_prefetch_miss 30814
Core_0_LLC_writebacks 109845
Core_0_LLC_writeback_hit 109026 LLC_writeback_Hit Ratio: 0.99254
Core_0_LLC_writeback_miss 819
Core_0_LLC_prefetch_requested 0
Core_0_LLC_prefetch_issued 0
Core_0_LLC_prefetch_useful 18 LLC_Useful Ratio: inf
Core_0_LLC_prefetch_useless 30796
Core_0_LLC_prefetch_late 0
Core_0_LLC_average_miss_latency 261.15536

Core_0_major_page_fault 0
Core_0_minor_page_fault 3062

CPU 0 L1D next line prefetcher final stats
Prefetcher final stats
Training Unit Size: 4511
Addr table size: 128647 128649


Triggers: 168949
No Prediction: 135355 80.11589
Stream end: 581
No translation: 326965 193.52882
Predictions: 33511 19.83498


Stream divergence: 14 0.00829
Stream divergence -- new stream: 0
Channel_0_RQ_row_buffer_hit 121637
Channel_0_RQ_row_buffer_miss 91139
Channel_0_WQ_row_buffer_hit 45239
Channel_0_WQ_row_buffer_miss 56780
Channel_0_WQ_full 0
Channel_0_dbus_congested 144004

avg_congested_cycle 11

EzSearch AVG IPC :0.67687: L2-Pf-HR :0.97931 : L2-HR :0.90432 Uful:0.98287
Finished combination: TraceType=777-comparisonScript Sim:22000000 Prefetcher=L2isb_ideal L1=isb_ideal
