TRACE: [75000000]_FE_OPT-1_3B_[h16]_[s256]_[d128] Warmup: 2000000 NumTraces: 75000000
L1:ipcp:L2:ipcp
*************************************************
   ChampSim Multicore Out-of-Order Simulator
   Last compiled: Oct 20 2024 04:58:10
*************************************************

trace_0 777-comparisonScript_memoryTraces_s256/memTraces[75000000]_FE_OPT-1_3B_[h16]_[s256]_[d128].champsim.xz
MAIN.cc ln 751 stats print skipped
CPU  0 inst:    1000002 cyc:     504032 now IPC :1.98400: AVG IPC :1.98400: L2-Pf-HR :0.85042: L2-HR :0.80399: (Sim:0h0m2s) 
CPU  0 inst:    2000001 cyc:     981324 now IPC :2.09515: AVG IPC :2.03806: L2-Pf-HR :0.90644: L2-HR :0.85778: (Sim:0h0m5s) 

Warmup complete CPU  0 instructions:    2000001 cycles:     981324 (Simulation time: 0 hr 0 min 5 sec) 

CPU  0 inst:    3000001 cyc:    1638269 now IPC :1.52220: AVG IPC :1.52220: L2-Pf-HR :0.93433: L2-HR :0.89277: (Sim:0h0m8s) 
CPU  0 inst:    4000000 cyc:    2242453 now IPC :1.65512: AVG IPC :1.58588: L2-Pf-HR :0.95293: L2-HR :0.90705: (Sim:0h0m10s) 
CPU  0 inst:    5000000 cyc:    2888819 now IPC :1.54711: AVG IPC :1.57274: L2-Pf-HR :0.94713: L2-HR :0.90435: (Sim:0h0m13s) 
CPU  0 inst:    6000002 cyc:    3498765 now IPC :1.63949: AVG IPC :1.58892: L2-Pf-HR :0.95297: L2-HR :0.90780: (Sim:0h0m16s) 
CPU  0 inst:    7000002 cyc:    4145865 now IPC :1.54536: AVG IPC :1.58001: L2-Pf-HR :0.94976: L2-HR :0.90616: (Sim:0h0m18s) 
CPU  0 inst:    8000000 cyc:    4757459 now IPC :1.63507: AVG IPC :1.58893: L2-Pf-HR :0.95356: L2-HR :0.90870: (Sim:0h0m21s) 
CPU  0 inst:    9000000 cyc:    5443600 now IPC :1.45743: AVG IPC :1.56871: L2-Pf-HR :0.95050: L2-HR :0.90680: (Sim:0h0m24s) 
CPU  0 inst:   10000002 cyc:    6083741 now IPC :1.56216: AVG IPC :1.56788: L2-Pf-HR :0.95311: L2-HR :0.90886: (Sim:0h0m26s) 
CPU  0 inst:   11000000 cyc:    6782605 now IPC :1.43089: AVG IPC :1.55138: L2-Pf-HR :0.95136: L2-HR :0.90760: (Sim:0h0m29s) 
CPU  0 inst:   12000000 cyc:    7425600 now IPC :1.55522: AVG IPC :1.55176: L2-Pf-HR :0.95312: L2-HR :0.90899: (Sim:0h0m32s) 
CPU  0 inst:   13000002 cyc:    8121063 now IPC :1.43789: AVG IPC :1.54067: L2-Pf-HR :0.95157: L2-HR :0.90789: (Sim:0h0m34s) 
CPU  0 inst:   14000000 cyc:    8754221 now IPC :1.57938: AVG IPC :1.54383: L2-Pf-HR :0.95311: L2-HR :0.90938: (Sim:0h0m37s) 
CPU  0 inst:   15000001 cyc:    9452662 now IPC :1.43176: AVG IPC :1.53459: L2-Pf-HR :0.95145: L2-HR :0.90817: (Sim:0h0m40s) 
CPU  0 inst:   16000000 cyc:   10084703 now IPC :1.58217: AVG IPC :1.53789: L2-Pf-HR :0.95248: L2-HR :0.90929: (Sim:0h0m42s) 
CPU  0 inst:   17000000 cyc:   10775025 now IPC :1.44860: AVG IPC :1.53160: L2-Pf-HR :0.95139: L2-HR :0.90864: (Sim:0h0m45s) 
CPU  0 inst:   18000003 cyc:   11412237 now IPC :1.56934: AVG IPC :1.53390: L2-Pf-HR :0.95193: L2-HR :0.90921: (Sim:0h0m48s) 
CPU  0 inst:   19000000 cyc:   12103318 now IPC :1.44700: AVG IPC :1.52850: L2-Pf-HR :0.95101: L2-HR :0.90862: (Sim:0h0m51s) 
CPU  0 inst:   20000000 cyc:   12743423 now IPC :1.56224: AVG IPC :1.53034: L2-Pf-HR :0.95176: L2-HR :0.90924: (Sim:0h0m53s) 
CPU  0 inst:   21000001 cyc:   13436714 now IPC :1.44240: AVG IPC :1.52544: L2-Pf-HR :0.95095: L2-HR :0.90870: (Sim:0h0m56s) 
CPU  0 inst:   22000002 cyc:   14070291 now IPC :1.57834: AVG IPC :1.52800: L2-Pf-HR :0.95178: L2-HR :0.90947: (Sim:0h0m59s) 
CPU  0 inst:   23000002 cyc:   14770267 now IPC :1.42862: AVG IPC :1.52296: L2-Pf-HR :0.95085: L2-HR :0.90877: (Sim:0h1m1s) 
CPU  0 inst:   24000000 cyc:   15405379 now IPC :1.57452: AVG IPC :1.52523: L2-Pf-HR :0.95158: L2-HR :0.90951: (Sim:0h1m4s) 
CPU  0 inst:   25000000 cyc:   16089606 now IPC :1.46150: AVG IPC :1.52234: L2-Pf-HR :0.95087: L2-HR :0.90903: (Sim:0h1m7s) 
CPU  0 inst:   26000001 cyc:   16729651 now IPC :1.56239: AVG IPC :1.52397: L2-Pf-HR :0.95139: L2-HR :0.90952: (Sim:0h1m9s) 
CPU  0 inst:   27000003 cyc:   17418617 now IPC :1.45145: AVG IPC :1.52093: L2-Pf-HR :0.95078: L2-HR :0.90909: (Sim:0h1m12s) 
CPU  0 inst:   28000000 cyc:   18051743 now IPC :1.57946: AVG IPC :1.52310: L2-Pf-HR :0.95142: L2-HR :0.90960: (Sim:0h1m15s) 
CPU  0 inst:   29000001 cyc:   18735866 now IPC :1.46173: AVG IPC :1.52074: L2-Pf-HR :0.95071: L2-HR :0.90915: (Sim:0h1m17s) 
CPU  0 inst:   30000000 cyc:   19380064 now IPC :1.55232: AVG IPC :1.52184: L2-Pf-HR :0.95133: L2-HR :0.90951: (Sim:0h1m20s) 
CPU  0 inst:   31000003 cyc:   20027125 now IPC :1.54545: AVG IPC :1.52265: L2-Pf-HR :0.95201: L2-HR :0.91008: (Sim:0h1m23s) 
CPU  0 inst:   32000000 cyc:   20715314 now IPC :1.45308: AVG IPC :1.52022: L2-Pf-HR :0.95124: L2-HR :0.90938: (Sim:0h1m25s) 
CPU  0 inst:   33000000 cyc:   21350633 now IPC :1.57401: AVG IPC :1.52190: L2-Pf-HR :0.95189: L2-HR :0.91000: (Sim:0h1m28s) 
CPU  0 inst:   34000000 cyc:   25919011 now IPC :0.21890: AVG IPC :1.28320: L2-Pf-HR :0.89902: L2-HR :0.87142: (Sim:0h1m35s) 
CPU  0 inst:   35000000 cyc:   29361020 now IPC :0.29053: AVG IPC :1.16280: L2-Pf-HR :0.89086: L2-HR :0.86375: (Sim:0h1m40s) 
CPU  0 inst:   36000000 cyc:   32804847 now IPC :0.29037: AVG IPC :1.06839: L2-Pf-HR :0.88289: L2-HR :0.85635: (Sim:0h1m45s) 
CPU  0 inst:   37000000 cyc:   36252109 now IPC :0.29009: AVG IPC :0.99232: L2-Pf-HR :0.87509: L2-HR :0.84919: (Sim:0h1m50s) 
CPU  0 inst:   38000000 cyc:   39702653 now IPC :0.28981: AVG IPC :0.92972: L2-Pf-HR :0.86746: L2-HR :0.84227: (Sim:0h1m55s) 
CPU  0 inst:   39000000 cyc:   43154376 now IPC :0.28971: AVG IPC :0.87734: L2-Pf-HR :0.86002: L2-HR :0.83557: (Sim:0h2m0s) 
CPU  0 inst:   40000000 cyc:   46606239 now IPC :0.28970: AVG IPC :0.83288: L2-Pf-HR :0.85276: L2-HR :0.82908: (Sim:0h2m5s) 
CPU  0 inst:   41000000 cyc:   50058321 now IPC :0.28968: AVG IPC :0.79467: L2-Pf-HR :0.84564: L2-HR :0.82280: (Sim:0h2m10s) 
CPU  0 inst:   42000002 cyc:   53597538 now IPC :0.28255: AVG IPC :0.76022: L2-Pf-HR :0.83683: L2-HR :0.81502: (Sim:0h2m15s) 
CPU  0 inst:   43000000 cyc:   54395866 now IPC :1.25262: AVG IPC :0.76758: L2-Pf-HR :0.84065: L2-HR :0.81847: (Sim:0h2m18s) 
CPU  0 inst:   44000000 cyc:   54993353 now IPC :1.67368: AVG IPC :0.77760: L2-Pf-HR :0.84756: L2-HR :0.82430: (Sim:0h2m21s) 
CPU  0 inst:   45000003 cyc:   55726310 now IPC :1.36434: AVG IPC :0.78546: L2-Pf-HR :0.85137: L2-HR :0.82780: (Sim:0h2m23s) 
CPU  0 inst:   46000002 cyc:   56314168 now IPC :1.70109: AVG IPC :0.79519: L2-Pf-HR :0.85723: L2-HR :0.83300: (Sim:0h2m26s) 
CPU  0 inst:   47000001 cyc:   57071036 now IPC :1.32123: AVG IPC :0.80229: L2-Pf-HR :0.86029: L2-HR :0.83584: (Sim:0h2m29s) 
CPU  0 inst:   48000000 cyc:   57667106 now IPC :1.67765: AVG IPC :0.81149: L2-Pf-HR :0.86530: L2-HR :0.84044: (Sim:0h2m31s) 
CPU  0 inst:   49000000 cyc:   58319534 now IPC :1.53274: AVG IPC :0.81970: L2-Pf-HR :0.86774: L2-HR :0.84295: (Sim:0h2m34s) 
CPU  0 inst:   50000000 cyc:   58890727 now IPC :1.75072: AVG IPC :0.82888: L2-Pf-HR :0.87206: L2-HR :0.84680: (Sim:0h2m37s) 
CPU  0 inst:   51000002 cyc:   59584474 now IPC :1.44145: AVG IPC :0.83613: L2-Pf-HR :0.87417: L2-HR :0.84895: (Sim:0h2m39s) 
CPU  0 inst:   52000000 cyc:   60182942 now IPC :1.67093: AVG IPC :0.84457: L2-Pf-HR :0.87792: L2-HR :0.85236: (Sim:0h2m42s) 
CPU  0 inst:   53000001 cyc:   60865339 now IPC :1.46542: AVG IPC :0.85165: L2-Pf-HR :0.87968: L2-HR :0.85423: (Sim:0h2m45s) 
CPU  0 inst:   54000000 cyc:   61432429 now IPC :1.76339: AVG IPC :0.86020: L2-Pf-HR :0.88291: L2-HR :0.85733: (Sim:0h2m47s) 
CPU  0 inst:   55000001 cyc:   62116546 now IPC :1.46174: AVG IPC :0.86693: L2-Pf-HR :0.88446: L2-HR :0.85898: (Sim:0h2m50s) 
CPU  0 inst:   56000000 cyc:   62690124 now IPC :1.74344: AVG IPC :0.87508: L2-Pf-HR :0.88731: L2-HR :0.86171: (Sim:0h2m52s) 
CPU  0 inst:   57000001 cyc:   63370980 now IPC :1.46874: AVG IPC :0.88156: L2-Pf-HR :0.88863: L2-HR :0.86312: (Sim:0h2m55s) 
CPU  0 inst:   58000003 cyc:   63955032 now IPC :1.71218: AVG IPC :0.88926: L2-Pf-HR :0.89107: L2-HR :0.86549: (Sim:0h2m58s) 
CPU  0 inst:   59000002 cyc:   64630230 now IPC :1.48105: AVG IPC :0.89554: L2-Pf-HR :0.89223: L2-HR :0.86677: (Sim:0h3m0s) 
CPU  0 inst:   60000000 cyc:   65220364 now IPC :1.69453: AVG IPC :0.90288: L2-Pf-HR :0.89435: L2-HR :0.86883: (Sim:0h3m3s) 
CPU  0 inst:   61000001 cyc:   65890980 now IPC :1.49117: AVG IPC :0.90896: L2-Pf-HR :0.89547: L2-HR :0.87002: (Sim:0h3m5s) 
CPU  0 inst:   62000001 cyc:   66470626 now IPC :1.72519: AVG IPC :0.91618: L2-Pf-HR :0.89730: L2-HR :0.87189: (Sim:0h3m8s) 
CPU  0 inst:   63000000 cyc:   67075128 now IPC :1.65425: AVG IPC :0.92293: L2-Pf-HR :0.89900: L2-HR :0.87361: (Sim:0h3m10s) 
CPU  0 inst:   64000000 cyc:   67735687 now IPC :1.51387: AVG IPC :0.92878: L2-Pf-HR :0.89988: L2-HR :0.87454: (Sim:0h3m13s) 
CPU  0 inst:   65000002 cyc:   68312539 now IPC :1.73355: AVG IPC :0.93567: L2-Pf-HR :0.90167: L2-HR :0.87633: (Sim:0h3m16s) 
CPU  0 inst:   66000002 cyc:   68997616 now IPC :1.45969: AVG IPC :0.94095: L2-Pf-HR :0.90221: L2-HR :0.87695: (Sim:0h3m19s) 
CPU  0 inst:   67000002 cyc:   69570794 now IPC :1.74466: AVG IPC :0.94767: L2-Pf-HR :0.90393: L2-HR :0.87867: (Sim:0h3m21s) 
CPU  0 inst:   68000000 cyc:   70243761 now IPC :1.48595: AVG IPC :0.95290: L2-Pf-HR :0.90436: L2-HR :0.87927: (Sim:0h3m24s) 
CPU  0 inst:   69000000 cyc:   70831280 now IPC :1.70207: AVG IPC :0.95920: L2-Pf-HR :0.90604: L2-HR :0.88089: (Sim:0h3m27s) 
CPU  0 inst:   70000002 cyc:   71512345 now IPC :1.46829: AVG IPC :0.96411: L2-Pf-HR :0.90633: L2-HR :0.88136: (Sim:0h3m29s) 
CPU  0 inst:   71000003 cyc:   72091747 now IPC :1.72592: AVG IPC :0.97032: L2-Pf-HR :0.90788: L2-HR :0.88285: (Sim:0h3m32s) 
CPU  0 inst:   72000000 cyc:   72777027 now IPC :1.45925: AVG IPC :0.97499: L2-Pf-HR :0.90813: L2-HR :0.88326: (Sim:0h3m34s) 
Finished CPU 0 instr: 70000000 cyc: 71795711 AVG IPC: 0.97499 (Sim time: 0h3m34s)

ChampSim completed all CPUs

[ROI Statistics]
Core_0_instructions 70000000
Core_0_cycles 71795711
Core_0_IPC 0.97499

Core_0_branch_prediction_accuracy 97.65692
Core_0_branch_MPKI 0.58830
Core_0_average_ROB_occupancy_at_mispredict 228.59841

Core_0_L1D_total_access 34905399
Core_0_L1D_total_hit 33163562 L1D_total_Hit Ratio: 0.95010
Core_0_L1D_total_miss 1741837
Core_0_L1D_loads 16061253
Core_0_L1D_load_hit 15462181 L1D_load_Hit Ratio: 0.96270
Core_0_L1D_load_miss 599072
Core_0_L1D_RFOs 1563424
Core_0_L1D_RFO_hit 1505798 L1D_RFO_Hit Ratio: 0.96314
Core_0_L1D_RFO_miss 57626
Core_0_L1D_prefetches 17280722
Core_0_L1D_prefetch_hit 16195583 L1D_prefetch_Hit Ratio: 0.93721
Core_0_L1D_prefetch_miss 1085139
Core_0_L1D_writebacks 0
Core_0_L1D_writeback_hit 0 L1D_writeback_Hit Ratio: -nan
Core_0_L1D_writeback_miss 0
Core_0_L1D_prefetch_requested 45326993
Core_0_L1D_prefetch_issued 24840845
Core_0_L1D_prefetch_useful 1065668 L1D_Useful Ratio: 0.04290
Core_0_L1D_prefetch_useless 45477
Core_0_L1D_prefetch_late 184925
Core_0_L1D_average_miss_latency 4894734.33224

Core_0_L1I_total_access 15815794
Core_0_L1I_total_hit 15810944 L1I_total_Hit Ratio: 0.99969
Core_0_L1I_total_miss 4850
Core_0_L1I_loads 15815794
Core_0_L1I_load_hit 15810944 L1I_load_Hit Ratio: 0.99969
Core_0_L1I_load_miss 4850
Core_0_L1I_RFOs 0
Core_0_L1I_RFO_hit 0 L1I_RFO_Hit Ratio: -nan
Core_0_L1I_RFO_miss 0
Core_0_L1I_prefetches 0
Core_0_L1I_prefetch_hit 0 L1I_prefetch_Hit Ratio: -nan
Core_0_L1I_prefetch_miss 0
Core_0_L1I_writebacks 0
Core_0_L1I_writeback_hit 0 L1I_writeback_Hit Ratio: -nan
Core_0_L1I_writeback_miss 0
Core_0_L1I_prefetch_requested 0
Core_0_L1I_prefetch_issued 0
Core_0_L1I_prefetch_useful 0 L1I_Useful Ratio: -nan
Core_0_L1I_prefetch_useless 0
Core_0_L1I_prefetch_late 0
Core_0_L1I_average_miss_latency 281.34619

Core_0_L2C_total_access 4528311
Core_0_L2C_total_hit 3999678 L2C_total_Hit Ratio: 0.88326
Core_0_L2C_total_miss 528633
Core_0_L2C_loads 418950
Core_0_L2C_load_hit 272473 L2C_load_Hit Ratio: 0.65037
Core_0_L2C_load_miss 146477
Core_0_L2C_RFOs 57620
Core_0_L2C_RFO_hit 14942 L2C_RFO_Hit Ratio: 0.25932
Core_0_L2C_RFO_miss 42678
Core_0_L2C_prefetches 3674636
Core_0_L2C_prefetch_hit 3337065 L2C_prefetch_Hit Ratio: 0.90813
Core_0_L2C_prefetch_miss 337571
Core_0_L2C_writebacks 377105
Core_0_L2C_writeback_hit 375198 L2C_writeback_Hit Ratio: 0.99494
Core_0_L2C_writeback_miss 1907
Core_0_L2C_prefetch_requested 4387514
Core_0_L2C_prefetch_issued 4338361
Core_0_L2C_prefetch_useful 80203 L2C_Useful Ratio: 0.01849
Core_0_L2C_prefetch_useless 261774
Core_0_L2C_prefetch_late 5149
Core_0_L2C_average_miss_latency 294.88682

Core_0_LLC_total_access 800345
Core_0_LLC_total_hit 342980 LLC_total_Hit Ratio: 0.42854
Core_0_LLC_total_miss 457365
Core_0_LLC_loads 141455
Core_0_LLC_load_hit 14265 LLC_load_Hit Ratio: 0.10084
Core_0_LLC_load_miss 127190
Core_0_LLC_RFOs 42675
Core_0_LLC_RFO_hit 5509 LLC_RFO_Hit Ratio: 0.12909
Core_0_LLC_RFO_miss 37166
Core_0_LLC_prefetches 342593
Core_0_LLC_prefetch_hit 53869 LLC_prefetch_Hit Ratio: 0.15724
Core_0_LLC_prefetch_miss 288724
Core_0_LLC_writebacks 273622
Core_0_LLC_writeback_hit 269337 LLC_writeback_Hit Ratio: 0.98434
Core_0_LLC_writeback_miss 4285
Core_0_LLC_prefetch_requested 0
Core_0_LLC_prefetch_issued 0
Core_0_LLC_prefetch_useful 2886 LLC_Useful Ratio: inf
Core_0_LLC_prefetch_useless 274511
Core_0_LLC_prefetch_late 0
Core_0_LLC_average_miss_latency 307.75097

Core_0_major_page_fault 0
Core_0_minor_page_fault 5055


Channel_0_RQ_row_buffer_hit 243528
Channel_0_RQ_row_buffer_miss 209552
Channel_0_WQ_row_buffer_hit 73578
Channel_0_WQ_row_buffer_miss 150287
Channel_0_WQ_full 0
Channel_0_dbus_congested 357747

avg_congested_cycle 11

EzSearch AVG IPC :0.97499: L2-Pf-HR :0.90813 : L2-HR :0.88326 Uful:0.01849
Finished combination: TraceType=777-comparisonScript Sim:70000000 Prefetcher=L2ipcp L1=ipcp
