TRACE: [32000000]_FE_OPT-125M_[h12]_[s256]_[d64] Warmup: 2000000 NumTraces: 32000000
L1:next_line:L2:029-TOPTOP-L2-MultiMarkovDelta_ip_stride_v3
*************************************************
   ChampSim Multicore Out-of-Order Simulator
   Last compiled: Oct 21 2024 08:08:41
*************************************************

trace_0 777-comparisonScript_memoryTraces_s256/memTraces[32000000]_FE_OPT-125M_[h12]_[s256]_[d64].champsim.xz
CPU 0 L1D next line prefetcher
MK1: Size: 256 TMAX: 64 TMIN: 32 MKPTHRESH: 12
MK2: Size: 256 TMAX: 32 TMIN: 16 MKPTHRESH: 30
MK3: Size: 256 TMAX: 16 TMIN: 0 MKPTHRESH: 40
MK4: Size: 32 TMAX: 4 TMIN: 0 MKPTHRESH: 0
Stride Size: 64 Prefetch Degree: 14

CPU 0 L2C prefetcher
MAIN.cc ln 751 stats print skipped
CPU 0 L2C prefetcher initialized


Cache Size: 512
number of cache lines: 8192
CPU  0 inst:    1000000 cyc:     502809 now IPC :1.98883: AVG IPC :1.98883: L2-Pf-HR :0.90399: L2-HR :0.87876: (Sim:0h0m2s) 
CPU  0 inst:    2000000 cyc:     981868 now IPC :2.08743: AVG IPC :2.03693: L2-Pf-HR :0.92608: L2-HR :0.90940: (Sim:0h0m5s) 

Warmup complete CPU  0 instructions:    2000002 cycles:     981869 (Simulation time: 0 hr 0 min 5 sec) 

CPU  0 inst:    3000002 cyc:    1572826 now IPC :1.69217: AVG IPC :1.69217: L2-Pf-HR :0.94036: L2-HR :0.93515: (Sim:0h0m8s) 
CPU  0 inst:    4000000 cyc:    2155950 now IPC :1.71490: AVG IPC :1.70346: L2-Pf-HR :0.94065: L2-HR :0.93596: (Sim:0h0m10s) 
CPU  0 inst:    5000003 cyc:    2747365 now IPC :1.69087: AVG IPC :1.69924: L2-Pf-HR :0.94094: L2-HR :0.93644: (Sim:0h0m13s) 
CPU  0 inst:    6000000 cyc:    3348183 now IPC :1.66439: AVG IPC :1.69039: L2-Pf-HR :0.94101: L2-HR :0.93650: (Sim:0h0m15s) 
CPU  0 inst:    7000001 cyc:    3982416 now IPC :1.57671: AVG IPC :1.66636: L2-Pf-HR :0.94090: L2-HR :0.93637: (Sim:0h0m18s) 
CPU  0 inst:    8000000 cyc:    4625321 now IPC :1.55544: AVG IPC :1.64679: L2-Pf-HR :0.94101: L2-HR :0.93632: (Sim:0h0m21s) 
CPU  0 inst:    9000003 cyc:    5261448 now IPC :1.57202: AVG IPC :1.63568: L2-Pf-HR :0.94170: L2-HR :0.93683: (Sim:0h0m24s) 
CPU  0 inst:   10000001 cyc:    5905055 now IPC :1.55374: AVG IPC :1.62496: L2-Pf-HR :0.94187: L2-HR :0.93687: (Sim:0h0m26s) 
CPU  0 inst:   11000002 cyc:    6541197 now IPC :1.57198: AVG IPC :1.61890: L2-Pf-HR :0.94192: L2-HR :0.93696: (Sim:0h0m29s) 
CPU  0 inst:   12000000 cyc:    7179857 now IPC :1.56578: AVG IPC :1.61343: L2-Pf-HR :0.94219: L2-HR :0.93720: (Sim:0h0m32s) 
CPU  0 inst:   13000000 cyc:    8923570 now IPC :0.57349: AVG IPC :1.38509: L2-Pf-HR :0.92030: L2-HR :0.91845: (Sim:0h0m36s) 
CPU  0 inst:   14000000 cyc:   12905964 now IPC :0.25111: AVG IPC :1.00637: L2-Pf-HR :0.88645: L2-HR :0.89113: (Sim:0h0m42s) 
CPU  0 inst:   15000000 cyc:   16346605 now IPC :0.29064: AVG IPC :0.84609: L2-Pf-HR :0.87567: L2-HR :0.88226: (Sim:0h0m47s) 
CPU  0 inst:   16000000 cyc:   19795383 now IPC :0.28996: AVG IPC :0.74415: L2-Pf-HR :0.86576: L2-HR :0.87416: (Sim:0h0m52s) 
CPU  0 inst:   17000000 cyc:   23249658 now IPC :0.28950: AVG IPC :0.67362: L2-Pf-HR :0.85646: L2-HR :0.86663: (Sim:0h0m57s) 
CPU  0 inst:   18000000 cyc:   26703895 now IPC :0.28950: AVG IPC :0.62203: L2-Pf-HR :0.84773: L2-HR :0.85962: (Sim:0h1m3s) 
CPU  0 inst:   19000000 cyc:   30161628 now IPC :0.28921: AVG IPC :0.58260: L2-Pf-HR :0.83951: L2-HR :0.85305: (Sim:0h1m8s) 
CPU  0 inst:   20000000 cyc:   32239704 now IPC :0.48121: AVG IPC :0.57586: L2-Pf-HR :0.84794: L2-HR :0.85959: (Sim:0h1m12s) 
CPU  0 inst:   21000003 cyc:   32960865 now IPC :1.38666: AVG IPC :0.59414: L2-Pf-HR :0.86697: L2-HR :0.87587: (Sim:0h1m15s) 
CPU  0 inst:   22000002 cyc:   33673650 now IPC :1.40295: AVG IPC :0.61177: L2-Pf-HR :0.88114: L2-HR :0.88821: (Sim:0h1m18s) 
CPU  0 inst:   23000003 cyc:   34385577 now IPC :1.40464: AVG IPC :0.62867: L2-Pf-HR :0.89231: L2-HR :0.89802: (Sim:0h1m21s) 
CPU  0 inst:   24000000 cyc:   35097755 now IPC :1.40414: AVG IPC :0.64486: L2-Pf-HR :0.90120: L2-HR :0.90593: (Sim:0h1m24s) 
CPU  0 inst:   25000000 cyc:   35780481 now IPC :1.46472: AVG IPC :0.66095: L2-Pf-HR :0.90826: L2-HR :0.91226: (Sim:0h1m27s) 
CPU  0 inst:   26000003 cyc:   36449003 now IPC :1.49584: AVG IPC :0.67668: L2-Pf-HR :0.91417: L2-HR :0.91756: (Sim:0h1m31s) 
CPU  0 inst:   27000001 cyc:   37122090 now IPC :1.48569: AVG IPC :0.69175: L2-Pf-HR :0.91914: L2-HR :0.92205: (Sim:0h1m34s) 
CPU  0 inst:   28000000 cyc:   37784881 now IPC :1.50877: AVG IPC :0.70646: L2-Pf-HR :0.92358: L2-HR :0.92606: (Sim:0h1m37s) 
CPU  0 inst:   29000002 cyc:   38454529 now IPC :1.49332: AVG IPC :0.72053: L2-Pf-HR :0.92725: L2-HR :0.92941: (Sim:0h1m40s) 
Finished CPU 0 instr: 27000000 cyc: 37472660 AVG IPC: 0.72053 (Sim time: 0h1m40s)

ChampSim completed all CPUs

[ROI Statistics]
Core_0_instructions 27000000
Core_0_cycles 37472660
Core_0_IPC 0.72053

Core_0_branch_prediction_accuracy 98.38092
Core_0_branch_MPKI 0.53367
Core_0_average_ROB_occupancy_at_mispredict 195.76057

Core_0_L1D_total_access 18891352
Core_0_L1D_total_hit 17429534 L1D_total_Hit Ratio: 0.92262
Core_0_L1D_total_miss 1461818
Core_0_L1D_loads 7347987
Core_0_L1D_load_hit 6717454 L1D_load_Hit Ratio: 0.91419
Core_0_L1D_load_miss 630533
Core_0_L1D_RFOs 858201
Core_0_L1D_RFO_hit 818121 L1D_RFO_Hit Ratio: 0.95330
Core_0_L1D_RFO_miss 40080
Core_0_L1D_prefetches 10685164
Core_0_L1D_prefetch_hit 9893959 L1D_prefetch_Hit Ratio: 0.92595
Core_0_L1D_prefetch_miss 791205
Core_0_L1D_writebacks 0
Core_0_L1D_writeback_hit 0 L1D_writeback_Hit Ratio: -nan
Core_0_L1D_writeback_miss 0
Core_0_L1D_prefetch_requested 24159822
Core_0_L1D_prefetch_issued 13011706
Core_0_L1D_prefetch_useful 357825 L1D_Useful Ratio: 0.02750
Core_0_L1D_prefetch_useless 461092
Core_0_L1D_prefetch_late 86885
Core_0_L1D_average_miss_latency 1125569.36287

Core_0_L1I_total_access 6711607
Core_0_L1I_total_hit 6706873 L1I_total_Hit Ratio: 0.99929
Core_0_L1I_total_miss 4734
Core_0_L1I_loads 6711607
Core_0_L1I_load_hit 6706873 L1I_load_Hit Ratio: 0.99929
Core_0_L1I_load_miss 4734
Core_0_L1I_RFOs 0
Core_0_L1I_RFO_hit 0 L1I_RFO_Hit Ratio: -nan
Core_0_L1I_RFO_miss 0
Core_0_L1I_prefetches 0
Core_0_L1I_prefetch_hit 0 L1I_prefetch_Hit Ratio: -nan
Core_0_L1I_prefetch_miss 0
Core_0_L1I_writebacks 0
Core_0_L1I_writeback_hit 0 L1I_writeback_Hit Ratio: -nan
Core_0_L1I_writeback_miss 0
Core_0_L1I_prefetch_requested 0
Core_0_L1I_prefetch_issued 0
Core_0_L1I_prefetch_useful 0 L1I_Useful Ratio: -nan
Core_0_L1I_prefetch_useless 0
Core_0_L1I_prefetch_late 0
Core_0_L1I_average_miss_latency 323.97212

Core_0_L2C_total_access 3957319
Core_0_L2C_total_hit 3677988 L2C_total_Hit Ratio: 0.92941
Core_0_L2C_total_miss 279331
Core_0_L2C_loads 548969
Core_0_L2C_load_hit 512838 L2C_load_Hit Ratio: 0.93418
Core_0_L2C_load_miss 36131
Core_0_L2C_RFOs 40073
Core_0_L2C_RFO_hit 29188 L2C_RFO_Hit Ratio: 0.72837
Core_0_L2C_RFO_miss 10885
Core_0_L2C_prefetches 3191830
Core_0_L2C_prefetch_hit 2959624 L2C_prefetch_Hit Ratio: 0.92725
Core_0_L2C_prefetch_miss 232206
Core_0_L2C_writebacks 176447
Core_0_L2C_writeback_hit 176338 L2C_writeback_Hit Ratio: 0.99938
Core_0_L2C_writeback_miss 109
Core_0_L2C_prefetch_requested 6971175
Core_0_L2C_prefetch_issued 3396474
Core_0_L2C_prefetch_useful 81014 L2C_Useful Ratio: 0.02385
Core_0_L2C_prefetch_useless 160734
Core_0_L2C_prefetch_late 1444
Core_0_L2C_average_miss_latency 321.29738

Core_0_LLC_total_access 435870
Core_0_LLC_total_hit 158653 LLC_total_Hit Ratio: 0.36399
Core_0_LLC_total_miss 277217
Core_0_LLC_loads 34702
Core_0_LLC_load_hit 530 LLC_load_Hit Ratio: 0.01527
Core_0_LLC_load_miss 34172
Core_0_LLC_RFOs 10885
Core_0_LLC_RFO_hit 29 LLC_RFO_Hit Ratio: 0.00266
Core_0_LLC_RFO_miss 10856
Core_0_LLC_prefetches 236190
Core_0_LLC_prefetch_hit 5176 LLC_prefetch_Hit Ratio: 0.02191
Core_0_LLC_prefetch_miss 231014
Core_0_LLC_writebacks 154093
Core_0_LLC_writeback_hit 152918 LLC_writeback_Hit Ratio: 0.99237
Core_0_LLC_writeback_miss 1175
Core_0_LLC_prefetch_requested 0
Core_0_LLC_prefetch_issued 0
Core_0_LLC_prefetch_useful 289 LLC_Useful Ratio: inf
Core_0_LLC_prefetch_useless 218550
Core_0_LLC_prefetch_late 94
Core_0_LLC_average_miss_latency 299.21251

Core_0_major_page_fault 0
Core_0_minor_page_fault 3170

CPU 0 L1D next line prefetcher final stats
CPU 0 L2C PC-based stride prefetcher final stats
Stride Degree: 14
MK1  MARKOV_LRU_SIZE: 256
MK1  MARKOV_PREDICTION_PERCENTTHRESHOLD: 12.00000
MK1  OUTLIERS_THRESHOLD_Max: 64
MK1  OUTLIERS_THRESHOLD_Min: 32
MK2  MARKOV_LRU_SIZE: 256
MK2  MARKOV_PREDICTION_PERCENTTHRESHOLD: 30.00000
MK2  OUTLIERS_THRESHOLD_Max: 32
MK2  OUTLIERS_THRESHOLD_Min: 16
MK3  MARKOV_LRU_SIZE: 32
MK3  MARKOV_PREDICTION_PERCENTTHRESHOLD: 0.00000
MK3  OUTLIERS_THRESHOLD_Max: 4
MK3  OUTLIERS_THRESHOLD_Min: 0
MK4  MARKOV_LRU_SIZE: 32
MK4  MARKOV_PREDICTION_PERCENTTHRESHOLD: 0.00000
MK4  OUTLIERS_THRESHOLD_Max: 4
MK4  OUTLIERS_THRESHOLD_Min: 0
IPStride Degree/Access Ratio: 3.34624
MK1 IPDEltaMarkov  Degree/Access Ratio: 0.53432
MK2 IPDEltaMarkov  Degree/Access Ratio: 0.41010
MK3 IPDEltaMarkov  Degree/Access Ratio: 0.00000
MK4 IPDEltaMarkov  Degree/Access Ratio: 1.30711
Channel_0_RQ_row_buffer_hit 139221
Channel_0_RQ_row_buffer_miss 136821
Channel_0_WQ_row_buffer_hit 48868
Channel_0_WQ_row_buffer_miss 104293
Channel_0_WQ_full 0
Channel_0_dbus_congested 301319

avg_congested_cycle 10

EzSearch AVG IPC :0.72053: L2-Pf-HR :0.92725 : L2-HR :0.92941 Uful:0.02385
Finished combination: TraceType=777-comparisonScript Sim:27000000 Prefetcher=L2029-TOPTOP-L2-MultiMarkovDelta_ip_stride_v3 L1=next_line
