TRACE: [331000000][Pythia-70M]_[h8][s1024][d64] Warmup: 2000000 NumTraces: 331000000
L1:next_line:L2:029-TOPTOP-L2-MultiMarkovDelta_ip_stride_v3
*************************************************
   ChampSim Multicore Out-of-Order Simulator
   Last compiled: Oct 21 2024 08:08:41
*************************************************

trace_0 777-comparisonScript_memoryTraces/memTraces[331000000][Pythia-70M]_[h8][s1024][d64].champsim.xz
CPU 0 L1D next line prefetcher
MK1: Size: 256 TMAX: 64 TMIN: 32 MKPTHRESH: 12
MK2: Size: 256 TMAX: 32 TMIN: 16 MKPTHRESH: 30
MK3: Size: 256 TMAX: 16 TMIN: 0 MKPTHRESH: 40
MK4: Size: 32 TMAX: 4 TMIN: 0 MKPTHRESH: 0
Stride Size: 64 Prefetch Degree: 14

CPU 0 L2C prefetcher
MAIN.cc ln 751 stats print skipped
CPU 0 L2C prefetcher initialized


Cache Size: 512
number of cache lines: 8192
CPU  0 inst:    1000000 cyc:     502814 now IPC :1.98881: AVG IPC :1.98881: L2-Pf-HR :0.84842: L2-HR :0.80851: (Sim:0h0m3s) 
CPU  0 inst:    2000001 cyc:     978300 now IPC :2.10311: AVG IPC :2.04436: L2-Pf-HR :0.87854: L2-HR :0.84005: (Sim:0h0m6s) 

Warmup complete CPU  0 instructions:    2000001 cycles:     978300 (Simulation time: 0 hr 0 min 6 sec) 

CPU  0 inst:    3000000 cyc:    1575098 now IPC :1.67561: AVG IPC :1.67561: L2-Pf-HR :0.85755: L2-HR :0.82666: (Sim:0h0m8s) 
CPU  0 inst:    4000000 cyc:    2171564 now IPC :1.67654: AVG IPC :1.67607: L2-Pf-HR :0.86003: L2-HR :0.82901: (Sim:0h0m11s) 
CPU  0 inst:    5000003 cyc:    2761554 now IPC :1.69495: AVG IPC :1.68232: L2-Pf-HR :0.86121: L2-HR :0.83009: (Sim:0h0m13s) 
CPU  0 inst:    6000003 cyc:    3367807 now IPC :1.64948: AVG IPC :1.67399: L2-Pf-HR :0.86481: L2-HR :0.83276: (Sim:0h0m16s) 
CPU  0 inst:    7000000 cyc:    4127473 now IPC :1.31636: AVG IPC :1.58772: L2-Pf-HR :0.86531: L2-HR :0.83337: (Sim:0h0m19s) 
CPU  0 inst:    8000000 cyc:    4730629 now IPC :1.65795: AVG IPC :1.59901: L2-Pf-HR :0.86521: L2-HR :0.83351: (Sim:0h0m22s) 
CPU  0 inst:    9000002 cyc:    5328762 now IPC :1.67187: AVG IPC :1.60902: L2-Pf-HR :0.86538: L2-HR :0.83390: (Sim:0h0m24s) 
CPU  0 inst:   10000003 cyc:    5933284 now IPC :1.65420: AVG IPC :1.61454: L2-Pf-HR :0.86564: L2-HR :0.83437: (Sim:0h0m27s) 
CPU  0 inst:   11000001 cyc:    6531267 now IPC :1.67228: AVG IPC :1.62076: L2-Pf-HR :0.86517: L2-HR :0.83403: (Sim:0h0m30s) 
CPU  0 inst:   12000000 cyc:    7131069 now IPC :1.66722: AVG IPC :1.62528: L2-Pf-HR :0.86644: L2-HR :0.83510: (Sim:0h0m32s) 
CPU  0 inst:   13000001 cyc:    7819062 now IPC :1.45350: AVG IPC :1.60801: L2-Pf-HR :0.86671: L2-HR :0.83539: (Sim:0h0m35s) 
CPU  0 inst:   14000001 cyc:    8420027 now IPC :1.66399: AVG IPC :1.61253: L2-Pf-HR :0.86744: L2-HR :0.83606: (Sim:0h0m38s) 
CPU  0 inst:   15000001 cyc:    9018850 now IPC :1.66994: AVG IPC :1.61680: L2-Pf-HR :0.86765: L2-HR :0.83635: (Sim:0h0m40s) 
CPU  0 inst:   16000000 cyc:    9616349 now IPC :1.67364: AVG IPC :1.62074: L2-Pf-HR :0.86822: L2-HR :0.83686: (Sim:0h0m43s) 
CPU  0 inst:   17000003 cyc:   10404091 now IPC :1.26945: AVG IPC :1.59138: L2-Pf-HR :0.86701: L2-HR :0.83566: (Sim:0h0m46s) 
CPU  0 inst:   18000002 cyc:   11016529 now IPC :1.63282: AVG IPC :1.59391: L2-Pf-HR :0.86579: L2-HR :0.83456: (Sim:0h0m49s) 
CPU  0 inst:   19000002 cyc:   11635560 now IPC :1.61543: AVG IPC :1.59516: L2-Pf-HR :0.86495: L2-HR :0.83381: (Sim:0h0m51s) 
CPU  0 inst:   20000000 cyc:   12249847 now IPC :1.62790: AVG IPC :1.59694: L2-Pf-HR :0.86451: L2-HR :0.83339: (Sim:0h0m54s) 
CPU  0 inst:   21000001 cyc:   12865119 now IPC :1.62530: AVG IPC :1.59841: L2-Pf-HR :0.86429: L2-HR :0.83319: (Sim:0h0m57s) 
CPU  0 inst:   22000003 cyc:   13484817 now IPC :1.61369: AVG IPC :1.59917: L2-Pf-HR :0.86437: L2-HR :0.83318: (Sim:0h0m59s) 
CPU  0 inst:   23000003 cyc:   14236501 now IPC :1.33035: AVG IPC :1.58393: L2-Pf-HR :0.86469: L2-HR :0.83351: (Sim:0h1m2s) 
CPU  0 inst:   24000000 cyc:   14839732 now IPC :1.65773: AVG IPC :1.58714: L2-Pf-HR :0.86455: L2-HR :0.83340: (Sim:0h1m5s) 
CPU  0 inst:   25000003 cyc:   15442649 now IPC :1.65861: AVG IPC :1.59012: L2-Pf-HR :0.86454: L2-HR :0.83341: (Sim:0h1m8s) 
CPU  0 inst:   26000000 cyc:   16041863 now IPC :1.66885: AVG IPC :1.59325: L2-Pf-HR :0.86474: L2-HR :0.83363: (Sim:0h1m10s) 
CPU  0 inst:   27000002 cyc:   16644358 now IPC :1.65977: AVG IPC :1.59581: L2-Pf-HR :0.86460: L2-HR :0.83352: (Sim:0h1m13s) 
CPU  0 inst:   28000000 cyc:   17238621 now IPC :1.68275: AVG IPC :1.59898: L2-Pf-HR :0.86484: L2-HR :0.83375: (Sim:0h1m16s) 
CPU  0 inst:   29000003 cyc:   17914138 now IPC :1.48035: AVG IPC :1.59425: L2-Pf-HR :0.86529: L2-HR :0.83414: (Sim:0h1m18s) 
CPU  0 inst:   30000000 cyc:   18520601 now IPC :1.64890: AVG IPC :1.59614: L2-Pf-HR :0.86558: L2-HR :0.83440: (Sim:0h1m21s) 
CPU  0 inst:   31000000 cyc:   19119659 now IPC :1.66929: AVG IPC :1.59856: L2-Pf-HR :0.86578: L2-HR :0.83463: (Sim:0h1m24s) 
CPU  0 inst:   32000000 cyc:   19720763 now IPC :1.66361: AVG IPC :1.60064: L2-Pf-HR :0.86619: L2-HR :0.83500: (Sim:0h1m26s) 
CPU  0 inst:   33000003 cyc:   20507476 now IPC :1.27112: AVG IPC :1.58737: L2-Pf-HR :0.86607: L2-HR :0.83485: (Sim:0h1m29s) 
CPU  0 inst:   34000003 cyc:   21112132 now IPC :1.65383: AVG IPC :1.58936: L2-Pf-HR :0.86554: L2-HR :0.83436: (Sim:0h1m32s) 
CPU  0 inst:   35000003 cyc:   21723926 now IPC :1.63454: AVG IPC :1.59070: L2-Pf-HR :0.86505: L2-HR :0.83392: (Sim:0h1m35s) 
CPU  0 inst:   36000000 cyc:   22344047 now IPC :1.61258: AVG IPC :1.59133: L2-Pf-HR :0.86492: L2-HR :0.83380: (Sim:0h1m37s) 
CPU  0 inst:   37000001 cyc:   22960173 now IPC :1.62305: AVG IPC :1.59222: L2-Pf-HR :0.86494: L2-HR :0.83380: (Sim:0h1m40s) 
CPU  0 inst:   38000001 cyc:   23581008 now IPC :1.61073: AVG IPC :1.59273: L2-Pf-HR :0.86503: L2-HR :0.83386: (Sim:0h1m43s) 
CPU  0 inst:   39000003 cyc:   24329593 now IPC :1.33586: AVG IPC :1.58449: L2-Pf-HR :0.86536: L2-HR :0.83415: (Sim:0h1m46s) 
CPU  0 inst:   40000000 cyc:   24935056 now IPC :1.65162: AVG IPC :1.58619: L2-Pf-HR :0.86512: L2-HR :0.83393: (Sim:0h1m48s) 
CPU  0 inst:   41000003 cyc:   25533000 now IPC :1.67240: AVG IPC :1.58829: L2-Pf-HR :0.86508: L2-HR :0.83393: (Sim:0h1m51s) 
CPU  0 inst:   42000003 cyc:   26139996 now IPC :1.64746: AVG IPC :1.58972: L2-Pf-HR :0.86509: L2-HR :0.83396: (Sim:0h1m54s) 
CPU  0 inst:   43000000 cyc:   26744744 now IPC :1.65358: AVG IPC :1.59122: L2-Pf-HR :0.86490: L2-HR :0.83380: (Sim:0h1m56s) 
CPU  0 inst:   44000000 cyc:   27347382 now IPC :1.65937: AVG IPC :1.59277: L2-Pf-HR :0.86493: L2-HR :0.83383: (Sim:0h1m59s) 
CPU  0 inst:   45000003 cyc:   28031378 now IPC :1.46200: AVG IPC :1.58947: L2-Pf-HR :0.86533: L2-HR :0.83416: (Sim:0h2m2s) 
CPU  0 inst:   46000002 cyc:   28631021 now IPC :1.66766: AVG IPC :1.59116: L2-Pf-HR :0.86552: L2-HR :0.83435: (Sim:0h2m4s) 
CPU  0 inst:   47000001 cyc:   29233911 now IPC :1.65868: AVG IPC :1.59260: L2-Pf-HR :0.86575: L2-HR :0.83458: (Sim:0h2m7s) 
CPU  0 inst:   48000000 cyc:   29833652 now IPC :1.66738: AVG IPC :1.59416: L2-Pf-HR :0.86600: L2-HR :0.83481: (Sim:0h2m10s) 
CPU  0 inst:   49000000 cyc:   30617536 now IPC :1.27570: AVG IPC :1.58574: L2-Pf-HR :0.86575: L2-HR :0.83457: (Sim:0h2m13s) 
CPU  0 inst:   50000001 cyc:   31229417 now IPC :1.63431: AVG IPC :1.58672: L2-Pf-HR :0.86553: L2-HR :0.83435: (Sim:0h2m15s) 
CPU  0 inst:   51000000 cyc:   31835704 now IPC :1.64938: AVG IPC :1.58795: L2-Pf-HR :0.86534: L2-HR :0.83419: (Sim:0h2m18s) 
CPU  0 inst:   52000000 cyc:   32445733 now IPC :1.63927: AVG IPC :1.58894: L2-Pf-HR :0.86521: L2-HR :0.83408: (Sim:0h2m21s) 
CPU  0 inst:   53000003 cyc:   33064247 now IPC :1.61678: AVG IPC :1.58948: L2-Pf-HR :0.86492: L2-HR :0.83380: (Sim:0h2m23s) 
CPU  0 inst:   54000003 cyc:   33677610 now IPC :1.63036: AVG IPC :1.59025: L2-Pf-HR :0.86492: L2-HR :0.83379: (Sim:0h2m26s) 
CPU  0 inst:   55000003 cyc:   34430313 now IPC :1.32855: AVG IPC :1.58436: L2-Pf-HR :0.86521: L2-HR :0.83404: (Sim:0h2m29s) 
CPU  0 inst:   56000000 cyc:   35027770 now IPC :1.67376: AVG IPC :1.58593: L2-Pf-HR :0.86510: L2-HR :0.83394: (Sim:0h2m32s) 
CPU  0 inst:   57000002 cyc:   35627841 now IPC :1.66647: AVG IPC :1.58732: L2-Pf-HR :0.86500: L2-HR :0.83387: (Sim:0h2m34s) 
CPU  0 inst:   58000003 cyc:   36226779 now IPC :1.66962: AVG IPC :1.58872: L2-Pf-HR :0.86508: L2-HR :0.83397: (Sim:0h2m37s) 
CPU  0 inst:   59000001 cyc:   36829888 now IPC :1.65807: AVG IPC :1.58989: L2-Pf-HR :0.86502: L2-HR :0.83393: (Sim:0h2m40s) 
CPU  0 inst:   60000000 cyc:   37424195 now IPC :1.68263: AVG IPC :1.59140: L2-Pf-HR :0.86505: L2-HR :0.83397: (Sim:0h2m42s) 
CPU  0 inst:   61000001 cyc:   38105572 now IPC :1.46762: AVG IPC :1.58913: L2-Pf-HR :0.86537: L2-HR :0.83422: (Sim:0h2m45s) 
CPU  0 inst:   62000000 cyc:   38711356 now IPC :1.65075: AVG IPC :1.59012: L2-Pf-HR :0.86558: L2-HR :0.83444: (Sim:0h2m48s) 
CPU  0 inst:   63000003 cyc:   39312003 now IPC :1.66488: AVG IPC :1.59129: L2-Pf-HR :0.86568: L2-HR :0.83454: (Sim:0h2m50s) 
CPU  0 inst:   64000000 cyc:   39912943 now IPC :1.66405: AVG IPC :1.59241: L2-Pf-HR :0.86588: L2-HR :0.83474: (Sim:0h2m53s) 
CPU  0 inst:   65000001 cyc:   40690306 now IPC :1.28640: AVG IPC :1.58642: L2-Pf-HR :0.86586: L2-HR :0.83471: (Sim:0h2m56s) 
CPU  0 inst:   66000003 cyc:   41313625 now IPC :1.60432: AVG IPC :1.58670: L2-Pf-HR :0.86563: L2-HR :0.83449: (Sim:0h2m59s) 
CPU  0 inst:   67000001 cyc:   41924412 now IPC :1.63723: AVG IPC :1.58745: L2-Pf-HR :0.86549: L2-HR :0.83435: (Sim:0h3m1s) 
CPU  0 inst:   68000000 cyc:   42535534 now IPC :1.63633: AVG IPC :1.58817: L2-Pf-HR :0.86530: L2-HR :0.83418: (Sim:0h3m4s) 
CPU  0 inst:   69000000 cyc:   43144777 now IPC :1.64138: AVG IPC :1.58894: L2-Pf-HR :0.86506: L2-HR :0.83397: (Sim:0h3m7s) 
CPU  0 inst:   70000001 cyc:   43766094 now IPC :1.60949: AVG IPC :1.58924: L2-Pf-HR :0.86500: L2-HR :0.83391: (Sim:0h3m9s) 
CPU  0 inst:   71000003 cyc:   44510586 now IPC :1.34320: AVG IPC :1.58503: L2-Pf-HR :0.86529: L2-HR :0.83415: (Sim:0h3m12s) 
CPU  0 inst:   72000000 cyc:   45126232 now IPC :1.62431: AVG IPC :1.58558: L2-Pf-HR :0.86519: L2-HR :0.83405: (Sim:0h3m15s) 
CPU  0 inst:   73000003 cyc:   45727954 now IPC :1.66190: AVG IPC :1.58660: L2-Pf-HR :0.86519: L2-HR :0.83406: (Sim:0h3m18s) 
CPU  0 inst:   74000000 cyc:   46330320 now IPC :1.66012: AVG IPC :1.58758: L2-Pf-HR :0.86513: L2-HR :0.83403: (Sim:0h3m20s) 
CPU  0 inst:   75000002 cyc:   46925490 now IPC :1.68020: AVG IPC :1.58878: L2-Pf-HR :0.86506: L2-HR :0.83396: (Sim:0h3m23s) 
CPU  0 inst:   76000000 cyc:   47523411 now IPC :1.67246: AVG IPC :1.58986: L2-Pf-HR :0.86512: L2-HR :0.83401: (Sim:0h3m26s) 
CPU  0 inst:   77000000 cyc:   48204213 now IPC :1.46886: AVG IPC :1.58811: L2-Pf-HR :0.86529: L2-HR :0.83415: (Sim:0h3m28s) 
CPU  0 inst:   78000002 cyc:   48789381 now IPC :1.70891: AVG IPC :1.58959: L2-Pf-HR :0.86523: L2-HR :0.83410: (Sim:0h3m31s) 
CPU  0 inst:   79000002 cyc:   49386599 now IPC :1.67443: AVG IPC :1.59064: L2-Pf-HR :0.86533: L2-HR :0.83419: (Sim:0h3m34s) 
CPU  0 inst:   80000000 cyc:   49984848 now IPC :1.67154: AVG IPC :1.59162: L2-Pf-HR :0.86550: L2-HR :0.83436: (Sim:0h3m36s) 
CPU  0 inst:   81000000 cyc:   50748873 now IPC :1.30886: AVG IPC :1.58728: L2-Pf-HR :0.86551: L2-HR :0.83438: (Sim:0h3m39s) 
CPU  0 inst:   82000002 cyc:   51376574 now IPC :1.59312: AVG IPC :1.58736: L2-Pf-HR :0.86544: L2-HR :0.83429: (Sim:0h3m42s) 
CPU  0 inst:   83000002 cyc:   51991546 now IPC :1.62609: AVG IPC :1.58782: L2-Pf-HR :0.86537: L2-HR :0.83421: (Sim:0h3m45s) 
CPU  0 inst:   84000000 cyc:   52603092 now IPC :1.63520: AVG IPC :1.58838: L2-Pf-HR :0.86524: L2-HR :0.83409: (Sim:0h3m47s) 
CPU  0 inst:   85000002 cyc:   53223222 now IPC :1.61257: AVG IPC :1.58867: L2-Pf-HR :0.86512: L2-HR :0.83397: (Sim:0h3m50s) 
CPU  0 inst:   86000002 cyc:   53841810 now IPC :1.61658: AVG IPC :1.58900: L2-Pf-HR :0.86511: L2-HR :0.83395: (Sim:0h3m53s) 
CPU  0 inst:   87000000 cyc:   54562527 now IPC :1.38750: AVG IPC :1.58629: L2-Pf-HR :0.86531: L2-HR :0.83412: (Sim:0h3m56s) 
CPU  0 inst:   88000000 cyc:   55213128 now IPC :1.53704: AVG IPC :1.58570: L2-Pf-HR :0.86530: L2-HR :0.83410: (Sim:0h3m58s) 
CPU  0 inst:   89000002 cyc:   55823065 now IPC :1.63952: AVG IPC :1.58630: L2-Pf-HR :0.86532: L2-HR :0.83413: (Sim:0h4m1s) 
CPU  0 inst:   90000001 cyc:   56424215 now IPC :1.66348: AVG IPC :1.58713: L2-Pf-HR :0.86530: L2-HR :0.83413: (Sim:0h4m4s) 
CPU  0 inst:   91000000 cyc:   57029832 now IPC :1.65121: AVG IPC :1.58782: L2-Pf-HR :0.86530: L2-HR :0.83413: (Sim:0h4m6s) 
CPU  0 inst:   92000000 cyc:   57629598 now IPC :1.66732: AVG IPC :1.58867: L2-Pf-HR :0.86533: L2-HR :0.83416: (Sim:0h4m9s) 
CPU  0 inst:   93000003 cyc:   58299626 now IPC :1.49248: AVG IPC :1.58754: L2-Pf-HR :0.86545: L2-HR :0.83425: (Sim:0h4m12s) 
CPU  0 inst:   94000000 cyc:   58918143 now IPC :1.61677: AVG IPC :1.58785: L2-Pf-HR :0.86548: L2-HR :0.83428: (Sim:0h4m14s) 
CPU  0 inst:   95000002 cyc:   59524556 now IPC :1.64904: AVG IPC :1.58849: L2-Pf-HR :0.86555: L2-HR :0.83435: (Sim:0h4m17s) 
CPU  0 inst:   96000000 cyc:   60126255 now IPC :1.66196: AVG IPC :1.58923: L2-Pf-HR :0.86559: L2-HR :0.83439: (Sim:0h4m20s) 
CPU  0 inst:   97000001 cyc:   60844561 now IPC :1.39217: AVG IPC :1.58687: L2-Pf-HR :0.86566: L2-HR :0.83446: (Sim:0h4m23s) 
CPU  0 inst:   98000001 cyc:   61527256 now IPC :1.46478: AVG IPC :1.58549: L2-Pf-HR :0.86562: L2-HR :0.83440: (Sim:0h4m25s) 
CPU  0 inst:   99000003 cyc:   62140518 now IPC :1.63063: AVG IPC :1.58595: L2-Pf-HR :0.86557: L2-HR :0.83434: (Sim:0h4m28s) 
CPU  0 inst:  100000000 cyc:   62743376 now IPC :1.65876: AVG IPC :1.58666: L2-Pf-HR :0.86538: L2-HR :0.83417: (Sim:0h4m31s) 
CPU  0 inst:  101000002 cyc:   63356475 now IPC :1.63106: AVG IPC :1.58709: L2-Pf-HR :0.86523: L2-HR :0.83404: (Sim:0h4m33s) 
CPU  0 inst:  102000002 cyc:   63973952 now IPC :1.61949: AVG IPC :1.58741: L2-Pf-HR :0.86512: L2-HR :0.83394: (Sim:0h4m36s) 
CPU  0 inst:  103000000 cyc:   64589874 now IPC :1.62358: AVG IPC :1.58776: L2-Pf-HR :0.86528: L2-HR :0.83406: (Sim:0h4m39s) 
CPU  0 inst:  104000000 cyc:   65326552 now IPC :1.35745: AVG IPC :1.58512: L2-Pf-HR :0.86516: L2-HR :0.83397: (Sim:0h4m42s) 
CPU  0 inst:  105000002 cyc:   65926817 now IPC :1.66593: AVG IPC :1.58587: L2-Pf-HR :0.86510: L2-HR :0.83392: (Sim:0h4m44s) 
CPU  0 inst:  106000001 cyc:   66529942 now IPC :1.65803: AVG IPC :1.58654: L2-Pf-HR :0.86500: L2-HR :0.83383: (Sim:0h4m47s) 
CPU  0 inst:  107000001 cyc:   67129881 now IPC :1.66684: AVG IPC :1.58726: L2-Pf-HR :0.86501: L2-HR :0.83385: (Sim:0h4m50s) 
CPU  0 inst:  108000000 cyc:   67730273 now IPC :1.66558: AVG IPC :1.58797: L2-Pf-HR :0.86501: L2-HR :0.83387: (Sim:0h4m52s) 
CPU  0 inst:  109000003 cyc:   68319262 now IPC :1.69783: AVG IPC :1.58893: L2-Pf-HR :0.86513: L2-HR :0.83396: (Sim:0h4m55s) 
CPU  0 inst:  110000000 cyc:   69006365 now IPC :1.45538: AVG IPC :1.58758: L2-Pf-HR :0.86514: L2-HR :0.83398: (Sim:0h4m58s) 
CPU  0 inst:  111000001 cyc:   69610319 now IPC :1.65576: AVG IPC :1.58818: L2-Pf-HR :0.86521: L2-HR :0.83404: (Sim:0h5m0s) 
CPU  0 inst:  112000000 cyc:   70208263 now IPC :1.67240: AVG IPC :1.58891: L2-Pf-HR :0.86524: L2-HR :0.83408: (Sim:0h5m3s) 
CPU  0 inst:  113000000 cyc:   70803880 now IPC :1.67893: AVG IPC :1.58968: L2-Pf-HR :0.86549: L2-HR :0.83431: (Sim:0h5m6s) 
CPU  0 inst:  114000001 cyc:   71602479 now IPC :1.25219: AVG IPC :1.58586: L2-Pf-HR :0.86539: L2-HR :0.83421: (Sim:0h5m9s) 
CPU  0 inst:  115000000 cyc:   72234987 now IPC :1.58101: AVG IPC :1.58582: L2-Pf-HR :0.86537: L2-HR :0.83418: (Sim:0h5m11s) 
CPU  0 inst:  116000000 cyc:   72853522 now IPC :1.61672: AVG IPC :1.58608: L2-Pf-HR :0.86525: L2-HR :0.83407: (Sim:0h5m14s) 
CPU  0 inst:  117000001 cyc:   73456391 now IPC :1.65874: AVG IPC :1.58669: L2-Pf-HR :0.86513: L2-HR :0.83396: (Sim:0h5m17s) 
CPU  0 inst:  118000000 cyc:   74070316 now IPC :1.62886: AVG IPC :1.58704: L2-Pf-HR :0.86502: L2-HR :0.83387: (Sim:0h5m19s) 
CPU  0 inst:  119000003 cyc:   74684493 now IPC :1.62820: AVG IPC :1.58738: L2-Pf-HR :0.86510: L2-HR :0.83392: (Sim:0h5m22s) 
CPU  0 inst:  120000000 cyc:   75448257 now IPC :1.30930: AVG IPC :1.58453: L2-Pf-HR :0.86512: L2-HR :0.83395: (Sim:0h5m25s) 
CPU  0 inst:  121000002 cyc:   76058421 now IPC :1.63891: AVG IPC :1.58497: L2-Pf-HR :0.86512: L2-HR :0.83395: (Sim:0h5m28s) 
CPU  0 inst:  122000001 cyc:   76658759 now IPC :1.66573: AVG IPC :1.58561: L2-Pf-HR :0.86507: L2-HR :0.83392: (Sim:0h5m30s) 
CPU  0 inst:  123000000 cyc:   77268285 now IPC :1.64062: AVG IPC :1.58605: L2-Pf-HR :0.86510: L2-HR :0.83395: (Sim:0h5m33s) 
CPU  0 inst:  124000000 cyc:   77867014 now IPC :1.67020: AVG IPC :1.58671: L2-Pf-HR :0.86512: L2-HR :0.83397: (Sim:0h5m36s) 
CPU  0 inst:  125000000 cyc:   78460715 now IPC :1.68435: AVG IPC :1.58746: L2-Pf-HR :0.86519: L2-HR :0.83402: (Sim:0h5m38s) 
CPU  0 inst:  126000001 cyc:   79154160 now IPC :1.44208: AVG IPC :1.58617: L2-Pf-HR :0.86528: L2-HR :0.83410: (Sim:0h5m41s) 
CPU  0 inst:  127000002 cyc:   79753012 now IPC :1.66986: AVG IPC :1.58680: L2-Pf-HR :0.86533: L2-HR :0.83415: (Sim:0h5m44s) 
CPU  0 inst:  128000000 cyc:   80353320 now IPC :1.66581: AVG IPC :1.58740: L2-Pf-HR :0.86544: L2-HR :0.83425: (Sim:0h5m46s) 
CPU  0 inst:  129000001 cyc:   80956135 now IPC :1.65889: AVG IPC :1.58794: L2-Pf-HR :0.86560: L2-HR :0.83440: (Sim:0h5m49s) 
CPU  0 inst:  130000003 cyc:   86151490 now IPC :0.19248: AVG IPC :1.50282: L2-Pf-HR :0.85868: L2-HR :0.82970: (Sim:0h5m57s) 
CPU  0 inst:  131000002 cyc:   92699826 now IPC :0.15271: AVG IPC :1.40643: L2-Pf-HR :0.85008: L2-HR :0.82412: (Sim:0h6m6s) 
CPU  0 inst:  132000000 cyc:   99246709 now IPC :0.15274: AVG IPC :1.32291: L2-Pf-HR :0.84169: L2-HR :0.81877: (Sim:0h6m15s) 
CPU  0 inst:  133000001 cyc:  105792258 now IPC :0.15278: AVG IPC :1.24983: L2-Pf-HR :0.83351: L2-HR :0.81361: (Sim:0h6m24s) 
CPU  0 inst:  134000000 cyc:  112197110 now IPC :0.15613: AVG IPC :1.18685: L2-Pf-HR :0.82586: L2-HR :0.80877: (Sim:0h6m33s) 
CPU  0 inst:  135000000 cyc:  115796179 now IPC :0.27785: AVG IPC :1.15836: L2-Pf-HR :0.82556: L2-HR :0.80820: (Sim:0h6m39s) 
CPU  0 inst:  136000000 cyc:  119390166 now IPC :0.27824: AVG IPC :1.13164: L2-Pf-HR :0.82529: L2-HR :0.80766: (Sim:0h6m44s) 
CPU  0 inst:  137000000 cyc:  122968022 now IPC :0.27950: AVG IPC :1.10665: L2-Pf-HR :0.82511: L2-HR :0.80721: (Sim:0h6m49s) 
CPU  0 inst:  138000002 cyc:  126547352 now IPC :0.27938: AVG IPC :1.08307: L2-Pf-HR :0.82491: L2-HR :0.80674: (Sim:0h6m55s) 
CPU  0 inst:  139000000 cyc:  130119983 now IPC :0.27991: AVG IPC :1.06085: L2-Pf-HR :0.82476: L2-HR :0.80631: (Sim:0h7m0s) 
CPU  0 inst:  140000000 cyc:  133697627 now IPC :0.27951: AVG IPC :1.03979: L2-Pf-HR :0.82457: L2-HR :0.80585: (Sim:0h7m6s) 
CPU  0 inst:  141000003 cyc:  137273717 now IPC :0.27964: AVG IPC :1.01984: L2-Pf-HR :0.82439: L2-HR :0.80541: (Sim:0h7m11s) 
CPU  0 inst:  142000003 cyc:  140853667 now IPC :0.27933: AVG IPC :1.00089: L2-Pf-HR :0.82420: L2-HR :0.80495: (Sim:0h7m17s) 
CPU  0 inst:  143000000 cyc:  144421234 now IPC :0.28030: AVG IPC :0.98297: L2-Pf-HR :0.82407: L2-HR :0.80455: (Sim:0h7m22s) 
CPU  0 inst:  144000000 cyc:  147985587 now IPC :0.28056: AVG IPC :0.96594: L2-Pf-HR :0.82395: L2-HR :0.80417: (Sim:0h7m28s) 
CPU  0 inst:  145000002 cyc:  151577109 now IPC :0.27843: AVG IPC :0.94954: L2-Pf-HR :0.82372: L2-HR :0.80369: (Sim:0h7m33s) 
CPU  0 inst:  146000000 cyc:  155159627 now IPC :0.27913: AVG IPC :0.93397: L2-Pf-HR :0.82354: L2-HR :0.80325: (Sim:0h7m39s) 
CPU  0 inst:  147000000 cyc:  158741344 now IPC :0.27920: AVG IPC :0.91910: L2-Pf-HR :0.82334: L2-HR :0.80281: (Sim:0h7m44s) 
CPU  0 inst:  148000000 cyc:  162316626 now IPC :0.27970: AVG IPC :0.90493: L2-Pf-HR :0.82318: L2-HR :0.80239: (Sim:0h7m49s) 
CPU  0 inst:  149000002 cyc:  165893746 now IPC :0.27956: AVG IPC :0.89137: L2-Pf-HR :0.82302: L2-HR :0.80198: (Sim:0h7m55s) 
CPU  0 inst:  150000000 cyc:  169478239 now IPC :0.27898: AVG IPC :0.87834: L2-Pf-HR :0.82282: L2-HR :0.80154: (Sim:0h8m0s) 
CPU  0 inst:  151000000 cyc:  173058725 now IPC :0.27929: AVG IPC :0.86587: L2-Pf-HR :0.82264: L2-HR :0.80111: (Sim:0h8m6s) 
CPU  0 inst:  152000000 cyc:  176638471 now IPC :0.27935: AVG IPC :0.85392: L2-Pf-HR :0.82246: L2-HR :0.80069: (Sim:0h8m11s) 
CPU  0 inst:  153000002 cyc:  180216693 now IPC :0.27947: AVG IPC :0.84245: L2-Pf-HR :0.82229: L2-HR :0.80029: (Sim:0h8m17s) 
CPU  0 inst:  154000000 cyc:  183791385 now IPC :0.27974: AVG IPC :0.83145: L2-Pf-HR :0.82215: L2-HR :0.79990: (Sim:0h8m22s) 
CPU  0 inst:  155000000 cyc:  187355748 now IPC :0.28056: AVG IPC :0.82091: L2-Pf-HR :0.82204: L2-HR :0.79955: (Sim:0h8m28s) 
CPU  0 inst:  156000000 cyc:  190918310 now IPC :0.28070: AVG IPC :0.81078: L2-Pf-HR :0.82194: L2-HR :0.79921: (Sim:0h8m33s) 
CPU  0 inst:  157000002 cyc:  194492762 now IPC :0.27976: AVG IPC :0.80097: L2-Pf-HR :0.82177: L2-HR :0.79881: (Sim:0h8m38s) 
CPU  0 inst:  158000003 cyc:  198065763 now IPC :0.27988: AVG IPC :0.79153: L2-Pf-HR :0.82162: L2-HR :0.79843: (Sim:0h8m44s) 
CPU  0 inst:  159000003 cyc:  201625903 now IPC :0.28089: AVG IPC :0.78247: L2-Pf-HR :0.82154: L2-HR :0.79811: (Sim:0h8m49s) 
CPU  0 inst:  160000000 cyc:  205190861 now IPC :0.28051: AVG IPC :0.77370: L2-Pf-HR :0.82144: L2-HR :0.79777: (Sim:0h8m55s) 
CPU  0 inst:  161000000 cyc:  208757584 now IPC :0.28037: AVG IPC :0.76524: L2-Pf-HR :0.82134: L2-HR :0.79744: (Sim:0h9m0s) 
CPU  0 inst:  162000003 cyc:  212338371 now IPC :0.27927: AVG IPC :0.75700: L2-Pf-HR :0.82117: L2-HR :0.79704: (Sim:0h9m5s) 
CPU  0 inst:  163000003 cyc:  215905854 now IPC :0.28031: AVG IPC :0.74909: L2-Pf-HR :0.82106: L2-HR :0.79670: (Sim:0h9m11s) 
CPU  0 inst:  164000000 cyc:  219476522 now IPC :0.28006: AVG IPC :0.74142: L2-Pf-HR :0.82093: L2-HR :0.79635: (Sim:0h9m16s) 
CPU  0 inst:  165000001 cyc:  223060358 now IPC :0.27903: AVG IPC :0.73396: L2-Pf-HR :0.82074: L2-HR :0.79595: (Sim:0h9m22s) 
CPU  0 inst:  166000002 cyc:  226631048 now IPC :0.28006: AVG IPC :0.72678: L2-Pf-HR :0.82062: L2-HR :0.79561: (Sim:0h9m27s) 
CPU  0 inst:  167000001 cyc:  230218162 now IPC :0.27878: AVG IPC :0.71977: L2-Pf-HR :0.82043: L2-HR :0.79521: (Sim:0h9m32s) 
CPU  0 inst:  168000000 cyc:  233792873 now IPC :0.27974: AVG IPC :0.71301: L2-Pf-HR :0.82031: L2-HR :0.79487: (Sim:0h9m38s) 
CPU  0 inst:  169000001 cyc:  237370679 now IPC :0.27950: AVG IPC :0.70645: L2-Pf-HR :0.82015: L2-HR :0.79450: (Sim:0h9m43s) 
CPU  0 inst:  170000002 cyc:  240944986 now IPC :0.27977: AVG IPC :0.70010: L2-Pf-HR :0.82001: L2-HR :0.79415: (Sim:0h9m48s) 
CPU  0 inst:  171000000 cyc:  244510975 now IPC :0.28043: AVG IPC :0.69395: L2-Pf-HR :0.81991: L2-HR :0.79384: (Sim:0h9m54s) 
CPU  0 inst:  172000000 cyc:  248091031 now IPC :0.27933: AVG IPC :0.68795: L2-Pf-HR :0.81975: L2-HR :0.79347: (Sim:0h9m59s) 
CPU  0 inst:  173000000 cyc:  251667460 now IPC :0.27961: AVG IPC :0.68212: L2-Pf-HR :0.81961: L2-HR :0.79312: (Sim:0h10m5s) 
CPU  0 inst:  174000002 cyc:  255247614 now IPC :0.27932: AVG IPC :0.67645: L2-Pf-HR :0.81945: L2-HR :0.79276: (Sim:0h10m10s) 
CPU  0 inst:  175000000 cyc:  258832035 now IPC :0.27898: AVG IPC :0.67092: L2-Pf-HR :0.81927: L2-HR :0.79238: (Sim:0h10m15s) 
CPU  0 inst:  176000000 cyc:  262416131 now IPC :0.27901: AVG IPC :0.66555: L2-Pf-HR :0.81911: L2-HR :0.79202: (Sim:0h10m21s) 
CPU  0 inst:  177000000 cyc:  265984903 now IPC :0.28021: AVG IPC :0.66036: L2-Pf-HR :0.81901: L2-HR :0.79171: (Sim:0h10m26s) 
CPU  0 inst:  178000002 cyc:  269551606 now IPC :0.28037: AVG IPC :0.65531: L2-Pf-HR :0.81890: L2-HR :0.79140: (Sim:0h10m31s) 
CPU  0 inst:  179000003 cyc:  273110954 now IPC :0.28095: AVG IPC :0.65042: L2-Pf-HR :0.81883: L2-HR :0.79113: (Sim:0h10m37s) 
CPU  0 inst:  180000000 cyc:  276666270 now IPC :0.28127: AVG IPC :0.64566: L2-Pf-HR :0.81878: L2-HR :0.79088: (Sim:0h10m42s) 
CPU  0 inst:  181000000 cyc:  280231339 now IPC :0.28050: AVG IPC :0.64100: L2-Pf-HR :0.81870: L2-HR :0.79060: (Sim:0h10m48s) 
CPU  0 inst:  182000000 cyc:  283802999 now IPC :0.27998: AVG IPC :0.63644: L2-Pf-HR :0.81860: L2-HR :0.79030: (Sim:0h10m53s) 
CPU  0 inst:  183000000 cyc:  287393230 now IPC :0.27853: AVG IPC :0.63195: L2-Pf-HR :0.81841: L2-HR :0.78993: (Sim:0h10m59s) 
CPU  0 inst:  184000000 cyc:  290977072 now IPC :0.27903: AVG IPC :0.62759: L2-Pf-HR :0.81825: L2-HR :0.78958: (Sim:0h11m4s) 
CPU  0 inst:  185000000 cyc:  294553528 now IPC :0.27961: AVG IPC :0.62335: L2-Pf-HR :0.81812: L2-HR :0.78926: (Sim:0h11m9s) 
CPU  0 inst:  186000001 cyc:  298125702 now IPC :0.27994: AVG IPC :0.61922: L2-Pf-HR :0.81801: L2-HR :0.78896: (Sim:0h11m15s) 
CPU  0 inst:  187000002 cyc:  301690479 now IPC :0.28052: AVG IPC :0.61521: L2-Pf-HR :0.81792: L2-HR :0.78868: (Sim:0h11m20s) 
CPU  0 inst:  188000000 cyc:  305253733 now IPC :0.28064: AVG IPC :0.61129: L2-Pf-HR :0.81785: L2-HR :0.78842: (Sim:0h11m26s) 
CPU  0 inst:  189000000 cyc:  308824756 now IPC :0.28003: AVG IPC :0.60745: L2-Pf-HR :0.81774: L2-HR :0.78813: (Sim:0h11m31s) 
CPU  0 inst:  190000002 cyc:  312402588 now IPC :0.27950: AVG IPC :0.60368: L2-Pf-HR :0.81761: L2-HR :0.78781: (Sim:0h11m37s) 
CPU  0 inst:  191000000 cyc:  315977982 now IPC :0.27969: AVG IPC :0.60000: L2-Pf-HR :0.81749: L2-HR :0.78751: (Sim:0h11m42s) 
CPU  0 inst:  192000000 cyc:  319550812 now IPC :0.27989: AVG IPC :0.59641: L2-Pf-HR :0.81735: L2-HR :0.78719: (Sim:0h11m47s) 
CPU  0 inst:  193000000 cyc:  323123320 now IPC :0.27992: AVG IPC :0.59290: L2-Pf-HR :0.81724: L2-HR :0.78690: (Sim:0h11m53s) 
CPU  0 inst:  194000000 cyc:  326699416 now IPC :0.27963: AVG IPC :0.58946: L2-Pf-HR :0.81712: L2-HR :0.78660: (Sim:0h11m58s) 
CPU  0 inst:  195000002 cyc:  330267724 now IPC :0.28025: AVG IPC :0.58611: L2-Pf-HR :0.81702: L2-HR :0.78633: (Sim:0h12m4s) 
CPU  0 inst:  196000000 cyc:  333837707 now IPC :0.28011: AVG IPC :0.58283: L2-Pf-HR :0.81694: L2-HR :0.78607: (Sim:0h12m9s) 
CPU  0 inst:  197000002 cyc:  337413848 now IPC :0.27963: AVG IPC :0.57961: L2-Pf-HR :0.81681: L2-HR :0.78577: (Sim:0h12m15s) 
CPU  0 inst:  198000003 cyc:  339962705 now IPC :0.39233: AVG IPC :0.57820: L2-Pf-HR :0.81754: L2-HR :0.78652: (Sim:0h12m19s) 
CPU  0 inst:  199000000 cyc:  340694582 now IPC :1.36635: AVG IPC :0.57990: L2-Pf-HR :0.81984: L2-HR :0.78919: (Sim:0h12m23s) 
CPU  0 inst:  200000000 cyc:  341379625 now IPC :1.45976: AVG IPC :0.58167: L2-Pf-HR :0.82213: L2-HR :0.79182: (Sim:0h12m26s) 
CPU  0 inst:  201000000 cyc:  342055370 now IPC :1.47985: AVG IPC :0.58345: L2-Pf-HR :0.82435: L2-HR :0.79439: (Sim:0h12m29s) 
CPU  0 inst:  202000003 cyc:  342757734 now IPC :1.42377: AVG IPC :0.58517: L2-Pf-HR :0.82642: L2-HR :0.79680: (Sim:0h12m32s) 
CPU  0 inst:  203000002 cyc:  343384949 now IPC :1.59435: AVG IPC :0.58702: L2-Pf-HR :0.82847: L2-HR :0.79922: (Sim:0h12m36s) 
CPU  0 inst:  204000000 cyc:  344011479 now IPC :1.59609: AVG IPC :0.58886: L2-Pf-HR :0.83043: L2-HR :0.80153: (Sim:0h12m39s) 
CPU  0 inst:  205000003 cyc:  344633075 now IPC :1.60877: AVG IPC :0.59071: L2-Pf-HR :0.83234: L2-HR :0.80379: (Sim:0h12m42s) 
CPU  0 inst:  206000002 cyc:  345286765 now IPC :1.52978: AVG IPC :0.59249: L2-Pf-HR :0.83414: L2-HR :0.80594: (Sim:0h12m45s) 
CPU  0 inst:  207000002 cyc:  345910240 now IPC :1.60391: AVG IPC :0.59432: L2-Pf-HR :0.83603: L2-HR :0.80815: (Sim:0h12m49s) 
CPU  0 inst:  208000000 cyc:  346535772 now IPC :1.59864: AVG IPC :0.59614: L2-Pf-HR :0.83788: L2-HR :0.81032: (Sim:0h12m52s) 
CPU  0 inst:  209000002 cyc:  347159245 now IPC :1.60392: AVG IPC :0.59795: L2-Pf-HR :0.83969: L2-HR :0.81244: (Sim:0h12m55s) 
CPU  0 inst:  210000000 cyc:  347790527 now IPC :1.58407: AVG IPC :0.59975: L2-Pf-HR :0.84139: L2-HR :0.81445: (Sim:0h12m58s) 
CPU  0 inst:  211000003 cyc:  348439746 now IPC :1.54032: AVG IPC :0.60151: L2-Pf-HR :0.84315: L2-HR :0.81649: (Sim:0h13m1s) 
CPU  0 inst:  212000000 cyc:  349078400 now IPC :1.56579: AVG IPC :0.60327: L2-Pf-HR :0.84490: L2-HR :0.81851: (Sim:0h13m5s) 
CPU  0 inst:  213000001 cyc:  349720172 now IPC :1.55819: AVG IPC :0.60503: L2-Pf-HR :0.84661: L2-HR :0.82048: (Sim:0h13m8s) 
CPU  0 inst:  214000002 cyc:  350357201 now IPC :1.56979: AVG IPC :0.60679: L2-Pf-HR :0.84828: L2-HR :0.82240: (Sim:0h13m11s) 
CPU  0 inst:  215000002 cyc:  351046492 now IPC :1.45077: AVG IPC :0.60845: L2-Pf-HR :0.84970: L2-HR :0.82410: (Sim:0h13m14s) 
CPU  0 inst:  216000000 cyc:  351722369 now IPC :1.47956: AVG IPC :0.61013: L2-Pf-HR :0.85115: L2-HR :0.82581: (Sim:0h13m18s) 
CPU  0 inst:  217000001 cyc:  352396575 now IPC :1.48323: AVG IPC :0.61181: L2-Pf-HR :0.85258: L2-HR :0.82749: (Sim:0h13m21s) 
CPU  0 inst:  218000001 cyc:  353072347 now IPC :1.47979: AVG IPC :0.61347: L2-Pf-HR :0.85395: L2-HR :0.82912: (Sim:0h13m24s) 
CPU  0 inst:  219000000 cyc:  353738770 now IPC :1.50055: AVG IPC :0.61515: L2-Pf-HR :0.85520: L2-HR :0.83064: (Sim:0h13m27s) 
CPU  0 inst:  220000000 cyc:  354366417 now IPC :1.59325: AVG IPC :0.61689: L2-Pf-HR :0.85648: L2-HR :0.83219: (Sim:0h13m30s) 
CPU  0 inst:  221000002 cyc:  354994654 now IPC :1.59176: AVG IPC :0.61862: L2-Pf-HR :0.85773: L2-HR :0.83370: (Sim:0h13m34s) 
CPU  0 inst:  222000001 cyc:  355620552 now IPC :1.59770: AVG IPC :0.62034: L2-Pf-HR :0.85893: L2-HR :0.83516: (Sim:0h13m37s) 
CPU  0 inst:  223000003 cyc:  356261917 now IPC :1.55918: AVG IPC :0.62204: L2-Pf-HR :0.86011: L2-HR :0.83659: (Sim:0h13m40s) 
CPU  0 inst:  224000000 cyc:  356884155 now IPC :1.60710: AVG IPC :0.62376: L2-Pf-HR :0.86134: L2-HR :0.83806: (Sim:0h13m43s) 
CPU  0 inst:  225000001 cyc:  357516132 now IPC :1.58234: AVG IPC :0.62546: L2-Pf-HR :0.86253: L2-HR :0.83949: (Sim:0h13m46s) 
CPU  0 inst:  226000003 cyc:  358141959 now IPC :1.59789: AVG IPC :0.62716: L2-Pf-HR :0.86368: L2-HR :0.84087: (Sim:0h13m49s) 
CPU  0 inst:  227000003 cyc:  358778292 now IPC :1.57150: AVG IPC :0.62884: L2-Pf-HR :0.86482: L2-HR :0.84225: (Sim:0h13m52s) 
CPU  0 inst:  228000000 cyc:  359413567 now IPC :1.57412: AVG IPC :0.63052: L2-Pf-HR :0.86601: L2-HR :0.84364: (Sim:0h13m56s) 
CPU  0 inst:  229000001 cyc:  360063009 now IPC :1.53978: AVG IPC :0.63216: L2-Pf-HR :0.86715: L2-HR :0.84498: (Sim:0h13m59s) 
CPU  0 inst:  230000000 cyc:  360707777 now IPC :1.55094: AVG IPC :0.63381: L2-Pf-HR :0.86828: L2-HR :0.84631: (Sim:0h14m2s) 
CPU  0 inst:  231000000 cyc:  361356396 now IPC :1.54174: AVG IPC :0.63544: L2-Pf-HR :0.86938: L2-HR :0.84760: (Sim:0h14m5s) 
CPU  0 inst:  232000000 cyc:  362040314 now IPC :1.46216: AVG IPC :0.63701: L2-Pf-HR :0.87034: L2-HR :0.84877: (Sim:0h14m8s) 
CPU  0 inst:  233000002 cyc:  362718872 now IPC :1.47372: AVG IPC :0.63858: L2-Pf-HR :0.87129: L2-HR :0.84992: (Sim:0h14m12s) 
CPU  0 inst:  234000001 cyc:  363393920 now IPC :1.48137: AVG IPC :0.64015: L2-Pf-HR :0.87223: L2-HR :0.85106: (Sim:0h14m15s) 
CPU  0 inst:  235000000 cyc:  364080180 now IPC :1.45717: AVG IPC :0.64169: L2-Pf-HR :0.87314: L2-HR :0.85216: (Sim:0h14m18s) 
CPU  0 inst:  236000000 cyc:  364729499 now IPC :1.54008: AVG IPC :0.64330: L2-Pf-HR :0.87401: L2-HR :0.85323: (Sim:0h14m21s) 
CPU  0 inst:  237000002 cyc:  365353277 now IPC :1.60314: AVG IPC :0.64494: L2-Pf-HR :0.87488: L2-HR :0.85430: (Sim:0h14m24s) 
CPU  0 inst:  238000002 cyc:  365972265 now IPC :1.61554: AVG IPC :0.64659: L2-Pf-HR :0.87573: L2-HR :0.85535: (Sim:0h14m27s) 
CPU  0 inst:  239000001 cyc:  366594392 now IPC :1.60739: AVG IPC :0.64822: L2-Pf-HR :0.87656: L2-HR :0.85638: (Sim:0h14m30s) 
CPU  0 inst:  240000000 cyc:  367242093 now IPC :1.54392: AVG IPC :0.64980: L2-Pf-HR :0.87737: L2-HR :0.85739: (Sim:0h14m34s) 
CPU  0 inst:  241000003 cyc:  367869746 now IPC :1.59324: AVG IPC :0.65142: L2-Pf-HR :0.87823: L2-HR :0.85843: (Sim:0h14m37s) 
CPU  0 inst:  242000001 cyc:  368489962 now IPC :1.61234: AVG IPC :0.65304: L2-Pf-HR :0.87908: L2-HR :0.85946: (Sim:0h14m40s) 
CPU  0 inst:  243000001 cyc:  369110114 now IPC :1.61251: AVG IPC :0.65466: L2-Pf-HR :0.87991: L2-HR :0.86047: (Sim:0h14m43s) 
CPU  0 inst:  244000000 cyc:  369758753 now IPC :1.54169: AVG IPC :0.65622: L2-Pf-HR :0.88071: L2-HR :0.86144: (Sim:0h14m46s) 
CPU  0 inst:  245000000 cyc:  370394771 now IPC :1.57228: AVG IPC :0.65779: L2-Pf-HR :0.88156: L2-HR :0.86245: (Sim:0h14m49s) 
CPU  0 inst:  246000000 cyc:  371033894 now IPC :1.56464: AVG IPC :0.65936: L2-Pf-HR :0.88240: L2-HR :0.86344: (Sim:0h14m52s) 
CPU  0 inst:  247000000 cyc:  371671273 now IPC :1.56893: AVG IPC :0.66092: L2-Pf-HR :0.88322: L2-HR :0.86441: (Sim:0h14m55s) 
CPU  0 inst:  248000000 cyc:  372344010 now IPC :1.48646: AVG IPC :0.66242: L2-Pf-HR :0.88394: L2-HR :0.86529: (Sim:0h14m59s) 
CPU  0 inst:  249000000 cyc:  373018501 now IPC :1.48260: AVG IPC :0.66391: L2-Pf-HR :0.88466: L2-HR :0.86616: (Sim:0h15m2s) 
CPU  0 inst:  250000000 cyc:  373692814 now IPC :1.48299: AVG IPC :0.66539: L2-Pf-HR :0.88536: L2-HR :0.86701: (Sim:0h15m5s) 
CPU  0 inst:  251000003 cyc:  374365885 now IPC :1.48573: AVG IPC :0.66687: L2-Pf-HR :0.88606: L2-HR :0.86786: (Sim:0h15m8s) 
CPU  0 inst:  252000000 cyc:  375054728 now IPC :1.45171: AVG IPC :0.66831: L2-Pf-HR :0.88668: L2-HR :0.86863: (Sim:0h15m11s) 
CPU  0 inst:  253000002 cyc:  375681590 now IPC :1.59525: AVG IPC :0.66986: L2-Pf-HR :0.88733: L2-HR :0.86944: (Sim:0h15m14s) 
CPU  0 inst:  254000001 cyc:  376310794 now IPC :1.58931: AVG IPC :0.67140: L2-Pf-HR :0.88797: L2-HR :0.87024: (Sim:0h15m17s) 
CPU  0 inst:  255000003 cyc:  376935114 now IPC :1.60175: AVG IPC :0.67295: L2-Pf-HR :0.88858: L2-HR :0.87101: (Sim:0h15m21s) 
CPU  0 inst:  256000000 cyc:  377565010 now IPC :1.58756: AVG IPC :0.67448: L2-Pf-HR :0.88916: L2-HR :0.87175: (Sim:0h15m24s) 
CPU  0 inst:  257000003 cyc:  378200456 now IPC :1.57370: AVG IPC :0.67599: L2-Pf-HR :0.88978: L2-HR :0.87252: (Sim:0h15m27s) 
CPU  0 inst:  258000001 cyc:  378825842 now IPC :1.59901: AVG IPC :0.67752: L2-Pf-HR :0.89042: L2-HR :0.87330: (Sim:0h15m30s) 
CPU  0 inst:  259000001 cyc:  379449880 now IPC :1.60247: AVG IPC :0.67905: L2-Pf-HR :0.89103: L2-HR :0.87405: (Sim:0h15m33s) 
CPU  0 inst:  260000000 cyc:  380073566 now IPC :1.60337: AVG IPC :0.68057: L2-Pf-HR :0.89163: L2-HR :0.87479: (Sim:0h15m36s) 
CPU  0 inst:  261000001 cyc:  380719599 now IPC :1.54791: AVG IPC :0.68204: L2-Pf-HR :0.89226: L2-HR :0.87555: (Sim:0h15m39s) 
CPU  0 inst:  262000001 cyc:  381362142 now IPC :1.55632: AVG IPC :0.68352: L2-Pf-HR :0.89290: L2-HR :0.87631: (Sim:0h15m42s) 
CPU  0 inst:  263000001 cyc:  382006411 now IPC :1.55215: AVG IPC :0.68499: L2-Pf-HR :0.89352: L2-HR :0.87705: (Sim:0h15m45s) 
CPU  0 inst:  264000000 cyc:  382644569 now IPC :1.56701: AVG IPC :0.68646: L2-Pf-HR :0.89412: L2-HR :0.87778: (Sim:0h15m49s) 
CPU  0 inst:  265000000 cyc:  383315388 now IPC :1.49072: AVG IPC :0.68787: L2-Pf-HR :0.89468: L2-HR :0.87845: (Sim:0h15m52s) 
CPU  0 inst:  266000003 cyc:  383997250 now IPC :1.46658: AVG IPC :0.68926: L2-Pf-HR :0.89519: L2-HR :0.87909: (Sim:0h15m55s) 
CPU  0 inst:  267000001 cyc:  384675768 now IPC :1.47380: AVG IPC :0.69065: L2-Pf-HR :0.89571: L2-HR :0.87973: (Sim:0h15m58s) 
CPU  0 inst:  268000000 cyc:  385350407 now IPC :1.48227: AVG IPC :0.69204: L2-Pf-HR :0.89623: L2-HR :0.88037: (Sim:0h16m1s) 
CPU  0 inst:  269000002 cyc:  386024501 now IPC :1.48348: AVG IPC :0.69342: L2-Pf-HR :0.89670: L2-HR :0.88096: (Sim:0h16m4s) 
CPU  0 inst:  270000002 cyc:  386651917 now IPC :1.59384: AVG IPC :0.69489: L2-Pf-HR :0.89718: L2-HR :0.88157: (Sim:0h16m7s) 
CPU  0 inst:  271000000 cyc:  387277510 now IPC :1.59848: AVG IPC :0.69635: L2-Pf-HR :0.89765: L2-HR :0.88217: (Sim:0h16m11s) 
CPU  0 inst:  272000000 cyc:  387897556 now IPC :1.61278: AVG IPC :0.69782: L2-Pf-HR :0.89812: L2-HR :0.88277: (Sim:0h16m14s) 
CPU  0 inst:  273000003 cyc:  388542798 now IPC :1.54981: AVG IPC :0.69924: L2-Pf-HR :0.89856: L2-HR :0.88333: (Sim:0h16m17s) 
CPU  0 inst:  274000002 cyc:  389167617 now IPC :1.60046: AVG IPC :0.70069: L2-Pf-HR :0.89906: L2-HR :0.88395: (Sim:0h16m20s) 
CPU  0 inst:  275000002 cyc:  389791006 now IPC :1.60413: AVG IPC :0.70214: L2-Pf-HR :0.89955: L2-HR :0.88455: (Sim:0h16m23s) 
CPU  0 inst:  276000000 cyc:  390413565 now IPC :1.60627: AVG IPC :0.70358: L2-Pf-HR :0.90003: L2-HR :0.88515: (Sim:0h16m26s) 
CPU  0 inst:  277000001 cyc:  391060116 now IPC :1.54667: AVG IPC :0.70498: L2-Pf-HR :0.90047: L2-HR :0.88571: (Sim:0h16m29s) 
CPU  0 inst:  278000001 cyc:  391694822 now IPC :1.57553: AVG IPC :0.70639: L2-Pf-HR :0.90098: L2-HR :0.88631: (Sim:0h16m32s) 
CPU  0 inst:  279000001 cyc:  392339848 now IPC :1.55033: AVG IPC :0.70779: L2-Pf-HR :0.90148: L2-HR :0.88691: (Sim:0h16m35s) 
CPU  0 inst:  280000000 cyc:  392975080 now IPC :1.57423: AVG IPC :0.70919: L2-Pf-HR :0.90198: L2-HR :0.88751: (Sim:0h16m39s) 
CPU  0 inst:  281000002 cyc:  393621368 now IPC :1.54730: AVG IPC :0.71057: L2-Pf-HR :0.90245: L2-HR :0.88807: (Sim:0h16m42s) 
CPU  0 inst:  282000003 cyc:  394306567 now IPC :1.45943: AVG IPC :0.71187: L2-Pf-HR :0.90285: L2-HR :0.88858: (Sim:0h16m45s) 
CPU  0 inst:  283000001 cyc:  394983652 now IPC :1.47692: AVG IPC :0.71319: L2-Pf-HR :0.90328: L2-HR :0.88910: (Sim:0h16m48s) 
CPU  0 inst:  284000000 cyc:  395655905 now IPC :1.48753: AVG IPC :0.71451: L2-Pf-HR :0.90369: L2-HR :0.88960: (Sim:0h16m51s) 
CPU  0 inst:  285000000 cyc:  396329541 now IPC :1.48448: AVG IPC :0.71582: L2-Pf-HR :0.90409: L2-HR :0.89010: (Sim:0h16m54s) 
CPU  0 inst:  286000000 cyc:  396987978 now IPC :1.51875: AVG IPC :0.71715: L2-Pf-HR :0.90444: L2-HR :0.89056: (Sim:0h16m58s) 
CPU  0 inst:  287000002 cyc:  397614476 now IPC :1.59618: AVG IPC :0.71854: L2-Pf-HR :0.90481: L2-HR :0.89104: (Sim:0h17m1s) 
CPU  0 inst:  288000000 cyc:  398239257 now IPC :1.60056: AVG IPC :0.71993: L2-Pf-HR :0.90518: L2-HR :0.89151: (Sim:0h17m4s) 
CPU  0 inst:  289000003 cyc:  398858021 now IPC :1.61613: AVG IPC :0.72132: L2-Pf-HR :0.90555: L2-HR :0.89199: (Sim:0h17m7s) 
CPU  0 inst:  290000003 cyc:  399502512 now IPC :1.55161: AVG IPC :0.72267: L2-Pf-HR :0.90590: L2-HR :0.89243: (Sim:0h17m11s) 
CPU  0 inst:  291000003 cyc:  400129210 now IPC :1.59566: AVG IPC :0.72404: L2-Pf-HR :0.90629: L2-HR :0.89292: (Sim:0h17m14s) 
CPU  0 inst:  292000000 cyc:  400750990 now IPC :1.60828: AVG IPC :0.72541: L2-Pf-HR :0.90668: L2-HR :0.89341: (Sim:0h17m17s) 
CPU  0 inst:  293000002 cyc:  401371587 now IPC :1.61135: AVG IPC :0.72679: L2-Pf-HR :0.90706: L2-HR :0.89388: (Sim:0h17m20s) 
CPU  0 inst:  294000003 cyc:  402016937 now IPC :1.54955: AVG IPC :0.72811: L2-Pf-HR :0.90742: L2-HR :0.89434: (Sim:0h17m23s) 
CPU  0 inst:  295000001 cyc:  402649675 now IPC :1.58043: AVG IPC :0.72945: L2-Pf-HR :0.90783: L2-HR :0.89482: (Sim:0h17m27s) 
CPU  0 inst:  296000000 cyc:  403293060 now IPC :1.55428: AVG IPC :0.73077: L2-Pf-HR :0.90823: L2-HR :0.89530: (Sim:0h17m30s) 
CPU  0 inst:  297000002 cyc:  403933653 now IPC :1.56106: AVG IPC :0.73209: L2-Pf-HR :0.90861: L2-HR :0.89577: (Sim:0h17m33s) 
CPU  0 inst:  298000002 cyc:  404595502 now IPC :1.51092: AVG IPC :0.73337: L2-Pf-HR :0.90898: L2-HR :0.89621: (Sim:0h17m36s) 
CPU  0 inst:  299000001 cyc:  405269609 now IPC :1.48344: AVG IPC :0.73462: L2-Pf-HR :0.90931: L2-HR :0.89662: (Sim:0h17m40s) 
CPU  0 inst:  300000000 cyc:  405953114 now IPC :1.46305: AVG IPC :0.73585: L2-Pf-HR :0.90963: L2-HR :0.89702: (Sim:0h17m43s) 
CPU  0 inst:  301000003 cyc:  406631950 now IPC :1.47311: AVG IPC :0.73708: L2-Pf-HR :0.90995: L2-HR :0.89743: (Sim:0h17m46s) 
CPU  0 inst:  302000001 cyc:  407319827 now IPC :1.45375: AVG IPC :0.73830: L2-Pf-HR :0.91027: L2-HR :0.89782: (Sim:0h17m49s) 
CPU  0 inst:  303000003 cyc:  407951004 now IPC :1.58434: AVG IPC :0.73961: L2-Pf-HR :0.91056: L2-HR :0.89820: (Sim:0h17m52s) 
CPU  0 inst:  304000000 cyc:  408580067 now IPC :1.58966: AVG IPC :0.74092: L2-Pf-HR :0.91086: L2-HR :0.89859: (Sim:0h17m56s) 
CPU  0 inst:  305000003 cyc:  409202657 now IPC :1.60620: AVG IPC :0.74224: L2-Pf-HR :0.91117: L2-HR :0.89898: (Sim:0h17m59s) 
CPU  0 inst:  306000001 cyc:  409838531 now IPC :1.57264: AVG IPC :0.74353: L2-Pf-HR :0.91144: L2-HR :0.89935: (Sim:0h18m2s) 
CPU  0 inst:  307000000 cyc:  410473625 now IPC :1.57457: AVG IPC :0.74482: L2-Pf-HR :0.91175: L2-HR :0.89974: (Sim:0h18m5s) 
CPU  0 inst:  308000000 cyc:  411100819 now IPC :1.59440: AVG IPC :0.74612: L2-Pf-HR :0.91207: L2-HR :0.90014: (Sim:0h18m9s) 
CPU  0 inst:  309000000 cyc:  411727328 now IPC :1.59615: AVG IPC :0.74742: L2-Pf-HR :0.91239: L2-HR :0.90054: (Sim:0h18m12s) 
CPU  0 inst:  310000001 cyc:  412346411 now IPC :1.61529: AVG IPC :0.74872: L2-Pf-HR :0.91270: L2-HR :0.90093: (Sim:0h18m15s) 
CPU  0 inst:  311000001 cyc:  413001762 now IPC :1.52590: AVG IPC :0.74996: L2-Pf-HR :0.91301: L2-HR :0.90131: (Sim:0h18m18s) 
CPU  0 inst:  312000000 cyc:  413639747 now IPC :1.56743: AVG IPC :0.75122: L2-Pf-HR :0.91335: L2-HR :0.90171: (Sim:0h18m21s) 
CPU  0 inst:  313000000 cyc:  414282891 now IPC :1.55486: AVG IPC :0.75247: L2-Pf-HR :0.91368: L2-HR :0.90211: (Sim:0h18m25s) 
CPU  0 inst:  314000001 cyc:  414917849 now IPC :1.57491: AVG IPC :0.75373: L2-Pf-HR :0.91401: L2-HR :0.90251: (Sim:0h18m28s) 
CPU  0 inst:  315000002 cyc:  415598907 now IPC :1.46831: AVG IPC :0.75491: L2-Pf-HR :0.91428: L2-HR :0.90284: (Sim:0h18m31s) 
CPU  0 inst:  316000000 cyc:  416272185 now IPC :1.48527: AVG IPC :0.75609: L2-Pf-HR :0.91455: L2-HR :0.90318: (Sim:0h18m34s) 
CPU  0 inst:  317000000 cyc:  416945975 now IPC :1.48414: AVG IPC :0.75727: L2-Pf-HR :0.91482: L2-HR :0.90352: (Sim:0h18m37s) 
CPU  0 inst:  318000003 cyc:  417619302 now IPC :1.48517: AVG IPC :0.75845: L2-Pf-HR :0.91509: L2-HR :0.90385: (Sim:0h18m41s) 
CPU  0 inst:  319000001 cyc:  418299130 now IPC :1.47096: AVG IPC :0.75961: L2-Pf-HR :0.91532: L2-HR :0.90415: (Sim:0h18m44s) 
CPU  0 inst:  320000000 cyc:  418928009 now IPC :1.59013: AVG IPC :0.76086: L2-Pf-HR :0.91557: L2-HR :0.90448: (Sim:0h18m47s) 
CPU  0 inst:  321000003 cyc:  419553703 now IPC :1.59823: AVG IPC :0.76211: L2-Pf-HR :0.91582: L2-HR :0.90481: (Sim:0h18m50s) 
CPU  0 inst:  322000001 cyc:  420176900 now IPC :1.60463: AVG IPC :0.76336: L2-Pf-HR :0.91606: L2-HR :0.90512: (Sim:0h18m54s) 
CPU  0 inst:  323000000 cyc:  420824109 now IPC :1.54509: AVG IPC :0.76457: L2-Pf-HR :0.91628: L2-HR :0.90542: (Sim:0h18m57s) 
CPU  0 inst:  324000000 cyc:  421447595 now IPC :1.60389: AVG IPC :0.76581: L2-Pf-HR :0.91655: L2-HR :0.90575: (Sim:0h19m0s) 
CPU  0 inst:  325000003 cyc:  422071595 now IPC :1.60257: AVG IPC :0.76705: L2-Pf-HR :0.91682: L2-HR :0.90609: (Sim:0h19m3s) 
CPU  0 inst:  326000000 cyc:  422693198 now IPC :1.60874: AVG IPC :0.76829: L2-Pf-HR :0.91709: L2-HR :0.90642: (Sim:0h19m6s) 
CPU  0 inst:  327000003 cyc:  423325246 now IPC :1.58216: AVG IPC :0.76951: L2-Pf-HR :0.91733: L2-HR :0.90674: (Sim:0h19m10s) 
CPU  0 inst:  328000000 cyc:  423969631 now IPC :1.55186: AVG IPC :0.77070: L2-Pf-HR :0.91761: L2-HR :0.90707: (Sim:0h19m13s) 
Finished CPU 0 instr: 326000001 cyc: 422991339 AVG IPC: 0.77070 (Sim time: 0h19m13s)

ChampSim completed all CPUs

[ROI Statistics]
Core_0_instructions 326000001
Core_0_cycles 422991339
Core_0_IPC 0.77070

Core_0_branch_prediction_accuracy 99.57883
Core_0_branch_MPKI 0.12289
Core_0_average_ROB_occupancy_at_mispredict 237.11367

Core_0_L1D_total_access 222246609
Core_0_L1D_total_hit 202873155 L1D_total_Hit Ratio: 0.91283
Core_0_L1D_total_miss 19373454
Core_0_L1D_loads 89414116
Core_0_L1D_load_hit 81015308 L1D_load_Hit Ratio: 0.90607
Core_0_L1D_load_miss 8398808
Core_0_L1D_RFOs 8569612
Core_0_L1D_RFO_hit 8039488 L1D_RFO_Hit Ratio: 0.93814
Core_0_L1D_RFO_miss 530124
Core_0_L1D_prefetches 124262881
Core_0_L1D_prefetch_hit 113818359 L1D_prefetch_Hit Ratio: 0.91595
Core_0_L1D_prefetch_miss 10444522
Core_0_L1D_writebacks 0
Core_0_L1D_writeback_hit 0 L1D_writeback_Hit Ratio: -nan
Core_0_L1D_writeback_miss 0
Core_0_L1D_prefetch_requested 270941463
Core_0_L1D_prefetch_issued 142485597
Core_0_L1D_prefetch_useful 4166709 L1D_Useful Ratio: 0.02924
Core_0_L1D_prefetch_useless 6305843
Core_0_L1D_prefetch_late 1115586
Core_0_L1D_average_miss_latency 12107665.32433

Core_0_L1I_total_access 83228694
Core_0_L1I_total_hit 83223762 L1I_total_Hit Ratio: 0.99994
Core_0_L1I_total_miss 4932
Core_0_L1I_loads 83228694
Core_0_L1I_load_hit 83223762 L1I_load_Hit Ratio: 0.99994
Core_0_L1I_load_miss 4932
Core_0_L1I_RFOs 0
Core_0_L1I_RFO_hit 0 L1I_RFO_Hit Ratio: -nan
Core_0_L1I_RFO_miss 0
Core_0_L1I_prefetches 0
Core_0_L1I_prefetch_hit 0 L1I_prefetch_Hit Ratio: -nan
Core_0_L1I_prefetch_miss 0
Core_0_L1I_writebacks 0
Core_0_L1I_writeback_hit 0 L1I_writeback_Hit Ratio: -nan
Core_0_L1I_writeback_miss 0
Core_0_L1I_prefetch_requested 0
Core_0_L1I_prefetch_issued 0
Core_0_L1I_prefetch_useful 0 L1I_Useful Ratio: -nan
Core_0_L1I_prefetch_useless 0
Core_0_L1I_prefetch_late 0
Core_0_L1I_average_miss_latency 352.00061

Core_0_L2C_total_access 50566712
Core_0_L2C_total_hit 45867653 L2C_total_Hit Ratio: 0.90707
Core_0_L2C_total_miss 4699059
Core_0_L2C_loads 7288829
Core_0_L2C_load_hit 6454415 L2C_load_Hit Ratio: 0.88552
Core_0_L2C_load_miss 834414
Core_0_L2C_RFOs 530103
Core_0_L2C_RFO_hit 30197 L2C_RFO_Hit Ratio: 0.05696
Core_0_L2C_RFO_miss 499906
Core_0_L2C_prefetches 40810195
Core_0_L2C_prefetch_hit 37447793 L2C_prefetch_Hit Ratio: 0.91761
Core_0_L2C_prefetch_miss 3362402
Core_0_L2C_writebacks 1937585
Core_0_L2C_writeback_hit 1935248 L2C_writeback_Hit Ratio: 0.99879
Core_0_L2C_writeback_miss 2337
Core_0_L2C_prefetch_requested 80031372
Core_0_L2C_prefetch_issued 40234720
Core_0_L2C_prefetch_useful 259031 L2C_Useful Ratio: 0.00644
Core_0_L2C_prefetch_useless 3121486
Core_0_L2C_prefetch_late 6794
Core_0_L2C_average_miss_latency 206.59272

Core_0_LLC_total_access 6696932
Core_0_LLC_total_hit 3411340 LLC_total_Hit Ratio: 0.50939
Core_0_LLC_total_miss 3285592
Core_0_LLC_loads 827628
Core_0_LLC_load_hit 564865 LLC_load_Hit Ratio: 0.68251
Core_0_LLC_load_miss 262763
Core_0_LLC_RFOs 499906
Core_0_LLC_RFO_hit 47 LLC_RFO_Hit Ratio: 0.00009
Core_0_LLC_RFO_miss 499859
Core_0_LLC_prefetches 3457920
Core_0_LLC_prefetch_hit 935757 LLC_prefetch_Hit Ratio: 0.27061
Core_0_LLC_prefetch_miss 2522163
Core_0_LLC_writebacks 1911478
Core_0_LLC_writeback_hit 1910671 LLC_writeback_Hit Ratio: 0.99958
Core_0_LLC_writeback_miss 807
Core_0_LLC_prefetch_requested 0
Core_0_LLC_prefetch_issued 0
Core_0_LLC_prefetch_useful 415232 LLC_Useful Ratio: inf
Core_0_LLC_prefetch_useless 2094045
Core_0_LLC_prefetch_late 326
Core_0_LLC_average_miss_latency 259.57402

Core_0_major_page_fault 0
Core_0_minor_page_fault 19454

CPU 0 L1D next line prefetcher final stats
CPU 0 L2C PC-based stride prefetcher final stats
Stride Degree: 14
MK1  MARKOV_LRU_SIZE: 256
MK1  MARKOV_PREDICTION_PERCENTTHRESHOLD: 12.00000
MK1  OUTLIERS_THRESHOLD_Max: 64
MK1  OUTLIERS_THRESHOLD_Min: 32
MK2  MARKOV_LRU_SIZE: 256
MK2  MARKOV_PREDICTION_PERCENTTHRESHOLD: 30.00000
MK2  OUTLIERS_THRESHOLD_Max: 32
MK2  OUTLIERS_THRESHOLD_Min: 16
MK3  MARKOV_LRU_SIZE: 32
MK3  MARKOV_PREDICTION_PERCENTTHRESHOLD: 0.00000
MK3  OUTLIERS_THRESHOLD_Max: 4
MK3  OUTLIERS_THRESHOLD_Min: 0
MK4  MARKOV_LRU_SIZE: 32
MK4  MARKOV_PREDICTION_PERCENTTHRESHOLD: 0.00000
MK4  OUTLIERS_THRESHOLD_Max: 4
MK4  OUTLIERS_THRESHOLD_Min: 0
IPStride Degree/Access Ratio: 2.92783
MK1 IPDEltaMarkov  Degree/Access Ratio: 0.53222
MK2 IPDEltaMarkov  Degree/Access Ratio: 0.38159
MK3 IPDEltaMarkov  Degree/Access Ratio: 0.00000
MK4 IPDEltaMarkov  Degree/Access Ratio: 1.20382
Channel_0_RQ_row_buffer_hit 1601948
Channel_0_RQ_row_buffer_miss 1682728
Channel_0_WQ_row_buffer_hit 434285
Channel_0_WQ_row_buffer_miss 1249220
Channel_0_WQ_full 0
Channel_0_dbus_congested 2945559

avg_congested_cycle 10

EzSearch AVG IPC :0.77070: L2-Pf-HR :0.91761 : L2-HR :0.90707 Uful:0.00644
Finished combination: TraceType=777-comparisonScript Sim:326000000 Prefetcher=L2029-TOPTOP-L2-MultiMarkovDelta_ip_stride_v3 L1=next_line
