TRACE: [21000000]_FE_[Pythia-70M]_[h8]_[s256]_[d64] Warmup: 2000000 NumTraces: 21000000
L1:bingo_dpc3:L2:bingo_dpc3
*************************************************
   ChampSim Multicore Out-of-Order Simulator
   Last compiled: Oct 29 2024 19:37:24
*************************************************

trace_0 770-tot_memTraces_v3_rexz/memTraces[21000000]_FE_[Pythia-70M]_[h8]_[s256]_[d64].champsim.9.xz
trace_1 770-tot_memTraces_v3_rexz/memTraces[21000000]_FE_[Pythia-70M]_[h8]_[s256]_[d64].champsim.9.xz
trace_2 770-tot_memTraces_v3_rexz/memTraces[21000000]_FE_[Pythia-70M]_[h8]_[s256]_[d64].champsim.9.xz
trace_3 770-tot_memTraces_v3_rexz/memTraces[21000000]_FE_[Pythia-70M]_[h8]_[s256]_[d64].champsim.9.xz
Bingo PHT WAYS: 16 and PHT_SIZE: 16384
Bingo2 PHT WAYS: 16 and PHT_SIZE: 16384
Bingo PHT WAYS: 16 and PHT_SIZE: 16384
Bingo2 PHT WAYS: 16 and PHT_SIZE: 16384
Bingo PHT WAYS: 16 and PHT_SIZE: 16384
Bingo2 PHT WAYS: 16 and PHT_SIZE: 16384
Bingo PHT WAYS: 16 and PHT_SIZE: 16384
Bingo2 PHT WAYS: 16 and PHT_SIZE: 16384
MAIN.cc ln 751 stats print skipped
CPU  1 inst:    1000001 cyc:     500549 now IPC :1.99781: AVG IPC :1.99781: L2-Pf-HR :0.79029: L2-HR :0.67186: (Sim:0h0m46s) 
CPU  0 inst:    1000001 cyc:     500679 now IPC :1.99729: AVG IPC :1.99729: L2-Pf-HR :0.80061: L2-HR :0.67187: (Sim:0h0m46s) 
CPU  2 inst:    1000001 cyc:     500865 now IPC :1.99655: AVG IPC :1.99655: L2-Pf-HR :0.79845: L2-HR :0.67344: (Sim:0h0m47s) 
CPU  3 inst:    1000001 cyc:     500924 now IPC :1.99631: AVG IPC :1.99631: L2-Pf-HR :0.80588: L2-HR :0.67309: (Sim:0h0m47s) 
CPU  1 inst:    2000003 cyc:     987795 now IPC :2.05236: AVG IPC :2.02471: L2-Pf-HR :0.78810: L2-HR :0.74148: (Sim:0h1m37s) 
CPU  0 inst:    2000003 cyc:     987890 now IPC :2.05250: AVG IPC :2.02452: L2-Pf-HR :0.79515: L2-HR :0.74589: (Sim:0h1m37s) 
CPU  2 inst:    2000003 cyc:     988010 now IPC :2.05278: AVG IPC :2.02427: L2-Pf-HR :0.79272: L2-HR :0.74274: (Sim:0h1m37s) 
CPU  3 inst:    2000003 cyc:     988163 now IPC :2.05238: AVG IPC :2.02396: L2-Pf-HR :0.79438: L2-HR :0.74387: (Sim:0h1m37s) 

Warmup complete CPU  0 instructions:    2000552 cycles:     988163 (Simulation time: 0 hr 1 min 37 sec) 
Warmup complete CPU  1 instructions:    2000821 cycles:     988163 (Simulation time: 0 hr 1 min 37 sec) 
Warmup complete CPU  2 instructions:    2000284 cycles:     988163 (Simulation time: 0 hr 1 min 37 sec) 
Warmup complete CPU  3 instructions:    2000003 cycles:     988163 (Simulation time: 0 hr 1 min 37 sec) 

CPU  1 inst:    3000005 cyc:    1706990 now IPC :1.39045: AVG IPC :1.39002: L2-Pf-HR :0.81234: L2-HR :0.81103: (Sim:0h2m24s) 
CPU  3 inst:    3000005 cyc:    1714642 now IPC :1.37651: AVG IPC :1.37651: L2-Pf-HR :0.81593: L2-HR :0.81642: (Sim:0h2m25s) 
CPU  2 inst:    3000005 cyc:    1724354 now IPC :1.35806: AVG IPC :1.35796: L2-Pf-HR :0.80970: L2-HR :0.80591: (Sim:0h2m25s) 
CPU  0 inst:    3000002 cyc:    1726432 now IPC :1.35402: AVG IPC :1.35377: L2-Pf-HR :0.80331: L2-HR :0.80202: (Sim:0h2m26s) 
CPU  2 inst:    4000001 cyc:    2404650 now IPC :1.46994: AVG IPC :1.41174: L2-Pf-HR :0.80099: L2-HR :0.81339: (Sim:0h3m12s) 
CPU  0 inst:    4000001 cyc:    2408511 now IPC :1.46610: AVG IPC :1.40772: L2-Pf-HR :0.81478: L2-HR :0.81868: (Sim:0h3m12s) 
CPU  1 inst:    4000001 cyc:    2415291 now IPC :1.41182: AVG IPC :1.40084: L2-Pf-HR :0.81215: L2-HR :0.81821: (Sim:0h3m12s) 
CPU  3 inst:    4000001 cyc:    2424898 now IPC :1.40794: AVG IPC :1.39204: L2-Pf-HR :0.80740: L2-HR :0.81600: (Sim:0h3m13s) 
CPU  2 inst:    5000000 cyc:    3104172 now IPC :1.42955: AVG IPC :1.41763: L2-Pf-HR :0.79814: L2-HR :0.81634: (Sim:0h3m57s) 
CPU  0 inst:    5000000 cyc:    3111020 now IPC :1.42347: AVG IPC :1.41293: L2-Pf-HR :0.80455: L2-HR :0.81634: (Sim:0h3m57s) 
CPU  3 inst:    5000000 cyc:    3127096 now IPC :1.42410: AVG IPC :1.40257: L2-Pf-HR :0.80148: L2-HR :0.81468: (Sim:0h3m58s) 
CPU  1 inst:    5000000 cyc:    3131140 now IPC :1.39694: AVG IPC :1.39954: L2-Pf-HR :0.80610: L2-HR :0.81758: (Sim:0h3m59s) 
CPU  3 inst:    6000005 cyc:    3792527 now IPC :1.50279: AVG IPC :1.42635: L2-Pf-HR :0.80441: L2-HR :0.82075: (Sim:0h4m44s) 
CPU  2 inst:    6000005 cyc:    3793635 now IPC :1.45041: AVG IPC :1.42569: L2-Pf-HR :0.79536: L2-HR :0.81707: (Sim:0h4m44s) 
CPU  0 inst:    6000005 cyc:    3795959 now IPC :1.45999: AVG IPC :1.42441: L2-Pf-HR :0.80226: L2-HR :0.81836: (Sim:0h4m44s) 
CPU  1 inst:    6000005 cyc:    3831981 now IPC :1.42686: AVG IPC :1.40627: L2-Pf-HR :0.80586: L2-HR :0.81734: (Sim:0h4m47s) 
CPU  2 inst:    7000003 cyc:    4483387 now IPC :1.44979: AVG IPC :1.43044: L2-Pf-HR :0.79916: L2-HR :0.82171: (Sim:0h5m30s) 
CPU  3 inst:    7000003 cyc:    4494568 now IPC :1.42442: AVG IPC :1.42596: L2-Pf-HR :0.79795: L2-HR :0.81781: (Sim:0h5m31s) 
CPU  0 inst:    7000001 cyc:    4508388 now IPC :1.40364: AVG IPC :1.42021: L2-Pf-HR :0.80287: L2-HR :0.82044: (Sim:0h5m32s) 
CPU  1 inst:    7000003 cyc:    4542979 now IPC :1.40647: AVG IPC :1.40631: L2-Pf-HR :0.80223: L2-HR :0.81597: (Sim:0h5m35s) 
CPU  1 inst:    8000002 cyc:    5306011 now IPC :1.31056: AVG IPC :1.38939: L2-Pf-HR :0.80596: L2-HR :0.82028: (Sim:0h6m21s) 
CPU  3 inst:    8000002 cyc:    5307249 now IPC :1.23049: AVG IPC :1.38918: L2-Pf-HR :0.79605: L2-HR :0.81778: (Sim:0h6m21s) 
CPU  0 inst:    8000002 cyc:    5360818 now IPC :1.17312: AVG IPC :1.37204: L2-Pf-HR :0.79861: L2-HR :0.81736: (Sim:0h6m24s) 
CPU  2 inst:    8000002 cyc:    5366789 now IPC :1.13199: AVG IPC :1.37023: L2-Pf-HR :0.79905: L2-HR :0.82092: (Sim:0h6m24s) 
CPU  1 inst:    9000000 cyc:    7095831 now IPC :0.55871: AVG IPC :1.14597: L2-Pf-HR :0.75105: L2-HR :0.74258: (Sim:0h7m25s) 
CPU  3 inst:    9000000 cyc:    7339661 now IPC :0.49203: AVG IPC :1.10210: L2-Pf-HR :0.74054: L2-HR :0.73962: (Sim:0h7m31s) 
CPU  0 inst:    9000000 cyc:    7413740 now IPC :0.48711: AVG IPC :1.08931: L2-Pf-HR :0.75109: L2-HR :0.75119: (Sim:0h7m33s) 
CPU  2 inst:    9000000 cyc:    7456206 now IPC :0.47860: AVG IPC :1.08220: L2-Pf-HR :0.74605: L2-HR :0.74770: (Sim:0h7m34s) 
CPU  1 inst:   10000000 cyc:   10471154 now IPC :0.29627: AVG IPC :0.84353: L2-Pf-HR :0.68140: L2-HR :0.71217: (Sim:0h8m32s) 
CPU  3 inst:   10000000 cyc:   10715767 now IPC :0.29620: AVG IPC :0.82240: L2-Pf-HR :0.67199: L2-HR :0.70964: (Sim:0h8m38s) 
CPU  0 inst:   10000000 cyc:   10787770 now IPC :0.29638: AVG IPC :0.81630: L2-Pf-HR :0.68364: L2-HR :0.72085: (Sim:0h8m40s) 
CPU  2 inst:   10000000 cyc:   10830752 now IPC :0.29634: AVG IPC :0.81277: L2-Pf-HR :0.67825: L2-HR :0.71736: (Sim:0h8m41s) 
CPU  1 inst:   11000000 cyc:   13847641 now IPC :0.29617: AVG IPC :0.69981: L2-Pf-HR :0.62546: L2-HR :0.68665: (Sim:0h9m58s) 
CPU  3 inst:   11000000 cyc:   14091733 now IPC :0.29621: AVG IPC :0.68684: L2-Pf-HR :0.61739: L2-HR :0.68461: (Sim:0h10m4s) 
CPU  0 inst:   11000000 cyc:   14162285 now IPC :0.29634: AVG IPC :0.68312: L2-Pf-HR :0.63436: L2-HR :0.69808: (Sim:0h10m6s) 
CPU  2 inst:   11000000 cyc:   14204500 now IPC :0.29641: AVG IPC :0.68095: L2-Pf-HR :0.63003: L2-HR :0.69524: (Sim:0h10m7s) 
CPU  1 inst:   12000000 cyc:   17230846 now IPC :0.29558: AVG IPC :0.61561: L2-Pf-HR :0.57847: L2-HR :0.66441: (Sim:0h11m25s) 
CPU  3 inst:   12000000 cyc:   17471520 now IPC :0.29588: AVG IPC :0.60667: L2-Pf-HR :0.57079: L2-HR :0.66244: (Sim:0h11m31s) 
CPU  0 inst:   12000000 cyc:   17541053 now IPC :0.29597: AVG IPC :0.60409: L2-Pf-HR :0.58930: L2-HR :0.67625: (Sim:0h11m33s) 
CPU  2 inst:   12000000 cyc:   17585030 now IPC :0.29581: AVG IPC :0.60251: L2-Pf-HR :0.58567: L2-HR :0.67384: (Sim:0h11m34s) 
CPU  1 inst:   13000000 cyc:   20615262 now IPC :0.29547: AVG IPC :0.56041: L2-Pf-HR :0.53762: L2-HR :0.64455: (Sim:0h12m52s) 
CPU  3 inst:   13000000 cyc:   20874197 now IPC :0.29389: AVG IPC :0.55315: L2-Pf-HR :0.53037: L2-HR :0.64265: (Sim:0h12m58s) 
CPU  0 inst:   13000000 cyc:   20937835 now IPC :0.29440: AVG IPC :0.55136: L2-Pf-HR :0.55116: L2-HR :0.65722: (Sim:0h12m59s) 
CPU  2 inst:   13000000 cyc:   20992376 now IPC :0.29348: AVG IPC :0.54987: L2-Pf-HR :0.54545: L2-HR :0.65382: (Sim:0h13m0s) 
CPU  1 inst:   14000000 cyc:   22199240 now IPC :0.63132: AVG IPC :0.56570: L2-Pf-HR :0.57480: L2-HR :0.68025: (Sim:0h13m47s) 
CPU  3 inst:   14000000 cyc:   22540402 now IPC :0.60017: AVG IPC :0.55679: L2-Pf-HR :0.56863: L2-HR :0.67873: (Sim:0h14m3s) 
CPU  0 inst:   14000000 cyc:   22646372 now IPC :0.58530: AVG IPC :0.55404: L2-Pf-HR :0.58586: L2-HR :0.69081: (Sim:0h14m8s) 
CPU  2 inst:   14000000 cyc:   22709028 now IPC :0.58253: AVG IPC :0.55245: L2-Pf-HR :0.58055: L2-HR :0.68789: (Sim:0h14m11s) 
CPU  1 inst:   15000000 cyc:   23243198 now IPC :0.95789: AVG IPC :0.58410: L2-Pf-HR :0.60821: L2-HR :0.71171: (Sim:0h14m32s) 
CPU  3 inst:   15000000 cyc:   23769430 now IPC :0.81365: AVG IPC :0.57064: L2-Pf-HR :0.60276: L2-HR :0.71043: (Sim:0h15m4s) 
CPU  0 inst:   15000000 cyc:   23830891 now IPC :0.84422: AVG IPC :0.56908: L2-Pf-HR :0.61738: L2-HR :0.72072: (Sim:0h15m8s) 
CPU  2 inst:   15000000 cyc:   23897170 now IPC :0.84165: AVG IPC :0.56745: L2-Pf-HR :0.61287: L2-HR :0.71825: (Sim:0h15m13s) 
CPU  1 inst:   16000004 cyc:   24321617 now IPC :0.92729: AVG IPC :0.59996: L2-Pf-HR :0.63381: L2-HR :0.73606: (Sim:0h15m33s) 
CPU  3 inst:   16000004 cyc:   24861221 now IPC :0.91593: AVG IPC :0.58644: L2-Pf-HR :0.62906: L2-HR :0.73497: (Sim:0h15m58s) 
CPU  0 inst:   16000004 cyc:   24881579 now IPC :0.95176: AVG IPC :0.58591: L2-Pf-HR :0.64165: L2-HR :0.74385: (Sim:0h15m59s) 
CPU  2 inst:   16000004 cyc:   24966379 now IPC :0.93527: AVG IPC :0.58385: L2-Pf-HR :0.63800: L2-HR :0.74175: (Sim:0h16m4s) 
CPU  1 inst:   17000000 cyc:   25345260 now IPC :0.97690: AVG IPC :0.61580: L2-Pf-HR :0.65568: L2-HR :0.75579: (Sim:0h16m23s) 
CPU  3 inst:   17000002 cyc:   25832432 now IPC :1.02964: AVG IPC :0.60376: L2-Pf-HR :0.65167: L2-HR :0.75491: (Sim:0h16m54s) 
CPU  0 inst:   17000000 cyc:   25839934 now IPC :1.04345: AVG IPC :0.60356: L2-Pf-HR :0.66267: L2-HR :0.76268: (Sim:0h16m55s) 
CPU  2 inst:   17000002 cyc:   25901319 now IPC :1.06959: AVG IPC :0.60208: L2-Pf-HR :0.65939: L2-HR :0.76080: (Sim:0h16m58s) 
CPU  1 inst:   18000000 cyc:   26299370 now IPC :1.04810: AVG IPC :0.63210: L2-Pf-HR :0.67482: L2-HR :0.77233: (Sim:0h17m21s) 
Finished CPU 1 instr: 16000001 cyc: 25314962 AVG IPC: 0.63204 (Sim time: 0h17m21s)
CPU  0 inst:   18000000 cyc:   26785798 now IPC :1.05723: AVG IPC :0.62019: L2-Pf-HR :0.68097: L2-HR :0.77849: (Sim:0h17m50s) 
Finished CPU 0 instr: 16000004 cyc: 25798805 AVG IPC: 0.62018 (Sim time: 0h17m50s)
CPU  2 inst:   18000000 cyc:   26835655 now IPC :1.07028: AVG IPC :0.61900: L2-Pf-HR :0.67800: L2-HR :0.77680: (Sim:0h17m54s) 
Finished CPU 2 instr: 16000004 cyc: 25847835 AVG IPC: 0.61901 (Sim time: 0h17m54s)
CPU  3 inst:   18000000 cyc:   26869186 now IPC :0.96455: AVG IPC :0.61821: L2-Pf-HR :0.67109: L2-HR :0.77149: (Sim:0h17m55s) 
Finished CPU 3 instr: 16000003 cyc: 25881024 AVG IPC: 0.61821 (Sim time: 0h17m55s)

ChampSim completed all CPUs

Total Simulation Statistics (not including warmup)

CPU 0 cumulative IPC: 0.62022 instructions: 16051887 cycles: 25881024
Core_0_L1D_total_access 4882086
Core_0_L1D_total_hit 4316891
Core_0_L1D_total_miss 565195
Core_0_L1D_loads 4008687
Core_0_L1D_load_hit 3706219
Core_0_L1D_load_miss 302468
Core_0_L1D_RFOs 566986
Core_0_L1D_RFO_hit 564217
Core_0_L1D_RFO_miss 2769
Core_0_L1D_prefetches 306413
Core_0_L1D_prefetch_hit 46455
Core_0_L1D_prefetch_miss 259958
Core_0_L1D_writebacks 0
Core_0_L1D_writeback_hit 0
Core_0_L1D_writeback_miss 0

Core_0_L1I_total_access 2271030
Core_0_L1I_total_hit 2266322
Core_0_L1I_total_miss 4708
Core_0_L1I_loads 2271030
Core_0_L1I_load_hit 2266322
Core_0_L1I_load_miss 4708
Core_0_L1I_RFOs 0
Core_0_L1I_RFO_hit 0
Core_0_L1I_RFO_miss 0
Core_0_L1I_prefetches 0
Core_0_L1I_prefetch_hit 0
Core_0_L1I_prefetch_miss 0
Core_0_L1I_writebacks 0
Core_0_L1I_writeback_hit 0
Core_0_L1I_writeback_miss 0

Core_0_L2C_total_access 757028
Core_0_L2C_total_hit 589153
Core_0_L2C_total_miss 167875
Core_0_L2C_loads 261120
Core_0_L2C_load_hit 217771
Core_0_L2C_load_miss 43349
Core_0_L2C_RFOs 2749
Core_0_L2C_RFO_hit 134
Core_0_L2C_RFO_miss 2615
Core_0_L2C_prefetches 380966
Core_0_L2C_prefetch_hit 259060
Core_0_L2C_prefetch_miss 121906
Core_0_L2C_writebacks 112193
Core_0_L2C_writeback_hit 112188
Core_0_L2C_writeback_miss 5

[Bingo] PHT Access: 62675
[Bingo] PHT Hit PC+Addr: 29444
[Bingo] PHT Hit PC+Offs: 30326
[Bingo] PHT Miss: 2905
[Bingo] Prefetch PC+Addr: 0
[Bingo] Prefetch PC+Offs: 0
[Bingo] Useful PC+Addr: 0
[Bingo] Useful PC+Offs: 0
[Bingo] Useless PC+Addr: 0
[Bingo] Useless PC+Offs: 0
[Bingo] L1 Prefetch per Region: 10.41569
[Bingo] L2 Prefetch per Region: 0.47798
[Bingo] L3 Prefetch per Region: 0.00000
[Bingo] No Prefetch per Region: 21.10632
[Bingo] Number of Voters Mean: 13.50805
[Bingo] Number of Voters SD: 4.62331
PHT read accesses: 696251
PHT write accesses: 59842
AT read accesses: 4427986
AT write accesses: 4428026
FT read accesses: 864293
FT write accesses: 62675
PS read accesses: 373386
PS write accesses: 59770
PHT tag read accesses: 2178065
PHT tag write accesses: 89286
AT tag read accesses: 117652598
AT tag write accesses: 4487866
FT tag read accesses: 48686025
FT tag write accesses: 526028
PS tag read accesses: 78299984
PS tag write accesses: 430865
[Bingo2] PHT Access: 15401
[Bingo2] PHT Hit PC+Addr: 1590
[Bingo2] PHT Hit PC+Offs: 9990
[Bingo2] PHT Miss: 3821
[Bingo2] Prefetch PC+Addr: 0
[Bingo2] Prefetch PC+Offs: 0
[Bingo2] Useful PC+Addr: 0
[Bingo2] Useful PC+Offs: 0
[Bingo2] Useless PC+Addr: 0
[Bingo2] Useless PC+Offs: 0
[Bingo2] L1 Prefetch per Region: 0.00000
[Bingo2] L2 Prefetch per Region: 13.40501
[Bingo2] L3 Prefetch per Region: 0.00000
[Bingo2] No Prefetch per Region: 18.59499
[Bingo2] Number of Voters Mean: 14.85375
[Bingo2] Number of Voters SD: 3.13978
PHT read accesses: 159997
PHT write accesses: 12245
AT read accesses: 258903
AT write accesses: 271122
FT read accesses: 42709
FT write accesses: 15401
PS read accesses: 36755
PS write accesses: 11580
PHT tag read accesses: 582491
PHT tag write accesses: 13835
AT tag read accesses: 15651734
AT tag write accesses: 271276
FT tag read accesses: 11694401
FT tag write accesses: 42988
PS tag read accesses: 4831162
PS tag write accesses: 47622
Core_0_LLC_total_access 263301
Core_0_LLC_total_hit 136506
Core_0_LLC_total_miss 126795
Core_0_LLC_loads 29702
Core_0_LLC_load_hit 9034
Core_0_LLC_load_miss 20668
Core_0_LLC_RFOs 2615
Core_0_LLC_RFO_hit 17
Core_0_LLC_RFO_miss 2598
Core_0_LLC_prefetches 135554
Core_0_LLC_prefetch_hit 38971
Core_0_LLC_prefetch_miss 96583
Core_0_LLC_writebacks 95430
Core_0_LLC_writeback_hit 88484
Core_0_LLC_writeback_miss 6946


CPU 1 cumulative IPC: 0.64024 instructions: 16570040 cycles: 25881024
Core_1_L1D_total_access 5042543
Core_1_L1D_total_hit 4443360
Core_1_L1D_total_miss 599183
Core_1_L1D_loads 4150656
Core_1_L1D_load_hit 3826795
Core_1_L1D_load_miss 323861
Core_1_L1D_RFOs 568198
Core_1_L1D_RFO_hit 565422
Core_1_L1D_RFO_miss 2776
Core_1_L1D_prefetches 323689
Core_1_L1D_prefetch_hit 51143
Core_1_L1D_prefetch_miss 272546
Core_1_L1D_writebacks 0
Core_1_L1D_writeback_hit 0
Core_1_L1D_writeback_miss 0

Core_1_L1I_total_access 2320941
Core_1_L1I_total_hit 2316234
Core_1_L1I_total_miss 4707
Core_1_L1I_loads 2320941
Core_1_L1I_load_hit 2316234
Core_1_L1I_load_miss 4707
Core_1_L1I_RFOs 0
Core_1_L1I_RFO_hit 0
Core_1_L1I_RFO_miss 0
Core_1_L1I_prefetches 0
Core_1_L1I_prefetch_hit 0
Core_1_L1I_prefetch_miss 0
Core_1_L1I_writebacks 0
Core_1_L1I_writeback_hit 0
Core_1_L1I_writeback_miss 0

Core_1_L2C_total_access 791861
Core_1_L2C_total_hit 617219
Core_1_L2C_total_miss 174642
Core_1_L2C_loads 280479
Core_1_L2C_load_hit 234065
Core_1_L2C_load_miss 46414
Core_1_L2C_RFOs 2758
Core_1_L2C_RFO_hit 140
Core_1_L2C_RFO_miss 2618
Core_1_L2C_prefetches 395868
Core_1_L2C_prefetch_hit 270263
Core_1_L2C_prefetch_miss 125605
Core_1_L2C_writebacks 112756
Core_1_L2C_writeback_hit 112751
Core_1_L2C_writeback_miss 5

[Bingo] PHT Access: 62798
[Bingo] PHT Hit PC+Addr: 31715
[Bingo] PHT Hit PC+Offs: 28760
[Bingo] PHT Miss: 2323
[Bingo] Prefetch PC+Addr: 0
[Bingo] Prefetch PC+Offs: 0
[Bingo] Useful PC+Addr: 0
[Bingo] Useful PC+Offs: 0
[Bingo] Useless PC+Addr: 0
[Bingo] Useless PC+Offs: 0
[Bingo] L1 Prefetch per Region: 10.24853
[Bingo] L2 Prefetch per Region: 0.53329
[Bingo] L3 Prefetch per Region: 0.00000
[Bingo] No Prefetch per Region: 21.21817
[Bingo] Number of Voters Mean: 13.32326
[Bingo] Number of Voters SD: 6.87410
PHT read accesses: 696212
PHT write accesses: 60102
AT read accesses: 3875224
AT write accesses: 3875222
FT read accesses: 864387
FT write accesses: 62798
PS read accesses: 377712
PS write accesses: 60475
PHT tag read accesses: 2143402
PHT tag write accesses: 91817
AT tag read accesses: 106215523
AT tag write accesses: 3935324
FT tag read accesses: 46101057
FT tag write accesses: 526319
PS tag read accesses: 69472254
PS tag write accesses: 435617
[Bingo2] PHT Access: 12174
[Bingo2] PHT Hit PC+Addr: 1197
[Bingo2] PHT Hit PC+Offs: 9270
[Bingo2] PHT Miss: 1707
[Bingo2] Prefetch PC+Addr: 0
[Bingo2] Prefetch PC+Offs: 0
[Bingo2] Useful PC+Addr: 0
[Bingo2] Useful PC+Offs: 0
[Bingo2] Useless PC+Addr: 0
[Bingo2] Useless PC+Offs: 0
[Bingo2] L1 Prefetch per Region: 0.00000
[Bingo2] L2 Prefetch per Region: 14.18897
[Bingo2] L3 Prefetch per Region: 0.00000
[Bingo2] No Prefetch per Region: 17.81103
[Bingo2] Number of Voters Mean: 15.05189
[Bingo2] Number of Voters SD: 5.21618
PHT read accesses: 147130
PHT write accesses: 9869
AT read accesses: 266337
AT write accesses: 276071
FT read accesses: 33943
FT write accesses: 12174
PS read accesses: 35656
PS write accesses: 10467
PHT tag read accesses: 471963
PHT tag write accesses: 11066
AT tag read accesses: 15294123
AT tag write accesses: 276206
FT tag read accesses: 11173778
FT tag write accesses: 34137
PS tag read accesses: 4838496
PS tag write accesses: 45308
Core_1_LLC_total_access 273170
Core_1_LLC_total_hit 145051
Core_1_LLC_total_miss 128119
Core_1_LLC_loads 32345
Core_1_LLC_load_hit 11520
Core_1_LLC_load_miss 20825
Core_1_LLC_RFOs 2618
Core_1_LLC_RFO_hit 19
Core_1_LLC_RFO_miss 2599
Core_1_LLC_prefetches 139674
Core_1_LLC_prefetch_hit 41053
Core_1_LLC_prefetch_miss 98621
Core_1_LLC_writebacks 98533
Core_1_LLC_writeback_hit 92459
Core_1_LLC_writeback_miss 6074


CPU 2 cumulative IPC: 0.61884 instructions: 16016141 cycles: 25881024
Core_2_L1D_total_access 4873196
Core_2_L1D_total_hit 4310401
Core_2_L1D_total_miss 562795
Core_2_L1D_loads 4000612
Core_2_L1D_load_hit 3700029
Core_2_L1D_load_miss 300583
Core_2_L1D_RFOs 566922
Core_2_L1D_RFO_hit 564132
Core_2_L1D_RFO_miss 2790
Core_2_L1D_prefetches 305662
Core_2_L1D_prefetch_hit 46240
Core_2_L1D_prefetch_miss 259422
Core_2_L1D_writebacks 0
Core_2_L1D_writeback_hit 0
Core_2_L1D_writeback_miss 0

Core_2_L1I_total_access 2267157
Core_2_L1I_total_hit 2262448
Core_2_L1I_total_miss 4709
Core_2_L1I_loads 2267157
Core_2_L1I_load_hit 2262448
Core_2_L1I_load_miss 4709
Core_2_L1I_RFOs 0
Core_2_L1I_RFO_hit 0
Core_2_L1I_RFO_miss 0
Core_2_L1I_prefetches 0
Core_2_L1I_prefetch_hit 0
Core_2_L1I_prefetch_miss 0
Core_2_L1I_writebacks 0
Core_2_L1I_writeback_hit 0
Core_2_L1I_writeback_miss 0

Core_2_L2C_total_access 752083
Core_2_L2C_total_hit 584226
Core_2_L2C_total_miss 167857
Core_2_L2C_loads 259293
Core_2_L2C_load_hit 215803
Core_2_L2C_load_miss 43490
Core_2_L2C_RFOs 2760
Core_2_L2C_RFO_hit 135
Core_2_L2C_RFO_miss 2625
Core_2_L2C_prefetches 377879
Core_2_L2C_prefetch_hit 256142
Core_2_L2C_prefetch_miss 121737
Core_2_L2C_writebacks 112151
Core_2_L2C_writeback_hit 112146
Core_2_L2C_writeback_miss 5

[Bingo] PHT Access: 62338
[Bingo] PHT Hit PC+Addr: 29160
[Bingo] PHT Hit PC+Offs: 30256
[Bingo] PHT Miss: 2922
[Bingo] Prefetch PC+Addr: 0
[Bingo] Prefetch PC+Offs: 0
[Bingo] Useful PC+Addr: 0
[Bingo] Useful PC+Offs: 0
[Bingo] Useless PC+Addr: 0
[Bingo] Useless PC+Offs: 0
[Bingo] L1 Prefetch per Region: 10.43259
[Bingo] L2 Prefetch per Region: 0.47100
[Bingo] L3 Prefetch per Region: 0.00000
[Bingo] No Prefetch per Region: 21.09641
[Bingo] Number of Voters Mean: 13.52221
[Bingo] Number of Voters SD: 4.60602
PHT read accesses: 691403
PHT write accesses: 59493
AT read accesses: 4419559
AT write accesses: 4419587
FT read accesses: 863161
FT write accesses: 62338
PS read accesses: 369264
PS write accesses: 59416
PHT tag read accesses: 2166137
PHT tag write accesses: 88653
AT tag read accesses: 117503103
AT tag write accesses: 4479080
FT tag read accesses: 48662412
FT tag write accesses: 524949
PS tag read accesses: 78156834
PS tag write accesses: 426415
[Bingo2] PHT Access: 14764
[Bingo2] PHT Hit PC+Addr: 1546
[Bingo2] PHT Hit PC+Offs: 9408
[Bingo2] PHT Miss: 3810
[Bingo2] Prefetch PC+Addr: 0
[Bingo2] Prefetch PC+Offs: 0
[Bingo2] Useful PC+Addr: 0
[Bingo2] Useful PC+Offs: 0
[Bingo2] Useless PC+Addr: 0
[Bingo2] Useless PC+Offs: 0
[Bingo2] L1 Prefetch per Region: 0.00000
[Bingo2] L2 Prefetch per Region: 14.00831
[Bingo2] L3 Prefetch per Region: 0.00000
[Bingo2] No Prefetch per Region: 17.99169
[Bingo2] Number of Voters Mean: 14.79900
[Bingo2] Number of Voters SD: 3.22836
PHT read accesses: 150301
PHT write accesses: 11699
AT read accesses: 257457
AT write accesses: 269121
FT read accesses: 41334
FT write accesses: 14764
PS read accesses: 36076
PS write accesses: 10954
PHT tag read accesses: 555966
PHT tag write accesses: 13245
AT tag read accesses: 15593998
AT tag write accesses: 269284
FT tag read accesses: 11655706
FT tag write accesses: 41396
PS tag read accesses: 4766098
PS tag write accesses: 46032
Core_2_LLC_total_access 263020
Core_2_LLC_total_hit 136082
Core_2_LLC_total_miss 126938
Core_2_LLC_loads 29712
Core_2_LLC_load_hit 9062
Core_2_LLC_load_miss 20650
Core_2_LLC_RFOs 2625
Core_2_LLC_RFO_hit 60
Core_2_LLC_RFO_miss 2565
Core_2_LLC_prefetches 135515
Core_2_LLC_prefetch_hit 37691
Core_2_LLC_prefetch_miss 97824
Core_2_LLC_writebacks 95168
Core_2_LLC_writeback_hit 89269
Core_2_LLC_writeback_miss 5899


CPU 3 cumulative IPC: 0.61821 instructions: 16000003 cycles: 25881024
Core_3_L1D_total_access 4866135
Core_3_L1D_total_hit 4304264
Core_3_L1D_total_miss 561871
Core_3_L1D_loads 3994253
Core_3_L1D_load_hit 3694114
Core_3_L1D_load_miss 300139
Core_3_L1D_RFOs 566767
Core_3_L1D_RFO_hit 563959
Core_3_L1D_RFO_miss 2808
Core_3_L1D_prefetches 305115
Core_3_L1D_prefetch_hit 46191
Core_3_L1D_prefetch_miss 258924
Core_3_L1D_writebacks 0
Core_3_L1D_writeback_hit 0
Core_3_L1D_writeback_miss 0

Core_3_L1I_total_access 2264707
Core_3_L1I_total_hit 2259997
Core_3_L1I_total_miss 4710
Core_3_L1I_loads 2264707
Core_3_L1I_load_hit 2259997
Core_3_L1I_load_miss 4710
Core_3_L1I_RFOs 0
Core_3_L1I_RFO_hit 0
Core_3_L1I_RFO_miss 0
Core_3_L1I_prefetches 0
Core_3_L1I_prefetch_hit 0
Core_3_L1I_prefetch_miss 0
Core_3_L1I_writebacks 0
Core_3_L1I_writeback_hit 0
Core_3_L1I_writeback_miss 0

Core_3_L2C_total_access 748401
Core_3_L2C_total_hit 577381
Core_3_L2C_total_miss 171020
Core_3_L2C_loads 259342
Core_3_L2C_load_hit 214030
Core_3_L2C_load_miss 45312
Core_3_L2C_RFOs 2780
Core_3_L2C_RFO_hit 134
Core_3_L2C_RFO_miss 2646
Core_3_L2C_prefetches 374136
Core_3_L2C_prefetch_hit 251079
Core_3_L2C_prefetch_miss 123057
Core_3_L2C_writebacks 112143
Core_3_L2C_writeback_hit 112138
Core_3_L2C_writeback_miss 5

[Bingo] PHT Access: 62258
[Bingo] PHT Hit PC+Addr: 29345
[Bingo] PHT Hit PC+Offs: 30009
[Bingo] PHT Miss: 2904
[Bingo] Prefetch PC+Addr: 0
[Bingo] Prefetch PC+Offs: 0
[Bingo] Useful PC+Addr: 0
[Bingo] Useful PC+Offs: 0
[Bingo] Useless PC+Addr: 0
[Bingo] Useless PC+Offs: 0
[Bingo] L1 Prefetch per Region: 10.42991
[Bingo] L2 Prefetch per Region: 0.46902
[Bingo] L3 Prefetch per Region: 0.00000
[Bingo] No Prefetch per Region: 21.10107
[Bingo] Number of Voters Mean: 13.51031
[Bingo] Number of Voters SD: 4.61762
PHT read accesses: 687866
PHT write accesses: 59460
AT read accesses: 4413197
AT write accesses: 4413225
FT read accesses: 862999
FT write accesses: 62258
PS read accesses: 370263
PS write accesses: 59354
PHT tag read accesses: 2158412
PHT tag write accesses: 88805
AT tag read accesses: 117398305
AT tag write accesses: 4472683
FT tag read accesses: 48659703
FT tag write accesses: 524754
PS tag read accesses: 78046985
PS tag write accesses: 427339
[Bingo2] PHT Access: 14761
[Bingo2] PHT Hit PC+Addr: 1440
[Bingo2] PHT Hit PC+Offs: 9647
[Bingo2] PHT Miss: 3674
[Bingo2] Prefetch PC+Addr: 0
[Bingo2] Prefetch PC+Offs: 0
[Bingo2] Useful PC+Addr: 0
[Bingo2] Useful PC+Offs: 0
[Bingo2] Useless PC+Addr: 0
[Bingo2] Useless PC+Offs: 0
[Bingo2] L1 Prefetch per Region: 0.00000
[Bingo2] L2 Prefetch per Region: 13.63705
[Bingo2] L3 Prefetch per Region: 0.00000
[Bingo2] No Prefetch per Region: 18.36295
[Bingo2] Number of Voters Mean: 14.77485
[Bingo2] Number of Voters SD: 3.18760
PHT read accesses: 152492
PHT write accesses: 11689
AT read accesses: 257805
AT write accesses: 269474
FT read accesses: 41012
FT write accesses: 14761
PS read accesses: 36106
PS write accesses: 11087
PHT tag read accesses: 557221
PHT tag write accesses: 13129
AT tag read accesses: 15596917
AT tag write accesses: 269622
FT tag read accesses: 11648169
FT tag write accesses: 41233
PS tag read accesses: 4774214
PS tag write accesses: 46480
Core_3_LLC_total_access 268006
Core_3_LLC_total_hit 143861
Core_3_LLC_total_miss 124145
Core_3_LLC_loads 31089
Core_3_LLC_load_hit 10322
Core_3_LLC_load_miss 20767
Core_3_LLC_RFOs 2646
Core_3_LLC_RFO_hit 30
Core_3_LLC_RFO_miss 2616
Core_3_LLC_prefetches 137280
Core_3_LLC_prefetch_hit 38924
Core_3_LLC_prefetch_miss 98356
Core_3_LLC_writebacks 96991
Core_3_LLC_writeback_hit 94585
Core_3_LLC_writeback_miss 2406


[ROI Statistics]
Core_0_instructions 16000004
Core_0_cycles 25798805
Core_0_IPC 0.62018

Core_0_branch_prediction_accuracy 98.24604
Core_0_branch_MPKI 0.62944
Core_0_average_ROB_occupancy_at_mispredict 322.01465

Core_0_L1D_total_access 4867083
Core_0_L1D_total_hit 4305320 L1D_total_Hit Ratio: 0.88458
Core_0_L1D_total_miss 561763
Core_0_L1D_loads 3995142
Core_0_L1D_load_hit 3695037 L1D_load_Hit Ratio: 0.92488
Core_0_L1D_load_miss 300105
Core_0_L1D_RFOs 566882
Core_0_L1D_RFO_hit 564113 L1D_RFO_Hit Ratio: 0.99512
Core_0_L1D_RFO_miss 2769
Core_0_L1D_prefetches 305059
Core_0_L1D_prefetch_hit 46170 L1D_prefetch_Hit Ratio: 0.15135
Core_0_L1D_prefetch_miss 258889
Core_0_L1D_writebacks 0
Core_0_L1D_writeback_hit 0 L1D_writeback_Hit Ratio: -nan
Core_0_L1D_writeback_miss 0
Core_0_L1D_prefetch_requested 504322
Core_0_L1D_prefetch_issued 504322
Core_0_L1D_prefetch_useful 283044 L1D_Useful Ratio: 0.56124
Core_0_L1D_prefetch_useless 4369
Core_0_L1D_prefetch_late 47517
Core_0_L1D_average_miss_latency 1245922.98829

Core_0_L1I_total_access 2265896
Core_0_L1I_total_hit 2261188 L1I_total_Hit Ratio: 0.99792
Core_0_L1I_total_miss 4708
Core_0_L1I_loads 2265896
Core_0_L1I_load_hit 2261188 L1I_load_Hit Ratio: 0.99792
Core_0_L1I_load_miss 4708
Core_0_L1I_RFOs 0
Core_0_L1I_RFO_hit 0 L1I_RFO_Hit Ratio: -nan
Core_0_L1I_RFO_miss 0
Core_0_L1I_prefetches 0
Core_0_L1I_prefetch_hit 0 L1I_prefetch_Hit Ratio: -nan
Core_0_L1I_prefetch_miss 0
Core_0_L1I_writebacks 0
Core_0_L1I_writeback_hit 0 L1I_writeback_Hit Ratio: -nan
Core_0_L1I_writeback_miss 0
Core_0_L1I_prefetch_requested 0
Core_0_L1I_prefetch_issued 0
Core_0_L1I_prefetch_useful 0 L1I_Useful Ratio: -nan
Core_0_L1I_prefetch_useless 0
Core_0_L1I_prefetch_late 0
Core_0_L1I_average_miss_latency 436.98598

Core_0_L2C_total_access 752666
Core_0_L2C_total_hit 585938 L2C_total_Hit Ratio: 0.77848
Core_0_L2C_total_miss 166728
Core_0_L2C_loads 258984
Core_0_L2C_load_hit 215734 L2C_load_Hit Ratio: 0.83300
Core_0_L2C_load_miss 43250
Core_0_L2C_RFOs 2749
Core_0_L2C_RFO_hit 134 L2C_RFO_Hit Ratio: 0.04874
Core_0_L2C_RFO_miss 2615
Core_0_L2C_prefetches 378800
Core_0_L2C_prefetch_hit 257942 L2C_prefetch_Hit Ratio: 0.68095
Core_0_L2C_prefetch_miss 120858
Core_0_L2C_writebacks 112133
Core_0_L2C_writeback_hit 112128 L2C_writeback_Hit Ratio: 0.99996
Core_0_L2C_writeback_miss 5
Core_0_L2C_prefetch_requested 117327
Core_0_L2C_prefetch_issued 117327
Core_0_L2C_prefetch_useful 33674 L2C_Useful Ratio: 0.28701
Core_0_L2C_prefetch_useless 87332
Core_0_L2C_prefetch_late 13679
Core_0_L2C_average_miss_latency 528.96413

Core_0_LLC_total_access 261950
Core_0_LLC_total_hit 136003 LLC_total_Hit Ratio: 0.51919
Core_0_LLC_total_miss 125947
Core_0_LLC_loads 29615
Core_0_LLC_load_hit 9010 LLC_load_Hit Ratio: 0.30424
Core_0_LLC_load_miss 20605
Core_0_LLC_RFOs 2615
Core_0_LLC_RFO_hit 17 LLC_RFO_Hit Ratio: 0.00650
Core_0_LLC_RFO_miss 2598
Core_0_LLC_prefetches 134493
Core_0_LLC_prefetch_hit 38695 LLC_prefetch_Hit Ratio: 0.28771
Core_0_LLC_prefetch_miss 95798
Core_0_LLC_writebacks 95227
Core_0_LLC_writeback_hit 88281 LLC_writeback_Hit Ratio: 0.92706
Core_0_LLC_writeback_miss 6946
Core_0_LLC_prefetch_requested 0
Core_0_LLC_prefetch_issued 0
Core_0_LLC_prefetch_useful 21870 LLC_Useful Ratio: inf
Core_0_LLC_prefetch_useless 243762
Core_0_LLC_prefetch_late 0
Core_0_LLC_average_miss_latency 2489.45208

Core_0_major_page_fault 0
Core_0_minor_page_fault 2391

Core_1_instructions 16000001
Core_1_cycles 25314962
Core_1_IPC 0.63204

Core_1_branch_prediction_accuracy 98.25337
Core_1_branch_MPKI 0.61083
Core_1_average_ROB_occupancy_at_mispredict 322.02243

Core_1_L1D_total_access 4868498
Core_1_L1D_total_hit 4306724 L1D_total_Hit Ratio: 0.88461
Core_1_L1D_total_miss 561774
Core_1_L1D_loads 3996347
Core_1_L1D_load_hit 3696475 L1D_load_Hit Ratio: 0.92496
Core_1_L1D_load_miss 299872
Core_1_L1D_RFOs 566744
Core_1_L1D_RFO_hit 563973 L1D_RFO_Hit Ratio: 0.99511
Core_1_L1D_RFO_miss 2771
Core_1_L1D_prefetches 305407
Core_1_L1D_prefetch_hit 46276 L1D_prefetch_Hit Ratio: 0.15152
Core_1_L1D_prefetch_miss 259131
Core_1_L1D_writebacks 0
Core_1_L1D_writeback_hit 0 L1D_writeback_Hit Ratio: -nan
Core_1_L1D_writeback_miss 0
Core_1_L1D_prefetch_requested 534310
Core_1_L1D_prefetch_issued 534310
Core_1_L1D_prefetch_useful 295530 L1D_Useful Ratio: 0.55311
Core_1_L1D_prefetch_useless 4723
Core_1_L1D_prefetch_late 49575
Core_1_L1D_average_miss_latency 1327999.19152

Core_1_L1I_total_access 2264718
Core_1_L1I_total_hit 2260011 L1I_total_Hit Ratio: 0.99792
Core_1_L1I_total_miss 4707
Core_1_L1I_loads 2264718
Core_1_L1I_load_hit 2260011 L1I_load_Hit Ratio: 0.99792
Core_1_L1I_load_miss 4707
Core_1_L1I_RFOs 0
Core_1_L1I_RFO_hit 0 L1I_RFO_Hit Ratio: -nan
Core_1_L1I_RFO_miss 0
Core_1_L1I_prefetches 0
Core_1_L1I_prefetch_hit 0 L1I_prefetch_Hit Ratio: -nan
Core_1_L1I_prefetch_miss 0
Core_1_L1I_writebacks 0
Core_1_L1I_writeback_hit 0 L1I_writeback_Hit Ratio: -nan
Core_1_L1I_writeback_miss 0
Core_1_L1I_prefetch_requested 0
Core_1_L1I_prefetch_issued 0
Core_1_L1I_prefetch_useful 0 L1I_Useful Ratio: -nan
Core_1_L1I_prefetch_useless 0
Core_1_L1I_prefetch_late 0
Core_1_L1I_average_miss_latency 450.47058

Core_1_L2C_total_access 749748
Core_1_L2C_total_hit 579053 L2C_total_Hit Ratio: 0.77233
Core_1_L2C_total_miss 170695
Core_1_L2C_loads 259267
Core_1_L2C_load_hit 213339 L2C_load_Hit Ratio: 0.82285
Core_1_L2C_load_miss 45928
Core_1_L2C_RFOs 2753
Core_1_L2C_RFO_hit 135 L2C_RFO_Hit Ratio: 0.04904
Core_1_L2C_RFO_miss 2618
Core_1_L2C_prefetches 375595
Core_1_L2C_prefetch_hit 253451 L2C_prefetch_Hit Ratio: 0.67480
Core_1_L2C_prefetch_miss 122144
Core_1_L2C_writebacks 112133
Core_1_L2C_writeback_hit 112128 L2C_writeback_Hit Ratio: 0.99996
Core_1_L2C_writeback_miss 5
Core_1_L2C_prefetch_requested 117172
Core_1_L2C_prefetch_issued 117172
Core_1_L2C_prefetch_useful 34368 L2C_Useful Ratio: 0.29331
Core_1_L2C_prefetch_useless 90324
Core_1_L2C_prefetch_late 14088
Core_1_L2C_average_miss_latency 505.32597

Core_1_LLC_total_access 268591
Core_1_LLC_total_hit 144087 LLC_total_Hit Ratio: 0.53646
Core_1_LLC_total_miss 124504
Core_1_LLC_loads 31922
Core_1_LLC_load_hit 11493 LLC_load_Hit Ratio: 0.36003
Core_1_LLC_load_miss 20429
Core_1_LLC_RFOs 2618
Core_1_LLC_RFO_hit 19 LLC_RFO_Hit Ratio: 0.00726
Core_1_LLC_RFO_miss 2599
Core_1_LLC_prefetches 136151
Core_1_LLC_prefetch_hit 40749 LLC_prefetch_Hit Ratio: 0.29929
Core_1_LLC_prefetch_miss 95402
Core_1_LLC_writebacks 97900
Core_1_LLC_writeback_hit 91826 LLC_writeback_Hit Ratio: 0.93796
Core_1_LLC_writeback_miss 6074
Core_1_LLC_prefetch_requested 0
Core_1_LLC_prefetch_issued 0
Core_1_LLC_prefetch_useful 21870 LLC_Useful Ratio: inf
Core_1_LLC_prefetch_useless 243762
Core_1_LLC_prefetch_late 0
Core_1_LLC_average_miss_latency 2518.30480

Core_1_major_page_fault 0
Core_1_minor_page_fault 2407

Core_2_instructions 16000004
Core_2_cycles 25847835
Core_2_IPC 0.61901

Core_2_branch_prediction_accuracy 98.24585
Core_2_branch_MPKI 0.63067
Core_2_average_ROB_occupancy_at_mispredict 321.82526

Core_2_L1D_total_access 4868734
Core_2_L1D_total_hit 4306933 L1D_total_Hit Ratio: 0.88461
Core_2_L1D_total_miss 561801
Core_2_L1D_loads 3996568
Core_2_L1D_load_hit 3696689 L1D_load_Hit Ratio: 0.92497
Core_2_L1D_load_miss 299879
Core_2_L1D_RFOs 566896
Core_2_L1D_RFO_hit 564106 L1D_RFO_Hit Ratio: 0.99508
Core_2_L1D_RFO_miss 2790
Core_2_L1D_prefetches 305270
Core_2_L1D_prefetch_hit 46138 L1D_prefetch_Hit Ratio: 0.15114
Core_2_L1D_prefetch_miss 259132
Core_2_L1D_writebacks 0
Core_2_L1D_writeback_hit 0 L1D_writeback_Hit Ratio: -nan
Core_2_L1D_writeback_miss 0
Core_2_L1D_prefetch_requested 502955
Core_2_L1D_prefetch_issued 502955
Core_2_L1D_prefetch_useful 282614 L1D_Useful Ratio: 0.56191
Core_2_L1D_prefetch_useless 4394
Core_2_L1D_prefetch_late 47468
Core_2_L1D_average_miss_latency 1247101.23388

Core_2_L1I_total_access 2265556
Core_2_L1I_total_hit 2260847 L1I_total_Hit Ratio: 0.99792
Core_2_L1I_total_miss 4709
Core_2_L1I_loads 2265556
Core_2_L1I_load_hit 2260847 L1I_load_Hit Ratio: 0.99792
Core_2_L1I_load_miss 4709
Core_2_L1I_RFOs 0
Core_2_L1I_RFO_hit 0 L1I_RFO_Hit Ratio: -nan
Core_2_L1I_RFO_miss 0
Core_2_L1I_prefetches 0
Core_2_L1I_prefetch_hit 0 L1I_prefetch_Hit Ratio: -nan
Core_2_L1I_prefetch_miss 0
Core_2_L1I_writebacks 0
Core_2_L1I_writeback_hit 0 L1I_writeback_Hit Ratio: -nan
Core_2_L1I_writeback_miss 0
Core_2_L1I_prefetch_requested 0
Core_2_L1I_prefetch_issued 0
Core_2_L1I_prefetch_useful 0 L1I_Useful Ratio: -nan
Core_2_L1I_prefetch_useless 0
Core_2_L1I_prefetch_late 0
Core_2_L1I_average_miss_latency 467.83946

Core_2_L2C_total_access 750934
Core_2_L2C_total_hit 583318 L2C_total_Hit Ratio: 0.77679
Core_2_L2C_total_miss 167616
Core_2_L2C_loads 258674
Core_2_L2C_load_hit 215210 L2C_load_Hit Ratio: 0.83197
Core_2_L2C_load_miss 43464
Core_2_L2C_RFOs 2760
Core_2_L2C_RFO_hit 135 L2C_RFO_Hit Ratio: 0.04891
Core_2_L2C_RFO_miss 2625
Core_2_L2C_prefetches 377364
Core_2_L2C_prefetch_hit 255842 L2C_prefetch_Hit Ratio: 0.67797
Core_2_L2C_prefetch_miss 121522
Core_2_L2C_writebacks 112136
Core_2_L2C_writeback_hit 112131 L2C_writeback_Hit Ratio: 0.99996
Core_2_L2C_writeback_miss 5
Core_2_L2C_prefetch_requested 113147
Core_2_L2C_prefetch_issued 113147
Core_2_L2C_prefetch_useful 33548 L2C_Useful Ratio: 0.29650
Core_2_L2C_prefetch_useless 87398
Core_2_L2C_prefetch_late 13842
Core_2_L2C_average_miss_latency 524.75943

Core_2_LLC_total_access 262728
Core_2_LLC_total_hit 135990 LLC_total_Hit Ratio: 0.51761
Core_2_LLC_total_miss 126738
Core_2_LLC_loads 29689
Core_2_LLC_load_hit 9058 LLC_load_Hit Ratio: 0.30510
Core_2_LLC_load_miss 20631
Core_2_LLC_RFOs 2625
Core_2_LLC_RFO_hit 60 LLC_RFO_Hit Ratio: 0.02286
Core_2_LLC_RFO_miss 2565
Core_2_LLC_prefetches 135298
Core_2_LLC_prefetch_hit 37655 LLC_prefetch_Hit Ratio: 0.27831
Core_2_LLC_prefetch_miss 97643
Core_2_LLC_writebacks 95116
Core_2_LLC_writeback_hit 89217 LLC_writeback_Hit Ratio: 0.93798
Core_2_LLC_writeback_miss 5899
Core_2_LLC_prefetch_requested 0
Core_2_LLC_prefetch_issued 0
Core_2_LLC_prefetch_useful 21870 LLC_Useful Ratio: inf
Core_2_LLC_prefetch_useless 243762
Core_2_LLC_prefetch_late 0
Core_2_LLC_average_miss_latency 2473.91486

Core_2_major_page_fault 0
Core_2_minor_page_fault 2383

Core_3_instructions 16000003
Core_3_cycles 25881024
Core_3_IPC 0.61821

Core_3_branch_prediction_accuracy 98.24556
Core_3_branch_MPKI 0.63131
Core_3_average_ROB_occupancy_at_mispredict 321.79269

Core_3_L1D_total_access 4866135
Core_3_L1D_total_hit 4304264 L1D_total_Hit Ratio: 0.88453
Core_3_L1D_total_miss 561871
Core_3_L1D_loads 3994253
Core_3_L1D_load_hit 3694114 L1D_load_Hit Ratio: 0.92486
Core_3_L1D_load_miss 300139
Core_3_L1D_RFOs 566767
Core_3_L1D_RFO_hit 563959 L1D_RFO_Hit Ratio: 0.99505
Core_3_L1D_RFO_miss 2808
Core_3_L1D_prefetches 305115
Core_3_L1D_prefetch_hit 46191 L1D_prefetch_Hit Ratio: 0.15139
Core_3_L1D_prefetch_miss 258924
Core_3_L1D_writebacks 0
Core_3_L1D_writeback_hit 0 L1D_writeback_Hit Ratio: -nan
Core_3_L1D_writeback_miss 0
Core_3_L1D_prefetch_requested 501063
Core_3_L1D_prefetch_issued 501063
Core_3_L1D_prefetch_useful 281684 L1D_Useful Ratio: 0.56217
Core_3_L1D_prefetch_useless 4494
Core_3_L1D_prefetch_late 47113
Core_3_L1D_average_miss_latency 1227010.12218

Core_3_L1I_total_access 2264707
Core_3_L1I_total_hit 2259997 L1I_total_Hit Ratio: 0.99792
Core_3_L1I_total_miss 4710
Core_3_L1I_loads 2264707
Core_3_L1I_load_hit 2259997 L1I_load_Hit Ratio: 0.99792
Core_3_L1I_load_miss 4710
Core_3_L1I_RFOs 0
Core_3_L1I_RFO_hit 0 L1I_RFO_Hit Ratio: -nan
Core_3_L1I_RFO_miss 0
Core_3_L1I_prefetches 0
Core_3_L1I_prefetch_hit 0 L1I_prefetch_Hit Ratio: -nan
Core_3_L1I_prefetch_miss 0
Core_3_L1I_writebacks 0
Core_3_L1I_writeback_hit 0 L1I_writeback_Hit Ratio: -nan
Core_3_L1I_writeback_miss 0
Core_3_L1I_prefetch_requested 0
Core_3_L1I_prefetch_issued 0
Core_3_L1I_prefetch_useful 0 L1I_Useful Ratio: -nan
Core_3_L1I_prefetch_useless 0
Core_3_L1I_prefetch_late 0
Core_3_L1I_average_miss_latency 449.10021

Core_3_L2C_total_access 748401
Core_3_L2C_total_hit 577381 L2C_total_Hit Ratio: 0.77149
Core_3_L2C_total_miss 171020
Core_3_L2C_loads 259342
Core_3_L2C_load_hit 214030 L2C_load_Hit Ratio: 0.82528
Core_3_L2C_load_miss 45312
Core_3_L2C_RFOs 2780
Core_3_L2C_RFO_hit 134 L2C_RFO_Hit Ratio: 0.04820
Core_3_L2C_RFO_miss 2646
Core_3_L2C_prefetches 374136
Core_3_L2C_prefetch_hit 251079 L2C_prefetch_Hit Ratio: 0.67109
Core_3_L2C_prefetch_miss 123057
Core_3_L2C_writebacks 112143
Core_3_L2C_writeback_hit 112138 L2C_writeback_Hit Ratio: 0.99996
Core_3_L2C_writeback_miss 5
Core_3_L2C_prefetch_requested 113565
Core_3_L2C_prefetch_issued 113565
Core_3_L2C_prefetch_useful 33171 L2C_Useful Ratio: 0.29209
Core_3_L2C_prefetch_useless 89635
Core_3_L2C_prefetch_late 14293
Core_3_L2C_average_miss_latency 513.53405

Core_3_LLC_total_access 268006
Core_3_LLC_total_hit 143861 LLC_total_Hit Ratio: 0.53678
Core_3_LLC_total_miss 124145
Core_3_LLC_loads 31089
Core_3_LLC_load_hit 10322 LLC_load_Hit Ratio: 0.33201
Core_3_LLC_load_miss 20767
Core_3_LLC_RFOs 2646
Core_3_LLC_RFO_hit 30 LLC_RFO_Hit Ratio: 0.01134
Core_3_LLC_RFO_miss 2616
Core_3_LLC_prefetches 137280
Core_3_LLC_prefetch_hit 38924 LLC_prefetch_Hit Ratio: 0.28354
Core_3_LLC_prefetch_miss 98356
Core_3_LLC_writebacks 96991
Core_3_LLC_writeback_hit 94585 LLC_writeback_Hit Ratio: 0.97519
Core_3_LLC_writeback_miss 2406
Core_3_LLC_prefetch_requested 0
Core_3_LLC_prefetch_issued 0
Core_3_LLC_prefetch_useful 21870 LLC_Useful Ratio: inf
Core_3_LLC_prefetch_useless 243762
Core_3_LLC_prefetch_late 0
Core_3_LLC_average_miss_latency 2525.58718

Core_3_major_page_fault 0
Core_3_minor_page_fault 2382

[Bingo] PHT Access: 62675
[Bingo] PHT Hit PC+Addr: 29444
[Bingo] PHT Hit PC+Offs: 30326
[Bingo] PHT Miss: 2905
[Bingo] Prefetch PC+Addr: 0
[Bingo] Prefetch PC+Offs: 0
[Bingo] Useful PC+Addr: 0
[Bingo] Useful PC+Offs: 0
[Bingo] Useless PC+Addr: 0
[Bingo] Useless PC+Offs: 0
[Bingo] L1 Prefetch per Region: 10.41569
[Bingo] L2 Prefetch per Region: 0.47798
[Bingo] L3 Prefetch per Region: 0.00000
[Bingo] No Prefetch per Region: 21.10632
[Bingo] Number of Voters Mean: 13.50805
[Bingo] Number of Voters SD: 4.62331
PHT read accesses: 696251
PHT write accesses: 59842
AT read accesses: 4427986
AT write accesses: 4428026
FT read accesses: 864293
FT write accesses: 62675
PS read accesses: 373386
PS write accesses: 59770
PHT tag read accesses: 2178065
PHT tag write accesses: 89286
AT tag read accesses: 117652598
AT tag write accesses: 4487866
FT tag read accesses: 48686025
FT tag write accesses: 526028
PS tag read accesses: 78299984
PS tag write accesses: 430865
[Bingo2] PHT Access: 15401
[Bingo2] PHT Hit PC+Addr: 1590
[Bingo2] PHT Hit PC+Offs: 9990
[Bingo2] PHT Miss: 3821
[Bingo2] Prefetch PC+Addr: 0
[Bingo2] Prefetch PC+Offs: 0
[Bingo2] Useful PC+Addr: 0
[Bingo2] Useful PC+Offs: 0
[Bingo2] Useless PC+Addr: 0
[Bingo2] Useless PC+Offs: 0
[Bingo2] L1 Prefetch per Region: 0.00000
[Bingo2] L2 Prefetch per Region: 13.40501
[Bingo2] L3 Prefetch per Region: 0.00000
[Bingo2] No Prefetch per Region: 18.59499
[Bingo2] Number of Voters Mean: 14.85375
[Bingo2] Number of Voters SD: 3.13978
PHT read accesses: 159997
PHT write accesses: 12245
AT read accesses: 258903
AT write accesses: 271122
FT read accesses: 42709
FT write accesses: 15401
PS read accesses: 36755
PS write accesses: 11580
PHT tag read accesses: 582491
PHT tag write accesses: 13835
AT tag read accesses: 15651734
AT tag write accesses: 271276
FT tag read accesses: 11694401
FT tag write accesses: 42988
PS tag read accesses: 4831162
PS tag write accesses: 47622
[Bingo] PHT Access: 62798
[Bingo] PHT Hit PC+Addr: 31715
[Bingo] PHT Hit PC+Offs: 28760
[Bingo] PHT Miss: 2323
[Bingo] Prefetch PC+Addr: 0
[Bingo] Prefetch PC+Offs: 0
[Bingo] Useful PC+Addr: 0
[Bingo] Useful PC+Offs: 0
[Bingo] Useless PC+Addr: 0
[Bingo] Useless PC+Offs: 0
[Bingo] L1 Prefetch per Region: 10.24853
[Bingo] L2 Prefetch per Region: 0.53329
[Bingo] L3 Prefetch per Region: 0.00000
[Bingo] No Prefetch per Region: 21.21817
[Bingo] Number of Voters Mean: 13.32326
[Bingo] Number of Voters SD: 6.87410
PHT read accesses: 696212
PHT write accesses: 60102
AT read accesses: 3875224
AT write accesses: 3875222
FT read accesses: 864387
FT write accesses: 62798
PS read accesses: 377712
PS write accesses: 60475
PHT tag read accesses: 2143402
PHT tag write accesses: 91817
AT tag read accesses: 106215523
AT tag write accesses: 3935324
FT tag read accesses: 46101057
FT tag write accesses: 526319
PS tag read accesses: 69472254
PS tag write accesses: 435617
[Bingo2] PHT Access: 12174
[Bingo2] PHT Hit PC+Addr: 1197
[Bingo2] PHT Hit PC+Offs: 9270
[Bingo2] PHT Miss: 1707
[Bingo2] Prefetch PC+Addr: 0
[Bingo2] Prefetch PC+Offs: 0
[Bingo2] Useful PC+Addr: 0
[Bingo2] Useful PC+Offs: 0
[Bingo2] Useless PC+Addr: 0
[Bingo2] Useless PC+Offs: 0
[Bingo2] L1 Prefetch per Region: 0.00000
[Bingo2] L2 Prefetch per Region: 14.18897
[Bingo2] L3 Prefetch per Region: 0.00000
[Bingo2] No Prefetch per Region: 17.81103
[Bingo2] Number of Voters Mean: 15.05189
[Bingo2] Number of Voters SD: 5.21618
PHT read accesses: 147130
PHT write accesses: 9869
AT read accesses: 266337
AT write accesses: 276071
FT read accesses: 33943
FT write accesses: 12174
PS read accesses: 35656
PS write accesses: 10467
PHT tag read accesses: 471963
PHT tag write accesses: 11066
AT tag read accesses: 15294123
AT tag write accesses: 276206
FT tag read accesses: 11173778
FT tag write accesses: 34137
PS tag read accesses: 4838496
PS tag write accesses: 45308
[Bingo] PHT Access: 62338
[Bingo] PHT Hit PC+Addr: 29160
[Bingo] PHT Hit PC+Offs: 30256
[Bingo] PHT Miss: 2922
[Bingo] Prefetch PC+Addr: 0
[Bingo] Prefetch PC+Offs: 0
[Bingo] Useful PC+Addr: 0
[Bingo] Useful PC+Offs: 0
[Bingo] Useless PC+Addr: 0
[Bingo] Useless PC+Offs: 0
[Bingo] L1 Prefetch per Region: 10.43259
[Bingo] L2 Prefetch per Region: 0.47100
[Bingo] L3 Prefetch per Region: 0.00000
[Bingo] No Prefetch per Region: 21.09641
[Bingo] Number of Voters Mean: 13.52221
[Bingo] Number of Voters SD: 4.60602
PHT read accesses: 691403
PHT write accesses: 59493
AT read accesses: 4419559
AT write accesses: 4419587
FT read accesses: 863161
FT write accesses: 62338
PS read accesses: 369264
PS write accesses: 59416
PHT tag read accesses: 2166137
PHT tag write accesses: 88653
AT tag read accesses: 117503103
AT tag write accesses: 4479080
FT tag read accesses: 48662412
FT tag write accesses: 524949
PS tag read accesses: 78156834
PS tag write accesses: 426415
[Bingo2] PHT Access: 14764
[Bingo2] PHT Hit PC+Addr: 1546
[Bingo2] PHT Hit PC+Offs: 9408
[Bingo2] PHT Miss: 3810
[Bingo2] Prefetch PC+Addr: 0
[Bingo2] Prefetch PC+Offs: 0
[Bingo2] Useful PC+Addr: 0
[Bingo2] Useful PC+Offs: 0
[Bingo2] Useless PC+Addr: 0
[Bingo2] Useless PC+Offs: 0
[Bingo2] L1 Prefetch per Region: 0.00000
[Bingo2] L2 Prefetch per Region: 14.00831
[Bingo2] L3 Prefetch per Region: 0.00000
[Bingo2] No Prefetch per Region: 17.99169
[Bingo2] Number of Voters Mean: 14.79900
[Bingo2] Number of Voters SD: 3.22836
PHT read accesses: 150301
PHT write accesses: 11699
AT read accesses: 257457
AT write accesses: 269121
FT read accesses: 41334
FT write accesses: 14764
PS read accesses: 36076
PS write accesses: 10954
PHT tag read accesses: 555966
PHT tag write accesses: 13245
AT tag read accesses: 15593998
AT tag write accesses: 269284
FT tag read accesses: 11655706
FT tag write accesses: 41396
PS tag read accesses: 4766098
PS tag write accesses: 46032
[Bingo] PHT Access: 62258
[Bingo] PHT Hit PC+Addr: 29345
[Bingo] PHT Hit PC+Offs: 30009
[Bingo] PHT Miss: 2904
[Bingo] Prefetch PC+Addr: 0
[Bingo] Prefetch PC+Offs: 0
[Bingo] Useful PC+Addr: 0
[Bingo] Useful PC+Offs: 0
[Bingo] Useless PC+Addr: 0
[Bingo] Useless PC+Offs: 0
[Bingo] L1 Prefetch per Region: 10.42991
[Bingo] L2 Prefetch per Region: 0.46902
[Bingo] L3 Prefetch per Region: 0.00000
[Bingo] No Prefetch per Region: 21.10107
[Bingo] Number of Voters Mean: 13.51031
[Bingo] Number of Voters SD: 4.61762
PHT read accesses: 687866
PHT write accesses: 59460
AT read accesses: 4413197
AT write accesses: 4413225
FT read accesses: 862999
FT write accesses: 62258
PS read accesses: 370263
PS write accesses: 59354
PHT tag read accesses: 2158412
PHT tag write accesses: 88805
AT tag read accesses: 117398305
AT tag write accesses: 4472683
FT tag read accesses: 48659703
FT tag write accesses: 524754
PS tag read accesses: 78046985
PS tag write accesses: 427339
[Bingo2] PHT Access: 14761
[Bingo2] PHT Hit PC+Addr: 1440
[Bingo2] PHT Hit PC+Offs: 9647
[Bingo2] PHT Miss: 3674
[Bingo2] Prefetch PC+Addr: 0
[Bingo2] Prefetch PC+Offs: 0
[Bingo2] Useful PC+Addr: 0
[Bingo2] Useful PC+Offs: 0
[Bingo2] Useless PC+Addr: 0
[Bingo2] Useless PC+Offs: 0
[Bingo2] L1 Prefetch per Region: 0.00000
[Bingo2] L2 Prefetch per Region: 13.63705
[Bingo2] L3 Prefetch per Region: 0.00000
[Bingo2] No Prefetch per Region: 18.36295
[Bingo2] Number of Voters Mean: 14.77485
[Bingo2] Number of Voters SD: 3.18760
PHT read accesses: 152492
PHT write accesses: 11689
AT read accesses: 257805
AT write accesses: 269474
FT read accesses: 41012
FT write accesses: 14761
PS read accesses: 36106
PS write accesses: 11087
PHT tag read accesses: 557221
PHT tag write accesses: 13129
AT tag read accesses: 15596917
AT tag write accesses: 269622
FT tag read accesses: 11648169
FT tag write accesses: 41233
PS tag read accesses: 4774214
PS tag write accesses: 46480
Channel_0_RQ_row_buffer_hit 282124
Channel_0_RQ_row_buffer_miss 202474
Channel_0_WQ_row_buffer_hit 82021
Channel_0_WQ_row_buffer_miss 169287
Channel_0_WQ_full 4089
Channel_0_dbus_congested 578893

avg_congested_cycle 11

EzSearch AVG IPC :0.62018: L2-Pf-HR :0.68095 : L2-HR :0.77824 Uful:0.28701
EzSearch AVG IPC :0.63204: L2-Pf-HR :0.67480 : L2-HR :0.77945 Uful:0.29331
EzSearch AVG IPC :0.61901: L2-Pf-HR :0.67797 : L2-HR :0.77681 Uful:0.29650
EzSearch AVG IPC :0.61821: L2-Pf-HR :0.67109 : L2-HR :0.77149 Uful:0.29209
     > Finished combination: TraceType=770-tot Sim:16000000 Prefetcher=L2bingo_dpc3 L1=bingo_dpc3
