TRACE: [125000000][OPT-125M]_[h12][s512][d64] Warmup: 2000000 NumTraces: 125000000
L1:berti_concurso:L2:berti_concurso
*************************************************
   ChampSim Multicore Out-of-Order Simulator
   Last compiled: Oct 29 2024 15:30:18
*************************************************

trace_0 770-tot_memTraces_v3_rexz/memTraces[125000000][OPT-125M]_[h12][s512][d64].champsim.9.xz
trace_1 770-tot_memTraces_v3_rexz/memTraces[125000000][OPT-125M]_[h12][s512][d64].champsim.9.xz
trace_2 770-tot_memTraces_v3_rexz/memTraces[125000000][OPT-125M]_[h12][s512][d64].champsim.9.xz
trace_3 770-tot_memTraces_v3_rexz/memTraces[125000000][OPT-125M]_[h12][s512][d64].champsim.9.xz
CPU 0 L1D Berti prefetcher
CPU 0 L2C Berti prefetcher
CPU 1 L1D Berti prefetcher
CPU 1 L2C Berti prefetcher
CPU 2 L1D Berti prefetcher
CPU 2 L2C Berti prefetcher
CPU 3 L1D Berti prefetcher
CPU 3 L2C Berti prefetcher
MAIN.cc ln 751 stats print skipped
CPU  0 inst:    1000001 cyc:     499376 now IPC :2.00250: AVG IPC :2.00250: L2-Pf-HR :0.77419: L2-HR :0.72441: (Sim:0h0m39s) 
CPU  1 inst:    1000001 cyc:     499481 now IPC :2.00208: AVG IPC :2.00208: L2-Pf-HR :0.77609: L2-HR :0.72629: (Sim:0h0m39s) 
CPU  2 inst:    1000001 cyc:     499697 now IPC :2.00121: AVG IPC :2.00121: L2-Pf-HR :0.77393: L2-HR :0.72466: (Sim:0h0m39s) 
CPU  3 inst:    1000001 cyc:     499800 now IPC :2.00080: AVG IPC :2.00080: L2-Pf-HR :0.77555: L2-HR :0.72384: (Sim:0h0m39s) 
CPU  0 inst:    2000000 cyc:     981864 now IPC :2.07259: AVG IPC :2.03694: L2-Pf-HR :0.83011: L2-HR :0.78013: (Sim:0h1m9s) 
CPU  1 inst:    2000000 cyc:     981996 now IPC :2.07247: AVG IPC :2.03667: L2-Pf-HR :0.83072: L2-HR :0.78103: (Sim:0h1m9s) 
CPU  2 inst:    2000000 cyc:     982162 now IPC :2.07269: AVG IPC :2.03632: L2-Pf-HR :0.82980: L2-HR :0.78014: (Sim:0h1m9s) 
CPU  3 inst:    2000000 cyc:     982255 now IPC :2.07273: AVG IPC :2.03613: L2-Pf-HR :0.83119: L2-HR :0.77958: (Sim:0h1m9s) 

Warmup complete CPU  0 instructions:    2000888 cycles:     982256 (Simulation time: 0 hr 1 min 9 sec) 
Warmup complete CPU  1 instructions:    2000504 cycles:     982256 (Simulation time: 0 hr 1 min 9 sec) 
Warmup complete CPU  2 instructions:    2000279 cycles:     982256 (Simulation time: 0 hr 1 min 9 sec) 
Warmup complete CPU  3 instructions:    2000003 cycles:     982256 (Simulation time: 0 hr 1 min 9 sec) 

CPU  0 inst:    3000004 cyc:    1745195 now IPC :1.31005: AVG IPC :1.30956: L2-Pf-HR :0.92556: L2-HR :0.83234: (Sim:0h1m37s) 
CPU  3 inst:    3000004 cyc:    1746107 now IPC :1.30916: AVG IPC :1.30916: L2-Pf-HR :0.92891: L2-HR :0.83429: (Sim:0h1m37s) 
CPU  1 inst:    3000004 cyc:    1747119 now IPC :1.30698: AVG IPC :1.30677: L2-Pf-HR :0.93113: L2-HR :0.83640: (Sim:0h1m37s) 
CPU  2 inst:    3000004 cyc:    1754889 now IPC :1.29412: AVG IPC :1.29392: L2-Pf-HR :0.92630: L2-HR :0.83639: (Sim:0h1m37s) 
CPU  3 inst:    4000004 cyc:    2495765 now IPC :1.33394: AVG IPC :1.32143: L2-Pf-HR :0.89104: L2-HR :0.81201: (Sim:0h2m4s) 
CPU  0 inst:    4000004 cyc:    2495969 now IPC :1.33196: AVG IPC :1.32067: L2-Pf-HR :0.87599: L2-HR :0.80087: (Sim:0h2m4s) 
CPU  1 inst:    4000004 cyc:    2500236 now IPC :1.32781: AVG IPC :1.31721: L2-Pf-HR :0.89672: L2-HR :0.81636: (Sim:0h2m4s) 
CPU  2 inst:    4000004 cyc:    2503744 now IPC :1.33537: AVG IPC :1.31432: L2-Pf-HR :0.89382: L2-HR :0.81434: (Sim:0h2m4s) 
CPU  3 inst:    5000001 cyc:    3313892 now IPC :1.22230: AVG IPC :1.28665: L2-Pf-HR :0.90181: L2-HR :0.81615: (Sim:0h2m32s) 
CPU  0 inst:    5000002 cyc:    3314098 now IPC :1.22230: AVG IPC :1.28616: L2-Pf-HR :0.88053: L2-HR :0.80021: (Sim:0h2m32s) 
CPU  1 inst:    5000001 cyc:    3321585 now IPC :1.21751: AVG IPC :1.28220: L2-Pf-HR :0.90826: L2-HR :0.82098: (Sim:0h2m33s) 
CPU  2 inst:    5000001 cyc:    3325091 now IPC :1.21751: AVG IPC :1.28038: L2-Pf-HR :0.89844: L2-HR :0.81187: (Sim:0h2m33s) 
CPU  0 inst:    6000004 cyc:    4058540 now IPC :1.34329: AVG IPC :1.29998: L2-Pf-HR :0.89709: L2-HR :0.81062: (Sim:0h3m0s) 
CPU  3 inst:    6000004 cyc:    4058744 now IPC :1.34255: AVG IPC :1.30018: L2-Pf-HR :0.91595: L2-HR :0.82651: (Sim:0h3m0s) 
CPU  1 inst:    6000004 cyc:    4066342 now IPC :1.34272: AVG IPC :1.29682: L2-Pf-HR :0.92403: L2-HR :0.83406: (Sim:0h3m0s) 
CPU  2 inst:    6000004 cyc:    4068453 now IPC :1.34524: AVG IPC :1.29600: L2-Pf-HR :0.91148: L2-HR :0.82019: (Sim:0h3m0s) 
CPU  0 inst:    7000005 cyc:    4816133 now IPC :1.31997: AVG IPC :1.30393: L2-Pf-HR :0.90665: L2-HR :0.81665: (Sim:0h3m32s) 
CPU  3 inst:    7000005 cyc:    4816945 now IPC :1.31891: AVG IPC :1.30389: L2-Pf-HR :0.92205: L2-HR :0.83087: (Sim:0h3m32s) 
CPU  1 inst:    7000005 cyc:    4825627 now IPC :1.31703: AVG IPC :1.30081: L2-Pf-HR :0.93204: L2-HR :0.84093: (Sim:0h3m32s) 
CPU  2 inst:    7000005 cyc:    4828771 now IPC :1.31524: AVG IPC :1.29981: L2-Pf-HR :0.91825: L2-HR :0.82435: (Sim:0h3m32s) 
CPU  0 inst:    8000005 cyc:    5559577 now IPC :1.34509: AVG IPC :1.31062: L2-Pf-HR :0.90023: L2-HR :0.81411: (Sim:0h4m4s) 
CPU  2 inst:    8000005 cyc:    5613360 now IPC :1.27455: AVG IPC :1.29553: L2-Pf-HR :0.90975: L2-HR :0.81975: (Sim:0h4m6s) 
CPU  1 inst:    8000005 cyc:    5613664 now IPC :1.26898: AVG IPC :1.29539: L2-Pf-HR :0.92400: L2-HR :0.83687: (Sim:0h4m6s) 
CPU  3 inst:    8000005 cyc:    5619210 now IPC :1.24647: AVG IPC :1.29395: L2-Pf-HR :0.91628: L2-HR :0.82803: (Sim:0h4m7s) 
CPU  0 inst:    9000000 cyc:    6466785 now IPC :1.10228: AVG IPC :1.27616: L2-Pf-HR :0.89730: L2-HR :0.81031: (Sim:0h4m31s) 
CPU  1 inst:    9000000 cyc:    6738920 now IPC :0.88868: AVG IPC :1.21589: L2-Pf-HR :0.92283: L2-HR :0.83478: (Sim:0h4m39s) 
CPU  3 inst:    9000000 cyc:    6768894 now IPC :0.86980: AVG IPC :1.20968: L2-Pf-HR :0.91646: L2-HR :0.82596: (Sim:0h4m39s) 
CPU  2 inst:    9000000 cyc:    6779255 now IPC :0.85771: AVG IPC :1.20747: L2-Pf-HR :0.91181: L2-HR :0.82009: (Sim:0h4m40s) 
CPU  0 inst:   10000001 cyc:    7335911 now IPC :1.15058: AVG IPC :1.25898: L2-Pf-HR :0.90377: L2-HR :0.81478: (Sim:0h4m59s) 
CPU  1 inst:   10000004 cyc:    7910406 now IPC :0.85362: AVG IPC :1.15464: L2-Pf-HR :0.92917: L2-HR :0.83898: (Sim:0h5m18s) 
CPU  3 inst:   10000001 cyc:    8017317 now IPC :0.80101: AVG IPC :1.13716: L2-Pf-HR :0.92328: L2-HR :0.83041: (Sim:0h5m20s) 
CPU  2 inst:   10000004 cyc:    8027943 now IPC :0.80084: AVG IPC :1.13541: L2-Pf-HR :0.91979: L2-HR :0.82681: (Sim:0h5m21s) 
CPU  0 inst:   11000005 cyc:    8412200 now IPC :0.92912: AVG IPC :1.21120: L2-Pf-HR :0.90803: L2-HR :0.81776: (Sim:0h5m31s) 
CPU  1 inst:   11000005 cyc:    8826354 now IPC :1.09177: AVG IPC :1.14730: L2-Pf-HR :0.93360: L2-HR :0.84180: (Sim:0h5m43s) 
CPU  3 inst:   11000005 cyc:    9175073 now IPC :0.86374: AVG IPC :1.09852: L2-Pf-HR :0.92766: L2-HR :0.83337: (Sim:0h5m54s) 
CPU  2 inst:   11000005 cyc:    9217037 now IPC :0.84098: AVG IPC :1.09289: L2-Pf-HR :0.92513: L2-HR :0.83147: (Sim:0h5m56s) 
CPU  0 inst:   12000005 cyc:    9463690 now IPC :0.95103: AVG IPC :1.17894: L2-Pf-HR :0.90399: L2-HR :0.81670: (Sim:0h6m2s) 
CPU  1 inst:   12000005 cyc:    9793988 now IPC :1.03345: AVG IPC :1.13479: L2-Pf-HR :0.93045: L2-HR :0.84065: (Sim:0h6m14s) 
CPU  3 inst:   12000005 cyc:   10285971 now IPC :0.90017: AVG IPC :1.07484: L2-Pf-HR :0.92514: L2-HR :0.83312: (Sim:0h6m29s) 
CPU  2 inst:   12000005 cyc:   10355386 now IPC :0.87847: AVG IPC :1.06685: L2-Pf-HR :0.92335: L2-HR :0.83159: (Sim:0h6m30s) 
CPU  0 inst:   13000002 cyc:   10601019 now IPC :0.87925: AVG IPC :1.14351: L2-Pf-HR :0.90266: L2-HR :0.81497: (Sim:0h6m37s) 
CPU  1 inst:   13000002 cyc:   10984327 now IPC :0.84009: AVG IPC :1.09972: L2-Pf-HR :0.92855: L2-HR :0.83841: (Sim:0h6m47s) 
CPU  3 inst:   13000002 cyc:   11595495 now IPC :0.76363: AVG IPC :1.03644: L2-Pf-HR :0.92332: L2-HR :0.83107: (Sim:0h7m5s) 
CPU  2 inst:   13000002 cyc:   11682014 now IPC :0.75379: AVG IPC :1.02803: L2-Pf-HR :0.92229: L2-HR :0.83008: (Sim:0h7m7s) 
CPU  0 inst:   14000004 cyc:   11846061 now IPC :0.80319: AVG IPC :1.10450: L2-Pf-HR :0.90761: L2-HR :0.81859: (Sim:0h7m11s) 
CPU  1 inst:   14000005 cyc:   12091346 now IPC :0.90333: AVG IPC :1.08015: L2-Pf-HR :0.93155: L2-HR :0.84064: (Sim:0h7m18s) 
CPU  3 inst:   14000005 cyc:   12867612 now IPC :0.78609: AVG IPC :1.00965: L2-Pf-HR :0.92660: L2-HR :0.83318: (Sim:0h7m39s) 
CPU  0 inst:   15000001 cyc:   12882987 now IPC :0.96439: AVG IPC :1.09230: L2-Pf-HR :0.91083: L2-HR :0.82144: (Sim:0h7m39s) 
CPU  2 inst:   14000005 cyc:   12974476 now IPC :0.77372: AVG IPC :1.00063: L2-Pf-HR :0.92619: L2-HR :0.83283: (Sim:0h7m42s) 
CPU  1 inst:   15000001 cyc:   13332211 now IPC :0.80589: AVG IPC :1.05259: L2-Pf-HR :0.93357: L2-HR :0.84282: (Sim:0h7m52s) 
CPU  0 inst:   16000005 cyc:   13910938 now IPC :0.97281: AVG IPC :1.08280: L2-Pf-HR :0.90926: L2-HR :0.82137: (Sim:0h8m8s) 
CPU  3 inst:   15000001 cyc:   13917880 now IPC :0.95213: AVG IPC :1.00498: L2-Pf-HR :0.92883: L2-HR :0.83522: (Sim:0h8m9s) 
CPU  2 inst:   15000001 cyc:   14150732 now IPC :0.85015: AVG IPC :0.98719: L2-Pf-HR :0.92856: L2-HR :0.83506: (Sim:0h8m15s) 
CPU  1 inst:   16000005 cyc:   14481338 now IPC :0.87023: AVG IPC :1.03707: L2-Pf-HR :0.93136: L2-HR :0.84227: (Sim:0h8m24s) 
CPU  3 inst:   16000005 cyc:   14987260 now IPC :0.93513: AVG IPC :0.99964: L2-Pf-HR :0.92652: L2-HR :0.83455: (Sim:0h8m48s) 
CPU  0 inst:   17000000 cyc:   15119905 now IPC :0.82715: AVG IPC :1.06093: L2-Pf-HR :0.90785: L2-HR :0.81955: (Sim:0h8m54s) 
CPU  2 inst:   16000005 cyc:   15190282 now IPC :0.96196: AVG IPC :0.98534: L2-Pf-HR :0.92679: L2-HR :0.83497: (Sim:0h8m58s) 
CPU  1 inst:   17000000 cyc:   15619625 now IPC :0.87851: AVG IPC :1.02474: L2-Pf-HR :0.92925: L2-HR :0.83954: (Sim:0h9m20s) 
CPU  3 inst:   17000000 cyc:   16150071 now IPC :0.85998: AVG IPC :0.98894: L2-Pf-HR :0.92500: L2-HR :0.83228: (Sim:0h9m45s) 
CPU  0 inst:   18000001 cyc:   16187691 now IPC :0.93652: AVG IPC :1.05220: L2-Pf-HR :0.91200: L2-HR :0.82313: (Sim:0h9m47s) 
CPU  2 inst:   17000000 cyc:   16398837 now IPC :0.82743: AVG IPC :0.97296: L2-Pf-HR :0.92545: L2-HR :0.83302: (Sim:0h9m58s) 
CPU  1 inst:   18000001 cyc:   16760215 now IPC :0.87674: AVG IPC :1.01404: L2-Pf-HR :0.93157: L2-HR :0.84161: (Sim:0h10m16s) 
CPU  3 inst:   18000001 cyc:   17189741 now IPC :0.96184: AVG IPC :0.98720: L2-Pf-HR :0.92776: L2-HR :0.83492: (Sim:0h10m39s) 
CPU  0 inst:   19000002 cyc:   17215700 now IPC :0.97276: AVG IPC :1.04717: L2-Pf-HR :0.91473: L2-HR :0.82511: (Sim:0h10m40s) 
CPU  2 inst:   18000001 cyc:   17524531 now IPC :0.88834: AVG IPC :0.96720: L2-Pf-HR :0.92837: L2-HR :0.83585: (Sim:0h10m56s) 
CPU  1 inst:   19000002 cyc:   17940403 now IPC :0.84732: AVG IPC :1.00244: L2-Pf-HR :0.93321: L2-HR :0.84258: (Sim:0h11m16s) 
CPU  3 inst:   19000002 cyc:   18259345 now IPC :0.93493: AVG IPC :0.98396: L2-Pf-HR :0.92995: L2-HR :0.83656: (Sim:0h11m31s) 
CPU  0 inst:   20000002 cyc:   18335223 now IPC :0.89324: AVG IPC :1.03724: L2-Pf-HR :0.91424: L2-HR :0.82592: (Sim:0h11m34s) 
CPU  2 inst:   19000002 cyc:   18768076 now IPC :0.80415: AVG IPC :0.95580: L2-Pf-HR :0.93084: L2-HR :0.83756: (Sim:0h11m47s) 
CPU  1 inst:   20000002 cyc:   19112141 now IPC :0.85343: AVG IPC :0.99281: L2-Pf-HR :0.93223: L2-HR :0.84284: (Sim:0h12m4s) 
CPU  3 inst:   20000002 cyc:   19412487 now IPC :0.86720: AVG IPC :0.97666: L2-Pf-HR :0.92904: L2-HR :0.83702: (Sim:0h12m17s) 
CPU  0 inst:   21000002 cyc:   19608165 now IPC :0.78558: AVG IPC :1.02004: L2-Pf-HR :0.91165: L2-HR :0.82376: (Sim:0h12m27s) 
CPU  2 inst:   20000002 cyc:   19861510 now IPC :0.91455: AVG IPC :0.95341: L2-Pf-HR :0.93000: L2-HR :0.83811: (Sim:0h12m39s) 
CPU  1 inst:   21000005 cyc:   20443499 now IPC :0.75112: AVG IPC :0.97627: L2-Pf-HR :0.92978: L2-HR :0.84020: (Sim:0h13m5s) 
CPU  3 inst:   21000005 cyc:   20660405 now IPC :0.80134: AVG IPC :0.96554: L2-Pf-HR :0.92668: L2-HR :0.83473: (Sim:0h13m16s) 
CPU  0 inst:   22000005 cyc:   20877792 now IPC :0.78764: AVG IPC :1.00521: L2-Pf-HR :0.91411: L2-HR :0.82542: (Sim:0h13m26s) 
CPU  2 inst:   21000005 cyc:   21101476 now IPC :0.80648: AVG IPC :0.94436: L2-Pf-HR :0.92783: L2-HR :0.83580: (Sim:0h13m37s) 
CPU  1 inst:   22000005 cyc:   21572855 now IPC :0.88546: AVG IPC :0.97129: L2-Pf-HR :0.93186: L2-HR :0.84149: (Sim:0h14m2s) 
CPU  3 inst:   22000005 cyc:   21772253 now IPC :0.89940: AVG IPC :0.96200: L2-Pf-HR :0.92892: L2-HR :0.83633: (Sim:0h14m12s) 
CPU  0 inst:   23000001 cyc:   21988024 now IPC :0.90071: AVG IPC :0.99968: L2-Pf-HR :0.91591: L2-HR :0.82679: (Sim:0h14m23s) 
CPU  2 inst:   22000005 cyc:   22099740 now IPC :1.00174: AVG IPC :0.94707: L2-Pf-HR :0.93007: L2-HR :0.83749: (Sim:0h14m29s) 
CPU  1 inst:   23000001 cyc:   22588557 now IPC :0.98454: AVG IPC :0.97192: L2-Pf-HR :0.93308: L2-HR :0.84268: (Sim:0h14m55s) 
CPU  3 inst:   23000001 cyc:   22848205 now IPC :0.92941: AVG IPC :0.96040: L2-Pf-HR :0.93065: L2-HR :0.83795: (Sim:0h15m8s) 
CPU  0 inst:   24000004 cyc:   23033404 now IPC :0.95659: AVG IPC :0.99764: L2-Pf-HR :0.91561: L2-HR :0.82731: (Sim:0h15m19s) 
CPU  2 inst:   23000001 cyc:   23096660 now IPC :1.00309: AVG IPC :0.94959: L2-Pf-HR :0.93172: L2-HR :0.83901: (Sim:0h15m22s) 
CPU  1 inst:   24000004 cyc:   23629489 now IPC :0.96068: AVG IPC :0.97140: L2-Pf-HR :0.93264: L2-HR :0.84295: (Sim:0h15m49s) 
CPU  3 inst:   24000004 cyc:   23874475 now IPC :0.97441: AVG IPC :0.96103: L2-Pf-HR :0.93027: L2-HR :0.83841: (Sim:0h16m1s) 
CPU  2 inst:   24000004 cyc:   24222094 now IPC :0.88855: AVG IPC :0.94664: L2-Pf-HR :0.93148: L2-HR :0.83958: (Sim:0h16m16s) 
CPU  0 inst:   25000003 cyc:   24270952 now IPC :0.80805: AVG IPC :0.98757: L2-Pf-HR :0.91253: L2-HR :0.82455: (Sim:0h16m19s) 
CPU  1 inst:   25000003 cyc:   24977761 now IPC :0.74169: AVG IPC :0.95849: L2-Pf-HR :0.92971: L2-HR :0.84010: (Sim:0h16m51s) 
CPU  3 inst:   25000003 cyc:   25288196 now IPC :0.70735: AVG IPC :0.94627: L2-Pf-HR :0.92752: L2-HR :0.83597: (Sim:0h17m5s) 
CPU  0 inst:   26000005 cyc:   25499230 now IPC :0.81415: AVG IPC :0.97888: L2-Pf-HR :0.91469: L2-HR :0.82608: (Sim:0h17m16s) 
CPU  2 inst:   25000002 cyc:   25514563 now IPC :0.77371: AVG IPC :0.93753: L2-Pf-HR :0.92859: L2-HR :0.83714: (Sim:0h17m17s) 
CPU  1 inst:   26000005 cyc:   26009721 now IPC :0.96903: AVG IPC :0.95893: L2-Pf-HR :0.93147: L2-HR :0.84145: (Sim:0h17m44s) 
CPU  3 inst:   26000005 cyc:   26328726 now IPC :0.96105: AVG IPC :0.94688: L2-Pf-HR :0.92936: L2-HR :0.83733: (Sim:0h18m1s) 
CPU  2 inst:   26000005 cyc:   26474096 now IPC :1.04218: AVG IPC :0.94147: L2-Pf-HR :0.93035: L2-HR :0.83854: (Sim:0h18m9s) 
CPU  0 inst:   27000000 cyc:   26525442 now IPC :0.97445: AVG IPC :0.97870: L2-Pf-HR :0.91615: L2-HR :0.82713: (Sim:0h18m11s) 
CPU  1 inst:   27000000 cyc:   26966093 now IPC :1.04561: AVG IPC :0.96212: L2-Pf-HR :0.93265: L2-HR :0.84247: (Sim:0h18m35s) 
CPU  3 inst:   27000000 cyc:   27421019 now IPC :0.91550: AVG IPC :0.94558: L2-Pf-HR :0.93087: L2-HR :0.83857: (Sim:0h18m59s) 
CPU  2 inst:   27000000 cyc:   27522516 now IPC :0.95381: AVG IPC :0.94195: L2-Pf-HR :0.93179: L2-HR :0.83976: (Sim:0h19m4s) 
CPU  0 inst:   28000005 cyc:   27571623 now IPC :0.95586: AVG IPC :0.97780: L2-Pf-HR :0.91652: L2-HR :0.82785: (Sim:0h19m7s) 
CPU  1 inst:   28000001 cyc:   27983089 now IPC :0.98329: AVG IPC :0.96291: L2-Pf-HR :0.93281: L2-HR :0.84323: (Sim:0h19m27s) 
CPU  3 inst:   28000005 cyc:   28542174 now IPC :0.89194: AVG IPC :0.94340: L2-Pf-HR :0.93114: L2-HR :0.83929: (Sim:0h19m56s) 
CPU  2 inst:   28000001 cyc:   28624145 now IPC :0.90775: AVG IPC :0.94059: L2-Pf-HR :0.93229: L2-HR :0.84084: (Sim:0h20m0s) 
CPU  0 inst:   29000000 cyc:   28674801 now IPC :0.90647: AVG IPC :0.97496: L2-Pf-HR :0.91360: L2-HR :0.82556: (Sim:0h20m3s) 
CPU  1 inst:   29000000 cyc:   29162721 now IPC :0.84772: AVG IPC :0.95809: L2-Pf-HR :0.93000: L2-HR :0.84052: (Sim:0h20m27s) 
CPU  3 inst:   29000000 cyc:   29797011 now IPC :0.79691: AVG IPC :0.93702: L2-Pf-HR :0.92860: L2-HR :0.83678: (Sim:0h20m57s) 
CPU  2 inst:   29000000 cyc:   29817937 now IPC :0.83767: AVG IPC :0.93633: L2-Pf-HR :0.92986: L2-HR :0.83852: (Sim:0h20m58s) 
CPU  0 inst:   30000000 cyc:   29830825 now IPC :0.86503: AVG IPC :0.97055: L2-Pf-HR :0.91542: L2-HR :0.82697: (Sim:0h20m58s) 
CPU  1 inst:   30000000 cyc:   30273901 now IPC :0.89994: AVG IPC :0.95589: L2-Pf-HR :0.93138: L2-HR :0.84157: (Sim:0h21m21s) 
CPU  0 inst:   31000003 cyc:   30854279 now IPC :0.97709: AVG IPC :0.97078: L2-Pf-HR :0.91683: L2-HR :0.82786: (Sim:0h21m50s) 
CPU  3 inst:   30000000 cyc:   30959157 now IPC :0.86048: AVG IPC :0.93405: L2-Pf-HR :0.93006: L2-HR :0.83809: (Sim:0h21m56s) 
CPU  2 inst:   30000000 cyc:   30977963 now IPC :0.86205: AVG IPC :0.93346: L2-Pf-HR :0.93128: L2-HR :0.83971: (Sim:0h21m57s) 
CPU  1 inst:   31000003 cyc:   31414637 now IPC :0.87663: AVG IPC :0.95292: L2-Pf-HR :0.93247: L2-HR :0.84236: (Sim:0h22m18s) 
CPU  0 inst:   32000001 cyc:   31834129 now IPC :1.02056: AVG IPC :0.97236: L2-Pf-HR :0.91770: L2-HR :0.82885: (Sim:0h22m38s) 
CPU  3 inst:   31000003 cyc:   32250866 now IPC :0.77417: AVG IPC :0.92745: L2-Pf-HR :0.93127: L2-HR :0.83907: (Sim:0h22m57s) 
CPU  2 inst:   31000003 cyc:   32316002 now IPC :0.74736: AVG IPC :0.92551: L2-Pf-HR :0.93238: L2-HR :0.84056: (Sim:0h23m0s) 
CPU  1 inst:   32000001 cyc:   32705759 now IPC :0.77452: AVG IPC :0.94566: L2-Pf-HR :0.93272: L2-HR :0.84321: (Sim:0h23m18s) 
CPU  0 inst:   33000005 cyc:   33048133 now IPC :0.82372: AVG IPC :0.96673: L2-Pf-HR :0.91511: L2-HR :0.82678: (Sim:0h23m34s) 
CPU  3 inst:   32000001 cyc:   33457614 now IPC :0.82867: AVG IPC :0.92378: L2-Pf-HR :0.93176: L2-HR :0.84017: (Sim:0h23m55s) 
CPU  2 inst:   32000001 cyc:   33522005 now IPC :0.82918: AVG IPC :0.92194: L2-Pf-HR :0.93307: L2-HR :0.84169: (Sim:0h23m58s) 
CPU  1 inst:   33000003 cyc:   33873098 now IPC :0.85665: AVG IPC :0.94250: L2-Pf-HR :0.93009: L2-HR :0.84102: (Sim:0h24m16s) 
CPU  0 inst:   34000005 cyc:   34243001 now IPC :0.83691: AVG IPC :0.96207: L2-Pf-HR :0.91621: L2-HR :0.82739: (Sim:0h24m33s) 
CPU  3 inst:   33000002 cyc:   34580435 now IPC :0.89061: AVG IPC :0.92267: L2-Pf-HR :0.92937: L2-HR :0.83813: (Sim:0h24m49s) 
CPU  2 inst:   33000003 cyc:   34670476 now IPC :0.87072: AVG IPC :0.92019: L2-Pf-HR :0.93041: L2-HR :0.83943: (Sim:0h24m52s) 
CPU  1 inst:   34000005 cyc:   35193468 now IPC :0.75736: AVG IPC :0.93535: L2-Pf-HR :0.93096: L2-HR :0.84148: (Sim:0h25m18s) 
CPU  0 inst:   35000004 cyc:   35495469 now IPC :0.79842: AVG IPC :0.95613: L2-Pf-HR :0.91757: L2-HR :0.82847: (Sim:0h25m33s) 
CPU  3 inst:   34000005 cyc:   35737491 now IPC :0.86427: AVG IPC :0.92072: L2-Pf-HR :0.92981: L2-HR :0.83815: (Sim:0h25m45s) 
CPU  2 inst:   34000005 cyc:   35828098 now IPC :0.86384: AVG IPC :0.91832: L2-Pf-HR :0.93138: L2-HR :0.83991: (Sim:0h25m50s) 
CPU  1 inst:   35000004 cyc:   36309778 now IPC :0.89581: AVG IPC :0.93410: L2-Pf-HR :0.93199: L2-HR :0.84241: (Sim:0h26m15s) 
CPU  0 inst:   36000004 cyc:   36614138 now IPC :0.89392: AVG IPC :0.95418: L2-Pf-HR :0.91818: L2-HR :0.82899: (Sim:0h26m31s) 
CPU  3 inst:   35000004 cyc:   36770495 now IPC :0.96805: AVG IPC :0.92209: L2-Pf-HR :0.93049: L2-HR :0.83870: (Sim:0h26m39s) 
CPU  2 inst:   35000004 cyc:   36879336 now IPC :0.95126: AVG IPC :0.91929: L2-Pf-HR :0.93244: L2-HR :0.84081: (Sim:0h26m45s) 
CPU  1 inst:   36000004 cyc:   37339279 now IPC :0.97134: AVG IPC :0.93516: L2-Pf-HR :0.93236: L2-HR :0.84282: (Sim:0h27m9s) 
CPU  0 inst:   37000000 cyc:   37662219 now IPC :0.95412: AVG IPC :0.95418: L2-Pf-HR :0.91671: L2-HR :0.82803: (Sim:0h27m26s) 
CPU  3 inst:   36000004 cyc:   37833710 now IPC :0.94054: AVG IPC :0.92262: L2-Pf-HR :0.93062: L2-HR :0.83879: (Sim:0h27m33s) 
CPU  2 inst:   36000004 cyc:   37994790 now IPC :0.89650: AVG IPC :0.91860: L2-Pf-HR :0.93306: L2-HR :0.84130: (Sim:0h27m39s) 
CPU  1 inst:   37000000 cyc:   38430519 now IPC :0.91639: AVG IPC :0.93461: L2-Pf-HR :0.93085: L2-HR :0.84182: (Sim:0h28m3s) 
CPU  3 inst:   37000000 cyc:   38908187 now IPC :0.93068: AVG IPC :0.92285: L2-Pf-HR :0.92886: L2-HR :0.83759: (Sim:0h28m26s) 
CPU  0 inst:   38000003 cyc:   38933325 now IPC :0.78672: AVG IPC :0.94857: L2-Pf-HR :0.91721: L2-HR :0.82820: (Sim:0h28m27s) 
CPU  2 inst:   37000000 cyc:   39086813 now IPC :0.91573: AVG IPC :0.91852: L2-Pf-HR :0.93216: L2-HR :0.84078: (Sim:0h28m34s) 
CPU  1 inst:   38000003 cyc:   39726699 now IPC :0.77150: AVG IPC :0.92915: L2-Pf-HR :0.93094: L2-HR :0.84176: (Sim:0h29m5s) 
CPU  3 inst:   38000003 cyc:   40053627 now IPC :0.87303: AVG IPC :0.92139: L2-Pf-HR :0.92922: L2-HR :0.83758: (Sim:0h29m22s) 
CPU  0 inst:   39000001 cyc:   40096476 now IPC :0.85973: AVG IPC :0.94592: L2-Pf-HR :0.91825: L2-HR :0.82888: (Sim:0h29m24s) 
CPU  2 inst:   38000003 cyc:   40190733 now IPC :0.90587: AVG IPC :0.91816: L2-Pf-HR :0.93235: L2-HR :0.84074: (Sim:0h29m30s) 
CPU  1 inst:   39000001 cyc:   40752000 now IPC :0.97532: AVG IPC :0.93034: L2-Pf-HR :0.93180: L2-HR :0.84236: (Sim:0h29m59s) 
CPU  3 inst:   39000001 cyc:   41050104 now IPC :1.00353: AVG IPC :0.92343: L2-Pf-HR :0.93030: L2-HR :0.83834: (Sim:0h30m15s) 
CPU  0 inst:   40000000 cyc:   41128402 now IPC :0.96906: AVG IPC :0.94652: L2-Pf-HR :0.91900: L2-HR :0.82956: (Sim:0h30m19s) 
CPU  2 inst:   39000001 cyc:   41176014 now IPC :1.01494: AVG IPC :0.92053: L2-Pf-HR :0.93329: L2-HR :0.84141: (Sim:0h30m22s) 
CPU  1 inst:   40000000 cyc:   41739188 now IPC :1.01298: AVG IPC :0.93234: L2-Pf-HR :0.93239: L2-HR :0.84299: (Sim:0h30m52s) 
CPU  3 inst:   40000000 cyc:   42066511 now IPC :0.98386: AVG IPC :0.92493: L2-Pf-HR :0.93106: L2-HR :0.83916: (Sim:0h31m7s) 
CPU  0 inst:   41000003 cyc:   42168529 now IPC :0.96142: AVG IPC :0.94690: L2-Pf-HR :0.91766: L2-HR :0.82880: (Sim:0h31m12s) 
CPU  2 inst:   40000000 cyc:   42222717 now IPC :0.95538: AVG IPC :0.92142: L2-Pf-HR :0.93421: L2-HR :0.84229: (Sim:0h31m15s) 
CPU  1 inst:   41000003 cyc:   42835873 now IPC :0.91184: AVG IPC :0.93181: L2-Pf-HR :0.93072: L2-HR :0.84206: (Sim:0h31m41s) 
CPU  3 inst:   41000003 cyc:   43186707 now IPC :0.89270: AVG IPC :0.92407: L2-Pf-HR :0.92981: L2-HR :0.83841: (Sim:0h31m58s) 
CPU  2 inst:   41000003 cyc:   43302648 now IPC :0.92599: AVG IPC :0.92154: L2-Pf-HR :0.93271: L2-HR :0.84143: (Sim:0h32m3s) 
CPU  0 inst:   42000001 cyc:   43427303 now IPC :0.79442: AVG IPC :0.94237: L2-Pf-HR :0.91764: L2-HR :0.82857: (Sim:0h32m10s) 
CPU  1 inst:   42000001 cyc:   44044060 now IPC :0.82768: AVG IPC :0.92889: L2-Pf-HR :0.93068: L2-HR :0.84172: (Sim:0h32m32s) 
CPU  3 inst:   42000001 cyc:   44482598 now IPC :0.77167: AVG IPC :0.91953: L2-Pf-HR :0.92980: L2-HR :0.83809: (Sim:0h32m47s) 
CPU  2 inst:   42000001 cyc:   44566638 now IPC :0.79114: AVG IPC :0.91775: L2-Pf-HR :0.93273: L2-HR :0.84110: (Sim:0h32m50s) 
CPU  0 inst:   43000000 cyc:   44626931 now IPC :0.83359: AVG IPC :0.93938: L2-Pf-HR :0.91857: L2-HR :0.82928: (Sim:0h32m52s) 
CPU  1 inst:   43000000 cyc:   45043108 now IPC :1.00095: AVG IPC :0.93052: L2-Pf-HR :0.93158: L2-HR :0.84242: (Sim:0h33m8s) 
CPU  3 inst:   43000000 cyc:   45676439 now IPC :0.83763: AVG IPC :0.91735: L2-Pf-HR :0.93049: L2-HR :0.83871: (Sim:0h33m40s) 
CPU  2 inst:   43000000 cyc:   45752776 now IPC :0.84307: AVG IPC :0.91577: L2-Pf-HR :0.93360: L2-HR :0.84182: (Sim:0h33m43s) 
CPU  0 inst:   44000004 cyc:   45754979 now IPC :0.88649: AVG IPC :0.93805: L2-Pf-HR :0.91930: L2-HR :0.82982: (Sim:0h33m44s) 
CPU  1 inst:   44000004 cyc:   46161581 now IPC :0.89408: AVG IPC :0.92962: L2-Pf-HR :0.93238: L2-HR :0.84302: (Sim:0h34m4s) 
CPU  0 inst:   45000000 cyc:   46853601 now IPC :0.91023: AVG IPC :0.93739: L2-Pf-HR :0.91812: L2-HR :0.82922: (Sim:0h34m38s) 
CPU  3 inst:   44000004 cyc:   46860253 now IPC :0.84473: AVG IPC :0.91547: L2-Pf-HR :0.93100: L2-HR :0.83909: (Sim:0h34m38s) 
CPU  2 inst:   44000004 cyc:   46976239 now IPC :0.81736: AVG IPC :0.91316: L2-Pf-HR :0.93422: L2-HR :0.84228: (Sim:0h34m44s) 
CPU  1 inst:   45000000 cyc:   47266434 now IPC :0.90509: AVG IPC :0.92903: L2-Pf-HR :0.93117: L2-HR :0.84240: (Sim:0h34m58s) 
CPU  3 inst:   45000000 cyc:   47941499 now IPC :0.92486: AVG IPC :0.91569: L2-Pf-HR :0.92973: L2-HR :0.83843: (Sim:0h35m34s) 
CPU  0 inst:   46000000 cyc:   48017746 now IPC :0.85900: AVG IPC :0.93544: L2-Pf-HR :0.91806: L2-HR :0.82902: (Sim:0h35m38s) 
CPU  2 inst:   45000000 cyc:   48056653 now IPC :0.92557: AVG IPC :0.91344: L2-Pf-HR :0.93322: L2-HR :0.84182: (Sim:0h35m40s) 
CPU  1 inst:   46000000 cyc:   48424111 now IPC :0.86380: AVG IPC :0.92744: L2-Pf-HR :0.93097: L2-HR :0.84193: (Sim:0h35m58s) 
CPU  0 inst:   47000000 cyc:   49089049 now IPC :0.93344: AVG IPC :0.93540: L2-Pf-HR :0.91896: L2-HR :0.82972: (Sim:0h36m29s) 
CPU  3 inst:   46000002 cyc:   49112996 now IPC :0.85361: AVG IPC :0.91418: L2-Pf-HR :0.92937: L2-HR :0.83799: (Sim:0h36m30s) 
CPU  2 inst:   46000000 cyc:   49300031 now IPC :0.80426: AVG IPC :0.91063: L2-Pf-HR :0.93307: L2-HR :0.84146: (Sim:0h36m39s) 
CPU  1 inst:   47000000 cyc:   49564229 now IPC :0.87710: AVG IPC :0.92626: L2-Pf-HR :0.93168: L2-HR :0.84251: (Sim:0h36m48s) 
CPU  0 inst:   48000002 cyc:   50092806 now IPC :0.99626: AVG IPC :0.93664: L2-Pf-HR :0.91966: L2-HR :0.83024: (Sim:0h37m9s) 
CPU  3 inst:   47000000 cyc:   50120621 now IPC :0.99243: AVG IPC :0.91578: L2-Pf-HR :0.93029: L2-HR :0.83879: (Sim:0h37m10s) 
CPU  2 inst:   47000000 cyc:   50408595 now IPC :0.90207: AVG IPC :0.91044: L2-Pf-HR :0.93392: L2-HR :0.84218: (Sim:0h37m21s) 
CPU  1 inst:   48000002 cyc:   50707375 now IPC :0.87478: AVG IPC :0.92508: L2-Pf-HR :0.93227: L2-HR :0.84294: (Sim:0h37m36s) 
CPU  3 inst:   48000002 cyc:   51178148 now IPC :0.94560: AVG IPC :0.91641: L2-Pf-HR :0.93096: L2-HR :0.83932: (Sim:0h38m1s) 
CPU  0 inst:   49000000 cyc:   51186587 now IPC :0.91426: AVG IPC :0.93616: L2-Pf-HR :0.91867: L2-HR :0.82981: (Sim:0h38m1s) 
CPU  2 inst:   48000002 cyc:   51565683 now IPC :0.86424: AVG IPC :0.90938: L2-Pf-HR :0.93463: L2-HR :0.84276: (Sim:0h38m22s) 
CPU  1 inst:   49000000 cyc:   51801117 now IPC :0.91429: AVG IPC :0.92484: L2-Pf-HR :0.93132: L2-HR :0.84250: (Sim:0h38m31s) 
CPU  3 inst:   49000000 cyc:   52304649 now IPC :0.88770: AVG IPC :0.91578: L2-Pf-HR :0.93000: L2-HR :0.83890: (Sim:0h38m52s) 
CPU  2 inst:   49000000 cyc:   52979798 now IPC :0.70715: AVG IPC :0.90388: L2-Pf-HR :0.93405: L2-HR :0.84261: (Sim:0h39m12s) 
CPU  0 inst:   50000000 cyc:   59498308 now IPC :0.12031: AVG IPC :0.82027: L2-Pf-HR :0.89747: L2-HR :0.80654: (Sim:0h42m15s) 
CPU  1 inst:   50000004 cyc:   62566702 now IPC :0.09289: AVG IPC :0.77941: L2-Pf-HR :0.91036: L2-HR :0.81841: (Sim:0h43m57s) 
CPU  3 inst:   50000004 cyc:   64914219 now IPC :0.07931: AVG IPC :0.75080: L2-Pf-HR :0.90901: L2-HR :0.81491: (Sim:0h45m21s) 
CPU  2 inst:   50000001 cyc:   67084709 now IPC :0.07090: AVG IPC :0.72614: L2-Pf-HR :0.91362: L2-HR :0.81848: (Sim:0h46m37s) 
CPU  0 inst:   51000003 cyc:   81210410 now IPC :0.04606: AVG IPC :0.61075: L2-Pf-HR :0.86329: L2-HR :0.77382: (Sim:0h54m48s) 
CPU  1 inst:   51000003 cyc:   84304909 now IPC :0.04600: AVG IPC :0.58807: L2-Pf-HR :0.87538: L2-HR :0.78450: (Sim:0h56m43s) 
CPU  3 inst:   51000000 cyc:   86685652 now IPC :0.04593: AVG IPC :0.57174: L2-Pf-HR :0.87422: L2-HR :0.78121: (Sim:0h58m16s) 
CPU  2 inst:   51000000 cyc:   88533294 now IPC :0.04662: AVG IPC :0.55967: L2-Pf-HR :0.87867: L2-HR :0.78448: (Sim:0h59m23s) 
CPU  0 inst:   52000000 cyc:   91577719 now IPC :0.09646: AVG IPC :0.55189: L2-Pf-HR :0.84993: L2-HR :0.76314: (Sim:1h1m8s) 
CPU  1 inst:   52000000 cyc:   93207548 now IPC :0.11233: AVG IPC :0.54215: L2-Pf-HR :0.86171: L2-HR :0.77351: (Sim:1h2m10s) 
CPU  3 inst:   52000000 cyc:   94207512 now IPC :0.13295: AVG IPC :0.53634: L2-Pf-HR :0.86023: L2-HR :0.77031: (Sim:1h2m48s) 
CPU  2 inst:   52000000 cyc:   94888396 now IPC :0.15735: AVG IPC :0.53244: L2-Pf-HR :0.86474: L2-HR :0.77351: (Sim:1h3m17s) 
CPU  0 inst:   53000000 cyc:   95636259 now IPC :0.24639: AVG IPC :0.53880: L2-Pf-HR :0.84307: L2-HR :0.75844: (Sim:1h3m48s) 
CPU  1 inst:   53000000 cyc:   97142037 now IPC :0.25416: AVG IPC :0.53036: L2-Pf-HR :0.85492: L2-HR :0.76870: (Sim:1h4m50s) 
CPU  3 inst:   53000000 cyc:   98131955 now IPC :0.25481: AVG IPC :0.52496: L2-Pf-HR :0.85340: L2-HR :0.76550: (Sim:1h5m30s) 
CPU  2 inst:   53000000 cyc:   98799470 now IPC :0.25568: AVG IPC :0.52138: L2-Pf-HR :0.85780: L2-HR :0.76870: (Sim:1h5m56s) 
CPU  0 inst:   54000000 cyc:   99533949 now IPC :0.25656: AVG IPC :0.52763: L2-Pf-HR :0.83645: L2-HR :0.75386: (Sim:1h6m28s) 
CPU  1 inst:   54000000 cyc:  101032974 now IPC :0.25701: AVG IPC :0.51973: L2-Pf-HR :0.84830: L2-HR :0.76402: (Sim:1h7m26s) 
CPU  3 inst:   54000000 cyc:  101985827 now IPC :0.25948: AVG IPC :0.51483: L2-Pf-HR :0.84694: L2-HR :0.76082: (Sim:1h8m5s) 
CPU  2 inst:   54000000 cyc:  102630850 now IPC :0.26100: AVG IPC :0.51156: L2-Pf-HR :0.85106: L2-HR :0.76401: (Sim:1h8m29s) 
CPU  0 inst:   55000001 cyc:  103353913 now IPC :0.26178: AVG IPC :0.51771: L2-Pf-HR :0.83003: L2-HR :0.74943: (Sim:1h8m59s) 
CPU  1 inst:   55000001 cyc:  104804115 now IPC :0.26517: AVG IPC :0.51048: L2-Pf-HR :0.84191: L2-HR :0.75946: (Sim:1h10m2s) 
CPU  3 inst:   55000001 cyc:  105740385 now IPC :0.26634: AVG IPC :0.50593: L2-Pf-HR :0.84073: L2-HR :0.75628: (Sim:1h10m43s) 
CPU  2 inst:   55000001 cyc:  106379591 now IPC :0.26676: AVG IPC :0.50286: L2-Pf-HR :0.84456: L2-HR :0.75946: (Sim:1h11m10s) 
CPU  0 inst:   56000000 cyc:  107086452 now IPC :0.26791: AVG IPC :0.50893: L2-Pf-HR :0.82388: L2-HR :0.74511: (Sim:1h11m39s) 
CPU  1 inst:   56000000 cyc:  108519026 now IPC :0.26919: AVG IPC :0.50215: L2-Pf-HR :0.83573: L2-HR :0.75505: (Sim:1h12m38s) 
Caught signal: 2
     > Finished combination: TraceType=770-tot Sim:120000000 Prefetcher=L2berti_concurso L1=berti_concurso
