TRACE: [42000000]_FE_[OPT-350M]_[h16]_[s256]_[d64] Warmup: 2000000 NumTraces: 42000000
L1:no:L2:no
*************************************************
   ChampSim Multicore Out-of-Order Simulator
   Last compiled: Oct 29 2024 15:21:42
*************************************************

trace_0 770-tot_memTraces_v3_rexz/memTraces[42000000]_FE_[OPT-350M]_[h16]_[s256]_[d64].champsim.9.xz
trace_1 770-tot_memTraces_v3_rexz/memTraces[42000000]_FE_[OPT-350M]_[h16]_[s256]_[d64].champsim.9.xz
trace_2 770-tot_memTraces_v3_rexz/memTraces[42000000]_FE_[OPT-350M]_[h16]_[s256]_[d64].champsim.9.xz
trace_3 770-tot_memTraces_v3_rexz/memTraces[42000000]_FE_[OPT-350M]_[h16]_[s256]_[d64].champsim.9.xz
MAIN.cc ln 751 stats print skipped
CPU  0 inst:    1000002 cyc:     500844 now IPC :1.99663: AVG IPC :1.99663: L2-Pf-HR :-nan: L2-HR :0.66178: (Sim:0h0m26s) 
CPU  1 inst:    1000002 cyc:     500922 now IPC :1.99632: AVG IPC :1.99632: L2-Pf-HR :-nan: L2-HR :0.66178: (Sim:0h0m26s) 
CPU  2 inst:    1000002 cyc:     500932 now IPC :1.99628: AVG IPC :1.99628: L2-Pf-HR :-nan: L2-HR :0.66178: (Sim:0h0m26s) 
CPU  3 inst:    1000002 cyc:     501162 now IPC :1.99537: AVG IPC :1.99537: L2-Pf-HR :-nan: L2-HR :0.66181: (Sim:0h0m26s) 
CPU  0 inst:    2000000 cyc:     988945 now IPC :2.04875: AVG IPC :2.02236: L2-Pf-HR :-nan: L2-HR :0.72140: (Sim:0h0m54s) 
CPU  1 inst:    2000000 cyc:     988953 now IPC :2.04905: AVG IPC :2.02234: L2-Pf-HR :-nan: L2-HR :0.72174: (Sim:0h0m54s) 
CPU  2 inst:    2000000 cyc:     988966 now IPC :2.04903: AVG IPC :2.02231: L2-Pf-HR :-nan: L2-HR :0.72167: (Sim:0h0m54s) 
CPU  3 inst:    2000000 cyc:     989154 now IPC :2.04921: AVG IPC :2.02193: L2-Pf-HR :-nan: L2-HR :0.72139: (Sim:0h0m54s) 

Warmup complete CPU  0 instructions:    2000363 cycles:     989155 (Simulation time: 0 hr 0 min 54 sec) 
Warmup complete CPU  1 instructions:    2000346 cycles:     989155 (Simulation time: 0 hr 0 min 54 sec) 
Warmup complete CPU  2 instructions:    2000312 cycles:     989155 (Simulation time: 0 hr 0 min 54 sec) 
Warmup complete CPU  3 instructions:    2000002 cycles:     989155 (Simulation time: 0 hr 0 min 54 sec) 

CPU  2 inst:    3000002 cyc:    1789892 now IPC :1.24856: AVG IPC :1.24846: L2-Pf-HR :-nan: L2-HR :0.78743: (Sim:0h1m21s) 
CPU  3 inst:    3000003 cyc:    1792551 now IPC :1.24472: AVG IPC :1.24472: L2-Pf-HR :-nan: L2-HR :0.78744: (Sim:0h1m21s) 
CPU  0 inst:    3000003 cyc:    1793259 now IPC :1.24330: AVG IPC :1.24317: L2-Pf-HR :-nan: L2-HR :0.78743: (Sim:0h1m21s) 
CPU  1 inst:    3000003 cyc:    1793667 now IPC :1.24268: AVG IPC :1.24256: L2-Pf-HR :-nan: L2-HR :0.78739: (Sim:0h1m21s) 
CPU  2 inst:    4000003 cyc:    2586334 now IPC :1.25559: AVG IPC :1.25201: L2-Pf-HR :-nan: L2-HR :0.78657: (Sim:0h1m48s) 
CPU  1 inst:    4000003 cyc:    2589993 now IPC :1.25577: AVG IPC :1.24913: L2-Pf-HR :-nan: L2-HR :0.78655: (Sim:0h1m48s) 
CPU  0 inst:    4000003 cyc:    2590197 now IPC :1.25480: AVG IPC :1.24896: L2-Pf-HR :-nan: L2-HR :0.78657: (Sim:0h1m48s) 
CPU  3 inst:    4000003 cyc:    2593548 now IPC :1.24844: AVG IPC :1.24658: L2-Pf-HR :-nan: L2-HR :0.78658: (Sim:0h1m49s) 
CPU  2 inst:    5000005 cyc:    3368260 now IPC :1.27890: AVG IPC :1.26085: L2-Pf-HR :-nan: L2-HR :0.78626: (Sim:0h2m15s) 
CPU  0 inst:    5000005 cyc:    3371543 now IPC :1.27985: AVG IPC :1.25909: L2-Pf-HR :-nan: L2-HR :0.78626: (Sim:0h2m15s) 
CPU  1 inst:    5000005 cyc:    3375649 now IPC :1.27282: AVG IPC :1.25693: L2-Pf-HR :-nan: L2-HR :0.78625: (Sim:0h2m15s) 
CPU  3 inst:    5000005 cyc:    3375853 now IPC :1.27828: AVG IPC :1.25697: L2-Pf-HR :-nan: L2-HR :0.78626: (Sim:0h2m15s) 
CPU  2 inst:    6000000 cyc:    4175151 now IPC :1.23932: AVG IPC :1.25540: L2-Pf-HR :-nan: L2-HR :0.78661: (Sim:0h2m42s) 
CPU  0 inst:    6000000 cyc:    4178814 now IPC :1.23874: AVG IPC :1.25394: L2-Pf-HR :-nan: L2-HR :0.78661: (Sim:0h2m42s) 
CPU  3 inst:    6000000 cyc:    4179322 now IPC :1.24460: AVG IPC :1.25385: L2-Pf-HR :-nan: L2-HR :0.78287: (Sim:0h2m42s) 
CPU  1 inst:    6000000 cyc:    4182593 now IPC :1.23924: AVG IPC :1.25246: L2-Pf-HR :-nan: L2-HR :0.78660: (Sim:0h2m42s) 
CPU  2 inst:    7000002 cyc:    5013336 now IPC :1.19306: AVG IPC :1.24241: L2-Pf-HR :-nan: L2-HR :0.78695: (Sim:0h3m9s) 
CPU  3 inst:    7000002 cyc:    5018466 now IPC :1.19169: AVG IPC :1.24091: L2-Pf-HR :-nan: L2-HR :0.78189: (Sim:0h3m9s) 
CPU  0 inst:    7000002 cyc:    5020257 now IPC :1.18844: AVG IPC :1.24027: L2-Pf-HR :-nan: L2-HR :0.78695: (Sim:0h3m9s) 
CPU  1 inst:    7000002 cyc:    5020765 now IPC :1.19307: AVG IPC :1.24011: L2-Pf-HR :-nan: L2-HR :0.78694: (Sim:0h3m9s) 
CPU  2 inst:    8000003 cyc:    6047607 now IPC :0.96687: AVG IPC :1.18607: L2-Pf-HR :-nan: L2-HR :0.78614: (Sim:0h3m38s) 
CPU  1 inst:    8000003 cyc:    6061662 now IPC :0.96071: AVG IPC :1.18278: L2-Pf-HR :-nan: L2-HR :0.78614: (Sim:0h3m38s) 
CPU  0 inst:    8000003 cyc:    6085036 now IPC :0.93916: AVG IPC :1.17735: L2-Pf-HR :-nan: L2-HR :0.78614: (Sim:0h3m39s) 
CPU  3 inst:    8000003 cyc:    6085948 now IPC :0.93678: AVG IPC :1.17721: L2-Pf-HR :-nan: L2-HR :0.78189: (Sim:0h3m39s) 
CPU  2 inst:    9000005 cyc:    7029920 now IPC :1.01801: AVG IPC :1.15874: L2-Pf-HR :-nan: L2-HR :0.78648: (Sim:0h4m5s) 
CPU  1 inst:    9000005 cyc:    7157316 now IPC :0.91270: AVG IPC :1.13480: L2-Pf-HR :-nan: L2-HR :0.78647: (Sim:0h4m8s) 
CPU  0 inst:    9000005 cyc:    7179450 now IPC :0.91373: AVG IPC :1.13074: L2-Pf-HR :-nan: L2-HR :0.78648: (Sim:0h4m9s) 
CPU  3 inst:    9000005 cyc:    7179654 now IPC :0.91432: AVG IPC :1.13077: L2-Pf-HR :-nan: L2-HR :0.78283: (Sim:0h4m9s) 
CPU  2 inst:   10000005 cyc:    8030776 now IPC :0.99914: AVG IPC :1.13606: L2-Pf-HR :-nan: L2-HR :0.78660: (Sim:0h4m31s) 
CPU  1 inst:   10000005 cyc:    8320683 now IPC :0.85957: AVG IPC :1.09113: L2-Pf-HR :-nan: L2-HR :0.78660: (Sim:0h4m40s) 
CPU  0 inst:   10000004 cyc:    8346212 now IPC :0.85707: AVG IPC :1.08734: L2-Pf-HR :-nan: L2-HR :0.78660: (Sim:0h4m40s) 
CPU  3 inst:   10000005 cyc:    8348415 now IPC :0.85561: AVG IPC :1.08707: L2-Pf-HR :-nan: L2-HR :0.78341: (Sim:0h4m41s) 
CPU  2 inst:   11000005 cyc:    8963477 now IPC :1.07215: AVG IPC :1.12858: L2-Pf-HR :-nan: L2-HR :0.78650: (Sim:0h5m0s) 
CPU  1 inst:   11000005 cyc:    9411542 now IPC :0.91671: AVG IPC :1.06854: L2-Pf-HR :-nan: L2-HR :0.78650: (Sim:0h5m11s) 
CPU  0 inst:   11000005 cyc:    9493499 now IPC :0.87162: AVG IPC :1.05824: L2-Pf-HR :-nan: L2-HR :0.78650: (Sim:0h5m13s) 
CPU  3 inst:   11000005 cyc:    9501250 now IPC :0.86743: AVG IPC :1.05732: L2-Pf-HR :-nan: L2-HR :0.78366: (Sim:0h5m13s) 
CPU  2 inst:   12000001 cyc:   10087339 now IPC :0.88979: AVG IPC :1.09909: L2-Pf-HR :-nan: L2-HR :0.78642: (Sim:0h5m30s) 
CPU  1 inst:   12000001 cyc:   10459594 now IPC :0.95415: AVG IPC :1.05588: L2-Pf-HR :-nan: L2-HR :0.78641: (Sim:0h5m39s) 
CPU  0 inst:   12000001 cyc:   10655676 now IPC :0.86045: AVG IPC :1.03446: L2-Pf-HR :-nan: L2-HR :0.78642: (Sim:0h5m44s) 
CPU  3 inst:   12000001 cyc:   10658460 now IPC :0.86414: AVG IPC :1.03420: L2-Pf-HR :-nan: L2-HR :0.78386: (Sim:0h5m44s) 
CPU  2 inst:   13000002 cyc:   11337547 now IPC :0.79987: AVG IPC :1.06294: L2-Pf-HR :-nan: L2-HR :0.78653: (Sim:0h6m2s) 
CPU  1 inst:   13000002 cyc:   11522327 now IPC :0.94097: AVG IPC :1.04429: L2-Pf-HR :-nan: L2-HR :0.78652: (Sim:0h6m7s) 
CPU  0 inst:   13000002 cyc:   11998319 now IPC :0.74480: AVG IPC :0.99913: L2-Pf-HR :-nan: L2-HR :0.78653: (Sim:0h6m18s) 
CPU  3 inst:   13000002 cyc:   12003248 now IPC :0.74361: AVG IPC :0.99872: L2-Pf-HR :-nan: L2-HR :0.78420: (Sim:0h6m18s) 
CPU  2 inst:   14000004 cyc:   12714666 now IPC :0.72616: AVG IPC :1.02338: L2-Pf-HR :-nan: L2-HR :0.78668: (Sim:0h6m35s) 
CPU  1 inst:   14000004 cyc:   12785016 now IPC :0.79196: AVG IPC :1.01728: L2-Pf-HR :-nan: L2-HR :0.78668: (Sim:0h6m38s) 
CPU  0 inst:   14000004 cyc:   13494832 now IPC :0.66822: AVG IPC :0.95954: L2-Pf-HR :-nan: L2-HR :0.78668: (Sim:0h6m57s) 
CPU  3 inst:   14000004 cyc:   13523611 now IPC :0.65774: AVG IPC :0.95736: L2-Pf-HR :-nan: L2-HR :0.78455: (Sim:0h6m58s) 
CPU  2 inst:   15000000 cyc:   14179371 now IPC :0.68273: AVG IPC :0.98556: L2-Pf-HR :-nan: L2-HR :0.78633: (Sim:0h7m13s) 
CPU  1 inst:   15000000 cyc:   14240512 now IPC :0.68705: AVG IPC :0.98101: L2-Pf-HR :-nan: L2-HR :0.78632: (Sim:0h7m14s) 
CPU  0 inst:   15000000 cyc:   14925953 now IPC :0.69875: AVG IPC :0.93276: L2-Pf-HR :-nan: L2-HR :0.78633: (Sim:0h7m30s) 
CPU  3 inst:   15000000 cyc:   14974208 now IPC :0.68937: AVG IPC :0.92956: L2-Pf-HR :-nan: L2-HR :0.78436: (Sim:0h7m31s) 
CPU  2 inst:   16000001 cyc:   15501310 now IPC :0.75647: AVG IPC :0.96469: L2-Pf-HR :-nan: L2-HR :0.78648: (Sim:0h7m44s) 
CPU  1 inst:   16000001 cyc:   15584584 now IPC :0.74401: AVG IPC :0.95918: L2-Pf-HR :-nan: L2-HR :0.78648: (Sim:0h7m46s) 
CPU  0 inst:   16000001 cyc:   16200480 now IPC :0.78461: AVG IPC :0.92034: L2-Pf-HR :-nan: L2-HR :0.78648: (Sim:0h8m1s) 
CPU  3 inst:   16000001 cyc:   16297431 now IPC :0.75573: AVG IPC :0.91454: L2-Pf-HR :-nan: L2-HR :0.78466: (Sim:0h8m3s) 
CPU  2 inst:   17000003 cyc:   16940034 now IPC :0.69506: AVG IPC :0.94037: L2-Pf-HR :-nan: L2-HR :0.78505: (Sim:0h8m17s) 
CPU  1 inst:   17000003 cyc:   17040259 now IPC :0.68697: AVG IPC :0.93449: L2-Pf-HR :-nan: L2-HR :0.78505: (Sim:0h8m19s) 
CPU  0 inst:   17000002 cyc:   18048130 now IPC :0.54123: AVG IPC :0.87928: L2-Pf-HR :-nan: L2-HR :0.78505: (Sim:0h8m30s) 
CPU  3 inst:   17000002 cyc:   18194425 now IPC :0.52715: AVG IPC :0.87183: L2-Pf-HR :-nan: L2-HR :0.78334: (Sim:0h8m31s) 
CPU  2 inst:   18000001 cyc:   29808414 now IPC :0.07771: AVG IPC :0.55517: L2-Pf-HR :-nan: L2-HR :0.70775: (Sim:0h10m59s) 
CPU  1 inst:   18000001 cyc:   29993516 now IPC :0.07720: AVG IPC :0.55163: L2-Pf-HR :-nan: L2-HR :0.70775: (Sim:0h11m2s) 
CPU  0 inst:   18000001 cyc:   30597292 now IPC :0.07969: AVG IPC :0.54038: L2-Pf-HR :-nan: L2-HR :0.70776: (Sim:0h11m9s) 
CPU  3 inst:   18000001 cyc:   30632803 now IPC :0.08040: AVG IPC :0.53974: L2-Pf-HR :-nan: L2-HR :0.70648: (Sim:0h11m10s) 
CPU  2 inst:   19000000 cyc:   35572899 now IPC :0.17348: AVG IPC :0.49155: L2-Pf-HR :-nan: L2-HR :0.69216: (Sim:0h12m13s) 
CPU  1 inst:   19000000 cyc:   35764264 now IPC :0.17329: AVG IPC :0.48885: L2-Pf-HR :-nan: L2-HR :0.69216: (Sim:0h12m15s) 
CPU  3 inst:   19000000 cyc:   36329385 now IPC :0.17554: AVG IPC :0.48104: L2-Pf-HR :-nan: L2-HR :0.69094: (Sim:0h12m23s) 
CPU  0 inst:   19000000 cyc:   36345704 now IPC :0.17396: AVG IPC :0.48081: L2-Pf-HR :-nan: L2-HR :0.69216: (Sim:0h12m23s) 
CPU  2 inst:   20000000 cyc:   41341999 now IPC :0.17334: AVG IPC :0.44606: L2-Pf-HR :-nan: L2-HR :0.67781: (Sim:0h13m28s) 
CPU  1 inst:   20000000 cyc:   41511390 now IPC :0.17400: AVG IPC :0.44419: L2-Pf-HR :-nan: L2-HR :0.67781: (Sim:0h13m30s) 
CPU  3 inst:   20000000 cyc:   42076106 now IPC :0.17401: AVG IPC :0.43810: L2-Pf-HR :-nan: L2-HR :0.67664: (Sim:0h13m37s) 
CPU  0 inst:   20000000 cyc:   42080594 now IPC :0.17437: AVG IPC :0.43804: L2-Pf-HR :-nan: L2-HR :0.67781: (Sim:0h13m37s) 
CPU  2 inst:   21000000 cyc:   46937005 now IPC :0.17873: AVG IPC :0.41351: L2-Pf-HR :-nan: L2-HR :0.66456: (Sim:0h14m41s) 
CPU  1 inst:   21000000 cyc:   47111118 now IPC :0.17858: AVG IPC :0.41194: L2-Pf-HR :-nan: L2-HR :0.66456: (Sim:0h14m43s) 
CPU  3 inst:   21000000 cyc:   47687986 now IPC :0.17819: AVG IPC :0.40686: L2-Pf-HR :-nan: L2-HR :0.66344: (Sim:0h14m51s) 
CPU  0 inst:   21000000 cyc:   47694560 now IPC :0.17813: AVG IPC :0.40680: L2-Pf-HR :-nan: L2-HR :0.66456: (Sim:0h14m51s) 
CPU  2 inst:   22000000 cyc:   52432664 now IPC :0.18196: AVG IPC :0.38877: L2-Pf-HR :-nan: L2-HR :0.65230: (Sim:0h15m57s) 
CPU  1 inst:   22000000 cyc:   52605685 now IPC :0.18200: AVG IPC :0.38747: L2-Pf-HR :-nan: L2-HR :0.65229: (Sim:0h15m59s) 
CPU  3 inst:   22000000 cyc:   53177161 now IPC :0.18218: AVG IPC :0.38323: L2-Pf-HR :-nan: L2-HR :0.65121: (Sim:0h16m7s) 
CPU  0 inst:   22000000 cyc:   53188250 now IPC :0.18203: AVG IPC :0.38314: L2-Pf-HR :-nan: L2-HR :0.65230: (Sim:0h16m7s) 
CPU  2 inst:   23000000 cyc:   57897929 now IPC :0.18297: AVG IPC :0.36901: L2-Pf-HR :-nan: L2-HR :0.64091: (Sim:0h17m9s) 
CPU  1 inst:   23000000 cyc:   58074699 now IPC :0.18285: AVG IPC :0.36786: L2-Pf-HR :-nan: L2-HR :0.64091: (Sim:0h17m11s) 
CPU  3 inst:   23000000 cyc:   58642030 now IPC :0.18299: AVG IPC :0.36425: L2-Pf-HR :-nan: L2-HR :0.63986: (Sim:0h17m18s) 
CPU  0 inst:   23000000 cyc:   58667965 now IPC :0.18249: AVG IPC :0.36408: L2-Pf-HR :-nan: L2-HR :0.64091: (Sim:0h17m19s) 
CPU  2 inst:   24000000 cyc:   63375353 now IPC :0.18257: AVG IPC :0.35264: L2-Pf-HR :-nan: L2-HR :0.63030: (Sim:0h18m23s) 
CPU  1 inst:   24000000 cyc:   63539372 now IPC :0.18299: AVG IPC :0.35171: L2-Pf-HR :-nan: L2-HR :0.63030: (Sim:0h18m25s) 
CPU  3 inst:   24000000 cyc:   64074671 now IPC :0.18407: AVG IPC :0.34873: L2-Pf-HR :-nan: L2-HR :0.62930: (Sim:0h18m32s) 
CPU  0 inst:   24000000 cyc:   64103488 now IPC :0.18397: AVG IPC :0.34857: L2-Pf-HR :-nan: L2-HR :0.63030: (Sim:0h18m32s) 
CPU  2 inst:   25000000 cyc:   68818876 now IPC :0.18370: AVG IPC :0.33908: L2-Pf-HR :-nan: L2-HR :0.62040: (Sim:0h19m36s) 
CPU  1 inst:   25000000 cyc:   68999892 now IPC :0.18313: AVG IPC :0.33818: L2-Pf-HR :-nan: L2-HR :0.62040: (Sim:0h19m38s) 
CPU  3 inst:   25000000 cyc:   69552005 now IPC :0.18257: AVG IPC :0.33546: L2-Pf-HR :-nan: L2-HR :0.61943: (Sim:0h19m46s) 
CPU  0 inst:   25000000 cyc:   69574337 now IPC :0.18279: AVG IPC :0.33534: L2-Pf-HR :-nan: L2-HR :0.62041: (Sim:0h19m46s) 
CPU  2 inst:   26000001 cyc:   73921983 now IPC :0.19596: AVG IPC :0.32907: L2-Pf-HR :-nan: L2-HR :0.61369: (Sim:0h20m42s) 
CPU  1 inst:   26000001 cyc:   74128549 now IPC :0.19498: AVG IPC :0.32814: L2-Pf-HR :-nan: L2-HR :0.61368: (Sim:0h20m47s) 
CPU  3 inst:   26000001 cyc:   74912590 now IPC :0.18655: AVG IPC :0.32466: L2-Pf-HR :-nan: L2-HR :0.61275: (Sim:0h21m9s) 
CPU  0 inst:   26000001 cyc:   74936826 now IPC :0.18648: AVG IPC :0.32455: L2-Pf-HR :-nan: L2-HR :0.61369: (Sim:0h21m10s) 
CPU  2 inst:   27000000 cyc:   75036841 now IPC :0.89697: AVG IPC :0.33762: L2-Pf-HR :-nan: L2-HR :0.63695: (Sim:0h21m13s) 
CPU  1 inst:   27000000 cyc:   75210275 now IPC :0.92445: AVG IPC :0.33683: L2-Pf-HR :-nan: L2-HR :0.63695: (Sim:0h21m19s) 
CPU  3 inst:   27000000 cyc:   75948549 now IPC :0.96529: AVG IPC :0.33351: L2-Pf-HR :-nan: L2-HR :0.63609: (Sim:0h21m45s) 
CPU  0 inst:   27000000 cyc:   75964262 now IPC :0.97330: AVG IPC :0.33344: L2-Pf-HR :-nan: L2-HR :0.63695: (Sim:0h21m46s) 
CPU  2 inst:   28000002 cyc:   76041896 now IPC :0.99497: AVG IPC :0.34642: L2-Pf-HR :-nan: L2-HR :0.65685: (Sim:0h21m48s) 
CPU  1 inst:   28000002 cyc:   76216553 now IPC :0.99376: AVG IPC :0.34561: L2-Pf-HR :-nan: L2-HR :0.65684: (Sim:0h21m55s) 
CPU  3 inst:   28000002 cyc:   76963678 now IPC :0.98510: AVG IPC :0.34222: L2-Pf-HR :-nan: L2-HR :0.65605: (Sim:0h22m27s) 
CPU  0 inst:   28000002 cyc:   76964607 now IPC :0.99966: AVG IPC :0.34221: L2-Pf-HR :-nan: L2-HR :0.65685: (Sim:0h22m27s) 
CPU  2 inst:   29000003 cyc:   77010984 now IPC :1.03190: AVG IPC :0.35516: L2-Pf-HR :-nan: L2-HR :0.67464: (Sim:0h22m28s) 
CPU  1 inst:   29000003 cyc:   77197698 now IPC :1.01922: AVG IPC :0.35429: L2-Pf-HR :-nan: L2-HR :0.67464: (Sim:0h22m35s) 
CPU  3 inst:   29000003 cyc:   77948246 now IPC :1.01567: AVG IPC :0.35084: L2-Pf-HR :-nan: L2-HR :0.67390: (Sim:0h23m8s) 
CPU  0 inst:   29000003 cyc:   77956578 now IPC :1.00810: AVG IPC :0.35079: L2-Pf-HR :-nan: L2-HR :0.67464: (Sim:0h23m8s) 
CPU  2 inst:   30000004 cyc:   77962686 now IPC :1.05075: AVG IPC :0.36376: L2-Pf-HR :-nan: L2-HR :0.68976: (Sim:0h23m8s) 
CPU  1 inst:   30000004 cyc:   78210954 now IPC :0.98692: AVG IPC :0.36259: L2-Pf-HR :-nan: L2-HR :0.68976: (Sim:0h23m17s) 
CPU  3 inst:   30000004 cyc:   79036731 now IPC :0.91871: AVG IPC :0.35876: L2-Pf-HR :-nan: L2-HR :0.68907: (Sim:0h23m50s) 
CPU  0 inst:   30000004 cyc:   79046178 now IPC :0.91777: AVG IPC :0.35871: L2-Pf-HR :-nan: L2-HR :0.68976: (Sim:0h23m50s) 
CPU  2 inst:   31000005 cyc:   79058722 now IPC :0.91238: AVG IPC :0.37146: L2-Pf-HR :-nan: L2-HR :0.70274: (Sim:0h23m51s) 
CPU  1 inst:   31000003 cyc:   79324800 now IPC :0.89779: AVG IPC :0.37020: L2-Pf-HR :-nan: L2-HR :0.70274: (Sim:0h23m58s) 
CPU  3 inst:   31000005 cyc:   80109079 now IPC :0.93253: AVG IPC :0.36653: L2-Pf-HR :-nan: L2-HR :0.70209: (Sim:0h24m27s) 
CPU  2 inst:   32000004 cyc:   80157404 now IPC :0.91018: AVG IPC :0.37894: L2-Pf-HR :-nan: L2-HR :0.71423: (Sim:0h24m29s) 
CPU  0 inst:   31000005 cyc:   80165468 now IPC :0.89342: AVG IPC :0.36627: L2-Pf-HR :-nan: L2-HR :0.70274: (Sim:0h24m30s) 
CPU  1 inst:   32000004 cyc:   80403426 now IPC :0.92711: AVG IPC :0.37776: L2-Pf-HR :-nan: L2-HR :0.71423: (Sim:0h24m37s) 
CPU  3 inst:   32000004 cyc:   81079214 now IPC :1.03078: AVG IPC :0.37458: L2-Pf-HR :-nan: L2-HR :0.71361: (Sim:0h25m4s) 
CPU  0 inst:   32000004 cyc:   81189386 now IPC :0.97664: AVG IPC :0.37406: L2-Pf-HR :-nan: L2-HR :0.71423: (Sim:0h25m8s) 
CPU  2 inst:   33000003 cyc:   81196420 now IPC :0.96245: AVG IPC :0.38649: L2-Pf-HR :-nan: L2-HR :0.72453: (Sim:0h25m8s) 
CPU  1 inst:   33000003 cyc:   81458783 now IPC :0.94755: AVG IPC :0.38523: L2-Pf-HR :-nan: L2-HR :0.72453: (Sim:0h25m17s) 
CPU  3 inst:   33000003 cyc:   82087487 now IPC :0.99179: AVG IPC :0.38225: L2-Pf-HR :-nan: L2-HR :0.72395: (Sim:0h25m41s) 
CPU  0 inst:   33000003 cyc:   82148861 now IPC :1.04224: AVG IPC :0.38196: L2-Pf-HR :-nan: L2-HR :0.72453: (Sim:0h25m44s) 
CPU  2 inst:   34000001 cyc:   82194156 now IPC :1.00227: AVG IPC :0.39406: L2-Pf-HR :-nan: L2-HR :0.73386: (Sim:0h25m45s) 
CPU  1 inst:   34000003 cyc:   82417651 now IPC :1.04290: AVG IPC :0.39298: L2-Pf-HR :-nan: L2-HR :0.73386: (Sim:0h25m54s) 
CPU  3 inst:   34000003 cyc:   83029680 now IPC :1.06135: AVG IPC :0.39005: L2-Pf-HR :-nan: L2-HR :0.73331: (Sim:0h26m17s) 
CPU  0 inst:   34000001 cyc:   83060675 now IPC :1.09671: AVG IPC :0.38990: L2-Pf-HR :-nan: L2-HR :0.73386: (Sim:0h26m18s) 
CPU  2 inst:   35000003 cyc:   83095606 now IPC :1.10933: AVG IPC :0.40191: L2-Pf-HR :-nan: L2-HR :0.74269: (Sim:0h26m20s) 
CPU  1 inst:   35000003 cyc:   83332526 now IPC :1.09305: AVG IPC :0.40076: L2-Pf-HR :-nan: L2-HR :0.74269: (Sim:0h26m28s) 
CPU  3 inst:   35000003 cyc:   83909786 now IPC :1.13623: AVG IPC :0.39797: L2-Pf-HR :-nan: L2-HR :0.74217: (Sim:0h26m51s) 
CPU  0 inst:   35000001 cyc:   83939309 now IPC :1.13813: AVG IPC :0.39782: L2-Pf-HR :-nan: L2-HR :0.74269: (Sim:0h26m53s) 
CPU  2 inst:   36000004 cyc:   83988358 now IPC :1.12013: AVG IPC :0.40964: L2-Pf-HR :-nan: L2-HR :0.75039: (Sim:0h26m56s) 
CPU  1 inst:   36000004 cyc:   84210589 now IPC :1.13887: AVG IPC :0.40854: L2-Pf-HR :-nan: L2-HR :0.75039: (Sim:0h27m6s) 
CPU  3 inst:   36000004 cyc:   84759424 now IPC :1.17697: AVG IPC :0.40587: L2-Pf-HR :-nan: L2-HR :0.74988: (Sim:0h27m31s) 
CPU  0 inst:   36000004 cyc:   84785198 now IPC :1.18219: AVG IPC :0.40574: L2-Pf-HR :-nan: L2-HR :0.75039: (Sim:0h27m33s) 
CPU  2 inst:   37000002 cyc:   84816524 now IPC :1.20748: AVG IPC :0.41752: L2-Pf-HR :-nan: L2-HR :0.75726: (Sim:0h27m34s) 
CPU  1 inst:   37000002 cyc:   85034953 now IPC :1.21305: AVG IPC :0.41644: L2-Pf-HR :-nan: L2-HR :0.75726: (Sim:0h27m44s) 
CPU  3 inst:   37000002 cyc:   85582246 now IPC :1.21533: AVG IPC :0.41375: L2-Pf-HR :-nan: L2-HR :0.75678: (Sim:0h28m6s) 
CPU  0 inst:   37000002 cyc:   85614696 now IPC :1.20555: AVG IPC :0.41358: L2-Pf-HR :-nan: L2-HR :0.75725: (Sim:0h28m8s) 
CPU  2 inst:   38000002 cyc:   85625285 now IPC :1.23646: AVG IPC :0.42535: L2-Pf-HR :-nan: L2-HR :0.76354: (Sim:0h28m8s) 
CPU  1 inst:   38000002 cyc:   85854160 now IPC :1.22069: AVG IPC :0.42420: L2-Pf-HR :-nan: L2-HR :0.76354: (Sim:0h28m18s) 
CPU  3 inst:   38000002 cyc:   86448117 now IPC :1.15491: AVG IPC :0.42125: L2-Pf-HR :-nan: L2-HR :0.76308: (Sim:0h28m42s) 
CPU  2 inst:   39000005 cyc:   86487115 now IPC :1.16033: AVG IPC :0.43276: L2-Pf-HR :-nan: L2-HR :0.76942: (Sim:0h28m43s) 
Finished CPU 2 instr: 37000003 cyc: 85498609 AVG IPC: 0.43276 (Sim time: 0h28m43s)
CPU  0 inst:   38000002 cyc:   86489827 now IPC :1.14269: AVG IPC :0.42105: L2-Pf-HR :-nan: L2-HR :0.76354: (Sim:0h28m44s) 
CPU  1 inst:   39000005 cyc:   86712347 now IPC :1.16525: AVG IPC :0.43162: L2-Pf-HR :-nan: L2-HR :0.76942: (Sim:0h28m53s) 
Finished CPU 1 instr: 37000005 cyc: 85723946 AVG IPC: 0.43162 (Sim time: 0h28m53s)
CPU  3 inst:   39000005 cyc:   87270454 now IPC :1.21605: AVG IPC :0.42883: L2-Pf-HR :-nan: L2-HR :0.76896: (Sim:0h29m16s) 
Finished CPU 3 instr: 37000003 cyc: 86281299 AVG IPC: 0.42883 (Sim time: 0h29m16s)
CPU  2 inst:   40000001 cyc:   87299633 now IPC :1.23074: AVG IPC :0.44027: L2-Pf-HR :-nan: L2-HR :0.77508: (Sim:0h29m17s) 
CPU  0 inst:   39000001 cyc:   87307593 now IPC :1.22284: AVG IPC :0.42864: L2-Pf-HR :-nan: L2-HR :0.76941: (Sim:0h29m18s) 
Finished CPU 0 instr: 37000000 cyc: 86319206 AVG IPC: 0.42864 (Sim time: 0h29m18s)

ChampSim completed all CPUs

Total Simulation Statistics (not including warmup)

CPU 0 cumulative IPC: 0.42864 instructions: 37000000 cycles: 86319206
Core_0_L1D_total_access 10125295
Core_0_L1D_total_hit 8779311
Core_0_L1D_total_miss 1345984
Core_0_L1D_loads 9021300
Core_0_L1D_load_hit 7742137
Core_0_L1D_load_miss 1279163
Core_0_L1D_RFOs 1103995
Core_0_L1D_RFO_hit 1037174
Core_0_L1D_RFO_miss 66821
Core_0_L1D_prefetches 0
Core_0_L1D_prefetch_hit 0
Core_0_L1D_prefetch_miss 0
Core_0_L1D_writebacks 0
Core_0_L1D_writeback_hit 0
Core_0_L1D_writeback_miss 0

Core_0_L1I_total_access 4912356
Core_0_L1I_total_hit 4907640
Core_0_L1I_total_miss 4716
Core_0_L1I_loads 4912356
Core_0_L1I_load_hit 4907640
Core_0_L1I_load_miss 4716
Core_0_L1I_RFOs 0
Core_0_L1I_RFO_hit 0
Core_0_L1I_RFO_miss 0
Core_0_L1I_prefetches 0
Core_0_L1I_prefetch_hit 0
Core_0_L1I_prefetch_miss 0
Core_0_L1I_writebacks 0
Core_0_L1I_writeback_hit 0
Core_0_L1I_writeback_miss 0

Core_0_L2C_total_access 1590308
Core_0_L2C_total_hit 1223603
Core_0_L2C_total_miss 366705
Core_0_L2C_loads 1283879
Core_0_L2C_load_hit 982911
Core_0_L2C_load_miss 300968
Core_0_L2C_RFOs 66821
Core_0_L2C_RFO_hit 1089
Core_0_L2C_RFO_miss 65732
Core_0_L2C_prefetches 0
Core_0_L2C_prefetch_hit 0
Core_0_L2C_prefetch_miss 0
Core_0_L2C_writebacks 239608
Core_0_L2C_writeback_hit 239603
Core_0_L2C_writeback_miss 5

Core_0_LLC_total_access 570860
Core_0_LLC_total_hit 200288
Core_0_LLC_total_miss 370572
Core_0_LLC_loads 300968
Core_0_LLC_load_hit 1123
Core_0_LLC_load_miss 299845
Core_0_LLC_RFOs 65732
Core_0_LLC_RFO_hit 6
Core_0_LLC_RFO_miss 65726
Core_0_LLC_prefetches 0
Core_0_LLC_prefetch_hit 0
Core_0_LLC_prefetch_miss 0
Core_0_LLC_writebacks 204160
Core_0_LLC_writeback_hit 199159
Core_0_LLC_writeback_miss 5001


CPU 1 cumulative IPC: 0.43678 instructions: 37702603 cycles: 86319206
Core_1_L1D_total_access 10308488
Core_1_L1D_total_hit 8917610
Core_1_L1D_total_miss 1390878
Core_1_L1D_loads 9202910
Core_1_L1D_load_hit 7878877
Core_1_L1D_load_miss 1324033
Core_1_L1D_RFOs 1105578
Core_1_L1D_RFO_hit 1038733
Core_1_L1D_RFO_miss 66845
Core_1_L1D_prefetches 0
Core_1_L1D_prefetch_hit 0
Core_1_L1D_prefetch_miss 0
Core_1_L1D_writebacks 0
Core_1_L1D_writeback_hit 0
Core_1_L1D_writeback_miss 0

Core_1_L1I_total_access 4982178
Core_1_L1I_total_hit 4977459
Core_1_L1I_total_miss 4719
Core_1_L1I_loads 4982178
Core_1_L1I_load_hit 4977459
Core_1_L1I_load_miss 4719
Core_1_L1I_RFOs 0
Core_1_L1I_RFO_hit 0
Core_1_L1I_RFO_miss 0
Core_1_L1I_prefetches 0
Core_1_L1I_prefetch_hit 0
Core_1_L1I_prefetch_miss 0
Core_1_L1I_writebacks 0
Core_1_L1I_writeback_hit 0
Core_1_L1I_writeback_miss 0

Core_1_L2C_total_access 1635960
Core_1_L2C_total_hit 1264833
Core_1_L2C_total_miss 371127
Core_1_L2C_loads 1328752
Core_1_L2C_load_hit 1023362
Core_1_L2C_load_miss 305390
Core_1_L2C_RFOs 66845
Core_1_L2C_RFO_hit 1113
Core_1_L2C_RFO_miss 65732
Core_1_L2C_prefetches 0
Core_1_L2C_prefetch_hit 0
Core_1_L2C_prefetch_miss 0
Core_1_L2C_writebacks 240363
Core_1_L2C_writeback_hit 240358
Core_1_L2C_writeback_miss 5

Core_1_LLC_total_access 576668
Core_1_LLC_total_hit 203085
Core_1_LLC_total_miss 373583
Core_1_LLC_loads 305390
Core_1_LLC_load_hit 1125
Core_1_LLC_load_miss 304265
Core_1_LLC_RFOs 65732
Core_1_LLC_RFO_hit 0
Core_1_LLC_RFO_miss 65732
Core_1_LLC_prefetches 0
Core_1_LLC_prefetch_hit 0
Core_1_LLC_prefetch_miss 0
Core_1_LLC_writebacks 205546
Core_1_LLC_writeback_hit 201960
Core_1_LLC_writeback_miss 3586


CPU 2 cumulative IPC: 0.44033 instructions: 38009097 cycles: 86319206
Core_2_L1D_total_access 10389529
Core_2_L1D_total_hit 8979535
Core_2_L1D_total_miss 1409994
Core_2_L1D_loads 9283490
Core_2_L1D_load_hit 7940343
Core_2_L1D_load_miss 1343147
Core_2_L1D_RFOs 1106039
Core_2_L1D_RFO_hit 1039192
Core_2_L1D_RFO_miss 66847
Core_2_L1D_prefetches 0
Core_2_L1D_prefetch_hit 0
Core_2_L1D_prefetch_miss 0
Core_2_L1D_writebacks 0
Core_2_L1D_writeback_hit 0
Core_2_L1D_writeback_miss 0

Core_2_L1I_total_access 5011685
Core_2_L1I_total_hit 5006967
Core_2_L1I_total_miss 4718
Core_2_L1I_loads 5011685
Core_2_L1I_load_hit 5006967
Core_2_L1I_load_miss 4718
Core_2_L1I_RFOs 0
Core_2_L1I_RFO_hit 0
Core_2_L1I_RFO_miss 0
Core_2_L1I_prefetches 0
Core_2_L1I_prefetch_hit 0
Core_2_L1I_prefetch_miss 0
Core_2_L1I_writebacks 0
Core_2_L1I_writeback_hit 0
Core_2_L1I_writeback_miss 0

Core_2_L2C_total_access 1655404
Core_2_L2C_total_hit 1283125
Core_2_L2C_total_miss 372279
Core_2_L2C_loads 1347865
Core_2_L2C_load_hit 1041323
Core_2_L2C_load_miss 306542
Core_2_L2C_RFOs 66847
Core_2_L2C_RFO_hit 1115
Core_2_L2C_RFO_miss 65732
Core_2_L2C_prefetches 0
Core_2_L2C_prefetch_hit 0
Core_2_L2C_prefetch_miss 0
Core_2_L2C_writebacks 240692
Core_2_L2C_writeback_hit 240687
Core_2_L2C_writeback_miss 5

Core_2_LLC_total_access 578287
Core_2_LLC_total_hit 205396
Core_2_LLC_total_miss 372891
Core_2_LLC_loads 306542
Core_2_LLC_load_hit 1556
Core_2_LLC_load_miss 304986
Core_2_LLC_RFOs 65732
Core_2_LLC_RFO_hit 1
Core_2_LLC_RFO_miss 65731
Core_2_LLC_prefetches 0
Core_2_LLC_prefetch_hit 0
Core_2_LLC_prefetch_miss 0
Core_2_LLC_writebacks 206013
Core_2_LLC_writeback_hit 203839
Core_2_LLC_writeback_miss 2174


CPU 3 cumulative IPC: 0.42929 instructions: 37056334 cycles: 86319206
Core_3_L1D_total_access 10140206
Core_3_L1D_total_hit 8790766
Core_3_L1D_total_miss 1349440
Core_3_L1D_loads 9036313
Core_3_L1D_load_hit 7753697
Core_3_L1D_load_miss 1282616
Core_3_L1D_RFOs 1103893
Core_3_L1D_RFO_hit 1037069
Core_3_L1D_RFO_miss 66824
Core_3_L1D_prefetches 0
Core_3_L1D_prefetch_hit 0
Core_3_L1D_prefetch_miss 0
Core_3_L1D_writebacks 0
Core_3_L1D_writeback_hit 0
Core_3_L1D_writeback_miss 0

Core_3_L1I_total_access 4917887
Core_3_L1I_total_hit 4913170
Core_3_L1I_total_miss 4717
Core_3_L1I_loads 4917887
Core_3_L1I_load_hit 4913170
Core_3_L1I_load_miss 4717
Core_3_L1I_RFOs 0
Core_3_L1I_RFO_hit 0
Core_3_L1I_RFO_miss 0
Core_3_L1I_prefetches 0
Core_3_L1I_prefetch_hit 0
Core_3_L1I_prefetch_miss 0
Core_3_L1I_writebacks 0
Core_3_L1I_writeback_hit 0
Core_3_L1I_writeback_miss 0

Core_3_L2C_total_access 1593823
Core_3_L2C_total_hit 1226189
Core_3_L2C_total_miss 367634
Core_3_L2C_loads 1287333
Core_3_L2C_load_hit 985468
Core_3_L2C_load_miss 301865
Core_3_L2C_RFOs 66824
Core_3_L2C_RFO_hit 1060
Core_3_L2C_RFO_miss 65764
Core_3_L2C_prefetches 0
Core_3_L2C_prefetch_hit 0
Core_3_L2C_prefetch_miss 0
Core_3_L2C_writebacks 239666
Core_3_L2C_writeback_hit 239661
Core_3_L2C_writeback_miss 5

Core_3_LLC_total_access 572148
Core_3_LLC_total_hit 201965
Core_3_LLC_total_miss 370183
Core_3_LLC_loads 301865
Core_3_LLC_load_hit 2487
Core_3_LLC_load_miss 299378
Core_3_LLC_RFOs 65764
Core_3_LLC_RFO_hit 31
Core_3_LLC_RFO_miss 65733
Core_3_LLC_prefetches 0
Core_3_LLC_prefetch_hit 0
Core_3_LLC_prefetch_miss 0
Core_3_LLC_writebacks 204519
Core_3_LLC_writeback_hit 199447
Core_3_LLC_writeback_miss 5072


[ROI Statistics]
Core_0_instructions 37000000
Core_0_cycles 86319206
Core_0_IPC 0.42864

Core_0_branch_prediction_accuracy 98.43855
Core_0_branch_MPKI 0.50535
Core_0_average_ROB_occupancy_at_mispredict 344.40111

Core_0_L1D_total_access 10125295
Core_0_L1D_total_hit 8779311 L1D_total_Hit Ratio: 0.86707
Core_0_L1D_total_miss 1345984
Core_0_L1D_loads 9021300
Core_0_L1D_load_hit 7742137 L1D_load_Hit Ratio: 0.85821
Core_0_L1D_load_miss 1279163
Core_0_L1D_RFOs 1103995
Core_0_L1D_RFO_hit 1037174 L1D_RFO_Hit Ratio: 0.93947
Core_0_L1D_RFO_miss 66821
Core_0_L1D_prefetches 0
Core_0_L1D_prefetch_hit 0 L1D_prefetch_Hit Ratio: -nan
Core_0_L1D_prefetch_miss 0
Core_0_L1D_writebacks 0
Core_0_L1D_writeback_hit 0 L1D_writeback_Hit Ratio: -nan
Core_0_L1D_writeback_miss 0
Core_0_L1D_prefetch_requested 0
Core_0_L1D_prefetch_issued 0
Core_0_L1D_prefetch_useful 0 L1D_Useful Ratio: -nan
Core_0_L1D_prefetch_useless 0
Core_0_L1D_prefetch_late 0
Core_0_L1D_average_miss_latency 209.54360

Core_0_L1I_total_access 4912356
Core_0_L1I_total_hit 4907640 L1I_total_Hit Ratio: 0.99904
Core_0_L1I_total_miss 4716
Core_0_L1I_loads 4912356
Core_0_L1I_load_hit 4907640 L1I_load_Hit Ratio: 0.99904
Core_0_L1I_load_miss 4716
Core_0_L1I_RFOs 0
Core_0_L1I_RFO_hit 0 L1I_RFO_Hit Ratio: -nan
Core_0_L1I_RFO_miss 0
Core_0_L1I_prefetches 0
Core_0_L1I_prefetch_hit 0 L1I_prefetch_Hit Ratio: -nan
Core_0_L1I_prefetch_miss 0
Core_0_L1I_writebacks 0
Core_0_L1I_writeback_hit 0 L1I_writeback_Hit Ratio: -nan
Core_0_L1I_writeback_miss 0
Core_0_L1I_prefetch_requested 0
Core_0_L1I_prefetch_issued 0
Core_0_L1I_prefetch_useful 0 L1I_Useful Ratio: -nan
Core_0_L1I_prefetch_useless 0
Core_0_L1I_prefetch_late 0
Core_0_L1I_average_miss_latency 897.14673

Core_0_L2C_total_access 1590308
Core_0_L2C_total_hit 1223603 L2C_total_Hit Ratio: 0.76941
Core_0_L2C_total_miss 366705
Core_0_L2C_loads 1283879
Core_0_L2C_load_hit 982911 L2C_load_Hit Ratio: 0.76558
Core_0_L2C_load_miss 300968
Core_0_L2C_RFOs 66821
Core_0_L2C_RFO_hit 1089 L2C_RFO_Hit Ratio: 0.01630
Core_0_L2C_RFO_miss 65732
Core_0_L2C_prefetches 0
Core_0_L2C_prefetch_hit 0 L2C_prefetch_Hit Ratio: -nan
Core_0_L2C_prefetch_miss 0
Core_0_L2C_writebacks 239608
Core_0_L2C_writeback_hit 239603 L2C_writeback_Hit Ratio: 0.99998
Core_0_L2C_writeback_miss 5
Core_0_L2C_prefetch_requested 0
Core_0_L2C_prefetch_issued 0
Core_0_L2C_prefetch_useful 0 L2C_Useful Ratio: -nan
Core_0_L2C_prefetch_useless 0
Core_0_L2C_prefetch_late 0
Core_0_L2C_average_miss_latency 724.65241

Core_0_LLC_total_access 570860
Core_0_LLC_total_hit 200288 LLC_total_Hit Ratio: 0.35085
Core_0_LLC_total_miss 370572
Core_0_LLC_loads 300968
Core_0_LLC_load_hit 1123 LLC_load_Hit Ratio: 0.00373
Core_0_LLC_load_miss 299845
Core_0_LLC_RFOs 65732
Core_0_LLC_RFO_hit 6 LLC_RFO_Hit Ratio: 0.00009
Core_0_LLC_RFO_miss 65726
Core_0_LLC_prefetches 0
Core_0_LLC_prefetch_hit 0 LLC_prefetch_Hit Ratio: -nan
Core_0_LLC_prefetch_miss 0
Core_0_LLC_writebacks 204160
Core_0_LLC_writeback_hit 199159 LLC_writeback_Hit Ratio: 0.97550
Core_0_LLC_writeback_miss 5001
Core_0_LLC_prefetch_requested 0
Core_0_LLC_prefetch_issued 0
Core_0_LLC_prefetch_useful 0 LLC_Useful Ratio: -nan
Core_0_LLC_prefetch_useless 0
Core_0_LLC_prefetch_late 0
Core_0_LLC_average_miss_latency 2619.96802

Core_0_major_page_fault 0
Core_0_minor_page_fault 3913

Core_1_instructions 37000005
Core_1_cycles 85723946
Core_1_IPC 0.43162

Core_1_branch_prediction_accuracy 98.44250
Core_1_branch_MPKI 0.49659
Core_1_average_ROB_occupancy_at_mispredict 344.06041

Core_1_L1D_total_access 10124980
Core_1_L1D_total_hit 8778997 L1D_total_Hit Ratio: 0.86706
Core_1_L1D_total_miss 1345983
Core_1_L1D_loads 9021112
Core_1_L1D_load_hit 7741951 L1D_load_Hit Ratio: 0.85820
Core_1_L1D_load_miss 1279161
Core_1_L1D_RFOs 1103868
Core_1_L1D_RFO_hit 1037046 L1D_RFO_Hit Ratio: 0.93947
Core_1_L1D_RFO_miss 66822
Core_1_L1D_prefetches 0
Core_1_L1D_prefetch_hit 0 L1D_prefetch_Hit Ratio: -nan
Core_1_L1D_prefetch_miss 0
Core_1_L1D_writebacks 0
Core_1_L1D_writeback_hit 0 L1D_writeback_Hit Ratio: -nan
Core_1_L1D_writeback_miss 0
Core_1_L1D_prefetch_requested 0
Core_1_L1D_prefetch_issued 0
Core_1_L1D_prefetch_useful 0 L1D_Useful Ratio: -nan
Core_1_L1D_prefetch_useless 0
Core_1_L1D_prefetch_late 0
Core_1_L1D_average_miss_latency 206.64198

Core_1_L1I_total_access 4912615
Core_1_L1I_total_hit 4907896 L1I_total_Hit Ratio: 0.99904
Core_1_L1I_total_miss 4719
Core_1_L1I_loads 4912615
Core_1_L1I_load_hit 4907896 L1I_load_Hit Ratio: 0.99904
Core_1_L1I_load_miss 4719
Core_1_L1I_RFOs 0
Core_1_L1I_RFO_hit 0 L1I_RFO_Hit Ratio: -nan
Core_1_L1I_RFO_miss 0
Core_1_L1I_prefetches 0
Core_1_L1I_prefetch_hit 0 L1I_prefetch_Hit Ratio: -nan
Core_1_L1I_prefetch_miss 0
Core_1_L1I_writebacks 0
Core_1_L1I_writeback_hit 0 L1I_writeback_Hit Ratio: -nan
Core_1_L1I_writeback_miss 0
Core_1_L1I_prefetch_requested 0
Core_1_L1I_prefetch_issued 0
Core_1_L1I_prefetch_useful 0 L1I_Useful Ratio: -nan
Core_1_L1I_prefetch_useless 0
Core_1_L1I_prefetch_late 0
Core_1_L1I_average_miss_latency 798.74592

Core_1_L2C_total_access 1590309
Core_1_L2C_total_hit 1223607 L2C_total_Hit Ratio: 0.76941
Core_1_L2C_total_miss 366702
Core_1_L2C_loads 1283880
Core_1_L2C_load_hit 982915 L2C_load_Hit Ratio: 0.76558
Core_1_L2C_load_miss 300965
Core_1_L2C_RFOs 66822
Core_1_L2C_RFO_hit 1090 L2C_RFO_Hit Ratio: 0.01631
Core_1_L2C_RFO_miss 65732
Core_1_L2C_prefetches 0
Core_1_L2C_prefetch_hit 0 L2C_prefetch_Hit Ratio: -nan
Core_1_L2C_prefetch_miss 0
Core_1_L2C_writebacks 239607
Core_1_L2C_writeback_hit 239602 L2C_writeback_Hit Ratio: 0.99998
Core_1_L2C_writeback_miss 5
Core_1_L2C_prefetch_requested 0
Core_1_L2C_prefetch_issued 0
Core_1_L2C_prefetch_useful 0 L2C_Useful Ratio: -nan
Core_1_L2C_prefetch_useless 0
Core_1_L2C_prefetch_late 0
Core_1_L2C_average_miss_latency 710.88099

Core_1_LLC_total_access 571366
Core_1_LLC_total_hit 202207 LLC_total_Hit Ratio: 0.35390
Core_1_LLC_total_miss 369159
Core_1_LLC_loads 300966
Core_1_LLC_load_hit 1125 LLC_load_Hit Ratio: 0.00374
Core_1_LLC_load_miss 299841
Core_1_LLC_RFOs 65732
Core_1_LLC_RFO_hit 0 LLC_RFO_Hit Ratio: 0.00000
Core_1_LLC_RFO_miss 65732
Core_1_LLC_prefetches 0
Core_1_LLC_prefetch_hit 0 LLC_prefetch_Hit Ratio: -nan
Core_1_LLC_prefetch_miss 0
Core_1_LLC_writebacks 204668
Core_1_LLC_writeback_hit 201082 LLC_writeback_Hit Ratio: 0.98248
Core_1_LLC_writeback_miss 3586
Core_1_LLC_prefetch_requested 0
Core_1_LLC_prefetch_issued 0
Core_1_LLC_prefetch_useful 0 LLC_Useful Ratio: -nan
Core_1_LLC_prefetch_useless 0
Core_1_LLC_prefetch_late 0
Core_1_LLC_average_miss_latency 2629.99626

Core_1_major_page_fault 0
Core_1_minor_page_fault 3940

Core_2_instructions 37000003
Core_2_cycles 85498609
Core_2_IPC 0.43276

Core_2_branch_prediction_accuracy 98.44416
Core_2_branch_MPKI 0.49288
Core_2_average_ROB_occupancy_at_mispredict 344.08669

Core_2_L1D_total_access 10124743
Core_2_L1D_total_hit 8778761 L1D_total_Hit Ratio: 0.86706
Core_2_L1D_total_miss 1345982
Core_2_L1D_loads 9021123
Core_2_L1D_load_hit 7741963 L1D_load_Hit Ratio: 0.85820
Core_2_L1D_load_miss 1279160
Core_2_L1D_RFOs 1103620
Core_2_L1D_RFO_hit 1036798 L1D_RFO_Hit Ratio: 0.93945
Core_2_L1D_RFO_miss 66822
Core_2_L1D_prefetches 0
Core_2_L1D_prefetch_hit 0 L1D_prefetch_Hit Ratio: -nan
Core_2_L1D_prefetch_miss 0
Core_2_L1D_writebacks 0
Core_2_L1D_writeback_hit 0 L1D_writeback_Hit Ratio: -nan
Core_2_L1D_writeback_miss 0
Core_2_L1D_prefetch_requested 0
Core_2_L1D_prefetch_issued 0
Core_2_L1D_prefetch_useful 0 L1D_Useful Ratio: -nan
Core_2_L1D_prefetch_useless 0
Core_2_L1D_prefetch_late 0
Core_2_L1D_average_miss_latency 203.27618

Core_2_L1I_total_access 4912020
Core_2_L1I_total_hit 4907302 L1I_total_Hit Ratio: 0.99904
Core_2_L1I_total_miss 4718
Core_2_L1I_loads 4912020
Core_2_L1I_load_hit 4907302 L1I_load_Hit Ratio: 0.99904
Core_2_L1I_load_miss 4718
Core_2_L1I_RFOs 0
Core_2_L1I_RFO_hit 0 L1I_RFO_Hit Ratio: -nan
Core_2_L1I_RFO_miss 0
Core_2_L1I_prefetches 0
Core_2_L1I_prefetch_hit 0 L1I_prefetch_Hit Ratio: -nan
Core_2_L1I_prefetch_miss 0
Core_2_L1I_writebacks 0
Core_2_L1I_writeback_hit 0 L1I_writeback_Hit Ratio: -nan
Core_2_L1I_writeback_miss 0
Core_2_L1I_prefetch_requested 0
Core_2_L1I_prefetch_issued 0
Core_2_L1I_prefetch_useful 0 L1I_Useful Ratio: -nan
Core_2_L1I_prefetch_useless 0
Core_2_L1I_prefetch_late 0
Core_2_L1I_average_miss_latency 818.83743

Core_2_L2C_total_access 1590307
Core_2_L2C_total_hit 1223608 L2C_total_Hit Ratio: 0.76942
Core_2_L2C_total_miss 366699
Core_2_L2C_loads 1283878
Core_2_L2C_load_hit 982916 L2C_load_Hit Ratio: 0.76558
Core_2_L2C_load_miss 300962
Core_2_L2C_RFOs 66822
Core_2_L2C_RFO_hit 1090 L2C_RFO_Hit Ratio: 0.01631
Core_2_L2C_RFO_miss 65732
Core_2_L2C_prefetches 0
Core_2_L2C_prefetch_hit 0 L2C_prefetch_Hit Ratio: -nan
Core_2_L2C_prefetch_miss 0
Core_2_L2C_writebacks 239607
Core_2_L2C_writeback_hit 239602 L2C_writeback_Hit Ratio: 0.99998
Core_2_L2C_writeback_miss 5
Core_2_L2C_prefetch_requested 0
Core_2_L2C_prefetch_issued 0
Core_2_L2C_prefetch_useful 0 L2C_Useful Ratio: -nan
Core_2_L2C_prefetch_useless 0
Core_2_L2C_prefetch_late 0
Core_2_L2C_average_miss_latency 698.00150

Core_2_LLC_total_access 571916
Core_2_LLC_total_hit 204605 LLC_total_Hit Ratio: 0.35775
Core_2_LLC_total_miss 367311
Core_2_LLC_loads 300962
Core_2_LLC_load_hit 1556 LLC_load_Hit Ratio: 0.00517
Core_2_LLC_load_miss 299406
Core_2_LLC_RFOs 65732
Core_2_LLC_RFO_hit 1 LLC_RFO_Hit Ratio: 0.00002
Core_2_LLC_RFO_miss 65731
Core_2_LLC_prefetches 0
Core_2_LLC_prefetch_hit 0 LLC_prefetch_Hit Ratio: -nan
Core_2_LLC_prefetch_miss 0
Core_2_LLC_writebacks 205222
Core_2_LLC_writeback_hit 203048 LLC_writeback_Hit Ratio: 0.98941
Core_2_LLC_writeback_miss 2174
Core_2_LLC_prefetch_requested 0
Core_2_LLC_prefetch_issued 0
Core_2_LLC_prefetch_useful 0 LLC_Useful Ratio: -nan
Core_2_LLC_prefetch_useless 0
Core_2_LLC_prefetch_late 0
Core_2_LLC_average_miss_latency 2643.22819

Core_2_major_page_fault 0
Core_2_minor_page_fault 3943

Core_3_instructions 37000003
Core_3_cycles 86281299
Core_3_IPC 0.42883

Core_3_branch_prediction_accuracy 98.43893
Core_3_branch_MPKI 0.50461
Core_3_average_ROB_occupancy_at_mispredict 344.29253

Core_3_L1D_total_access 10125273
Core_3_L1D_total_hit 8779321 L1D_total_Hit Ratio: 0.86707
Core_3_L1D_total_miss 1345952
Core_3_L1D_loads 9021499
Core_3_L1D_load_hit 7742371 L1D_load_Hit Ratio: 0.85821
Core_3_L1D_load_miss 1279128
Core_3_L1D_RFOs 1103774
Core_3_L1D_RFO_hit 1036950 L1D_RFO_Hit Ratio: 0.93946
Core_3_L1D_RFO_miss 66824
Core_3_L1D_prefetches 0
Core_3_L1D_prefetch_hit 0 L1D_prefetch_Hit Ratio: -nan
Core_3_L1D_prefetch_miss 0
Core_3_L1D_writebacks 0
Core_3_L1D_writeback_hit 0 L1D_writeback_Hit Ratio: -nan
Core_3_L1D_writeback_miss 0
Core_3_L1D_prefetch_requested 0
Core_3_L1D_prefetch_issued 0
Core_3_L1D_prefetch_useful 0 L1D_Useful Ratio: -nan
Core_3_L1D_prefetch_useless 0
Core_3_L1D_prefetch_late 0
Core_3_L1D_average_miss_latency 207.08199

Core_3_L1I_total_access 4912367
Core_3_L1I_total_hit 4907650 L1I_total_Hit Ratio: 0.99904
Core_3_L1I_total_miss 4717
Core_3_L1I_loads 4912367
Core_3_L1I_load_hit 4907650 L1I_load_Hit Ratio: 0.99904
Core_3_L1I_load_miss 4717
Core_3_L1I_RFOs 0
Core_3_L1I_RFO_hit 0 L1I_RFO_Hit Ratio: -nan
Core_3_L1I_RFO_miss 0
Core_3_L1I_prefetches 0
Core_3_L1I_prefetch_hit 0 L1I_prefetch_Hit Ratio: -nan
Core_3_L1I_prefetch_miss 0
Core_3_L1I_writebacks 0
Core_3_L1I_writeback_hit 0 L1I_writeback_Hit Ratio: -nan
Core_3_L1I_writeback_miss 0
Core_3_L1I_prefetch_requested 0
Core_3_L1I_prefetch_issued 0
Core_3_L1I_prefetch_useful 0 L1I_Useful Ratio: -nan
Core_3_L1I_prefetch_useless 0
Core_3_L1I_prefetch_late 0
Core_3_L1I_average_miss_latency 923.46364

Core_3_L2C_total_access 1590276
Core_3_L2C_total_hit 1222859 L2C_total_Hit Ratio: 0.76896
Core_3_L2C_total_miss 367417
Core_3_L2C_loads 1283845
Core_3_L2C_load_hit 982197 L2C_load_Hit Ratio: 0.76504
Core_3_L2C_load_miss 301648
Core_3_L2C_RFOs 66824
Core_3_L2C_RFO_hit 1060 L2C_RFO_Hit Ratio: 0.01586
Core_3_L2C_RFO_miss 65764
Core_3_L2C_prefetches 0
Core_3_L2C_prefetch_hit 0 L2C_prefetch_Hit Ratio: -nan
Core_3_L2C_prefetch_miss 0
Core_3_L2C_writebacks 239607
Core_3_L2C_writeback_hit 239602 L2C_writeback_Hit Ratio: 0.99998
Core_3_L2C_writeback_miss 5
Core_3_L2C_prefetch_requested 0
Core_3_L2C_prefetch_issued 0
Core_3_L2C_prefetch_useful 0 L2C_Useful Ratio: -nan
Core_3_L2C_prefetch_useless 0
Core_3_L2C_prefetch_late 0
Core_3_L2C_average_miss_latency 714.41045

Core_3_LLC_total_access 571893
Core_3_LLC_total_hit 201927 LLC_total_Hit Ratio: 0.35309
Core_3_LLC_total_miss 369966
Core_3_LLC_loads 301648
Core_3_LLC_load_hit 2487 LLC_load_Hit Ratio: 0.00824
Core_3_LLC_load_miss 299161
Core_3_LLC_RFOs 65764
Core_3_LLC_RFO_hit 31 LLC_RFO_Hit Ratio: 0.00047
Core_3_LLC_RFO_miss 65733
Core_3_LLC_prefetches 0
Core_3_LLC_prefetch_hit 0 LLC_prefetch_Hit Ratio: -nan
Core_3_LLC_prefetch_miss 0
Core_3_LLC_writebacks 204481
Core_3_LLC_writeback_hit 199409 LLC_writeback_Hit Ratio: 0.97520
Core_3_LLC_writeback_miss 5072
Core_3_LLC_prefetch_requested 0
Core_3_LLC_prefetch_issued 0
Core_3_LLC_prefetch_useful 0 LLC_Useful Ratio: -nan
Core_3_LLC_prefetch_useless 0
Core_3_LLC_prefetch_late 0
Core_3_LLC_average_miss_latency 2624.25949

Core_3_major_page_fault 0
Core_3_minor_page_fault 3914

Channel_0_RQ_row_buffer_hit 641088
Channel_0_RQ_row_buffer_miss 830298
Channel_0_WQ_row_buffer_hit 333373
Channel_0_WQ_row_buffer_miss 474115
Channel_0_WQ_full 186
Channel_0_dbus_congested 1252980

avg_congested_cycle 10

EzSearch AVG IPC :0.42864: L2-Pf-HR :-nan : L2-HR :0.76941 Uful:-nan
EzSearch AVG IPC :0.43162: L2-Pf-HR :-nan : L2-HR :0.77314 Uful:-nan
EzSearch AVG IPC :0.43276: L2-Pf-HR :-nan : L2-HR :0.77511 Uful:-nan
EzSearch AVG IPC :0.42883: L2-Pf-HR :-nan : L2-HR :0.76934 Uful:-nan
     > Finished combination: TraceType=770-tot Sim:37000000 Prefetcher=L2no L1=no
