TRACE: [83000000][Pythia-70M]_[h8][s512][d64] Warmup: 2000000 NumTraces: 83000000
L1:isb_ideal:L2:isb_ideal
*************************************************
   ChampSim Multicore Out-of-Order Simulator
   Last compiled: Oct 29 2024 15:45:14
*************************************************

trace_0 770-tot_memTraces_v3_rexz/memTraces[83000000][Pythia-70M]_[h8][s512][d64].champsim.9.xz
trace_1 770-tot_memTraces_v3_rexz/memTraces[83000000][Pythia-70M]_[h8][s512][d64].champsim.9.xz
trace_2 770-tot_memTraces_v3_rexz/memTraces[83000000][Pythia-70M]_[h8][s512][d64].champsim.9.xz
trace_3 770-tot_memTraces_v3_rexz/memTraces[83000000][Pythia-70M]_[h8][s512][d64].champsim.9.xz
L1D: Ideal ISB Prefetching
Ideal ISB Prefetching
L1D: Ideal ISB Prefetching
Ideal ISB Prefetching
L1D: Ideal ISB Prefetching
Ideal ISB Prefetching
L1D: Ideal ISB Prefetching
Ideal ISB Prefetching
MAIN.cc ln 751 stats print skipped
CPU  2 inst:    1000003 cyc:     499538 now IPC :2.00186: AVG IPC :2.00186: L2-Pf-HR :0.98927: L2-HR :0.74390: (Sim:0h0m43s) 
CPU  1 inst:    1000003 cyc:     499644 now IPC :2.00143: AVG IPC :2.00143: L2-Pf-HR :1.00000: L2-HR :0.75281: (Sim:0h0m43s) 
CPU  0 inst:    1000003 cyc:     499674 now IPC :2.00131: AVG IPC :2.00131: L2-Pf-HR :0.99892: L2-HR :0.76120: (Sim:0h0m43s) 
CPU  3 inst:    1000003 cyc:     499692 now IPC :2.00124: AVG IPC :2.00124: L2-Pf-HR :0.99158: L2-HR :0.76864: (Sim:0h0m43s) 
CPU  2 inst:    2000001 cyc:     982666 now IPC :2.06984: AVG IPC :2.03528: L2-Pf-HR :0.98934: L2-HR :0.78107: (Sim:0h1m30s) 
CPU  1 inst:    2000001 cyc:     982713 now IPC :2.07009: AVG IPC :2.03518: L2-Pf-HR :1.00000: L2-HR :0.78299: (Sim:0h1m30s) 
CPU  0 inst:    2000001 cyc:     982772 now IPC :2.06997: AVG IPC :2.03506: L2-Pf-HR :0.99885: L2-HR :0.78748: (Sim:0h1m30s) 
CPU  3 inst:    2000001 cyc:     982797 now IPC :2.06994: AVG IPC :2.03501: L2-Pf-HR :0.99132: L2-HR :0.78921: (Sim:0h1m30s) 

Warmup complete CPU  0 instructions:    2000080 cycles:     982797 (Simulation time: 0 hr 1 min 30 sec) 
Warmup complete CPU  1 instructions:    2000254 cycles:     982797 (Simulation time: 0 hr 1 min 30 sec) 
Warmup complete CPU  2 instructions:    2000282 cycles:     982797 (Simulation time: 0 hr 1 min 30 sec) 
Warmup complete CPU  3 instructions:    2000001 cycles:     982797 (Simulation time: 0 hr 1 min 30 sec) 

CPU  2 inst:    3000004 cyc:    1824765 now IPC :1.18751: AVG IPC :1.18736: L2-Pf-HR :0.99353: L2-HR :0.81286: (Sim:0h2m17s) 
CPU  1 inst:    3000004 cyc:    1827782 now IPC :1.18334: AVG IPC :1.18316: L2-Pf-HR :1.00000: L2-HR :0.81780: (Sim:0h2m17s) 
CPU  3 inst:    3000004 cyc:    1838885 now IPC :1.16811: AVG IPC :1.16811: L2-Pf-HR :0.99453: L2-HR :0.81800: (Sim:0h2m17s) 
CPU  0 inst:    3000004 cyc:    1838936 now IPC :1.16800: AVG IPC :1.16795: L2-Pf-HR :0.99901: L2-HR :0.81888: (Sim:0h2m17s) 
CPU  1 inst:    4000005 cyc:    2576870 now IPC :1.33496: AVG IPC :1.25449: L2-Pf-HR :0.96397: L2-HR :0.80642: (Sim:0h3m1s) 
CPU  2 inst:    4000005 cyc:    2580152 now IPC :1.32383: AVG IPC :1.25190: L2-Pf-HR :0.94223: L2-HR :0.79707: (Sim:0h3m1s) 
CPU  0 inst:    4000005 cyc:    2587333 now IPC :1.33619: AVG IPC :1.24642: L2-Pf-HR :0.96371: L2-HR :0.80711: (Sim:0h3m2s) 
CPU  3 inst:    4000005 cyc:    2588245 now IPC :1.33447: AVG IPC :1.24576: L2-Pf-HR :0.94820: L2-HR :0.80306: (Sim:0h3m2s) 
CPU  1 inst:    5000000 cyc:    3409700 now IPC :1.20072: AVG IPC :1.23604: L2-Pf-HR :0.97486: L2-HR :0.80541: (Sim:0h3m49s) 
CPU  2 inst:    5000000 cyc:    3420048 now IPC :1.19062: AVG IPC :1.23078: L2-Pf-HR :0.96103: L2-HR :0.80486: (Sim:0h3m49s) 
CPU  3 inst:    5000000 cyc:    3420559 now IPC :1.20146: AVG IPC :1.23064: L2-Pf-HR :0.96394: L2-HR :0.80697: (Sim:0h3m50s) 
CPU  0 inst:    5000000 cyc:    3423770 now IPC :1.19554: AVG IPC :1.22899: L2-Pf-HR :0.97434: L2-HR :0.80519: (Sim:0h3m50s) 
CPU  1 inst:    6000004 cyc:    4204680 now IPC :1.25790: AVG IPC :1.24143: L2-Pf-HR :0.97401: L2-HR :0.80859: (Sim:0h4m23s) 
CPU  2 inst:    6000004 cyc:    4215035 now IPC :1.25789: AVG IPC :1.23745: L2-Pf-HR :0.96932: L2-HR :0.81790: (Sim:0h4m23s) 
CPU  3 inst:    6000004 cyc:    4215747 now IPC :1.25757: AVG IPC :1.23726: L2-Pf-HR :0.96501: L2-HR :0.81497: (Sim:0h4m23s) 
CPU  0 inst:    6000004 cyc:    4220713 now IPC :1.25480: AVG IPC :1.23534: L2-Pf-HR :0.97645: L2-HR :0.81024: (Sim:0h4m23s) 
CPU  1 inst:    7000002 cyc:    5005587 now IPC :1.24858: AVG IPC :1.24286: L2-Pf-HR :0.97383: L2-HR :0.80962: (Sim:0h4m54s) 
CPU  2 inst:    7000002 cyc:    5016335 now IPC :1.24797: AVG IPC :1.23954: L2-Pf-HR :0.97070: L2-HR :0.82240: (Sim:0h4m55s) 
CPU  3 inst:    7000002 cyc:    5019022 now IPC :1.24490: AVG IPC :1.23878: L2-Pf-HR :0.96917: L2-HR :0.81853: (Sim:0h4m55s) 
CPU  0 inst:    7000002 cyc:    5025106 now IPC :1.24317: AVG IPC :1.23690: L2-Pf-HR :0.97935: L2-HR :0.81193: (Sim:0h4m55s) 
CPU  1 inst:    8000001 cyc:    5732827 now IPC :1.37506: AVG IPC :1.26310: L2-Pf-HR :0.96761: L2-HR :0.80549: (Sim:0h5m24s) 
CPU  2 inst:    8000001 cyc:    5796048 now IPC :1.28252: AVG IPC :1.24650: L2-Pf-HR :0.96892: L2-HR :0.81981: (Sim:0h5m26s) 
CPU  3 inst:    8000001 cyc:    5796255 now IPC :1.28661: AVG IPC :1.24651: L2-Pf-HR :0.96310: L2-HR :0.81487: (Sim:0h5m26s) 
CPU  0 inst:    8000001 cyc:    5796670 now IPC :1.29607: AVG IPC :1.24638: L2-Pf-HR :0.97811: L2-HR :0.81028: (Sim:0h5m26s) 
CPU  1 inst:    9000004 cyc:    6621667 now IPC :1.12507: AVG IPC :1.24134: L2-Pf-HR :0.97276: L2-HR :0.80783: (Sim:0h5m54s) 
CPU  0 inst:    9000004 cyc:    6913525 now IPC :0.89537: AVG IPC :1.18028: L2-Pf-HR :0.98061: L2-HR :0.81005: (Sim:0h6m3s) 
CPU  3 inst:    9000004 cyc:    6916510 now IPC :0.89266: AVG IPC :1.17970: L2-Pf-HR :0.96721: L2-HR :0.81402: (Sim:0h6m3s) 
CPU  2 inst:    9000004 cyc:    6941928 now IPC :0.87269: AVG IPC :1.17462: L2-Pf-HR :0.97257: L2-HR :0.81796: (Sim:0h6m4s) 
CPU  1 inst:   10000002 cyc:    7517808 now IPC :1.11589: AVG IPC :1.22414: L2-Pf-HR :0.97536: L2-HR :0.81281: (Sim:0h6m22s) 
CPU  0 inst:   10000002 cyc:    8107331 now IPC :0.83766: AVG IPC :1.12287: L2-Pf-HR :0.98266: L2-HR :0.81503: (Sim:0h6m39s) 
CPU  3 inst:   10000002 cyc:    8190579 now IPC :0.78489: AVG IPC :1.10991: L2-Pf-HR :0.97066: L2-HR :0.81851: (Sim:0h6m41s) 
CPU  2 inst:   10000002 cyc:    8209072 now IPC :0.78917: AVG IPC :1.10703: L2-Pf-HR :0.97506: L2-HR :0.82171: (Sim:0h6m42s) 
CPU  1 inst:   11000003 cyc:    8582084 now IPC :0.93961: AVG IPC :1.18429: L2-Pf-HR :0.97681: L2-HR :0.81613: (Sim:0h6m54s) 
CPU  0 inst:   11000003 cyc:    9043216 now IPC :1.06851: AVG IPC :1.11656: L2-Pf-HR :0.98425: L2-HR :0.81825: (Sim:0h7m9s) 
CPU  3 inst:   11000003 cyc:    9336516 now IPC :0.87265: AVG IPC :1.07736: L2-Pf-HR :0.97370: L2-HR :0.82201: (Sim:0h7m18s) 
CPU  2 inst:   11000003 cyc:    9363664 now IPC :0.86611: AVG IPC :1.07384: L2-Pf-HR :0.97682: L2-HR :0.82448: (Sim:0h7m19s) 
CPU  1 inst:   12000005 cyc:    9648166 now IPC :0.93802: AVG IPC :1.15399: L2-Pf-HR :0.97485: L2-HR :0.81457: (Sim:0h7m28s) 
CPU  0 inst:   12000005 cyc:   10029316 now IPC :1.01410: AVG IPC :1.10539: L2-Pf-HR :0.98244: L2-HR :0.81733: (Sim:0h7m41s) 
CPU  3 inst:   12000005 cyc:   10420229 now IPC :0.92276: AVG IPC :1.05961: L2-Pf-HR :0.97329: L2-HR :0.82189: (Sim:0h7m53s) 
CPU  2 inst:   12000005 cyc:   10451831 now IPC :0.91898: AVG IPC :1.05604: L2-Pf-HR :0.97494: L2-HR :0.82246: (Sim:0h7m54s) 
CPU  1 inst:   13000002 cyc:   10779700 now IPC :0.88375: AVG IPC :1.12278: L2-Pf-HR :0.97698: L2-HR :0.81438: (Sim:0h8m4s) 
CPU  0 inst:   13000002 cyc:   11183485 now IPC :0.86642: AVG IPC :1.07835: L2-Pf-HR :0.98415: L2-HR :0.81720: (Sim:0h8m17s) 
CPU  3 inst:   13000002 cyc:   11789268 now IPC :0.73044: AVG IPC :1.01791: L2-Pf-HR :0.97529: L2-HR :0.82044: (Sim:0h8m37s) 
CPU  2 inst:   13000002 cyc:   11833862 now IPC :0.72357: AVG IPC :1.01370: L2-Pf-HR :0.97681: L2-HR :0.82099: (Sim:0h8m38s) 
CPU  1 inst:   14000005 cyc:   12162033 now IPC :0.72342: AVG IPC :1.07340: L2-Pf-HR :0.97925: L2-HR :0.81809: (Sim:0h8m47s) 
CPU  0 inst:   14000002 cyc:   12297277 now IPC :0.89783: AVG IPC :1.06058: L2-Pf-HR :0.98545: L2-HR :0.82021: (Sim:0h8m51s) 
CPU  3 inst:   14000005 cyc:   13265880 now IPC :0.67723: AVG IPC :0.97695: L2-Pf-HR :0.97733: L2-HR :0.82225: (Sim:0h9m17s) 
CPU  2 inst:   14000003 cyc:   13308420 now IPC :0.67817: AVG IPC :0.97356: L2-Pf-HR :0.97887: L2-HR :0.82323: (Sim:0h9m18s) 
CPU  1 inst:   15000003 cyc:   13460908 now IPC :0.76990: AVG IPC :1.04180: L2-Pf-HR :0.98036: L2-HR :0.82071: (Sim:0h9m24s) 
CPU  0 inst:   15000003 cyc:   13699773 now IPC :0.71302: AVG IPC :1.02225: L2-Pf-HR :0.98622: L2-HR :0.82284: (Sim:0h9m32s) 
CPU  1 inst:   16000000 cyc:   14585375 now IPC :0.88931: AVG IPC :1.02920: L2-Pf-HR :0.97941: L2-HR :0.81962: (Sim:0h10m2s) 
CPU  3 inst:   15000003 cyc:   14708649 now IPC :0.69311: AVG IPC :0.94712: L2-Pf-HR :0.97882: L2-HR :0.82442: (Sim:0h10m7s) 
CPU  2 inst:   15000003 cyc:   14726962 now IPC :0.70495: AVG IPC :0.94584: L2-Pf-HR :0.98034: L2-HR :0.82546: (Sim:0h10m8s) 
CPU  0 inst:   16000000 cyc:   14961520 now IPC :0.79255: AVG IPC :1.00152: L2-Pf-HR :0.98512: L2-HR :0.82222: (Sim:0h10m16s) 
CPU  1 inst:   17000000 cyc:   15766257 now IPC :0.84682: AVG IPC :1.01463: L2-Pf-HR :0.98025: L2-HR :0.81806: (Sim:0h10m52s) 
CPU  3 inst:   16000000 cyc:   15963247 now IPC :0.79707: AVG IPC :0.93455: L2-Pf-HR :0.97949: L2-HR :0.82473: (Sim:0h11m2s) 
CPU  2 inst:   16000000 cyc:   15974524 now IPC :0.80156: AVG IPC :0.93383: L2-Pf-HR :0.97962: L2-HR :0.82454: (Sim:0h11m2s) 
CPU  0 inst:   17000000 cyc:   16119449 now IPC :0.86361: AVG IPC :0.99097: L2-Pf-HR :0.98578: L2-HR :0.82046: (Sim:0h11m10s) 
CPU  1 inst:   18000000 cyc:   16933892 now IPC :0.85643: AVG IPC :1.00305: L2-Pf-HR :0.98185: L2-HR :0.82130: (Sim:0h11m50s) 
CPU  0 inst:   18000000 cyc:   17208002 now IPC :0.91865: AVG IPC :0.98612: L2-Pf-HR :0.98698: L2-HR :0.82371: (Sim:0h12m4s) 
CPU  2 inst:   17000000 cyc:   17293941 now IPC :0.75791: AVG IPC :0.91960: L2-Pf-HR :0.98018: L2-HR :0.82204: (Sim:0h12m8s) 
CPU  3 inst:   17000000 cyc:   17303461 now IPC :0.74615: AVG IPC :0.91908: L2-Pf-HR :0.98020: L2-HR :0.82222: (Sim:0h12m9s) 
CPU  1 inst:   19000001 cyc:   18076871 now IPC :0.87491: AVG IPC :0.99448: L2-Pf-HR :0.98247: L2-HR :0.82221: (Sim:0h12m49s) 
CPU  0 inst:   19000001 cyc:   18263380 now IPC :0.94753: AVG IPC :0.98376: L2-Pf-HR :0.98746: L2-HR :0.82481: (Sim:0h12m59s) 
CPU  2 inst:   18000000 cyc:   18546629 now IPC :0.79828: AVG IPC :0.91095: L2-Pf-HR :0.98129: L2-HR :0.82357: (Sim:0h13m13s) 
CPU  3 inst:   18000000 cyc:   18551312 now IPC :0.80138: AVG IPC :0.91072: L2-Pf-HR :0.98126: L2-HR :0.82355: (Sim:0h13m14s) 
CPU  1 inst:   20000000 cyc:   19299774 now IPC :0.81773: AVG IPC :0.98268: L2-Pf-HR :0.98169: L2-HR :0.82212: (Sim:0h13m49s) 
CPU  0 inst:   20000000 cyc:   19395699 now IPC :0.88314: AVG IPC :0.97757: L2-Pf-HR :0.98686: L2-HR :0.82519: (Sim:0h13m54s) 
CPU  3 inst:   19000001 cyc:   19980142 now IPC :0.69987: AVG IPC :0.89486: L2-Pf-HR :0.98214: L2-HR :0.82444: (Sim:0h14m20s) 
CPU  2 inst:   19000001 cyc:   20010328 now IPC :0.68320: AVG IPC :0.89343: L2-Pf-HR :0.98224: L2-HR :0.82474: (Sim:0h14m22s) 
CPU  1 inst:   21000002 cyc:   20572727 now IPC :0.78558: AVG IPC :0.96987: L2-Pf-HR :0.98181: L2-HR :0.82014: (Sim:0h14m48s) 
CPU  0 inst:   21000002 cyc:   20655864 now IPC :0.79355: AVG IPC :0.96578: L2-Pf-HR :0.98705: L2-HR :0.82322: (Sim:0h14m53s) 
CPU  3 inst:   20000000 cyc:   21207730 now IPC :0.81460: AVG IPC :0.88999: L2-Pf-HR :0.98196: L2-HR :0.82477: (Sim:0h15m20s) 
CPU  2 inst:   20000000 cyc:   21249382 now IPC :0.80707: AVG IPC :0.88815: L2-Pf-HR :0.98171: L2-HR :0.82478: (Sim:0h15m21s) 
CPU  1 inst:   22000004 cyc:   21714428 now IPC :0.87589: AVG IPC :0.96470: L2-Pf-HR :0.98276: L2-HR :0.82178: (Sim:0h15m37s) 
CPU  0 inst:   22000004 cyc:   21774129 now IPC :0.89424: AVG IPC :0.96194: L2-Pf-HR :0.98792: L2-HR :0.82526: (Sim:0h15m40s) 
CPU  3 inst:   21000002 cyc:   22452624 now IPC :0.80328: AVG IPC :0.88496: L2-Pf-HR :0.98228: L2-HR :0.82265: (Sim:0h16m6s) 
CPU  2 inst:   21000001 cyc:   22582747 now IPC :0.74998: AVG IPC :0.87962: L2-Pf-HR :0.98181: L2-HR :0.82243: (Sim:0h16m11s) 
CPU  1 inst:   23000002 cyc:   23246328 now IPC :0.65278: AVG IPC :0.94324: L2-Pf-HR :0.98344: L2-HR :0.82333: (Sim:0h16m39s) 
CPU  0 inst:   23000002 cyc:   23257360 now IPC :0.67420: AVG IPC :0.94278: L2-Pf-HR :0.98858: L2-HR :0.82714: (Sim:0h16m39s) 
CPU  3 inst:   22000004 cyc:   23558951 now IPC :0.90389: AVG IPC :0.88589: L2-Pf-HR :0.98280: L2-HR :0.82330: (Sim:0h16m53s) 
CPU  2 inst:   22000004 cyc:   23957234 now IPC :0.72755: AVG IPC :0.87052: L2-Pf-HR :0.98276: L2-HR :0.82395: (Sim:0h17m10s) 
CPU  1 inst:   24000003 cyc:   24540533 now IPC :0.77268: AVG IPC :0.93387: L2-Pf-HR :0.98306: L2-HR :0.82369: (Sim:0h17m39s) 
CPU  0 inst:   24000003 cyc:   24569161 now IPC :0.76231: AVG IPC :0.93274: L2-Pf-HR :0.98810: L2-HR :0.82752: (Sim:0h17m40s) 
CPU  3 inst:   23000002 cyc:   24604570 now IPC :0.95637: AVG IPC :0.88901: L2-Pf-HR :0.98320: L2-HR :0.82399: (Sim:0h17m42s) 
CPU  2 inst:   23000002 cyc:   25066340 now IPC :0.90163: AVG IPC :0.87195: L2-Pf-HR :0.98334: L2-HR :0.82544: (Sim:0h18m5s) 
CPU  3 inst:   24000003 cyc:   25720409 now IPC :0.89619: AVG IPC :0.88933: L2-Pf-HR :0.98334: L2-HR :0.82447: (Sim:0h18m39s) 
CPU  1 inst:   25000003 cyc:   25753558 now IPC :0.82439: AVG IPC :0.92850: L2-Pf-HR :0.98270: L2-HR :0.82115: (Sim:0h18m41s) 
CPU  0 inst:   25000000 cyc:   25800596 now IPC :0.81206: AVG IPC :0.92675: L2-Pf-HR :0.98815: L2-HR :0.82537: (Sim:0h18m43s) 
CPU  2 inst:   24000003 cyc:   26210231 now IPC :0.87421: AVG IPC :0.87206: L2-Pf-HR :0.98293: L2-HR :0.82582: (Sim:0h19m4s) 
CPU  3 inst:   25000004 cyc:   26974279 now IPC :0.79753: AVG IPC :0.88491: L2-Pf-HR :0.98321: L2-HR :0.82238: (Sim:0h19m40s) 
CPU  1 inst:   26000002 cyc:   27088742 now IPC :0.74896: AVG IPC :0.91932: L2-Pf-HR :0.98361: L2-HR :0.82283: (Sim:0h19m45s) 
CPU  0 inst:   26000002 cyc:   27121620 now IPC :0.75699: AVG IPC :0.91817: L2-Pf-HR :0.98880: L2-HR :0.82712: (Sim:0h19m47s) 
CPU  2 inst:   25000000 cyc:   27445689 now IPC :0.80941: AVG IPC :0.86913: L2-Pf-HR :0.98270: L2-HR :0.82331: (Sim:0h20m2s) 
CPU  3 inst:   26000002 cyc:   28202959 now IPC :0.81388: AVG IPC :0.88170: L2-Pf-HR :0.98399: L2-HR :0.82402: (Sim:0h20m38s) 
CPU  1 inst:   27000000 cyc:   28386246 now IPC :0.77071: AVG IPC :0.91228: L2-Pf-HR :0.98432: L2-HR :0.82411: (Sim:0h20m46s) 
CPU  0 inst:   27000000 cyc:   28402178 now IPC :0.78091: AVG IPC :0.91176: L2-Pf-HR :0.98916: L2-HR :0.82824: (Sim:0h20m47s) 
CPU  2 inst:   26000002 cyc:   28437081 now IPC :1.00868: AVG IPC :0.87417: L2-Pf-HR :0.98343: L2-HR :0.82461: (Sim:0h20m49s) 
CPU  3 inst:   27000000 cyc:   29504128 now IPC :0.76854: AVG IPC :0.87654: L2-Pf-HR :0.98440: L2-HR :0.82506: (Sim:0h21m35s) 
CPU  2 inst:   27000000 cyc:   29603082 now IPC :0.85763: AVG IPC :0.87350: L2-Pf-HR :0.98374: L2-HR :0.82528: (Sim:0h21m40s) 
CPU  1 inst:   28000004 cyc:   29769173 now IPC :0.72311: AVG IPC :0.90320: L2-Pf-HR :0.98425: L2-HR :0.82475: (Sim:0h21m47s) 
CPU  0 inst:   28000004 cyc:   29769775 now IPC :0.73121: AVG IPC :0.90318: L2-Pf-HR :0.98905: L2-HR :0.82893: (Sim:0h21m47s) 
CPU  3 inst:   28000004 cyc:   30737544 now IPC :0.81076: AVG IPC :0.87381: L2-Pf-HR :0.98487: L2-HR :0.82637: (Sim:0h22m30s) 
CPU  2 inst:   28000004 cyc:   30792038 now IPC :0.84108: AVG IPC :0.87220: L2-Pf-HR :0.98359: L2-HR :0.82627: (Sim:0h22m33s) 
CPU  0 inst:   29000002 cyc:   31120225 now IPC :0.74049: AVG IPC :0.89589: L2-Pf-HR :0.98868: L2-HR :0.82642: (Sim:0h22m47s) 
CPU  1 inst:   29000002 cyc:   31125445 now IPC :0.73731: AVG IPC :0.89573: L2-Pf-HR :0.98423: L2-HR :0.82258: (Sim:0h22m47s) 
CPU  3 inst:   29000002 cyc:   31974776 now IPC :0.80825: AVG IPC :0.87119: L2-Pf-HR :0.98462: L2-HR :0.82403: (Sim:0h23m28s) 
CPU  2 inst:   29000002 cyc:   32043910 now IPC :0.79880: AVG IPC :0.86925: L2-Pf-HR :0.98314: L2-HR :0.82363: (Sim:0h23m31s) 
CPU  1 inst:   30000000 cyc:   32502810 now IPC :0.72602: AVG IPC :0.88832: L2-Pf-HR :0.98494: L2-HR :0.82418: (Sim:0h23m53s) 
CPU  0 inst:   30000000 cyc:   32503943 now IPC :0.72269: AVG IPC :0.88829: L2-Pf-HR :0.98918: L2-HR :0.82787: (Sim:0h23m53s) 
CPU  3 inst:   30000000 cyc:   33038575 now IPC :0.94003: AVG IPC :0.87348: L2-Pf-HR :0.98513: L2-HR :0.82518: (Sim:0h24m19s) 
CPU  2 inst:   30000000 cyc:   33379910 now IPC :0.74850: AVG IPC :0.86427: L2-Pf-HR :0.98387: L2-HR :0.82506: (Sim:0h24m36s) 
CPU  0 inst:   31000004 cyc:   33840243 now IPC :0.74834: AVG IPC :0.88260: L2-Pf-HR :0.98942: L2-HR :0.82851: (Sim:0h24m59s) 
CPU  1 inst:   31000004 cyc:   33844320 now IPC :0.74543: AVG IPC :0.88248: L2-Pf-HR :0.98532: L2-HR :0.82498: (Sim:0h24m59s) 
CPU  3 inst:   31000004 cyc:   34085028 now IPC :0.95561: AVG IPC :0.87607: L2-Pf-HR :0.98521: L2-HR :0.82531: (Sim:0h25m10s) 
CPU  2 inst:   31000004 cyc:   34594873 now IPC :0.82307: AVG IPC :0.86278: L2-Pf-HR :0.98411: L2-HR :0.82538: (Sim:0h25m34s) 
CPU  1 inst:   32000002 cyc:   35103349 now IPC :0.79426: AVG IPC :0.87923: L2-Pf-HR :0.98549: L2-HR :0.82603: (Sim:0h25m59s) 
CPU  0 inst:   32000002 cyc:   35107511 now IPC :0.78910: AVG IPC :0.87913: L2-Pf-HR :0.98969: L2-HR :0.82952: (Sim:0h26m0s) 
CPU  3 inst:   32000002 cyc:   35187072 now IPC :0.90740: AVG IPC :0.87708: L2-Pf-HR :0.98516: L2-HR :0.82591: (Sim:0h26m3s) 
CPU  2 inst:   32000002 cyc:   35684262 now IPC :0.91794: AVG IPC :0.86451: L2-Pf-HR :0.98382: L2-HR :0.82603: (Sim:0h26m28s) 
CPU  1 inst:   33000000 cyc:   36318840 now IPC :0.82271: AVG IPC :0.87728: L2-Pf-HR :0.98507: L2-HR :0.82364: (Sim:0h26m53s) 
CPU  0 inst:   33000000 cyc:   36485040 now IPC :0.72594: AVG IPC :0.87318: L2-Pf-HR :0.98939: L2-HR :0.82719: (Sim:0h26m55s) 
CPU  3 inst:   33000000 cyc:   36513698 now IPC :0.75379: AVG IPC :0.87248: L2-Pf-HR :0.98458: L2-HR :0.82346: (Sim:0h26m56s) 
CPU  2 inst:   33000000 cyc:   37635165 now IPC :0.51258: AVG IPC :0.84578: L2-Pf-HR :0.98326: L2-HR :0.82349: (Sim:0h27m18s) 
CPU  1 inst:   34000000 cyc:   55880183 now IPC :0.05112: AVG IPC :0.58290: L2-Pf-HR :0.98507: L2-HR :0.76358: (Sim:0h36m36s) 
CPU  0 inst:   34000000 cyc:   56856295 now IPC :0.04909: AVG IPC :0.57272: L2-Pf-HR :0.98939: L2-HR :0.76614: (Sim:0h37m8s) 
CPU  3 inst:   34000000 cyc:   56945203 now IPC :0.04894: AVG IPC :0.57181: L2-Pf-HR :0.98458: L2-HR :0.76333: (Sim:0h37m10s) 
CPU  2 inst:   34000000 cyc:   59166467 now IPC :0.04644: AVG IPC :0.54998: L2-Pf-HR :0.98326: L2-HR :0.76334: (Sim:0h38m27s) 
CPU  1 inst:   35000002 cyc:   66233028 now IPC :0.09659: AVG IPC :0.50574: L2-Pf-HR :0.98507: L2-HR :0.74703: (Sim:0h41m56s) 
CPU  0 inst:   35000002 cyc:   66447302 now IPC :0.10426: AVG IPC :0.50409: L2-Pf-HR :0.98939: L2-HR :0.74938: (Sim:0h42m2s) 
CPU  3 inst:   35000002 cyc:   66483448 now IPC :0.10484: AVG IPC :0.50381: L2-Pf-HR :0.98458: L2-HR :0.74679: (Sim:0h42m3s) 
CPU  2 inst:   35000002 cyc:   66874190 now IPC :0.12974: AVG IPC :0.50082: L2-Pf-HR :0.98325: L2-HR :0.74678: (Sim:0h42m16s) 
CPU  1 inst:   36000001 cyc:   72420280 now IPC :0.16162: AVG IPC :0.47594: L2-Pf-HR :0.98492: L2-HR :0.73909: (Sim:0h45m7s) 
CPU  0 inst:   36000001 cyc:   72625521 now IPC :0.16186: AVG IPC :0.47458: L2-Pf-HR :0.98939: L2-HR :0.74135: (Sim:0h45m13s) 
CPU  3 inst:   36000001 cyc:   72674980 now IPC :0.16151: AVG IPC :0.47425: L2-Pf-HR :0.98458: L2-HR :0.73884: (Sim:0h45m14s) 
CPU  2 inst:   36000001 cyc:   73051278 now IPC :0.16189: AVG IPC :0.47177: L2-Pf-HR :0.98314: L2-HR :0.73883: (Sim:0h45m26s) 
CPU  1 inst:   37000001 cyc:   78572035 now IPC :0.16256: AVG IPC :0.45109: L2-Pf-HR :0.98490: L2-HR :0.73145: (Sim:0h48m24s) 
CPU  0 inst:   37000001 cyc:   78773638 now IPC :0.16265: AVG IPC :0.44992: L2-Pf-HR :0.98926: L2-HR :0.73363: (Sim:0h48m31s) 
CPU  3 inst:   37000001 cyc:   78844099 now IPC :0.16210: AVG IPC :0.44952: L2-Pf-HR :0.98444: L2-HR :0.73119: (Sim:0h48m34s) 
CPU  2 inst:   37000001 cyc:   79213694 now IPC :0.16227: AVG IPC :0.44739: L2-Pf-HR :0.98312: L2-HR :0.73117: (Sim:0h48m45s) 
CPU  1 inst:   38000000 cyc:   84607137 now IPC :0.16570: AVG IPC :0.43049: L2-Pf-HR :0.98484: L2-HR :0.72409: (Sim:0h51m48s) 
CPU  0 inst:   38000000 cyc:   84801291 now IPC :0.16590: AVG IPC :0.42950: L2-Pf-HR :0.98919: L2-HR :0.72619: (Sim:0h51m55s) 
CPU  3 inst:   38000000 cyc:   84881578 now IPC :0.16563: AVG IPC :0.42909: L2-Pf-HR :0.98439: L2-HR :0.72383: (Sim:0h51m57s) 
CPU  2 inst:   38000000 cyc:   85224522 now IPC :0.16637: AVG IPC :0.42734: L2-Pf-HR :0.98311: L2-HR :0.72380: (Sim:0h52m8s) 
CPU  1 inst:   39000000 cyc:   90568510 now IPC :0.16775: AVG IPC :0.41301: L2-Pf-HR :0.98466: L2-HR :0.71700: (Sim:0h54m56s) 
CPU  0 inst:   39000000 cyc:   90774781 now IPC :0.16741: AVG IPC :0.41206: L2-Pf-HR :0.98906: L2-HR :0.71903: (Sim:0h55m4s) 
CPU  3 inst:   39000000 cyc:   90860126 now IPC :0.16726: AVG IPC :0.41167: L2-Pf-HR :0.98432: L2-HR :0.71673: (Sim:0h55m6s) 
CPU  2 inst:   39000000 cyc:   91206993 now IPC :0.16716: AVG IPC :0.41009: L2-Pf-HR :0.98306: L2-HR :0.71670: (Sim:0h55m19s) 
Caught signal: 2
     > Finished combination: TraceType=770-tot Sim:78000000 Prefetcher=L2isb_ideal L1=isb_ideal
