TRACE: [662000000][OPT-350M]_[h16][s1024][d64] Warmup: 2000000 NumTraces: 662000000
L1:isb_ideal:L2:isb_ideal
*************************************************
   ChampSim Multicore Out-of-Order Simulator
   Last compiled: Oct 29 2024 18:53:52
*************************************************

trace_0 770-tot_memTraces_v3_rexz/memTraces[662000000][OPT-350M]_[h16][s1024][d64].champsim.9.xz
trace_1 770-tot_memTraces_v3_rexz/memTraces[662000000][OPT-350M]_[h16][s1024][d64].champsim.9.xz
trace_2 770-tot_memTraces_v3_rexz/memTraces[662000000][OPT-350M]_[h16][s1024][d64].champsim.9.xz
trace_3 770-tot_memTraces_v3_rexz/memTraces[662000000][OPT-350M]_[h16][s1024][d64].champsim.9.xz
L1D: Ideal ISB Prefetching
Ideal ISB Prefetching
L1D: Ideal ISB Prefetching
Ideal ISB Prefetching
L1D: Ideal ISB Prefetching
Ideal ISB Prefetching
L1D: Ideal ISB Prefetching
Ideal ISB Prefetching
MAIN.cc ln 751 stats print skipped
CPU  2 inst:    1000001 cyc:     499951 now IPC :2.00020: AVG IPC :2.00020: L2-Pf-HR :0.99097: L2-HR :0.75960: (Sim:0h0m48s) 
CPU  1 inst:    1000001 cyc:     499985 now IPC :2.00006: AVG IPC :2.00006: L2-Pf-HR :0.98865: L2-HR :0.76254: (Sim:0h0m48s) 
CPU  0 inst:    1000001 cyc:     499988 now IPC :2.00005: AVG IPC :2.00005: L2-Pf-HR :0.99413: L2-HR :0.77107: (Sim:0h0m48s) 
CPU  3 inst:    1000001 cyc:     499991 now IPC :2.00004: AVG IPC :2.00004: L2-Pf-HR :0.98809: L2-HR :0.76440: (Sim:0h0m48s) 
CPU  2 inst:    2000000 cyc:     984323 now IPC :2.06453: AVG IPC :2.03185: L2-Pf-HR :0.98998: L2-HR :0.78945: (Sim:0h1m40s) 
CPU  1 inst:    2000000 cyc:     984495 now IPC :2.06394: AVG IPC :2.03150: L2-Pf-HR :0.98779: L2-HR :0.78948: (Sim:0h1m40s) 
CPU  0 inst:    2000000 cyc:     984580 now IPC :2.06359: AVG IPC :2.03132: L2-Pf-HR :0.99356: L2-HR :0.79788: (Sim:0h1m40s) 
CPU  3 inst:    2000000 cyc:     984584 now IPC :2.06359: AVG IPC :2.03131: L2-Pf-HR :0.98734: L2-HR :0.78535: (Sim:0h1m40s) 

Warmup complete CPU  0 instructions:    2000011 cycles:     984585 (Simulation time: 0 hr 1 min 40 sec) 
Warmup complete CPU  1 instructions:    2000267 cycles:     984585 (Simulation time: 0 hr 1 min 40 sec) 
Warmup complete CPU  2 instructions:    2000505 cycles:     984585 (Simulation time: 0 hr 1 min 40 sec) 
Warmup complete CPU  3 instructions:    2000001 cycles:     984585 (Simulation time: 0 hr 1 min 40 sec) 

CPU  1 inst:    3000000 cyc:    1892161 now IPC :1.10173: AVG IPC :1.10154: L2-Pf-HR :0.99284: L2-HR :0.80537: (Sim:0h2m32s) 
CPU  0 inst:    3000000 cyc:    1892569 now IPC :1.10133: AVG IPC :1.10133: L2-Pf-HR :0.99578: L2-HR :0.80626: (Sim:0h2m33s) 
CPU  3 inst:    3000000 cyc:    1893422 now IPC :1.10031: AVG IPC :1.10031: L2-Pf-HR :0.99198: L2-HR :0.79465: (Sim:0h2m33s) 
CPU  2 inst:    3000000 cyc:    1899287 now IPC :1.09294: AVG IPC :1.09270: L2-Pf-HR :0.99294: L2-HR :0.81309: (Sim:0h2m33s) 
CPU  1 inst:    4000002 cyc:    2802773 now IPC :1.09816: AVG IPC :1.09985: L2-Pf-HR :0.99397: L2-HR :0.80061: (Sim:0h3m25s) 
CPU  3 inst:    4000002 cyc:    2803381 now IPC :1.09895: AVG IPC :1.09963: L2-Pf-HR :0.99213: L2-HR :0.79411: (Sim:0h3m25s) 
CPU  0 inst:    4000002 cyc:    2807744 now IPC :1.09269: AVG IPC :1.09699: L2-Pf-HR :0.99583: L2-HR :0.80337: (Sim:0h3m26s) 
CPU  2 inst:    4000002 cyc:    2828396 now IPC :1.07630: AVG IPC :1.08444: L2-Pf-HR :0.99309: L2-HR :0.81129: (Sim:0h3m27s) 
CPU  1 inst:    5000003 cyc:    3728219 now IPC :1.08056: AVG IPC :1.09334: L2-Pf-HR :0.99397: L2-HR :0.79697: (Sim:0h4m17s) 
CPU  3 inst:    5000003 cyc:    3728978 now IPC :1.08038: AVG IPC :1.09314: L2-Pf-HR :0.99166: L2-HR :0.79106: (Sim:0h4m17s) 
CPU  0 inst:    5000003 cyc:    3752293 now IPC :1.05871: AVG IPC :1.08393: L2-Pf-HR :0.99608: L2-HR :0.80385: (Sim:0h4m18s) 
CPU  2 inst:    5000003 cyc:    3772940 now IPC :1.05871: AVG IPC :1.07572: L2-Pf-HR :0.99340: L2-HR :0.80760: (Sim:0h4m18s) 
CPU  1 inst:    6000004 cyc:    4587358 now IPC :1.16396: AVG IPC :1.11018: L2-Pf-HR :0.99410: L2-HR :0.79377: (Sim:0h4m51s) 
CPU  3 inst:    6000004 cyc:    4587563 now IPC :1.16471: AVG IPC :1.11019: L2-Pf-HR :0.99219: L2-HR :0.78800: (Sim:0h4m51s) 
CPU  0 inst:    6000004 cyc:    4652939 now IPC :1.11032: AVG IPC :1.09041: L2-Pf-HR :0.99637: L2-HR :0.80118: (Sim:0h4m55s) 
CPU  2 inst:    6000004 cyc:    4667159 now IPC :1.11830: AVG IPC :1.08606: L2-Pf-HR :0.99383: L2-HR :0.80271: (Sim:0h4m56s) 
CPU  3 inst:    7000001 cyc:    5743085 now IPC :0.86541: AVG IPC :1.05075: L2-Pf-HR :0.98065: L2-HR :0.79061: (Sim:0h5m40s) 
CPU  1 inst:    7000001 cyc:    5765030 now IPC :0.84913: AVG IPC :1.04587: L2-Pf-HR :0.98003: L2-HR :0.79526: (Sim:0h5m41s) 
CPU  0 inst:    7000001 cyc:    5845966 now IPC :0.83820: AVG IPC :1.02851: L2-Pf-HR :0.98073: L2-HR :0.80199: (Sim:0h5m45s) 
CPU  2 inst:    7000001 cyc:    5850490 now IPC :0.84507: AVG IPC :1.02745: L2-Pf-HR :0.97969: L2-HR :0.80267: (Sim:0h5m46s) 
CPU  3 inst:    8000001 cyc:    6667653 now IPC :1.08159: AVG IPC :1.05577: L2-Pf-HR :0.97446: L2-HR :0.79308: (Sim:0h6m22s) 
CPU  1 inst:    8000001 cyc:    6798276 now IPC :0.96782: AVG IPC :1.03200: L2-Pf-HR :0.97060: L2-HR :0.79778: (Sim:0h6m28s) 
CPU  0 inst:    8000001 cyc:    6909888 now IPC :0.93992: AVG IPC :1.01260: L2-Pf-HR :0.97308: L2-HR :0.80293: (Sim:0h6m32s) 
CPU  2 inst:    8000001 cyc:    6921166 now IPC :0.93399: AVG IPC :1.01060: L2-Pf-HR :0.97410: L2-HR :0.80280: (Sim:0h6m33s) 
CPU  3 inst:    9000003 cyc:    7461758 now IPC :1.25928: AVG IPC :1.08072: L2-Pf-HR :0.97157: L2-HR :0.79366: (Sim:0h6m55s) 
CPU  1 inst:    9000003 cyc:    7613496 now IPC :1.22667: AVG IPC :1.05594: L2-Pf-HR :0.96878: L2-HR :0.79705: (Sim:0h7m1s) 
CPU  0 inst:    9000003 cyc:    7824804 now IPC :1.09300: AVG IPC :1.02336: L2-Pf-HR :0.96998: L2-HR :0.80234: (Sim:0h7m11s) 
CPU  2 inst:    9000003 cyc:    7832973 now IPC :1.09673: AVG IPC :1.02207: L2-Pf-HR :0.97126: L2-HR :0.80368: (Sim:0h7m11s) 
CPU  3 inst:   10000000 cyc:    8256347 now IPC :1.25851: AVG IPC :1.10015: L2-Pf-HR :0.96863: L2-HR :0.79325: (Sim:0h7m38s) 
CPU  1 inst:   10000000 cyc:    8422654 now IPC :1.23585: AVG IPC :1.07551: L2-Pf-HR :0.96744: L2-HR :0.79635: (Sim:0h7m50s) 
CPU  2 inst:   10000005 cyc:    8795788 now IPC :1.03862: AVG IPC :1.02411: L2-Pf-HR :0.96820: L2-HR :0.80383: (Sim:0h8m13s) 
CPU  0 inst:   10000000 cyc:    8803659 now IPC :1.02160: AVG IPC :1.02314: L2-Pf-HR :0.96835: L2-HR :0.80151: (Sim:0h8m13s) 
CPU  3 inst:   11000002 cyc:    9171449 now IPC :1.09278: AVG IPC :1.09932: L2-Pf-HR :0.96855: L2-HR :0.79319: (Sim:0h8m36s) 
CPU  1 inst:   11000002 cyc:    9256624 now IPC :1.19909: AVG IPC :1.08797: L2-Pf-HR :0.96713: L2-HR :0.79597: (Sim:0h8m41s) 
CPU  2 inst:   11000002 cyc:    9873770 now IPC :0.92766: AVG IPC :1.01241: L2-Pf-HR :0.96680: L2-HR :0.80398: (Sim:0h9m16s) 
CPU  0 inst:   11000002 cyc:    9874471 now IPC :0.93387: AVG IPC :1.01239: L2-Pf-HR :0.96754: L2-HR :0.80136: (Sim:0h9m16s) 
CPU  3 inst:   12000002 cyc:   10291457 now IPC :0.89285: AVG IPC :1.07447: L2-Pf-HR :0.96972: L2-HR :0.79337: (Sim:0h9m39s) 
CPU  1 inst:   12000002 cyc:   10302198 now IPC :0.95641: AVG IPC :1.07321: L2-Pf-HR :0.96821: L2-HR :0.79588: (Sim:0h9m39s) 
CPU  2 inst:   12000002 cyc:   11102717 now IPC :0.81370: AVG IPC :0.98827: L2-Pf-HR :0.96735: L2-HR :0.80414: (Sim:0h10m19s) 
CPU  0 inst:   12000002 cyc:   11121135 now IPC :0.80214: AVG IPC :0.98653: L2-Pf-HR :0.96789: L2-HR :0.80158: (Sim:0h10m20s) 
CPU  1 inst:   13000004 cyc:   11714080 now IPC :0.70828: AVG IPC :1.02519: L2-Pf-HR :0.96627: L2-HR :0.79725: (Sim:0h10m48s) 
CPU  3 inst:   13000004 cyc:   11721951 now IPC :0.69906: AVG IPC :1.02446: L2-Pf-HR :0.96772: L2-HR :0.79492: (Sim:0h10m49s) 
CPU  2 inst:   13000004 cyc:   12427785 now IPC :0.75468: AVG IPC :0.96123: L2-Pf-HR :0.96523: L2-HR :0.80582: (Sim:0h11m28s) 
CPU  0 inst:   13000004 cyc:   12443731 now IPC :0.75609: AVG IPC :0.95993: L2-Pf-HR :0.96531: L2-HR :0.80287: (Sim:0h11m29s) 
CPU  1 inst:   14000003 cyc:   12802504 now IPC :0.91876: AVG IPC :1.01538: L2-Pf-HR :0.96577: L2-HR :0.79900: (Sim:0h11m49s) 
CPU  3 inst:   14000001 cyc:   12853510 now IPC :0.88373: AVG IPC :1.01104: L2-Pf-HR :0.96724: L2-HR :0.79707: (Sim:0h11m52s) 
CPU  2 inst:   14000004 cyc:   13531755 now IPC :0.90582: AVG IPC :0.95635: L2-Pf-HR :0.96582: L2-HR :0.80729: (Sim:0h12m28s) 
CPU  0 inst:   14000005 cyc:   13548842 now IPC :0.90489: AVG IPC :0.95509: L2-Pf-HR :0.96506: L2-HR :0.80408: (Sim:0h12m29s) 
CPU  1 inst:   15000000 cyc:   13807558 now IPC :0.99497: AVG IPC :1.01378: L2-Pf-HR :0.96608: L2-HR :0.80041: (Sim:0h12m43s) 
CPU  3 inst:   15000000 cyc:   13897408 now IPC :0.95795: AVG IPC :1.00675: L2-Pf-HR :0.96703: L2-HR :0.79863: (Sim:0h12m47s) 
CPU  0 inst:   15000000 cyc:   14711672 now IPC :0.85997: AVG IPC :0.94703: L2-Pf-HR :0.96529: L2-HR :0.80522: (Sim:0h13m23s) 
CPU  2 inst:   15000000 cyc:   14743213 now IPC :0.82545: AVG IPC :0.94482: L2-Pf-HR :0.96638: L2-HR :0.80913: (Sim:0h13m24s) 
CPU  1 inst:   16000000 cyc:   14870231 now IPC :0.94102: AVG IPC :1.00822: L2-Pf-HR :0.96639: L2-HR :0.80154: (Sim:0h13m28s) 
CPU  3 inst:   16000000 cyc:   14926217 now IPC :0.97200: AVG IPC :1.00419: L2-Pf-HR :0.96761: L2-HR :0.80022: (Sim:0h13m30s) 
CPU  0 inst:   16000000 cyc:   16055250 now IPC :0.74428: AVG IPC :0.92896: L2-Pf-HR :0.96601: L2-HR :0.80706: (Sim:0h14m16s) 
CPU  2 inst:   16000000 cyc:   16105673 now IPC :0.73397: AVG IPC :0.92583: L2-Pf-HR :0.96724: L2-HR :0.81108: (Sim:0h14m18s) 
CPU  1 inst:   17000002 cyc:   16458622 now IPC :0.62957: AVG IPC :0.96935: L2-Pf-HR :0.96650: L2-HR :0.79986: (Sim:0h14m32s) 
CPU  3 inst:   17000002 cyc:   16583834 now IPC :0.60328: AVG IPC :0.96158: L2-Pf-HR :0.96763: L2-HR :0.79835: (Sim:0h14m37s) 
CPU  1 inst:   18000000 cyc:   17717940 now IPC :0.79408: AVG IPC :0.95616: L2-Pf-HR :0.96782: L2-HR :0.80080: (Sim:0h15m18s) 
CPU  0 inst:   17000005 cyc:   17889886 now IPC :0.54507: AVG IPC :0.88730: L2-Pf-HR :0.96607: L2-HR :0.80549: (Sim:0h15m22s) 
CPU  2 inst:   17000005 cyc:   17938147 now IPC :0.54571: AVG IPC :0.88474: L2-Pf-HR :0.96778: L2-HR :0.80915: (Sim:0h15m24s) 
CPU  3 inst:   18000000 cyc:   18042572 now IPC :0.68552: AVG IPC :0.93798: L2-Pf-HR :0.96855: L2-HR :0.79887: (Sim:0h15m27s) 
CPU  1 inst:   19000001 cyc:   18905124 now IPC :0.84233: AVG IPC :0.94862: L2-Pf-HR :0.96819: L2-HR :0.80082: (Sim:0h16m3s) 
CPU  0 inst:   18000000 cyc:   19313191 now IPC :0.70259: AVG IPC :0.87295: L2-Pf-HR :0.96648: L2-HR :0.80510: (Sim:0h16m22s) 
CPU  3 inst:   19000004 cyc:   19372919 now IPC :0.75169: AVG IPC :0.92450: L2-Pf-HR :0.96927: L2-HR :0.79889: (Sim:0h16m26s) 
CPU  2 inst:   18000000 cyc:   19395376 now IPC :0.68623: AVG IPC :0.86903: L2-Pf-HR :0.96806: L2-HR :0.80853: (Sim:0h16m27s) 
CPU  1 inst:   20000004 cyc:   20227804 now IPC :0.75604: AVG IPC :0.93538: L2-Pf-HR :0.96892: L2-HR :0.80106: (Sim:0h17m7s) 
CPU  3 inst:   20000001 cyc:   20553250 now IPC :0.84722: AVG IPC :0.91984: L2-Pf-HR :0.96955: L2-HR :0.79873: (Sim:0h17m23s) 
CPU  0 inst:   19000001 cyc:   20648635 now IPC :0.74882: AVG IPC :0.86452: L2-Pf-HR :0.96669: L2-HR :0.80436: (Sim:0h17m27s) 
CPU  2 inst:   19000001 cyc:   20810604 now IPC :0.70660: AVG IPC :0.85743: L2-Pf-HR :0.96829: L2-HR :0.80764: (Sim:0h17m35s) 
CPU  1 inst:   21000000 cyc:   21551224 now IPC :0.75561: AVG IPC :0.92381: L2-Pf-HR :0.96914: L2-HR :0.80084: (Sim:0h18m12s) 
CPU  3 inst:   21000000 cyc:   21757993 now IPC :0.83005: AVG IPC :0.91463: L2-Pf-HR :0.96960: L2-HR :0.79841: (Sim:0h18m23s) 
CPU  0 inst:   20000000 cyc:   21809998 now IPC :0.86106: AVG IPC :0.86433: L2-Pf-HR :0.96667: L2-HR :0.80355: (Sim:0h18m26s) 
CPU  2 inst:   20000004 cyc:   22125339 now IPC :0.76061: AVG IPC :0.85141: L2-Pf-HR :0.96852: L2-HR :0.80679: (Sim:0h18m41s) 
CPU  1 inst:   22000004 cyc:   22830366 now IPC :0.78178: AVG IPC :0.91550: L2-Pf-HR :0.96939: L2-HR :0.80069: (Sim:0h19m16s) 
CPU  0 inst:   21000000 cyc:   23003653 now IPC :0.83776: AVG IPC :0.86289: L2-Pf-HR :0.96693: L2-HR :0.80280: (Sim:0h19m24s) 
CPU  3 inst:   22000004 cyc:   23005860 now IPC :0.80137: AVG IPC :0.90821: L2-Pf-HR :0.96954: L2-HR :0.79814: (Sim:0h19m24s) 
CPU  2 inst:   21000000 cyc:   23562195 now IPC :0.69596: AVG IPC :0.84152: L2-Pf-HR :0.96837: L2-HR :0.80595: (Sim:0h19m50s) 
CPU  1 inst:   23000005 cyc:   24268869 now IPC :0.69517: AVG IPC :0.90188: L2-Pf-HR :0.96953: L2-HR :0.80050: (Sim:0h20m24s) 
CPU  0 inst:   22000004 cyc:   24322174 now IPC :0.75843: AVG IPC :0.85699: L2-Pf-HR :0.96708: L2-HR :0.80239: (Sim:0h20m26s) 
CPU  3 inst:   23000005 cyc:   24490821 now IPC :0.67342: AVG IPC :0.89338: L2-Pf-HR :0.96942: L2-HR :0.79807: (Sim:0h20m34s) 
CPU  2 inst:   22000004 cyc:   24734161 now IPC :0.85327: AVG IPC :0.84210: L2-Pf-HR :0.96869: L2-HR :0.80535: (Sim:0h20m47s) 
CPU  1 inst:   24000005 cyc:   25452193 now IPC :0.84508: AVG IPC :0.89914: L2-Pf-HR :0.96979: L2-HR :0.80075: (Sim:0h21m22s) 
CPU  0 inst:   23000005 cyc:   25647377 now IPC :0.75460: AVG IPC :0.85148: L2-Pf-HR :0.96699: L2-HR :0.80197: (Sim:0h21m32s) 
CPU  3 inst:   24000005 cyc:   25654376 now IPC :0.85944: AVG IPC :0.89178: L2-Pf-HR :0.96978: L2-HR :0.79853: (Sim:0h21m32s) 
CPU  2 inst:   23000005 cyc:   26085125 now IPC :0.74021: AVG IPC :0.83662: L2-Pf-HR :0.96831: L2-HR :0.80481: (Sim:0h21m55s) 
CPU  0 inst:   24000005 cyc:   26700969 now IPC :0.94913: AVG IPC :0.85549: L2-Pf-HR :0.96716: L2-HR :0.80183: (Sim:0h22m26s) 
CPU  1 inst:   25000005 cyc:   26703410 now IPC :0.79922: AVG IPC :0.89428: L2-Pf-HR :0.96988: L2-HR :0.80069: (Sim:0h22m26s) 
CPU  3 inst:   25000005 cyc:   26832554 now IPC :0.84877: AVG IPC :0.88982: L2-Pf-HR :0.96980: L2-HR :0.79858: (Sim:0h22m32s) 
CPU  2 inst:   24000005 cyc:   27309776 now IPC :0.81656: AVG IPC :0.83568: L2-Pf-HR :0.96857: L2-HR :0.80472: (Sim:0h22m54s) 
CPU  0 inst:   25000005 cyc:   27856609 now IPC :0.86532: AVG IPC :0.85591: L2-Pf-HR :0.96740: L2-HR :0.80146: (Sim:0h23m20s) 
CPU  1 inst:   26000002 cyc:   28000948 now IPC :0.77069: AVG IPC :0.88834: L2-Pf-HR :0.97016: L2-HR :0.80081: (Sim:0h23m28s) 
CPU  3 inst:   26000002 cyc:   28094673 now IPC :0.79232: AVG IPC :0.88528: L2-Pf-HR :0.96994: L2-HR :0.79900: (Sim:0h23m31s) 
CPU  2 inst:   25000005 cyc:   28446116 now IPC :0.88002: AVG IPC :0.83752: L2-Pf-HR :0.96867: L2-HR :0.80426: (Sim:0h23m42s) 
CPU  0 inst:   26000002 cyc:   29012161 now IPC :0.86538: AVG IPC :0.85630: L2-Pf-HR :0.96740: L2-HR :0.80102: (Sim:0h24m1s) 
CPU  1 inst:   27000003 cyc:   29213911 now IPC :0.82443: AVG IPC :0.88559: L2-Pf-HR :0.97040: L2-HR :0.80087: (Sim:0h24m7s) 
CPU  3 inst:   27000003 cyc:   29320265 now IPC :0.81593: AVG IPC :0.88228: L2-Pf-HR :0.97004: L2-HR :0.79926: (Sim:0h24m11s) 
CPU  2 inst:   26000002 cyc:   29414036 now IPC :1.03314: AVG IPC :0.84418: L2-Pf-HR :0.96872: L2-HR :0.80388: (Sim:0h24m15s) 
CPU  0 inst:   27000003 cyc:   30162909 now IPC :0.86900: AVG IPC :0.85680: L2-Pf-HR :0.96757: L2-HR :0.80075: (Sim:0h24m41s) 
CPU  1 inst:   28000003 cyc:   30244600 now IPC :0.97022: AVG IPC :0.88858: L2-Pf-HR :0.97052: L2-HR :0.80081: (Sim:0h24m43s) 
CPU  2 inst:   27000003 cyc:   30374924 now IPC :1.04071: AVG IPC :0.85060: L2-Pf-HR :0.96860: L2-HR :0.80348: (Sim:0h24m48s) 
CPU  3 inst:   28000003 cyc:   30447782 now IPC :0.88690: AVG IPC :0.88246: L2-Pf-HR :0.97027: L2-HR :0.79952: (Sim:0h24m51s) 
CPU  0 inst:   28000003 cyc:   31280480 now IPC :0.89480: AVG IPC :0.85820: L2-Pf-HR :0.96783: L2-HR :0.80072: (Sim:0h25m19s) 
CPU  1 inst:   29000001 cyc:   31377363 now IPC :0.88280: AVG IPC :0.88836: L2-Pf-HR :0.97019: L2-HR :0.80143: (Sim:0h25m24s) 
CPU  2 inst:   28000003 cyc:   31441399 now IPC :0.93767: AVG IPC :0.85365: L2-Pf-HR :0.96873: L2-HR :0.80328: (Sim:0h25m26s) 
CPU  3 inst:   29000001 cyc:   31718076 now IPC :0.78722: AVG IPC :0.87852: L2-Pf-HR :0.96989: L2-HR :0.80025: (Sim:0h25m37s) 
CPU  0 inst:   29000001 cyc:   32524797 now IPC :0.80365: AVG IPC :0.85605: L2-Pf-HR :0.96759: L2-HR :0.80141: (Sim:0h26m16s) 
CPU  1 inst:   30000005 cyc:   32555558 now IPC :0.84876: AVG IPC :0.88688: L2-Pf-HR :0.97010: L2-HR :0.80279: (Sim:0h26m17s) 
CPU  2 inst:   29000001 cyc:   32639995 now IPC :0.83431: AVG IPC :0.85292: L2-Pf-HR :0.96852: L2-HR :0.80396: (Sim:0h26m20s) 
CPU  3 inst:   30000005 cyc:   32773075 now IPC :0.94787: AVG IPC :0.88082: L2-Pf-HR :0.96977: L2-HR :0.80156: (Sim:0h26m24s) 
CPU  0 inst:   30000005 cyc:   33623929 now IPC :0.90981: AVG IPC :0.85786: L2-Pf-HR :0.96756: L2-HR :0.80268: (Sim:0h26m54s) 
CPU  1 inst:   31000001 cyc:   33687925 now IPC :0.88310: AVG IPC :0.88675: L2-Pf-HR :0.97005: L2-HR :0.80422: (Sim:0h26m56s) 
CPU  2 inst:   30000005 cyc:   33789057 now IPC :0.87028: AVG IPC :0.85353: L2-Pf-HR :0.96855: L2-HR :0.80510: (Sim:0h26m59s) 
CPU  3 inst:   31000002 cyc:   33832441 now IPC :0.94396: AVG IPC :0.88286: L2-Pf-HR :0.96949: L2-HR :0.80265: (Sim:0h27m1s) 
CPU  0 inst:   31000002 cyc:   34695690 now IPC :0.93304: AVG IPC :0.86025: L2-Pf-HR :0.96731: L2-HR :0.80387: (Sim:0h27m30s) 
CPU  1 inst:   32000002 cyc:   34812026 now IPC :0.88960: AVG IPC :0.88685: L2-Pf-HR :0.97010: L2-HR :0.80532: (Sim:0h27m34s) 
CPU  2 inst:   31000001 cyc:   34935827 now IPC :0.87201: AVG IPC :0.85415: L2-Pf-HR :0.96838: L2-HR :0.80629: (Sim:0h27m38s) 
CPU  3 inst:   32000005 cyc:   34961353 now IPC :0.88581: AVG IPC :0.88296: L2-Pf-HR :0.96944: L2-HR :0.80355: (Sim:0h27m39s) 
CPU  0 inst:   32000005 cyc:   35848151 now IPC :0.86771: AVG IPC :0.86050: L2-Pf-HR :0.96744: L2-HR :0.80506: (Sim:0h28m7s) 
CPU  2 inst:   32000005 cyc:   36120616 now IPC :0.84404: AVG IPC :0.85381: L2-Pf-HR :0.96860: L2-HR :0.80749: (Sim:0h28m19s) 
CPU  1 inst:   33000005 cyc:   36154327 now IPC :0.74499: AVG IPC :0.88143: L2-Pf-HR :0.96996: L2-HR :0.80461: (Sim:0h28m20s) 
CPU  3 inst:   33000005 cyc:   36306431 now IPC :0.74345: AVG IPC :0.87764: L2-Pf-HR :0.96931: L2-HR :0.80290: (Sim:0h28m28s) 
CPU  0 inst:   33000005 cyc:   37306126 now IPC :0.68588: AVG IPC :0.85349: L2-Pf-HR :0.96750: L2-HR :0.80455: (Sim:0h29m7s) 
CPU  1 inst:   34000000 cyc:   37381789 now IPC :0.81469: AVG IPC :0.87918: L2-Pf-HR :0.97014: L2-HR :0.80434: (Sim:0h29m10s) 
CPU  2 inst:   33000005 cyc:   37489542 now IPC :0.73050: AVG IPC :0.84919: L2-Pf-HR :0.96864: L2-HR :0.80686: (Sim:0h29m14s) 
CPU  3 inst:   34000000 cyc:   37693943 now IPC :0.72071: AVG IPC :0.87171: L2-Pf-HR :0.96936: L2-HR :0.80256: (Sim:0h29m20s) 
CPU  1 inst:   35000003 cyc:   38508444 now IPC :0.88759: AVG IPC :0.87943: L2-Pf-HR :0.97016: L2-HR :0.80394: (Sim:0h29m51s) 
CPU  0 inst:   34000000 cyc:   38689072 now IPC :0.72309: AVG IPC :0.84871: L2-Pf-HR :0.96762: L2-HR :0.80417: (Sim:0h30m0s) 
CPU  2 inst:   34000000 cyc:   38837327 now IPC :0.74195: AVG IPC :0.84537: L2-Pf-HR :0.96865: L2-HR :0.80617: (Sim:0h30m7s) 
CPU  3 inst:   35000003 cyc:   39065778 now IPC :0.72895: AVG IPC :0.86657: L2-Pf-HR :0.96930: L2-HR :0.80217: (Sim:0h30m18s) 
CPU  1 inst:   36000005 cyc:   39678385 now IPC :0.85475: AVG IPC :0.87869: L2-Pf-HR :0.97019: L2-HR :0.80353: (Sim:0h30m48s) 
CPU  0 inst:   35000002 cyc:   40138761 now IPC :0.68980: AVG IPC :0.84282: L2-Pf-HR :0.96773: L2-HR :0.80377: (Sim:0h31m10s) 
CPU  2 inst:   35000000 cyc:   40241093 now IPC :0.71237: AVG IPC :0.84061: L2-Pf-HR :0.96863: L2-HR :0.80565: (Sim:0h31m14s) 
CPU  3 inst:   36000005 cyc:   40451293 now IPC :0.72175: AVG IPC :0.86149: L2-Pf-HR :0.96924: L2-HR :0.80188: (Sim:0h31m23s) 
CPU  1 inst:   37000000 cyc:   41006438 now IPC :0.75298: AVG IPC :0.87452: L2-Pf-HR :0.97005: L2-HR :0.80302: (Sim:0h31m50s) 
CPU  0 inst:   36000005 cyc:   41641689 now IPC :0.66537: AVG IPC :0.83626: L2-Pf-HR :0.96788: L2-HR :0.80351: (Sim:0h32m20s) 
CPU  3 inst:   37000002 cyc:   41729805 now IPC :0.78216: AVG IPC :0.85900: L2-Pf-HR :0.96918: L2-HR :0.80140: (Sim:0h32m24s) 
CPU  2 inst:   36000005 cyc:   41742231 now IPC :0.66616: AVG IPC :0.83419: L2-Pf-HR :0.96873: L2-HR :0.80535: (Sim:0h32m25s) 
CPU  1 inst:   38000001 cyc:   42438509 now IPC :0.69829: AVG IPC :0.86843: L2-Pf-HR :0.97001: L2-HR :0.80267: (Sim:0h32m59s) 
CPU  3 inst:   38000001 cyc:   42913715 now IPC :0.84466: AVG IPC :0.85859: L2-Pf-HR :0.96914: L2-HR :0.80103: (Sim:0h33m22s) 
CPU  0 inst:   37000002 cyc:   42976327 now IPC :0.74926: AVG IPC :0.83350: L2-Pf-HR :0.96792: L2-HR :0.80309: (Sim:0h33m24s) 
CPU  2 inst:   37000002 cyc:   43145900 now IPC :0.71242: AVG IPC :0.83013: L2-Pf-HR :0.96895: L2-HR :0.80507: (Sim:0h33m29s) 
CPU  1 inst:   39000000 cyc:   43853061 now IPC :0.70694: AVG IPC :0.86310: L2-Pf-HR :0.96989: L2-HR :0.80234: (Sim:0h34m1s) 
CPU  0 inst:   38000001 cyc:   44194368 now IPC :0.82099: AVG IPC :0.83314: L2-Pf-HR :0.96795: L2-HR :0.80273: (Sim:0h34m14s) 
CPU  3 inst:   39000000 cyc:   44207154 now IPC :0.77313: AVG IPC :0.85603: L2-Pf-HR :0.96895: L2-HR :0.80075: (Sim:0h34m14s) 
CPU  2 inst:   38000001 cyc:   44376131 now IPC :0.81285: AVG IPC :0.82964: L2-Pf-HR :0.96892: L2-HR :0.80462: (Sim:0h34m20s) 
CPU  1 inst:   40000000 cyc:   45045500 now IPC :0.83862: AVG IPC :0.86244: L2-Pf-HR :0.97001: L2-HR :0.80238: (Sim:0h34m43s) 
CPU  3 inst:   40000000 cyc:   45333172 now IPC :0.88809: AVG IPC :0.85685: L2-Pf-HR :0.96914: L2-HR :0.80075: (Sim:0h34m52s) 
CPU  0 inst:   39000000 cyc:   45477129 now IPC :0.77957: AVG IPC :0.83160: L2-Pf-HR :0.96777: L2-HR :0.80234: (Sim:0h34m57s) 
CPU  2 inst:   39000000 cyc:   45714176 now IPC :0.74736: AVG IPC :0.82718: L2-Pf-HR :0.96883: L2-HR :0.80426: (Sim:0h35m5s) 
CPU  1 inst:   41000000 cyc:   46177674 now IPC :0.88326: AVG IPC :0.86296: L2-Pf-HR :0.97015: L2-HR :0.80246: (Sim:0h35m22s) 
CPU  3 inst:   41000000 cyc:   46382601 now IPC :0.95290: AVG IPC :0.85907: L2-Pf-HR :0.96903: L2-HR :0.80052: (Sim:0h35m30s) 
CPU  0 inst:   40000000 cyc:   46518335 now IPC :0.96042: AVG IPC :0.83455: L2-Pf-HR :0.96785: L2-HR :0.80223: (Sim:0h35m35s) 
CPU  2 inst:   40000000 cyc:   46858940 now IPC :0.87354: AVG IPC :0.82834: L2-Pf-HR :0.96898: L2-HR :0.80412: (Sim:0h35m48s) 
CPU  1 inst:   42000003 cyc:   47232259 now IPC :0.94824: AVG IPC :0.86490: L2-Pf-HR :0.97015: L2-HR :0.80238: (Sim:0h36m3s) 
CPU  3 inst:   42000003 cyc:   47448989 now IPC :0.93775: AVG IPC :0.86087: L2-Pf-HR :0.96893: L2-HR :0.80026: (Sim:0h36m13s) 
CPU  0 inst:   41000000 cyc:   47497257 now IPC :1.02153: AVG IPC :0.83848: L2-Pf-HR :0.96789: L2-HR :0.80201: (Sim:0h36m15s) 
CPU  2 inst:   41000000 cyc:   47886942 now IPC :0.97276: AVG IPC :0.83150: L2-Pf-HR :0.96899: L2-HR :0.80388: (Sim:0h36m31s) 
CPU  1 inst:   43000003 cyc:   48175257 now IPC :1.06045: AVG IPC :0.86881: L2-Pf-HR :0.97015: L2-HR :0.80213: (Sim:0h36m47s) 
CPU  0 inst:   42000003 cyc:   48464062 now IPC :1.03434: AVG IPC :0.84247: L2-Pf-HR :0.96785: L2-HR :0.80177: (Sim:0h37m3s) 
CPU  3 inst:   43000001 cyc:   48481921 now IPC :0.96812: AVG IPC :0.86321: L2-Pf-HR :0.96891: L2-HR :0.80005: (Sim:0h37m4s) 
CPU  2 inst:   42000003 cyc:   48939666 now IPC :0.94992: AVG IPC :0.83410: L2-Pf-HR :0.96895: L2-HR :0.80362: (Sim:0h37m31s) 
CPU  1 inst:   44000004 cyc:   49142887 now IPC :1.03345: AVG IPC :0.87212: L2-Pf-HR :0.97019: L2-HR :0.80190: (Sim:0h37m43s) 
CPU  0 inst:   43000002 cyc:   49452750 now IPC :1.01144: AVG IPC :0.84592: L2-Pf-HR :0.96785: L2-HR :0.80155: (Sim:0h38m1s) 
CPU  3 inst:   44000004 cyc:   49527282 now IPC :0.95661: AVG IPC :0.86522: L2-Pf-HR :0.96897: L2-HR :0.79987: (Sim:0h38m5s) 
CPU  2 inst:   43000003 cyc:   49950759 now IPC :0.98903: AVG IPC :0.83730: L2-Pf-HR :0.96893: L2-HR :0.80332: (Sim:0h38m30s) 
CPU  1 inst:   45000005 cyc:   50233198 now IPC :0.91717: AVG IPC :0.87312: L2-Pf-HR :0.96989: L2-HR :0.80204: (Sim:0h38m45s) 
CPU  0 inst:   44000004 cyc:   50578224 now IPC :0.88852: AVG IPC :0.84688: L2-Pf-HR :0.96796: L2-HR :0.80142: (Sim:0h39m2s) 
CPU  3 inst:   45000005 cyc:   50771728 now IPC :0.80357: AVG IPC :0.86368: L2-Pf-HR :0.96869: L2-HR :0.80005: (Sim:0h39m13s) 
CPU  2 inst:   44000004 cyc:   51003346 now IPC :0.95004: AVG IPC :0.83967: L2-Pf-HR :0.96903: L2-HR :0.80312: (Sim:0h39m25s) 
CPU  1 inst:   46000002 cyc:   51516209 now IPC :0.77941: AVG IPC :0.87074: L2-Pf-HR :0.96985: L2-HR :0.80293: (Sim:0h39m50s) 
CPU  0 inst:   45000005 cyc:   51727282 now IPC :0.87028: AVG IPC :0.84741: L2-Pf-HR :0.96781: L2-HR :0.80160: (Sim:0h40m1s) 
CPU  3 inst:   46000002 cyc:   52035087 now IPC :0.79154: AVG IPC :0.86189: L2-Pf-HR :0.96862: L2-HR :0.80088: (Sim:0h40m17s) 
CPU  2 inst:   45000005 cyc:   52330842 now IPC :0.75330: AVG IPC :0.83744: L2-Pf-HR :0.96879: L2-HR :0.80330: (Sim:0h40m32s) 
CPU  1 inst:   47000003 cyc:   52665257 now IPC :0.87029: AVG IPC :0.87073: L2-Pf-HR :0.96989: L2-HR :0.80379: (Sim:0h40m43s) 
CPU  0 inst:   46000002 cyc:   52813441 now IPC :0.92067: AVG IPC :0.84895: L2-Pf-HR :0.96766: L2-HR :0.80236: (Sim:0h40m49s) 
CPU  3 inst:   47000003 cyc:   53168954 now IPC :0.88194: AVG IPC :0.86233: L2-Pf-HR :0.96859: L2-HR :0.80161: (Sim:0h41m8s) 
CPU  2 inst:   46000002 cyc:   53413574 now IPC :0.92359: AVG IPC :0.83922: L2-Pf-HR :0.96863: L2-HR :0.80404: (Sim:0h41m21s) 
CPU  1 inst:   48000000 cyc:   53801748 now IPC :0.87990: AVG IPC :0.87092: L2-Pf-HR :0.96987: L2-HR :0.80458: (Sim:0h41m43s) 
CPU  0 inst:   47000003 cyc:   53900753 now IPC :0.91970: AVG IPC :0.85040: L2-Pf-HR :0.96758: L2-HR :0.80305: (Sim:0h41m49s) 
CPU  3 inst:   48000000 cyc:   54232664 now IPC :0.94010: AVG IPC :0.86388: L2-Pf-HR :0.96846: L2-HR :0.80218: (Sim:0h42m9s) 
CPU  2 inst:   47000003 cyc:   54545029 now IPC :0.88382: AVG IPC :0.84016: L2-Pf-HR :0.96842: L2-HR :0.80467: (Sim:0h42m25s) 
CPU  0 inst:   48000000 cyc:   55065083 now IPC :0.85886: AVG IPC :0.85058: L2-Pf-HR :0.96759: L2-HR :0.80377: (Sim:0h42m53s) 
CPU  1 inst:   49000004 cyc:   55130897 now IPC :0.75236: AVG IPC :0.86801: L2-Pf-HR :0.96969: L2-HR :0.80422: (Sim:0h42m57s) 
CPU  3 inst:   49000000 cyc:   55539528 now IPC :0.76519: AVG IPC :0.86152: L2-Pf-HR :0.96832: L2-HR :0.80171: (Sim:0h43m19s) 
CPU  2 inst:   48000005 cyc:   55820740 now IPC :0.78388: AVG IPC :0.83885: L2-Pf-HR :0.96839: L2-HR :0.80542: (Sim:0h43m33s) 
CPU  1 inst:   50000000 cyc:   56238489 now IPC :0.90286: AVG IPC :0.86871: L2-Pf-HR :0.96978: L2-HR :0.80407: (Sim:0h43m56s) 
CPU  0 inst:   49000005 cyc:   56511337 now IPC :0.69144: AVG IPC :0.84644: L2-Pf-HR :0.96747: L2-HR :0.80344: (Sim:0h44m10s) 
CPU  3 inst:   50000000 cyc:   56862939 now IPC :0.75562: AVG IPC :0.85901: L2-Pf-HR :0.96841: L2-HR :0.80156: (Sim:0h44m28s) 
CPU  2 inst:   49000001 cyc:   57132180 now IPC :0.76252: AVG IPC :0.83707: L2-Pf-HR :0.96828: L2-HR :0.80504: (Sim:0h44m43s) 
CPU  1 inst:   51000001 cyc:   57398584 now IPC :0.86200: AVG IPC :0.86857: L2-Pf-HR :0.96971: L2-HR :0.80370: (Sim:0h44m57s) 
CPU  0 inst:   50000000 cyc:   57830008 now IPC :0.75834: AVG IPC :0.84439: L2-Pf-HR :0.96764: L2-HR :0.80337: (Sim:0h45m18s) 
CPU  3 inst:   51000001 cyc:   58218307 now IPC :0.73781: AVG IPC :0.85614: L2-Pf-HR :0.96845: L2-HR :0.80129: (Sim:0h45m38s) 
CPU  2 inst:   50000000 cyc:   58270172 now IPC :0.87874: AVG IPC :0.83790: L2-Pf-HR :0.96828: L2-HR :0.80467: (Sim:0h45m40s) 
CPU  1 inst:   52000005 cyc:   58743719 now IPC :0.74342: AVG IPC :0.86566: L2-Pf-HR :0.96968: L2-HR :0.80336: (Sim:0h46m3s) 
CPU  0 inst:   51000001 cyc:   59219121 now IPC :0.71988: AVG IPC :0.84142: L2-Pf-HR :0.96767: L2-HR :0.80308: (Sim:0h46m25s) 
CPU  2 inst:   51000001 cyc:   59590397 now IPC :0.75745: AVG IPC :0.83609: L2-Pf-HR :0.96838: L2-HR :0.80437: (Sim:0h46m43s) 
CPU  3 inst:   52000005 cyc:   59706151 now IPC :0.67212: AVG IPC :0.85148: L2-Pf-HR :0.96848: L2-HR :0.80114: (Sim:0h46m50s) 
CPU  1 inst:   53000003 cyc:   60235085 now IPC :0.67052: AVG IPC :0.86075: L2-Pf-HR :0.96979: L2-HR :0.80317: (Sim:0h47m16s) 
CPU  0 inst:   52000005 cyc:   60378319 now IPC :0.86267: AVG IPC :0.84184: L2-Pf-HR :0.96771: L2-HR :0.80276: (Sim:0h47m23s) 
CPU  3 inst:   53000003 cyc:   60951840 now IPC :0.80277: AVG IPC :0.85046: L2-Pf-HR :0.96848: L2-HR :0.80084: (Sim:0h47m53s) 
CPU  2 inst:   52000005 cyc:   60969393 now IPC :0.72517: AVG IPC :0.83354: L2-Pf-HR :0.96840: L2-HR :0.80412: (Sim:0h47m54s) 
CPU  0 inst:   53000003 cyc:   61549354 now IPC :0.85394: AVG IPC :0.84207: L2-Pf-HR :0.96774: L2-HR :0.80239: (Sim:0h48m24s) 
CPU  1 inst:   54000000 cyc:   61562807 now IPC :0.75317: AVG IPC :0.85839: L2-Pf-HR :0.96971: L2-HR :0.80289: (Sim:0h48m25s) 
CPU  3 inst:   54000000 cyc:   62100272 now IPC :0.87075: AVG IPC :0.85085: L2-Pf-HR :0.96847: L2-HR :0.80056: (Sim:0h48m52s) 
CPU  2 inst:   53000003 cyc:   62358728 now IPC :0.71977: AVG IPC :0.83096: L2-Pf-HR :0.96840: L2-HR :0.80380: (Sim:0h49m6s) 
CPU  0 inst:   54000000 cyc:   62947269 now IPC :0.71535: AVG IPC :0.83921: L2-Pf-HR :0.96777: L2-HR :0.80208: (Sim:0h49m32s) 
CPU  1 inst:   55000004 cyc:   63226496 now IPC :0.60108: AVG IPC :0.85151: L2-Pf-HR :0.96957: L2-HR :0.80265: (Sim:0h49m45s) 
CPU  3 inst:   55000004 cyc:   63485599 now IPC :0.72185: AVG IPC :0.84799: L2-Pf-HR :0.96837: L2-HR :0.80026: (Sim:0h49m58s) 
CPU  2 inst:   54000000 cyc:   63753602 now IPC :0.71691: AVG IPC :0.82843: L2-Pf-HR :0.96851: L2-HR :0.80361: (Sim:0h50m13s) 
CPU  1 inst:   56000004 cyc:   64414544 now IPC :0.84172: AVG IPC :0.85133: L2-Pf-HR :0.96978: L2-HR :0.80277: (Sim:0h50m48s) 
CPU  0 inst:   55000004 cyc:   64423903 now IPC :0.67722: AVG IPC :0.83544: L2-Pf-HR :0.96772: L2-HR :0.80184: (Sim:0h50m48s) 
CPU  3 inst:   56000004 cyc:   64722523 now IPC :0.80846: AVG IPC :0.84722: L2-Pf-HR :0.96848: L2-HR :0.80029: (Sim:0h51m3s) 
CPU  2 inst:   55000004 cyc:   65082215 now IPC :0.75267: AVG IPC :0.82686: L2-Pf-HR :0.96833: L2-HR :0.80325: (Sim:0h51m22s) 
CPU  1 inst:   57000004 cyc:   65576228 now IPC :0.86082: AVG IPC :0.85150: L2-Pf-HR :0.96981: L2-HR :0.80268: (Sim:0h51m49s) 
CPU  0 inst:   56000004 cyc:   65626336 now IPC :0.83165: AVG IPC :0.83537: L2-Pf-HR :0.96785: L2-HR :0.80183: (Sim:0h51m51s) 
CPU  3 inst:   57000004 cyc:   65889065 now IPC :0.85723: AVG IPC :0.84740: L2-Pf-HR :0.96849: L2-HR :0.80022: (Sim:0h52m5s) 
CPU  2 inst:   56000004 cyc:   66230650 now IPC :0.87075: AVG IPC :0.82763: L2-Pf-HR :0.96838: L2-HR :0.80320: (Sim:0h52m24s) 
CPU  1 inst:   58000004 cyc:   66650734 now IPC :0.93066: AVG IPC :0.85279: L2-Pf-HR :0.96982: L2-HR :0.80258: (Sim:0h52m47s) 
CPU  0 inst:   57000004 cyc:   66755191 now IPC :0.88585: AVG IPC :0.83624: L2-Pf-HR :0.96790: L2-HR :0.80166: (Sim:0h52m52s) 
CPU  3 inst:   58000004 cyc:   67009815 now IPC :0.89226: AVG IPC :0.84816: L2-Pf-HR :0.96849: L2-HR :0.80013: (Sim:0h53m7s) 
CPU  2 inst:   57000004 cyc:   67299671 now IPC :0.93544: AVG IPC :0.82937: L2-Pf-HR :0.96837: L2-HR :0.80299: (Sim:0h53m23s) 
CPU  1 inst:   59000005 cyc:   67707909 now IPC :0.94592: AVG IPC :0.85427: L2-Pf-HR :0.96992: L2-HR :0.80245: (Sim:0h53m45s) 
CPU  0 inst:   58000004 cyc:   67839271 now IPC :0.92244: AVG IPC :0.83764: L2-Pf-HR :0.96783: L2-HR :0.80149: (Sim:0h53m53s) 
CPU  3 inst:   59000005 cyc:   68105778 now IPC :0.91244: AVG IPC :0.84921: L2-Pf-HR :0.96847: L2-HR :0.79998: (Sim:0h54m8s) 
CPU  2 inst:   58000004 cyc:   68333654 now IPC :0.96713: AVG IPC :0.83148: L2-Pf-HR :0.96838: L2-HR :0.80280: (Sim:0h54m20s) 
CPU  1 inst:   60000000 cyc:   68754953 now IPC :0.95506: AVG IPC :0.85583: L2-Pf-HR :0.96994: L2-HR :0.80228: (Sim:0h54m44s) 
CPU  0 inst:   59000005 cyc:   68932293 now IPC :0.91490: AVG IPC :0.83888: L2-Pf-HR :0.96789: L2-HR :0.80134: (Sim:0h54m53s) 
CPU  3 inst:   60000000 cyc:   69194469 now IPC :0.91853: AVG IPC :0.85032: L2-Pf-HR :0.96845: L2-HR :0.79984: (Sim:0h55m8s) 
CPU  2 inst:   59000005 cyc:   69377268 now IPC :0.95821: AVG IPC :0.83342: L2-Pf-HR :0.96838: L2-HR :0.80257: (Sim:0h55m18s) 
CPU  1 inst:   61000002 cyc:   69890547 now IPC :0.88060: AVG IPC :0.85624: L2-Pf-HR :0.96980: L2-HR :0.80229: (Sim:0h55m46s) 
CPU  0 inst:   60000005 cyc:   70043245 now IPC :0.90013: AVG IPC :0.83987: L2-Pf-HR :0.96793: L2-HR :0.80121: (Sim:0h55m54s) 
CPU  2 inst:   60000001 cyc:   70398376 now IPC :0.97932: AVG IPC :0.83556: L2-Pf-HR :0.96836: L2-HR :0.80247: (Sim:0h56m13s) 
CPU  3 inst:   61000002 cyc:   70435075 now IPC :0.80606: AVG IPC :0.84953: L2-Pf-HR :0.96825: L2-HR :0.79995: (Sim:0h56m15s) 
CPU  1 inst:   62000000 cyc:   71141633 now IPC :0.79930: AVG IPC :0.85522: L2-Pf-HR :0.96978: L2-HR :0.80295: (Sim:0h56m51s) 
CPU  0 inst:   61000002 cyc:   71297821 now IPC :0.79708: AVG IPC :0.83910: L2-Pf-HR :0.96780: L2-HR :0.80133: (Sim:0h56m59s) 
CPU  2 inst:   61000002 cyc:   71513158 now IPC :0.89704: AVG IPC :0.83653: L2-Pf-HR :0.96825: L2-HR :0.80257: (Sim:0h57m12s) 
CPU  3 inst:   62000000 cyc:   71622741 now IPC :0.84199: AVG IPC :0.84940: L2-Pf-HR :0.96824: L2-HR :0.80057: (Sim:0h57m18s) 
CPU  1 inst:   63000001 cyc:   72286175 now IPC :0.87371: AVG IPC :0.85552: L2-Pf-HR :0.96978: L2-HR :0.80355: (Sim:0h57m55s) 
CPU  0 inst:   62000000 cyc:   72360691 now IPC :0.94085: AVG IPC :0.84062: L2-Pf-HR :0.96781: L2-HR :0.80193: (Sim:0h57m58s) 
CPU  2 inst:   62000000 cyc:   72523125 now IPC :0.99013: AVG IPC :0.83870: L2-Pf-HR :0.96815: L2-HR :0.80298: (Sim:0h58m7s) 
CPU  3 inst:   63000001 cyc:   72759316 now IPC :0.87984: AVG IPC :0.84988: L2-Pf-HR :0.96821: L2-HR :0.80109: (Sim:0h58m20s) 
CPU  1 inst:   64000001 cyc:   73414092 now IPC :0.88659: AVG IPC :0.85600: L2-Pf-HR :0.96975: L2-HR :0.80410: (Sim:0h58m56s) 
CPU  0 inst:   63000001 cyc:   73536216 now IPC :0.85068: AVG IPC :0.84078: L2-Pf-HR :0.96781: L2-HR :0.80251: (Sim:0h59m3s) 
CPU  2 inst:   63000001 cyc:   73571451 now IPC :0.95390: AVG IPC :0.84037: L2-Pf-HR :0.96804: L2-HR :0.80347: (Sim:0h59m5s) 
CPU  3 inst:   64000001 cyc:   73763390 now IPC :0.99594: AVG IPC :0.85190: L2-Pf-HR :0.96810: L2-HR :0.80151: (Sim:0h59m16s) 
CPU  1 inst:   65000005 cyc:   74730472 now IPC :0.75966: AVG IPC :0.85428: L2-Pf-HR :0.96968: L2-HR :0.80388: (Sim:1h0m7s) 
CPU  0 inst:   64000001 cyc:   74746504 now IPC :0.82625: AVG IPC :0.84054: L2-Pf-HR :0.96778: L2-HR :0.80313: (Sim:1h0m7s) 
CPU  2 inst:   64000001 cyc:   74820560 now IPC :0.80057: AVG IPC :0.83969: L2-Pf-HR :0.96804: L2-HR :0.80410: (Sim:1h0m12s) 
CPU  3 inst:   65000005 cyc:   75010138 now IPC :0.80209: AVG IPC :0.85106: L2-Pf-HR :0.96801: L2-HR :0.80131: (Sim:1h0m23s) 
CPU  1 inst:   66000002 cyc:   75869275 now IPC :0.87811: AVG IPC :0.85464: L2-Pf-HR :0.96984: L2-HR :0.80379: (Sim:1h1m6s) 
CPU  0 inst:   65000005 cyc:   76172325 now IPC :0.70135: AVG IPC :0.83790: L2-Pf-HR :0.96763: L2-HR :0.80294: (Sim:1h1m22s) 
CPU  2 inst:   65000005 cyc:   76257719 now IPC :0.69582: AVG IPC :0.83695: L2-Pf-HR :0.96791: L2-HR :0.80394: (Sim:1h1m26s) 
CPU  3 inst:   66000002 cyc:   76381112 now IPC :0.72941: AVG IPC :0.84885: L2-Pf-HR :0.96809: L2-HR :0.80117: (Sim:1h1m32s) 
CPU  1 inst:   67000001 cyc:   77087931 now IPC :0.82058: AVG IPC :0.85410: L2-Pf-HR :0.96982: L2-HR :0.80356: (Sim:1h2m8s) 
CPU  3 inst:   67000001 cyc:   77530049 now IPC :0.87037: AVG IPC :0.84917: L2-Pf-HR :0.96809: L2-HR :0.80093: (Sim:1h2m31s) 
CPU  0 inst:   66000002 cyc:   77586229 now IPC :0.70726: AVG IPC :0.83549: L2-Pf-HR :0.96770: L2-HR :0.80286: (Sim:1h2m34s) 
CPU  2 inst:   66000002 cyc:   77674255 now IPC :0.70595: AVG IPC :0.83453: L2-Pf-HR :0.96803: L2-HR :0.80387: (Sim:1h2m38s) 
CPU  1 inst:   68000001 cyc:   78440542 now IPC :0.73931: AVG IPC :0.85209: L2-Pf-HR :0.96984: L2-HR :0.80332: (Sim:1h3m17s) 
CPU  3 inst:   68000001 cyc:   78670160 now IPC :0.87711: AVG IPC :0.84958: L2-Pf-HR :0.96809: L2-HR :0.80069: (Sim:1h3m29s) 
CPU  0 inst:   67000001 cyc:   78974693 now IPC :0.72022: AVG IPC :0.83344: L2-Pf-HR :0.96777: L2-HR :0.80268: (Sim:1h3m45s) 
CPU  2 inst:   67000001 cyc:   79129512 now IPC :0.68716: AVG IPC :0.83178: L2-Pf-HR :0.96803: L2-HR :0.80362: (Sim:1h3m52s) 
CPU  1 inst:   69000000 cyc:   79809370 now IPC :0.73055: AVG IPC :0.84998: L2-Pf-HR :0.96985: L2-HR :0.80309: (Sim:1h4m26s) 
CPU  3 inst:   69000000 cyc:   79956962 now IPC :0.77712: AVG IPC :0.84840: L2-Pf-HR :0.96810: L2-HR :0.80046: (Sim:1h4m34s) 
CPU  0 inst:   68000001 cyc:   80218827 now IPC :0.80377: AVG IPC :0.83297: L2-Pf-HR :0.96788: L2-HR :0.80255: (Sim:1h4m47s) 
CPU  2 inst:   68000001 cyc:   80552708 now IPC :0.70264: AVG IPC :0.82947: L2-Pf-HR :0.96803: L2-HR :0.80337: (Sim:1h5m4s) 
CPU  1 inst:   70000001 cyc:   81231545 now IPC :0.70315: AVG IPC :0.84738: L2-Pf-HR :0.96986: L2-HR :0.80289: (Sim:1h5m38s) 
CPU  3 inst:   70000001 cyc:   81351666 now IPC :0.71700: AVG IPC :0.84612: L2-Pf-HR :0.96812: L2-HR :0.80024: (Sim:1h5m44s) 
CPU  0 inst:   69000000 cyc:   81366160 now IPC :0.87159: AVG IPC :0.83352: L2-Pf-HR :0.96789: L2-HR :0.80237: (Sim:1h5m45s) 
CPU  2 inst:   69000000 cyc:   82016108 now IPC :0.68334: AVG IPC :0.82683: L2-Pf-HR :0.96807: L2-HR :0.80318: (Sim:1h6m17s) 
CPU  0 inst:   70000001 cyc:   82699982 now IPC :0.74973: AVG IPC :0.83216: L2-Pf-HR :0.96789: L2-HR :0.80219: (Sim:1h6m48s) 
CPU  1 inst:   71000004 cyc:   82947016 now IPC :0.58293: AVG IPC :0.84185: L2-Pf-HR :0.96974: L2-HR :0.80263: (Sim:1h7m0s) 
CPU  3 inst:   71000003 cyc:   83063948 now IPC :0.58402: AVG IPC :0.84065: L2-Pf-HR :0.96798: L2-HR :0.79999: (Sim:1h7m6s) 
CPU  2 inst:   70000001 cyc:   83313062 now IPC :0.77104: AVG IPC :0.82595: L2-Pf-HR :0.96819: L2-HR :0.80310: (Sim:1h7m18s) 
CPU  0 inst:   71000004 cyc:   84318610 now IPC :0.61781: AVG IPC :0.82799: L2-Pf-HR :0.96782: L2-HR :0.80206: (Sim:1h8m8s) 
CPU  1 inst:   72000002 cyc:   84352801 now IPC :0.71134: AVG IPC :0.83965: L2-Pf-HR :0.96989: L2-HR :0.80280: (Sim:1h8m9s) 
CPU  3 inst:   72000002 cyc:   84468879 now IPC :0.71178: AVG IPC :0.83848: L2-Pf-HR :0.96810: L2-HR :0.80012: (Sim:1h8m15s) 
CPU  2 inst:   71000004 cyc:   84616682 now IPC :0.76710: AVG IPC :0.82504: L2-Pf-HR :0.96809: L2-HR :0.80283: (Sim:1h8m23s) 
CPU  1 inst:   73000005 cyc:   85391992 now IPC :0.96229: AVG IPC :0.84116: L2-Pf-HR :0.96992: L2-HR :0.80282: (Sim:1h9m8s) 
CPU  0 inst:   72000002 cyc:   85429574 now IPC :0.90012: AVG IPC :0.82894: L2-Pf-HR :0.96797: L2-HR :0.80211: (Sim:1h9m10s) 
CPU  3 inst:   73000002 cyc:   85555309 now IPC :0.92045: AVG IPC :0.83953: L2-Pf-HR :0.96809: L2-HR :0.80006: (Sim:1h9m18s) 
CPU  2 inst:   72000002 cyc:   85628267 now IPC :0.98855: AVG IPC :0.82699: L2-Pf-HR :0.96814: L2-HR :0.80276: (Sim:1h9m22s) 
CPU  1 inst:   74000002 cyc:   86389121 now IPC :1.00288: AVG IPC :0.84304: L2-Pf-HR :0.96988: L2-HR :0.80273: (Sim:1h10m7s) 
CPU  0 inst:   73000005 cyc:   86465656 now IPC :0.96518: AVG IPC :0.83059: L2-Pf-HR :0.96793: L2-HR :0.80198: (Sim:1h10m12s) 
CPU  2 inst:   73000002 cyc:   86615494 now IPC :1.01294: AVG IPC :0.82913: L2-Pf-HR :0.96813: L2-HR :0.80263: (Sim:1h10m21s) 
CPU  3 inst:   74000002 cyc:   86617594 now IPC :0.94137: AVG IPC :0.84080: L2-Pf-HR :0.96808: L2-HR :0.79999: (Sim:1h10m21s) 
CPU  1 inst:   75000003 cyc:   87365561 now IPC :1.02413: AVG IPC :0.84509: L2-Pf-HR :0.96985: L2-HR :0.80264: (Sim:1h11m6s) 
CPU  0 inst:   74000002 cyc:   87551557 now IPC :0.92089: AVG IPC :0.83173: L2-Pf-HR :0.96794: L2-HR :0.80189: (Sim:1h11m16s) 
CPU  2 inst:   74000002 cyc:   87629666 now IPC :0.98603: AVG IPC :0.83097: L2-Pf-HR :0.96812: L2-HR :0.80250: (Sim:1h11m21s) 
CPU  3 inst:   75000003 cyc:   87636246 now IPC :0.98169: AVG IPC :0.84245: L2-Pf-HR :0.96811: L2-HR :0.79991: (Sim:1h11m22s) 
CPU  1 inst:   76000000 cyc:   88353224 now IPC :1.01249: AVG IPC :0.84698: L2-Pf-HR :0.96985: L2-HR :0.80256: (Sim:1h12m4s) 
CPU  0 inst:   75000003 cyc:   88614629 now IPC :0.94067: AVG IPC :0.83305: L2-Pf-HR :0.96797: L2-HR :0.80179: (Sim:1h12m20s) 
CPU  3 inst:   76000000 cyc:   88633705 now IPC :1.00254: AVG IPC :0.84428: L2-Pf-HR :0.96815: L2-HR :0.79982: (Sim:1h12m21s) 
CPU  2 inst:   75000003 cyc:   88695255 now IPC :0.93845: AVG IPC :0.83228: L2-Pf-HR :0.96814: L2-HR :0.80236: (Sim:1h12m25s) 
CPU  1 inst:   77000000 cyc:   89475136 now IPC :0.89134: AVG IPC :0.84755: L2-Pf-HR :0.96969: L2-HR :0.80249: (Sim:1h13m10s) 
CPU  0 inst:   76000000 cyc:   89657852 now IPC :0.95856: AVG IPC :0.83452: L2-Pf-HR :0.96797: L2-HR :0.80170: (Sim:1h13m21s) 
CPU  3 inst:   77000000 cyc:   89709324 now IPC :0.92970: AVG IPC :0.84531: L2-Pf-HR :0.96807: L2-HR :0.79978: (Sim:1h13m24s) 
CPU  2 inst:   76000000 cyc:   89782572 now IPC :0.91969: AVG IPC :0.83335: L2-Pf-HR :0.96812: L2-HR :0.80228: (Sim:1h13m28s) 
CPU  1 inst:   78000003 cyc:   90550037 now IPC :0.93032: AVG IPC :0.84854: L2-Pf-HR :0.96964: L2-HR :0.80299: (Sim:1h14m12s) 
CPU  3 inst:   78000003 cyc:   90764298 now IPC :0.94789: AVG IPC :0.84652: L2-Pf-HR :0.96799: L2-HR :0.80016: (Sim:1h14m23s) 
CPU  0 inst:   77000000 cyc:   90832102 now IPC :0.85161: AVG IPC :0.83475: L2-Pf-HR :0.96788: L2-HR :0.80166: (Sim:1h14m27s) 
CPU  2 inst:   77000000 cyc:   90952009 now IPC :0.85511: AVG IPC :0.83363: L2-Pf-HR :0.96801: L2-HR :0.80224: (Sim:1h14m35s) 
CPU  1 inst:   79000000 cyc:   91520287 now IPC :1.03066: AVG IPC :0.85049: L2-Pf-HR :0.96956: L2-HR :0.80346: (Sim:1h15m11s) 
CPU  3 inst:   79000000 cyc:   91704360 now IPC :1.06376: AVG IPC :0.84877: L2-Pf-HR :0.96797: L2-HR :0.80057: (Sim:1h15m18s) 
CPU  0 inst:   78000003 cyc:   91799731 now IPC :1.03346: AVG IPC :0.83686: L2-Pf-HR :0.96785: L2-HR :0.80208: (Sim:1h15m21s) 
CPU  2 inst:   78000003 cyc:   91859933 now IPC :1.10142: AVG IPC :0.83630: L2-Pf-HR :0.96789: L2-HR :0.80254: (Sim:1h15m23s) 
CPU  1 inst:   80000005 cyc:   92453378 now IPC :1.07171: AVG IPC :0.85275: L2-Pf-HR :0.96948: L2-HR :0.80377: (Sim:1h15m44s) 
CPU  3 inst:   80000005 cyc:   92619011 now IPC :1.09332: AVG IPC :0.85121: L2-Pf-HR :0.96785: L2-HR :0.80085: (Sim:1h15m50s) 
CPU  0 inst:   79000000 cyc:   92771647 now IPC :1.02889: AVG IPC :0.83890: L2-Pf-HR :0.96780: L2-HR :0.80253: (Sim:1h15m55s) 
CPU  2 inst:   79000000 cyc:   92819159 now IPC :1.04250: AVG IPC :0.83846: L2-Pf-HR :0.96779: L2-HR :0.80299: (Sim:1h15m57s) 
CPU  1 inst:   81000005 cyc:   93620724 now IPC :0.85664: AVG IPC :0.85280: L2-Pf-HR :0.96926: L2-HR :0.80357: (Sim:1h16m22s) 
CPU  3 inst:   81000005 cyc:   93835120 now IPC :0.82229: AVG IPC :0.85083: L2-Pf-HR :0.96777: L2-HR :0.80068: (Sim:1h16m32s) 
CPU  0 inst:   80000005 cyc:   93977049 now IPC :0.82960: AVG IPC :0.83878: L2-Pf-HR :0.96779: L2-HR :0.80297: (Sim:1h16m39s) 
CPU  2 inst:   80000005 cyc:   94010430 now IPC :0.83944: AVG IPC :0.83847: L2-Pf-HR :0.96780: L2-HR :0.80346: (Sim:1h16m41s) 
CPU  1 inst:   82000000 cyc:   94821817 now IPC :0.83257: AVG IPC :0.85254: L2-Pf-HR :0.96939: L2-HR :0.80348: (Sim:1h17m21s) 
CPU  3 inst:   82000000 cyc:   94967612 now IPC :0.88300: AVG IPC :0.85122: L2-Pf-HR :0.96781: L2-HR :0.80056: (Sim:1h17m29s) 
CPU  0 inst:   81000005 cyc:   95550659 now IPC :0.63548: AVG IPC :0.83539: L2-Pf-HR :0.96762: L2-HR :0.80282: (Sim:1h17m55s) 
CPU  2 inst:   81000005 cyc:   95588821 now IPC :0.63356: AVG IPC :0.83505: L2-Pf-HR :0.96767: L2-HR :0.80337: (Sim:1h17m56s) 
CPU  1 inst:   83000001 cyc:   96462096 now IPC :0.60965: AVG IPC :0.84836: L2-Pf-HR :0.96945: L2-HR :0.80335: (Sim:1h18m32s) 
CPU  3 inst:   83000001 cyc:   96551869 now IPC :0.63121: AVG IPC :0.84757: L2-Pf-HR :0.96788: L2-HR :0.80048: (Sim:1h18m35s) 
CPU  0 inst:   82000000 cyc:   97289423 now IPC :0.57512: AVG IPC :0.83070: L2-Pf-HR :0.96772: L2-HR :0.80277: (Sim:1h19m6s) 
CPU  2 inst:   82000000 cyc:   97480614 now IPC :0.52860: AVG IPC :0.82904: L2-Pf-HR :0.96781: L2-HR :0.80340: (Sim:1h19m13s) 
CPU  1 inst:   84000005 cyc:   98291973 now IPC :0.54649: AVG IPC :0.84269: L2-Pf-HR :0.96952: L2-HR :0.80329: (Sim:1h19m50s) 
CPU  3 inst:   84000005 cyc:   98295653 now IPC :0.57347: AVG IPC :0.84266: L2-Pf-HR :0.96799: L2-HR :0.80047: (Sim:1h19m50s) 
CPU  0 inst:   83000001 cyc:   98569357 now IPC :0.78129: AVG IPC :0.83005: L2-Pf-HR :0.96783: L2-HR :0.80266: (Sim:1h20m2s) 
CPU  2 inst:   83000001 cyc:   99004327 now IPC :0.65629: AVG IPC :0.82636: L2-Pf-HR :0.96787: L2-HR :0.80331: (Sim:1h20m23s) 
CPU  0 inst:   84000005 cyc:   99769856 now IPC :0.83299: AVG IPC :0.83008: L2-Pf-HR :0.96788: L2-HR :0.80248: (Sim:1h20m58s) 
CPU  1 inst:   85000002 cyc:   99902338 now IPC :0.62098: AVG IPC :0.83908: L2-Pf-HR :0.96963: L2-HR :0.80322: (Sim:1h21m5s) 
CPU  3 inst:   85000005 cyc:   99924255 now IPC :0.61402: AVG IPC :0.83890: L2-Pf-HR :0.96808: L2-HR :0.80044: (Sim:1h21m6s) 
CPU  2 inst:   84000005 cyc:  100326324 now IPC :0.75643: AVG IPC :0.82543: L2-Pf-HR :0.96788: L2-HR :0.80316: (Sim:1h21m25s) 
CPU  0 inst:   85000002 cyc:  101199661 now IPC :0.69939: AVG IPC :0.82822: L2-Pf-HR :0.96785: L2-HR :0.80235: (Sim:1h22m6s) 
CPU  1 inst:   86000001 cyc:  101449050 now IPC :0.64653: AVG IPC :0.83611: L2-Pf-HR :0.96969: L2-HR :0.80312: (Sim:1h22m18s) 
CPU  2 inst:   85000000 cyc:  101491188 now IPC :0.85847: AVG IPC :0.82581: L2-Pf-HR :0.96785: L2-HR :0.80299: (Sim:1h22m20s) 
CPU  3 inst:   86000001 cyc:  101530020 now IPC :0.62275: AVG IPC :0.83544: L2-Pf-HR :0.96813: L2-HR :0.80033: (Sim:1h22m21s) 
CPU  0 inst:   86000001 cyc:  102686175 now IPC :0.67271: AVG IPC :0.82595: L2-Pf-HR :0.96787: L2-HR :0.80218: (Sim:1h23m16s) 
CPU  2 inst:   86000001 cyc:  102864722 now IPC :0.72805: AVG IPC :0.82449: L2-Pf-HR :0.96786: L2-HR :0.80285: (Sim:1h23m23s) 
CPU  1 inst:   87000000 cyc:  103055206 now IPC :0.62260: AVG IPC :0.83275: L2-Pf-HR :0.96963: L2-HR :0.80289: (Sim:1h23m31s) 
CPU  3 inst:   87000000 cyc:  103244335 now IPC :0.58332: AVG IPC :0.83122: L2-Pf-HR :0.96807: L2-HR :0.80014: (Sim:1h23m39s) 
CPU  0 inst:   87000000 cyc:  104457046 now IPC :0.56469: AVG IPC :0.82147: L2-Pf-HR :0.96784: L2-HR :0.80202: (Sim:1h24m32s) 
CPU  1 inst:   88000002 cyc:  104638005 now IPC :0.63179: AVG IPC :0.82969: L2-Pf-HR :0.96980: L2-HR :0.80312: (Sim:1h24m40s) 
CPU  2 inst:   87000000 cyc:  104638121 now IPC :0.56389: AVG IPC :0.82003: L2-Pf-HR :0.96784: L2-HR :0.80268: (Sim:1h24m40s) 
CPU  3 inst:   88000000 cyc:  104732368 now IPC :0.67203: AVG IPC :0.82893: L2-Pf-HR :0.96823: L2-HR :0.80038: (Sim:1h24m45s) 
CPU  1 inst:   89000004 cyc:  105748738 now IPC :0.90031: AVG IPC :0.83043: L2-Pf-HR :0.96982: L2-HR :0.80309: (Sim:1h25m36s) 
CPU  0 inst:   88000005 cyc:  105784836 now IPC :0.75313: AVG IPC :0.82061: L2-Pf-HR :0.96799: L2-HR :0.80215: (Sim:1h25m38s) 
CPU  2 inst:   88000000 cyc:  105846886 now IPC :0.82729: AVG IPC :0.82012: L2-Pf-HR :0.96799: L2-HR :0.80282: (Sim:1h25m42s) 
CPU  3 inst:   89000005 cyc:  105957169 now IPC :0.81646: AVG IPC :0.82879: L2-Pf-HR :0.96827: L2-HR :0.80035: (Sim:1h25m47s) 
CPU  1 inst:   90000004 cyc:  106739507 now IPC :1.00932: AVG IPC :0.83211: L2-Pf-HR :0.96981: L2-HR :0.80301: (Sim:1h26m30s) 
CPU  0 inst:   89000005 cyc:  107006807 now IPC :0.81835: AVG IPC :0.82058: L2-Pf-HR :0.96802: L2-HR :0.80210: (Sim:1h26m44s) 
CPU  3 inst:   90000004 cyc:  107028428 now IPC :0.93348: AVG IPC :0.82985: L2-Pf-HR :0.96827: L2-HR :0.80026: (Sim:1h26m45s) 
CPU  2 inst:   89000003 cyc:  107045241 now IPC :0.83448: AVG IPC :0.82028: L2-Pf-HR :0.96801: L2-HR :0.80275: (Sim:1h26m46s) 
CPU  1 inst:   91000004 cyc:  107829216 now IPC :0.91768: AVG IPC :0.83298: L2-Pf-HR :0.96980: L2-HR :0.80293: (Sim:1h27m28s) 
CPU  3 inst:   91000004 cyc:  108014105 now IPC :1.01453: AVG IPC :0.83155: L2-Pf-HR :0.96824: L2-HR :0.80016: (Sim:1h27m38s) 
CPU  0 inst:   90000004 cyc:  108293699 now IPC :0.77707: AVG IPC :0.82006: L2-Pf-HR :0.96808: L2-HR :0.80213: (Sim:1h27m52s) 
CPU  2 inst:   90000004 cyc:  108329744 now IPC :0.77851: AVG IPC :0.81978: L2-Pf-HR :0.96800: L2-HR :0.80268: (Sim:1h27m54s) 
CPU  1 inst:   92000004 cyc:  109124123 now IPC :0.77226: AVG IPC :0.83226: L2-Pf-HR :0.96976: L2-HR :0.80287: (Sim:1h28m32s) 
CPU  3 inst:   92000004 cyc:  109218151 now IPC :0.83053: AVG IPC :0.83154: L2-Pf-HR :0.96826: L2-HR :0.80012: (Sim:1h28m35s) 
CPU  0 inst:   91000004 cyc:  109697207 now IPC :0.71250: AVG IPC :0.81867: L2-Pf-HR :0.96814: L2-HR :0.80212: (Sim:1h28m57s) 
CPU  2 inst:   91000004 cyc:  109785346 now IPC :0.68700: AVG IPC :0.81800: L2-Pf-HR :0.96805: L2-HR :0.80266: (Sim:1h29m2s) 
CPU  1 inst:   93000002 cyc:  110632948 now IPC :0.66277: AVG IPC :0.82992: L2-Pf-HR :0.96966: L2-HR :0.80273: (Sim:1h29m44s) 
CPU  3 inst:   93000005 cyc:  110654765 now IPC :0.69608: AVG IPC :0.82976: L2-Pf-HR :0.96814: L2-HR :0.80000: (Sim:1h29m45s) 
CPU  0 inst:   92000004 cyc:  110793165 now IPC :0.91244: AVG IPC :0.81961: L2-Pf-HR :0.96816: L2-HR :0.80209: (Sim:1h29m53s) 
CPU  2 inst:   92000004 cyc:  110953216 now IPC :0.85626: AVG IPC :0.81841: L2-Pf-HR :0.96809: L2-HR :0.80264: (Sim:1h30m2s) 
CPU  0 inst:   93000004 cyc:  111914740 now IPC :0.89160: AVG IPC :0.82034: L2-Pf-HR :0.96805: L2-HR :0.80196: (Sim:1h30m49s) 
CPU  3 inst:   94000001 cyc:  112000712 now IPC :0.74297: AVG IPC :0.82871: L2-Pf-HR :0.96814: L2-HR :0.80029: (Sim:1h30m54s) 
CPU  1 inst:   94000001 cyc:  112001759 now IPC :0.73056: AVG IPC :0.82870: L2-Pf-HR :0.96965: L2-HR :0.80307: (Sim:1h30m54s) 
CPU  2 inst:   93000004 cyc:  112269355 now IPC :0.75980: AVG IPC :0.81772: L2-Pf-HR :0.96803: L2-HR :0.80252: (Sim:1h31m6s) 
CPU  0 inst:   94000001 cyc:  112999940 now IPC :0.92149: AVG IPC :0.82132: L2-Pf-HR :0.96814: L2-HR :0.80251: (Sim:1h31m44s) 
CPU  3 inst:   95000002 cyc:  113319617 now IPC :0.75821: AVG IPC :0.82788: L2-Pf-HR :0.96812: L2-HR :0.80063: (Sim:1h32m0s) 
CPU  1 inst:   95000002 cyc:  113348473 now IPC :0.74255: AVG IPC :0.82767: L2-Pf-HR :0.96958: L2-HR :0.80332: (Sim:1h32m2s) 
CPU  2 inst:   94000001 cyc:  113434738 now IPC :0.85808: AVG IPC :0.81814: L2-Pf-HR :0.96804: L2-HR :0.80290: (Sim:1h32m6s) 
CPU  0 inst:   95000002 cyc:  114123976 now IPC :0.88965: AVG IPC :0.82199: L2-Pf-HR :0.96812: L2-HR :0.80289: (Sim:1h32m42s) 
CPU  3 inst:   96000003 cyc:  114347068 now IPC :0.97328: AVG IPC :0.82920: L2-Pf-HR :0.96804: L2-HR :0.80085: (Sim:1h32m54s) 
CPU  1 inst:   96000003 cyc:  114516548 now IPC :0.85611: AVG IPC :0.82796: L2-Pf-HR :0.96954: L2-HR :0.80353: (Sim:1h33m3s) 
CPU  2 inst:   95000002 cyc:  114649348 now IPC :0.82331: AVG IPC :0.81819: L2-Pf-HR :0.96804: L2-HR :0.80331: (Sim:1h33m11s) 
CPU  0 inst:   96000003 cyc:  115262093 now IPC :0.87865: AVG IPC :0.82256: L2-Pf-HR :0.96809: L2-HR :0.80320: (Sim:1h33m45s) 
CPU  3 inst:   97000002 cyc:  115505785 now IPC :0.86302: AVG IPC :0.82954: L2-Pf-HR :0.96800: L2-HR :0.80076: (Sim:1h33m56s) 
CPU  1 inst:   97000002 cyc:  115716376 now IPC :0.83345: AVG IPC :0.82802: L2-Pf-HR :0.96938: L2-HR :0.80333: (Sim:1h34m6s) 
CPU  2 inst:   96000003 cyc:  115925418 now IPC :0.78366: AVG IPC :0.81781: L2-Pf-HR :0.96799: L2-HR :0.80364: (Sim:1h34m16s) 
CPU  3 inst:   98000003 cyc:  116617371 now IPC :0.89962: AVG IPC :0.83021: L2-Pf-HR :0.96820: L2-HR :0.80082: (Sim:1h34m50s) 
CPU  0 inst:   97000002 cyc:  116769564 now IPC :0.66336: AVG IPC :0.82049: L2-Pf-HR :0.96797: L2-HR :0.80326: (Sim:1h34m58s) 
CPU  1 inst:   98000003 cyc:  117071856 now IPC :0.73775: AVG IPC :0.82696: L2-Pf-HR :0.96947: L2-HR :0.80330: (Sim:1h35m13s) 
CPU  2 inst:   97000002 cyc:  117403843 now IPC :0.67639: AVG IPC :0.81601: L2-Pf-HR :0.96793: L2-HR :0.80371: (Sim:1h35m28s) 
CPU  3 inst:   99000001 cyc:  117849507 now IPC :0.81160: AVG IPC :0.83002: L2-Pf-HR :0.96828: L2-HR :0.80072: (Sim:1h35m51s) 
CPU  0 inst:   98000003 cyc:  118123465 now IPC :0.73861: AVG IPC :0.81954: L2-Pf-HR :0.96801: L2-HR :0.80325: (Sim:1h36m5s) 
CPU  1 inst:   99000001 cyc:  118433551 now IPC :0.73438: AVG IPC :0.82589: L2-Pf-HR :0.96952: L2-HR :0.80315: (Sim:1h36m21s) 
CPU  2 inst:   98000003 cyc:  118637708 now IPC :0.81046: AVG IPC :0.81595: L2-Pf-HR :0.96798: L2-HR :0.80362: (Sim:1h36m31s) 
CPU  3 inst:  100000004 cyc:  119024836 now IPC :0.85083: AVG IPC :0.83023: L2-Pf-HR :0.96834: L2-HR :0.80061: (Sim:1h36m51s) 
CPU  0 inst:   99000001 cyc:  119431658 now IPC :0.76441: AVG IPC :0.81893: L2-Pf-HR :0.96797: L2-HR :0.80308: (Sim:1h37m11s) 
CPU  1 inst:  100000004 cyc:  119764967 now IPC :0.75108: AVG IPC :0.82505: L2-Pf-HR :0.96952: L2-HR :0.80298: (Sim:1h37m28s) 
CPU  2 inst:   99000001 cyc:  119819756 now IPC :0.84599: AVG IPC :0.81625: L2-Pf-HR :0.96796: L2-HR :0.80341: (Sim:1h37m31s) 
CPU  3 inst:  101000000 cyc:  120349009 now IPC :0.75519: AVG IPC :0.82939: L2-Pf-HR :0.96835: L2-HR :0.80047: (Sim:1h37m56s) 
CPU  0 inst:  100000004 cyc:  120784748 now IPC :0.73905: AVG IPC :0.81803: L2-Pf-HR :0.96801: L2-HR :0.80296: (Sim:1h38m18s) 
CPU  2 inst:  100000004 cyc:  121116326 now IPC :0.77127: AVG IPC :0.81577: L2-Pf-HR :0.96800: L2-HR :0.80326: (Sim:1h38m34s) 
CPU  1 inst:  101000000 cyc:  121134455 now IPC :0.73020: AVG IPC :0.82397: L2-Pf-HR :0.96949: L2-HR :0.80283: (Sim:1h38m35s) 
CPU  3 inst:  102000002 cyc:  121694198 now IPC :0.74339: AVG IPC :0.82843: L2-Pf-HR :0.96838: L2-HR :0.80033: (Sim:1h39m2s) 
CPU  0 inst:  101000000 cyc:  122108943 now IPC :0.75517: AVG IPC :0.81734: L2-Pf-HR :0.96806: L2-HR :0.80284: (Sim:1h39m22s) 
CPU  2 inst:  101000000 cyc:  122457881 now IPC :0.74540: AVG IPC :0.81499: L2-Pf-HR :0.96801: L2-HR :0.80313: (Sim:1h39m38s) 
CPU  1 inst:  102000001 cyc:  122546932 now IPC :0.70798: AVG IPC :0.82262: L2-Pf-HR :0.96948: L2-HR :0.80266: (Sim:1h39m42s) 
CPU  3 inst:  103000000 cyc:  123119695 now IPC :0.70151: AVG IPC :0.82695: L2-Pf-HR :0.96840: L2-HR :0.80028: (Sim:1h40m10s) 
CPU  0 inst:  102000003 cyc:  123473987 now IPC :0.73258: AVG IPC :0.81640: L2-Pf-HR :0.96808: L2-HR :0.80271: (Sim:1h40m26s) 
CPU  2 inst:  102000002 cyc:  123812669 now IPC :0.73812: AVG IPC :0.81414: L2-Pf-HR :0.96806: L2-HR :0.80301: (Sim:1h40m44s) 
CPU  1 inst:  103000000 cyc:  123937863 now IPC :0.71894: AVG IPC :0.82145: L2-Pf-HR :0.96949: L2-HR :0.80264: (Sim:1h40m50s) 
CPU  3 inst:  104000001 cyc:  124582118 now IPC :0.68380: AVG IPC :0.82526: L2-Pf-HR :0.96839: L2-HR :0.80017: (Sim:1h41m20s) 
CPU  0 inst:  103000000 cyc:  124659759 now IPC :0.84333: AVG IPC :0.81666: L2-Pf-HR :0.96807: L2-HR :0.80270: (Sim:1h41m24s) 
CPU  2 inst:  103000000 cyc:  125358950 now IPC :0.64671: AVG IPC :0.81206: L2-Pf-HR :0.96810: L2-HR :0.80299: (Sim:1h41m56s) 
CPU  1 inst:  104000001 cyc:  125624242 now IPC :0.59299: AVG IPC :0.81836: L2-Pf-HR :0.96960: L2-HR :0.80260: (Sim:1h42m8s) 
CPU  0 inst:  104000001 cyc:  125965942 now IPC :0.76559: AVG IPC :0.81612: L2-Pf-HR :0.96805: L2-HR :0.80255: (Sim:1h42m25s) 
CPU  3 inst:  105000000 cyc:  126075928 now IPC :0.66943: AVG IPC :0.82340: L2-Pf-HR :0.96844: L2-HR :0.80023: (Sim:1h42m31s) 
CPU  1 inst:  105000005 cyc:  126692362 now IPC :0.93623: AVG IPC :0.81936: L2-Pf-HR :0.96960: L2-HR :0.80254: (Sim:1h43m2s) 
CPU  2 inst:  104000001 cyc:  126814739 now IPC :0.68691: AVG IPC :0.81061: L2-Pf-HR :0.96815: L2-HR :0.80289: (Sim:1h43m9s) 
CPU  0 inst:  105000003 cyc:  127170089 now IPC :0.83047: AVG IPC :0.81626: L2-Pf-HR :0.96808: L2-HR :0.80246: (Sim:1h43m28s) 
CPU  3 inst:  106000002 cyc:  127271314 now IPC :0.83655: AVG IPC :0.82352: L2-Pf-HR :0.96845: L2-HR :0.80019: (Sim:1h43m33s) 
CPU  1 inst:  106000002 cyc:  127683368 now IPC :1.00907: AVG IPC :0.82084: L2-Pf-HR :0.96958: L2-HR :0.80245: (Sim:1h43m56s) 
CPU  2 inst:  105000005 cyc:  128004999 now IPC :0.84016: AVG IPC :0.81089: L2-Pf-HR :0.96815: L2-HR :0.80282: (Sim:1h44m14s) 
CPU  3 inst:  107000002 cyc:  128265251 now IPC :1.00610: AVG IPC :0.82495: L2-Pf-HR :0.96843: L2-HR :0.80010: (Sim:1h44m28s) 
CPU  0 inst:  106000002 cyc:  128310559 now IPC :0.87683: AVG IPC :0.81680: L2-Pf-HR :0.96805: L2-HR :0.80241: (Sim:1h44m31s) 
CPU  1 inst:  107000002 cyc:  128760776 now IPC :0.92815: AVG IPC :0.82175: L2-Pf-HR :0.96959: L2-HR :0.80234: (Sim:1h44m55s) 
CPU  2 inst:  106000002 cyc:  129196878 now IPC :0.83901: AVG IPC :0.81115: L2-Pf-HR :0.96819: L2-HR :0.80275: (Sim:1h45m18s) 
CPU  3 inst:  108000002 cyc:  129248829 now IPC :1.01670: AVG IPC :0.82642: L2-Pf-HR :0.96841: L2-HR :0.79999: (Sim:1h45m21s) 
CPU  0 inst:  107000002 cyc:  129507626 now IPC :0.83538: AVG IPC :0.81697: L2-Pf-HR :0.96806: L2-HR :0.80234: (Sim:1h45m35s) 
CPU  1 inst:  108000002 cyc:  129983995 now IPC :0.81752: AVG IPC :0.82171: L2-Pf-HR :0.96959: L2-HR :0.80224: (Sim:1h46m0s) 
CPU  3 inst:  109000000 cyc:  130325071 now IPC :0.92916: AVG IPC :0.82727: L2-Pf-HR :0.96841: L2-HR :0.79995: (Sim:1h46m18s) 
CPU  2 inst:  107000002 cyc:  130344714 now IPC :0.87120: AVG IPC :0.81168: L2-Pf-HR :0.96824: L2-HR :0.80267: (Sim:1h46m19s) 
CPU  0 inst:  108000002 cyc:  130714235 now IPC :0.82877: AVG IPC :0.81708: L2-Pf-HR :0.96811: L2-HR :0.80230: (Sim:1h46m38s) 
CPU  1 inst:  109000000 cyc:  131174879 now IPC :0.83971: AVG IPC :0.82187: L2-Pf-HR :0.96955: L2-HR :0.80221: (Sim:1h47m0s) 
CPU  3 inst:  110000000 cyc:  131688842 now IPC :0.73326: AVG IPC :0.82629: L2-Pf-HR :0.96829: L2-HR :0.80021: (Sim:1h47m25s) 
CPU  2 inst:  108000002 cyc:  131694905 now IPC :0.74064: AVG IPC :0.81095: L2-Pf-HR :0.96829: L2-HR :0.80263: (Sim:1h47m25s) 
CPU  0 inst:  109000003 cyc:  132038887 now IPC :0.75492: AVG IPC :0.81646: L2-Pf-HR :0.96814: L2-HR :0.80235: (Sim:1h47m44s) 
CPU  1 inst:  110000005 cyc:  132415608 now IPC :0.80598: AVG IPC :0.82172: L2-Pf-HR :0.96947: L2-HR :0.80245: (Sim:1h48m4s) 
CPU  3 inst:  111000004 cyc:  132805368 now IPC :0.89564: AVG IPC :0.82688: L2-Pf-HR :0.96828: L2-HR :0.80046: (Sim:1h48m23s) 
CPU  2 inst:  109000004 cyc:  132954205 now IPC :0.79409: AVG IPC :0.81079: L2-Pf-HR :0.96836: L2-HR :0.80266: (Sim:1h48m31s) 
CPU  0 inst:  110000004 cyc:  133272881 now IPC :0.81038: AVG IPC :0.81640: L2-Pf-HR :0.96804: L2-HR :0.80260: (Sim:1h48m48s) 
CPU  1 inst:  111000003 cyc:  133478770 now IPC :0.94059: AVG IPC :0.82268: L2-Pf-HR :0.96945: L2-HR :0.80272: (Sim:1h49m0s) 
CPU  3 inst:  112000000 cyc:  133863748 now IPC :0.94484: AVG IPC :0.82782: L2-Pf-HR :0.96824: L2-HR :0.80076: (Sim:1h49m22s) 
CPU  2 inst:  110000005 cyc:  134050545 now IPC :0.91213: AVG IPC :0.81162: L2-Pf-HR :0.96829: L2-HR :0.80287: (Sim:1h49m33s) 
CPU  0 inst:  111000004 cyc:  134247373 now IPC :1.02618: AVG IPC :0.81793: L2-Pf-HR :0.96801: L2-HR :0.80285: (Sim:1h49m45s) 
CPU  1 inst:  112000000 cyc:  134478339 now IPC :1.00043: AVG IPC :0.82401: L2-Pf-HR :0.96940: L2-HR :0.80303: (Sim:1h49m59s) 
CPU  3 inst:  113000005 cyc:  134850878 now IPC :1.01304: AVG IPC :0.82919: L2-Pf-HR :0.96818: L2-HR :0.80100: (Sim:1h50m20s) 
CPU  2 inst:  111000003 cyc:  135107082 now IPC :0.94649: AVG IPC :0.81269: L2-Pf-HR :0.96823: L2-HR :0.80314: (Sim:1h50m33s) 
CPU  0 inst:  112000000 cyc:  135267699 now IPC :0.98008: AVG IPC :0.81916: L2-Pf-HR :0.96801: L2-HR :0.80319: (Sim:1h50m41s) 
CPU  1 inst:  113000005 cyc:  135568885 now IPC :0.91698: AVG IPC :0.82476: L2-Pf-HR :0.96943: L2-HR :0.80339: (Sim:1h50m58s) 
CPU  3 inst:  114000001 cyc:  136219262 now IPC :0.73079: AVG IPC :0.82819: L2-Pf-HR :0.96813: L2-HR :0.80063: (Sim:1h51m31s) 
CPU  2 inst:  112000000 cyc:  136233290 now IPC :0.88793: AVG IPC :0.81331: L2-Pf-HR :0.96822: L2-HR :0.80349: (Sim:1h51m32s) 
CPU  0 inst:  113000005 cyc:  136436908 now IPC :0.85528: AVG IPC :0.81948: L2-Pf-HR :0.96798: L2-HR :0.80356: (Sim:1h51m44s) 
CPU  1 inst:  114000002 cyc:  136939051 now IPC :0.72984: AVG IPC :0.82380: L2-Pf-HR :0.96943: L2-HR :0.80302: (Sim:1h52m8s) 
CPU  3 inst:  115000003 cyc:  137484410 now IPC :0.79042: AVG IPC :0.82784: L2-Pf-HR :0.96814: L2-HR :0.80053: (Sim:1h52m33s) 
CPU  2 inst:  113000005 cyc:  137542223 now IPC :0.76398: AVG IPC :0.81284: L2-Pf-HR :0.96824: L2-HR :0.80388: (Sim:1h52m35s) 
CPU  0 inst:  114000002 cyc:  138164767 now IPC :0.57875: AVG IPC :0.81644: L2-Pf-HR :0.96794: L2-HR :0.80318: (Sim:1h53m1s) 
CPU  1 inst:  115000003 cyc:  138666854 now IPC :0.57877: AVG IPC :0.82073: L2-Pf-HR :0.96946: L2-HR :0.80296: (Sim:1h53m23s) 
CPU  3 inst:  116000002 cyc:  139003815 now IPC :0.65815: AVG IPC :0.82597: L2-Pf-HR :0.96814: L2-HR :0.80043: (Sim:1h53m39s) 
CPU  2 inst:  114000001 cyc:  139108776 now IPC :0.63834: AVG IPC :0.81086: L2-Pf-HR :0.96825: L2-HR :0.80357: (Sim:1h53m43s) 
CPU  0 inst:  115000003 cyc:  139792125 now IPC :0.61449: AVG IPC :0.81408: L2-Pf-HR :0.96800: L2-HR :0.80314: (Sim:1h54m16s) 
CPU  1 inst:  116000002 cyc:  140218420 now IPC :0.64451: AVG IPC :0.81876: L2-Pf-HR :0.96950: L2-HR :0.80287: (Sim:1h54m36s) 
CPU  2 inst:  115000003 cyc:  140232676 now IPC :0.88976: AVG IPC :0.81150: L2-Pf-HR :0.96824: L2-HR :0.80346: (Sim:1h54m37s) 
CPU  3 inst:  117000003 cyc:  140540030 now IPC :0.65095: AVG IPC :0.82405: L2-Pf-HR :0.96814: L2-HR :0.80032: (Sim:1h54m51s) 
CPU  0 inst:  116000002 cyc:  141399804 now IPC :0.62201: AVG IPC :0.81188: L2-Pf-HR :0.96809: L2-HR :0.80309: (Sim:1h55m30s) 
CPU  2 inst:  116000002 cyc:  141549341 now IPC :0.75949: AVG IPC :0.81101: L2-Pf-HR :0.96825: L2-HR :0.80332: (Sim:1h55m35s) 
CPU  1 inst:  117000003 cyc:  141851237 now IPC :0.61244: AVG IPC :0.81637: L2-Pf-HR :0.96954: L2-HR :0.80281: (Sim:1h55m48s) 
CPU  3 inst:  118000001 cyc:  142327395 now IPC :0.55948: AVG IPC :0.82070: L2-Pf-HR :0.96818: L2-HR :0.80023: (Sim:1h56m8s) 
CPU  0 inst:  117000003 cyc:  143053472 now IPC :0.60472: AVG IPC :0.80947: L2-Pf-HR :0.96816: L2-HR :0.80303: (Sim:1h56m38s) 
CPU  2 inst:  117000003 cyc:  143232338 now IPC :0.59418: AVG IPC :0.80845: L2-Pf-HR :0.96830: L2-HR :0.80321: (Sim:1h56m45s) 
CPU  1 inst:  118000001 cyc:  143640790 now IPC :0.55880: AVG IPC :0.81314: L2-Pf-HR :0.96961: L2-HR :0.80278: (Sim:1h57m4s) 
CPU  3 inst:  119000005 cyc:  144004599 now IPC :0.59623: AVG IPC :0.81807: L2-Pf-HR :0.96825: L2-HR :0.80021: (Sim:1h57m20s) 
CPU  0 inst:  118000001 cyc:  144292905 now IPC :0.80682: AVG IPC :0.80944: L2-Pf-HR :0.96816: L2-HR :0.80294: (Sim:1h57m34s) 
CPU  2 inst:  118000001 cyc:  144760357 now IPC :0.65444: AVG IPC :0.80681: L2-Pf-HR :0.96833: L2-HR :0.80313: (Sim:1h57m57s) 
CPU  1 inst:  119000005 cyc:  145129974 now IPC :0.67151: AVG IPC :0.81168: L2-Pf-HR :0.96964: L2-HR :0.80272: (Sim:1h58m15s) 
CPU  0 inst:  119000005 cyc:  145459088 now IPC :0.85750: AVG IPC :0.80983: L2-Pf-HR :0.96819: L2-HR :0.80286: (Sim:1h58m31s) 
CPU  3 inst:  120000002 cyc:  145508452 now IPC :0.66496: AVG IPC :0.81647: L2-Pf-HR :0.96825: L2-HR :0.80018: (Sim:1h58m33s) 
CPU  2 inst:  119000005 cyc:  146115530 now IPC :0.73792: AVG IPC :0.80617: L2-Pf-HR :0.96835: L2-HR :0.80303: (Sim:1h59m3s) 
CPU  1 inst:  120000002 cyc:  146629172 now IPC :0.66702: AVG IPC :0.81019: L2-Pf-HR :0.96962: L2-HR :0.80265: (Sim:1h59m28s) 
CPU  0 inst:  120000002 cyc:  146752970 now IPC :0.77287: AVG IPC :0.80950: L2-Pf-HR :0.96820: L2-HR :0.80282: (Sim:1h59m34s) 
CPU  3 inst:  121000002 cyc:  146889744 now IPC :0.72396: AVG IPC :0.81560: L2-Pf-HR :0.96826: L2-HR :0.80019: (Sim:1h59m39s) 
CPU  2 inst:  120000002 cyc:  147707212 now IPC :0.62826: AVG IPC :0.80424: L2-Pf-HR :0.96835: L2-HR :0.80298: (Sim:2h0m18s) 
CPU  3 inst:  122000002 cyc:  147993413 now IPC :0.90607: AVG IPC :0.81628: L2-Pf-HR :0.96826: L2-HR :0.80016: (Sim:2h0m32s) 
CPU  1 inst:  121000002 cyc:  148152615 now IPC :0.65641: AVG IPC :0.80860: L2-Pf-HR :0.96966: L2-HR :0.80263: (Sim:2h0m39s) 
CPU  0 inst:  121000002 cyc:  148192951 now IPC :0.69445: AVG IPC :0.80838: L2-Pf-HR :0.96826: L2-HR :0.80283: (Sim:2h0m41s) 
CPU  3 inst:  123000000 cyc:  149065443 now IPC :0.93281: AVG IPC :0.81712: L2-Pf-HR :0.96827: L2-HR :0.80009: (Sim:2h1m23s) 
CPU  2 inst:  121000002 cyc:  149100868 now IPC :0.71754: AVG IPC :0.80342: L2-Pf-HR :0.96842: L2-HR :0.80296: (Sim:2h1m25s) 
CPU  1 inst:  122000005 cyc:  149632246 now IPC :0.67585: AVG IPC :0.80728: L2-Pf-HR :0.96970: L2-HR :0.80260: (Sim:2h1m52s) 
CPU  0 inst:  122000002 cyc:  149639590 now IPC :0.69126: AVG IPC :0.80724: L2-Pf-HR :0.96830: L2-HR :0.80281: (Sim:2h1m52s) 
CPU  2 inst:  122000002 cyc:  150042977 now IPC :1.06145: AVG IPC :0.80505: L2-Pf-HR :0.96846: L2-HR :0.80289: (Sim:2h2m13s) 
CPU  3 inst:  124000000 cyc:  150365448 now IPC :0.76923: AVG IPC :0.81670: L2-Pf-HR :0.96825: L2-HR :0.80004: (Sim:2h2m29s) 
CPU  1 inst:  123000000 cyc:  151038083 now IPC :0.71132: AVG IPC :0.80638: L2-Pf-HR :0.96971: L2-HR :0.80257: (Sim:2h3m0s) 
CPU  0 inst:  123000000 cyc:  151135955 now IPC :0.66828: AVG IPC :0.80585: L2-Pf-HR :0.96832: L2-HR :0.80278: (Sim:2h3m5s) 
CPU  2 inst:  123000000 cyc:  151196778 now IPC :0.86670: AVG IPC :0.80552: L2-Pf-HR :0.96850: L2-HR :0.80283: (Sim:2h3m8s) 
CPU  3 inst:  125000000 cyc:  151841902 now IPC :0.67730: AVG IPC :0.81534: L2-Pf-HR :0.96829: L2-HR :0.80003: (Sim:2h3m40s) 
CPU  1 inst:  124000000 cyc:  152011526 now IPC :1.02728: AVG IPC :0.80780: L2-Pf-HR :0.96972: L2-HR :0.80252: (Sim:2h3m49s) 
CPU  0 inst:  124000000 cyc:  152431898 now IPC :0.77164: AVG IPC :0.80556: L2-Pf-HR :0.96836: L2-HR :0.80275: (Sim:2h4m10s) 
CPU  2 inst:  124000000 cyc:  152522171 now IPC :0.75449: AVG IPC :0.80508: L2-Pf-HR :0.96854: L2-HR :0.80279: (Sim:2h4m14s) 
CPU  1 inst:  125000000 cyc:  153006060 now IPC :1.00550: AVG IPC :0.80909: L2-Pf-HR :0.96974: L2-HR :0.80246: (Sim:2h4m41s) 
CPU  3 inst:  126000005 cyc:  153142014 now IPC :0.76917: AVG IPC :0.81495: L2-Pf-HR :0.96824: L2-HR :0.80020: (Sim:2h4m49s) 
CPU  0 inst:  125000000 cyc:  153569922 now IPC :0.87872: AVG IPC :0.80611: L2-Pf-HR :0.96839: L2-HR :0.80271: (Sim:2h5m12s) 
CPU  2 inst:  125000000 cyc:  153622236 now IPC :0.90904: AVG IPC :0.80583: L2-Pf-HR :0.96853: L2-HR :0.80275: (Sim:2h5m15s) 
CPU  1 inst:  126000005 cyc:  154300403 now IPC :0.77260: AVG IPC :0.80879: L2-Pf-HR :0.96966: L2-HR :0.80264: (Sim:2h5m36s) 
CPU  3 inst:  127000005 cyc:  154388611 now IPC :0.80218: AVG IPC :0.81484: L2-Pf-HR :0.96824: L2-HR :0.80048: (Sim:2h5m38s) 
CPU  2 inst:  126000005 cyc:  155093562 now IPC :0.67966: AVG IPC :0.80462: L2-Pf-HR :0.96846: L2-HR :0.80286: (Sim:2h5m58s) 
CPU  0 inst:  126000005 cyc:  155097810 now IPC :0.65450: AVG IPC :0.80460: L2-Pf-HR :0.96835: L2-HR :0.80292: (Sim:2h5m58s) 
CPU  1 inst:  127000005 cyc:  155362578 now IPC :0.94146: AVG IPC :0.80970: L2-Pf-HR :0.96963: L2-HR :0.80293: (Sim:2h6m7s) 
CPU  3 inst:  128000003 cyc:  155528466 now IPC :0.87730: AVG IPC :0.81530: L2-Pf-HR :0.96822: L2-HR :0.80075: (Sim:2h6m12s) 
CPU  0 inst:  127000004 cyc:  156294101 now IPC :0.83592: AVG IPC :0.80484: L2-Pf-HR :0.96834: L2-HR :0.80314: (Sim:2h6m35s) 
CPU  2 inst:  127000003 cyc:  156294836 now IPC :0.83245: AVG IPC :0.80484: L2-Pf-HR :0.96844: L2-HR :0.80304: (Sim:2h6m35s) 
CPU  1 inst:  128000000 cyc:  156426859 now IPC :0.93960: AVG IPC :0.81059: L2-Pf-HR :0.96955: L2-HR :0.80320: (Sim:2h6m39s) 
CPU  3 inst:  129000003 cyc:  156558919 now IPC :0.97045: AVG IPC :0.81633: L2-Pf-HR :0.96827: L2-HR :0.80101: (Sim:2h6m42s) 
CPU  2 inst:  128000000 cyc:  157556620 now IPC :0.79253: AVG IPC :0.80474: L2-Pf-HR :0.96843: L2-HR :0.80328: (Sim:2h7m10s) 
CPU  0 inst:  128000000 cyc:  157629810 now IPC :0.74866: AVG IPC :0.80437: L2-Pf-HR :0.96835: L2-HR :0.80343: (Sim:2h7m12s) 
CPU  1 inst:  129000000 cyc:  157710278 now IPC :0.77917: AVG IPC :0.81033: L2-Pf-HR :0.96955: L2-HR :0.80349: (Sim:2h7m14s) 
CPU  3 inst:  130000000 cyc:  157932072 now IPC :0.72825: AVG IPC :0.81556: L2-Pf-HR :0.96831: L2-HR :0.80081: (Sim:2h7m20s) 
CPU  2 inst:  129000002 cyc:  158754793 now IPC :0.83461: AVG IPC :0.80497: L2-Pf-HR :0.96846: L2-HR :0.80352: (Sim:2h7m44s) 
CPU  0 inst:  129000003 cyc:  158843938 now IPC :0.82364: AVG IPC :0.80451: L2-Pf-HR :0.96834: L2-HR :0.80365: (Sim:2h7m46s) 
CPU  1 inst:  130000000 cyc:  159065256 now IPC :0.73802: AVG IPC :0.80971: L2-Pf-HR :0.96953: L2-HR :0.80325: (Sim:2h7m53s) 
CPU  3 inst:  131000001 cyc:  159137393 now IPC :0.82966: AVG IPC :0.81567: L2-Pf-HR :0.96834: L2-HR :0.80073: (Sim:2h7m54s) 
CPU  2 inst:  130000000 cyc:  160295995 now IPC :0.64884: AVG IPC :0.80345: L2-Pf-HR :0.96856: L2-HR :0.80338: (Sim:2h8m26s) 
CPU  3 inst:  132000005 cyc:  160314357 now IPC :0.84965: AVG IPC :0.81592: L2-Pf-HR :0.96835: L2-HR :0.80065: (Sim:2h8m27s) 
CPU  0 inst:  130000000 cyc:  160345830 now IPC :0.66582: AVG IPC :0.80321: L2-Pf-HR :0.96833: L2-HR :0.80345: (Sim:2h8m28s) 
CPU  1 inst:  131000002 cyc:  160368964 now IPC :0.76704: AVG IPC :0.80936: L2-Pf-HR :0.96954: L2-HR :0.80316: (Sim:2h8m28s) 
CPU  3 inst:  133000000 cyc:  161453952 now IPC :0.87750: AVG IPC :0.81636: L2-Pf-HR :0.96830: L2-HR :0.80052: (Sim:2h9m0s) 
CPU  1 inst:  132000005 cyc:  161531749 now IPC :0.86001: AVG IPC :0.80973: L2-Pf-HR :0.96952: L2-HR :0.80303: (Sim:2h9m2s) 
CPU  2 inst:  131000003 cyc:  161574637 now IPC :0.78208: AVG IPC :0.80328: L2-Pf-HR :0.96862: L2-HR :0.80335: (Sim:2h9m3s) 
CPU  0 inst:  131000002 cyc:  161671492 now IPC :0.75434: AVG IPC :0.80280: L2-Pf-HR :0.96837: L2-HR :0.80335: (Sim:2h9m6s) 
CPU  1 inst:  133000000 cyc:  162672772 now IPC :0.87640: AVG IPC :0.81020: L2-Pf-HR :0.96949: L2-HR :0.80288: (Sim:2h9m35s) 
CPU  3 inst:  134000004 cyc:  162698156 now IPC :0.80373: AVG IPC :0.81626: L2-Pf-HR :0.96832: L2-HR :0.80040: (Sim:2h9m35s) 
CPU  2 inst:  132000005 cyc:  162771537 now IPC :0.83549: AVG IPC :0.80352: L2-Pf-HR :0.96866: L2-HR :0.80328: (Sim:2h9m38s) 
CPU  0 inst:  132000005 cyc:  162985941 now IPC :0.76078: AVG IPC :0.80246: L2-Pf-HR :0.96840: L2-HR :0.80325: (Sim:2h9m44s) 
CPU  1 inst:  134000004 cyc:  163871500 now IPC :0.83422: AVG IPC :0.81038: L2-Pf-HR :0.96946: L2-HR :0.80275: (Sim:2h10m9s) 
CPU  2 inst:  133000000 cyc:  163909362 now IPC :0.87887: AVG IPC :0.80405: L2-Pf-HR :0.96864: L2-HR :0.80316: (Sim:2h10m10s) 
CPU  3 inst:  135000002 cyc:  164033916 now IPC :0.74864: AVG IPC :0.81570: L2-Pf-HR :0.96833: L2-HR :0.80031: (Sim:2h10m13s) 
CPU  0 inst:  133000000 cyc:  164281433 now IPC :0.77190: AVG IPC :0.80222: L2-Pf-HR :0.96841: L2-HR :0.80317: (Sim:2h10m20s) 
CPU  2 inst:  134000004 cyc:  165096368 now IPC :0.84246: AVG IPC :0.80433: L2-Pf-HR :0.96864: L2-HR :0.80305: (Sim:2h10m43s) 
CPU  1 inst:  135000002 cyc:  165182459 now IPC :0.76280: AVG IPC :0.81000: L2-Pf-HR :0.96945: L2-HR :0.80262: (Sim:2h10m45s) 
CPU  3 inst:  136000000 cyc:  165473540 now IPC :0.69462: AVG IPC :0.81464: L2-Pf-HR :0.96830: L2-HR :0.80020: (Sim:2h10m54s) 
CPU  0 inst:  134000004 cyc:  165480105 now IPC :0.83426: AVG IPC :0.80245: L2-Pf-HR :0.96846: L2-HR :0.80309: (Sim:2h10m54s) 
CPU  2 inst:  135000002 cyc:  166378968 now IPC :0.77966: AVG IPC :0.80414: L2-Pf-HR :0.96863: L2-HR :0.80294: (Sim:2h11m20s) 
CPU  1 inst:  136000000 cyc:  166627770 now IPC :0.69189: AVG IPC :0.80897: L2-Pf-HR :0.96943: L2-HR :0.80256: (Sim:2h11m27s) 
CPU  3 inst:  137000000 cyc:  166640841 now IPC :0.85668: AVG IPC :0.81494: L2-Pf-HR :0.96830: L2-HR :0.80016: (Sim:2h11m27s) 
CPU  0 inst:  135000002 cyc:  166660046 now IPC :0.84750: AVG IPC :0.80277: L2-Pf-HR :0.96848: L2-HR :0.80301: (Sim:2h11m28s) 
CPU  2 inst:  136000000 cyc:  167710297 now IPC :0.75113: AVG IPC :0.80371: L2-Pf-HR :0.96865: L2-HR :0.80288: (Sim:2h11m58s) 
CPU  1 inst:  137000000 cyc:  167772155 now IPC :0.87383: AVG IPC :0.80941: L2-Pf-HR :0.96945: L2-HR :0.80254: (Sim:2h12m0s) 
CPU  3 inst:  138000004 cyc:  167780772 now IPC :0.87725: AVG IPC :0.81537: L2-Pf-HR :0.96834: L2-HR :0.80015: (Sim:2h12m1s) 
CPU  0 inst:  136000000 cyc:  167963587 now IPC :0.76714: AVG IPC :0.80250: L2-Pf-HR :0.96847: L2-HR :0.80293: (Sim:2h12m6s) 
CPU  2 inst:  137000000 cyc:  168722889 now IPC :0.98756: AVG IPC :0.80482: L2-Pf-HR :0.96867: L2-HR :0.80281: (Sim:2h12m31s) 
CPU  1 inst:  138000004 cyc:  168806135 now IPC :0.96714: AVG IPC :0.81038: L2-Pf-HR :0.96947: L2-HR :0.80246: (Sim:2h12m33s) 
CPU  3 inst:  139000005 cyc:  168852405 now IPC :0.93316: AVG IPC :0.81612: L2-Pf-HR :0.96833: L2-HR :0.80011: (Sim:2h12m35s) 
CPU  0 inst:  137000000 cyc:  169014118 now IPC :0.95190: AVG IPC :0.80343: L2-Pf-HR :0.96848: L2-HR :0.80287: (Sim:2h12m40s) 
CPU  2 inst:  138000004 cyc:  169741723 now IPC :0.98152: AVG IPC :0.80589: L2-Pf-HR :0.96867: L2-HR :0.80274: (Sim:2h13m4s) 
CPU  1 inst:  139000005 cyc:  169828975 now IPC :0.97767: AVG IPC :0.81140: L2-Pf-HR :0.96947: L2-HR :0.80241: (Sim:2h13m7s) 
CPU  3 inst:  140000003 cyc:  169901623 now IPC :0.95309: AVG IPC :0.81697: L2-Pf-HR :0.96835: L2-HR :0.80007: (Sim:2h13m9s) 
CPU  0 inst:  138000004 cyc:  170033967 now IPC :0.98054: AVG IPC :0.80450: L2-Pf-HR :0.96849: L2-HR :0.80282: (Sim:2h13m13s) 
CPU  2 inst:  139000000 cyc:  170735470 now IPC :1.00629: AVG IPC :0.80706: L2-Pf-HR :0.96864: L2-HR :0.80266: (Sim:2h13m37s) 
CPU  1 inst:  140000003 cyc:  170871041 now IPC :0.95963: AVG IPC :0.81231: L2-Pf-HR :0.96950: L2-HR :0.80235: (Sim:2h13m41s) 
CPU  3 inst:  141000004 cyc:  170896190 now IPC :1.00546: AVG IPC :0.81807: L2-Pf-HR :0.96835: L2-HR :0.80003: (Sim:2h13m42s) 
CPU  0 inst:  139000000 cyc:  171003243 now IPC :1.03169: AVG IPC :0.80579: L2-Pf-HR :0.96847: L2-HR :0.80274: (Sim:2h13m46s) 
CPU  2 inst:  140000003 cyc:  171761997 now IPC :0.97416: AVG IPC :0.80807: L2-Pf-HR :0.96865: L2-HR :0.80258: (Sim:2h14m10s) 
CPU  1 inst:  141000004 cyc:  171900638 now IPC :0.97125: AVG IPC :0.81326: L2-Pf-HR :0.96948: L2-HR :0.80228: (Sim:2h14m15s) 
CPU  3 inst:  142000003 cyc:  172001288 now IPC :0.90490: AVG IPC :0.81863: L2-Pf-HR :0.96826: L2-HR :0.80011: (Sim:2h14m18s) 
CPU  0 inst:  140000003 cyc:  172013245 now IPC :0.99010: AVG IPC :0.80688: L2-Pf-HR :0.96845: L2-HR :0.80265: (Sim:2h14m18s) 
CPU  2 inst:  141000004 cyc:  172887099 now IPC :0.88881: AVG IPC :0.80859: L2-Pf-HR :0.96864: L2-HR :0.80251: (Sim:2h14m45s) 
CPU  0 inst:  141000004 cyc:  173002036 now IPC :1.01134: AVG IPC :0.80806: L2-Pf-HR :0.96845: L2-HR :0.80260: (Sim:2h14m48s) 
CPU  1 inst:  142000003 cyc:  173115464 now IPC :0.82316: AVG IPC :0.81333: L2-Pf-HR :0.96940: L2-HR :0.80235: (Sim:2h14m52s) 
CPU  3 inst:  143000000 cyc:  173117247 now IPC :0.89609: AVG IPC :0.81914: L2-Pf-HR :0.96819: L2-HR :0.80032: (Sim:2h14m52s) 
CPU  2 inst:  142000003 cyc:  174013822 now IPC :0.88753: AVG IPC :0.80911: L2-Pf-HR :0.96856: L2-HR :0.80260: (Sim:2h15m17s) 
CPU  0 inst:  142000003 cyc:  174287867 now IPC :0.77771: AVG IPC :0.80783: L2-Pf-HR :0.96841: L2-HR :0.80268: (Sim:2h15m25s) 
CPU  3 inst:  144000003 cyc:  174388842 now IPC :0.78642: AVG IPC :0.81890: L2-Pf-HR :0.96822: L2-HR :0.80058: (Sim:2h15m28s) 
CPU  1 inst:  143000000 cyc:  174407127 now IPC :0.77419: AVG IPC :0.81304: L2-Pf-HR :0.96934: L2-HR :0.80259: (Sim:2h15m29s) 
CPU  2 inst:  143000000 cyc:  175066728 now IPC :0.94975: AVG IPC :0.80996: L2-Pf-HR :0.96850: L2-HR :0.80280: (Sim:2h15m48s) 
CPU  0 inst:  143000000 cyc:  175359516 now IPC :0.93314: AVG IPC :0.80860: L2-Pf-HR :0.96835: L2-HR :0.80287: (Sim:2h15m57s) 
CPU  3 inst:  145000002 cyc:  175558575 now IPC :0.85490: AVG IPC :0.81914: L2-Pf-HR :0.96822: L2-HR :0.80082: (Sim:2h16m3s) 
CPU  1 inst:  144000000 cyc:  175658579 now IPC :0.79907: AVG IPC :0.81294: L2-Pf-HR :0.96934: L2-HR :0.80282: (Sim:2h16m6s) 
CPU  2 inst:  144000004 cyc:  176310831 now IPC :0.80380: AVG IPC :0.80992: L2-Pf-HR :0.96849: L2-HR :0.80302: (Sim:2h16m24s) 
CPU  0 inst:  144000004 cyc:  176433864 now IPC :0.93080: AVG IPC :0.80935: L2-Pf-HR :0.96833: L2-HR :0.80307: (Sim:2h16m27s) 
CPU  3 inst:  146000003 cyc:  176863162 now IPC :0.76653: AVG IPC :0.81875: L2-Pf-HR :0.96821: L2-HR :0.80066: (Sim:2h16m40s) 
CPU  1 inst:  145000004 cyc:  176932971 now IPC :0.78469: AVG IPC :0.81274: L2-Pf-HR :0.96935: L2-HR :0.80306: (Sim:2h16m42s) 
CPU  2 inst:  145000004 cyc:  177554943 now IPC :0.80379: AVG IPC :0.80987: L2-Pf-HR :0.96844: L2-HR :0.80326: (Sim:2h17m0s) 
CPU  0 inst:  145000004 cyc:  177631348 now IPC :0.83508: AVG IPC :0.80953: L2-Pf-HR :0.96831: L2-HR :0.80331: (Sim:2h17m2s) 
CPU  3 inst:  147000004 cyc:  177960775 now IPC :0.91107: AVG IPC :0.81932: L2-Pf-HR :0.96821: L2-HR :0.80057: (Sim:2h17m13s) 
CPU  1 inst:  146000003 cyc:  178364911 now IPC :0.69835: AVG IPC :0.81181: L2-Pf-HR :0.96937: L2-HR :0.80293: (Sim:2h17m23s) 
CPU  2 inst:  146000003 cyc:  178943445 now IPC :0.72020: AVG IPC :0.80917: L2-Pf-HR :0.96841: L2-HR :0.80312: (Sim:2h17m40s) 
CPU  0 inst:  146000003 cyc:  179014145 now IPC :0.72317: AVG IPC :0.80885: L2-Pf-HR :0.96829: L2-HR :0.80318: (Sim:2h17m42s) 
CPU  3 inst:  148000002 cyc:  179164248 now IPC :0.83093: AVG IPC :0.81940: L2-Pf-HR :0.96823: L2-HR :0.80050: (Sim:2h17m46s) 
CPU  1 inst:  147000004 cyc:  179539098 now IPC :0.85165: AVG IPC :0.81208: L2-Pf-HR :0.96939: L2-HR :0.80287: (Sim:2h17m57s) 
CPU  2 inst:  147000004 cyc:  180243704 now IPC :0.76908: AVG IPC :0.80888: L2-Pf-HR :0.96843: L2-HR :0.80309: (Sim:2h18m17s) 
CPU  3 inst:  149000000 cyc:  180339615 now IPC :0.85080: AVG IPC :0.81960: L2-Pf-HR :0.96821: L2-HR :0.80040: (Sim:2h18m20s) 
CPU  0 inst:  147000004 cyc:  180343204 now IPC :0.75241: AVG IPC :0.80844: L2-Pf-HR :0.96828: L2-HR :0.80319: (Sim:2h18m20s) 
CPU  1 inst:  148000004 cyc:  180830353 now IPC :0.77444: AVG IPC :0.81181: L2-Pf-HR :0.96940: L2-HR :0.80276: (Sim:2h18m34s) 
CPU  2 inst:  148000003 cyc:  181468454 now IPC :0.81649: AVG IPC :0.80893: L2-Pf-HR :0.96842: L2-HR :0.80303: (Sim:2h18m53s) 
CPU  3 inst:  150000003 cyc:  181587467 now IPC :0.80138: AVG IPC :0.81948: L2-Pf-HR :0.96820: L2-HR :0.80028: (Sim:2h18m56s) 
CPU  0 inst:  148000003 cyc:  181622545 now IPC :0.78165: AVG IPC :0.80825: L2-Pf-HR :0.96832: L2-HR :0.80320: (Sim:2h18m57s) 
CPU  1 inst:  149000000 cyc:  182102088 now IPC :0.78632: AVG IPC :0.81163: L2-Pf-HR :0.96943: L2-HR :0.80270: (Sim:2h19m11s) 
CPU  2 inst:  149000000 cyc:  182622119 now IPC :0.86680: AVG IPC :0.80930: L2-Pf-HR :0.96843: L2-HR :0.80297: (Sim:2h19m26s) 
CPU  0 inst:  149000000 cyc:  182779937 now IPC :0.86401: AVG IPC :0.80860: L2-Pf-HR :0.96831: L2-HR :0.80318: (Sim:2h19m31s) 
CPU  3 inst:  151000005 cyc:  182823288 now IPC :0.80918: AVG IPC :0.81941: L2-Pf-HR :0.96819: L2-HR :0.80015: (Sim:2h19m32s) 
CPU  1 inst:  150000001 cyc:  183386469 now IPC :0.77859: AVG IPC :0.81139: L2-Pf-HR :0.96942: L2-HR :0.80259: (Sim:2h19m49s) 
CPU  2 inst:  150000002 cyc:  183817708 now IPC :0.83641: AVG IPC :0.80948: L2-Pf-HR :0.96846: L2-HR :0.80293: (Sim:2h20m1s) 
CPU  0 inst:  150000002 cyc:  183964193 now IPC :0.84441: AVG IPC :0.80883: L2-Pf-HR :0.96829: L2-HR :0.80313: (Sim:2h20m6s) 
CPU  3 inst:  152000004 cyc:  184128425 now IPC :0.76620: AVG IPC :0.81903: L2-Pf-HR :0.96817: L2-HR :0.80006: (Sim:2h20m11s) 
CPU  1 inst:  151000005 cyc:  184558695 now IPC :0.85308: AVG IPC :0.81166: L2-Pf-HR :0.96944: L2-HR :0.80252: (Sim:2h20m24s) 
CPU  2 inst:  151000005 cyc:  184967043 now IPC :0.87007: AVG IPC :0.80986: L2-Pf-HR :0.96846: L2-HR :0.80290: (Sim:2h20m37s) 
CPU  0 inst:  151000005 cyc:  185112349 now IPC :0.87096: AVG IPC :0.80922: L2-Pf-HR :0.96829: L2-HR :0.80309: (Sim:2h20m41s) 
CPU  3 inst:  153000004 cyc:  185263183 now IPC :0.88125: AVG IPC :0.81941: L2-Pf-HR :0.96817: L2-HR :0.80004: (Sim:2h20m45s) 
CPU  1 inst:  152000004 cyc:  186001329 now IPC :0.69318: AVG IPC :0.81074: L2-Pf-HR :0.96942: L2-HR :0.80247: (Sim:2h21m5s) 
CPU  2 inst:  152000004 cyc:  186319440 now IPC :0.73943: AVG IPC :0.80934: L2-Pf-HR :0.96844: L2-HR :0.80287: (Sim:2h21m15s) 
CPU  0 inst:  152000004 cyc:  186440299 now IPC :0.75304: AVG IPC :0.80882: L2-Pf-HR :0.96828: L2-HR :0.80308: (Sim:2h21m19s) 
CPU  3 inst:  154000002 cyc:  186568097 now IPC :0.76633: AVG IPC :0.81904: L2-Pf-HR :0.96820: L2-HR :0.80006: (Sim:2h21m23s) 
CPU  1 inst:  153000004 cyc:  187151458 now IPC :0.86947: AVG IPC :0.81110: L2-Pf-HR :0.96946: L2-HR :0.80251: (Sim:2h21m40s) 
CPU  2 inst:  153000004 cyc:  187402407 now IPC :0.92339: AVG IPC :0.81001: L2-Pf-HR :0.96845: L2-HR :0.80287: (Sim:2h21m48s) 
CPU  0 inst:  153000004 cyc:  187486805 now IPC :0.95556: AVG IPC :0.80964: L2-Pf-HR :0.96831: L2-HR :0.80311: (Sim:2h21m51s) 
CPU  3 inst:  155000003 cyc:  187724962 now IPC :0.86441: AVG IPC :0.81932: L2-Pf-HR :0.96820: L2-HR :0.80003: (Sim:2h21m58s) 
CPU  1 inst:  154000002 cyc:  188291857 now IPC :0.87688: AVG IPC :0.81150: L2-Pf-HR :0.96945: L2-HR :0.80245: (Sim:2h22m16s) 
CPU  2 inst:  154000002 cyc:  188475791 now IPC :0.93163: AVG IPC :0.81070: L2-Pf-HR :0.96846: L2-HR :0.80287: (Sim:2h22m21s) 
CPU  0 inst:  154000002 cyc:  188548307 now IPC :0.94206: AVG IPC :0.81039: L2-Pf-HR :0.96831: L2-HR :0.80315: (Sim:2h22m24s) 
CPU  3 inst:  156000004 cyc:  188869835 now IPC :0.87346: AVG IPC :0.81965: L2-Pf-HR :0.96820: L2-HR :0.79998: (Sim:2h22m34s) 
CPU  1 inst:  155000003 cyc:  189394408 now IPC :0.90699: AVG IPC :0.81206: L2-Pf-HR :0.96948: L2-HR :0.80240: (Sim:2h22m50s) 
CPU  2 inst:  155000003 cyc:  189631626 now IPC :0.86518: AVG IPC :0.81104: L2-Pf-HR :0.96847: L2-HR :0.80289: (Sim:2h22m57s) 
CPU  0 inst:  155000003 cyc:  189655054 now IPC :0.90355: AVG IPC :0.81094: L2-Pf-HR :0.96833: L2-HR :0.80318: (Sim:2h22m58s) 
[...]
Core_1_LLC_writeback_miss 37242


CPU 2 cumulative IPC: 0.42835 instructions: 658319732 cycles: 1536874905
Core_2_L1D_total_access 179980336
Core_2_L1D_total_hit 154078900
Core_2_L1D_total_miss 25901436
Core_2_L1D_loads 162946863
Core_2_L1D_load_hit 138175696
Core_2_L1D_load_miss 24771167
Core_2_L1D_RFOs 16789174
Core_2_L1D_RFO_hit 15658905
Core_2_L1D_RFO_miss 1130269
Core_2_L1D_prefetches 244299
Core_2_L1D_prefetch_hit 244299
Core_2_L1D_prefetch_miss 0
Core_2_L1D_writebacks 0
Core_2_L1D_writeback_hit 0
Core_2_L1D_writeback_miss 0

Core_2_L1I_total_access 96415727
Core_2_L1I_total_hit 96410719
Core_2_L1I_total_miss 5008
Core_2_L1I_loads 96415727
Core_2_L1I_load_hit 96410719
Core_2_L1I_load_miss 5008
Core_2_L1I_RFOs 0
Core_2_L1I_RFO_hit 0
Core_2_L1I_RFO_miss 0
Core_2_L1I_prefetches 0
Core_2_L1I_prefetch_hit 0
Core_2_L1I_prefetch_miss 0
Core_2_L1I_writebacks 0
Core_2_L1I_writeback_hit 0
Core_2_L1I_writeback_miss 0

Core_2_L2C_total_access 35239682
Core_2_L2C_total_hit 29084005
Core_2_L2C_total_miss 6155677
Core_2_L2C_loads 24776152
Core_2_L2C_load_hit 19774385
Core_2_L2C_load_miss 5001767
Core_2_L2C_RFOs 1130269
Core_2_L2C_RFO_hit 80827
Core_2_L2C_RFO_miss 1049442
Core_2_L2C_prefetches 5438811
Core_2_L2C_prefetch_hit 5336105
Core_2_L2C_prefetch_miss 102706
Core_2_L2C_writebacks 3894450
Core_2_L2C_writeback_hit 3892688
Core_2_L2C_writeback_miss 1762

CPU 2 L1D next line prefetcher final stats
Prefetcher final stats
Training Unit Size: 4878
Addr table size: 8826027 8826027


Triggers: 20082741
No Prediction: 9517694 47.39241
Stream end: 2630151
No translation: 2618974635 13040.92223
Predictions: 746529 3.71727


Stream divergence: 2649624 13.19354
Stream divergence -- new stream: 0
Core_2_LLC_total_access 9878480
Core_2_LLC_total_hit 4238913
Core_2_LLC_total_miss 5639567
Core_2_LLC_loads 4989091
Core_2_LLC_load_hit 459750
Core_2_LLC_load_miss 4529341
Core_2_LLC_RFOs 1049441
Core_2_LLC_RFO_hit 245
Core_2_LLC_RFO_miss 1049196
Core_2_LLC_prefetches 196370
Core_2_LLC_prefetch_hit 173280
Core_2_LLC_prefetch_miss 23090
Core_2_LLC_writebacks 3643578
Core_2_LLC_writeback_hit 3605638
Core_2_LLC_writeback_miss 37940


CPU 3 cumulative IPC: 0.42848 instructions: 658520895 cycles: 1536874905
Core_3_L1D_total_access 180047088
Core_3_L1D_total_hit 154133712
Core_3_L1D_total_miss 25913376
Core_3_L1D_loads 163001825
Core_3_L1D_load_hit 138217373
Core_3_L1D_load_miss 24784452
Core_3_L1D_RFOs 16790651
Core_3_L1D_RFO_hit 15661727
Core_3_L1D_RFO_miss 1128924
Core_3_L1D_prefetches 254612
Core_3_L1D_prefetch_hit 254612
Core_3_L1D_prefetch_miss 0
Core_3_L1D_writebacks 0
Core_3_L1D_writeback_hit 0
Core_3_L1D_writeback_miss 0

Core_3_L1I_total_access 96420946
Core_3_L1I_total_hit 96415934
Core_3_L1I_total_miss 5012
Core_3_L1I_loads 96420946
Core_3_L1I_load_hit 96415934
Core_3_L1I_load_miss 5012
Core_3_L1I_RFOs 0
Core_3_L1I_RFO_hit 0
Core_3_L1I_RFO_miss 0
Core_3_L1I_prefetches 0
Core_3_L1I_prefetch_hit 0
Core_3_L1I_prefetch_miss 0
Core_3_L1I_writebacks 0
Core_3_L1I_writeback_hit 0
Core_3_L1I_writeback_miss 0

Core_3_L2C_total_access 35455711
Core_3_L2C_total_hit 29283682
Core_3_L2C_total_miss 6172029
Core_3_L2C_loads 24789440
Core_3_L2C_load_hit 19770803
Core_3_L2C_load_miss 5018637
Core_3_L2C_RFOs 1128924
Core_3_L2C_RFO_hit 79421
Core_3_L2C_RFO_miss 1049503
Core_3_L2C_prefetches 5642684
Core_3_L2C_prefetch_hit 5540570
Core_3_L2C_prefetch_miss 102114
Core_3_L2C_writebacks 3894663
Core_3_L2C_writeback_hit 3892888
Core_3_L2C_writeback_miss 1775

CPU 3 L1D next line prefetcher final stats
Prefetcher final stats
Training Unit Size: 4878
Addr table size: 8826027 8826027


Triggers: 20082741
No Prediction: 9517694 47.39241
Stream end: 2630151
No translation: 2618974635 13040.92223
Predictions: 746529 3.71727


Stream divergence: 2649624 13.19354
Stream divergence -- new stream: 0
Core_3_LLC_total_access 9905010
Core_3_LLC_total_hit 4265649
Core_3_LLC_total_miss 5639361
Core_3_LLC_loads 5003267
Core_3_LLC_load_hit 473741
Core_3_LLC_load_miss 4529526
Core_3_LLC_RFOs 1049503
Core_3_LLC_RFO_hit 252
Core_3_LLC_RFO_miss 1049251
Core_3_LLC_prefetches 197694
Core_3_LLC_prefetch_hit 177473
Core_3_LLC_prefetch_miss 20221
Core_3_LLC_writebacks 3654546
Core_3_LLC_writeback_hit 3614183
Core_3_LLC_writeback_miss 40363


[ROI Statistics]
Core_0_instructions 657000002
Core_0_cycles 1536874905
Core_0_IPC 0.42749

Core_0_branch_prediction_accuracy 99.58944
Core_0_branch_MPKI 0.11916
Core_0_average_ROB_occupancy_at_mispredict 573.92606

Core_0_L1D_total_access 179629190
Core_0_L1D_total_hit 153815081 L1D_total_Hit Ratio: 0.85629
Core_0_L1D_total_miss 25814109
Core_0_L1D_loads 162606905
Core_0_L1D_load_hit 137923400 L1D_load_Hit Ratio: 0.84820
Core_0_L1D_load_miss 24683505
Core_0_L1D_RFOs 16783117
Core_0_L1D_RFO_hit 15652513 L1D_RFO_Hit Ratio: 0.93263
Core_0_L1D_RFO_miss 1130604
Core_0_L1D_prefetches 239168
Core_0_L1D_prefetch_hit 239168 L1D_prefetch_Hit Ratio: 1.00000
Core_0_L1D_prefetch_miss 0
Core_0_L1D_writebacks 0
Core_0_L1D_writeback_hit 0 L1D_writeback_Hit Ratio: -nan
Core_0_L1D_writeback_miss 0
Core_0_L1D_prefetch_requested 57038106
Core_0_L1D_prefetch_issued 8271533
Core_0_L1D_prefetch_useful 0 L1D_Useful Ratio: 0.00000
Core_0_L1D_prefetch_useless 0
Core_0_L1D_prefetch_late 0
Core_0_L1D_average_miss_latency 199.61428

Core_0_L1I_total_access 96284103
Core_0_L1I_total_hit 96279092 L1I_total_Hit Ratio: 0.99995
Core_0_L1I_total_miss 5011
Core_0_L1I_loads 96284103
Core_0_L1I_load_hit 96279092 L1I_load_Hit Ratio: 0.99995
Core_0_L1I_load_miss 5011
Core_0_L1I_RFOs 0
Core_0_L1I_RFO_hit 0 L1I_RFO_Hit Ratio: -nan
Core_0_L1I_RFO_miss 0
Core_0_L1I_prefetches 0
Core_0_L1I_prefetch_hit 0 L1I_prefetch_Hit Ratio: -nan
Core_0_L1I_prefetch_miss 0
Core_0_L1I_writebacks 0
Core_0_L1I_writeback_hit 0 L1I_writeback_Hit Ratio: -nan
Core_0_L1I_writeback_miss 0
Core_0_L1I_prefetch_requested 0
Core_0_L1I_prefetch_issued 0
Core_0_L1I_prefetch_useful 0 L1I_Useful Ratio: -nan
Core_0_L1I_prefetch_useless 0
Core_0_L1I_prefetch_late 0
Core_0_L1I_average_miss_latency 1082.43205

Core_0_L2C_total_access 35980315
Core_0_L2C_total_hit 29838992 L2C_total_Hit Ratio: 0.82931
Core_0_L2C_total_miss 6141323
Core_0_L2C_loads 24688489
Core_0_L2C_load_hit 19702813 L2C_load_Hit Ratio: 0.79806
Core_0_L2C_load_miss 4985676
Core_0_L2C_RFOs 1130604
Core_0_L2C_RFO_hit 81100 L2C_RFO_Hit Ratio: 0.07173
Core_0_L2C_RFO_miss 1049504
Core_0_L2C_prefetches 6268149
Core_0_L2C_prefetch_hit 6163737 L2C_prefetch_Hit Ratio: 0.98334
Core_0_L2C_prefetch_miss 104412
Core_0_L2C_writebacks 3893073
Core_0_L2C_writeback_hit 3891342 L2C_writeback_Hit Ratio: 0.99956
Core_0_L2C_writeback_miss 1731
Core_0_L2C_prefetch_requested 16526578
Core_0_L2C_prefetch_issued 183430
Core_0_L2C_prefetch_useful 103670 L2C_Useful Ratio: 0.56517
Core_0_L2C_prefetch_useless 891
Core_0_L2C_prefetch_late 11804
Core_0_L2C_average_miss_latency 777.81141

Core_0_LLC_total_access 9853433
Core_0_LLC_total_hit 4197887 LLC_total_Hit Ratio: 0.42603
Core_0_LLC_total_miss 5655546
Core_0_LLC_loads 4973857
Core_0_LLC_load_hit 463054 LLC_load_Hit Ratio: 0.09310
Core_0_LLC_load_miss 4510803
Core_0_LLC_RFOs 1049504
Core_0_LLC_RFO_hit 385 LLC_RFO_Hit Ratio: 0.00037
Core_0_LLC_RFO_miss 1049119
Core_0_LLC_prefetches 195158
Core_0_LLC_prefetch_hit 174246 LLC_prefetch_Hit Ratio: 0.89285
Core_0_LLC_prefetch_miss 20912
Core_0_LLC_writebacks 3634914
Core_0_LLC_writeback_hit 3560202 LLC_writeback_Hit Ratio: 0.97945
Core_0_LLC_writeback_miss 74712
Core_0_LLC_prefetch_requested 0
Core_0_LLC_prefetch_issued 0
Core_0_LLC_prefetch_useful 17350 LLC_Useful Ratio: inf
Core_0_LLC_prefetch_useless 64617
Core_0_LLC_prefetch_late 1362
Core_0_LLC_average_miss_latency 3169.77356

Core_0_major_page_fault 0
Core_0_minor_page_fault 37887

Core_1_instructions 657000004
Core_1_cycles 1535657495
Core_1_IPC 0.42783

Core_1_branch_prediction_accuracy 99.58941
Core_1_branch_MPKI 0.11894
Core_1_average_ROB_occupancy_at_mispredict 573.88095

Core_1_L1D_total_access 179639182
Core_1_L1D_total_hit 153825401 L1D_total_Hit Ratio: 0.85630
Core_1_L1D_total_miss 25813781
Core_1_L1D_loads 162597506
Core_1_L1D_load_hit 137913856 L1D_load_Hit Ratio: 0.84819
Core_1_L1D_load_miss 24683650
Core_1_L1D_RFOs 16790550
Core_1_L1D_RFO_hit 15660419 L1D_RFO_Hit Ratio: 0.93269
Core_1_L1D_RFO_miss 1130131
Core_1_L1D_prefetches 251126
Core_1_L1D_prefetch_hit 251126 L1D_prefetch_Hit Ratio: 1.00000
Core_1_L1D_prefetch_miss 0
Core_1_L1D_writebacks 0
Core_1_L1D_writeback_hit 0 L1D_writeback_Hit Ratio: -nan
Core_1_L1D_writeback_miss 0
Core_1_L1D_prefetch_requested 55406059
Core_1_L1D_prefetch_issued 7542178
Core_1_L1D_prefetch_useful 0 L1D_Useful Ratio: 0.00000
Core_1_L1D_prefetch_useless 0
Core_1_L1D_prefetch_late 0
Core_1_L1D_average_miss_latency 200.48992

Core_1_L1I_total_access 96290921
Core_1_L1I_total_hit 96285913 L1I_total_Hit Ratio: 0.99995
Core_1_L1I_total_miss 5008
Core_1_L1I_loads 96290921
Core_1_L1I_load_hit 96285913 L1I_load_Hit Ratio: 0.99995
Core_1_L1I_load_miss 5008
Core_1_L1I_RFOs 0
Core_1_L1I_RFO_hit 0 L1I_RFO_Hit Ratio: -nan
Core_1_L1I_RFO_miss 0
Core_1_L1I_prefetches 0
Core_1_L1I_prefetch_hit 0 L1I_prefetch_Hit Ratio: -nan
Core_1_L1I_prefetch_miss 0
Core_1_L1I_writebacks 0
Core_1_L1I_writeback_hit 0 L1I_writeback_Hit Ratio: -nan
Core_1_L1I_writeback_miss 0
Core_1_L1I_prefetch_requested 0
Core_1_L1I_prefetch_issued 0
Core_1_L1I_prefetch_useful 0 L1I_Useful Ratio: -nan
Core_1_L1I_prefetch_useless 0
Core_1_L1I_prefetch_late 0
Core_1_L1I_average_miss_latency 865.65875

Core_1_L2C_total_access 35256114
Core_1_L2C_total_hit 29107575 L2C_total_Hit Ratio: 0.82560
Core_1_L2C_total_miss 6148539
Core_1_L2C_loads 24688633
Core_1_L2C_load_hit 19693292 L2C_load_Hit Ratio: 0.79767
Core_1_L2C_load_miss 4995341
Core_1_L2C_RFOs 1130131
Core_1_L2C_RFO_hit 80614 L2C_RFO_Hit Ratio: 0.07133
Core_1_L2C_RFO_miss 1049517
Core_1_L2C_prefetches 5544277
Core_1_L2C_prefetch_hit 5442386 L2C_prefetch_Hit Ratio: 0.98162
Core_1_L2C_prefetch_miss 101891
Core_1_L2C_writebacks 3893073
Core_1_L2C_writeback_hit 3891283 L2C_writeback_Hit Ratio: 0.99954
Core_1_L2C_writeback_miss 1790
Core_1_L2C_prefetch_requested 16558739
Core_1_L2C_prefetch_issued 176851
Core_1_L2C_prefetch_useful 101136 L2C_Useful Ratio: 0.57187
Core_1_L2C_prefetch_useless 1480
Core_1_L2C_prefetch_late 12354
Core_1_L2C_average_miss_latency 780.13201

Core_1_LLC_total_access 9863127
Core_1_LLC_total_hit 4229822 LLC_total_Hit Ratio: 0.42885
Core_1_LLC_total_miss 5633305
Core_1_LLC_loads 4982974
Core_1_LLC_load_hit 457047 LLC_load_Hit Ratio: 0.09172
Core_1_LLC_load_miss 4525927
Core_1_LLC_RFOs 1049517
Core_1_LLC_RFO_hit 305 LLC_RFO_Hit Ratio: 0.00029
Core_1_LLC_RFO_miss 1049212
Core_1_LLC_prefetches 188208
Core_1_LLC_prefetch_hit 167281 LLC_prefetch_Hit Ratio: 0.88881
Core_1_LLC_prefetch_miss 20927
Core_1_LLC_writebacks 3642428
Core_1_LLC_writeback_hit 3605189 LLC_writeback_Hit Ratio: 0.98978
Core_1_LLC_writeback_miss 37239
Core_1_LLC_prefetch_requested 0
Core_1_LLC_prefetch_issued 0
Core_1_LLC_prefetch_useful 17350 LLC_Useful Ratio: inf
Core_1_LLC_prefetch_useless 64617
Core_1_LLC_prefetch_late 1362
Core_1_LLC_average_miss_latency 3182.28823

Core_1_major_page_fault 0
Core_1_minor_page_fault 37887

Core_2_instructions 657000002
Core_2_cycles 1535839179
Core_2_IPC 0.42778

Core_2_branch_prediction_accuracy 99.58942
Core_2_branch_MPKI 0.11898
Core_2_average_ROB_occupancy_at_mispredict 573.89386

Core_2_L1D_total_access 179629074
Core_2_L1D_total_hit 153814998 L1D_total_Hit Ratio: 0.85629
Core_2_L1D_total_miss 25814076
Core_2_L1D_loads 162599666
Core_2_L1D_load_hit 137915852 L1D_load_Hit Ratio: 0.84819
Core_2_L1D_load_miss 24683814
Core_2_L1D_RFOs 16786172
Core_2_L1D_RFO_hit 15655910 L1D_RFO_Hit Ratio: 0.93267
Core_2_L1D_RFO_miss 1130262
Core_2_L1D_prefetches 243236
Core_2_L1D_prefetch_hit 243236 L1D_prefetch_Hit Ratio: 1.00000
Core_2_L1D_prefetch_miss 0
Core_2_L1D_writebacks 0
Core_2_L1D_writeback_hit 0 L1D_writeback_Hit Ratio: -nan
Core_2_L1D_writeback_miss 0
Core_2_L1D_prefetch_requested 54340245
Core_2_L1D_prefetch_issued 7369099
Core_2_L1D_prefetch_useful 0 L1D_Useful Ratio: 0.00000
Core_2_L1D_prefetch_useless 0
Core_2_L1D_prefetch_late 0
Core_2_L1D_average_miss_latency 200.36610

Core_2_L1I_total_access 96286887
Core_2_L1I_total_hit 96281879 L1I_total_Hit Ratio: 0.99995
Core_2_L1I_total_miss 5008
Core_2_L1I_loads 96286887
Core_2_L1I_load_hit 96281879 L1I_load_Hit Ratio: 0.99995
Core_2_L1I_load_miss 5008
Core_2_L1I_RFOs 0
Core_2_L1I_RFO_hit 0 L1I_RFO_Hit Ratio: -nan
Core_2_L1I_RFO_miss 0
Core_2_L1I_prefetches 0
Core_2_L1I_prefetch_hit 0 L1I_prefetch_Hit Ratio: -nan
Core_2_L1I_prefetch_miss 0
Core_2_L1I_writebacks 0
Core_2_L1I_writeback_hit 0 L1I_writeback_Hit Ratio: -nan
Core_2_L1I_writeback_miss 0
Core_2_L1I_prefetch_requested 0
Core_2_L1I_prefetch_issued 0
Core_2_L1I_prefetch_useful 0 L1I_Useful Ratio: -nan
Core_2_L1I_prefetch_useless 0
Core_2_L1I_prefetch_late 0
Core_2_L1I_average_miss_latency 1009.64816

Core_2_L2C_total_access 35136974
Core_2_L2C_total_hit 28987676 L2C_total_Hit Ratio: 0.82499
Core_2_L2C_total_miss 6149298
Core_2_L2C_loads 24688802
Core_2_L2C_load_hit 19692961 L2C_load_Hit Ratio: 0.79765
Core_2_L2C_load_miss 4995841
Core_2_L2C_RFOs 1130262
Core_2_L2C_RFO_hit 80820 L2C_RFO_Hit Ratio: 0.07151
Core_2_L2C_RFO_miss 1049442
Core_2_L2C_prefetches 5424846
Core_2_L2C_prefetch_hit 5322593 L2C_prefetch_Hit Ratio: 0.98115
Core_2_L2C_prefetch_miss 102253
Core_2_L2C_writebacks 3893064
Core_2_L2C_writeback_hit 3891302 L2C_writeback_Hit Ratio: 0.99955
Core_2_L2C_writeback_miss 1762
Core_2_L2C_prefetch_requested 16565335
Core_2_L2C_prefetch_issued 193003
Core_2_L2C_prefetch_useful 101891 L2C_Useful Ratio: 0.52792
Core_2_L2C_prefetch_useless 999
Core_2_L2C_prefetch_late 12662
Core_2_L2C_average_miss_latency 779.75496

Core_2_LLC_total_access 9871560
Core_2_LLC_total_hit 4237855 LLC_total_Hit Ratio: 0.42930
Core_2_LLC_total_miss 5633705
Core_2_LLC_loads 4983165
Core_2_LLC_load_hit 459585 LLC_load_Hit Ratio: 0.09223
Core_2_LLC_load_miss 4523580
Core_2_LLC_RFOs 1049441
Core_2_LLC_RFO_hit 245 LLC_RFO_Hit Ratio: 0.00023
Core_2_LLC_RFO_miss 1049196
Core_2_LLC_prefetches 195898
Core_2_LLC_prefetch_hit 172898 LLC_prefetch_Hit Ratio: 0.88259
Core_2_LLC_prefetch_miss 23000
Core_2_LLC_writebacks 3643056
Core_2_LLC_writeback_hit 3605127 LLC_writeback_Hit Ratio: 0.98959
Core_2_LLC_writeback_miss 37929
Core_2_LLC_prefetch_requested 0
Core_2_LLC_prefetch_issued 0
Core_2_LLC_prefetch_useful 17350 LLC_Useful Ratio: inf
Core_2_LLC_prefetch_useless 64617
Core_2_LLC_prefetch_late 1362
Core_2_LLC_average_miss_latency 3182.06228

Core_2_major_page_fault 0
Core_2_minor_page_fault 37887

Core_3_instructions 657000000
Core_3_cycles 1535686336
Core_3_IPC 0.42782

Core_3_branch_prediction_accuracy 99.58941
Core_3_branch_MPKI 0.11895
Core_3_average_ROB_occupancy_at_mispredict 573.82690

Core_3_L1D_total_access 179642536
Core_3_L1D_total_hit 153829812 L1D_total_Hit Ratio: 0.85631
Core_3_L1D_total_miss 25812724
Core_3_L1D_loads 162601806
Core_3_L1D_load_hit 137917998 L1D_load_Hit Ratio: 0.84819
Core_3_L1D_load_miss 24683808
Core_3_L1D_RFOs 16787186
Core_3_L1D_RFO_hit 15658270 L1D_RFO_Hit Ratio: 0.93275
Core_3_L1D_RFO_miss 1128916
Core_3_L1D_prefetches 253544
Core_3_L1D_prefetch_hit 253544 L1D_prefetch_Hit Ratio: 1.00000
Core_3_L1D_prefetch_miss 0
Core_3_L1D_writebacks 0
Core_3_L1D_writeback_hit 0 L1D_writeback_Hit Ratio: -nan
Core_3_L1D_writeback_miss 0
Core_3_L1D_prefetch_requested 55813965
Core_3_L1D_prefetch_issued 7633623
Core_3_L1D_prefetch_useful 0 L1D_Useful Ratio: 0.00000
Core_3_L1D_prefetch_useless 0
Core_3_L1D_prefetch_late 0
Core_3_L1D_average_miss_latency 200.07448

Core_3_L1I_total_access 96272594
Core_3_L1I_total_hit 96267582 L1I_total_Hit Ratio: 0.99995
Core_3_L1I_total_miss 5012
Core_3_L1I_loads 96272594
Core_3_L1I_load_hit 96267582 L1I_load_Hit Ratio: 0.99995
Core_3_L1I_load_miss 5012
Core_3_L1I_RFOs 0
Core_3_L1I_RFO_hit 0 L1I_RFO_Hit Ratio: -nan
Core_3_L1I_RFO_miss 0
Core_3_L1I_prefetches 0
Core_3_L1I_prefetch_hit 0 L1I_prefetch_Hit Ratio: -nan
Core_3_L1I_prefetch_miss 0
Core_3_L1I_writebacks 0
Core_3_L1I_writeback_hit 0 L1I_writeback_Hit Ratio: -nan
Core_3_L1I_writeback_miss 0
Core_3_L1I_prefetch_requested 0
Core_3_L1I_prefetch_issued 0
Core_3_L1I_prefetch_useful 0 L1I_Useful Ratio: -nan
Core_3_L1I_prefetch_useless 0
Core_3_L1I_prefetch_late 0
Core_3_L1I_average_miss_latency 865.52594

Core_3_L2C_total_access 35337590
Core_3_L2C_total_hit 29172726 L2C_total_Hit Ratio: 0.82554
Core_3_L2C_total_miss 6164864
Core_3_L2C_loads 24688797
Core_3_L2C_load_hit 19676887 L2C_load_Hit Ratio: 0.79700
Core_3_L2C_load_miss 5011910
Core_3_L2C_RFOs 1128916
Core_3_L2C_RFO_hit 79413 L2C_RFO_Hit Ratio: 0.07034
Core_3_L2C_RFO_miss 1049503
Core_3_L2C_prefetches 5626805
Core_3_L2C_prefetch_hit 5525129 L2C_prefetch_Hit Ratio: 0.98193
Core_3_L2C_prefetch_miss 101676
Core_3_L2C_writebacks 3893072
Core_3_L2C_writeback_hit 3891297 L2C_writeback_Hit Ratio: 0.99954
Core_3_L2C_writeback_miss 1775
Core_3_L2C_prefetch_requested 16641122
Core_3_L2C_prefetch_issued 193245
Core_3_L2C_prefetch_useful 100908 L2C_Useful Ratio: 0.52218
Core_3_L2C_prefetch_useless 1387
Core_3_L2C_prefetch_late 15366
Core_3_L2C_average_miss_latency 776.22883

Core_3_LLC_total_access 9897183
Core_3_LLC_total_hit 4264495 LLC_total_Hit Ratio: 0.43088
Core_3_LLC_total_miss 5632688
Core_3_LLC_loads 4996540
Core_3_LLC_load_hit 473583 LLC_load_Hit Ratio: 0.09478
Core_3_LLC_load_miss 4522957
Core_3_LLC_RFOs 1049503
Core_3_LLC_RFO_hit 252 LLC_RFO_Hit Ratio: 0.00024
Core_3_LLC_RFO_miss 1049251
Core_3_LLC_prefetches 197230
Core_3_LLC_prefetch_hit 177082 LLC_prefetch_Hit Ratio: 0.89785
Core_3_LLC_prefetch_miss 20148
Core_3_LLC_writebacks 3653910
Core_3_LLC_writeback_hit 3613578 LLC_writeback_Hit Ratio: 0.98896
Core_3_LLC_writeback_miss 40332
Core_3_LLC_prefetch_requested 0
Core_3_LLC_prefetch_issued 0
Core_3_LLC_prefetch_useful 17350 LLC_Useful Ratio: inf
Core_3_LLC_prefetch_useless 64617
Core_3_LLC_prefetch_late 1362
Core_3_LLC_average_miss_latency 3182.63681

Core_3_major_page_fault 0
Core_3_minor_page_fault 37887

CPU 0 L1D next line prefetcher final stats
Prefetcher final stats
Training Unit Size: 4878
Addr table size: 8826027 8826027


Triggers: 20082741
No Prediction: 9517694 47.39241
Stream end: 2630151
No translation: 2618974635 13040.92223
Predictions: 746529 3.71727


Stream divergence: 2649624 13.19354
Stream divergence -- new stream: 0
CPU 1 L1D next line prefetcher final stats
Prefetcher final stats
Training Unit Size: 4878
Addr table size: 8826027 8826027


Triggers: 20082741
No Prediction: 9517694 47.39241
Stream end: 2630151
No translation: 2618974635 13040.92223
Predictions: 746529 3.71727


Stream divergence: 2649624 13.19354
Stream divergence -- new stream: 0
CPU 2 L1D next line prefetcher final stats
Prefetcher final stats
Training Unit Size: 4878
Addr table size: 8826027 8826027


Triggers: 20082741
No Prediction: 9517694 47.39241
Stream end: 2630151
No translation: 2618974635 13040.92223
Predictions: 746529 3.71727


Stream divergence: 2649624 13.19354
Stream divergence -- new stream: 0
CPU 3 L1D next line prefetcher final stats
Prefetcher final stats
Training Unit Size: 4878
Addr table size: 8826027 8826027


Triggers: 20082741
No Prediction: 9517694 47.39241
Stream end: 2630151
No translation: 2618974635 13040.92223
Predictions: 746529 3.71727


Stream divergence: 2649624 13.19354
Stream divergence -- new stream: 0
Channel_0_RQ_row_buffer_hit 7585895
Channel_0_RQ_row_buffer_miss 14797768
Channel_0_WQ_row_buffer_hit 5413098
Channel_0_WQ_row_buffer_miss 7649197
Channel_0_WQ_full 2852
Channel_0_dbus_congested 17920480

avg_congested_cycle 10

EzSearch AVG IPC :0.42749: L2-Pf-HR :0.98334 : L2-HR :0.82931 Uful:0.56517
EzSearch AVG IPC :0.42783: L2-Pf-HR :0.98162 : L2-HR :0.82602 Uful:0.57187
EzSearch AVG IPC :0.42778: L2-Pf-HR :0.98115 : L2-HR :0.82532 Uful:0.52792
EzSearch AVG IPC :0.42782: L2-Pf-HR :0.98193 : L2-HR :0.82592 Uful:0.52218
     > Finished combination: TraceType=770-tot Sim:657000000 Prefetcher=L2isb_ideal L1=isb_ideal
