TRACE: [496000000][OPT-125M]_[h12][s1024][d64] Warmup: 2000000 NumTraces: 496000000
L1:no:L2:spp_berti_src
Initialize SIGNATURE TABLE
ST_SET: 1
ST_WAY: 256
ST_TAG_BIT: 16
ST_TAG_MASK: ffff

Initialize PATTERN TABLE
PT_SET: 512
PT_WAY: 4
SIG_DELTA_BIT: 7
C_SIG_BIT: 4
C_DELTA_BIT: 4

Initialize PREFETCH FILTER
FILTER_SET: 1024
*************************************************
   ChampSim Multicore Out-of-Order Simulator
   Last compiled: Oct 29 2024 18:20:42
*************************************************

trace_0 770-tot_memTraces_v3_rexz/memTraces[496000000][OPT-125M]_[h12][s1024][d64].champsim.9.xz
trace_1 770-tot_memTraces_v3_rexz/memTraces[496000000][OPT-125M]_[h12][s1024][d64].champsim.9.xz
trace_2 770-tot_memTraces_v3_rexz/memTraces[496000000][OPT-125M]_[h12][s1024][d64].champsim.9.xz
trace_3 770-tot_memTraces_v3_rexz/memTraces[496000000][OPT-125M]_[h12][s1024][d64].champsim.9.xz
ST_WAYS: 256
PT_SETS: 512
ST_WAYS: 256
PT_SETS: 512
ST_WAYS: 256
PT_SETS: 512
ST_WAYS: 256
PT_SETS: 512
MAIN.cc ln 751 stats print skipped
CPU  3 inst:    1000002 cyc:     500245 now IPC :1.99902: AVG IPC :1.99902: L2-Pf-HR :0.98109: L2-HR :0.87982: (Sim:0h0m45s) 
CPU  0 inst:    1000002 cyc:     500462 now IPC :1.99816: AVG IPC :1.99816: L2-Pf-HR :0.98246: L2-HR :0.88071: (Sim:0h0m45s) 
CPU  1 inst:    1000002 cyc:     500525 now IPC :1.99791: AVG IPC :1.99791: L2-Pf-HR :0.98141: L2-HR :0.87956: (Sim:0h0m45s) 
CPU  2 inst:    1000002 cyc:     500563 now IPC :1.99775: AVG IPC :1.99775: L2-Pf-HR :0.98255: L2-HR :0.88068: (Sim:0h0m45s) 
CPU  3 inst:    2000000 cyc:     984440 now IPC :2.06528: AVG IPC :2.03161: L2-Pf-HR :0.98852: L2-HR :0.91178: (Sim:0h1m35s) 
CPU  0 inst:    2000000 cyc:     984623 now IPC :2.06542: AVG IPC :2.03123: L2-Pf-HR :0.98943: L2-HR :0.91244: (Sim:0h1m35s) 
CPU  1 inst:    2000000 cyc:     984637 now IPC :2.06563: AVG IPC :2.03121: L2-Pf-HR :0.98832: L2-HR :0.91093: (Sim:0h1m35s) 
CPU  2 inst:    2000000 cyc:     984679 now IPC :2.06562: AVG IPC :2.03112: L2-Pf-HR :0.98933: L2-HR :0.91216: (Sim:0h1m35s) 

Warmup complete CPU  0 instructions:    2000166 cycles:     984680 (Simulation time: 0 hr 1 min 35 sec) 
Warmup complete CPU  1 instructions:    2000120 cycles:     984680 (Simulation time: 0 hr 1 min 35 sec) 
Warmup complete CPU  2 instructions:    2000002 cycles:     984680 (Simulation time: 0 hr 1 min 35 sec) 
Warmup complete CPU  3 instructions:    2000435 cycles:     984679 (Simulation time: 0 hr 1 min 35 sec) 

CPU  3 inst:    3000000 cyc:    1674012 now IPC :1.45017: AVG IPC :1.45005: L2-Pf-HR :0.99476: L2-HR :0.93431: (Sim:0h2m23s) 
CPU  0 inst:    3000000 cyc:    1674216 now IPC :1.45013: AVG IPC :1.45001: L2-Pf-HR :0.99484: L2-HR :0.93485: (Sim:0h2m23s) 
CPU  2 inst:    3000000 cyc:    1674420 now IPC :1.44982: AVG IPC :1.44982: L2-Pf-HR :0.99461: L2-HR :0.93438: (Sim:0h2m23s) 
CPU  1 inst:    3000000 cyc:    1681111 now IPC :1.43580: AVG IPC :1.43572: L2-Pf-HR :0.99417: L2-HR :0.93273: (Sim:0h2m24s) 
CPU  0 inst:    4000000 cyc:    2374356 now IPC :1.42829: AVG IPC :1.43906: L2-Pf-HR :0.99648: L2-HR :0.93683: (Sim:0h3m11s) 
CPU  3 inst:    4000000 cyc:    2375760 now IPC :1.42501: AVG IPC :1.43742: L2-Pf-HR :0.99628: L2-HR :0.93591: (Sim:0h3m11s) 
CPU  2 inst:    4000000 cyc:    2376008 now IPC :1.42534: AVG IPC :1.43747: L2-Pf-HR :0.99630: L2-HR :0.93614: (Sim:0h3m11s) 
CPU  1 inst:    4000000 cyc:    2387803 now IPC :1.41504: AVG IPC :1.42531: L2-Pf-HR :0.99581: L2-HR :0.93396: (Sim:0h3m12s) 
CPU  2 inst:    5000005 cyc:    3110211 now IPC :1.36203: AVG IPC :1.41141: L2-Pf-HR :0.99681: L2-HR :0.93747: (Sim:0h3m59s) 
CPU  3 inst:    5000005 cyc:    3110571 now IPC :1.36090: AVG IPC :1.41097: L2-Pf-HR :0.99680: L2-HR :0.93720: (Sim:0h3m59s) 
CPU  0 inst:    5000005 cyc:    3111732 now IPC :1.35617: AVG IPC :1.41033: L2-Pf-HR :0.99691: L2-HR :0.93817: (Sim:0h3m59s) 
CPU  1 inst:    5000005 cyc:    3115734 now IPC :1.37376: AVG IPC :1.40770: L2-Pf-HR :0.99639: L2-HR :0.93558: (Sim:0h3m59s) 
CPU  0 inst:    6000005 cyc:    3664983 now IPC :1.80750: AVG IPC :1.49231: L2-Pf-HR :0.99710: L2-HR :0.93894: (Sim:0h4m43s) 
CPU  2 inst:    6000005 cyc:    3667919 now IPC :1.79305: AVG IPC :1.49074: L2-Pf-HR :0.99707: L2-HR :0.93839: (Sim:0h4m44s) 
CPU  3 inst:    6000005 cyc:    3669762 now IPC :1.78830: AVG IPC :1.48955: L2-Pf-HR :0.99702: L2-HR :0.93811: (Sim:0h4m44s) 
CPU  1 inst:    6000005 cyc:    3670699 now IPC :1.80192: AVG IPC :1.48915: L2-Pf-HR :0.99668: L2-HR :0.93667: (Sim:0h4m44s) 
CPU  1 inst:    7000005 cyc:    4656193 now IPC :1.01472: AVG IPC :1.36181: L2-Pf-HR :0.99386: L2-HR :0.93212: (Sim:0h5m35s) 
CPU  2 inst:    7000002 cyc:    4703957 now IPC :0.96521: AVG IPC :1.34435: L2-Pf-HR :0.99385: L2-HR :0.93301: (Sim:0h5m38s) 
CPU  0 inst:    7000002 cyc:    4709664 now IPC :0.95723: AVG IPC :1.34224: L2-Pf-HR :0.99403: L2-HR :0.93357: (Sim:0h5m38s) 
CPU  3 inst:    7000002 cyc:    4710038 now IPC :0.96128: AVG IPC :1.34204: L2-Pf-HR :0.99388: L2-HR :0.93242: (Sim:0h5m38s) 
CPU  0 inst:    8000005 cyc:    5746478 now IPC :0.96450: AVG IPC :1.25999: L2-Pf-HR :0.99210: L2-HR :0.93026: (Sim:0h6m33s) 
CPU  2 inst:    8000005 cyc:    5753135 now IPC :0.95313: AVG IPC :1.25827: L2-Pf-HR :0.99181: L2-HR :0.92988: (Sim:0h6m33s) 
CPU  1 inst:    8000005 cyc:    5758134 now IPC :0.90749: AVG IPC :1.25693: L2-Pf-HR :0.99171: L2-HR :0.92916: (Sim:0h6m34s) 
CPU  3 inst:    8000005 cyc:    5790071 now IPC :0.92590: AVG IPC :1.24851: L2-Pf-HR :0.99185: L2-HR :0.92885: (Sim:0h6m35s) 
CPU  1 inst:    9000005 cyc:    6804760 now IPC :0.95545: AVG IPC :1.20271: L2-Pf-HR :0.99015: L2-HR :0.92882: (Sim:0h7m28s) 
CPU  2 inst:    9000005 cyc:    6821885 now IPC :0.93567: AVG IPC :1.19920: L2-Pf-HR :0.99024: L2-HR :0.92949: (Sim:0h7m29s) 
CPU  3 inst:    9000005 cyc:    6823639 now IPC :0.96752: AVG IPC :1.19877: L2-Pf-HR :0.99034: L2-HR :0.92798: (Sim:0h7m29s) 
CPU  0 inst:    9000005 cyc:    6828191 now IPC :0.92446: AVG IPC :1.19788: L2-Pf-HR :0.99038: L2-HR :0.92949: (Sim:0h7m29s) 
CPU  1 inst:   10000000 cyc:    7965154 now IPC :0.86177: AVG IPC :1.14604: L2-Pf-HR :0.98954: L2-HR :0.92926: (Sim:0h8m24s) 
CPU  3 inst:   10000000 cyc:    7970053 now IPC :0.87228: AVG IPC :1.14519: L2-Pf-HR :0.98964: L2-HR :0.92806: (Sim:0h8m24s) 
CPU  0 inst:   10000004 cyc:    8000136 now IPC :0.85328: AVG IPC :1.14032: L2-Pf-HR :0.98976: L2-HR :0.92951: (Sim:0h8m25s) 
CPU  2 inst:   10000004 cyc:    8012496 now IPC :0.83990: AVG IPC :1.13833: L2-Pf-HR :0.98968: L2-HR :0.92990: (Sim:0h8m26s) 
CPU  1 inst:   11000003 cyc:    9185714 now IPC :0.81930: AVG IPC :1.09741: L2-Pf-HR :0.98634: L2-HR :0.92604: (Sim:0h9m21s) 
CPU  0 inst:   11000003 cyc:    9194596 now IPC :0.83720: AVG IPC :1.09622: L2-Pf-HR :0.98648: L2-HR :0.92588: (Sim:0h9m21s) 
CPU  3 inst:   11000003 cyc:    9219515 now IPC :0.80035: AVG IPC :1.09287: L2-Pf-HR :0.98630: L2-HR :0.92428: (Sim:0h9m22s) 
CPU  2 inst:   11000003 cyc:    9219730 now IPC :0.82834: AVG IPC :1.09289: L2-Pf-HR :0.98633: L2-HR :0.92649: (Sim:0h9m22s) 
CPU  1 inst:   12000002 cyc:   10083036 now IPC :1.11443: AVG IPC :1.09909: L2-Pf-HR :0.98612: L2-HR :0.92644: (Sim:0h10m11s) 
CPU  2 inst:   12000002 cyc:   10093342 now IPC :1.14467: AVG IPC :1.09786: L2-Pf-HR :0.98617: L2-HR :0.92690: (Sim:0h10m12s) 
CPU  0 inst:   12000002 cyc:   10097119 now IPC :1.10800: AVG IPC :1.09738: L2-Pf-HR :0.98628: L2-HR :0.92612: (Sim:0h10m12s) 
CPU  3 inst:   12000002 cyc:   10099082 now IPC :1.13692: AVG IPC :1.09712: L2-Pf-HR :0.98605: L2-HR :0.92443: (Sim:0h10m12s) 
CPU  0 inst:   13000005 cyc:   11327768 now IPC :0.81258: AVG IPC :1.06350: L2-Pf-HR :0.98632: L2-HR :0.92548: (Sim:0h11m9s) 
CPU  2 inst:   13000005 cyc:   11345368 now IPC :0.79871: AVG IPC :1.06171: L2-Pf-HR :0.98630: L2-HR :0.92619: (Sim:0h11m10s) 
CPU  1 inst:   13000005 cyc:   11376194 now IPC :0.77330: AVG IPC :1.05854: L2-Pf-HR :0.98618: L2-HR :0.92548: (Sim:0h11m12s) 
CPU  3 inst:   13000005 cyc:   11461892 now IPC :0.73378: AVG IPC :1.04986: L2-Pf-HR :0.98608: L2-HR :0.92415: (Sim:0h11m17s) 
CPU  0 inst:   14000002 cyc:   12422188 now IPC :0.91372: AVG IPC :1.04917: L2-Pf-HR :0.98692: L2-HR :0.92738: (Sim:0h11m56s) 
CPU  2 inst:   14000002 cyc:   12520252 now IPC :0.85115: AVG IPC :1.04026: L2-Pf-HR :0.98689: L2-HR :0.92794: (Sim:0h12m1s) 
CPU  1 inst:   14000002 cyc:   12537222 now IPC :0.86130: AVG IPC :1.03872: L2-Pf-HR :0.98676: L2-HR :0.92712: (Sim:0h12m2s) 
CPU  3 inst:   14000002 cyc:   12544182 now IPC :0.92396: AVG IPC :1.03807: L2-Pf-HR :0.98659: L2-HR :0.92637: (Sim:0h12m2s) 
CPU  0 inst:   15000003 cyc:   13717620 now IPC :0.77194: AVG IPC :1.02096: L2-Pf-HR :0.98691: L2-HR :0.92858: (Sim:0h12m57s) 
CPU  2 inst:   15000003 cyc:   13727434 now IPC :0.82838: AVG IPC :1.02019: L2-Pf-HR :0.98690: L2-HR :0.92892: (Sim:0h12m58s) 
CPU  1 inst:   15000003 cyc:   13728091 now IPC :0.83972: AVG IPC :1.02013: L2-Pf-HR :0.98686: L2-HR :0.92819: (Sim:0h12m58s) 
CPU  3 inst:   15000003 cyc:   13728574 now IPC :0.84432: AVG IPC :1.02006: L2-Pf-HR :0.98664: L2-HR :0.92788: (Sim:0h12m58s) 
CPU  0 inst:   16000003 cyc:   14734930 now IPC :0.98298: AVG IPC :1.01815: L2-Pf-HR :0.98656: L2-HR :0.92924: (Sim:0h13m51s) 
CPU  3 inst:   16000003 cyc:   14737085 now IPC :0.99156: AVG IPC :1.01797: L2-Pf-HR :0.98629: L2-HR :0.92891: (Sim:0h13m51s) 
CPU  2 inst:   16000003 cyc:   14737236 now IPC :0.99029: AVG IPC :1.01799: L2-Pf-HR :0.98657: L2-HR :0.92941: (Sim:0h13m51s) 
CPU  1 inst:   16000003 cyc:   14741827 now IPC :0.98645: AVG IPC :1.01764: L2-Pf-HR :0.98646: L2-HR :0.92850: (Sim:0h13m51s) 
CPU  2 inst:   17000004 cyc:   16455661 now IPC :0.58193: AVG IPC :0.96956: L2-Pf-HR :0.98644: L2-HR :0.92756: (Sim:0h15m0s) 
CPU  0 inst:   17000004 cyc:   16575125 now IPC :0.54342: AVG IPC :0.96212: L2-Pf-HR :0.98639: L2-HR :0.92729: (Sim:0h15m4s) 
CPU  1 inst:   17000005 cyc:   16591790 now IPC :0.54055: AVG IPC :0.96109: L2-Pf-HR :0.98628: L2-HR :0.92656: (Sim:0h15m5s) 
CPU  3 inst:   17000005 cyc:   16619928 now IPC :0.53111: AVG IPC :0.95934: L2-Pf-HR :0.98607: L2-HR :0.92684: (Sim:0h15m7s) 
CPU  1 inst:   18000000 cyc:   18190816 now IPC :0.62538: AVG IPC :0.92989: L2-Pf-HR :0.98694: L2-HR :0.92639: (Sim:0h16m12s) 
CPU  0 inst:   18000000 cyc:   18224743 now IPC :0.60620: AVG IPC :0.92806: L2-Pf-HR :0.98703: L2-HR :0.92686: (Sim:0h16m13s) 
CPU  2 inst:   18000000 cyc:   18250565 now IPC :0.55713: AVG IPC :0.92668: L2-Pf-HR :0.98708: L2-HR :0.92738: (Sim:0h16m14s) 
CPU  3 inst:   18000000 cyc:   18466740 now IPC :0.54147: AVG IPC :0.91520: L2-Pf-HR :0.98672: L2-HR :0.92658: (Sim:0h16m22s) 
CPU  0 inst:   19000005 cyc:   19920524 now IPC :0.58970: AVG IPC :0.89776: L2-Pf-HR :0.98778: L2-HR :0.92723: (Sim:0h17m18s) 
CPU  1 inst:   19000005 cyc:   19922281 now IPC :0.57755: AVG IPC :0.89768: L2-Pf-HR :0.98773: L2-HR :0.92701: (Sim:0h17m18s) 
CPU  2 inst:   19000005 cyc:   20027398 now IPC :0.56280: AVG IPC :0.89273: L2-Pf-HR :0.98777: L2-HR :0.92765: (Sim:0h17m22s) 
CPU  3 inst:   19000005 cyc:   20363565 now IPC :0.52720: AVG IPC :0.87722: L2-Pf-HR :0.98754: L2-HR :0.92743: (Sim:0h17m33s) 
CPU  0 inst:   20000003 cyc:   21437992 now IPC :0.65899: AVG IPC :0.88005: L2-Pf-HR :0.98849: L2-HR :0.92811: (Sim:0h18m18s) 
CPU  1 inst:   20000003 cyc:   21457423 now IPC :0.65140: AVG IPC :0.87921: L2-Pf-HR :0.98846: L2-HR :0.92812: (Sim:0h18m19s) 
CPU  3 inst:   20000003 cyc:   21814728 now IPC :0.68910: AVG IPC :0.86412: L2-Pf-HR :0.98819: L2-HR :0.92804: (Sim:0h18m34s) 
CPU  2 inst:   20000003 cyc:   21846599 now IPC :0.54969: AVG IPC :0.86282: L2-Pf-HR :0.98840: L2-HR :0.92813: (Sim:0h18m36s) 
CPU  0 inst:   21000001 cyc:   22840140 now IPC :0.71319: AVG IPC :0.86934: L2-Pf-HR :0.98886: L2-HR :0.92756: (Sim:0h19m19s) 
CPU  1 inst:   21000001 cyc:   22889537 now IPC :0.69827: AVG IPC :0.86738: L2-Pf-HR :0.98886: L2-HR :0.92779: (Sim:0h19m21s) 
CPU  2 inst:   21000001 cyc:   23220998 now IPC :0.72759: AVG IPC :0.85446: L2-Pf-HR :0.98882: L2-HR :0.92776: (Sim:0h19m36s) 
CPU  3 inst:   21000001 cyc:   23274854 now IPC :0.68487: AVG IPC :0.85237: L2-Pf-HR :0.98862: L2-HR :0.92773: (Sim:0h19m38s) 
CPU  0 inst:   22000000 cyc:   23888217 now IPC :0.95413: AVG IPC :0.87322: L2-Pf-HR :0.98939: L2-HR :0.92795: (Sim:0h20m14s) 
CPU  1 inst:   22000001 cyc:   23921161 now IPC :0.96935: AVG IPC :0.87197: L2-Pf-HR :0.98939: L2-HR :0.92838: (Sim:0h20m16s) 
CPU  2 inst:   22000000 cyc:   24005394 now IPC :1.27487: AVG IPC :0.86878: L2-Pf-HR :0.98933: L2-HR :0.92833: (Sim:0h20m23s) 
CPU  3 inst:   22000000 cyc:   24047977 now IPC :1.29345: AVG IPC :0.86716: L2-Pf-HR :0.98912: L2-HR :0.92824: (Sim:0h20m25s) 
CPU  0 inst:   23000003 cyc:   25424982 now IPC :0.65072: AVG IPC :0.85923: L2-Pf-HR :0.98911: L2-HR :0.92712: (Sim:0h21m19s) 
CPU  1 inst:   23000003 cyc:   25478834 now IPC :0.64198: AVG IPC :0.85734: L2-Pf-HR :0.98912: L2-HR :0.92759: (Sim:0h21m21s) 
CPU  2 inst:   23000003 cyc:   25485297 now IPC :0.67572: AVG IPC :0.85712: L2-Pf-HR :0.98896: L2-HR :0.92741: (Sim:0h21m22s) 
CPU  3 inst:   23000003 cyc:   25552230 now IPC :0.66478: AVG IPC :0.85477: L2-Pf-HR :0.98879: L2-HR :0.92731: (Sim:0h21m24s) 
CPU  1 inst:   24000003 cyc:   26649522 now IPC :0.85420: AVG IPC :0.85720: L2-Pf-HR :0.98948: L2-HR :0.92803: (Sim:0h22m15s) 
CPU  0 inst:   24000003 cyc:   26673806 now IPC :0.80075: AVG IPC :0.85639: L2-Pf-HR :0.98950: L2-HR :0.92752: (Sim:0h22m16s) 
CPU  3 inst:   24000003 cyc:   26676557 now IPC :0.88942: AVG IPC :0.85628: L2-Pf-HR :0.98917: L2-HR :0.92768: (Sim:0h22m16s) 
CPU  2 inst:   24000003 cyc:   26735570 now IPC :0.79983: AVG IPC :0.85434: L2-Pf-HR :0.98935: L2-HR :0.92788: (Sim:0h22m19s) 
CPU  0 inst:   25000003 cyc:   27871107 now IPC :0.83521: AVG IPC :0.85544: L2-Pf-HR :0.98984: L2-HR :0.92767: (Sim:0h23m12s) 
CPU  2 inst:   25000003 cyc:   27891015 now IPC :0.86547: AVG IPC :0.85482: L2-Pf-HR :0.98968: L2-HR :0.92802: (Sim:0h23m13s) 
CPU  1 inst:   25000003 cyc:   27898701 now IPC :0.80053: AVG IPC :0.85457: L2-Pf-HR :0.98982: L2-HR :0.92815: (Sim:0h23m13s) 
CPU  3 inst:   25000003 cyc:   27913862 now IPC :0.80821: AVG IPC :0.85408: L2-Pf-HR :0.98951: L2-HR :0.92778: (Sim:0h23m14s) 
CPU  0 inst:   26000004 cyc:   29319602 now IPC :0.69037: AVG IPC :0.84701: L2-Pf-HR :0.99023: L2-HR :0.92838: (Sim:0h24m11s) 
CPU  2 inst:   26000004 cyc:   29361030 now IPC :0.68027: AVG IPC :0.84577: L2-Pf-HR :0.99005: L2-HR :0.92867: (Sim:0h24m13s) 
CPU  1 inst:   26000004 cyc:   29373478 now IPC :0.67807: AVG IPC :0.84540: L2-Pf-HR :0.99020: L2-HR :0.92878: (Sim:0h24m13s) 
CPU  3 inst:   26000004 cyc:   29375489 now IPC :0.68417: AVG IPC :0.84533: L2-Pf-HR :0.98990: L2-HR :0.92838: (Sim:0h24m13s) 
CPU  2 inst:   27000004 cyc:   30477549 now IPC :0.89564: AVG IPC :0.84766: L2-Pf-HR :0.99037: L2-HR :0.92894: (Sim:0h25m7s) 
CPU  0 inst:   27000004 cyc:   30478270 now IPC :0.86306: AVG IPC :0.84764: L2-Pf-HR :0.99055: L2-HR :0.92861: (Sim:0h25m7s) 
CPU  3 inst:   27000004 cyc:   30499522 now IPC :0.88965: AVG IPC :0.84702: L2-Pf-HR :0.99021: L2-HR :0.92860: (Sim:0h25m9s) 
CPU  1 inst:   27000002 cyc:   30555898 now IPC :0.84572: AVG IPC :0.84541: L2-Pf-HR :0.99053: L2-HR :0.92906: (Sim:0h25m12s) 
CPU  2 inst:   28000004 cyc:   31441339 now IPC :1.03757: AVG IPC :0.85367: L2-Pf-HR :0.99068: L2-HR :0.92927: (Sim:0h25m59s) 
CPU  0 inst:   28000003 cyc:   31444974 now IPC :1.03444: AVG IPC :0.85356: L2-Pf-HR :0.99085: L2-HR :0.92898: (Sim:0h25m59s) 
CPU  1 inst:   28000004 cyc:   31461368 now IPC :1.10440: AVG IPC :0.85311: L2-Pf-HR :0.99084: L2-HR :0.92943: (Sim:0h26m0s) 
CPU  3 inst:   28000005 cyc:   31477757 now IPC :1.02225: AVG IPC :0.85264: L2-Pf-HR :0.99051: L2-HR :0.92892: (Sim:0h26m1s) 
CPU  3 inst:   29000005 cyc:   32814763 now IPC :0.74794: AVG IPC :0.84824: L2-Pf-HR :0.99035: L2-HR :0.92861: (Sim:0h26m58s) 
CPU  2 inst:   29000005 cyc:   32831443 now IPC :0.71937: AVG IPC :0.84781: L2-Pf-HR :0.99051: L2-HR :0.92889: (Sim:0h26m59s) 
CPU  0 inst:   29000005 cyc:   32843985 now IPC :0.71479: AVG IPC :0.84747: L2-Pf-HR :0.99070: L2-HR :0.92863: (Sim:0h27m0s) 
CPU  1 inst:   29000005 cyc:   32852616 now IPC :0.71878: AVG IPC :0.84724: L2-Pf-HR :0.99070: L2-HR :0.92906: (Sim:0h27m0s) 
CPU  2 inst:   30000000 cyc:   33888609 now IPC :0.94592: AVG IPC :0.85096: L2-Pf-HR :0.99043: L2-HR :0.92823: (Sim:0h27m52s) 
CPU  0 inst:   30000000 cyc:   33933841 now IPC :0.91755: AVG IPC :0.84979: L2-Pf-HR :0.99064: L2-HR :0.92800: (Sim:0h27m54s) 
CPU  3 inst:   30000000 cyc:   33967880 now IPC :0.86721: AVG IPC :0.84890: L2-Pf-HR :0.99034: L2-HR :0.92808: (Sim:0h27m56s) 
CPU  1 inst:   30000000 cyc:   33979220 now IPC :0.88762: AVG IPC :0.84862: L2-Pf-HR :0.99066: L2-HR :0.92842: (Sim:0h27m57s) 
CPU  1 inst:   31000001 cyc:   35385777 now IPC :0.71096: AVG IPC :0.84299: L2-Pf-HR :0.99082: L2-HR :0.92817: (Sim:0h28m45s) 
CPU  2 inst:   31000001 cyc:   35389122 now IPC :0.66644: AVG IPC :0.84291: L2-Pf-HR :0.99057: L2-HR :0.92784: (Sim:0h28m46s) 
CPU  3 inst:   31000001 cyc:   35393660 now IPC :0.70137: AVG IPC :0.84279: L2-Pf-HR :0.99047: L2-HR :0.92768: (Sim:0h28m46s) 
CPU  0 inst:   31000001 cyc:   35408131 now IPC :0.67829: AVG IPC :0.84244: L2-Pf-HR :0.99079: L2-HR :0.92768: (Sim:0h28m46s) 
CPU  2 inst:   32000004 cyc:   36681755 now IPC :0.77362: AVG IPC :0.84041: L2-Pf-HR :0.99039: L2-HR :0.92703: (Sim:0h29m37s) 
CPU  1 inst:   32000004 cyc:   36731928 now IPC :0.74286: AVG IPC :0.83922: L2-Pf-HR :0.99064: L2-HR :0.92748: (Sim:0h29m39s) 
CPU  0 inst:   32000004 cyc:   36747158 now IPC :0.74681: AVG IPC :0.83886: L2-Pf-HR :0.99060: L2-HR :0.92691: (Sim:0h29m40s) 
CPU  3 inst:   32000004 cyc:   36752534 now IPC :0.73591: AVG IPC :0.83873: L2-Pf-HR :0.99033: L2-HR :0.92698: (Sim:0h29m40s) 
CPU  2 inst:   33000003 cyc:   38325204 now IPC :0.60848: AVG IPC :0.83020: L2-Pf-HR :0.99022: L2-HR :0.92631: (Sim:0h30m39s) 
CPU  3 inst:   33000003 cyc:   38547541 now IPC :0.55710: AVG IPC :0.82527: L2-Pf-HR :0.99010: L2-HR :0.92606: (Sim:0h30m50s) 
CPU  1 inst:   33000003 cyc:   38558342 now IPC :0.54752: AVG IPC :0.82504: L2-Pf-HR :0.99044: L2-HR :0.92662: (Sim:0h30m50s) 
CPU  0 inst:   33000003 cyc:   38572700 now IPC :0.54778: AVG IPC :0.82473: L2-Pf-HR :0.99039: L2-HR :0.92604: (Sim:0h30m51s) 
CPU  2 inst:   34000005 cyc:   40310321 now IPC :0.50375: AVG IPC :0.81372: L2-Pf-HR :0.99044: L2-HR :0.92621: (Sim:0h31m55s) 
CPU  0 inst:   34000005 cyc:   40448938 now IPC :0.53298: AVG IPC :0.81086: L2-Pf-HR :0.99060: L2-HR :0.92589: (Sim:0h32m0s) 
CPU  3 inst:   34000005 cyc:   40451401 now IPC :0.52525: AVG IPC :0.81080: L2-Pf-HR :0.99032: L2-HR :0.92591: (Sim:0h32m0s) 
CPU  1 inst:   34000005 cyc:   40476755 now IPC :0.52127: AVG IPC :0.81029: L2-Pf-HR :0.99067: L2-HR :0.92655: (Sim:0h32m1s) 
CPU  1 inst:   35000005 cyc:   42020180 now IPC :0.64791: AVG IPC :0.80418: L2-Pf-HR :0.99085: L2-HR :0.92617: (Sim:0h33m3s) 
CPU  3 inst:   35000005 cyc:   42021313 now IPC :0.63698: AVG IPC :0.80415: L2-Pf-HR :0.99048: L2-HR :0.92552: (Sim:0h33m3s) 
CPU  0 inst:   35000005 cyc:   42066348 now IPC :0.61827: AVG IPC :0.80327: L2-Pf-HR :0.99079: L2-HR :0.92558: (Sim:0h33m6s) 
CPU  2 inst:   35000005 cyc:   42117606 now IPC :0.55332: AVG IPC :0.80228: L2-Pf-HR :0.99063: L2-HR :0.92587: (Sim:0h33m8s) 
CPU  1 inst:   36000005 cyc:   43348683 now IPC :0.75273: AVG IPC :0.80257: L2-Pf-HR :0.99112: L2-HR :0.92654: (Sim:0h33m57s) 
CPU  3 inst:   36000005 cyc:   43622046 now IPC :0.62471: AVG IPC :0.79741: L2-Pf-HR :0.99074: L2-HR :0.92578: (Sim:0h34m8s) 
CPU  0 inst:   36000005 cyc:   43860732 now IPC :0.55729: AVG IPC :0.79298: L2-Pf-HR :0.99104: L2-HR :0.92584: (Sim:0h34m18s) 
CPU  2 inst:   36000005 cyc:   43876673 now IPC :0.56848: AVG IPC :0.79269: L2-Pf-HR :0.99091: L2-HR :0.92620: (Sim:0h34m18s) 
CPU  1 inst:   37000004 cyc:   44431014 now IPC :0.92393: AVG IPC :0.80559: L2-Pf-HR :0.99135: L2-HR :0.92680: (Sim:0h34m41s) 
CPU  0 inst:   37000004 cyc:   45175081 now IPC :0.76083: AVG IPC :0.79202: L2-Pf-HR :0.99124: L2-HR :0.92581: (Sim:0h35m17s) 
CPU  2 inst:   37000004 cyc:   45194536 now IPC :0.75880: AVG IPC :0.79168: L2-Pf-HR :0.99109: L2-HR :0.92604: (Sim:0h35m19s) 
CPU  3 inst:   37000004 cyc:   45409661 now IPC :0.55940: AVG IPC :0.78784: L2-Pf-HR :0.99095: L2-HR :0.92592: (Sim:0h35m32s) 
CPU  1 inst:   38000005 cyc:   45442082 now IPC :0.98905: AVG IPC :0.80976: L2-Pf-HR :0.99153: L2-HR :0.92689: (Sim:0h35m34s) 
CPU  2 inst:   38000005 cyc:   46203860 now IPC :0.99076: AVG IPC :0.79612: L2-Pf-HR :0.99132: L2-HR :0.92643: (Sim:0h36m11s) 
CPU  0 inst:   38000005 cyc:   46206574 now IPC :0.96947: AVG IPC :0.79607: L2-Pf-HR :0.99147: L2-HR :0.92620: (Sim:0h36m11s) 
CPU  3 inst:   38000005 cyc:   46219767 now IPC :1.23441: AVG IPC :0.79583: L2-Pf-HR :0.99118: L2-HR :0.92627: (Sim:0h36m12s) 
CPU  1 inst:   39000004 cyc:   46928425 now IPC :0.67279: AVG IPC :0.80533: L2-Pf-HR :0.99143: L2-HR :0.92671: (Sim:0h36m40s) 
CPU  1 inst:   40000001 cyc:   47567813 now IPC :1.56399: AVG IPC :0.81574: L2-Pf-HR :0.99157: L2-HR :0.92691: (Sim:0h37m5s) 
CPU  0 inst:   39000004 cyc:   48117678 now IPC :0.52326: AVG IPC :0.78501: L2-Pf-HR :0.99117: L2-HR :0.92578: (Sim:0h37m31s) 
CPU  2 inst:   39000004 cyc:   48154477 now IPC :0.51266: AVG IPC :0.78440: L2-Pf-HR :0.99104: L2-HR :0.92597: (Sim:0h37m33s) 
CPU  3 inst:   39000004 cyc:   48168213 now IPC :0.51323: AVG IPC :0.78416: L2-Pf-HR :0.99093: L2-HR :0.92583: (Sim:0h37m33s) 
CPU  1 inst:   41000001 cyc:   48605249 now IPC :0.96391: AVG IPC :0.81897: L2-Pf-HR :0.99123: L2-HR :0.92639: (Sim:0h37m55s) 
CPU  2 inst:   40000001 cyc:   49367330 now IPC :0.82450: AVG IPC :0.78541: L2-Pf-HR :0.99084: L2-HR :0.92583: (Sim:0h38m29s) 
CPU  0 inst:   40000001 cyc:   49385335 now IPC :0.78885: AVG IPC :0.78511: L2-Pf-HR :0.99090: L2-HR :0.92558: (Sim:0h38m30s) 
CPU  3 inst:   40000001 cyc:   49491290 now IPC :0.75581: AVG IPC :0.78339: L2-Pf-HR :0.99081: L2-HR :0.92575: (Sim:0h38m34s) 
CPU  1 inst:   42000001 cyc:   49915207 now IPC :0.76338: AVG IPC :0.81748: L2-Pf-HR :0.99125: L2-HR :0.92649: (Sim:0h38m53s) 
CPU  3 inst:   41000001 cyc:   50805214 now IPC :0.76108: AVG IPC :0.78280: L2-Pf-HR :0.99039: L2-HR :0.92522: (Sim:0h39m32s) 
CPU  2 inst:   41000001 cyc:   50813876 now IPC :0.69130: AVG IPC :0.78267: L2-Pf-HR :0.99039: L2-HR :0.92522: (Sim:0h39m32s) 
CPU  0 inst:   41000001 cyc:   50813878 now IPC :0.70001: AVG IPC :0.78267: L2-Pf-HR :0.99043: L2-HR :0.92492: (Sim:0h39m32s) 
CPU  1 inst:   43000005 cyc:   51451152 now IPC :0.65107: AVG IPC :0.81242: L2-Pf-HR :0.99099: L2-HR :0.92600: (Sim:0h40m0s) 
CPU  0 inst:   42000001 cyc:   52264908 now IPC :0.68917: AVG IPC :0.78002: L2-Pf-HR :0.99047: L2-HR :0.92492: (Sim:0h40m35s) 
CPU  2 inst:   42000001 cyc:   52267843 now IPC :0.68777: AVG IPC :0.77998: L2-Pf-HR :0.99042: L2-HR :0.92519: (Sim:0h40m35s) 
CPU  3 inst:   42000001 cyc:   52299165 now IPC :0.66937: AVG IPC :0.77950: L2-Pf-HR :0.99042: L2-HR :0.92514: (Sim:0h40m36s) 
CPU  1 inst:   44000000 cyc:   52981255 now IPC :0.65355: AVG IPC :0.80774: L2-Pf-HR :0.99057: L2-HR :0.92558: (Sim:0h41m4s) 
CPU  0 inst:   43000005 cyc:   53694028 now IPC :0.69973: AVG IPC :0.77785: L2-Pf-HR :0.99019: L2-HR :0.92446: (Sim:0h41m36s) 
CPU  2 inst:   43000005 cyc:   53704232 now IPC :0.69619: AVG IPC :0.77770: L2-Pf-HR :0.99008: L2-HR :0.92466: (Sim:0h41m37s) 
CPU  3 inst:   43000005 cyc:   53723980 now IPC :0.70185: AVG IPC :0.77740: L2-Pf-HR :0.99011: L2-HR :0.92465: (Sim:0h41m38s) 
CPU  2 inst:   44000000 cyc:   54874064 now IPC :0.85482: AVG IPC :0.77937: L2-Pf-HR :0.98986: L2-HR :0.92428: (Sim:0h42m30s) 
CPU  0 inst:   44000000 cyc:   54897256 now IPC :0.83109: AVG IPC :0.77904: L2-Pf-HR :0.99004: L2-HR :0.92415: (Sim:0h42m31s) 
CPU  3 inst:   44000000 cyc:   54900939 now IPC :0.84964: AVG IPC :0.77898: L2-Pf-HR :0.98994: L2-HR :0.92430: (Sim:0h42m31s) 
CPU  1 inst:   45000003 cyc:   55036833 now IPC :0.48648: AVG IPC :0.79553: L2-Pf-HR :0.99044: L2-HR :0.92542: (Sim:0h42m38s) 
CPU  1 inst:   46000000 cyc:   55702277 now IPC :1.50275: AVG IPC :0.80413: L2-Pf-HR :0.99057: L2-HR :0.92591: (Sim:0h43m8s) 
CPU  0 inst:   45000003 cyc:   56446717 now IPC :0.64539: AVG IPC :0.77530: L2-Pf-HR :0.99002: L2-HR :0.92427: (Sim:0h43m40s) 
CPU  2 inst:   45000003 cyc:   56449635 now IPC :0.63469: AVG IPC :0.77526: L2-Pf-HR :0.98985: L2-HR :0.92440: (Sim:0h43m40s) 
CPU  3 inst:   45000003 cyc:   56470987 now IPC :0.63693: AVG IPC :0.77496: L2-Pf-HR :0.98990: L2-HR :0.92434: (Sim:0h43m42s) 
CPU  1 inst:   47000000 cyc:   57119126 now IPC :0.70579: AVG IPC :0.80164: L2-Pf-HR :0.99068: L2-HR :0.92595: (Sim:0h44m11s) 
CPU  0 inst:   46000000 cyc:   57652026 now IPC :0.82966: AVG IPC :0.77646: L2-Pf-HR :0.99015: L2-HR :0.92437: (Sim:0h44m37s) 
CPU  3 inst:   46000000 cyc:   57708997 now IPC :0.80775: AVG IPC :0.77567: L2-Pf-HR :0.99001: L2-HR :0.92428: (Sim:0h44m39s) 
CPU  2 inst:   46000000 cyc:   57840388 now IPC :0.71903: AVG IPC :0.77389: L2-Pf-HR :0.98997: L2-HR :0.92444: (Sim:0h44m46s) 
CPU  1 inst:   48000001 cyc:   58183826 now IPC :0.93923: AVG IPC :0.80421: L2-Pf-HR :0.99077: L2-HR :0.92616: (Sim:0h45m6s) 
CPU  2 inst:   47000000 cyc:   58873214 now IPC :0.96822: AVG IPC :0.77736: L2-Pf-HR :0.98990: L2-HR :0.92451: (Sim:0h45m37s) 
CPU  0 inst:   47000000 cyc:   58874265 now IPC :0.81817: AVG IPC :0.77734: L2-Pf-HR :0.99019: L2-HR :0.92453: (Sim:0h45m37s) 
CPU  3 inst:   47000000 cyc:   58885000 now IPC :0.85034: AVG IPC :0.77719: L2-Pf-HR :0.99000: L2-HR :0.92432: (Sim:0h45m37s) 
CPU  0 inst:   48000001 cyc:   59787875 now IPC :1.09456: AVG IPC :0.78227: L2-Pf-HR :0.99010: L2-HR :0.92453: (Sim:0h46m22s) 
CPU  3 inst:   48000001 cyc:   59832441 now IPC :1.05548: AVG IPC :0.78167: L2-Pf-HR :0.98983: L2-HR :0.92422: (Sim:0h46m24s) 
CPU  2 inst:   48000001 cyc:   59854185 now IPC :1.01940: AVG IPC :0.78139: L2-Pf-HR :0.98971: L2-HR :0.92441: (Sim:0h46m26s) 
CPU  1 inst:   49000003 cyc:   60346909 now IPC :0.46230: AVG IPC :0.79175: L2-Pf-HR :0.99063: L2-HR :0.92560: (Sim:0h46m52s) 
CPU  1 inst:   50000004 cyc:   61201233 now IPC :1.17052: AVG IPC :0.79712: L2-Pf-HR :0.99070: L2-HR :0.92551: (Sim:0h47m23s) 
CPU  0 inst:   49000003 cyc:   61694293 now IPC :0.52455: AVG IPC :0.77417: L2-Pf-HR :0.98992: L2-HR :0.92418: (Sim:0h47m46s) 
CPU  2 inst:   49000003 cyc:   61696144 now IPC :0.54290: AVG IPC :0.77415: L2-Pf-HR :0.98953: L2-HR :0.92399: (Sim:0h47m46s) 
CPU  3 inst:   49000003 cyc:   61716524 now IPC :0.53076: AVG IPC :0.77389: L2-Pf-HR :0.98962: L2-HR :0.92378: (Sim:0h47m47s) 
CPU  1 inst:   51000000 cyc:   62375982 now IPC :0.85124: AVG IPC :0.79816: L2-Pf-HR :0.99082: L2-HR :0.92535: (Sim:0h48m16s) 
CPU  0 inst:   50000004 cyc:   63471613 now IPC :0.56265: AVG IPC :0.76816: L2-Pf-HR :0.99005: L2-HR :0.92427: (Sim:0h48m56s) 
CPU  2 inst:   50000004 cyc:   63482907 now IPC :0.55967: AVG IPC :0.76802: L2-Pf-HR :0.98966: L2-HR :0.92402: (Sim:0h48m57s) 
CPU  3 inst:   50000004 cyc:   63501193 now IPC :0.56033: AVG IPC :0.76779: L2-Pf-HR :0.98974: L2-HR :0.92379: (Sim:0h48m57s) 
CPU  1 inst:   52000003 cyc:   63964783 now IPC :0.62941: AVG IPC :0.79390: L2-Pf-HR :0.99101: L2-HR :0.92558: (Sim:0h49m15s) 
CPU  1 inst:   53000005 cyc:   65197215 now IPC :0.81141: AVG IPC :0.79424: L2-Pf-HR :0.99114: L2-HR :0.92551: (Sim:0h50m8s) 
CPU  0 inst:   51000001 cyc:   65199747 now IPC :0.57866: AVG IPC :0.76306: L2-Pf-HR :0.99022: L2-HR :0.92434: (Sim:0h50m8s) 
CPU  3 inst:   51000001 cyc:   65203556 now IPC :0.58742: AVG IPC :0.76301: L2-Pf-HR :0.98991: L2-HR :0.92380: (Sim:0h50m9s) 
CPU  2 inst:   51000001 cyc:   65228598 now IPC :0.57284: AVG IPC :0.76272: L2-Pf-HR :0.98984: L2-HR :0.92405: (Sim:0h50m10s) 
CPU  1 inst:   54000002 cyc:   66496956 now IPC :0.76938: AVG IPC :0.79374: L2-Pf-HR :0.99132: L2-HR :0.92583: (Sim:0h51m0s) 
CPU  2 inst:   52000003 cyc:   66982466 now IPC :0.57017: AVG IPC :0.75760: L2-Pf-HR :0.99008: L2-HR :0.92445: (Sim:0h51m17s) 
CPU  0 inst:   52000003 cyc:   67054156 now IPC :0.53926: AVG IPC :0.75678: L2-Pf-HR :0.99044: L2-HR :0.92476: (Sim:0h51m20s) 
CPU  3 inst:   52000003 cyc:   67163694 now IPC :0.51017: AVG IPC :0.75552: L2-Pf-HR :0.99013: L2-HR :0.92416: (Sim:0h51m24s) 
CPU  2 inst:   53000000 cyc:   68204675 now IPC :0.81819: AVG IPC :0.75870: L2-Pf-HR :0.99027: L2-HR :0.92460: (Sim:0h52m12s) 
CPU  0 inst:   53000005 cyc:   68233506 now IPC :0.84793: AVG IPC :0.75838: L2-Pf-HR :0.99060: L2-HR :0.92485: (Sim:0h52m14s) 
CPU  3 inst:   53000000 cyc:   68484733 now IPC :0.75698: AVG IPC :0.75555: L2-Pf-HR :0.99031: L2-HR :0.92434: (Sim:0h52m21s) 
CPU  1 inst:   55000002 cyc:   68867192 now IPC :0.42190: AVG IPC :0.78076: L2-Pf-HR :0.99131: L2-HR :0.92576: (Sim:0h52m34s) 
CPU  0 inst:   54000002 cyc:   69265317 now IPC :0.96917: AVG IPC :0.76156: L2-Pf-HR :0.99076: L2-HR :0.92508: (Sim:0h52m56s) 
CPU  2 inst:   54000002 cyc:   69329570 now IPC :0.88897: AVG IPC :0.76085: L2-Pf-HR :0.99044: L2-HR :0.92479: (Sim:0h52m59s) 
CPU  3 inst:   54000002 cyc:   69464255 now IPC :1.02091: AVG IPC :0.75934: L2-Pf-HR :0.99046: L2-HR :0.92448: (Sim:0h53m5s) 
CPU  1 inst:   56000000 cyc:   69898702 now IPC :0.96945: AVG IPC :0.78358: L2-Pf-HR :0.99144: L2-HR :0.92599: (Sim:0h53m26s) 
CPU  1 inst:   57000003 cyc:   70486953 now IPC :1.69996: AVG IPC :0.79134: L2-Pf-HR :0.99154: L2-HR :0.92613: (Sim:0h53m53s) 
CPU  0 inst:   55000002 cyc:   71051112 now IPC :0.55997: AVG IPC :0.75642: L2-Pf-HR :0.99068: L2-HR :0.92487: (Sim:0h54m18s) 
CPU  3 inst:   55000005 cyc:   71065580 now IPC :0.62448: AVG IPC :0.75626: L2-Pf-HR :0.99039: L2-HR :0.92436: (Sim:0h54m19s) 
CPU  2 inst:   55000001 cyc:   71083139 now IPC :0.57026: AVG IPC :0.75608: L2-Pf-HR :0.99039: L2-HR :0.92463: (Sim:0h54m20s) 
CPU  1 inst:   58000005 cyc:   71670481 now IPC :0.84493: AVG IPC :0.79224: L2-Pf-HR :0.99165: L2-HR :0.92627: (Sim:0h54m50s) 
CPU  0 inst:   56000000 cyc:   72096679 now IPC :0.95642: AVG IPC :0.75936: L2-Pf-HR :0.99074: L2-HR :0.92508: (Sim:0h55m11s) 
CPU  2 inst:   56000000 cyc:   72100688 now IPC :0.98275: AVG IPC :0.75932: L2-Pf-HR :0.99047: L2-HR :0.92479: (Sim:0h55m11s) 
CPU  3 inst:   56000000 cyc:   72143211 now IPC :0.92796: AVG IPC :0.75886: L2-Pf-HR :0.99046: L2-HR :0.92452: (Sim:0h55m13s) 
CPU  1 inst:   59000003 cyc:   73207620 now IPC :0.65056: AVG IPC :0.78922: L2-Pf-HR :0.99149: L2-HR :0.92605: (Sim:0h56m0s) 
CPU  0 inst:   57000001 cyc:   73606318 now IPC :0.66241: AVG IPC :0.75735: L2-Pf-HR :0.99060: L2-HR :0.92500: (Sim:0h56m16s) 
CPU  3 inst:   57000003 cyc:   73629070 now IPC :0.67301: AVG IPC :0.75711: L2-Pf-HR :0.99033: L2-HR :0.92442: (Sim:0h56m16s) 
CPU  2 inst:   57000003 cyc:   73674760 now IPC :0.63530: AVG IPC :0.75664: L2-Pf-HR :0.99041: L2-HR :0.92472: (Sim:0h56m18s) 
CPU  1 inst:   60000003 cyc:   74960054 now IPC :0.57063: AVG IPC :0.78404: L2-Pf-HR :0.99164: L2-HR :0.92640: (Sim:0h57m8s) 
CPU  3 inst:   58000005 cyc:   75296993 now IPC :0.59955: AVG IPC :0.75357: L2-Pf-HR :0.99050: L2-HR :0.92470: (Sim:0h57m23s) 
CPU  2 inst:   58000005 cyc:   75304226 now IPC :0.61370: AVG IPC :0.75350: L2-Pf-HR :0.99057: L2-HR :0.92497: (Sim:0h57m23s) 
CPU  0 inst:   58000005 cyc:   75308711 now IPC :0.58741: AVG IPC :0.75346: L2-Pf-HR :0.99078: L2-HR :0.92537: (Sim:0h57m23s) 
CPU  1 inst:   61000003 cyc:   76632432 now IPC :0.59795: AVG IPC :0.77993: L2-Pf-HR :0.99164: L2-HR :0.92652: (Sim:0h58m16s) 
CPU  0 inst:   59000003 cyc:   76783302 now IPC :0.67815: AVG IPC :0.75199: L2-Pf-HR :0.99091: L2-HR :0.92550: (Sim:0h58m21s) 
CPU  3 inst:   59000003 cyc:   76783321 now IPC :0.67280: AVG IPC :0.75199: L2-Pf-HR :0.99063: L2-HR :0.92482: (Sim:0h58m21s) 
CPU  2 inst:   59000003 cyc:   76787466 now IPC :0.67420: AVG IPC :0.75195: L2-Pf-HR :0.99070: L2-HR :0.92506: (Sim:0h58m21s) 
CPU  0 inst:   60000003 cyc:   77848497 now IPC :0.93880: AVG IPC :0.75458: L2-Pf-HR :0.99096: L2-HR :0.92555: (Sim:0h59m2s) 
CPU  2 inst:   60000003 cyc:   77863616 now IPC :0.92924: AVG IPC :0.75443: L2-Pf-HR :0.99076: L2-HR :0.92510: (Sim:0h59m2s) 
CPU  3 inst:   60000003 cyc:   77944225 now IPC :0.86140: AVG IPC :0.75364: L2-Pf-HR :0.99070: L2-HR :0.92488: (Sim:0h59m6s) 
CPU  1 inst:   62000000 cyc:   78281260 now IPC :0.60649: AVG IPC :0.77623: L2-Pf-HR :0.99171: L2-HR :0.92683: (Sim:0h59m22s) 
CPU  0 inst:   61000002 cyc:   79166338 now IPC :0.75882: AVG IPC :0.75465: L2-Pf-HR :0.99095: L2-HR :0.92570: (Sim:1h0m3s) 
CPU  2 inst:   61000002 cyc:   79178671 now IPC :0.76042: AVG IPC :0.75453: L2-Pf-HR :0.99076: L2-HR :0.92528: (Sim:1h0m4s) 
CPU  3 inst:   61000002 cyc:   79189616 now IPC :0.80296: AVG IPC :0.75442: L2-Pf-HR :0.99070: L2-HR :0.92502: (Sim:1h0m4s) 
CPU  1 inst:   63000005 cyc:   79203460 now IPC :1.08437: AVG IPC :0.77986: L2-Pf-HR :0.99177: L2-HR :0.92710: (Sim:1h0m5s) 
CPU  0 inst:   62000000 cyc:   80647206 now IPC :0.67528: AVG IPC :0.75318: L2-Pf-HR :0.99106: L2-HR :0.92615: (Sim:1h1m3s) 
CPU  3 inst:   62000000 cyc:   80711285 now IPC :0.65717: AVG IPC :0.75257: L2-Pf-HR :0.99081: L2-HR :0.92547: (Sim:1h1m5s) 
CPU  2 inst:   62000000 cyc:   80722007 now IPC :0.64795: AVG IPC :0.75247: L2-Pf-HR :0.99088: L2-HR :0.92580: (Sim:1h1m6s) 
CPU  1 inst:   64000005 cyc:   80724089 now IPC :0.65762: AVG IPC :0.77753: L2-Pf-HR :0.99188: L2-HR :0.92764: (Sim:1h1m6s) 
CPU  0 inst:   63000005 cyc:   81921598 now IPC :0.78469: AVG IPC :0.75367: L2-Pf-HR :0.99119: L2-HR :0.92664: (Sim:1h1m54s) 
CPU  2 inst:   63000005 cyc:   82295412 now IPC :0.63557: AVG IPC :0.75021: L2-Pf-HR :0.99101: L2-HR :0.92631: (Sim:1h2m10s) 
CPU  1 inst:   65000000 cyc:   82324556 now IPC :0.62481: AVG IPC :0.77453: L2-Pf-HR :0.99187: L2-HR :0.92768: (Sim:1h2m12s) 
CPU  3 inst:   63000005 cyc:   82333152 now IPC :0.61658: AVG IPC :0.74986: L2-Pf-HR :0.99093: L2-HR :0.92590: (Sim:1h2m12s) 
CPU  0 inst:   64000005 cyc:   83024476 now IPC :0.90672: AVG IPC :0.75573: L2-Pf-HR :0.99130: L2-HR :0.92700: (Sim:1h2m46s) 
CPU  1 inst:   66000001 cyc:   83202067 now IPC :1.13959: AVG IPC :0.77842: L2-Pf-HR :0.99192: L2-HR :0.92782: (Sim:1h2m54s) 
CPU  2 inst:   64000005 cyc:   83484195 now IPC :0.84120: AVG IPC :0.75152: L2-Pf-HR :0.99114: L2-HR :0.92681: (Sim:1h3m9s) 
CPU  3 inst:   64000005 cyc:   83588138 now IPC :0.79682: AVG IPC :0.75057: L2-Pf-HR :0.99105: L2-HR :0.92635: (Sim:1h3m14s) 
CPU  1 inst:   67000005 cyc:   84487985 now IPC :0.77766: AVG IPC :0.77841: L2-Pf-HR :0.99201: L2-HR :0.92790: (Sim:1h3m52s) 
CPU  0 inst:   65000000 cyc:   84575435 now IPC :0.64476: AVG IPC :0.75367: L2-Pf-HR :0.99129: L2-HR :0.92697: (Sim:1h3m55s) 
CPU  3 inst:   65000000 cyc:   84971766 now IPC :0.72273: AVG IPC :0.75011: L2-Pf-HR :0.99098: L2-HR :0.92619: (Sim:1h4m13s) 
CPU  2 inst:   65000000 cyc:   84989872 now IPC :0.66415: AVG IPC :0.74995: L2-Pf-HR :0.99109: L2-HR :0.92673: (Sim:1h4m14s) 
CPU  0 inst:   66000001 cyc:   85816617 now IPC :0.80568: AVG IPC :0.75443: L2-Pf-HR :0.99131: L2-HR :0.92688: (Sim:1h4m53s) 
CPU  1 inst:   68000000 cyc:   85864367 now IPC :0.72654: AVG IPC :0.77757: L2-Pf-HR :0.99207: L2-HR :0.92777: (Sim:1h4m56s) 
CPU  2 inst:   66000001 cyc:   86288441 now IPC :0.77008: AVG IPC :0.75026: L2-Pf-HR :0.99113: L2-HR :0.92661: (Sim:1h5m15s) 
CPU  3 inst:   66000001 cyc:   86288576 now IPC :0.75941: AVG IPC :0.75025: L2-Pf-HR :0.99103: L2-HR :0.92607: (Sim:1h5m15s) 
CPU  0 inst:   67000005 cyc:   87013587 now IPC :0.83545: AVG IPC :0.75556: L2-Pf-HR :0.99141: L2-HR :0.92691: (Sim:1h5m47s) 
CPU  1 inst:   69000000 cyc:   87434697 now IPC :0.63681: AVG IPC :0.77501: L2-Pf-HR :0.99215: L2-HR :0.92776: (Sim:1h6m6s) 
CPU  2 inst:   67000005 cyc:   87603296 now IPC :0.76054: AVG IPC :0.75042: L2-Pf-HR :0.99123: L2-HR :0.92673: (Sim:1h6m14s) 
CPU  3 inst:   67000005 cyc:   87637111 now IPC :0.74155: AVG IPC :0.75012: L2-Pf-HR :0.99114: L2-HR :0.92619: (Sim:1h6m15s) 
CPU  0 inst:   68000000 cyc:   88232813 now IPC :0.82019: AVG IPC :0.75646: L2-Pf-HR :0.99154: L2-HR :0.92712: (Sim:1h6m41s) 
CPU  1 inst:   70000005 cyc:   88734273 now IPC :0.76949: AVG IPC :0.77493: L2-Pf-HR :0.99225: L2-HR :0.92795: (Sim:1h7m4s) 
CPU  2 inst:   68000000 cyc:   89353409 now IPC :0.57139: AVG IPC :0.74687: L2-Pf-HR :0.99134: L2-HR :0.92697: (Sim:1h7m24s) 
CPU  3 inst:   68000000 cyc:   89395099 now IPC :0.56883: AVG IPC :0.74651: L2-Pf-HR :0.99128: L2-HR :0.92642: (Sim:1h7m27s) 
CPU  0 inst:   69000000 cyc:   89637035 now IPC :0.71214: AVG IPC :0.75576: L2-Pf-HR :0.99166: L2-HR :0.92731: (Sim:1h7m37s) 
CPU  3 inst:   69000000 cyc:   90445271 now IPC :0.95222: AVG IPC :0.74893: L2-Pf-HR :0.99137: L2-HR :0.92653: (Sim:1h8m17s) 
CPU  2 inst:   69000000 cyc:   90450399 now IPC :0.91159: AVG IPC :0.74889: L2-Pf-HR :0.99145: L2-HR :0.92711: (Sim:1h8m17s) 
CPU  0 inst:   70000000 cyc:   90559649 now IPC :1.08388: AVG IPC :0.75914: L2-Pf-HR :0.99172: L2-HR :0.92733: (Sim:1h8m22s) 
CPU  1 inst:   71000003 cyc:   90740744 now IPC :0.49839: AVG IPC :0.76875: L2-Pf-HR :0.99226: L2-HR :0.92791: (Sim:1h8m32s) 
CPU  3 inst:   70000000 cyc:   91247694 now IPC :1.24623: AVG IPC :0.75335: L2-Pf-HR :0.99144: L2-HR :0.92657: (Sim:1h9m2s) 
CPU  2 inst:   70000000 cyc:   91385166 now IPC :1.06979: AVG IPC :0.75221: L2-Pf-HR :0.99153: L2-HR :0.92717: (Sim:1h9m7s) 
CPU  0 inst:   71000003 cyc:   91762409 now IPC :0.83142: AVG IPC :0.76010: L2-Pf-HR :0.99172: L2-HR :0.92725: (Sim:1h9m25s) 
CPU  1 inst:   72000003 cyc:   91763295 now IPC :0.97795: AVG IPC :0.77111: L2-Pf-HR :0.99227: L2-HR :0.92803: (Sim:1h9m25s) 
CPU  0 inst:   72000003 cyc:   92544988 now IPC :1.27783: AVG IPC :0.76452: L2-Pf-HR :0.99177: L2-HR :0.92740: (Sim:1h10m4s) 
CPU  1 inst:   73000004 cyc:   92767393 now IPC :0.99592: AVG IPC :0.77356: L2-Pf-HR :0.99234: L2-HR :0.92814: (Sim:1h10m13s) 
CPU  2 inst:   71000003 cyc:   93072520 now IPC :0.59265: AVG IPC :0.74928: L2-Pf-HR :0.99151: L2-HR :0.92709: (Sim:1h10m26s) 
CPU  3 inst:   71000003 cyc:   93076027 now IPC :0.54695: AVG IPC :0.74925: L2-Pf-HR :0.99141: L2-HR :0.92647: (Sim:1h10m26s) 
CPU  0 inst:   73000004 cyc:   93561087 now IPC :0.98416: AVG IPC :0.76693: L2-Pf-HR :0.99166: L2-HR :0.92724: (Sim:1h10m52s) 
CPU  1 inst:   74000005 cyc:   93934495 now IPC :0.85682: AVG IPC :0.77461: L2-Pf-HR :0.99235: L2-HR :0.92815: (Sim:1h11m10s) 
CPU  2 inst:   72000003 cyc:   94213035 now IPC :0.87680: AVG IPC :0.75084: L2-Pf-HR :0.99137: L2-HR :0.92709: (Sim:1h11m25s) 
CPU  3 inst:   72000003 cyc:   94218730 now IPC :0.87512: AVG IPC :0.75079: L2-Pf-HR :0.99127: L2-HR :0.92645: (Sim:1h11m25s) 
CPU  0 inst:   74000005 cyc:   95003147 now IPC :0.69345: AVG IPC :0.76581: L2-Pf-HR :0.99170: L2-HR :0.92746: (Sim:1h11m58s) 
CPU  1 inst:   75000001 cyc:   95398689 now IPC :0.68297: AVG IPC :0.77319: L2-Pf-HR :0.99242: L2-HR :0.92838: (Sim:1h12m16s) 
CPU  2 inst:   73000005 cyc:   95752471 now IPC :0.64959: AVG IPC :0.74920: L2-Pf-HR :0.99149: L2-HR :0.92743: (Sim:1h12m31s) 
CPU  3 inst:   73000004 cyc:   95773340 now IPC :0.64325: AVG IPC :0.74903: L2-Pf-HR :0.99140: L2-HR :0.92677: (Sim:1h12m32s) 
CPU  0 inst:   75000001 cyc:   96563694 now IPC :0.64080: AVG IPC :0.76376: L2-Pf-HR :0.99182: L2-HR :0.92775: (Sim:1h13m5s) 
CPU  1 inst:   76000001 cyc:   97064377 now IPC :0.60035: AVG IPC :0.77019: L2-Pf-HR :0.99252: L2-HR :0.92865: (Sim:1h13m26s) 
CPU  2 inst:   74000005 cyc:   97450405 now IPC :0.58895: AVG IPC :0.74638: L2-Pf-HR :0.99162: L2-HR :0.92775: (Sim:1h13m43s) 
CPU  3 inst:   74000005 cyc:   97460733 now IPC :0.59263: AVG IPC :0.74629: L2-Pf-HR :0.99152: L2-HR :0.92707: (Sim:1h13m44s) 
CPU  0 inst:   76000001 cyc:   98177670 now IPC :0.61959: AVG IPC :0.76137: L2-Pf-HR :0.99193: L2-HR :0.92800: (Sim:1h14m17s) 
CPU  3 inst:   75000001 cyc:   98640221 now IPC :0.84782: AVG IPC :0.74752: L2-Pf-HR :0.99163: L2-HR :0.92729: (Sim:1h14m40s) 
CPU  2 inst:   75000001 cyc:   98647031 now IPC :0.83568: AVG IPC :0.74747: L2-Pf-HR :0.99173: L2-HR :0.92802: (Sim:1h14m41s) 
CPU  1 inst:   77000001 cyc:   98988311 now IPC :0.51977: AVG IPC :0.76528: L2-Pf-HR :0.99252: L2-HR :0.92876: (Sim:1h14m57s) 
CPU  3 inst:   76000001 cyc:   99593842 now IPC :1.04863: AVG IPC :0.75043: L2-Pf-HR :0.99171: L2-HR :0.92741: (Sim:1h15m25s) 
CPU  2 inst:   76000001 cyc:   99606650 now IPC :1.04208: AVG IPC :0.75034: L2-Pf-HR :0.99181: L2-HR :0.92817: (Sim:1h15m26s) 
CPU  0 inst:   77000001 cyc:   99816996 now IPC :0.61001: AVG IPC :0.75886: L2-Pf-HR :0.99194: L2-HR :0.92808: (Sim:1h15m37s) 
CPU  1 inst:   78000005 cyc:  100304484 now IPC :0.75978: AVG IPC :0.76520: L2-Pf-HR :0.99250: L2-HR :0.92893: (Sim:1h16m5s) 
CPU  0 inst:   78000005 cyc:  100675252 now IPC :1.16516: AVG IPC :0.76236: L2-Pf-HR :0.99188: L2-HR :0.92827: (Sim:1h16m23s) 
CPU  2 inst:   77000002 cyc:  101042067 now IPC :0.69666: AVG IPC :0.74957: L2-Pf-HR :0.99178: L2-HR :0.92814: (Sim:1h16m42s) 
CPU  3 inst:   77000002 cyc:  101043104 now IPC :0.69001: AVG IPC :0.74956: L2-Pf-HR :0.99167: L2-HR :0.92735: (Sim:1h16m43s) 
CPU  1 inst:   79000000 cyc:  101065955 now IPC :1.31324: AVG IPC :0.76937: L2-Pf-HR :0.99256: L2-HR :0.92917: (Sim:1h16m44s) 
CPU  0 inst:   79000000 cyc:  101623784 now IPC :1.05426: AVG IPC :0.76511: L2-Pf-HR :0.99196: L2-HR :0.92841: (Sim:1h17m12s) 
CPU  2 inst:   78000005 cyc:  102211431 now IPC :0.85517: AVG IPC :0.75079: L2-Pf-HR :0.99182: L2-HR :0.92812: (Sim:1h17m41s) 
CPU  3 inst:   78000001 cyc:  102239173 now IPC :0.83607: AVG IPC :0.75058: L2-Pf-HR :0.99170: L2-HR :0.92725: (Sim:1h17m43s) 
CPU  1 inst:   80000003 cyc:  102287306 now IPC :0.81877: AVG IPC :0.76997: L2-Pf-HR :0.99261: L2-HR :0.92915: (Sim:1h17m46s) 
CPU  0 inst:   80000003 cyc:  102678353 now IPC :0.94826: AVG IPC :0.76701: L2-Pf-HR :0.99200: L2-HR :0.92843: (Sim:1h18m7s) 
CPU  2 inst:   79000000 cyc:  103074743 now IPC :1.15832: AVG IPC :0.75424: L2-Pf-HR :0.99188: L2-HR :0.92826: (Sim:1h18m30s) 
CPU  3 inst:   79000000 cyc:  103095409 now IPC :1.16790: AVG IPC :0.75408: L2-Pf-HR :0.99176: L2-HR :0.92738: (Sim:1h18m30s) 
CPU  2 inst:   80000003 cyc:  103948864 now IPC :1.14401: AVG IPC :0.75754: L2-Pf-HR :0.99196: L2-HR :0.92849: (Sim:1h19m11s) 
CPU  3 inst:   80000003 cyc:  104010759 now IPC :1.09248: AVG IPC :0.75709: L2-Pf-HR :0.99183: L2-HR :0.92759: (Sim:1h19m13s) 
CPU  0 inst:   81000003 cyc:  104377476 now IPC :0.58854: AVG IPC :0.76407: L2-Pf-HR :0.99199: L2-HR :0.92835: (Sim:1h19m31s) 
CPU  1 inst:   81000003 cyc:  104393202 now IPC :0.47486: AVG IPC :0.76396: L2-Pf-HR :0.99258: L2-HR :0.92903: (Sim:1h19m33s) 
CPU  0 inst:   82000005 cyc:  105371169 now IPC :1.00635: AVG IPC :0.76638: L2-Pf-HR :0.99201: L2-HR :0.92835: (Sim:1h20m16s) 
CPU  1 inst:   82000000 cyc:  105420226 now IPC :0.97368: AVG IPC :0.76602: L2-Pf-HR :0.99258: L2-HR :0.92902: (Sim:1h20m17s) 
CPU  2 inst:   81000003 cyc:  106009052 now IPC :0.48539: AVG IPC :0.75221: L2-Pf-HR :0.99184: L2-HR :0.92831: (Sim:1h20m39s) 
CPU  3 inst:   81000003 cyc:  106009889 now IPC :0.50022: AVG IPC :0.75220: L2-Pf-HR :0.99175: L2-HR :0.92740: (Sim:1h20m39s) 
CPU  0 inst:   83000002 cyc:  106672353 now IPC :0.76853: AVG IPC :0.76641: L2-Pf-HR :0.99207: L2-HR :0.92833: (Sim:1h21m9s) 
CPU  1 inst:   83000002 cyc:  106761767 now IPC :0.74541: AVG IPC :0.76576: L2-Pf-HR :0.99263: L2-HR :0.92896: (Sim:1h21m13s) 
CPU  3 inst:   82000003 cyc:  107925549 now IPC :0.52201: AVG IPC :0.74807: L2-Pf-HR :0.99178: L2-HR :0.92739: (Sim:1h22m0s) 
CPU  2 inst:   82000003 cyc:  107934879 now IPC :0.51926: AVG IPC :0.74801: L2-Pf-HR :0.99187: L2-HR :0.92831: (Sim:1h22m0s) 
CPU  0 inst:   84000000 cyc:  108175688 now IPC :0.66519: AVG IPC :0.76499: L2-Pf-HR :0.99215: L2-HR :0.92835: (Sim:1h22m10s) 
CPU  1 inst:   84000000 cyc:  108178728 now IPC :0.70573: AVG IPC :0.76497: L2-Pf-HR :0.99270: L2-HR :0.92897: (Sim:1h22m10s) 
CPU  2 inst:   83000002 cyc:  109428628 now IPC :0.66946: AVG IPC :0.74693: L2-Pf-HR :0.99192: L2-HR :0.92821: (Sim:1h23m8s) 
CPU  3 inst:   83000002 cyc:  109437387 now IPC :0.66145: AVG IPC :0.74687: L2-Pf-HR :0.99184: L2-HR :0.92724: (Sim:1h23m8s) 
CPU  1 inst:   85000001 cyc:  109621812 now IPC :0.69296: AVG IPC :0.76401: L2-Pf-HR :0.99276: L2-HR :0.92884: (Sim:1h23m17s) 
CPU  0 inst:   85000001 cyc:  109672611 now IPC :0.66804: AVG IPC :0.76365: L2-Pf-HR :0.99222: L2-HR :0.92825: (Sim:1h23m19s) 
CPU  2 inst:   84000000 cyc:  110894387 now IPC :0.68224: AVG IPC :0.74607: L2-Pf-HR :0.99200: L2-HR :0.92816: (Sim:1h24m17s) 
CPU  3 inst:   84000000 cyc:  110904003 now IPC :0.68184: AVG IPC :0.74600: L2-Pf-HR :0.99190: L2-HR :0.92716: (Sim:1h24m17s) 
CPU  1 inst:   86000005 cyc:  110934639 now IPC :0.76172: AVG IPC :0.76398: L2-Pf-HR :0.99274: L2-HR :0.92875: (Sim:1h24m19s) 
CPU  0 inst:   86000005 cyc:  110935923 now IPC :0.79157: AVG IPC :0.76397: L2-Pf-HR :0.99223: L2-HR :0.92820: (Sim:1h24m19s) 
CPU  2 inst:   85000001 cyc:  112205184 now IPC :0.76290: AVG IPC :0.74627: L2-Pf-HR :0.99209: L2-HR :0.92830: (Sim:1h25m17s) 
CPU  3 inst:   85000001 cyc:  112232136 now IPC :0.75294: AVG IPC :0.74608: L2-Pf-HR :0.99199: L2-HR :0.92727: (Sim:1h25m18s) 
CPU  0 inst:   87000002 cyc:  113098340 now IPC :0.46244: AVG IPC :0.75816: L2-Pf-HR :0.99226: L2-HR :0.92819: (Sim:1h25m54s) 
CPU  1 inst:   87000002 cyc:  113134289 now IPC :0.45462: AVG IPC :0.75792: L2-Pf-HR :0.99276: L2-HR :0.92873: (Sim:1h25m56s) 
CPU  2 inst:   86000004 cyc:  113218816 now IPC :0.98655: AVG IPC :0.74844: L2-Pf-HR :0.99217: L2-HR :0.92839: (Sim:1h26m0s) 
CPU  3 inst:   86000004 cyc:  113264858 now IPC :0.96832: AVG IPC :0.74812: L2-Pf-HR :0.99206: L2-HR :0.92733: (Sim:1h26m2s) 
CPU  0 inst:   88000001 cyc:  114280678 now IPC :0.84578: AVG IPC :0.75907: L2-Pf-HR :0.99226: L2-HR :0.92827: (Sim:1h26m53s) 
CPU  1 inst:   88000001 cyc:  114320478 now IPC :0.84304: AVG IPC :0.75881: L2-Pf-HR :0.99277: L2-HR :0.92883: (Sim:1h26m55s) 
CPU  2 inst:   87000002 cyc:  115060942 now IPC :0.54285: AVG IPC :0.74512: L2-Pf-HR :0.99217: L2-HR :0.92830: (Sim:1h27m29s) 
CPU  3 inst:   87000002 cyc:  115064322 now IPC :0.55572: AVG IPC :0.74509: L2-Pf-HR :0.99206: L2-HR :0.92724: (Sim:1h27m30s) 
CPU  0 inst:   89000001 cyc:  115176450 now IPC :1.11636: AVG IPC :0.76187: L2-Pf-HR :0.99234: L2-HR :0.92839: (Sim:1h27m34s) 
CPU  1 inst:   89000001 cyc:  115229730 now IPC :1.09981: AVG IPC :0.76152: L2-Pf-HR :0.99283: L2-HR :0.92895: (Sim:1h27m36s) 
CPU  3 inst:   88000001 cyc:  116097757 now IPC :0.96765: AVG IPC :0.74709: L2-Pf-HR :0.99202: L2-HR :0.92729: (Sim:1h28m5s) 
CPU  2 inst:   88000001 cyc:  116099236 now IPC :0.96312: AVG IPC :0.74708: L2-Pf-HR :0.99214: L2-HR :0.92834: (Sim:1h28m5s) 
CPU  0 inst:   90000002 cyc:  116691888 now IPC :0.65988: AVG IPC :0.76054: L2-Pf-HR :0.99237: L2-HR :0.92843: (Sim:1h28m28s) 
CPU  1 inst:   90000002 cyc:  116694519 now IPC :0.68269: AVG IPC :0.76052: L2-Pf-HR :0.99285: L2-HR :0.92897: (Sim:1h28m28s) 
CPU  3 inst:   89000001 cyc:  117454917 now IPC :0.73683: AVG IPC :0.74697: L2-Pf-HR :0.99187: L2-HR :0.92716: (Sim:1h29m1s) 
CPU  2 inst:   89000001 cyc:  117486435 now IPC :0.72088: AVG IPC :0.74677: L2-Pf-HR :0.99197: L2-HR :0.92821: (Sim:1h29m2s) 
CPU  1 inst:   91000002 cyc:  118205909 now IPC :0.66164: AVG IPC :0.75925: L2-Pf-HR :0.99273: L2-HR :0.92890: (Sim:1h29m33s) 
CPU  0 inst:   91000002 cyc:  118236375 now IPC :0.64746: AVG IPC :0.75905: L2-Pf-HR :0.99225: L2-HR :0.92834: (Sim:1h29m35s) 
CPU  3 inst:   90000002 cyc:  118945084 now IPC :0.67107: AVG IPC :0.74601: L2-Pf-HR :0.99193: L2-HR :0.92726: (Sim:1h30m6s) 
CPU  2 inst:   90000002 cyc:  118953702 now IPC :0.68154: AVG IPC :0.74596: L2-Pf-HR :0.99205: L2-HR :0.92835: (Sim:1h30m7s) 
CPU  1 inst:   92000005 cyc:  119720624 now IPC :0.66019: AVG IPC :0.75798: L2-Pf-HR :0.99258: L2-HR :0.92871: (Sim:1h30m40s) 
CPU  0 inst:   92000005 cyc:  119739658 now IPC :0.66521: AVG IPC :0.75786: L2-Pf-HR :0.99209: L2-HR :0.92814: (Sim:1h30m41s) 
CPU  2 inst:   91000002 cyc:  120297762 now IPC :0.74401: AVG IPC :0.74594: L2-Pf-HR :0.99177: L2-HR :0.92809: (Sim:1h31m7s) 
CPU  3 inst:   91000002 cyc:  120322009 now IPC :0.72626: AVG IPC :0.74578: L2-Pf-HR :0.99166: L2-HR :0.92699: (Sim:1h31m8s) 
CPU  3 inst:   92000005 cyc:  121306198 now IPC :1.01607: AVG IPC :0.74799: L2-Pf-HR :0.99154: L2-HR :0.92691: (Sim:1h31m54s) 
CPU  2 inst:   92000005 cyc:  121341414 now IPC :0.95818: AVG IPC :0.74778: L2-Pf-HR :0.99166: L2-HR :0.92803: (Sim:1h31m56s) 
CPU  0 inst:   93000001 cyc:  121567457 now IPC :0.54710: AVG IPC :0.75467: L2-Pf-HR :0.99198: L2-HR :0.92802: (Sim:1h32m5s) 
CPU  1 inst:   93000001 cyc:  121576838 now IPC :0.53873: AVG IPC :0.75461: L2-Pf-HR :0.99245: L2-HR :0.92860: (Sim:1h32m5s) 
CPU  0 inst:   94000005 cyc:  122445567 now IPC :1.13881: AVG IPC :0.75744: L2-Pf-HR :0.99197: L2-HR :0.92815: (Sim:1h32m49s) 
CPU  1 inst:   94000002 cyc:  122532739 now IPC :1.04613: AVG IPC :0.75690: L2-Pf-HR :0.99244: L2-HR :0.92871: (Sim:1h32m53s) 
CPU  3 inst:   93000001 cyc:  122791424 now IPC :0.67330: AVG IPC :0.74708: L2-Pf-HR :0.99155: L2-HR :0.92696: (Sim:1h33m4s) 
CPU  2 inst:   93000001 cyc:  122810058 now IPC :0.68090: AVG IPC :0.74697: L2-Pf-HR :0.99167: L2-HR :0.92806: (Sim:1h33m5s) 
CPU  0 inst:   95000002 cyc:  123278353 now IPC :1.20079: AVG IPC :0.76046: L2-Pf-HR :0.99202: L2-HR :0.92831: (Sim:1h33m32s) 
CPU  1 inst:   95000002 cyc:  123301918 now IPC :1.30009: AVG IPC :0.76032: L2-Pf-HR :0.99248: L2-HR :0.92883: (Sim:1h33m33s) 
CPU  3 inst:   94000005 cyc:  123955387 now IPC :0.85914: AVG IPC :0.74814: L2-Pf-HR :0.99156: L2-HR :0.92706: (Sim:1h34m3s) 
CPU  2 inst:   94000002 cyc:  123964631 now IPC :0.86612: AVG IPC :0.74809: L2-Pf-HR :0.99168: L2-HR :0.92816: (Sim:1h34m3s) 
CPU  0 inst:   96000003 cyc:  124507970 now IPC :0.81326: AVG IPC :0.76099: L2-Pf-HR :0.99206: L2-HR :0.92822: (Sim:1h34m31s) 
CPU  1 inst:   96000004 cyc:  124545626 now IPC :0.80405: AVG IPC :0.76076: L2-Pf-HR :0.99251: L2-HR :0.92870: (Sim:1h34m33s) 
CPU  3 inst:   95000002 cyc:  125060221 now IPC :0.90511: AVG IPC :0.74954: L2-Pf-HR :0.99160: L2-HR :0.92694: (Sim:1h35m0s) 
CPU  2 inst:   95000000 cyc:  125062232 now IPC :0.91108: AVG IPC :0.74953: L2-Pf-HR :0.99171: L2-HR :0.92807: (Sim:1h35m0s) 
CPU  3 inst:   96000003 cyc:  126117633 now IPC :0.94571: AVG IPC :0.75120: L2-Pf-HR :0.99166: L2-HR :0.92713: (Sim:1h35m46s) 
CPU  2 inst:   96000003 cyc:  126118442 now IPC :0.94678: AVG IPC :0.75120: L2-Pf-HR :0.99176: L2-HR :0.92826: (Sim:1h35m46s) 
CPU  0 inst:   97000001 cyc:  126350038 now IPC :0.54287: AVG IPC :0.75778: L2-Pf-HR :0.99209: L2-HR :0.92814: (Sim:1h35m57s) 
CPU  1 inst:   97000000 cyc:  126388866 now IPC :0.54252: AVG IPC :0.75755: L2-Pf-HR :0.99253: L2-HR :0.92856: (Sim:1h35m58s) 
CPU  1 inst:   98000000 cyc:  127526655 now IPC :0.87890: AVG IPC :0.75864: L2-Pf-HR :0.99250: L2-HR :0.92846: (Sim:1h36m50s) 
CPU  0 inst:   98000000 cyc:  127549484 now IPC :0.83372: AVG IPC :0.75850: L2-Pf-HR :0.99207: L2-HR :0.92804: (Sim:1h36m51s) 
CPU  2 inst:   97000001 cyc:  127733969 now IPC :0.61899: AVG IPC :0.74951: L2-Pf-HR :0.99174: L2-HR :0.92822: (Sim:1h36m55s) 
CPU  3 inst:   97000001 cyc:  127765634 now IPC :0.60679: AVG IPC :0.74932: L2-Pf-HR :0.99167: L2-HR :0.92711: (Sim:1h36m56s) 
CPU  1 inst:   99000000 cyc:  128759251 now IPC :0.81130: AVG IPC :0.75915: L2-Pf-HR :0.99256: L2-HR :0.92843: (Sim:1h37m20s) 
CPU  0 inst:   99000005 cyc:  128806845 now IPC :0.79532: AVG IPC :0.75887: L2-Pf-HR :0.99211: L2-HR :0.92795: (Sim:1h37m22s) 
CPU  3 inst:   98000000 cyc:  129709890 now IPC :0.51434: AVG IPC :0.74577: L2-Pf-HR :0.99165: L2-HR :0.92698: (Sim:1h37m58s) 
CPU  2 inst:   98000000 cyc:  129724089 now IPC :0.50248: AVG IPC :0.74569: L2-Pf-HR :0.99173: L2-HR :0.92811: (Sim:1h37m59s) 
CPU  1 inst:  100000003 cyc:  130300412 now IPC :0.64886: AVG IPC :0.75783: L2-Pf-HR :0.99263: L2-HR :0.92841: (Sim:1h38m21s) 
CPU  0 inst:  100000003 cyc:  130380512 now IPC :0.63546: AVG IPC :0.75736: L2-Pf-HR :0.99217: L2-HR :0.92792: (Sim:1h38m25s) 
CPU  2 inst:   99000000 cyc:  131427472 now IPC :0.58707: AVG IPC :0.74362: L2-Pf-HR :0.99181: L2-HR :0.92814: (Sim:1h39m11s) 
CPU  1 inst:  101000000 cyc:  131480781 now IPC :0.84719: AVG IPC :0.75864: L2-Pf-HR :0.99269: L2-HR :0.92843: (Sim:1h39m14s) 
CPU  3 inst:   99000000 cyc:  131503455 now IPC :0.55755: AVG IPC :0.74318: L2-Pf-HR :0.99172: L2-HR :0.92702: (Sim:1h39m15s) 
CPU  0 inst:  101000000 cyc:  131674499 now IPC :0.77280: AVG IPC :0.75752: L2-Pf-HR :0.99224: L2-HR :0.92793: (Sim:1h39m23s) 
CPU  2 inst:  100000003 cyc:  132827881 now IPC :0.71408: AVG IPC :0.74331: L2-Pf-HR :0.99188: L2-HR :0.92816: (Sim:1h40m16s) 
CPU  0 inst:  102000002 cyc:  132851488 now IPC :0.84963: AVG IPC :0.75834: L2-Pf-HR :0.99229: L2-HR :0.92793: (Sim:1h40m17s) 
CPU  1 inst:  102000002 cyc:  132856569 now IPC :0.72686: AVG IPC :0.75831: L2-Pf-HR :0.99275: L2-HR :0.92839: (Sim:1h40m17s) 
CPU  3 inst:  100000003 cyc:  132886502 now IPC :0.72304: AVG IPC :0.74297: L2-Pf-HR :0.99178: L2-HR :0.92699: (Sim:1h40m19s) 
CPU  2 inst:  101000000 cyc:  133720795 now IPC :1.11993: AVG IPC :0.74584: L2-Pf-HR :0.99195: L2-HR :0.92823: (Sim:1h40m56s) 
CPU  3 inst:  101000000 cyc:  134084385 now IPC :0.83480: AVG IPC :0.74380: L2-Pf-HR :0.99184: L2-HR :0.92698: (Sim:1h41m9s) 
CPU  0 inst:  103000001 cyc:  134271294 now IPC :0.70432: AVG IPC :0.75776: L2-Pf-HR :0.99233: L2-HR :0.92800: (Sim:1h41m19s) 
CPU  1 inst:  103000001 cyc:  134286526 now IPC :0.69932: AVG IPC :0.75768: L2-Pf-HR :0.99278: L2-HR :0.92846: (Sim:1h41m19s) 
CPU  2 inst:  102000002 cyc:  134604514 now IPC :1.13158: AVG IPC :0.74839: L2-Pf-HR :0.99202: L2-HR :0.92825: (Sim:1h41m34s) 
CPU  3 inst:  102000002 cyc:  134827018 now IPC :1.34656: AVG IPC :0.74714: L2-Pf-HR :0.99190: L2-HR :0.92705: (Sim:1h41m41s) 
CPU  2 inst:  103000001 cyc:  135424302 now IPC :1.21983: AVG IPC :0.75127: L2-Pf-HR :0.99205: L2-HR :0.92829: (Sim:1h42m0s) 
CPU  3 inst:  103000001 cyc:  135719945 now IPC :1.11991: AVG IPC :0.74961: L2-Pf-HR :0.99193: L2-HR :0.92708: (Sim:1h42m9s) 
CPU  1 inst:  104000005 cyc:  135736853 now IPC :0.68950: AVG IPC :0.75694: L2-Pf-HR :0.99276: L2-HR :0.92839: (Sim:1h42m9s) 
CPU  0 inst:  104000005 cyc:  135874552 now IPC :0.62373: AVG IPC :0.75617: L2-Pf-HR :0.99231: L2-HR :0.92794: (Sim:1h42m13s) 
CPU  1 inst:  105000002 cyc:  136585038 now IPC :1.17898: AVG IPC :0.75958: L2-Pf-HR :0.99278: L2-HR :0.92845: (Sim:1h42m33s) 
CPU  0 inst:  105000002 cyc:  136604787 now IPC :1.36942: AVG IPC :0.75947: L2-Pf-HR :0.99234: L2-HR :0.92801: (Sim:1h42m34s) 
CPU  2 inst:  104000005 cyc:  137169496 now IPC :0.57300: AVG IPC :0.74898: L2-Pf-HR :0.99200: L2-HR :0.92817: (Sim:1h42m49s) 
CPU  3 inst:  104000002 cyc:  137266232 now IPC :0.64671: AVG IPC :0.74845: L2-Pf-HR :0.99187: L2-HR :0.92699: (Sim:1h42m52s) 
CPU  1 inst:  106000002 cyc:  138332978 now IPC :0.57210: AVG IPC :0.75720: L2-Pf-HR :0.99283: L2-HR :0.92856: (Sim:1h43m12s) 
CPU  0 inst:  106000002 cyc:  138335500 now IPC :0.57780: AVG IPC :0.75718: L2-Pf-HR :0.99240: L2-HR :0.92815: (Sim:1h43m12s) 
CPU  3 inst:  105000002 cyc:  139163073 now IPC :0.52719: AVG IPC :0.74541: L2-Pf-HR :0.99190: L2-HR :0.92712: (Sim:1h43m30s) 
CPU  2 inst:  105000002 cyc:  139176925 now IPC :0.49815: AVG IPC :0.74534: L2-Pf-HR :0.99205: L2-HR :0.92830: (Sim:1h43m30s) 
CPU  1 inst:  107000004 cyc:  139788439 now IPC :0.68707: AVG IPC :0.75646: L2-Pf-HR :0.99288: L2-HR :0.92873: (Sim:1h43m46s) 
CPU  0 inst:  107000004 cyc:  139798071 now IPC :0.68373: AVG IPC :0.75641: L2-Pf-HR :0.99247: L2-HR :0.92833: (Sim:1h43m47s) 
CPU  2 inst:  106000002 cyc:  140530850 now IPC :0.73859: AVG IPC :0.74527: L2-Pf-HR :0.99212: L2-HR :0.92845: (Sim:1h44m3s) 
CPU  3 inst:  106000002 cyc:  140541947 now IPC :0.72523: AVG IPC :0.74521: L2-Pf-HR :0.99196: L2-HR :0.92726: (Sim:1h44m3s) 
CPU  0 inst:  108000000 cyc:  141106076 now IPC :0.76452: AVG IPC :0.75649: L2-Pf-HR :0.99253: L2-HR :0.92849: (Sim:1h44m20s) 
CPU  1 inst:  108000000 cyc:  141124341 now IPC :0.74855: AVG IPC :0.75639: L2-Pf-HR :0.99294: L2-HR :0.92888: (Sim:1h44m20s) 
CPU  3 inst:  107000005 cyc:  141648830 now IPC :0.90344: AVG IPC :0.74646: L2-Pf-HR :0.99202: L2-HR :0.92743: (Sim:1h44m34s) 
CPU  2 inst:  107000005 cyc:  141671804 now IPC :0.87646: AVG IPC :0.74634: L2-Pf-HR :0.99217: L2-HR :0.92860: (Sim:1h44m35s) 
CPU  0 inst:  109000004 cyc:  142218771 now IPC :0.89872: AVG IPC :0.75761: L2-Pf-HR :0.99257: L2-HR :0.92866: (Sim:1h44m51s) 
CPU  1 inst:  109000004 cyc:  142238816 now IPC :0.89729: AVG IPC :0.75750: L2-Pf-HR :0.99297: L2-HR :0.92903: (Sim:1h44m51s) 
CPU  2 inst:  108000000 cyc:  142617941 now IPC :1.05692: AVG IPC :0.74841: L2-Pf-HR :0.99221: L2-HR :0.92868: (Sim:1h45m1s) 
CPU  3 inst:  108000000 cyc:  142625054 now IPC :1.02435: AVG IPC :0.74837: L2-Pf-HR :0.99206: L2-HR :0.92752: (Sim:1h45m1s) 
CPU  0 inst:  110000003 cyc:  143336503 now IPC :0.89467: AVG IPC :0.75868: L2-Pf-HR :0.99248: L2-HR :0.92859: (Sim:1h45m25s) 
CPU  1 inst:  110000003 cyc:  143357730 now IPC :0.89372: AVG IPC :0.75857: L2-Pf-HR :0.99288: L2-HR :0.92895: (Sim:1h45m26s) 
CPU  2 inst:  109000004 cyc:  143647918 now IPC :0.97090: AVG IPC :0.75002: L2-Pf-HR :0.99219: L2-HR :0.92863: (Sim:1h45m34s) 
CPU  3 inst:  109000004 cyc:  143650879 now IPC :0.97483: AVG IPC :0.75000: L2-Pf-HR :0.99205: L2-HR :0.92746: (Sim:1h45m34s) 
CPU  0 inst:  111000000 cyc:  144019928 now IPC :1.46321: AVG IPC :0.76205: L2-Pf-HR :0.99247: L2-HR :0.92866: (Sim:1h45m44s) 
CPU  1 inst:  111000000 cyc:  144043902 now IPC :1.45736: AVG IPC :0.76192: L2-Pf-HR :0.99288: L2-HR :0.92902: (Sim:1h45m45s) 
CPU  0 inst:  112000002 cyc:  145157371 now IPC :0.87917: AVG IPC :0.76297: L2-Pf-HR :0.99246: L2-HR :0.92860: (Sim:1h46m15s) 
CPU  1 inst:  112000002 cyc:  145176770 now IPC :0.88272: AVG IPC :0.76287: L2-Pf-HR :0.99283: L2-HR :0.92893: (Sim:1h46m16s) 
CPU  3 inst:  110000003 cyc:  145201341 now IPC :0.64497: AVG IPC :0.74887: L2-Pf-HR :0.99197: L2-HR :0.92724: (Sim:1h46m17s) 
CPU  2 inst:  110000003 cyc:  145206593 now IPC :0.64157: AVG IPC :0.74885: L2-Pf-HR :0.99211: L2-HR :0.92844: (Sim:1h46m17s) 
CPU  2 inst:  111000000 cyc:  146093540 now IPC :1.12746: AVG IPC :0.75116: L2-Pf-HR :0.99205: L2-HR :0.92834: (Sim:1h46m56s) 
CPU  0 inst:  113000000 cyc:  146160847 now IPC :0.99653: AVG IPC :0.76459: L2-Pf-HR :0.99235: L2-HR :0.92853: (Sim:1h46m58s) 
CPU  1 inst:  113000000 cyc:  146162181 now IPC :1.01480: AVG IPC :0.76458: L2-Pf-HR :0.99276: L2-HR :0.92888: (Sim:1h46m58s) 
CPU  3 inst:  111000000 cyc:  146164963 now IPC :1.03775: AVG IPC :0.75079: L2-Pf-HR :0.99192: L2-HR :0.92714: (Sim:1h46m58s) 
CPU  2 inst:  112000005 cyc:  146862882 now IPC :1.29982: AVG IPC :0.75405: L2-Pf-HR :0.99210: L2-HR :0.92850: (Sim:1h47m16s) 
CPU  3 inst:  112000005 cyc:  146912077 now IPC :1.33849: AVG IPC :0.75380: L2-Pf-HR :0.99193: L2-HR :0.92723: (Sim:1h47m18s) 
CPU  2 inst:  113000000 cyc:  147761872 now IPC :1.11235: AVG IPC :0.75625: L2-Pf-HR :0.99199: L2-HR :0.92846: (Sim:1h47m42s) 
CPU  3 inst:  113000000 cyc:  147784895 now IPC :1.14571: AVG IPC :0.75613: L2-Pf-HR :0.99184: L2-HR :0.92721: (Sim:1h47m43s) 
CPU  0 inst:  114000001 cyc:  148084491 now IPC :0.51985: AVG IPC :0.76139: L2-Pf-HR :0.99231: L2-HR :0.92829: (Sim:1h47m49s) 
CPU  1 inst:  114000001 cyc:  148104929 now IPC :0.51474: AVG IPC :0.76128: L2-Pf-HR :0.99271: L2-HR :0.92865: (Sim:1h47m49s) 
CPU  0 inst:  115000004 cyc:  149788558 now IPC :0.58683: AVG IPC :0.75939: L2-Pf-HR :0.99235: L2-HR :0.92822: (Sim:1h48m26s) 
CPU  1 inst:  115000004 cyc:  149833804 now IPC :0.57841: AVG IPC :0.75916: L2-Pf-HR :0.99275: L2-HR :0.92857: (Sim:1h48m27s) 
CPU  2 inst:  114000001 cyc:  149990887 now IPC :0.44863: AVG IPC :0.75165: L2-Pf-HR :0.99194: L2-HR :0.92823: (Sim:1h48m31s) 
CPU  3 inst:  114000001 cyc:  150023359 now IPC :0.44674: AVG IPC :0.75148: L2-Pf-HR :0.99179: L2-HR :0.92696: (Sim:1h48m31s) 
CPU  0 inst:  116000001 cyc:  150979037 now IPC :0.84000: AVG IPC :0.76003: L2-Pf-HR :0.99242: L2-HR :0.92828: (Sim:1h48m54s) 
CPU  1 inst:  116000001 cyc:  151301026 now IPC :0.68156: AVG IPC :0.75840: L2-Pf-HR :0.99280: L2-HR :0.92862: (Sim:1h49m2s) 
CPU  2 inst:  115000004 cyc:  151572853 now IPC :0.63213: AVG IPC :0.75039: L2-Pf-HR :0.99201: L2-HR :0.92828: (Sim:1h49m9s) 
CPU  3 inst:  115000004 cyc:  151954202 now IPC :0.51791: AVG IPC :0.74849: L2-Pf-HR :0.99186: L2-HR :0.92699: (Sim:1h49m22s) 
CPU  0 inst:  117000001 cyc:  152260178 now IPC :0.78055: AVG IPC :0.76020: L2-Pf-HR :0.99248: L2-HR :0.92837: (Sim:1h49m35s) 
CPU  1 inst:  117000001 cyc:  152569160 now IPC :0.78856: AVG IPC :0.75865: L2-Pf-HR :0.99285: L2-HR :0.92868: (Sim:1h49m53s) 
CPU  2 inst:  116000001 cyc:  152741994 now IPC :0.85533: AVG IPC :0.75120: L2-Pf-HR :0.99208: L2-HR :0.92836: (Sim:1h50m1s) 
CPU  3 inst:  116000001 cyc:  153255622 now IPC :0.76839: AVG IPC :0.74866: L2-Pf-HR :0.99193: L2-HR :0.92704: (Sim:1h50m27s) 
CPU  0 inst:  118000002 cyc:  153260857 now IPC :0.99932: AVG IPC :0.76177: L2-Pf-HR :0.99254: L2-HR :0.92843: (Sim:1h50m27s) 
CPU  1 inst:  118000002 cyc:  153672694 now IPC :0.90618: AVG IPC :0.75972: L2-Pf-HR :0.99290: L2-HR :0.92872: (Sim:1h50m49s) 
CPU  2 inst:  117000001 cyc:  153858659 now IPC :0.89552: AVG IPC :0.75225: L2-Pf-HR :0.99213: L2-HR :0.92838: (Sim:1h50m58s) 
CPU  3 inst:  117000001 cyc:  154391243 now IPC :0.88058: AVG IPC :0.74964: L2-Pf-HR :0.99199: L2-HR :0.92710: (Sim:1h51m26s) 
CPU  0 inst:  119000003 cyc:  154410227 now IPC :0.87004: AVG IPC :0.76258: L2-Pf-HR :0.99259: L2-HR :0.92849: (Sim:1h51m27s) 
CPU  1 inst:  119000003 cyc:  154696389 now IPC :0.97685: AVG IPC :0.76116: L2-Pf-HR :0.99295: L2-HR :0.92880: (Sim:1h51m41s) 
CPU  2 inst:  118000000 cyc:  154971325 now IPC :0.89874: AVG IPC :0.75331: L2-Pf-HR :0.99220: L2-HR :0.92842: (Sim:1h51m54s) 
CPU  3 inst:  118000000 cyc:  155329041 now IPC :1.06633: AVG IPC :0.75156: L2-Pf-HR :0.99205: L2-HR :0.92713: (Sim:1h52m10s) 
CPU  2 inst:  119000003 cyc:  155774395 now IPC :1.24523: AVG IPC :0.75586: L2-Pf-HR :0.99224: L2-HR :0.92845: (Sim:1h52m31s) 
CPU  3 inst:  119000003 cyc:  156104078 now IPC :1.29026: AVG IPC :0.75425: L2-Pf-HR :0.99209: L2-HR :0.92711: (Sim:1h52m49s) 
CPU  0 inst:  120000000 cyc:  156105509 now IPC :0.58987: AVG IPC :0.76070: L2-Pf-HR :0.99255: L2-HR :0.92843: (Sim:1h52m49s) 
CPU  1 inst:  120000000 cyc:  156470441 now IPC :0.56368: AVG IPC :0.75891: L2-Pf-HR :0.99289: L2-HR :0.92873: (Sim:1h53m7s) 
CPU  0 inst:  121000000 cyc:  156751862 now IPC :1.54714: AVG IPC :0.76396: L2-Pf-HR :0.99260: L2-HR :0.92849: (Sim:1h53m20s) 
CPU  2 inst:  120000000 cyc:  157371298 now IPC :0.62621: AVG IPC :0.75454: L2-Pf-HR :0.99213: L2-HR :0.92829: (Sim:1h53m51s) 
CPU  1 inst:  121000000 cyc:  157453242 now IPC :1.01750: AVG IPC :0.76054: L2-Pf-HR :0.99289: L2-HR :0.92871: (Sim:1h53m55s) 
CPU  0 inst:  122000004 cyc:  157879422 now IPC :0.88687: AVG IPC :0.76484: L2-Pf-HR :0.99257: L2-HR :0.92845: (Sim:1h54m16s) 
CPU  3 inst:  120000000 cyc:  158096250 now IPC :0.50196: AVG IPC :0.75106: L2-Pf-HR :0.99194: L2-HR :0.92690: (Sim:1h54m26s) 
CPU  2 inst:  121000000 cyc:  158467292 now IPC :0.91241: AVG IPC :0.75564: L2-Pf-HR :0.99199: L2-HR :0.92816: (Sim:1h54m44s) 
CPU  1 inst:  122000001 cyc:  158823482 now IPC :0.72980: AVG IPC :0.76027: L2-Pf-HR :0.99280: L2-HR :0.92861: (Sim:1h55m1s) 
CPU  0 inst:  123000003 cyc:  159091851 now IPC :0.82479: AVG IPC :0.76530: L2-Pf-HR :0.99256: L2-HR :0.92847: (Sim:1h55m13s) 
CPU  3 inst:  121000000 cyc:  159444841 now IPC :0.74151: AVG IPC :0.75097: L2-Pf-HR :0.99198: L2-HR :0.92697: (Sim:1h55m27s) 
CPU  2 inst:  122000004 cyc:  159783804 now IPC :0.75959: AVG IPC :0.75567: L2-Pf-HR :0.99205: L2-HR :0.92823: (Sim:1h55m43s) 
CPU  1 inst:  123000003 cyc:  160074748 now IPC :0.79919: AVG IPC :0.76057: L2-Pf-HR :0.99285: L2-HR :0.92871: (Sim:1h55m58s) 
CPU  0 inst:  124000000 cyc:  160546496 now IPC :0.68745: AVG IPC :0.76459: L2-Pf-HR :0.99262: L2-HR :0.92856: (Sim:1h56m17s) 
CPU  3 inst:  122000004 cyc:  160880585 now IPC :0.69651: AVG IPC :0.75049: L2-Pf-HR :0.99205: L2-HR :0.92708: (Sim:1h56m33s) 
CPU  2 inst:  123000003 cyc:  161091790 now IPC :0.76453: AVG IPC :0.75574: L2-Pf-HR :0.99211: L2-HR :0.92834: (Sim:1h56m43s) 
CPU  1 inst:  124000001 cyc:  161568443 now IPC :0.66948: AVG IPC :0.75973: L2-Pf-HR :0.99290: L2-HR :0.92880: (Sim:1h57m4s) 
CPU  0 inst:  125000005 cyc:  161736237 now IPC :0.84052: AVG IPC :0.76515: L2-Pf-HR :0.99267: L2-HR :0.92866: (Sim:1h57m13s) 
CPU  3 inst:  123000002 cyc:  162046045 now IPC :0.85803: AVG IPC :0.75126: L2-Pf-HR :0.99208: L2-HR :0.92712: (Sim:1h57m29s) 
CPU  2 inst:  124000003 cyc:  162292224 now IPC :0.83303: AVG IPC :0.75632: L2-Pf-HR :0.99213: L2-HR :0.92838: (Sim:1h57m41s) 
CPU  1 inst:  125000005 cyc:  162482928 now IPC :1.09352: AVG IPC :0.76162: L2-Pf-HR :0.99291: L2-HR :0.92883: (Sim:1h57m51s) 
CPU  3 inst:  124000003 cyc:  162850136 now IPC :1.24364: AVG IPC :0.75371: L2-Pf-HR :0.99212: L2-HR :0.92718: (Sim:1h58m10s) 
CPU  2 inst:  125000005 cyc:  163132602 now IPC :1.18994: AVG IPC :0.75857: L2-Pf-HR :0.99218: L2-HR :0.92846: (Sim:1h58m25s) 
CPU  0 inst:  126000003 cyc:  163362080 now IPC :0.61506: AVG IPC :0.76365: L2-Pf-HR :0.99264: L2-HR :0.92870: (Sim:1h58m38s) 
CPU  3 inst:  125000005 cyc:  163560068 now IPC :1.40859: AVG IPC :0.75657: L2-Pf-HR :0.99217: L2-HR :0.92725: (Sim:1h58m50s) 
CPU  1 inst:  126000003 cyc:  163781712 now IPC :0.76995: AVG IPC :0.76168: L2-Pf-HR :0.99288: L2-HR :0.92887: (Sim:1h59m1s) 
CPU  0 inst:  127000004 cyc:  164119587 now IPC :1.32012: AVG IPC :0.76624: L2-Pf-HR :0.99268: L2-HR :0.92882: (Sim:1h59m18s) 
CPU  1 inst:  127000004 cyc:  164641256 now IPC :1.16341: AVG IPC :0.76379: L2-Pf-HR :0.99292: L2-HR :0.92896: (Sim:1h59m44s) 
CPU  2 inst:  126000003 cyc:  164682360 now IPC :0.64526: AVG IPC :0.75749: L2-Pf-HR :0.99214: L2-HR :0.92847: (Sim:1h59m46s) 
CPU  0 inst:  128000005 cyc:  165275191 now IPC :0.86535: AVG IPC :0.76693: L2-Pf-HR :0.99272: L2-HR :0.92888: (Sim:2h0m16s) 
CPU  3 inst:  126000003 cyc:  165363048 now IPC :0.55464: AVG IPC :0.75435: L2-Pf-HR :0.99214: L2-HR :0.92719: (Sim:2h0m20s) 
CPU  2 inst:  127000004 cyc:  165774079 now IPC :0.91599: AVG IPC :0.75854: L2-Pf-HR :0.99218: L2-HR :0.92850: (Sim:2h0m42s) 
CPU  1 inst:  128000005 cyc:  165780011 now IPC :0.87815: AVG IPC :0.76458: L2-Pf-HR :0.99295: L2-HR :0.92900: (Sim:2h0m43s) 
CPU  0 inst:  129000000 cyc:  166385597 now IPC :0.90057: AVG IPC :0.76783: L2-Pf-HR :0.99275: L2-HR :0.92891: (Sim:2h1m12s) 
CPU  3 inst:  127000001 cyc:  166445049 now IPC :0.92421: AVG IPC :0.75547: L2-Pf-HR :0.99217: L2-HR :0.92719: (Sim:2h1m16s) 
CPU  1 inst:  129000000 cyc:  166880281 now IPC :0.90886: AVG IPC :0.76554: L2-Pf-HR :0.99299: L2-HR :0.92907: (Sim:2h1m37s) 
CPU  2 inst:  128000005 cyc:  166909971 now IPC :0.88037: AVG IPC :0.75938: L2-Pf-HR :0.99222: L2-HR :0.92858: (Sim:2h1m39s) 
CPU  3 inst:  128000005 cyc:  167295340 now IPC :1.17607: AVG IPC :0.75762: L2-Pf-HR :0.99222: L2-HR :0.92734: (Sim:2h1m58s) 
CPU  2 inst:  129000005 cyc:  167688146 now IPC :1.28506: AVG IPC :0.76183: L2-Pf-HR :0.99223: L2-HR :0.92873: (Sim:2h2m15s) 
CPU  3 inst:  129000001 cyc:  168083804 now IPC :1.26828: AVG IPC :0.76003: L2-Pf-HR :0.99225: L2-HR :0.92744: (Sim:2h2m35s) 
CPU  0 inst:  130000004 cyc:  168241557 now IPC :0.53881: AVG IPC :0.76529: L2-Pf-HR :0.99271: L2-HR :0.92878: (Sim:2h2m43s) 
CPU  1 inst:  130000004 cyc:  168514259 now IPC :0.61201: AVG IPC :0.76404: L2-Pf-HR :0.99296: L2-HR :0.92896: (Sim:2h2m55s) 
CPU  0 inst:  131000005 cyc:  169381713 now IPC :0.87707: AVG IPC :0.76605: L2-Pf-HR :0.99274: L2-HR :0.92877: (Sim:2h3m31s) 
CPU  1 inst:  131000005 cyc:  169481196 now IPC :1.03419: AVG IPC :0.76559: L2-Pf-HR :0.99299: L2-HR :0.92897: (Sim:2h3m35s) 
CPU  2 inst:  130000004 cyc:  170078412 now IPC :0.41836: AVG IPC :0.75698: L2-Pf-HR :0.99221: L2-HR :0.92859: (Sim:2h4m4s) 
CPU  3 inst:  130000004 cyc:  170361684 now IPC :0.43901: AVG IPC :0.75571: L2-Pf-HR :0.99223: L2-HR :0.92733: (Sim:2h4m19s) 
CPU  0 inst:  132000003 cyc:  170623511 now IPC :0.80528: AVG IPC :0.76633: L2-Pf-HR :0.99279: L2-HR :0.92878: (Sim:2h4m30s) 
CPU  1 inst:  132000003 cyc:  170656327 now IPC :0.85097: AVG IPC :0.76619: L2-Pf-HR :0.99303: L2-HR :0.92895: (Sim:2h4m32s) 
CPU  2 inst:  131000005 cyc:  171239879 now IPC :0.86098: AVG IPC :0.75769: L2-Pf-HR :0.99225: L2-HR :0.92860: (Sim:2h5m3s) 
CPU  3 inst:  131000005 cyc:  171243489 now IPC :1.13404: AVG IPC :0.75767: L2-Pf-HR :0.99227: L2-HR :0.92734: (Sim:2h5m3s) 
CPU  0 inst:  133000002 cyc:  171908893 now IPC :0.77798: AVG IPC :0.76642: L2-Pf-HR :0.99283: L2-HR :0.92876: (Sim:2h5m31s) 
CPU  1 inst:  133000002 cyc:  172005833 now IPC :0.74101: AVG IPC :0.76599: L2-Pf-HR :0.99307: L2-HR :0.92893: (Sim:2h5m36s) 
CPU  2 inst:  132000003 cyc:  172766047 now IPC :0.65523: AVG IPC :0.75678: L2-Pf-HR :0.99230: L2-HR :0.92864: (Sim:2h6m5s) 
CPU  3 inst:  132000003 cyc:  172854584 now IPC :0.62069: AVG IPC :0.75638: L2-Pf-HR :0.99232: L2-HR :0.92737: (Sim:2h6m9s) 
CPU  0 inst:  134000002 cyc:  173459108 now IPC :0.64507: AVG IPC :0.76533: L2-Pf-HR :0.99288: L2-HR :0.92885: (Sim:2h6m35s) 
CPU  1 inst:  134000002 cyc:  173508295 now IPC :0.66557: AVG IPC :0.76511: L2-Pf-HR :0.99311: L2-HR :0.92902: (Sim:2h6m38s) 
CPU  2 inst:  133000002 cyc:  174161675 now IPC :0.71652: AVG IPC :0.75645: L2-Pf-HR :0.99235: L2-HR :0.92869: (Sim:2h7m8s) 
CPU  3 inst:  133000002 cyc:  174182842 now IPC :0.75287: AVG IPC :0.75636: L2-Pf-HR :0.99237: L2-HR :0.92742: (Sim:2h7m9s) 
CPU  1 inst:  135000004 cyc:  174668199 now IPC :0.86214: AVG IPC :0.76576: L2-Pf-HR :0.99315: L2-HR :0.92906: (Sim:2h7m35s) 
CPU  0 inst:  135000003 cyc:  174709909 now IPC :0.79949: AVG IPC :0.76558: L2-Pf-HR :0.99292: L2-HR :0.92889: (Sim:2h7m38s) 
CPU  2 inst:  134000002 cyc:  175150411 now IPC :1.01139: AVG IPC :0.75790: L2-Pf-HR :0.99240: L2-HR :0.92875: (Sim:2h7m59s) 
CPU  3 inst:  134000002 cyc:  175163701 now IPC :1.01951: AVG IPC :0.75784: L2-Pf-HR :0.99241: L2-HR :0.92747: (Sim:2h7m59s) 
CPU  2 inst:  135000004 cyc:  175990698 now IPC :1.19007: AVG IPC :0.75997: L2-Pf-HR :0.99244: L2-HR :0.92874: (Sim:2h8m38s) 
CPU  3 inst:  135000004 cyc:  176079072 now IPC :1.09246: AVG IPC :0.75959: L2-Pf-HR :0.99245: L2-HR :0.92746: (Sim:2h8m42s) 
CPU  0 inst:  136000001 cyc:  176337794 now IPC :0.61429: AVG IPC :0.76417: L2-Pf-HR :0.99287: L2-HR :0.92883: (Sim:2h8m56s) 
CPU  1 inst:  136000002 cyc:  176338528 now IPC :0.59868: AVG IPC :0.76417: L2-Pf-HR :0.99310: L2-HR :0.92900: (Sim:2h8m56s) 
CPU  1 inst:  137000004 cyc:  177126342 now IPC :1.26934: AVG IPC :0.76643: L2-Pf-HR :0.99311: L2-HR :0.92901: (Sim:2h9m33s) 
CPU  0 inst:  137000004 cyc:  177128486 now IPC :1.26472: AVG IPC :0.76642: L2-Pf-HR :0.99287: L2-HR :0.92882: (Sim:2h9m33s) 
CPU  3 inst:  136000002 cyc:  177760212 now IPC :0.59483: AVG IPC :0.75802: L2-Pf-HR :0.99236: L2-HR :0.92731: (Sim:2h10m4s) 
CPU  2 inst:  136000002 cyc:  177770298 now IPC :0.56192: AVG IPC :0.75798: L2-Pf-HR :0.99236: L2-HR :0.92859: (Sim:2h10m4s) 
CPU  1 inst:  138000005 cyc:  178356788 now IPC :0.81271: AVG IPC :0.76675: L2-Pf-HR :0.99313: L2-HR :0.92900: (Sim:2h10m33s) 
CPU  0 inst:  138000005 cyc:  178362890 now IPC :0.81011: AVG IPC :0.76672: L2-Pf-HR :0.99290: L2-HR :0.92879: (Sim:2h10m34s) 
CPU  3 inst:  137000004 cyc:  178923307 now IPC :0.85978: AVG IPC :0.75869: L2-Pf-HR :0.99240: L2-HR :0.92733: (Sim:2h11m0s) 
CPU  2 inst:  137000004 cyc:  178931250 now IPC :0.86136: AVG IPC :0.75865: L2-Pf-HR :0.99240: L2-HR :0.92863: (Sim:2h11m0s) 
CPU  1 inst:  139000005 cyc:  179565090 now IPC :0.82761: AVG IPC :0.76716: L2-Pf-HR :0.99316: L2-HR :0.92907: (Sim:2h11m32s) 
CPU  0 inst:  139000005 cyc:  179586220 now IPC :0.81744: AVG IPC :0.76707: L2-Pf-HR :0.99293: L2-HR :0.92886: (Sim:2h11m33s) 
CPU  2 inst:  138000005 cyc:  180088318 now IPC :0.86425: AVG IPC :0.75934: L2-Pf-HR :0.99244: L2-HR :0.92867: (Sim:2h11m59s) 
CPU  3 inst:  138000005 cyc:  180110640 now IPC :0.84222: AVG IPC :0.75924: L2-Pf-HR :0.99244: L2-HR :0.92735: (Sim:2h12m1s) 
CPU  0 inst:  140000005 cyc:  180652335 now IPC :0.93799: AVG IPC :0.76808: L2-Pf-HR :0.99295: L2-HR :0.92887: (Sim:2h12m26s) 
CPU  1 inst:  140000005 cyc:  180655342 now IPC :0.91722: AVG IPC :0.76807: L2-Pf-HR :0.99319: L2-HR :0.92909: (Sim:2h12m26s) 
CPU  2 inst:  139000005 cyc:  181291631 now IPC :0.83104: AVG IPC :0.75982: L2-Pf-HR :0.99248: L2-HR :0.92877: (Sim:2h12m56s) 
CPU  3 inst:  139000005 cyc:  181308132 now IPC :0.83508: AVG IPC :0.75974: L2-Pf-HR :0.99248: L2-HR :0.92745: (Sim:2h12m57s) 
CPU  0 inst:  141000002 cyc:  181850911 now IPC :0.83432: AVG IPC :0.76852: L2-Pf-HR :0.99298: L2-HR :0.92891: (Sim:2h13m25s) 
CPU  1 inst:  141000002 cyc:  181852416 now IPC :0.83537: AVG IPC :0.76852: L2-Pf-HR :0.99321: L2-HR :0.92912: (Sim:2h13m25s) 
CPU  2 inst:  140000005 cyc:  182249357 now IPC :1.04414: AVG IPC :0.76132: L2-Pf-HR :0.99252: L2-HR :0.92880: (Sim:2h13m47s) 
CPU  3 inst:  140000005 cyc:  182253138 now IPC :1.05819: AVG IPC :0.76130: L2-Pf-HR :0.99252: L2-HR :0.92749: (Sim:2h13m47s) 
CPU  3 inst:  141000002 cyc:  183218572 now IPC :1.03580: AVG IPC :0.76275: L2-Pf-HR :0.99252: L2-HR :0.92749: (Sim:2h14m31s) 
CPU  2 inst:  141000002 cyc:  183232557 now IPC :1.01708: AVG IPC :0.76270: L2-Pf-HR :0.99252: L2-HR :0.92881: (Sim:2h14m31s) 
CPU  1 inst:  142000001 cyc:  183520877 now IPC :0.59935: AVG IPC :0.76697: L2-Pf-HR :0.99309: L2-HR :0.92906: (Sim:2h14m47s) 
CPU  0 inst:  142000001 cyc:  183556866 now IPC :0.58618: AVG IPC :0.76682: L2-Pf-HR :0.99288: L2-HR :0.92888: (Sim:2h14m49s) 
CPU  0 inst:  143000004 cyc:  184274375 now IPC :1.39371: AVG IPC :0.76927: L2-Pf-HR :0.99287: L2-HR :0.92896: (Sim:2h15m23s) 
CPU  1 inst:  143000004 cyc:  184278217 now IPC :1.32041: AVG IPC :0.76926: L2-Pf-HR :0.99308: L2-HR :0.92914: (Sim:2h15m24s) 
CPU  3 inst:  142000001 cyc:  184801423 now IPC :0.63177: AVG IPC :0.76163: L2-Pf-HR :0.99245: L2-HR :0.92744: (Sim:2h15m51s) 
CPU  2 inst:  142000001 cyc:  184879270 now IPC :0.60727: AVG IPC :0.76131: L2-Pf-HR :0.99245: L2-HR :0.92875: (Sim:2h15m55s) 
CPU  0 inst:  144000005 cyc:  185370154 now IPC :0.91259: AVG IPC :0.77012: L2-Pf-HR :0.99290: L2-HR :0.92900: (Sim:2h16m20s) 
CPU  1 inst:  144000005 cyc:  185378114 now IPC :0.90918: AVG IPC :0.77009: L2-Pf-HR :0.99311: L2-HR :0.92916: (Sim:2h16m20s) 
CPU  3 inst:  143000004 cyc:  185900798 now IPC :0.90961: AVG IPC :0.76251: L2-Pf-HR :0.99246: L2-HR :0.92745: (Sim:2h16m47s) 
CPU  2 inst:  143000004 cyc:  186051942 now IPC :0.85276: AVG IPC :0.76189: L2-Pf-HR :0.99246: L2-HR :0.92877: (Sim:2h16m55s) 
CPU  0 inst:  145000000 cyc:  186260545 now IPC :1.12310: AVG IPC :0.77182: L2-Pf-HR :0.99293: L2-HR :0.92913: (Sim:2h17m9s) 
CPU  1 inst:  145000000 cyc:  186294408 now IPC :1.09135: AVG IPC :0.77168: L2-Pf-HR :0.99314: L2-HR :0.92927: (Sim:2h17m12s) 
CPU  2 inst:  144000005 cyc:  186812544 now IPC :1.31475: AVG IPC :0.76415: L2-Pf-HR :0.99250: L2-HR :0.92885: (Sim:2h17m37s) 
CPU  3 inst:  144000005 cyc:  186822667 now IPC :1.08475: AVG IPC :0.76410: L2-Pf-HR :0.99250: L2-HR :0.92757: (Sim:2h17m37s) 
CPU  2 inst:  145000000 cyc:  187670774 now IPC :1.16518: AVG IPC :0.76599: L2-Pf-HR :0.99249: L2-HR :0.92894: (Sim:2h18m14s) 
CPU  3 inst:  145000000 cyc:  187730648 now IPC :1.10134: AVG IPC :0.76574: L2-Pf-HR :0.99248: L2-HR :0.92764: (Sim:2h18m18s) 
CPU  0 inst:  146000001 cyc:  188056813 now IPC :0.55671: AVG IPC :0.76976: L2-Pf-HR :0.99290: L2-HR :0.92902: (Sim:2h18m36s) 
CPU  1 inst:  146000001 cyc:  188068022 now IPC :0.56382: AVG IPC :0.76971: L2-Pf-HR :0.99310: L2-HR :0.92915: (Sim:2h18m36s) 
CPU  0 inst:  147000004 cyc:  189376592 now IPC :0.75770: AVG IPC :0.76967: L2-Pf-HR :0.99290: L2-HR :0.92899: (Sim:2h19m30s) 
CPU  1 inst:  147000001 cyc:  189387522 now IPC :0.75786: AVG IPC :0.76963: L2-Pf-HR :0.99310: L2-HR :0.92912: (Sim:2h19m31s) 
CPU  2 inst:  146000001 cyc:  189540156 now IPC :0.53494: AVG IPC :0.76370: L2-Pf-HR :0.99244: L2-HR :0.92881: (Sim:2h19m38s) 
CPU  3 inst:  146000001 cyc:  189552688 now IPC :0.54884: AVG IPC :0.76365: L2-Pf-HR :0.99244: L2-HR :0.92753: (Sim:2h19m39s) 
CPU  0 inst:  148000000 cyc:  190967864 now IPC :0.62843: AVG IPC :0.76849: L2-Pf-HR :0.99292: L2-HR :0.92899: (Sim:2h20m36s) 
CPU  1 inst:  148000000 cyc:  190969459 now IPC :0.63214: AVG IPC :0.76848: L2-Pf-HR :0.99312: L2-HR :0.92911: (Sim:2h20m36s) 
CPU  2 inst:  147000001 cyc:  191161408 now IPC :0.61681: AVG IPC :0.76245: L2-Pf-HR :0.99242: L2-HR :0.92876: (Sim:2h20m45s) 
CPU  3 inst:  147000005 cyc:  191166091 now IPC :0.61981: AVG IPC :0.76243: L2-Pf-HR :0.99244: L2-HR :0.92750: (Sim:2h20m45s) 
CPU  1 inst:  149000004 cyc:  192366520 now IPC :0.71579: AVG IPC :0.76810: L2-Pf-HR :0.99313: L2-HR :0.92909: (Sim:2h21m37s) 
CPU  0 inst:  149000004 cyc:  192381283 now IPC :0.70751: AVG IPC :0.76804: L2-Pf-HR :0.99292: L2-HR :0.92897: (Sim:2h21m38s) 
CPU  3 inst:  148000000 cyc:  192751907 now IPC :0.63059: AVG IPC :0.76134: L2-Pf-HR :0.99247: L2-HR :0.92754: (Sim:2h21m51s) 
CPU  2 inst:  148000000 cyc:  192769052 now IPC :0.62203: AVG IPC :0.76127: L2-Pf-HR :0.99245: L2-HR :0.92879: (Sim:2h21m52s) 
CPU  1 inst:  150000005 cyc:  193898833 now IPC :0.65261: AVG IPC :0.76718: L2-Pf-HR :0.99312: L2-HR :0.92908: (Sim:2h22m39s) 
CPU  0 inst:  150000005 cyc:  193944766 now IPC :0.63960: AVG IPC :0.76700: L2-Pf-HR :0.99292: L2-HR :0.92896: (Sim:2h22m41s) 
CPU  2 inst:  149000004 cyc:  194127849 now IPC :0.73595: AVG IPC :0.76109: L2-Pf-HR :0.99246: L2-HR :0.92881: (Sim:2h22m54s) 
CPU  3 inst:  149000004 cyc:  194151700 now IPC :0.71439: AVG IPC :0.76100: L2-Pf-HR :0.99249: L2-HR :0.92758: (Sim:2h22m55s) 
CPU  0 inst:  151000003 cyc:  194719449 now IPC :1.29085: AVG IPC :0.76909: L2-Pf-HR :0.99295: L2-HR :0.92903: (Sim:2h23m25s) 
CPU  1 inst:  151000003 cyc:  194794551 now IPC :1.11642: AVG IPC :0.76879: L2-Pf-HR :0.99316: L2-HR :0.92915: (Sim:2h23m30s) 
CPU  3 inst:  150000005 cyc:  195082022 now IPC :1.07490: AVG IPC :0.76250: L2-Pf-HR :0.99252: L2-HR :0.92765: (Sim:2h23m43s) 
CPU  2 inst:  150000005 cyc:  195221663 now IPC :0.91423: AVG IPC :0.76196: L2-Pf-HR :0.99250: L2-HR :0.92888: (Sim:2h23m50s) 
CPU  3 inst:  151000003 cyc:  195939469 now IPC :1.16625: AVG IPC :0.76428: L2-Pf-HR :0.99255: L2-HR :0.92770: (Sim:2h24m23s) 
CPU  2 inst:  151000003 cyc:  196139246 now IPC :1.08982: AVG IPC :0.76350: L2-Pf-HR :0.99254: L2-HR :0.92890: (Sim:2h24m34s) 
CPU  0 inst:  152000003 cyc:  196311716 now IPC :0.62804: AVG IPC :0.76794: L2-Pf-HR :0.99294: L2-HR :0.92901: (Sim:2h24m44s) 
CPU  1 inst:  152000003 cyc:  196480983 now IPC :0.59297: AVG IPC :0.76728: L2-Pf-HR :0.99316: L2-HR :0.92914: (Sim:2h24m55s) 
CPU  0 inst:  153000002 cyc:  197040379 now IPC :1.37238: AVG IPC :0.77019: L2-Pf-HR :0.99298: L2-HR :0.92907: (Sim:2h25m22s) 
CPU  1 inst:  153000002 cyc:  197178556 now IPC :1.43354: AVG IPC :0.76965: L2-Pf-HR :0.99319: L2-HR :0.92919: (Sim:2h25m29s) 
CPU  3 inst:  152000003 cyc:  197599772 now IPC :0.60230: AVG IPC :0.76291: L2-Pf-HR :0.99249: L2-HR :0.92757: (Sim:2h25m52s) 
CPU  2 inst:  152000003 cyc:  197796120 now IPC :0.60355: AVG IPC :0.76215: L2-Pf-HR :0.99248: L2-HR :0.92877: (Sim:2h26m1s) 
CPU  0 inst:  154000003 cyc:  198072248 now IPC :0.96912: AVG IPC :0.77123: L2-Pf-HR :0.99287: L2-HR :0.92891: (Sim:2h26m15s) 
CPU  1 inst:  154000003 cyc:  198124964 now IPC :1.05663: AVG IPC :0.77102: L2-Pf-HR :0.99304: L2-HR :0.92901: (Sim:2h26m18s) 
CPU  3 inst:  153000002 cyc:  198809792 now IPC :0.82643: AVG IPC :0.76330: L2-Pf-HR :0.99244: L2-HR :0.92747: (Sim:2h26m48s) 
CPU  2 inst:  153000002 cyc:  198813250 now IPC :0.98316: AVG IPC :0.76329: L2-Pf-HR :0.99246: L2-HR :0.92871: (Sim:2h26m48s) 
CPU  0 inst:  155000003 cyc:  199396524 now IPC :0.75513: AVG IPC :0.77112: L2-Pf-HR :0.99288: L2-HR :0.92892: (Sim:2h27m3s) 
CPU  1 inst:  155000003 cyc:  199425624 now IPC :0.76884: AVG IPC :0.77101: L2-Pf-HR :0.99306: L2-HR :0.92901: (Sim:2h27m4s) 
CPU  2 inst:  154000003 cyc:  200042002 now IPC :0.81383: AVG IPC :0.76360: L2-Pf-HR :0.99246: L2-HR :0.92868: (Sim:2h27m20s) 
CPU  3 inst:  154000003 cyc:  200180858 now IPC :0.72936: AVG IPC :0.76306: L2-Pf-HR :0.99242: L2-HR :0.92743: (Sim:2h27m23s) 
CPU  1 inst:  156000000 cyc:  200679533 now IPC :0.79750: AVG IPC :0.77118: L2-Pf-HR :0.99303: L2-HR :0.92897: (Sim:2h27m37s) 
CPU  0 inst:  156000003 cyc:  200686764 now IPC :0.77505: AVG IPC :0.77115: L2-Pf-HR :0.99283: L2-HR :0.92888: (Sim:2h27m37s) 
[...]
Core_0_LLC_prefetch_miss 2867515
Core_0_LLC_writebacks 2733350
Core_0_LLC_writeback_hit 2638167 LLC_writeback_Hit Ratio: 0.96518
Core_0_LLC_writeback_miss 95183
Core_0_LLC_prefetch_requested 0
Core_0_LLC_prefetch_issued 0
Core_0_LLC_prefetch_useful 4856472 LLC_Useful Ratio: inf
Core_0_LLC_prefetch_useless 6563398
Core_0_LLC_prefetch_late 779184
Core_0_LLC_average_miss_latency 5646.70000

Core_0_major_page_fault 0
Core_0_minor_page_fault 28665

Core_1_instructions 491000004
Core_1_cycles 912799900
Core_1_IPC 0.53791

Core_1_branch_prediction_accuracy 99.58583
Core_1_branch_MPKI 0.12030
Core_1_average_ROB_occupancy_at_mispredict 569.31422

Core_1_L1D_total_access 135659524
Core_1_L1D_total_hit 116301225 L1D_total_Hit Ratio: 0.85730
Core_1_L1D_total_miss 19358299
Core_1_L1D_loads 123134922
Core_1_L1D_load_hit 104707248 L1D_load_Hit Ratio: 0.85035
Core_1_L1D_load_miss 18427674
Core_1_L1D_RFOs 12524602
Core_1_L1D_RFO_hit 11593977 L1D_RFO_Hit Ratio: 0.92570
Core_1_L1D_RFO_miss 930625
Core_1_L1D_prefetches 0
Core_1_L1D_prefetch_hit 0 L1D_prefetch_Hit Ratio: -nan
Core_1_L1D_prefetch_miss 0
Core_1_L1D_writebacks 0
Core_1_L1D_writeback_hit 0 L1D_writeback_Hit Ratio: -nan
Core_1_L1D_writeback_miss 0
Core_1_L1D_prefetch_requested 0
Core_1_L1D_prefetch_issued 0
Core_1_L1D_prefetch_useful 0 L1D_Useful Ratio: -nan
Core_1_L1D_prefetch_useless 0
Core_1_L1D_prefetch_late 0
Core_1_L1D_average_miss_latency 160.35889

Core_1_L1I_total_access 71650631
Core_1_L1I_total_hit 71645653 L1I_total_Hit Ratio: 0.99993
Core_1_L1I_total_miss 4978
Core_1_L1I_loads 71650631
Core_1_L1I_load_hit 71645653 L1I_load_Hit Ratio: 0.99993
Core_1_L1I_load_miss 4978
Core_1_L1I_RFOs 0
Core_1_L1I_RFO_hit 0 L1I_RFO_Hit Ratio: -nan
Core_1_L1I_RFO_miss 0
Core_1_L1I_prefetches 0
Core_1_L1I_prefetch_hit 0 L1I_prefetch_Hit Ratio: -nan
Core_1_L1I_prefetch_miss 0
Core_1_L1I_writebacks 0
Core_1_L1I_writeback_hit 0 L1I_writeback_Hit Ratio: -nan
Core_1_L1I_writeback_miss 0
Core_1_L1I_prefetch_requested 0
Core_1_L1I_prefetch_issued 0
Core_1_L1I_prefetch_useful 0 L1I_Useful Ratio: -nan
Core_1_L1I_prefetch_useless 0
Core_1_L1I_prefetch_late 0
Core_1_L1I_average_miss_latency 1255.27601

Core_1_L2C_total_access 56742599
Core_1_L2C_total_hit 52067164 L2C_total_Hit Ratio: 0.91760
Core_1_L2C_total_miss 4675435
Core_1_L2C_loads 18432571
Core_1_L2C_load_hit 15385113 L2C_load_Hit Ratio: 0.83467
Core_1_L2C_load_miss 3047458
Core_1_L2C_RFOs 930625
Core_1_L2C_RFO_hit 143586 L2C_RFO_Hit Ratio: 0.15429
Core_1_L2C_RFO_miss 787039
Core_1_L2C_prefetches 34465573
Core_1_L2C_prefetch_hit 33625753 L2C_prefetch_Hit Ratio: 0.97563
Core_1_L2C_prefetch_miss 839820
Core_1_L2C_writebacks 2913830
Core_1_L2C_writeback_hit 2912712 L2C_writeback_Hit Ratio: 0.99962
Core_1_L2C_writeback_miss 1118
Core_1_L2C_prefetch_requested 79215370
Core_1_L2C_prefetch_issued 70811554
Core_1_L2C_prefetch_useful 776779 L2C_Useful Ratio: 0.01097
Core_1_L2C_prefetch_useless 66755
Core_1_L2C_prefetch_late 730458
Core_1_L2C_average_miss_latency 669.31776

Core_1_LLC_total_access 17235563
Core_1_LLC_total_hit 12707686 LLC_total_Hit Ratio: 0.73729
Core_1_LLC_total_miss 4527877
Core_1_LLC_loads 2317352
Core_1_LLC_load_hit 1536626 LLC_load_Hit Ratio: 0.66310
Core_1_LLC_load_miss 780726
Core_1_LLC_RFOs 787038
Core_1_LLC_RFO_hit 326 LLC_RFO_Hit Ratio: 0.00041
Core_1_LLC_RFO_miss 786712
Core_1_LLC_prefetches 11398679
Core_1_LLC_prefetch_hit 8532226 LLC_prefetch_Hit Ratio: 0.74853
Core_1_LLC_prefetch_miss 2866453
Core_1_LLC_writebacks 2732494
Core_1_LLC_writeback_hit 2638508 LLC_writeback_Hit Ratio: 0.96560
Core_1_LLC_writeback_miss 93986
Core_1_LLC_prefetch_requested 0
Core_1_LLC_prefetch_issued 0
Core_1_LLC_prefetch_useful 4856472 LLC_Useful Ratio: inf
Core_1_LLC_prefetch_useless 6563398
Core_1_LLC_prefetch_late 779184
Core_1_LLC_average_miss_latency 5643.24055

Core_1_major_page_fault 0
Core_1_minor_page_fault 28665

Core_2_instructions 491000002
Core_2_cycles 913406276
Core_2_IPC 0.53755

Core_2_branch_prediction_accuracy 99.58586
Core_2_branch_MPKI 0.12048
Core_2_average_ROB_occupancy_at_mispredict 569.43465

Core_2_L1D_total_access 135658025
Core_2_L1D_total_hit 116297640 L1D_total_Hit Ratio: 0.85729
Core_2_L1D_total_miss 19360385
Core_2_L1D_loads 123135749
Core_2_L1D_load_hit 104708160 L1D_load_Hit Ratio: 0.85035
Core_2_L1D_load_miss 18427589
Core_2_L1D_RFOs 12522276
Core_2_L1D_RFO_hit 11589480 L1D_RFO_Hit Ratio: 0.92551
Core_2_L1D_RFO_miss 932796
Core_2_L1D_prefetches 0
Core_2_L1D_prefetch_hit 0 L1D_prefetch_Hit Ratio: -nan
Core_2_L1D_prefetch_miss 0
Core_2_L1D_writebacks 0
Core_2_L1D_writeback_hit 0 L1D_writeback_Hit Ratio: -nan
Core_2_L1D_writeback_miss 0
Core_2_L1D_prefetch_requested 0
Core_2_L1D_prefetch_issued 0
Core_2_L1D_prefetch_useful 0 L1D_Useful Ratio: -nan
Core_2_L1D_prefetch_useless 0
Core_2_L1D_prefetch_late 0
Core_2_L1D_average_miss_latency 160.33099

Core_2_L1I_total_access 71644542
Core_2_L1I_total_hit 71639569 L1I_total_Hit Ratio: 0.99993
Core_2_L1I_total_miss 4973
Core_2_L1I_loads 71644542
Core_2_L1I_load_hit 71639569 L1I_load_Hit Ratio: 0.99993
Core_2_L1I_load_miss 4973
Core_2_L1I_RFOs 0
Core_2_L1I_RFO_hit 0 L1I_RFO_Hit Ratio: -nan
Core_2_L1I_RFO_miss 0
Core_2_L1I_prefetches 0
Core_2_L1I_prefetch_hit 0 L1I_prefetch_Hit Ratio: -nan
Core_2_L1I_prefetch_miss 0
Core_2_L1I_writebacks 0
Core_2_L1I_writeback_hit 0 L1I_writeback_Hit Ratio: -nan
Core_2_L1I_writeback_miss 0
Core_2_L1I_prefetch_requested 0
Core_2_L1I_prefetch_issued 0
Core_2_L1I_prefetch_useful 0 L1I_Useful Ratio: -nan
Core_2_L1I_prefetch_useless 0
Core_2_L1I_prefetch_late 0
Core_2_L1I_average_miss_latency 1230.79288

Core_2_L2C_total_access 56664212
Core_2_L2C_total_hit 51991717 L2C_total_Hit Ratio: 0.91754
Core_2_L2C_total_miss 4672495
Core_2_L2C_loads 18432478
Core_2_L2C_load_hit 15391147 L2C_load_Hit Ratio: 0.83500
Core_2_L2C_load_miss 3041331
Core_2_L2C_RFOs 932796
Core_2_L2C_RFO_hit 145715 L2C_RFO_Hit Ratio: 0.15621
Core_2_L2C_RFO_miss 787081
Core_2_L2C_prefetches 34385110
Core_2_L2C_prefetch_hit 33542091 L2C_prefetch_Hit Ratio: 0.97548
Core_2_L2C_prefetch_miss 843019
Core_2_L2C_writebacks 2913828
Core_2_L2C_writeback_hit 2912764 L2C_writeback_Hit Ratio: 0.99963
Core_2_L2C_writeback_miss 1064
Core_2_L2C_prefetch_requested 79012468
Core_2_L2C_prefetch_issued 70529258
Core_2_L2C_prefetch_useful 775680 L2C_Useful Ratio: 0.01100
Core_2_L2C_prefetch_useless 68816
Core_2_L2C_prefetch_late 730039
Core_2_L2C_average_miss_latency 666.29241

Core_2_LLC_total_access 17224173
Core_2_LLC_total_hit 12692890 LLC_total_Hit Ratio: 0.73692
Core_2_LLC_total_miss 4531283
Core_2_LLC_loads 2311453
Core_2_LLC_load_hit 1535966 LLC_load_Hit Ratio: 0.66450
Core_2_LLC_load_miss 775487
Core_2_LLC_RFOs 787080
Core_2_LLC_RFO_hit 345 LLC_RFO_Hit Ratio: 0.00044
Core_2_LLC_RFO_miss 786735
Core_2_LLC_prefetches 11396703
Core_2_LLC_prefetch_hit 8536027 LLC_prefetch_Hit Ratio: 0.74899
Core_2_LLC_prefetch_miss 2860676
Core_2_LLC_writebacks 2728937
Core_2_LLC_writeback_hit 2620552 LLC_writeback_Hit Ratio: 0.96028
Core_2_LLC_writeback_miss 108385
Core_2_LLC_prefetch_requested 0
Core_2_LLC_prefetch_issued 0
Core_2_LLC_prefetch_useful 4856472 LLC_Useful Ratio: inf
Core_2_LLC_prefetch_useless 6563398
Core_2_LLC_prefetch_late 779184
Core_2_LLC_average_miss_latency 5638.99873

Core_2_major_page_fault 0
Core_2_minor_page_fault 28665

Core_3_instructions 491000001
Core_3_cycles 913474132
Core_3_IPC 0.53751

Core_3_branch_prediction_accuracy 99.58586
Core_3_branch_MPKI 0.12051
Core_3_average_ROB_occupancy_at_mispredict 569.48071

Core_3_L1D_total_access 135657285
Core_3_L1D_total_hit 116298505 L1D_total_Hit Ratio: 0.85730
Core_3_L1D_total_miss 19358780
Core_3_L1D_loads 123132475
Core_3_L1D_load_hit 104705139 L1D_load_Hit Ratio: 0.85035
Core_3_L1D_load_miss 18427336
Core_3_L1D_RFOs 12524810
Core_3_L1D_RFO_hit 11593366 L1D_RFO_Hit Ratio: 0.92563
Core_3_L1D_RFO_miss 931444
Core_3_L1D_prefetches 0
Core_3_L1D_prefetch_hit 0 L1D_prefetch_Hit Ratio: -nan
Core_3_L1D_prefetch_miss 0
Core_3_L1D_writebacks 0
Core_3_L1D_writeback_hit 0 L1D_writeback_Hit Ratio: -nan
Core_3_L1D_writeback_miss 0
Core_3_L1D_prefetch_requested 0
Core_3_L1D_prefetch_issued 0
Core_3_L1D_prefetch_useful 0 L1D_Useful Ratio: -nan
Core_3_L1D_prefetch_useless 0
Core_3_L1D_prefetch_late 0
Core_3_L1D_average_miss_latency 160.22503

Core_3_L1I_total_access 71642816
Core_3_L1I_total_hit 71637841 L1I_total_Hit Ratio: 0.99993
Core_3_L1I_total_miss 4975
Core_3_L1I_loads 71642816
Core_3_L1I_load_hit 71637841 L1I_load_Hit Ratio: 0.99993
Core_3_L1I_load_miss 4975
Core_3_L1I_RFOs 0
Core_3_L1I_RFO_hit 0 L1I_RFO_Hit Ratio: -nan
Core_3_L1I_RFO_miss 0
Core_3_L1I_prefetches 0
Core_3_L1I_prefetch_hit 0 L1I_prefetch_Hit Ratio: -nan
Core_3_L1I_prefetch_miss 0
Core_3_L1I_writebacks 0
Core_3_L1I_writeback_hit 0 L1I_writeback_Hit Ratio: -nan
Core_3_L1I_writeback_miss 0
Core_3_L1I_prefetch_requested 0
Core_3_L1I_prefetch_issued 0
Core_3_L1I_prefetch_useful 0 L1I_Useful Ratio: -nan
Core_3_L1I_prefetch_useless 0
Core_3_L1I_prefetch_late 0
Core_3_L1I_average_miss_latency 1177.87357

Core_3_L2C_total_access 56570265
Core_3_L2C_total_hit 51881097 L2C_total_Hit Ratio: 0.91711
Core_3_L2C_total_miss 4689168
Core_3_L2C_loads 18432229
Core_3_L2C_load_hit 15372580 L2C_load_Hit Ratio: 0.83401
Core_3_L2C_load_miss 3059649
Core_3_L2C_RFOs 931444
Core_3_L2C_RFO_hit 144349 L2C_RFO_Hit Ratio: 0.15497
Core_3_L2C_RFO_miss 787095
Core_3_L2C_prefetches 34292762
Core_3_L2C_prefetch_hit 33451364 L2C_prefetch_Hit Ratio: 0.97546
Core_3_L2C_prefetch_miss 841398
Core_3_L2C_writebacks 2913830
Core_3_L2C_writeback_hit 2912804 L2C_writeback_Hit Ratio: 0.99965
Core_3_L2C_writeback_miss 1026
Core_3_L2C_prefetch_requested 79019362
Core_3_L2C_prefetch_issued 70495462
Core_3_L2C_prefetch_useful 775346 L2C_Useful Ratio: 0.01100
Core_3_L2C_prefetch_useless 67701
Core_3_L2C_prefetch_late 738266
Core_3_L2C_average_miss_latency 661.52737

Core_3_LLC_total_access 17265985
Core_3_LLC_total_hit 12742031 LLC_total_Hit Ratio: 0.73798
Core_3_LLC_total_miss 4523954
Core_3_LLC_loads 2321540
Core_3_LLC_load_hit 1544732 LLC_load_Hit Ratio: 0.66539
Core_3_LLC_load_miss 776808
Core_3_LLC_RFOs 787095
Core_3_LLC_RFO_hit 358 LLC_RFO_Hit Ratio: 0.00045
Core_3_LLC_RFO_miss 786737
Core_3_LLC_prefetches 11417902
Core_3_LLC_prefetch_hit 8560026 LLC_prefetch_Hit Ratio: 0.74970
Core_3_LLC_prefetch_miss 2857876
Core_3_LLC_writebacks 2739448
Core_3_LLC_writeback_hit 2636915 LLC_writeback_Hit Ratio: 0.96257
Core_3_LLC_writeback_miss 102533
Core_3_LLC_prefetch_requested 0
Core_3_LLC_prefetch_issued 0
Core_3_LLC_prefetch_useful 4856472 LLC_Useful Ratio: inf
Core_3_LLC_prefetch_useless 6563398
Core_3_LLC_prefetch_late 779184
Core_3_LLC_average_miss_latency 5648.13415

Core_3_major_page_fault 0
Core_3_minor_page_fault 28665

 All Calls: 74072831
 Critical Calls: 74072831
------------------
Depth Distribution
------------------
depth 0: 0
depth 1: 59112567
depth 2: 53241971
depth 3: 47658119
depth 4: 39551518
depth 5: 28759915
depth 6: 16040641
depth 7: 11062765
depth 8: 9038331
depth 9: 7043291
depth 10: 5145610
depth 11: 3389427
depth 12: 1863195
depth 13: 781629
depth 14: 26057
depth 15: 25397
depth 16: 0
depth 17: 0
depth 18: 0
depth 19: 0
depth 20: 0
depth 21: 0
depth 22: 0
depth 23: 0
depth 24: 0
depth 25: 0
depth 26: 0
depth 27: 0
depth 28: 0
depth 29: 0
Total: 282740433
-----------------------------
-----------------------------
	Captured at Filter
-----------------------------
depth 0: 0
depth 1: 8217249
depth 2: 7382174
depth 3: 6542375
depth 4: 5114910
depth 5: 3015672
depth 6: 769264
depth 7: 148384
depth 8: 84987
depth 9: 59825
depth 10: 38158
depth 11: 23147
depth 12: 12115
depth 13: 4262
depth 14: 104
depth 15: 132
depth 16: 0
depth 17: 0
depth 18: 0
depth 19: 0
depth 20: 0
depth 21: 0
depth 22: 0
depth 23: 0
depth 24: 0
depth 25: 0
depth 26: 0
depth 27: 0
depth 28: 0
depth 29: 0
-----------------------------
-----------------------------
		Lost at Page
-----------------------------
depth 0: 0
depth 1: 3699536
depth 2: 5937300
depth 3: 8421461
depth 4: 10172108
depth 5: 10429567
depth 6: 5425570
depth 7: 1980475
depth 8: 1451893
depth 9: 1215005
depth 10: 996004
depth 11: 739347
depth 12: 469358
depth 13: 214027
depth 14: 7089
depth 15: 7698
depth 16: 0
depth 17: 0
depth 18: 0
depth 19: 0
depth 20: 0
depth 21: 0
depth 22: 0
depth 23: 0
depth 24: 0
depth 25: 0
depth 26: 0
depth 27: 0
depth 28: 0
depth 29: 0
-----------------------------
-----------------------------
	Lost due to PQ Size
-----------------------------
33749155
-----------------------------
ST read accesses: 70939401
ST write accesses: 2957101
PT read accesses: 2375456591
PT write accesses: 103010583
FILTER read accesses: 439551298
FILTER write accesses: 79345691
GHR read accesses: 335492936
GHR write accesses: 51098224
GHR counter read accesses: 2025667556
GHR counter write accesses: 136853285
ST tag read accesses: 29963435612
ST tag write accesses: 1659801706
 All Calls: 74072831
 Critical Calls: 74072831
------------------
Depth Distribution
------------------
depth 0: 0
depth 1: 59112567
depth 2: 53241971
depth 3: 47658119
depth 4: 39551518
depth 5: 28759915
depth 6: 16040641
depth 7: 11062765
depth 8: 9038331
depth 9: 7043291
depth 10: 5145610
depth 11: 3389427
depth 12: 1863195
depth 13: 781629
depth 14: 26057
depth 15: 25397
depth 16: 0
depth 17: 0
depth 18: 0
depth 19: 0
depth 20: 0
depth 21: 0
depth 22: 0
depth 23: 0
depth 24: 0
depth 25: 0
depth 26: 0
depth 27: 0
depth 28: 0
depth 29: 0
Total: 282740433
-----------------------------
-----------------------------
	Captured at Filter
-----------------------------
depth 0: 0
depth 1: 8217249
depth 2: 7382174
depth 3: 6542375
depth 4: 5114910
depth 5: 3015672
depth 6: 769264
depth 7: 148384
depth 8: 84987
depth 9: 59825
depth 10: 38158
depth 11: 23147
depth 12: 12115
depth 13: 4262
depth 14: 104
depth 15: 132
depth 16: 0
depth 17: 0
depth 18: 0
depth 19: 0
depth 20: 0
depth 21: 0
depth 22: 0
depth 23: 0
depth 24: 0
depth 25: 0
depth 26: 0
depth 27: 0
depth 28: 0
depth 29: 0
-----------------------------
-----------------------------
		Lost at Page
-----------------------------
depth 0: 0
depth 1: 3699536
depth 2: 5937300
depth 3: 8421461
depth 4: 10172108
depth 5: 10429567
depth 6: 5425570
depth 7: 1980475
depth 8: 1451893
depth 9: 1215005
depth 10: 996004
depth 11: 739347
depth 12: 469358
depth 13: 214027
depth 14: 7089
depth 15: 7698
depth 16: 0
depth 17: 0
depth 18: 0
depth 19: 0
depth 20: 0
depth 21: 0
depth 22: 0
depth 23: 0
depth 24: 0
depth 25: 0
depth 26: 0
depth 27: 0
depth 28: 0
depth 29: 0
-----------------------------
-----------------------------
	Lost due to PQ Size
-----------------------------
33749155
-----------------------------
ST read accesses: 70939401
ST write accesses: 2957101
PT read accesses: 2375456591
PT write accesses: 103010583
FILTER read accesses: 439551298
FILTER write accesses: 79345691
GHR read accesses: 335492936
GHR write accesses: 51098224
GHR counter read accesses: 2025667556
GHR counter write accesses: 136853285
ST tag read accesses: 29963435612
ST tag write accesses: 1659801706
 All Calls: 74072831
 Critical Calls: 74072831
------------------
Depth Distribution
------------------
depth 0: 0
depth 1: 59112567
depth 2: 53241971
depth 3: 47658119
depth 4: 39551518
depth 5: 28759915
depth 6: 16040641
depth 7: 11062765
depth 8: 9038331
depth 9: 7043291
depth 10: 5145610
depth 11: 3389427
depth 12: 1863195
depth 13: 781629
depth 14: 26057
depth 15: 25397
depth 16: 0
depth 17: 0
depth 18: 0
depth 19: 0
depth 20: 0
depth 21: 0
depth 22: 0
depth 23: 0
depth 24: 0
depth 25: 0
depth 26: 0
depth 27: 0
depth 28: 0
depth 29: 0
Total: 282740433
-----------------------------
-----------------------------
	Captured at Filter
-----------------------------
depth 0: 0
depth 1: 8217249
depth 2: 7382174
depth 3: 6542375
depth 4: 5114910
depth 5: 3015672
depth 6: 769264
depth 7: 148384
depth 8: 84987
depth 9: 59825
depth 10: 38158
depth 11: 23147
depth 12: 12115
depth 13: 4262
depth 14: 104
depth 15: 132
depth 16: 0
depth 17: 0
depth 18: 0
depth 19: 0
depth 20: 0
depth 21: 0
depth 22: 0
depth 23: 0
depth 24: 0
depth 25: 0
depth 26: 0
depth 27: 0
depth 28: 0
depth 29: 0
-----------------------------
-----------------------------
		Lost at Page
-----------------------------
depth 0: 0
depth 1: 3699536
depth 2: 5937300
depth 3: 8421461
depth 4: 10172108
depth 5: 10429567
depth 6: 5425570
depth 7: 1980475
depth 8: 1451893
depth 9: 1215005
depth 10: 996004
depth 11: 739347
depth 12: 469358
depth 13: 214027
depth 14: 7089
depth 15: 7698
depth 16: 0
depth 17: 0
depth 18: 0
depth 19: 0
depth 20: 0
depth 21: 0
depth 22: 0
depth 23: 0
depth 24: 0
depth 25: 0
depth 26: 0
depth 27: 0
depth 28: 0
depth 29: 0
-----------------------------
-----------------------------
	Lost due to PQ Size
-----------------------------
33749155
-----------------------------
ST read accesses: 70939401
ST write accesses: 2957101
PT read accesses: 2375456591
PT write accesses: 103010583
FILTER read accesses: 439551298
FILTER write accesses: 79345691
GHR read accesses: 335492936
GHR write accesses: 51098224
GHR counter read accesses: 2025667556
GHR counter write accesses: 136853285
ST tag read accesses: 29963435612
ST tag write accesses: 1659801706
 All Calls: 74072831
 Critical Calls: 74072831
------------------
Depth Distribution
------------------
depth 0: 0
depth 1: 59112567
depth 2: 53241971
depth 3: 47658119
depth 4: 39551518
depth 5: 28759915
depth 6: 16040641
depth 7: 11062765
depth 8: 9038331
depth 9: 7043291
depth 10: 5145610
depth 11: 3389427
depth 12: 1863195
depth 13: 781629
depth 14: 26057
depth 15: 25397
depth 16: 0
depth 17: 0
depth 18: 0
depth 19: 0
depth 20: 0
depth 21: 0
depth 22: 0
depth 23: 0
depth 24: 0
depth 25: 0
depth 26: 0
depth 27: 0
depth 28: 0
depth 29: 0
Total: 282740433
-----------------------------
-----------------------------
	Captured at Filter
-----------------------------
depth 0: 0
depth 1: 8217249
depth 2: 7382174
depth 3: 6542375
depth 4: 5114910
depth 5: 3015672
depth 6: 769264
depth 7: 148384
depth 8: 84987
depth 9: 59825
depth 10: 38158
depth 11: 23147
depth 12: 12115
depth 13: 4262
depth 14: 104
depth 15: 132
depth 16: 0
depth 17: 0
depth 18: 0
depth 19: 0
depth 20: 0
depth 21: 0
depth 22: 0
depth 23: 0
depth 24: 0
depth 25: 0
depth 26: 0
depth 27: 0
depth 28: 0
depth 29: 0
-----------------------------
-----------------------------
		Lost at Page
-----------------------------
depth 0: 0
depth 1: 3699536
depth 2: 5937300
depth 3: 8421461
depth 4: 10172108
depth 5: 10429567
depth 6: 5425570
depth 7: 1980475
depth 8: 1451893
depth 9: 1215005
depth 10: 996004
depth 11: 739347
depth 12: 469358
depth 13: 214027
depth 14: 7089
depth 15: 7698
depth 16: 0
depth 17: 0
depth 18: 0
depth 19: 0
depth 20: 0
depth 21: 0
depth 22: 0
depth 23: 0
depth 24: 0
depth 25: 0
depth 26: 0
depth 27: 0
depth 28: 0
depth 29: 0
-----------------------------
-----------------------------
	Lost due to PQ Size
-----------------------------
33749155
-----------------------------
ST read accesses: 70939401
ST write accesses: 2957101
PT read accesses: 2375456591
PT write accesses: 103010583
FILTER read accesses: 439551298
FILTER write accesses: 79345691
GHR read accesses: 335492936
GHR write accesses: 51098224
GHR counter read accesses: 2025667556
GHR counter write accesses: 136853285
ST tag read accesses: 29963435612
ST tag write accesses: 1659801706
Channel_0_RQ_row_buffer_hit 6753478
Channel_0_RQ_row_buffer_miss 10964339
Channel_0_WQ_row_buffer_hit 3214009
Channel_0_WQ_row_buffer_miss 6686197
Channel_0_WQ_full 3268
Channel_0_dbus_congested 17649829

avg_congested_cycle 11

EzSearch AVG IPC :0.53794: L2-Pf-HR :0.97568 : L2-HR :0.91779 Uful:0.01092
EzSearch AVG IPC :0.53791: L2-Pf-HR :0.97563 : L2-HR :0.91780 Uful:0.01097
EzSearch AVG IPC :0.53755: L2-Pf-HR :0.97548 : L2-HR :0.91757 Uful:0.01100
EzSearch AVG IPC :0.53751: L2-Pf-HR :0.97546 : L2-HR :0.91711 Uful:0.01100
     > Finished combination: TraceType=770-tot Sim:491000000 Prefetcher=L2spp_berti_src L1=no
