TRACE: [331000000][Pythia-70M]_[h8][s1024][d64] Warmup: 2000000 NumTraces: 331000000
L1:no:L2:no
*************************************************
   ChampSim Multicore Out-of-Order Simulator
   Last compiled: Oct 29 2024 17:03:34
*************************************************

trace_0 770-tot_memTraces_v3_rexz/memTraces[331000000][Pythia-70M]_[h8][s1024][d64].champsim.9.xz
trace_1 770-tot_memTraces_v3_rexz/memTraces[331000000][Pythia-70M]_[h8][s1024][d64].champsim.9.xz
trace_2 770-tot_memTraces_v3_rexz/memTraces[331000000][Pythia-70M]_[h8][s1024][d64].champsim.9.xz
trace_3 770-tot_memTraces_v3_rexz/memTraces[331000000][Pythia-70M]_[h8][s1024][d64].champsim.9.xz
MAIN.cc ln 751 stats print skipped
CPU  3 inst:    1000000 cyc:     500002 now IPC :1.99999: AVG IPC :1.99999: L2-Pf-HR :-nan: L2-HR :0.63934: (Sim:0h0m45s) 
CPU  0 inst:    1000000 cyc:     500031 now IPC :1.99988: AVG IPC :1.99988: L2-Pf-HR :-nan: L2-HR :0.63891: (Sim:0h0m45s) 
CPU  1 inst:    1000000 cyc:     500085 now IPC :1.99966: AVG IPC :1.99966: L2-Pf-HR :-nan: L2-HR :0.63766: (Sim:0h0m45s) 
CPU  2 inst:    1000000 cyc:     500097 now IPC :1.99961: AVG IPC :1.99961: L2-Pf-HR :-nan: L2-HR :0.63762: (Sim:0h0m45s) 
CPU  3 inst:    2000003 cyc:     984204 now IPC :2.06526: AVG IPC :2.03210: L2-Pf-HR :-nan: L2-HR :0.69594: (Sim:0h1m36s) 
CPU  0 inst:    2000003 cyc:     984237 now IPC :2.06524: AVG IPC :2.03203: L2-Pf-HR :-nan: L2-HR :0.69544: (Sim:0h1m36s) 
CPU  1 inst:    2000003 cyc:     984357 now IPC :2.06496: AVG IPC :2.03179: L2-Pf-HR :-nan: L2-HR :0.69446: (Sim:0h1m36s) 
CPU  2 inst:    2000003 cyc:     984366 now IPC :2.06497: AVG IPC :2.03177: L2-Pf-HR :-nan: L2-HR :0.69424: (Sim:0h1m36s) 

Warmup complete CPU  0 instructions:    2000283 cycles:     984366 (Simulation time: 0 hr 1 min 36 sec) 
Warmup complete CPU  1 instructions:    2000034 cycles:     984366 (Simulation time: 0 hr 1 min 36 sec) 
Warmup complete CPU  2 instructions:    2000003 cycles:     984366 (Simulation time: 0 hr 1 min 36 sec) 
Warmup complete CPU  3 instructions:    2000349 cycles:     984365 (Simulation time: 0 hr 1 min 36 sec) 

CPU  3 inst:    3000004 cyc:    1882822 now IPC :1.11282: AVG IPC :1.11264: L2-Pf-HR :-nan: L2-HR :0.74422: (Sim:0h2m26s) 
CPU  2 inst:    3000004 cyc:    1884950 now IPC :1.11039: AVG IPC :1.11039: L2-Pf-HR :-nan: L2-HR :0.74194: (Sim:0h2m26s) 
CPU  1 inst:    3000004 cyc:    1885862 now IPC :1.10926: AVG IPC :1.10923: L2-Pf-HR :-nan: L2-HR :0.74193: (Sim:0h2m26s) 
CPU  0 inst:    3000004 cyc:    1892854 now IPC :1.10057: AVG IPC :1.10042: L2-Pf-HR :-nan: L2-HR :0.74354: (Sim:0h2m26s) 
CPU  3 inst:    4000001 cyc:    2802735 now IPC :1.08706: AVG IPC :1.09969: L2-Pf-HR :-nan: L2-HR :0.74287: (Sim:0h3m12s) 
CPU  2 inst:    4000001 cyc:    2806081 now IPC :1.08562: AVG IPC :1.09787: L2-Pf-HR :-nan: L2-HR :0.74106: (Sim:0h3m13s) 
CPU  1 inst:    4000001 cyc:    2806183 now IPC :1.08657: AVG IPC :1.09779: L2-Pf-HR :-nan: L2-HR :0.74096: (Sim:0h3m13s) 
CPU  0 inst:    4000001 cyc:    2826031 now IPC :1.07160: AVG IPC :1.08582: L2-Pf-HR :-nan: L2-HR :0.74282: (Sim:0h3m14s) 
CPU  3 inst:    5000000 cyc:    3712314 now IPC :1.09941: AVG IPC :1.09960: L2-Pf-HR :-nan: L2-HR :0.74215: (Sim:0h3m59s) 
CPU  2 inst:    5000000 cyc:    3726700 now IPC :1.08622: AVG IPC :1.09396: L2-Pf-HR :-nan: L2-HR :0.74064: (Sim:0h3m59s) 
CPU  1 inst:    5000000 cyc:    3726802 now IPC :1.08622: AVG IPC :1.09391: L2-Pf-HR :-nan: L2-HR :0.74041: (Sim:0h3m59s) 
CPU  0 inst:    5000000 cyc:    3746742 now IPC :1.08612: AVG IPC :1.08592: L2-Pf-HR :-nan: L2-HR :0.74295: (Sim:0h4m1s) 
CPU  3 inst:    6000000 cyc:    4596841 now IPC :1.13055: AVG IPC :1.10718: L2-Pf-HR :-nan: L2-HR :0.74191: (Sim:0h4m45s) 
CPU  2 inst:    6000000 cyc:    4637810 now IPC :1.09756: AVG IPC :1.09486: L2-Pf-HR :-nan: L2-HR :0.74038: (Sim:0h4m47s) 
CPU  1 inst:    6000000 cyc:    4638822 now IPC :1.09647: AVG IPC :1.09454: L2-Pf-HR :-nan: L2-HR :0.73941: (Sim:0h4m47s) 
CPU  0 inst:    6000000 cyc:    4663622 now IPC :1.09066: AVG IPC :1.08710: L2-Pf-HR :-nan: L2-HR :0.74251: (Sim:0h4m49s) 
CPU  3 inst:    7000001 cyc:    5617308 now IPC :0.97994: AVG IPC :1.07915: L2-Pf-HR :-nan: L2-HR :0.74104: (Sim:0h5m33s) 
CPU  2 inst:    7000001 cyc:    5847092 now IPC :0.82694: AVG IPC :1.02823: L2-Pf-HR :-nan: L2-HR :0.73922: (Sim:0h5m45s) 
CPU  1 inst:    7000001 cyc:    5863770 now IPC :0.81636: AVG IPC :1.02471: L2-Pf-HR :-nan: L2-HR :0.73767: (Sim:0h5m46s) 
CPU  0 inst:    7000001 cyc:    5865671 now IPC :0.83191: AVG IPC :1.02426: L2-Pf-HR :-nan: L2-HR :0.74029: (Sim:0h5m46s) 
CPU  3 inst:    8000001 cyc:    6453096 now IPC :1.19648: AVG IPC :1.09708: L2-Pf-HR :-nan: L2-HR :0.74297: (Sim:0h6m14s) 
CPU  2 inst:    8000001 cyc:    6953536 now IPC :0.90380: AVG IPC :1.00516: L2-Pf-HR :-nan: L2-HR :0.74099: (Sim:0h6m39s) 
CPU  1 inst:    8000001 cyc:    7073066 now IPC :0.82693: AVG IPC :0.98543: L2-Pf-HR :-nan: L2-HR :0.73912: (Sim:0h6m44s) 
CPU  0 inst:    8000001 cyc:    7075357 now IPC :0.82666: AVG IPC :0.98502: L2-Pf-HR :-nan: L2-HR :0.74113: (Sim:0h6m45s) 
CPU  3 inst:    9000001 cyc:    7476816 now IPC :0.97683: AVG IPC :1.07812: L2-Pf-HR :-nan: L2-HR :0.74456: (Sim:0h7m3s) 
CPU  2 inst:    9000001 cyc:    7821584 now IPC :1.15201: AVG IPC :1.02381: L2-Pf-HR :-nan: L2-HR :0.74224: (Sim:0h7m18s) 
CPU  1 inst:    9000001 cyc:    8205148 now IPC :0.88333: AVG IPC :0.96942: L2-Pf-HR :-nan: L2-HR :0.74015: (Sim:0h7m35s) 
CPU  0 inst:    9000001 cyc:    8218067 now IPC :0.87511: AVG IPC :0.96765: L2-Pf-HR :-nan: L2-HR :0.74184: (Sim:0h7m36s) 
CPU  3 inst:   10000001 cyc:    8577234 now IPC :0.90875: AVG IPC :1.05357: L2-Pf-HR :-nan: L2-HR :0.74554: (Sim:0h7m52s) 
CPU  2 inst:   10000001 cyc:    8676413 now IPC :1.16982: AVG IPC :1.04004: L2-Pf-HR :-nan: L2-HR :0.74334: (Sim:0h7m57s) 
CPU  1 inst:   10000001 cyc:    9376070 now IPC :0.85403: AVG IPC :0.95332: L2-Pf-HR :-nan: L2-HR :0.74084: (Sim:0h8m25s) 
CPU  0 inst:   10000001 cyc:    9432501 now IPC :0.82343: AVG IPC :0.94692: L2-Pf-HR :-nan: L2-HR :0.74259: (Sim:0h8m27s) 
CPU  3 inst:   11000002 cyc:    9790213 now IPC :0.82442: AVG IPC :1.02201: L2-Pf-HR :-nan: L2-HR :0.74646: (Sim:0h8m42s) 
CPU  2 inst:   11000002 cyc:    9808280 now IPC :0.88350: AVG IPC :1.01996: L2-Pf-HR :-nan: L2-HR :0.74404: (Sim:0h8m43s) 
CPU  1 inst:   11000002 cyc:   10309949 now IPC :1.07080: AVG IPC :0.96508: L2-Pf-HR :-nan: L2-HR :0.74115: (Sim:0h9m6s) 
CPU  0 inst:   11000002 cyc:   10537782 now IPC :0.90475: AVG IPC :0.94204: L2-Pf-HR :-nan: L2-HR :0.74279: (Sim:0h9m17s) 
CPU  3 inst:   12000002 cyc:   10824147 now IPC :0.96718: AVG IPC :1.01625: L2-Pf-HR :-nan: L2-HR :0.74714: (Sim:0h9m31s) 
CPU  2 inst:   12000002 cyc:   10843849 now IPC :0.96565: AVG IPC :1.01425: L2-Pf-HR :-nan: L2-HR :0.74472: (Sim:0h9m32s) 
CPU  1 inst:   12000002 cyc:   11211569 now IPC :1.10911: AVG IPC :0.97778: L2-Pf-HR :-nan: L2-HR :0.74160: (Sim:0h9m47s) 
CPU  0 inst:   12000002 cyc:   11701897 now IPC :0.85902: AVG IPC :0.93302: L2-Pf-HR :-nan: L2-HR :0.74292: (Sim:0h10m6s) 
CPU  3 inst:   13000000 cyc:   12186438 now IPC :0.73406: AVG IPC :0.98193: L2-Pf-HR :-nan: L2-HR :0.74949: (Sim:0h10m25s) 
CPU  2 inst:   13000000 cyc:   12187126 now IPC :0.74445: AVG IPC :0.98190: L2-Pf-HR :-nan: L2-HR :0.74711: (Sim:0h10m25s) 
CPU  1 inst:   13000000 cyc:   12345738 now IPC :0.88170: AVG IPC :0.96819: L2-Pf-HR :-nan: L2-HR :0.74418: (Sim:0h10m33s) 
CPU  0 inst:   13000005 cyc:   12901398 now IPC :0.83368: AVG IPC :0.92303: L2-Pf-HR :-nan: L2-HR :0.74546: (Sim:0h10m57s) 
CPU  3 inst:   14000003 cyc:   13249383 now IPC :0.94079: AVG IPC :0.97836: L2-Pf-HR :-nan: L2-HR :0.75262: (Sim:0h11m12s) 
CPU  2 inst:   14000003 cyc:   13285420 now IPC :0.91051: AVG IPC :0.97553: L2-Pf-HR :-nan: L2-HR :0.75027: (Sim:0h11m14s) 
CPU  1 inst:   14000001 cyc:   13399804 now IPC :0.94871: AVG IPC :0.96654: L2-Pf-HR :-nan: L2-HR :0.74765: (Sim:0h11m19s) 
CPU  0 inst:   14000002 cyc:   13979427 now IPC :0.92762: AVG IPC :0.92341: L2-Pf-HR :-nan: L2-HR :0.74918: (Sim:0h11m45s) 
CPU  3 inst:   15000005 cyc:   14289116 now IPC :0.96179: AVG IPC :0.97707: L2-Pf-HR :-nan: L2-HR :0.75583: (Sim:0h11m58s) 
CPU  2 inst:   15000005 cyc:   14374950 now IPC :0.91783: AVG IPC :0.97083: L2-Pf-HR :-nan: L2-HR :0.75333: (Sim:0h12m2s) 
CPU  1 inst:   15000005 cyc:   14482691 now IPC :0.92346: AVG IPC :0.96308: L2-Pf-HR :-nan: L2-HR :0.75130: (Sim:0h12m7s) 
CPU  0 inst:   15000005 cyc:   15064835 now IPC :0.92132: AVG IPC :0.92324: L2-Pf-HR :-nan: L2-HR :0.75307: (Sim:0h12m33s) 
CPU  3 inst:   16000000 cyc:   15278394 now IPC :1.01083: AVG IPC :0.97941: L2-Pf-HR :-nan: L2-HR :0.75851: (Sim:0h12m43s) 
CPU  2 inst:   16000000 cyc:   15377714 now IPC :0.99724: AVG IPC :0.97267: L2-Pf-HR :-nan: L2-HR :0.75556: (Sim:0h12m47s) 
CPU  1 inst:   16000000 cyc:   15583319 now IPC :0.90857: AVG IPC :0.95897: L2-Pf-HR :-nan: L2-HR :0.75403: (Sim:0h12m56s) 
CPU  0 inst:   16000000 cyc:   16377767 now IPC :0.76165: AVG IPC :0.90946: L2-Pf-HR :-nan: L2-HR :0.75598: (Sim:0h13m23s) 
CPU  3 inst:   17000002 cyc:   16723705 now IPC :0.69189: AVG IPC :0.95300: L2-Pf-HR :-nan: L2-HR :0.75476: (Sim:0h13m36s) 
CPU  2 inst:   17000002 cyc:   16874024 now IPC :0.66831: AVG IPC :0.94401: L2-Pf-HR :-nan: L2-HR :0.75210: (Sim:0h13m42s) 
CPU  1 inst:   17000002 cyc:   17044813 now IPC :0.68423: AVG IPC :0.93397: L2-Pf-HR :-nan: L2-HR :0.75096: (Sim:0h13m48s) 
CPU  3 inst:   18000000 cyc:   17953769 now IPC :0.81296: AVG IPC :0.94285: L2-Pf-HR :-nan: L2-HR :0.75351: (Sim:0h14m23s) 
CPU  0 inst:   17000002 cyc:   17962936 now IPC :0.63085: AVG IPC :0.88345: L2-Pf-HR :-nan: L2-HR :0.75266: (Sim:0h14m23s) 
CPU  2 inst:   18000000 cyc:   18347321 now IPC :0.67875: AVG IPC :0.92150: L2-Pf-HR :-nan: L2-HR :0.75091: (Sim:0h14m37s) 
CPU  1 inst:   18000000 cyc:   18457120 now IPC :0.70806: AVG IPC :0.91571: L2-Pf-HR :-nan: L2-HR :0.74975: (Sim:0h14m42s) 
CPU  3 inst:   19000001 cyc:   19125065 now IPC :0.85376: AVG IPC :0.93710: L2-Pf-HR :-nan: L2-HR :0.75238: (Sim:0h15m4s) 
CPU  0 inst:   18000000 cyc:   19517343 now IPC :0.64333: AVG IPC :0.86331: L2-Pf-HR :-nan: L2-HR :0.75135: (Sim:0h15m13s) 
CPU  2 inst:   19000001 cyc:   19870748 now IPC :0.65642: AVG IPC :0.90012: L2-Pf-HR :-nan: L2-HR :0.74987: (Sim:0h15m21s) 
CPU  1 inst:   19000001 cyc:   20043806 now IPC :0.63025: AVG IPC :0.89194: L2-Pf-HR :-nan: L2-HR :0.74877: (Sim:0h15m25s) 
CPU  3 inst:   20000005 cyc:   20499220 now IPC :0.72772: AVG IPC :0.92236: L2-Pf-HR :-nan: L2-HR :0.75148: (Sim:0h15m36s) 
CPU  0 inst:   19000001 cyc:   20973498 now IPC :0.68674: AVG IPC :0.85045: L2-Pf-HR :-nan: L2-HR :0.75022: (Sim:0h15m47s) 
CPU  2 inst:   20000002 cyc:   21106437 now IPC :0.80927: AVG IPC :0.89454: L2-Pf-HR :-nan: L2-HR :0.74907: (Sim:0h15m51s) 
CPU  1 inst:   20000002 cyc:   21517014 now IPC :0.67879: AVG IPC :0.87665: L2-Pf-HR :-nan: L2-HR :0.74795: (Sim:0h16m2s) 
CPU  3 inst:   21000003 cyc:   21890032 now IPC :0.71900: AVG IPC :0.90883: L2-Pf-HR :-nan: L2-HR :0.75055: (Sim:0h16m17s) 
CPU  0 inst:   20000002 cyc:   22215454 now IPC :0.80518: AVG IPC :0.84780: L2-Pf-HR :-nan: L2-HR :0.74928: (Sim:0h16m30s) 
CPU  2 inst:   21000003 cyc:   22378612 now IPC :0.78606: AVG IPC :0.88809: L2-Pf-HR :-nan: L2-HR :0.74819: (Sim:0h16m36s) 
CPU  1 inst:   21000003 cyc:   22898572 now IPC :0.72382: AVG IPC :0.86702: L2-Pf-HR :-nan: L2-HR :0.74702: (Sim:0h16m57s) 
CPU  3 inst:   22000000 cyc:   23232868 now IPC :0.74469: AVG IPC :0.89892: L2-Pf-HR :-nan: L2-HR :0.74974: (Sim:0h17m11s) 
CPU  0 inst:   21000003 cyc:   23466248 now IPC :0.79949: AVG IPC :0.84511: L2-Pf-HR :-nan: L2-HR :0.74827: (Sim:0h17m20s) 
CPU  2 inst:   22000000 cyc:   23648404 now IPC :0.78753: AVG IPC :0.88246: L2-Pf-HR :-nan: L2-HR :0.74738: (Sim:0h17m27s) 
CPU  1 inst:   22000000 cyc:   24200047 now IPC :0.76836: AVG IPC :0.86149: L2-Pf-HR :-nan: L2-HR :0.74620: (Sim:0h17m48s) 
CPU  3 inst:   23000005 cyc:   24648441 now IPC :0.70643: AVG IPC :0.88741: L2-Pf-HR :-nan: L2-HR :0.74860: (Sim:0h18m6s) 
CPU  0 inst:   22000000 cyc:   24812180 now IPC :0.74298: AVG IPC :0.83934: L2-Pf-HR :-nan: L2-HR :0.74745: (Sim:0h18m12s) 
CPU  2 inst:   23000005 cyc:   25071341 now IPC :0.70278: AVG IPC :0.87184: L2-Pf-HR :-nan: L2-HR :0.74640: (Sim:0h18m22s) 
CPU  1 inst:   23000005 cyc:   25569057 now IPC :0.73046: AVG IPC :0.85419: L2-Pf-HR :-nan: L2-HR :0.74526: (Sim:0h18m42s) 
CPU  3 inst:   24000005 cyc:   25861663 now IPC :0.82425: AVG IPC :0.88433: L2-Pf-HR :-nan: L2-HR :0.74837: (Sim:0h18m55s) 
CPU  0 inst:   23000005 cyc:   26094415 now IPC :0.77989: AVG IPC :0.83631: L2-Pf-HR :-nan: L2-HR :0.74645: (Sim:0h19m5s) 
CPU  2 inst:   24000005 cyc:   26146231 now IPC :0.93033: AVG IPC :0.87434: L2-Pf-HR :-nan: L2-HR :0.74632: (Sim:0h19m8s) 
CPU  1 inst:   24000005 cyc:   26682937 now IPC :0.89776: AVG IPC :0.85608: L2-Pf-HR :-nan: L2-HR :0.74522: (Sim:0h19m31s) 
CPU  3 inst:   25000004 cyc:   26970434 now IPC :0.90190: AVG IPC :0.88508: L2-Pf-HR :-nan: L2-HR :0.74811: (Sim:0h19m44s) 
CPU  0 inst:   24000005 cyc:   27084343 now IPC :1.01017: AVG IPC :0.84290: L2-Pf-HR :-nan: L2-HR :0.74632: (Sim:0h19m50s) 
CPU  2 inst:   25000002 cyc:   27171863 now IPC :0.97501: AVG IPC :0.87828: L2-Pf-HR :-nan: L2-HR :0.74622: (Sim:0h19m53s) 
CPU  1 inst:   25000001 cyc:   27786437 now IPC :0.90620: AVG IPC :0.85814: L2-Pf-HR :-nan: L2-HR :0.74516: (Sim:0h20m21s) 
CPU  3 inst:   26000005 cyc:   28043781 now IPC :0.93167: AVG IPC :0.88692: L2-Pf-HR :-nan: L2-HR :0.74791: (Sim:0h20m33s) 
CPU  0 inst:   25000001 cyc:   28094072 now IPC :0.99036: AVG IPC :0.84839: L2-Pf-HR :-nan: L2-HR :0.74620: (Sim:0h20m35s) 
CPU  2 inst:   26000005 cyc:   28216318 now IPC :0.95744: AVG IPC :0.88132: L2-Pf-HR :-nan: L2-HR :0.74614: (Sim:0h20m41s) 
CPU  1 inst:   26000005 cyc:   28883771 now IPC :0.91130: AVG IPC :0.86023: L2-Pf-HR :-nan: L2-HR :0.74514: (Sim:0h21m11s) 
CPU  0 inst:   26000005 cyc:   29105678 now IPC :0.98853: AVG IPC :0.85344: L2-Pf-HR :-nan: L2-HR :0.74612: (Sim:0h21m21s) 
CPU  3 inst:   27000003 cyc:   29119932 now IPC :0.92924: AVG IPC :0.88854: L2-Pf-HR :-nan: L2-HR :0.74771: (Sim:0h21m21s) 
CPU  2 inst:   27000003 cyc:   29300515 now IPC :0.92234: AVG IPC :0.88289: L2-Pf-HR :-nan: L2-HR :0.74602: (Sim:0h21m29s) 
CPU  1 inst:   27000003 cyc:   29975176 now IPC :0.91625: AVG IPC :0.86234: L2-Pf-HR :-nan: L2-HR :0.74502: (Sim:0h22m4s) 
CPU  0 inst:   27000003 cyc:   30125301 now IPC :0.98075: AVG IPC :0.85789: L2-Pf-HR :-nan: L2-HR :0.74597: (Sim:0h22m12s) 
CPU  3 inst:   28000003 cyc:   30140109 now IPC :0.98022: AVG IPC :0.89175: L2-Pf-HR :-nan: L2-HR :0.74755: (Sim:0h22m13s) 
CPU  2 inst:   28000003 cyc:   30375828 now IPC :0.92996: AVG IPC :0.88461: L2-Pf-HR :-nan: L2-HR :0.74593: (Sim:0h22m25s) 
CPU  1 inst:   28000003 cyc:   31064114 now IPC :0.91833: AVG IPC :0.86437: L2-Pf-HR :-nan: L2-HR :0.74494: (Sim:0h22m57s) 
CPU  0 inst:   28000003 cyc:   31203837 now IPC :0.92718: AVG IPC :0.86036: L2-Pf-HR :-nan: L2-HR :0.74589: (Sim:0h23m4s) 
CPU  3 inst:   29000002 cyc:   31314483 now IPC :0.85152: AVG IPC :0.89019: L2-Pf-HR :-nan: L2-HR :0.74809: (Sim:0h23m10s) 
CPU  2 inst:   29000002 cyc:   31594159 now IPC :0.82079: AVG IPC :0.88207: L2-Pf-HR :-nan: L2-HR :0.74652: (Sim:0h23m18s) 
CPU  1 inst:   29000002 cyc:   32202407 now IPC :0.87851: AVG IPC :0.86488: L2-Pf-HR :-nan: L2-HR :0.74554: (Sim:0h23m35s) 
CPU  0 inst:   29000002 cyc:   32361975 now IPC :0.86345: AVG IPC :0.86048: L2-Pf-HR :-nan: L2-HR :0.74650: (Sim:0h23m40s) 
CPU  3 inst:   30000004 cyc:   32401077 now IPC :0.92031: AVG IPC :0.89123: L2-Pf-HR :-nan: L2-HR :0.74964: (Sim:0h23m41s) 
CPU  2 inst:   30000004 cyc:   32625876 now IPC :0.96926: AVG IPC :0.88491: L2-Pf-HR :-nan: L2-HR :0.74812: (Sim:0h23m48s) 
CPU  1 inst:   30000004 cyc:   33210460 now IPC :0.99201: AVG IPC :0.86886: L2-Pf-HR :-nan: L2-HR :0.74715: (Sim:0h24m5s) 
CPU  0 inst:   30000002 cyc:   33418539 now IPC :0.94646: AVG IPC :0.86328: L2-Pf-HR :-nan: L2-HR :0.74815: (Sim:0h24m11s) 
CPU  3 inst:   31000002 cyc:   33445591 now IPC :0.95738: AVG IPC :0.89336: L2-Pf-HR :-nan: L2-HR :0.75123: (Sim:0h24m12s) 
CPU  2 inst:   31000005 cyc:   33634160 now IPC :0.99179: AVG IPC :0.88821: L2-Pf-HR :-nan: L2-HR :0.74972: (Sim:0h24m18s) 
CPU  1 inst:   31000002 cyc:   34227822 now IPC :0.98293: AVG IPC :0.87235: L2-Pf-HR :-nan: L2-HR :0.74876: (Sim:0h24m38s) 
CPU  0 inst:   31000000 cyc:   34478031 now IPC :0.94385: AVG IPC :0.86583: L2-Pf-HR :-nan: L2-HR :0.74993: (Sim:0h24m45s) 
CPU  3 inst:   32000002 cyc:   34526203 now IPC :0.92540: AVG IPC :0.89440: L2-Pf-HR :-nan: L2-HR :0.75265: (Sim:0h24m47s) 
CPU  2 inst:   32000001 cyc:   34665124 now IPC :0.96996: AVG IPC :0.89072: L2-Pf-HR :-nan: L2-HR :0.75089: (Sim:0h24m53s) 
CPU  1 inst:   32000002 cyc:   35413435 now IPC :0.84345: AVG IPC :0.87136: L2-Pf-HR :-nan: L2-HR :0.74994: (Sim:0h25m26s) 
CPU  0 inst:   32000002 cyc:   35622568 now IPC :0.87372: AVG IPC :0.86609: L2-Pf-HR :-nan: L2-HR :0.75117: (Sim:0h25m36s) 
CPU  3 inst:   33000000 cyc:   35903888 now IPC :0.72585: AVG IPC :0.88775: L2-Pf-HR :-nan: L2-HR :0.75157: (Sim:0h25m49s) 
CPU  2 inst:   33000001 cyc:   36088174 now IPC :0.70272: AVG IPC :0.88310: L2-Pf-HR :-nan: L2-HR :0.74982: (Sim:0h25m56s) 
CPU  1 inst:   33000001 cyc:   36779888 now IPC :0.73182: AVG IPC :0.86603: L2-Pf-HR :-nan: L2-HR :0.74889: (Sim:0h26m27s) 
CPU  0 inst:   33000001 cyc:   37110528 now IPC :0.67206: AVG IPC :0.85810: L2-Pf-HR :-nan: L2-HR :0.75018: (Sim:0h26m42s) 
CPU  3 inst:   34000003 cyc:   37299931 now IPC :0.71631: AVG IPC :0.88116: L2-Pf-HR :-nan: L2-HR :0.75092: (Sim:0h26m50s) 
CPU  2 inst:   34000003 cyc:   37412230 now IPC :0.75526: AVG IPC :0.87845: L2-Pf-HR :-nan: L2-HR :0.74926: (Sim:0h26m55s) 
CPU  1 inst:   34000003 cyc:   37929847 now IPC :0.86960: AVG IPC :0.86614: L2-Pf-HR :-nan: L2-HR :0.74837: (Sim:0h27m19s) 
CPU  0 inst:   34000003 cyc:   38447834 now IPC :0.74777: AVG IPC :0.85416: L2-Pf-HR :-nan: L2-HR :0.74960: (Sim:0h27m43s) 
CPU  3 inst:   35000001 cyc:   38539434 now IPC :0.80677: AVG IPC :0.87870: L2-Pf-HR :-nan: L2-HR :0.75032: (Sim:0h27m48s) 
CPU  2 inst:   35000000 cyc:   38727547 now IPC :0.76027: AVG IPC :0.87433: L2-Pf-HR :-nan: L2-HR :0.74876: (Sim:0h27m56s) 
CPU  1 inst:   35000005 cyc:   39081669 now IPC :0.86819: AVG IPC :0.86620: L2-Pf-HR :-nan: L2-HR :0.74794: (Sim:0h28m13s) 
CPU  0 inst:   35000001 cyc:   39720382 now IPC :0.78582: AVG IPC :0.85191: L2-Pf-HR :-nan: L2-HR :0.74906: (Sim:0h28m43s) 
CPU  3 inst:   36000004 cyc:   39722839 now IPC :0.84502: AVG IPC :0.87767: L2-Pf-HR :-nan: L2-HR :0.74977: (Sim:0h28m43s) 
CPU  2 inst:   36000004 cyc:   40023863 now IPC :0.77142: AVG IPC :0.87091: L2-Pf-HR :-nan: L2-HR :0.74835: (Sim:0h28m58s) 
CPU  1 inst:   36000004 cyc:   40266130 now IPC :0.84427: AVG IPC :0.86554: L2-Pf-HR :-nan: L2-HR :0.74751: (Sim:0h29m9s) 
CPU  3 inst:   37000000 cyc:   40899703 now IPC :0.84971: AVG IPC :0.87685: L2-Pf-HR :-nan: L2-HR :0.74917: (Sim:0h29m38s) 
CPU  0 inst:   36000004 cyc:   41037491 now IPC :0.75924: AVG IPC :0.84887: L2-Pf-HR :-nan: L2-HR :0.74859: (Sim:0h29m44s) 
CPU  2 inst:   37000000 cyc:   41445357 now IPC :0.70348: AVG IPC :0.86503: L2-Pf-HR :-nan: L2-HR :0.74786: (Sim:0h30m2s) 
CPU  1 inst:   37000000 cyc:   41570915 now IPC :0.76641: AVG IPC :0.86235: L2-Pf-HR :-nan: L2-HR :0.74701: (Sim:0h30m8s) 
CPU  3 inst:   38000001 cyc:   42102102 now IPC :0.83167: AVG IPC :0.87553: L2-Pf-HR :-nan: L2-HR :0.74863: (Sim:0h30m30s) 
CPU  0 inst:   37000000 cyc:   42622918 now IPC :0.63074: AVG IPC :0.84056: L2-Pf-HR :-nan: L2-HR :0.74804: (Sim:0h30m51s) 
CPU  2 inst:   38000001 cyc:   43146636 now IPC :0.58779: AVG IPC :0.85384: L2-Pf-HR :-nan: L2-HR :0.74740: (Sim:0h31m11s) 
CPU  1 inst:   38000001 cyc:   43228106 now IPC :0.60343: AVG IPC :0.85220: L2-Pf-HR :-nan: L2-HR :0.74655: (Sim:0h31m15s) 
CPU  3 inst:   39000003 cyc:   43612078 now IPC :0.66226: AVG IPC :0.86797: L2-Pf-HR :-nan: L2-HR :0.74794: (Sim:0h31m31s) 
CPU  0 inst:   38000001 cyc:   44133474 now IPC :0.66201: AVG IPC :0.83431: L2-Pf-HR :-nan: L2-HR :0.74756: (Sim:0h31m52s) 
CPU  2 inst:   39000003 cyc:   44834400 now IPC :0.59250: AVG IPC :0.84378: L2-Pf-HR :-nan: L2-HR :0.74691: (Sim:0h32m23s) 
CPU  1 inst:   39000003 cyc:   44869101 now IPC :0.60939: AVG IPC :0.84312: L2-Pf-HR :-nan: L2-HR :0.74604: (Sim:0h32m25s) 
CPU  3 inst:   40000002 cyc:   44903842 now IPC :0.77413: AVG IPC :0.86521: L2-Pf-HR :-nan: L2-HR :0.74783: (Sim:0h32m26s) 
CPU  0 inst:   39000003 cyc:   45399009 now IPC :0.79018: AVG IPC :0.83305: L2-Pf-HR :-nan: L2-HR :0.74694: (Sim:0h32m50s) 
CPU  1 inst:   40000002 cyc:   46028159 now IPC :0.86277: AVG IPC :0.84362: L2-Pf-HR :-nan: L2-HR :0.74620: (Sim:0h33m20s) 
CPU  2 inst:   40000002 cyc:   46032031 now IPC :0.83498: AVG IPC :0.84355: L2-Pf-HR :-nan: L2-HR :0.74709: (Sim:0h33m21s) 
CPU  3 inst:   41000003 cyc:   46036806 now IPC :0.88264: AVG IPC :0.86565: L2-Pf-HR :-nan: L2-HR :0.74769: (Sim:0h33m21s) 
CPU  0 inst:   40000002 cyc:   46503883 now IPC :0.90508: AVG IPC :0.83480: L2-Pf-HR :-nan: L2-HR :0.74688: (Sim:0h33m43s) 
CPU  3 inst:   42000002 cyc:   47159278 now IPC :0.89089: AVG IPC :0.86626: L2-Pf-HR :-nan: L2-HR :0.74758: (Sim:0h34m15s) 
CPU  1 inst:   41000003 cyc:   47200249 now IPC :0.85318: AVG IPC :0.84387: L2-Pf-HR :-nan: L2-HR :0.74634: (Sim:0h34m17s) 
CPU  2 inst:   41000003 cyc:   47211021 now IPC :0.84818: AVG IPC :0.84367: L2-Pf-HR :-nan: L2-HR :0.74727: (Sim:0h34m18s) 
CPU  0 inst:   41000003 cyc:   47574836 now IPC :0.93375: AVG IPC :0.83708: L2-Pf-HR :-nan: L2-HR :0.74678: (Sim:0h34m36s) 
CPU  3 inst:   43000000 cyc:   48221978 now IPC :0.94100: AVG IPC :0.86795: L2-Pf-HR :-nan: L2-HR :0.74746: (Sim:0h35m8s) 
CPU  1 inst:   42000005 cyc:   48358484 now IPC :0.86338: AVG IPC :0.84434: L2-Pf-HR :-nan: L2-HR :0.74650: (Sim:0h35m15s) 
CPU  2 inst:   42000005 cyc:   48383309 now IPC :0.85303: AVG IPC :0.84390: L2-Pf-HR :-nan: L2-HR :0.74740: (Sim:0h35m16s) 
CPU  0 inst:   42000000 cyc:   48643261 now IPC :0.93595: AVG IPC :0.83929: L2-Pf-HR :-nan: L2-HR :0.74672: (Sim:0h35m29s) 
CPU  3 inst:   44000001 cyc:   49288885 now IPC :0.93729: AVG IPC :0.86948: L2-Pf-HR :-nan: L2-HR :0.74736: (Sim:0h36m1s) 
CPU  1 inst:   43000005 cyc:   49468442 now IPC :0.90093: AVG IPC :0.84564: L2-Pf-HR :-nan: L2-HR :0.74664: (Sim:0h36m11s) 
CPU  2 inst:   43000004 cyc:   49493613 now IPC :0.90065: AVG IPC :0.84520: L2-Pf-HR :-nan: L2-HR :0.74758: (Sim:0h36m12s) 
CPU  0 inst:   43000000 cyc:   49663227 now IPC :0.98042: AVG IPC :0.84225: L2-Pf-HR :-nan: L2-HR :0.74662: (Sim:0h36m21s) 
CPU  3 inst:   45000005 cyc:   50437398 now IPC :0.87069: AVG IPC :0.86950: L2-Pf-HR :-nan: L2-HR :0.74750: (Sim:0h36m58s) 
CPU  1 inst:   44000001 cyc:   50588641 now IPC :0.89269: AVG IPC :0.84670: L2-Pf-HR :-nan: L2-HR :0.74671: (Sim:0h37m5s) 
CPU  2 inst:   44000001 cyc:   50717541 now IPC :0.81704: AVG IPC :0.84451: L2-Pf-HR :-nan: L2-HR :0.74771: (Sim:0h37m11s) 
CPU  0 inst:   44000001 cyc:   50801224 now IPC :0.87874: AVG IPC :0.84308: L2-Pf-HR :-nan: L2-HR :0.74655: (Sim:0h37m15s) 
CPU  3 inst:   46000005 cyc:   51592840 now IPC :0.86547: AVG IPC :0.86941: L2-Pf-HR :-nan: L2-HR :0.74844: (Sim:0h37m52s) 
CPU  1 inst:   45000005 cyc:   51740562 now IPC :0.86812: AVG IPC :0.84719: L2-Pf-HR :-nan: L2-HR :0.74696: (Sim:0h38m0s) 
CPU  2 inst:   45000005 cyc:   51890172 now IPC :0.85279: AVG IPC :0.84470: L2-Pf-HR :-nan: L2-HR :0.74798: (Sim:0h38m8s) 
CPU  0 inst:   45000005 cyc:   51958455 now IPC :0.86414: AVG IPC :0.84356: L2-Pf-HR :-nan: L2-HR :0.74666: (Sim:0h38m12s) 
CPU  3 inst:   47000002 cyc:   52549600 now IPC :1.04519: AVG IPC :0.87267: L2-Pf-HR :-nan: L2-HR :0.74929: (Sim:0h38m44s) 
CPU  1 inst:   46000005 cyc:   52706620 now IPC :1.03513: AVG IPC :0.85070: L2-Pf-HR :-nan: L2-HR :0.74799: (Sim:0h38m52s) 
CPU  2 inst:   46000005 cyc:   52899780 now IPC :0.99048: AVG IPC :0.84753: L2-Pf-HR :-nan: L2-HR :0.74902: (Sim:0h39m2s) 
CPU  0 inst:   46000005 cyc:   52971262 now IPC :0.98735: AVG IPC :0.84636: L2-Pf-HR :-nan: L2-HR :0.74763: (Sim:0h39m5s) 
CPU  3 inst:   48000002 cyc:   53576896 now IPC :0.97343: AVG IPC :0.87464: L2-Pf-HR :-nan: L2-HR :0.75021: (Sim:0h39m37s) 
CPU  1 inst:   47000002 cyc:   53709091 now IPC :0.99753: AVG IPC :0.85349: L2-Pf-HR :-nan: L2-HR :0.74893: (Sim:0h39m44s) 
CPU  2 inst:   47000002 cyc:   53900274 now IPC :0.99950: AVG IPC :0.85041: L2-Pf-HR :-nan: L2-HR :0.74989: (Sim:0h39m54s) 
CPU  0 inst:   47000002 cyc:   54017013 now IPC :0.95625: AVG IPC :0.84853: L2-Pf-HR :-nan: L2-HR :0.74858: (Sim:0h40m0s) 
CPU  1 inst:   48000002 cyc:   54759324 now IPC :0.95217: AVG IPC :0.85542: L2-Pf-HR :-nan: L2-HR :0.74988: (Sim:0h40m35s) 
CPU  3 inst:   49000002 cyc:   54875807 now IPC :0.76988: AVG IPC :0.87212: L2-Pf-HR :-nan: L2-HR :0.74970: (Sim:0h40m41s) 
CPU  2 inst:   48000002 cyc:   54984416 now IPC :0.92239: AVG IPC :0.85185: L2-Pf-HR :-nan: L2-HR :0.75071: (Sim:0h40m47s) 
CPU  0 inst:   48000002 cyc:   55131137 now IPC :0.89757: AVG IPC :0.84954: L2-Pf-HR :-nan: L2-HR :0.74942: (Sim:0h40m54s) 
CPU  1 inst:   49000002 cyc:   56052343 now IPC :0.77338: AVG IPC :0.85349: L2-Pf-HR :-nan: L2-HR :0.74951: (Sim:0h41m35s) 
CPU  3 inst:   50000003 cyc:   56102052 now IPC :0.81550: AVG IPC :0.87086: L2-Pf-HR :-nan: L2-HR :0.74932: (Sim:0h41m37s) 
CPU  2 inst:   49000002 cyc:   56289952 now IPC :0.76597: AVG IPC :0.84982: L2-Pf-HR :-nan: L2-HR :0.75003: (Sim:0h41m46s) 
CPU  0 inst:   49000002 cyc:   56439035 now IPC :0.76459: AVG IPC :0.84753: L2-Pf-HR :-nan: L2-HR :0.74903: (Sim:0h41m54s) 
CPU  1 inst:   50000003 cyc:   57164314 now IPC :0.89930: AVG IPC :0.85440: L2-Pf-HR :-nan: L2-HR :0.74916: (Sim:0h42m29s) 
CPU  3 inst:   51000004 cyc:   57228566 now IPC :0.88770: AVG IPC :0.87119: L2-Pf-HR :-nan: L2-HR :0.74896: (Sim:0h42m32s) 
CPU  2 inst:   50000003 cyc:   57381005 now IPC :0.91655: AVG IPC :0.85111: L2-Pf-HR :-nan: L2-HR :0.74966: (Sim:0h42m40s) 
CPU  0 inst:   50000003 cyc:   57534384 now IPC :0.91295: AVG IPC :0.84880: L2-Pf-HR :-nan: L2-HR :0.74881: (Sim:0h42m47s) 
CPU  1 inst:   51000004 cyc:   58276626 now IPC :0.89903: AVG IPC :0.85526: L2-Pf-HR :-nan: L2-HR :0.74883: (Sim:0h43m24s) 
CPU  3 inst:   52000005 cyc:   58341446 now IPC :0.89857: AVG IPC :0.87173: L2-Pf-HR :-nan: L2-HR :0.74864: (Sim:0h43m27s) 
CPU  2 inst:   51000004 cyc:   58516033 now IPC :0.88104: AVG IPC :0.85170: L2-Pf-HR :-nan: L2-HR :0.74932: (Sim:0h43m35s) 
CPU  0 inst:   51000004 cyc:   58651333 now IPC :0.89530: AVG IPC :0.84970: L2-Pf-HR :-nan: L2-HR :0.74854: (Sim:0h43m42s) 
CPU  1 inst:   52000004 cyc:   59422393 now IPC :0.87278: AVG IPC :0.85561: L2-Pf-HR :-nan: L2-HR :0.74852: (Sim:0h44m18s) 
CPU  3 inst:   53000003 cyc:   59502133 now IPC :0.86156: AVG IPC :0.87152: L2-Pf-HR :-nan: L2-HR :0.74828: (Sim:0h44m22s) 
CPU  2 inst:   52000001 cyc:   59670232 now IPC :0.86640: AVG IPC :0.85199: L2-Pf-HR :-nan: L2-HR :0.74902: (Sim:0h44m30s) 
CPU  0 inst:   52000004 cyc:   59822273 now IPC :0.85401: AVG IPC :0.84979: L2-Pf-HR :-nan: L2-HR :0.74825: (Sim:0h44m37s) 
CPU  1 inst:   53000003 cyc:   60575327 now IPC :0.86735: AVG IPC :0.85583: L2-Pf-HR :-nan: L2-HR :0.74816: (Sim:0h45m13s) 
CPU  3 inst:   54000004 cyc:   60645319 now IPC :0.87475: AVG IPC :0.87159: L2-Pf-HR :-nan: L2-HR :0.74795: (Sim:0h45m17s) 
CPU  2 inst:   53000003 cyc:   60861351 now IPC :0.83955: AVG IPC :0.85175: L2-Pf-HR :-nan: L2-HR :0.74867: (Sim:0h45m27s) 
CPU  0 inst:   53000003 cyc:   60986363 now IPC :0.85904: AVG IPC :0.84997: L2-Pf-HR :-nan: L2-HR :0.74787: (Sim:0h45m33s) 
CPU  1 inst:   54000004 cyc:   61798764 now IPC :0.81737: AVG IPC :0.85506: L2-Pf-HR :-nan: L2-HR :0.74783: (Sim:0h46m9s) 
CPU  3 inst:   55000002 cyc:   62021652 now IPC :0.72657: AVG IPC :0.86832: L2-Pf-HR :-nan: L2-HR :0.74746: (Sim:0h46m19s) 
CPU  2 inst:   54000004 cyc:   62084882 now IPC :0.81731: AVG IPC :0.85106: L2-Pf-HR :-nan: L2-HR :0.74834: (Sim:0h46m22s) 
CPU  0 inst:   54000004 cyc:   62202050 now IPC :0.82258: AVG IPC :0.84942: L2-Pf-HR :-nan: L2-HR :0.74754: (Sim:0h46m27s) 
CPU  1 inst:   55000002 cyc:   63242920 now IPC :0.69244: AVG IPC :0.85129: L2-Pf-HR :-nan: L2-HR :0.74736: (Sim:0h47m12s) 
CPU  3 inst:   56000001 cyc:   63304932 now IPC :0.77925: AVG IPC :0.86648: L2-Pf-HR :-nan: L2-HR :0.74740: (Sim:0h47m15s) 
CPU  2 inst:   55000002 cyc:   63470756 now IPC :0.72156: AVG IPC :0.84818: L2-Pf-HR :-nan: L2-HR :0.74786: (Sim:0h47m23s) 
CPU  0 inst:   55000002 cyc:   63591461 now IPC :0.71973: AVG IPC :0.84654: L2-Pf-HR :-nan: L2-HR :0.74713: (Sim:0h47m29s) 
CPU  1 inst:   56000001 cyc:   64240238 now IPC :1.00269: AVG IPC :0.85368: L2-Pf-HR :-nan: L2-HR :0.74731: (Sim:0h48m3s) 
CPU  3 inst:   57000001 cyc:   64335841 now IPC :0.97002: AVG IPC :0.86817: L2-Pf-HR :-nan: L2-HR :0.74730: (Sim:0h48m8s) 
CPU  2 inst:   56000001 cyc:   64471673 now IPC :0.99908: AVG IPC :0.85056: L2-Pf-HR :-nan: L2-HR :0.74780: (Sim:0h48m15s) 
CPU  0 inst:   56000001 cyc:   64600831 now IPC :0.99072: AVG IPC :0.84883: L2-Pf-HR :-nan: L2-HR :0.74728: (Sim:0h48m21s) 
CPU  1 inst:   57000001 cyc:   65252670 now IPC :0.98772: AVG IPC :0.85579: L2-Pf-HR :-nan: L2-HR :0.74723: (Sim:0h48m55s) 
CPU  3 inst:   58000001 cyc:   65355795 now IPC :0.98044: AVG IPC :0.86995: L2-Pf-HR :-nan: L2-HR :0.74723: (Sim:0h49m1s) 
CPU  2 inst:   57000001 cyc:   65443798 now IPC :1.02867: AVG IPC :0.85325: L2-Pf-HR :-nan: L2-HR :0.74775: (Sim:0h49m5s) 
CPU  0 inst:   57000001 cyc:   65579121 now IPC :1.02219: AVG IPC :0.85146: L2-Pf-HR :-nan: L2-HR :0.74738: (Sim:0h49m12s) 
CPU  1 inst:   58000001 cyc:   66241901 now IPC :1.01089: AVG IPC :0.85814: L2-Pf-HR :-nan: L2-HR :0.74718: (Sim:0h49m47s) 
CPU  3 inst:   59000001 cyc:   66384436 now IPC :0.97216: AVG IPC :0.87155: L2-Pf-HR :-nan: L2-HR :0.74716: (Sim:0h49m54s) 
CPU  2 inst:   58000001 cyc:   66402508 now IPC :1.04307: AVG IPC :0.85603: L2-Pf-HR :-nan: L2-HR :0.74774: (Sim:0h49m55s) 
CPU  0 inst:   58000001 cyc:   66538902 now IPC :1.04190: AVG IPC :0.85425: L2-Pf-HR :-nan: L2-HR :0.74751: (Sim:0h50m3s) 
CPU  1 inst:   59000005 cyc:   67275290 now IPC :0.96769: AVG IPC :0.85985: L2-Pf-HR :-nan: L2-HR :0.74711: (Sim:0h50m41s) 
CPU  2 inst:   59000000 cyc:   67359506 now IPC :1.04493: AVG IPC :0.85876: L2-Pf-HR :-nan: L2-HR :0.74772: (Sim:0h50m46s) 
CPU  3 inst:   60000004 cyc:   67386824 now IPC :0.99762: AVG IPC :0.87346: L2-Pf-HR :-nan: L2-HR :0.74709: (Sim:0h50m47s) 
CPU  0 inst:   59000004 cyc:   67517040 now IPC :1.02235: AVG IPC :0.85672: L2-Pf-HR :-nan: L2-HR :0.74758: (Sim:0h50m53s) 
CPU  1 inst:   60000003 cyc:   68372625 now IPC :0.91130: AVG IPC :0.86068: L2-Pf-HR :-nan: L2-HR :0.74703: (Sim:0h51m35s) 
CPU  2 inst:   60000004 cyc:   68455892 now IPC :0.91209: AVG IPC :0.85962: L2-Pf-HR :-nan: L2-HR :0.74772: (Sim:0h51m39s) 
CPU  0 inst:   60000003 cyc:   68515041 now IPC :1.00200: AVG IPC :0.85886: L2-Pf-HR :-nan: L2-HR :0.74769: (Sim:0h51m42s) 
CPU  3 inst:   61000005 cyc:   68527155 now IPC :0.87694: AVG IPC :0.87352: L2-Pf-HR :-nan: L2-HR :0.74714: (Sim:0h51m43s) 
CPU  1 inst:   61000005 cyc:   69565830 now IPC :0.83808: AVG IPC :0.86029: L2-Pf-HR :-nan: L2-HR :0.74707: (Sim:0h52m29s) 
CPU  3 inst:   62000000 cyc:   69693693 now IPC :0.85723: AVG IPC :0.87324: L2-Pf-HR :-nan: L2-HR :0.74785: (Sim:0h52m35s) 
CPU  2 inst:   61000005 cyc:   69776403 now IPC :0.75728: AVG IPC :0.85766: L2-Pf-HR :-nan: L2-HR :0.74766: (Sim:0h52m39s) 
CPU  0 inst:   61000005 cyc:   69810926 now IPC :0.77167: AVG IPC :0.85722: L2-Pf-HR :-nan: L2-HR :0.74777: (Sim:0h52m41s) 
CPU  1 inst:   62000000 cyc:   70602116 now IPC :0.96498: AVG IPC :0.86185: L2-Pf-HR :-nan: L2-HR :0.74777: (Sim:0h53m18s) 
CPU  3 inst:   63000001 cyc:   70741366 now IPC :0.95450: AVG IPC :0.87446: L2-Pf-HR :-nan: L2-HR :0.74853: (Sim:0h53m24s) 
CPU  2 inst:   62000000 cyc:   70897292 now IPC :0.89214: AVG IPC :0.85821: L2-Pf-HR :-nan: L2-HR :0.74800: (Sim:0h53m32s) 
CPU  0 inst:   62000000 cyc:   70935656 now IPC :0.88910: AVG IPC :0.85774: L2-Pf-HR :-nan: L2-HR :0.74832: (Sim:0h53m33s) 
CPU  1 inst:   63000001 cyc:   71636525 now IPC :0.96674: AVG IPC :0.86338: L2-Pf-HR :-nan: L2-HR :0.74849: (Sim:0h54m7s) 
CPU  3 inst:   64000003 cyc:   71768825 now IPC :0.97328: AVG IPC :0.87589: L2-Pf-HR :-nan: L2-HR :0.74922: (Sim:0h54m13s) 
CPU  2 inst:   63000001 cyc:   71983506 now IPC :0.92063: AVG IPC :0.85917: L2-Pf-HR :-nan: L2-HR :0.74836: (Sim:0h54m24s) 
CPU  0 inst:   63000001 cyc:   72040321 now IPC :0.90525: AVG IPC :0.85847: L2-Pf-HR :-nan: L2-HR :0.74894: (Sim:0h54m26s) 
CPU  1 inst:   64000000 cyc:   72732080 now IPC :0.91278: AVG IPC :0.86414: L2-Pf-HR :-nan: L2-HR :0.74922: (Sim:0h54m58s) 
CPU  3 inst:   65000002 cyc:   73064122 now IPC :0.77202: AVG IPC :0.87403: L2-Pf-HR :-nan: L2-HR :0.74907: (Sim:0h55m12s) 
CPU  2 inst:   64000000 cyc:   73081841 now IPC :0.91047: AVG IPC :0.85995: L2-Pf-HR :-nan: L2-HR :0.74882: (Sim:0h55m13s) 
CPU  0 inst:   64000005 cyc:   73250498 now IPC :0.82633: AVG IPC :0.85794: L2-Pf-HR :-nan: L2-HR :0.74979: (Sim:0h55m20s) 
CPU  1 inst:   65000002 cyc:   74163514 now IPC :0.69860: AVG IPC :0.86090: L2-Pf-HR :-nan: L2-HR :0.74905: (Sim:0h55m57s) 
CPU  3 inst:   66000003 cyc:   74355643 now IPC :0.77428: AVG IPC :0.87227: L2-Pf-HR :-nan: L2-HR :0.74880: (Sim:0h56m6s) 
CPU  2 inst:   65000002 cyc:   74366346 now IPC :0.77851: AVG IPC :0.85852: L2-Pf-HR :-nan: L2-HR :0.74826: (Sim:0h56m6s) 
CPU  0 inst:   65000002 cyc:   74544131 now IPC :0.77301: AVG IPC :0.85644: L2-Pf-HR :-nan: L2-HR :0.74950: (Sim:0h56m15s) 
CPU  1 inst:   66000003 cyc:   75340656 now IPC :0.84952: AVG IPC :0.86072: L2-Pf-HR :-nan: L2-HR :0.74880: (Sim:0h56m51s) 
CPU  2 inst:   66000003 cyc:   75482233 now IPC :0.89615: AVG IPC :0.85909: L2-Pf-HR :-nan: L2-HR :0.74801: (Sim:0h56m58s) 
CPU  3 inst:   67000001 cyc:   75530292 now IPC :0.85132: AVG IPC :0.87194: L2-Pf-HR :-nan: L2-HR :0.74854: (Sim:0h57m0s) 
CPU  0 inst:   66000003 cyc:   75647186 now IPC :0.90657: AVG IPC :0.85718: L2-Pf-HR :-nan: L2-HR :0.74923: (Sim:0h57m5s) 
CPU  1 inst:   67000001 cyc:   76544763 now IPC :0.83049: AVG IPC :0.86024: L2-Pf-HR :-nan: L2-HR :0.74854: (Sim:0h57m45s) 
CPU  2 inst:   67000001 cyc:   76713992 now IPC :0.81185: AVG IPC :0.85832: L2-Pf-HR :-nan: L2-HR :0.74777: (Sim:0h57m51s) 
CPU  3 inst:   68000002 cyc:   76764798 now IPC :0.81004: AVG IPC :0.87093: L2-Pf-HR :-nan: L2-HR :0.74829: (Sim:0h57m53s) 
CPU  0 inst:   67000001 cyc:   76812737 now IPC :0.85796: AVG IPC :0.85720: L2-Pf-HR :-nan: L2-HR :0.74898: (Sim:0h57m54s) 
CPU  1 inst:   68000002 cyc:   77817092 now IPC :0.78596: AVG IPC :0.85901: L2-Pf-HR :-nan: L2-HR :0.74831: (Sim:0h58m21s) 
CPU  3 inst:   69000000 cyc:   78007096 now IPC :0.80496: AVG IPC :0.86987: L2-Pf-HR :-nan: L2-HR :0.74803: (Sim:0h58m25s) 
CPU  2 inst:   68000002 cyc:   78021107 now IPC :0.76504: AVG IPC :0.85673: L2-Pf-HR :-nan: L2-HR :0.74756: (Sim:0h58m26s) 
CPU  0 inst:   68000002 cyc:   78082376 now IPC :0.78763: AVG IPC :0.85605: L2-Pf-HR :-nan: L2-HR :0.74879: (Sim:0h58m28s) 
CPU  1 inst:   69000000 cyc:   79056130 now IPC :0.80708: AVG IPC :0.85818: L2-Pf-HR :-nan: L2-HR :0.74805: (Sim:0h59m3s) 
CPU  3 inst:   70000004 cyc:   79228636 now IPC :0.81864: AVG IPC :0.86907: L2-Pf-HR :-nan: L2-HR :0.74776: (Sim:0h59m11s) 
CPU  2 inst:   69000000 cyc:   79298480 now IPC :0.78286: AVG IPC :0.85553: L2-Pf-HR :-nan: L2-HR :0.74732: (Sim:0h59m14s) 
CPU  0 inst:   69000000 cyc:   79389840 now IPC :0.76484: AVG IPC :0.85453: L2-Pf-HR :-nan: L2-HR :0.74856: (Sim:0h59m18s) 
CPU  1 inst:   70000004 cyc:   80319427 now IPC :0.79158: AVG IPC :0.85712: L2-Pf-HR :-nan: L2-HR :0.74778: (Sim:0h59m57s) 
CPU  3 inst:   71000001 cyc:   80652916 now IPC :0.70211: AVG IPC :0.86608: L2-Pf-HR :-nan: L2-HR :0.74738: (Sim:1h0m10s) 
CPU  2 inst:   70000004 cyc:   80673168 now IPC :0.72744: AVG IPC :0.85332: L2-Pf-HR :-nan: L2-HR :0.74708: (Sim:1h0m11s) 
CPU  0 inst:   70000004 cyc:   80732941 now IPC :0.74455: AVG IPC :0.85268: L2-Pf-HR :-nan: L2-HR :0.74830: (Sim:1h0m14s) 
CPU  1 inst:   71000004 cyc:   81744491 now IPC :0.70172: AVG IPC :0.85438: L2-Pf-HR :-nan: L2-HR :0.74740: (Sim:1h0m56s) 
CPU  3 inst:   72000000 cyc:   81861319 now IPC :0.82754: AVG IPC :0.86551: L2-Pf-HR :-nan: L2-HR :0.74733: (Sim:1h1m0s) 
CPU  2 inst:   71000004 cyc:   82186899 now IPC :0.66062: AVG IPC :0.84973: L2-Pf-HR :-nan: L2-HR :0.74673: (Sim:1h1m13s) 
CPU  0 inst:   71000000 cyc:   82221779 now IPC :0.67166: AVG IPC :0.84936: L2-Pf-HR :-nan: L2-HR :0.74792: (Sim:1h1m15s) 
CPU  1 inst:   72000000 cyc:   82894646 now IPC :0.86944: AVG IPC :0.85459: L2-Pf-HR :-nan: L2-HR :0.74737: (Sim:1h1m45s) 
CPU  3 inst:   73000000 cyc:   82992998 now IPC :0.88364: AVG IPC :0.86576: L2-Pf-HR :-nan: L2-HR :0.74724: (Sim:1h1m50s) 
CPU  2 inst:   72000000 cyc:   83517611 now IPC :0.75147: AVG IPC :0.84814: L2-Pf-HR :-nan: L2-HR :0.74686: (Sim:1h2m13s) 
CPU  0 inst:   72000000 cyc:   83526899 now IPC :0.76621: AVG IPC :0.84804: L2-Pf-HR :-nan: L2-HR :0.74801: (Sim:1h2m13s) 
CPU  1 inst:   73000000 cyc:   84070157 now IPC :0.85069: AVG IPC :0.85454: L2-Pf-HR :-nan: L2-HR :0.74730: (Sim:1h2m36s) 
CPU  3 inst:   74000005 cyc:   84374550 now IPC :0.72383: AVG IPC :0.86341: L2-Pf-HR :-nan: L2-HR :0.74718: (Sim:1h2m48s) 
CPU  2 inst:   73000000 cyc:   84924608 now IPC :0.71073: AVG IPC :0.84584: L2-Pf-HR :-nan: L2-HR :0.74697: (Sim:1h3m11s) 
CPU  0 inst:   73000000 cyc:   85111183 now IPC :0.63120: AVG IPC :0.84396: L2-Pf-HR :-nan: L2-HR :0.74809: (Sim:1h3m19s) 
CPU  1 inst:   74000005 cyc:   85534081 now IPC :0.68310: AVG IPC :0.85157: L2-Pf-HR :-nan: L2-HR :0.74726: (Sim:1h3m37s) 
CPU  3 inst:   75000000 cyc:   85740438 now IPC :0.73212: AVG IPC :0.86129: L2-Pf-HR :-nan: L2-HR :0.74714: (Sim:1h3m47s) 
CPU  2 inst:   74000005 cyc:   85976720 now IPC :0.95047: AVG IPC :0.84714: L2-Pf-HR :-nan: L2-HR :0.74705: (Sim:1h3m57s) 
CPU  0 inst:   74000005 cyc:   86473157 now IPC :0.73423: AVG IPC :0.84221: L2-Pf-HR :-nan: L2-HR :0.74816: (Sim:1h4m20s) 
CPU  1 inst:   75000000 cyc:   86837307 now IPC :0.76732: AVG IPC :0.85029: L2-Pf-HR :-nan: L2-HR :0.74721: (Sim:1h4m37s) 
CPU  2 inst:   75000000 cyc:   86987217 now IPC :0.98961: AVG IPC :0.84881: L2-Pf-HR :-nan: L2-HR :0.74717: (Sim:1h4m43s) 
CPU  3 inst:   76000003 cyc:   87049454 now IPC :0.76393: AVG IPC :0.85981: L2-Pf-HR :-nan: L2-HR :0.74708: (Sim:1h4m46s) 
CPU  0 inst:   75000000 cyc:   87836572 now IPC :0.73345: AVG IPC :0.84051: L2-Pf-HR :-nan: L2-HR :0.74828: (Sim:1h5m22s) 
CPU  1 inst:   76000003 cyc:   88155406 now IPC :0.75867: AVG IPC :0.84891: L2-Pf-HR :-nan: L2-HR :0.74715: (Sim:1h5m36s) 
CPU  3 inst:   77000003 cyc:   88194752 now IPC :0.87314: AVG IPC :0.85999: L2-Pf-HR :-nan: L2-HR :0.74702: (Sim:1h5m38s) 
CPU  2 inst:   76000003 cyc:   88279999 now IPC :0.77353: AVG IPC :0.84769: L2-Pf-HR :-nan: L2-HR :0.74725: (Sim:1h5m42s) 
CPU  0 inst:   76000003 cyc:   89203003 now IPC :0.73184: AVG IPC :0.83882: L2-Pf-HR :-nan: L2-HR :0.74834: (Sim:1h6m23s) 
CPU  1 inst:   77000003 cyc:   89367881 now IPC :0.82476: AVG IPC :0.84857: L2-Pf-HR :-nan: L2-HR :0.74709: (Sim:1h6m30s) 
CPU  3 inst:   78000002 cyc:   89427081 now IPC :0.81147: AVG IPC :0.85931: L2-Pf-HR :-nan: L2-HR :0.74755: (Sim:1h6m33s) 
CPU  2 inst:   77000003 cyc:   89609909 now IPC :0.75193: AVG IPC :0.84626: L2-Pf-HR :-nan: L2-HR :0.74733: (Sim:1h6m42s) 
CPU  0 inst:   77000003 cyc:   90379490 now IPC :0.84999: AVG IPC :0.83897: L2-Pf-HR :-nan: L2-HR :0.74842: (Sim:1h7m20s) 
CPU  1 inst:   78000002 cyc:   90423898 now IPC :0.94695: AVG IPC :0.84974: L2-Pf-HR :-nan: L2-HR :0.74759: (Sim:1h7m22s) 
CPU  3 inst:   79000000 cyc:   90500167 now IPC :0.93189: AVG IPC :0.86018: L2-Pf-HR :-nan: L2-HR :0.74821: (Sim:1h7m27s) 
CPU  2 inst:   78000002 cyc:   90612112 now IPC :0.99780: AVG IPC :0.84795: L2-Pf-HR :-nan: L2-HR :0.74791: (Sim:1h7m32s) 
CPU  0 inst:   78000002 cyc:   91399297 now IPC :0.98058: AVG IPC :0.84057: L2-Pf-HR :-nan: L2-HR :0.74894: (Sim:1h8m12s) 
CPU  1 inst:   79000000 cyc:   91452774 now IPC :0.97193: AVG IPC :0.85113: L2-Pf-HR :-nan: L2-HR :0.74823: (Sim:1h8m15s) 
CPU  3 inst:   80000002 cyc:   91605997 now IPC :0.90430: AVG IPC :0.86072: L2-Pf-HR :-nan: L2-HR :0.74878: (Sim:1h8m22s) 
CPU  2 inst:   79000000 cyc:   91636617 now IPC :0.97608: AVG IPC :0.84940: L2-Pf-HR :-nan: L2-HR :0.74858: (Sim:1h8m24s) 
CPU  0 inst:   79000000 cyc:   92388688 now IPC :1.01072: AVG IPC :0.84241: L2-Pf-HR :-nan: L2-HR :0.74966: (Sim:1h9m2s) 
CPU  1 inst:   80000002 cyc:   92461797 now IPC :0.99106: AVG IPC :0.85267: L2-Pf-HR :-nan: L2-HR :0.74873: (Sim:1h9m5s) 
CPU  2 inst:   80000002 cyc:   92723178 now IPC :0.92034: AVG IPC :0.85024: L2-Pf-HR :-nan: L2-HR :0.74913: (Sim:1h9m16s) 
CPU  3 inst:   81000001 cyc:   92884009 now IPC :0.78246: AVG IPC :0.85963: L2-Pf-HR :-nan: L2-HR :0.74877: (Sim:1h9m24s) 
CPU  0 inst:   80000002 cyc:   93558348 now IPC :0.85495: AVG IPC :0.84257: L2-Pf-HR :-nan: L2-HR :0.75019: (Sim:1h9m54s) 
CPU  1 inst:   81000004 cyc:   93858031 now IPC :0.71621: AVG IPC :0.85062: L2-Pf-HR :-nan: L2-HR :0.74858: (Sim:1h10m5s) 
CPU  2 inst:   81000001 cyc:   94036529 now IPC :0.76141: AVG IPC :0.84899: L2-Pf-HR :-nan: L2-HR :0.74901: (Sim:1h10m13s) 
CPU  3 inst:   82000000 cyc:   94273646 now IPC :0.71961: AVG IPC :0.85754: L2-Pf-HR :-nan: L2-HR :0.74856: (Sim:1h10m22s) 
CPU  0 inst:   81000001 cyc:   95165939 now IPC :0.62205: AVG IPC :0.83880: L2-Pf-HR :-nan: L2-HR :0.75011: (Sim:1h10m55s) 
CPU  1 inst:   82000000 cyc:   95406560 now IPC :0.64577: AVG IPC :0.84726: L2-Pf-HR :-nan: L2-HR :0.74837: (Sim:1h11m4s) 
CPU  2 inst:   82000000 cyc:   95604433 now IPC :0.63779: AVG IPC :0.84549: L2-Pf-HR :-nan: L2-HR :0.74884: (Sim:1h11m11s) 
CPU  3 inst:   83000004 cyc:   95979604 now IPC :0.58618: AVG IPC :0.85267: L2-Pf-HR :-nan: L2-HR :0.74835: (Sim:1h11m25s) 
CPU  1 inst:   83000004 cyc:   96664813 now IPC :0.79476: AVG IPC :0.84657: L2-Pf-HR :-nan: L2-HR :0.74815: (Sim:1h11m53s) 
CPU  0 inst:   82000000 cyc:   96783355 now IPC :0.61827: AVG IPC :0.83508: L2-Pf-HR :-nan: L2-HR :0.74989: (Sim:1h11m58s) 
CPU  2 inst:   83000004 cyc:   97147353 now IPC :0.64812: AVG IPC :0.84232: L2-Pf-HR :-nan: L2-HR :0.74867: (Sim:1h12m13s) 
CPU  3 inst:   84000002 cyc:   97515166 now IPC :0.65123: AVG IPC :0.84947: L2-Pf-HR :-nan: L2-HR :0.74816: (Sim:1h12m28s) 
CPU  1 inst:   84000002 cyc:   97811386 now IPC :0.87216: AVG IPC :0.84687: L2-Pf-HR :-nan: L2-HR :0.74796: (Sim:1h12m40s) 
CPU  0 inst:   83000004 cyc:   98375989 now IPC :0.62789: AVG IPC :0.83169: L2-Pf-HR :-nan: L2-HR :0.74967: (Sim:1h13m1s) 
CPU  2 inst:   84000002 cyc:   98792388 now IPC :0.60789: AVG IPC :0.83838: L2-Pf-HR :-nan: L2-HR :0.74851: (Sim:1h13m17s) 
CPU  3 inst:   85000003 cyc:   99040558 now IPC :0.65557: AVG IPC :0.84645: L2-Pf-HR :-nan: L2-HR :0.74795: (Sim:1h13m26s) 
CPU  1 inst:   85000003 cyc:   99261239 now IPC :0.68973: AVG IPC :0.84455: L2-Pf-HR :-nan: L2-HR :0.74774: (Sim:1h13m35s) 
CPU  0 inst:   84000002 cyc:  100033246 now IPC :0.60341: AVG IPC :0.82787: L2-Pf-HR :-nan: L2-HR :0.74947: (Sim:1h14m6s) 
CPU  3 inst:   86000001 cyc:  100196346 now IPC :0.86521: AVG IPC :0.84667: L2-Pf-HR :-nan: L2-HR :0.74776: (Sim:1h14m12s) 
CPU  2 inst:   85000003 cyc:  100411841 now IPC :0.61749: AVG IPC :0.83478: L2-Pf-HR :-nan: L2-HR :0.74832: (Sim:1h14m21s) 
CPU  1 inst:   86000001 cyc:  100800514 now IPC :0.64966: AVG IPC :0.84155: L2-Pf-HR :-nan: L2-HR :0.74753: (Sim:1h14m36s) 
CPU  3 inst:   87000002 cyc:  101526033 now IPC :0.75206: AVG IPC :0.84542: L2-Pf-HR :-nan: L2-HR :0.74743: (Sim:1h15m1s) 
CPU  0 inst:   85000003 cyc:  101633510 now IPC :0.62490: AVG IPC :0.82464: L2-Pf-HR :-nan: L2-HR :0.74925: (Sim:1h15m5s) 
CPU  2 inst:   86000001 cyc:  102026121 now IPC :0.61947: AVG IPC :0.83134: L2-Pf-HR :-nan: L2-HR :0.74816: (Sim:1h15m20s) 
CPU  1 inst:   87000002 cyc:  102579416 now IPC :0.56215: AVG IPC :0.83665: L2-Pf-HR :-nan: L2-HR :0.74719: (Sim:1h15m39s) 
CPU  3 inst:   88000003 cyc:  102826553 now IPC :0.76892: AVG IPC :0.84444: L2-Pf-HR :-nan: L2-HR :0.74738: (Sim:1h15m49s) 
CPU  0 inst:   86000001 cyc:  103166777 now IPC :0.65220: AVG IPC :0.82206: L2-Pf-HR :-nan: L2-HR :0.74903: (Sim:1h16m3s) 
CPU  2 inst:   87000001 cyc:  103588129 now IPC :0.64020: AVG IPC :0.82843: L2-Pf-HR :-nan: L2-HR :0.74788: (Sim:1h16m16s) 
CPU  1 inst:   88000003 cyc:  104100866 now IPC :0.65727: AVG IPC :0.83401: L2-Pf-HR :-nan: L2-HR :0.74714: (Sim:1h16m33s) 
CPU  3 inst:   89000003 cyc:  104511211 now IPC :0.59359: AVG IPC :0.84036: L2-Pf-HR :-nan: L2-HR :0.74731: (Sim:1h16m46s) 
CPU  0 inst:   87000002 cyc:  105146403 now IPC :0.50515: AVG IPC :0.81603: L2-Pf-HR :-nan: L2-HR :0.74868: (Sim:1h17m7s) 
CPU  2 inst:   88000003 cyc:  105356666 now IPC :0.56544: AVG IPC :0.82397: L2-Pf-HR :-nan: L2-HR :0.74783: (Sim:1h17m14s) 
CPU  1 inst:   89000003 cyc:  105807211 now IPC :0.58605: AVG IPC :0.82997: L2-Pf-HR :-nan: L2-HR :0.74708: (Sim:1h17m31s) 
CPU  3 inst:   90000000 cyc:  105937021 now IPC :0.70135: AVG IPC :0.83847: L2-Pf-HR :-nan: L2-HR :0.74729: (Sim:1h17m36s) 
CPU  0 inst:   88000003 cyc:  106525100 now IPC :0.72532: AVG IPC :0.81485: L2-Pf-HR :-nan: L2-HR :0.74862: (Sim:1h17m59s) 
CPU  2 inst:   89000003 cyc:  106824165 now IPC :0.68143: AVG IPC :0.82200: L2-Pf-HR :-nan: L2-HR :0.74777: (Sim:1h18m11s) 
CPU  3 inst:   91000000 cyc:  106963216 now IPC :0.97447: AVG IPC :0.83979: L2-Pf-HR :-nan: L2-HR :0.74725: (Sim:1h18m17s) 
CPU  1 inst:   90000000 cyc:  107226647 now IPC :0.70450: AVG IPC :0.82830: L2-Pf-HR :-nan: L2-HR :0.74706: (Sim:1h18m27s) 
CPU  0 inst:   89000003 cyc:  107951148 now IPC :0.70124: AVG IPC :0.81333: L2-Pf-HR :-nan: L2-HR :0.74855: (Sim:1h18m55s) 
CPU  3 inst:   92000001 cyc:  108060824 now IPC :0.91107: AVG IPC :0.84052: L2-Pf-HR :-nan: L2-HR :0.74721: (Sim:1h19m0s) 
CPU  2 inst:   90000000 cyc:  108115192 now IPC :0.77457: AVG IPC :0.82143: L2-Pf-HR :-nan: L2-HR :0.74775: (Sim:1h19m2s) 
CPU  1 inst:   91000000 cyc:  108643781 now IPC :0.70565: AVG IPC :0.82668: L2-Pf-HR :-nan: L2-HR :0.74702: (Sim:1h19m21s) 
CPU  2 inst:   91000000 cyc:  109122226 now IPC :0.99302: AVG IPC :0.82302: L2-Pf-HR :-nan: L2-HR :0.74771: (Sim:1h19m34s) 
CPU  0 inst:   90000000 cyc:  109321652 now IPC :0.72966: AVG IPC :0.81228: L2-Pf-HR :-nan: L2-HR :0.74851: (Sim:1h19m39s) 
CPU  3 inst:   93000002 cyc:  109476938 now IPC :0.70616: AVG IPC :0.83876: L2-Pf-HR :-nan: L2-HR :0.74705: (Sim:1h19m44s) 
CPU  1 inst:   92000001 cyc:  109976395 now IPC :0.75041: AVG IPC :0.82575: L2-Pf-HR :-nan: L2-HR :0.74698: (Sim:1h19m57s) 
CPU  2 inst:   92000001 cyc:  110134109 now IPC :0.98826: AVG IPC :0.82456: L2-Pf-HR :-nan: L2-HR :0.74767: (Sim:1h20m2s) 
CPU  0 inst:   91000000 cyc:  110583048 now IPC :0.79277: AVG IPC :0.81205: L2-Pf-HR :-nan: L2-HR :0.74847: (Sim:1h20m22s) 
CPU  3 inst:   94000001 cyc:  110615723 now IPC :0.87813: AVG IPC :0.83917: L2-Pf-HR :-nan: L2-HR :0.74756: (Sim:1h20m23s) 
CPU  1 inst:   93000000 cyc:  111382666 now IPC :0.71110: AVG IPC :0.82429: L2-Pf-HR :-nan: L2-HR :0.74682: (Sim:1h20m44s) 
CPU  2 inst:   93000002 cyc:  111433822 now IPC :0.76940: AVG IPC :0.82391: L2-Pf-HR :-nan: L2-HR :0.74751: (Sim:1h20m45s) 
CPU  3 inst:   95000002 cyc:  111836967 now IPC :0.81884: AVG IPC :0.83895: L2-Pf-HR :-nan: L2-HR :0.74806: (Sim:1h20m58s) 
CPU  0 inst:   92000001 cyc:  111929080 now IPC :0.74293: AVG IPC :0.81121: L2-Pf-HR :-nan: L2-HR :0.74841: (Sim:1h21m2s) 
CPU  1 inst:   94000001 cyc:  112525568 now IPC :0.87497: AVG IPC :0.82481: L2-Pf-HR :-nan: L2-HR :0.74727: (Sim:1h21m21s) 
CPU  2 inst:   94000001 cyc:  112595559 now IPC :0.86078: AVG IPC :0.82429: L2-Pf-HR :-nan: L2-HR :0.74802: (Sim:1h21m23s) 
CPU  3 inst:   96000003 cyc:  112842040 now IPC :0.99495: AVG IPC :0.84035: L2-Pf-HR :-nan: L2-HR :0.74850: (Sim:1h21m31s) 
CPU  0 inst:   93000000 cyc:  113037873 now IPC :0.90188: AVG IPC :0.81211: L2-Pf-HR :-nan: L2-HR :0.74825: (Sim:1h21m36s) 
CPU  1 inst:   95000002 cyc:  113685490 now IPC :0.86213: AVG IPC :0.82519: L2-Pf-HR :-nan: L2-HR :0.74772: (Sim:1h21m54s) 
CPU  2 inst:   95000002 cyc:  113723111 now IPC :0.88688: AVG IPC :0.82492: L2-Pf-HR :-nan: L2-HR :0.74850: (Sim:1h21m55s) 
CPU  3 inst:   97000000 cyc:  114020090 now IPC :0.84886: AVG IPC :0.84044: L2-Pf-HR :-nan: L2-HR :0.74863: (Sim:1h22m2s) 
CPU  0 inst:   94000001 cyc:  114211225 now IPC :0.85226: AVG IPC :0.81253: L2-Pf-HR :-nan: L2-HR :0.74869: (Sim:1h22m7s) 
CPU  1 inst:   96000003 cyc:  115030537 now IPC :0.74347: AVG IPC :0.82423: L2-Pf-HR :-nan: L2-HR :0.74808: (Sim:1h22m30s) 
CPU  2 inst:   96000003 cyc:  115047922 now IPC :0.75483: AVG IPC :0.82410: L2-Pf-HR :-nan: L2-HR :0.74890: (Sim:1h22m31s) 
CPU  0 inst:   95000002 cyc:  115231401 now IPC :0.98022: AVG IPC :0.81402: L2-Pf-HR :-nan: L2-HR :0.74916: (Sim:1h22m38s) 
CPU  3 inst:   98000002 cyc:  115314810 now IPC :0.77237: AVG IPC :0.83967: L2-Pf-HR :-nan: L2-HR :0.74845: (Sim:1h22m41s) 
CPU  0 inst:   96000003 cyc:  116405743 now IPC :0.85154: AVG IPC :0.81440: L2-Pf-HR :-nan: L2-HR :0.74956: (Sim:1h23m25s) 
CPU  1 inst:   97000000 cyc:  116408036 now IPC :0.72595: AVG IPC :0.82305: L2-Pf-HR :-nan: L2-HR :0.74817: (Sim:1h23m25s) 
CPU  3 inst:   99000001 cyc:  116456882 now IPC :0.87560: AVG IPC :0.84002: L2-Pf-HR :-nan: L2-HR :0.74827: (Sim:1h23m27s) 
CPU  2 inst:   97000000 cyc:  116461823 now IPC :0.70726: AVG IPC :0.82267: L2-Pf-HR :-nan: L2-HR :0.74888: (Sim:1h23m28s) 
CPU  3 inst:  100000005 cyc:  117661216 now IPC :0.83034: AVG IPC :0.83992: L2-Pf-HR :-nan: L2-HR :0.74811: (Sim:1h24m18s) 
CPU  1 inst:   98000002 cyc:  117696258 now IPC :0.77627: AVG IPC :0.82254: L2-Pf-HR :-nan: L2-HR :0.74815: (Sim:1h24m20s) 
CPU  0 inst:   97000000 cyc:  117712414 now IPC :0.76530: AVG IPC :0.81386: L2-Pf-HR :-nan: L2-HR :0.74959: (Sim:1h24m21s) 
CPU  2 inst:   98000001 cyc:  117802308 now IPC :0.74600: AVG IPC :0.82179: L2-Pf-HR :-nan: L2-HR :0.74882: (Sim:1h24m25s) 
CPU  1 inst:   99000001 cyc:  118878977 now IPC :0.84551: AVG IPC :0.82277: L2-Pf-HR :-nan: L2-HR :0.74816: (Sim:1h25m14s) 
CPU  3 inst:  101000000 cyc:  118888840 now IPC :0.81458: AVG IPC :0.83966: L2-Pf-HR :-nan: L2-HR :0.74794: (Sim:1h25m14s) 
CPU  0 inst:   98000000 cyc:  119001631 now IPC :0.77566: AVG IPC :0.81344: L2-Pf-HR :-nan: L2-HR :0.74940: (Sim:1h25m19s) 
CPU  2 inst:   99000001 cyc:  119035481 now IPC :0.81092: AVG IPC :0.82168: L2-Pf-HR :-nan: L2-HR :0.74876: (Sim:1h25m21s) 
CPU  1 inst:  100000001 cyc:  120042019 now IPC :0.85981: AVG IPC :0.82313: L2-Pf-HR :-nan: L2-HR :0.74817: (Sim:1h26m8s) 
CPU  3 inst:  102000004 cyc:  120116520 now IPC :0.81455: AVG IPC :0.83940: L2-Pf-HR :-nan: L2-HR :0.74776: (Sim:1h26m11s) 
CPU  2 inst:  100000004 cyc:  120213626 now IPC :0.84879: AVG IPC :0.82195: L2-Pf-HR :-nan: L2-HR :0.74872: (Sim:1h26m16s) 
CPU  0 inst:   99000001 cyc:  120241418 now IPC :0.80659: AVG IPC :0.81337: L2-Pf-HR :-nan: L2-HR :0.74922: (Sim:1h26m17s) 
CPU  1 inst:  101000000 cyc:  121165419 now IPC :0.89015: AVG IPC :0.82376: L2-Pf-HR :-nan: L2-HR :0.74816: (Sim:1h26m58s) 
CPU  3 inst:  103000003 cyc:  121346434 now IPC :0.81306: AVG IPC :0.83913: L2-Pf-HR :-nan: L2-HR :0.74768: (Sim:1h27m6s) 
CPU  2 inst:  101000000 cyc:  121374227 now IPC :0.86162: AVG IPC :0.82233: L2-Pf-HR :-nan: L2-HR :0.74869: (Sim:1h27m8s) 
CPU  0 inst:  100000001 cyc:  121524101 now IPC :0.77962: AVG IPC :0.81301: L2-Pf-HR :-nan: L2-HR :0.74906: (Sim:1h27m13s) 
CPU  1 inst:  102000004 cyc:  122340688 now IPC :0.85087: AVG IPC :0.82402: L2-Pf-HR :-nan: L2-HR :0.74810: (Sim:1h27m50s) 
CPU  2 inst:  102000004 cyc:  122560061 now IPC :0.84329: AVG IPC :0.82253: L2-Pf-HR :-nan: L2-HR :0.74862: (Sim:1h27m59s) 
CPU  3 inst:  104000000 cyc:  122705188 now IPC :0.73597: AVG IPC :0.83798: L2-Pf-HR :-nan: L2-HR :0.74742: (Sim:1h28m5s) 
CPU  0 inst:  101000000 cyc:  122778864 now IPC :0.79696: AVG IPC :0.81284: L2-Pf-HR :-nan: L2-HR :0.74889: (Sim:1h28m9s) 
CPU  1 inst:  103000003 cyc:  123540392 now IPC :0.83354: AVG IPC :0.82411: L2-Pf-HR :-nan: L2-HR :0.74814: (Sim:1h28m41s) 
CPU  2 inst:  103000003 cyc:  123761861 now IPC :0.83208: AVG IPC :0.82263: L2-Pf-HR :-nan: L2-HR :0.74866: (Sim:1h28m46s) 
CPU  3 inst:  105000004 cyc:  124002119 now IPC :0.77105: AVG IPC :0.83727: L2-Pf-HR :-nan: L2-HR :0.74736: (Sim:1h28m52s) 
CPU  0 inst:  102000004 cyc:  124141752 now IPC :0.73374: AVG IPC :0.81197: L2-Pf-HR :-nan: L2-HR :0.74870: (Sim:1h28m57s) 
CPU  1 inst:  104000003 cyc:  124801596 now IPC :0.79289: AVG IPC :0.82379: L2-Pf-HR :-nan: L2-HR :0.74790: (Sim:1h29m28s) 
CPU  2 inst:  104000000 cyc:  124947629 now IPC :0.84333: AVG IPC :0.82282: L2-Pf-HR :-nan: L2-HR :0.74842: (Sim:1h29m35s) 
CPU  3 inst:  106000005 cyc:  125088409 now IPC :0.92057: AVG IPC :0.83800: L2-Pf-HR :-nan: L2-HR :0.74732: (Sim:1h29m42s) 
CPU  0 inst:  103000003 cyc:  125320366 now IPC :0.84845: AVG IPC :0.81231: L2-Pf-HR :-nan: L2-HR :0.74861: (Sim:1h29m53s) 
CPU  1 inst:  105000004 cyc:  125966834 now IPC :0.85819: AVG IPC :0.82412: L2-Pf-HR :-nan: L2-HR :0.74785: (Sim:1h30m21s) 
CPU  3 inst:  107000005 cyc:  126100862 now IPC :0.98770: AVG IPC :0.83922: L2-Pf-HR :-nan: L2-HR :0.74729: (Sim:1h30m27s) 
CPU  2 inst:  105000004 cyc:  126104369 now IPC :0.86450: AVG IPC :0.82321: L2-Pf-HR :-nan: L2-HR :0.74836: (Sim:1h30m27s) 
CPU  0 inst:  104000003 cyc:  126687862 now IPC :0.73126: AVG IPC :0.81143: L2-Pf-HR :-nan: L2-HR :0.74835: (Sim:1h30m54s) 
CPU  1 inst:  106000005 cyc:  127000070 now IPC :0.96783: AVG IPC :0.82529: L2-Pf-HR :-nan: L2-HR :0.74782: (Sim:1h31m9s) 
CPU  3 inst:  108000005 cyc:  127106915 now IPC :0.99398: AVG IPC :0.84045: L2-Pf-HR :-nan: L2-HR :0.74725: (Sim:1h31m13s) 
CPU  2 inst:  106000005 cyc:  127241479 now IPC :0.87942: AVG IPC :0.82372: L2-Pf-HR :-nan: L2-HR :0.74833: (Sim:1h31m19s) 
CPU  0 inst:  105000004 cyc:  127875005 now IPC :0.84236: AVG IPC :0.81172: L2-Pf-HR :-nan: L2-HR :0.74829: (Sim:1h31m46s) 
CPU  1 inst:  107000005 cyc:  127972449 now IPC :1.02841: AVG IPC :0.82685: L2-Pf-HR :-nan: L2-HR :0.74779: (Sim:1h31m50s) 
CPU  3 inst:  109000003 cyc:  128291200 now IPC :0.84439: AVG IPC :0.84049: L2-Pf-HR :-nan: L2-HR :0.74727: (Sim:1h32m4s) 
CPU  2 inst:  107000005 cyc:  128483978 now IPC :0.80483: AVG IPC :0.82353: L2-Pf-HR :-nan: L2-HR :0.74830: (Sim:1h32m11s) 
CPU  1 inst:  108000005 cyc:  129031669 now IPC :0.94409: AVG IPC :0.82782: L2-Pf-HR :-nan: L2-HR :0.74774: (Sim:1h32m32s) 
CPU  0 inst:  106000005 cyc:  129254441 now IPC :0.72493: AVG IPC :0.81079: L2-Pf-HR :-nan: L2-HR :0.74825: (Sim:1h32m41s) 
CPU  3 inst:  110000003 cyc:  129549163 now IPC :0.79494: AVG IPC :0.84004: L2-Pf-HR :-nan: L2-HR :0.74751: (Sim:1h32m54s) 
CPU  2 inst:  108000005 cyc:  129723669 now IPC :0.80665: AVG IPC :0.82337: L2-Pf-HR :-nan: L2-HR :0.74826: (Sim:1h33m1s) 
CPU  1 inst:  109000003 cyc:  130308966 now IPC :0.78290: AVG IPC :0.82738: L2-Pf-HR :-nan: L2-HR :0.74776: (Sim:1h33m28s) 
CPU  0 inst:  107000005 cyc:  130527260 now IPC :0.78566: AVG IPC :0.81054: L2-Pf-HR :-nan: L2-HR :0.74822: (Sim:1h33m38s) 
CPU  3 inst:  111000001 cyc:  130720183 now IPC :0.85395: AVG IPC :0.84017: L2-Pf-HR :-nan: L2-HR :0.74788: (Sim:1h33m48s) 
CPU  2 inst:  109000003 cyc:  130739651 now IPC :0.98427: AVG IPC :0.82463: L2-Pf-HR :-nan: L2-HR :0.74827: (Sim:1h33m49s) 
CPU  1 inst:  110000004 cyc:  131454532 now IPC :0.87293: AVG IPC :0.82778: L2-Pf-HR :-nan: L2-HR :0.74797: (Sim:1h34m24s) 
CPU  0 inst:  108000005 cyc:  131577724 now IPC :0.95196: AVG IPC :0.81168: L2-Pf-HR :-nan: L2-HR :0.74817: (Sim:1h34m30s) 
CPU  3 inst:  112000003 cyc:  131790140 now IPC :0.93462: AVG IPC :0.84094: L2-Pf-HR :-nan: L2-HR :0.74833: (Sim:1h34m39s) 
CPU  2 inst:  110000002 cyc:  131879285 now IPC :0.87747: AVG IPC :0.82509: L2-Pf-HR :-nan: L2-HR :0.74852: (Sim:1h34m43s) 
CPU  1 inst:  111000004 cyc:  132585017 now IPC :0.88458: AVG IPC :0.82826: L2-Pf-HR :-nan: L2-HR :0.74834: (Sim:1h35m13s) 
CPU  0 inst:  109000003 cyc:  132774972 now IPC :0.83525: AVG IPC :0.81189: L2-Pf-HR :-nan: L2-HR :0.74818: (Sim:1h35m22s) 
CPU  3 inst:  113000002 cyc:  132815672 now IPC :0.97510: AVG IPC :0.84198: L2-Pf-HR :-nan: L2-HR :0.74881: (Sim:1h35m23s) 
CPU  2 inst:  111000001 cyc:  133115669 now IPC :0.80881: AVG IPC :0.82494: L2-Pf-HR :-nan: L2-HR :0.74889: (Sim:1h35m34s) 
CPU  1 inst:  112000003 cyc:  133798972 now IPC :0.82375: AVG IPC :0.82822: L2-Pf-HR :-nan: L2-HR :0.74876: (Sim:1h36m3s) 
CPU  0 inst:  110000004 cyc:  133959139 now IPC :0.84448: AVG IPC :0.81218: L2-Pf-HR :-nan: L2-HR :0.74837: (Sim:1h36m10s) 
CPU  2 inst:  112000003 cyc:  134182451 now IPC :0.93740: AVG IPC :0.82584: L2-Pf-HR :-nan: L2-HR :0.74934: (Sim:1h36m20s) 
CPU  3 inst:  114000003 cyc:  134219263 now IPC :0.71246: AVG IPC :0.84062: L2-Pf-HR :-nan: L2-HR :0.74833: (Sim:1h36m22s) 
CPU  1 inst:  113000002 cyc:  134876345 now IPC :0.92818: AVG IPC :0.82903: L2-Pf-HR :-nan: L2-HR :0.74921: (Sim:1h36m52s) 
CPU  0 inst:  111000000 cyc:  135024620 now IPC :0.93854: AVG IPC :0.81319: L2-Pf-HR :-nan: L2-HR :0.74869: (Sim:1h36m57s) 
CPU  2 inst:  113000002 cyc:  135310390 now IPC :0.88657: AVG IPC :0.82635: L2-Pf-HR :-nan: L2-HR :0.74973: (Sim:1h37m7s) 
CPU  3 inst:  115000003 cyc:  135559888 now IPC :0.74592: AVG IPC :0.83967: L2-Pf-HR :-nan: L2-HR :0.74819: (Sim:1h37m14s) 
CPU  0 inst:  112000003 cyc:  136257127 now IPC :0.81136: AVG IPC :0.81317: L2-Pf-HR :-nan: L2-HR :0.74904: (Sim:1h37m34s) 
CPU  1 inst:  114000003 cyc:  136303588 now IPC :0.70065: AVG IPC :0.82767: L2-Pf-HR :-nan: L2-HR :0.74868: (Sim:1h37m35s) 
CPU  2 inst:  114000003 cyc:  136639173 now IPC :0.75257: AVG IPC :0.82563: L2-Pf-HR :-nan: L2-HR :0.74921: (Sim:1h37m48s) 
CPU  3 inst:  116000002 cyc:  136762619 now IPC :0.83144: AVG IPC :0.83960: L2-Pf-HR :-nan: L2-HR :0.74806: (Sim:1h37m53s) 
CPU  0 inst:  113000002 cyc:  137466918 now IPC :0.82659: AVG IPC :0.81329: L2-Pf-HR :-nan: L2-HR :0.74943: (Sim:1h38m22s) 
CPU  1 inst:  115000003 cyc:  137583611 now IPC :0.78124: AVG IPC :0.82724: L2-Pf-HR :-nan: L2-HR :0.74855: (Sim:1h38m27s) 
CPU  2 inst:  115000003 cyc:  137799577 now IPC :0.86177: AVG IPC :0.82593: L2-Pf-HR :-nan: L2-HR :0.74906: (Sim:1h38m35s) 
CPU  3 inst:  117000000 cyc:  138069272 now IPC :0.76531: AVG IPC :0.83889: L2-Pf-HR :-nan: L2-HR :0.74793: (Sim:1h38m46s) 
CPU  0 inst:  114000003 cyc:  138828071 now IPC :0.73467: AVG IPC :0.81251: L2-Pf-HR :-nan: L2-HR :0.74893: (Sim:1h39m19s) 
CPU  1 inst:  116000002 cyc:  138886908 now IPC :0.76728: AVG IPC :0.82667: L2-Pf-HR :-nan: L2-HR :0.74842: (Sim:1h39m21s) 
CPU  2 inst:  116000002 cyc:  139004447 now IPC :0.82996: AVG IPC :0.82597: L2-Pf-HR :-nan: L2-HR :0.74892: (Sim:1h39m27s) 
CPU  3 inst:  118000001 cyc:  139327854 now IPC :0.79455: AVG IPC :0.83849: L2-Pf-HR :-nan: L2-HR :0.74779: (Sim:1h39m42s) 
CPU  0 inst:  115000003 cyc:  140004717 now IPC :0.84987: AVG IPC :0.81283: L2-Pf-HR :-nan: L2-HR :0.74878: (Sim:1h40m12s) 
CPU  1 inst:  117000002 cyc:  140173483 now IPC :0.77726: AVG IPC :0.82621: L2-Pf-HR :-nan: L2-HR :0.74828: (Sim:1h40m19s) 
CPU  2 inst:  117000005 cyc:  140242956 now IPC :0.80742: AVG IPC :0.82580: L2-Pf-HR :-nan: L2-HR :0.74878: (Sim:1h40m23s) 
CPU  3 inst:  119000005 cyc:  140526577 now IPC :0.83422: AVG IPC :0.83845: L2-Pf-HR :-nan: L2-HR :0.74765: (Sim:1h40m35s) 
CPU  0 inst:  116000002 cyc:  141189163 now IPC :0.84428: AVG IPC :0.81309: L2-Pf-HR :-nan: L2-HR :0.74864: (Sim:1h41m2s) 
CPU  1 inst:  118000001 cyc:  141543996 now IPC :0.72965: AVG IPC :0.82527: L2-Pf-HR :-nan: L2-HR :0.74811: (Sim:1h41m19s) 
CPU  2 inst:  118000001 cyc:  141569248 now IPC :0.75398: AVG IPC :0.82512: L2-Pf-HR :-nan: L2-HR :0.74862: (Sim:1h41m20s) 
CPU  3 inst:  120000005 cyc:  141811263 now IPC :0.77840: AVG IPC :0.83791: L2-Pf-HR :-nan: L2-HR :0.74747: (Sim:1h41m32s) 
CPU  0 inst:  117000005 cyc:  142472162 now IPC :0.77943: AVG IPC :0.81279: L2-Pf-HR :-nan: L2-HR :0.74849: (Sim:1h42m2s) 
CPU  3 inst:  121000004 cyc:  142874345 now IPC :0.94066: AVG IPC :0.83868: L2-Pf-HR :-nan: L2-HR :0.74742: (Sim:1h42m20s) 
CPU  1 inst:  119000005 cyc:  143037327 now IPC :0.66965: AVG IPC :0.82364: L2-Pf-HR :-nan: L2-HR :0.74796: (Sim:1h42m27s) 
CPU  2 inst:  119000005 cyc:  143076170 now IPC :0.66361: AVG IPC :0.82341: L2-Pf-HR :-nan: L2-HR :0.74847: (Sim:1h42m28s) 
CPU  0 inst:  118000001 cyc:  144192621 now IPC :0.58124: AVG IPC :0.81001: L2-Pf-HR :-nan: L2-HR :0.74833: (Sim:1h43m10s) 
CPU  3 inst:  122000004 cyc:  144618186 now IPC :0.57345: AVG IPC :0.83546: L2-Pf-HR :-nan: L2-HR :0.74739: (Sim:1h43m26s) 
CPU  1 inst:  120000005 cyc:  145064277 now IPC :0.49335: AVG IPC :0.81899: L2-Pf-HR :-nan: L2-HR :0.74779: (Sim:1h43m44s) 
CPU  2 inst:  120000005 cyc:  145070173 now IPC :0.50150: AVG IPC :0.81896: L2-Pf-HR :-nan: L2-HR :0.74831: (Sim:1h43m44s) 
CPU  0 inst:  119000005 cyc:  145469703 now IPC :0.78304: AVG IPC :0.80977: L2-Pf-HR :-nan: L2-HR :0.74819: (Sim:1h44m2s) 
CPU  3 inst:  123000003 cyc:  146324753 now IPC :0.58597: AVG IPC :0.83253: L2-Pf-HR :-nan: L2-HR :0.74738: (Sim:1h44m37s) 
CPU  0 inst:  120000005 cyc:  146646600 now IPC :0.84969: AVG IPC :0.81009: L2-Pf-HR :-nan: L2-HR :0.74801: (Sim:1h44m52s) 
CPU  2 inst:  121000003 cyc:  146730766 now IPC :0.60219: AVG IPC :0.81649: L2-Pf-HR :-nan: L2-HR :0.74828: (Sim:1h44m55s) 
CPU  1 inst:  121000004 cyc:  146741314 now IPC :0.59629: AVG IPC :0.81643: L2-Pf-HR :-nan: L2-HR :0.74775: (Sim:1h44m55s) 
CPU  3 inst:  124000003 cyc:  147857711 now IPC :0.65233: AVG IPC :0.83065: L2-Pf-HR :-nan: L2-HR :0.74735: (Sim:1h45m42s) 
CPU  0 inst:  121000003 cyc:  147960382 now IPC :0.76116: AVG IPC :0.80965: L2-Pf-HR :-nan: L2-HR :0.74796: (Sim:1h45m46s) 
CPU  2 inst:  122000004 cyc:  148327772 now IPC :0.62617: AVG IPC :0.81442: L2-Pf-HR :-nan: L2-HR :0.74828: (Sim:1h46m3s) 
CPU  1 inst:  122000005 cyc:  148372559 now IPC :0.61303: AVG IPC :0.81418: L2-Pf-HR :-nan: L2-HR :0.74773: (Sim:1h46m5s) 
CPU  3 inst:  125000003 cyc:  148875641 now IPC :0.98239: AVG IPC :0.83169: L2-Pf-HR :-nan: L2-HR :0.74732: (Sim:1h46m27s) 
CPU  0 inst:  122000004 cyc:  149446839 now IPC :0.67274: AVG IPC :0.80828: L2-Pf-HR :-nan: L2-HR :0.74793: (Sim:1h46m49s) 
CPU  2 inst:  123000003 cyc:  149963965 now IPC :0.61117: AVG IPC :0.81219: L2-Pf-HR :-nan: L2-HR :0.74828: (Sim:1h47m8s) 
CPU  1 inst:  123000003 cyc:  149979766 now IPC :0.62220: AVG IPC :0.81211: L2-Pf-HR :-nan: L2-HR :0.74771: (Sim:1h47m8s) 
CPU  3 inst:  126000005 cyc:  150281324 now IPC :0.71140: AVG IPC :0.83056: L2-Pf-HR :-nan: L2-HR :0.74750: (Sim:1h47m19s) 
CPU  0 inst:  123000003 cyc:  150934776 now IPC :0.67207: AVG IPC :0.80693: L2-Pf-HR :-nan: L2-HR :0.74791: (Sim:1h47m43s) 
CPU  3 inst:  127000000 cyc:  151444338 now IPC :0.85983: AVG IPC :0.83078: L2-Pf-HR :-nan: L2-HR :0.74787: (Sim:1h47m57s) 
CPU  1 inst:  124000003 cyc:  151449693 now IPC :0.68031: AVG IPC :0.81082: L2-Pf-HR :-nan: L2-HR :0.74768: (Sim:1h47m57s) 
CPU  2 inst:  124000003 cyc:  151469285 now IPC :0.66431: AVG IPC :0.81071: L2-Pf-HR :-nan: L2-HR :0.74827: (Sim:1h47m58s) 
CPU  0 inst:  124000003 cyc:  151936007 now IPC :0.99877: AVG IPC :0.80820: L2-Pf-HR :-nan: L2-HR :0.74787: (Sim:1h48m18s) 
CPU  3 inst:  128000001 cyc:  152543081 now IPC :0.91013: AVG IPC :0.83136: L2-Pf-HR :-nan: L2-HR :0.74825: (Sim:1h48m47s) 
CPU  1 inst:  125000003 cyc:  152655672 now IPC :0.82920: AVG IPC :0.81096: L2-Pf-HR :-nan: L2-HR :0.74765: (Sim:1h48m52s) 
CPU  2 inst:  125000003 cyc:  152668153 now IPC :0.83412: AVG IPC :0.81090: L2-Pf-HR :-nan: L2-HR :0.74825: (Sim:1h48m52s) 
CPU  0 inst:  125000003 cyc:  152868985 now IPC :1.07184: AVG IPC :0.80982: L2-Pf-HR :-nan: L2-HR :0.74784: (Sim:1h49m2s) 
CPU  3 inst:  129000004 cyc:  153641833 now IPC :0.91013: AVG IPC :0.83193: L2-Pf-HR :-nan: L2-HR :0.74860: (Sim:1h49m37s) 
CPU  2 inst:  126000005 cyc:  153972492 now IPC :0.76667: AVG IPC :0.81052: L2-Pf-HR :-nan: L2-HR :0.74827: (Sim:1h49m50s) 
CPU  1 inst:  126000005 cyc:  153992325 now IPC :0.74814: AVG IPC :0.81042: L2-Pf-HR :-nan: L2-HR :0.74768: (Sim:1h49m51s) 
CPU  0 inst:  126000005 cyc:  154071180 now IPC :0.83181: AVG IPC :0.81000: L2-Pf-HR :-nan: L2-HR :0.74800: (Sim:1h49m53s) 
CPU  2 inst:  127000000 cyc:  155631468 now IPC :0.60278: AVG IPC :0.80829: L2-Pf-HR :-nan: L2-HR :0.74843: (Sim:1h50m37s) 
CPU  1 inst:  127000000 cyc:  155979859 now IPC :0.50313: AVG IPC :0.80647: L2-Pf-HR :-nan: L2-HR :0.74785: (Sim:1h50m49s) 
CPU  0 inst:  127000000 cyc:  156017028 now IPC :0.51391: AVG IPC :0.80628: L2-Pf-HR :-nan: L2-HR :0.74836: (Sim:1h50m50s) 
CPU  2 inst:  128000001 cyc:  157280517 now IPC :0.60641: AVG IPC :0.80616: L2-Pf-HR :-nan: L2-HR :0.74864: (Sim:1h51m33s) 
CPU  1 inst:  128000001 cyc:  157974985 now IPC :0.50122: AVG IPC :0.80260: L2-Pf-HR :-nan: L2-HR :0.74804: (Sim:1h51m55s) 
CPU  0 inst:  128000001 cyc:  158250649 now IPC :0.44770: AVG IPC :0.80119: L2-Pf-HR :-nan: L2-HR :0.74875: (Sim:1h52m5s) 
CPU  2 inst:  129000004 cyc:  159460352 now IPC :0.45875: AVG IPC :0.80138: L2-Pf-HR :-nan: L2-HR :0.74886: (Sim:1h52m45s) 
CPU  1 inst:  129000004 cyc:  159613765 now IPC :0.61021: AVG IPC :0.80061: L2-Pf-HR :-nan: L2-HR :0.74828: (Sim:1h52m50s) 
CPU  0 inst:  129000004 cyc:  160283377 now IPC :0.49195: AVG IPC :0.79724: L2-Pf-HR :-nan: L2-HR :0.74908: (Sim:1h53m7s) 
CPU  3 inst:  130000002 cyc:  161650172 now IPC :0.12487: AVG IPC :0.79668: L2-Pf-HR :-nan: L2-HR :0.73604: (Sim:1h53m32s) 
CPU  2 inst:  130000005 cyc:  177276563 now IPC :0.05613: AVG IPC :0.72607: L2-Pf-HR :-nan: L2-HR :0.73625: (Sim:1h58m59s) 
CPU  1 inst:  130000002 cyc:  177575010 now IPC :0.05568: AVG IPC :0.72484: L2-Pf-HR :-nan: L2-HR :0.73572: (Sim:1h59m6s) 
CPU  0 inst:  130000005 cyc:  179156835 now IPC :0.05298: AVG IPC :0.71840: L2-Pf-HR :-nan: L2-HR :0.73652: (Sim:1h59m41s) 
CPU  3 inst:  131000001 cyc:  183269664 now IPC :0.04625: AVG IPC :0.70768: L2-Pf-HR :-nan: L2-HR :0.72190: (Sim:2h1m12s) 
CPU  2 inst:  131000001 cyc:  199096756 now IPC :0.04583: AVG IPC :0.65115: L2-Pf-HR :-nan: L2-HR :0.72210: (Sim:2h7m42s) 
CPU  1 inst:  131000001 cyc:  199389606 now IPC :0.04584: AVG IPC :0.65018: L2-Pf-HR :-nan: L2-HR :0.72160: (Sim:2h7m50s) 
CPU  0 inst:  131000001 cyc:  200977663 now IPC :0.04583: AVG IPC :0.64502: L2-Pf-HR :-nan: L2-HR :0.72235: (Sim:2h8m31s) 
CPU  3 inst:  132000000 cyc:  205099439 now IPC :0.04581: AVG IPC :0.63689: L2-Pf-HR :-nan: L2-HR :0.70936: (Sim:2h10m17s) 
CPU  2 inst:  132000003 cyc:  220955262 now IPC :0.04575: AVG IPC :0.59099: L2-Pf-HR :-nan: L2-HR :0.70955: (Sim:2h15m37s) 
CPU  1 inst:  132000003 cyc:  221161756 now IPC :0.04593: AVG IPC :0.59043: L2-Pf-HR :-nan: L2-HR :0.70908: (Sim:2h15m40s) 
CPU  0 inst:  132000000 cyc:  222877542 now IPC :0.04566: AVG IPC :0.58587: L2-Pf-HR :-nan: L2-HR :0.70979: (Sim:2h16m5s) 
CPU  3 inst:  133000001 cyc:  226957861 now IPC :0.04575: AVG IPC :0.57971: L2-Pf-HR :-nan: L2-HR :0.69817: (Sim:2h17m6s) 
CPU  2 inst:  133000001 cyc:  242757444 now IPC :0.04587: AVG IPC :0.54183: L2-Pf-HR :-nan: L2-HR :0.69835: (Sim:2h22m26s) 
CPU  1 inst:  133000001 cyc:  243058431 now IPC :0.04567: AVG IPC :0.54116: L2-Pf-HR :-nan: L2-HR :0.69790: (Sim:2h22m34s) 
CPU  0 inst:  133000001 cyc:  244774503 now IPC :0.04567: AVG IPC :0.53735: L2-Pf-HR :-nan: L2-HR :0.69857: (Sim:2h23m19s) 
CPU  3 inst:  134000000 cyc:  248579869 now IPC :0.04625: AVG IPC :0.53313: L2-Pf-HR :-nan: L2-HR :0.68841: (Sim:2h24m54s) 
CPU  2 inst:  134000000 cyc:  260255990 now IPC :0.05715: AVG IPC :0.50912: L2-Pf-HR :-nan: L2-HR :0.68858: (Sim:2h29m21s) 
CPU  1 inst:  134000000 cyc:  260347079 now IPC :0.05784: AVG IPC :0.50894: L2-Pf-HR :-nan: L2-HR :0.68815: (Sim:2h29m23s) 
CPU  0 inst:  134000000 cyc:  260680470 now IPC :0.06287: AVG IPC :0.50829: L2-Pf-HR :-nan: L2-HR :0.68879: (Sim:2h29m30s) 
CPU  3 inst:  135000000 cyc:  262962555 now IPC :0.06953: AVG IPC :0.50767: L2-Pf-HR :-nan: L2-HR :0.68642: (Sim:2h30m28s) 
CPU  2 inst:  135000000 cyc:  266749305 now IPC :0.15400: AVG IPC :0.50044: L2-Pf-HR :-nan: L2-HR :0.68659: (Sim:2h31m44s) 
CPU  1 inst:  135000000 cyc:  266817162 now IPC :0.15456: AVG IPC :0.50031: L2-Pf-HR :-nan: L2-HR :0.68616: (Sim:2h31m45s) 
CPU  0 inst:  135000000 cyc:  267093598 now IPC :0.15593: AVG IPC :0.49979: L2-Pf-HR :-nan: L2-HR :0.68680: (Sim:2h31m50s) 
CPU  3 inst:  136000002 cyc:  269375011 now IPC :0.15595: AVG IPC :0.49927: L2-Pf-HR :-nan: L2-HR :0.68444: (Sim:2h32m45s) 
CPU  2 inst:  136000002 cyc:  273158787 now IPC :0.15602: AVG IPC :0.49233: L2-Pf-HR :-nan: L2-HR :0.68461: (Sim:2h34m17s) 
CPU  1 inst:  136000002 cyc:  273201929 now IPC :0.15662: AVG IPC :0.49225: L2-Pf-HR :-nan: L2-HR :0.68418: (Sim:2h34m18s) 
CPU  0 inst:  136000002 cyc:  273480874 now IPC :0.15656: AVG IPC :0.49175: L2-Pf-HR :-nan: L2-HR :0.68482: (Sim:2h34m25s) 
CPU  3 inst:  137000000 cyc:  275742611 now IPC :0.15704: AVG IPC :0.49134: L2-Pf-HR :-nan: L2-HR :0.68248: (Sim:2h35m19s) 
CPU  2 inst:  137000000 cyc:  279509011 now IPC :0.15747: AVG IPC :0.48470: L2-Pf-HR :-nan: L2-HR :0.68265: (Sim:2h36m51s) 
CPU  1 inst:  137000000 cyc:  279544612 now IPC :0.15766: AVG IPC :0.48463: L2-Pf-HR :-nan: L2-HR :0.68223: (Sim:2h36m51s) 
CPU  0 inst:  137000000 cyc:  279814258 now IPC :0.15789: AVG IPC :0.48417: L2-Pf-HR :-nan: L2-HR :0.68286: (Sim:2h36m58s) 
CPU  3 inst:  138000000 cyc:  282064795 now IPC :0.15817: AVG IPC :0.48385: L2-Pf-HR :-nan: L2-HR :0.68055: (Sim:2h37m53s) 
CPU  2 inst:  138000000 cyc:  285790640 now IPC :0.15919: AVG IPC :0.47752: L2-Pf-HR :-nan: L2-HR :0.68072: (Sim:2h39m23s) 
CPU  1 inst:  138000000 cyc:  285832800 now IPC :0.15903: AVG IPC :0.47745: L2-Pf-HR :-nan: L2-HR :0.68030: (Sim:2h39m24s) 
CPU  0 inst:  138000000 cyc:  286110593 now IPC :0.15882: AVG IPC :0.47698: L2-Pf-HR :-nan: L2-HR :0.68093: (Sim:2h39m31s) 
CPU  3 inst:  139000000 cyc:  288379125 now IPC :0.15837: AVG IPC :0.47670: L2-Pf-HR :-nan: L2-HR :0.67864: (Sim:2h40m26s) 
CPU  2 inst:  139000000 cyc:  292106341 now IPC :0.15834: AVG IPC :0.47059: L2-Pf-HR :-nan: L2-HR :0.67880: (Sim:2h42m0s) 
CPU  1 inst:  139000000 cyc:  292133672 now IPC :0.15871: AVG IPC :0.47055: L2-Pf-HR :-nan: L2-HR :0.67839: (Sim:2h42m0s) 
CPU  0 inst:  139000000 cyc:  292410314 now IPC :0.15874: AVG IPC :0.47010: L2-Pf-HR :-nan: L2-HR :0.67901: (Sim:2h42m7s) 
CPU  3 inst:  140000002 cyc:  294678576 now IPC :0.15874: AVG IPC :0.46988: L2-Pf-HR :-nan: L2-HR :0.67675: (Sim:2h43m5s) 
CPU  2 inst:  140000002 cyc:  298408883 now IPC :0.15867: AVG IPC :0.46398: L2-Pf-HR :-nan: L2-HR :0.67691: (Sim:2h44m40s) 
CPU  1 inst:  140000002 cyc:  298435923 now IPC :0.15867: AVG IPC :0.46394: L2-Pf-HR :-nan: L2-HR :0.67650: (Sim:2h44m40s) 
CPU  0 inst:  140000002 cyc:  298717633 now IPC :0.15855: AVG IPC :0.46350: L2-Pf-HR :-nan: L2-HR :0.67712: (Sim:2h44m48s) 
CPU  3 inst:  141000004 cyc:  300985023 now IPC :0.15857: AVG IPC :0.46333: L2-Pf-HR :-nan: L2-HR :0.67487: (Sim:2h45m45s) 
CPU  2 inst:  141000004 cyc:  304726029 now IPC :0.15830: AVG IPC :0.45763: L2-Pf-HR :-nan: L2-HR :0.67504: (Sim:2h47m20s) 
CPU  1 inst:  141000004 cyc:  304762323 now IPC :0.15807: AVG IPC :0.45757: L2-Pf-HR :-nan: L2-HR :0.67463: (Sim:2h47m21s) 
CPU  0 inst:  141000004 cyc:  305029624 now IPC :0.15843: AVG IPC :0.45717: L2-Pf-HR :-nan: L2-HR :0.67524: (Sim:2h47m28s) 
CPU  3 inst:  142000004 cyc:  307297465 now IPC :0.15842: AVG IPC :0.45705: L2-Pf-HR :-nan: L2-HR :0.67302: (Sim:2h48m25s) 
CPU  2 inst:  142000004 cyc:  311042787 now IPC :0.15831: AVG IPC :0.45153: L2-Pf-HR :-nan: L2-HR :0.67318: (Sim:2h49m55s) 
CPU  1 inst:  142000004 cyc:  311074803 now IPC :0.15842: AVG IPC :0.45148: L2-Pf-HR :-nan: L2-HR :0.67278: (Sim:2h49m56s) 
CPU  0 inst:  142000004 cyc:  311350046 now IPC :0.15822: AVG IPC :0.45108: L2-Pf-HR :-nan: L2-HR :0.67339: (Sim:2h50m3s) 
CPU  3 inst:  143000000 cyc:  313625037 now IPC :0.15804: AVG IPC :0.45100: L2-Pf-HR :-nan: L2-HR :0.67119: (Sim:2h50m58s) 
CPU  2 inst:  143000000 cyc:  317371265 now IPC :0.15802: AVG IPC :0.44566: L2-Pf-HR :-nan: L2-HR :0.67135: (Sim:2h52m25s) 
CPU  1 inst:  143000000 cyc:  317398677 now IPC :0.15813: AVG IPC :0.44562: L2-Pf-HR :-nan: L2-HR :0.67095: (Sim:2h52m25s) 
CPU  0 inst:  143000000 cyc:  317672301 now IPC :0.15817: AVG IPC :0.44523: L2-Pf-HR :-nan: L2-HR :0.67155: (Sim:2h52m31s) 
CPU  3 inst:  144000003 cyc:  319943500 now IPC :0.15827: AVG IPC :0.44520: L2-Pf-HR :-nan: L2-HR :0.66938: (Sim:2h53m23s) 
CPU  2 inst:  144000003 cyc:  323666498 now IPC :0.15885: AVG IPC :0.44006: L2-Pf-HR :-nan: L2-HR :0.66954: (Sim:2h54m51s) 
CPU  1 inst:  144000003 cyc:  323689645 now IPC :0.15896: AVG IPC :0.44003: L2-Pf-HR :-nan: L2-HR :0.66913: (Sim:2h54m51s) 
CPU  0 inst:  144000003 cyc:  323965463 now IPC :0.15890: AVG IPC :0.43965: L2-Pf-HR :-nan: L2-HR :0.66974: (Sim:2h54m58s) 
CPU  3 inst:  145000002 cyc:  326215213 now IPC :0.15945: AVG IPC :0.43969: L2-Pf-HR :-nan: L2-HR :0.66759: (Sim:2h55m50s) 
CPU  2 inst:  145000002 cyc:  329937436 now IPC :0.15947: AVG IPC :0.43471: L2-Pf-HR :-nan: L2-HR :0.66775: (Sim:2h57m17s) 
CPU  1 inst:  145000002 cyc:  329978920 now IPC :0.15900: AVG IPC :0.43466: L2-Pf-HR :-nan: L2-HR :0.66735: (Sim:2h57m18s) 
CPU  0 inst:  145000002 cyc:  330250595 now IPC :0.15911: AVG IPC :0.43430: L2-Pf-HR :-nan: L2-HR :0.66795: (Sim:2h57m25s) 
CPU  3 inst:  146000000 cyc:  332527526 now IPC :0.15842: AVG IPC :0.43433: L2-Pf-HR :-nan: L2-HR :0.66582: (Sim:2h58m18s) 
CPU  2 inst:  146000000 cyc:  336252773 now IPC :0.15834: AVG IPC :0.42951: L2-Pf-HR :-nan: L2-HR :0.66598: (Sim:2h59m13s) 
CPU  1 inst:  146000000 cyc:  336277952 now IPC :0.15875: AVG IPC :0.42947: L2-Pf-HR :-nan: L2-HR :0.66558: (Sim:2h59m14s) 
CPU  0 inst:  146000000 cyc:  336550202 now IPC :0.15874: AVG IPC :0.42913: L2-Pf-HR :-nan: L2-HR :0.66618: (Sim:2h59m17s) 
CPU  3 inst:  147000000 cyc:  338831134 now IPC :0.15864: AVG IPC :0.42919: L2-Pf-HR :-nan: L2-HR :0.66406: (Sim:2h59m47s) 
CPU  2 inst:  147000000 cyc:  342557157 now IPC :0.15862: AVG IPC :0.42451: L2-Pf-HR :-nan: L2-HR :0.66422: (Sim:3h0m35s) 
CPU  1 inst:  147000000 cyc:  342582037 now IPC :0.15863: AVG IPC :0.42448: L2-Pf-HR :-nan: L2-HR :0.66382: (Sim:3h0m35s) 
CPU  0 inst:  147000000 cyc:  342877913 now IPC :0.15804: AVG IPC :0.42411: L2-Pf-HR :-nan: L2-HR :0.66442: (Sim:3h0m39s) 
CPU  3 inst:  148000003 cyc:  345117844 now IPC :0.15907: AVG IPC :0.42425: L2-Pf-HR :-nan: L2-HR :0.66233: (Sim:3h1m8s) 
CPU  2 inst:  148000003 cyc:  348867621 now IPC :0.15847: AVG IPC :0.41968: L2-Pf-HR :-nan: L2-HR :0.66248: (Sim:3h1m56s) 
CPU  1 inst:  148000003 cyc:  348896867 now IPC :0.15836: AVG IPC :0.41965: L2-Pf-HR :-nan: L2-HR :0.66209: (Sim:3h1m57s) 
CPU  0 inst:  148000003 cyc:  349171044 now IPC :0.15890: AVG IPC :0.41931: L2-Pf-HR :-nan: L2-HR :0.66268: (Sim:3h2m0s) 
CPU  3 inst:  149000002 cyc:  351455159 now IPC :0.15780: AVG IPC :0.41943: L2-Pf-HR :-nan: L2-HR :0.66061: (Sim:3h2m29s) 
CPU  2 inst:  149000002 cyc:  355168904 now IPC :0.15870: AVG IPC :0.41504: L2-Pf-HR :-nan: L2-HR :0.66076: (Sim:3h3m17s) 
CPU  1 inst:  149000002 cyc:  355203599 now IPC :0.15856: AVG IPC :0.41500: L2-Pf-HR :-nan: L2-HR :0.66037: (Sim:3h3m18s) 
CPU  0 inst:  149000002 cyc:  355471141 now IPC :0.15873: AVG IPC :0.41468: L2-Pf-HR :-nan: L2-HR :0.66096: (Sim:3h3m21s) 
CPU  3 inst:  150000000 cyc:  357721349 now IPC :0.15959: AVG IPC :0.41487: L2-Pf-HR :-nan: L2-HR :0.65891: (Sim:3h4m4s) 
CPU  2 inst:  150000000 cyc:  361395057 now IPC :0.16061: AVG IPC :0.41064: L2-Pf-HR :-nan: L2-HR :0.65906: (Sim:3h5m19s) 
CPU  1 inst:  150000000 cyc:  361453761 now IPC :0.16000: AVG IPC :0.41058: L2-Pf-HR :-nan: L2-HR :0.65867: (Sim:3h5m20s) 
CPU  0 inst:  150000000 cyc:  361710366 now IPC :0.16028: AVG IPC :0.41028: L2-Pf-HR :-nan: L2-HR :0.65926: (Sim:3h5m25s) 
CPU  3 inst:  151000000 cyc:  363985976 now IPC :0.15963: AVG IPC :0.41047: L2-Pf-HR :-nan: L2-HR :0.65722: (Sim:3h6m11s) 
CPU  2 inst:  151000000 cyc:  367714649 now IPC :0.15824: AVG IPC :0.40629: L2-Pf-HR :-nan: L2-HR :0.65738: (Sim:3h7m27s) 
CPU  1 inst:  151000000 cyc:  367788067 now IPC :0.15787: AVG IPC :0.40621: L2-Pf-HR :-nan: L2-HR :0.65699: (Sim:3h7m28s) 
CPU  0 inst:  151000000 cyc:  368039824 now IPC :0.15799: AVG IPC :0.40593: L2-Pf-HR :-nan: L2-HR :0.65757: (Sim:3h7m33s) 
CPU  3 inst:  152000002 cyc:  370319103 now IPC :0.15790: AVG IPC :0.40613: L2-Pf-HR :-nan: L2-HR :0.65556: (Sim:3h8m19s) 
CPU  2 inst:  152000002 cyc:  374040979 now IPC :0.15807: AVG IPC :0.40208: L2-Pf-HR :-nan: L2-HR :0.65571: (Sim:3h9m35s) 
CPU  1 inst:  152000002 cyc:  374112418 now IPC :0.15812: AVG IPC :0.40201: L2-Pf-HR :-nan: L2-HR :0.65532: (Sim:3h9m36s) 
CPU  0 inst:  152000002 cyc:  374350437 now IPC :0.15846: AVG IPC :0.40175: L2-Pf-HR :-nan: L2-HR :0.65591: (Sim:3h9m41s) 
CPU  3 inst:  153000002 cyc:  376608336 now IPC :0.15900: AVG IPC :0.40200: L2-Pf-HR :-nan: L2-HR :0.65392: (Sim:3h10m27s) 
CPU  2 inst:  153000002 cyc:  380303783 now IPC :0.15967: AVG IPC :0.39808: L2-Pf-HR :-nan: L2-HR :0.65407: (Sim:3h11m41s) 
CPU  1 inst:  153000002 cyc:  380385792 now IPC :0.15940: AVG IPC :0.39800: L2-Pf-HR :-nan: L2-HR :0.65368: (Sim:3h11m43s) 
CPU  0 inst:  153000002 cyc:  380622514 now IPC :0.15944: AVG IPC :0.39775: L2-Pf-HR :-nan: L2-HR :0.65426: (Sim:3h11m48s) 
CPU  3 inst:  154000000 cyc:  382899989 now IPC :0.15894: AVG IPC :0.39799: L2-Pf-HR :-nan: L2-HR :0.65228: (Sim:3h12m34s) 
CPU  2 inst:  154000000 cyc:  386619638 now IPC :0.15833: AVG IPC :0.39415: L2-Pf-HR :-nan: L2-HR :0.65243: (Sim:3h13m25s) 
CPU  1 inst:  154000000 cyc:  386720123 now IPC :0.15787: AVG IPC :0.39405: L2-Pf-HR :-nan: L2-HR :0.65205: (Sim:3h13m26s) 
CPU  0 inst:  154000000 cyc:  386944413 now IPC :0.15818: AVG IPC :0.39382: L2-Pf-HR :-nan: L2-HR :0.65263: (Sim:3h13m29s) 
CPU  3 inst:  155000000 cyc:  389229044 now IPC :0.15800: AVG IPC :0.39408: L2-Pf-HR :-nan: L2-HR :0.65067: (Sim:3h13m58s) 
CPU  2 inst:  155000000 cyc:  392907894 now IPC :0.15903: AVG IPC :0.39038: L2-Pf-HR :-nan: L2-HR :0.65082: (Sim:3h14m45s) 
CPU  1 inst:  155000000 cyc:  393017635 now IPC :0.15879: AVG IPC :0.39027: L2-Pf-HR :-nan: L2-HR :0.65044: (Sim:3h14m46s) 
CPU  0 inst:  155000000 cyc:  393231020 now IPC :0.15907: AVG IPC :0.39006: L2-Pf-HR :-nan: L2-HR :0.65101: (Sim:3h14m49s) 
CPU  3 inst:  156000000 cyc:  395509889 now IPC :0.15921: AVG IPC :0.39034: L2-Pf-HR :-nan: L2-HR :0.64907: (Sim:3h15m18s) 
CPU  2 inst:  156000000 cyc:  399213424 now IPC :0.15859: AVG IPC :0.38671: L2-Pf-HR :-nan: L2-HR :0.64922: (Sim:3h16m5s) 
CPU  1 inst:  156000000 cyc:  399319941 now IPC :0.15867: AVG IPC :0.38661: L2-Pf-HR :-nan: L2-HR :0.64884: (Sim:3h16m6s) 
CPU  0 inst:  156000000 cyc:  399539747 now IPC :0.15851: AVG IPC :0.38639: L2-Pf-HR :-nan: L2-HR :0.64941: (Sim:3h16m9s) 
CPU  3 inst:  157000002 cyc:  401791398 now IPC :0.15920: AVG IPC :0.38672: L2-Pf-HR :-nan: L2-HR :0.64749: (Sim:3h16m38s) 
CPU  2 inst:  157000002 cyc:  405481649 now IPC :0.15954: AVG IPC :0.38319: L2-Pf-HR :-nan: L2-HR :0.64763: (Sim:3h17m25s) 
CPU  1 inst:  157000002 cyc:  405564966 now IPC :0.16013: AVG IPC :0.38311: L2-Pf-HR :-nan: L2-HR :0.64726: (Sim:3h17m26s) 
CPU  0 inst:  157000002 cyc:  405800024 now IPC :0.15974: AVG IPC :0.38289: L2-Pf-HR :-nan: L2-HR :0.64782: (Sim:3h17m29s) 
CPU  3 inst:  158000000 cyc:  408080324 now IPC :0.15901: AVG IPC :0.38320: L2-Pf-HR :-nan: L2-HR :0.64592: (Sim:3h17m58s) 
CPU  2 inst:  158000000 cyc:  411804706 now IPC :0.15815: AVG IPC :0.37973: L2-Pf-HR :-nan: L2-HR :0.64606: (Sim:3h18m46s) 
CPU  1 inst:  158000000 cyc:  411879311 now IPC :0.15837: AVG IPC :0.37966: L2-Pf-HR :-nan: L2-HR :0.64569: (Sim:3h18m47s) 
CPU  0 inst:  158000000 cyc:  412127751 now IPC :0.15803: AVG IPC :0.37943: L2-Pf-HR :-nan: L2-HR :0.64625: (Sim:3h18m50s) 
CPU  3 inst:  159000004 cyc:  414391492 now IPC :0.15845: AVG IPC :0.37977: L2-Pf-HR :-nan: L2-HR :0.64437: (Sim:3h19m19s) 
CPU  2 inst:  159000004 cyc:  418101849 now IPC :0.15880: AVG IPC :0.37639: L2-Pf-HR :-nan: L2-HR :0.64451: (Sim:3h20m49s) 
CPU  1 inst:  159000004 cyc:  418189433 now IPC :0.15848: AVG IPC :0.37631: L2-Pf-HR :-nan: L2-HR :0.64414: (Sim:3h20m51s) 
CPU  0 inst:  159000004 cyc:  418422923 now IPC :0.15885: AVG IPC :0.37610: L2-Pf-HR :-nan: L2-HR :0.64470: (Sim:3h20m57s) 
CPU  3 inst:  160000001 cyc:  420692336 now IPC :0.15871: AVG IPC :0.37645: L2-Pf-HR :-nan: L2-HR :0.64284: (Sim:3h21m55s) 
[...]
Core_0_L1I_prefetch_miss 0
Core_0_L1I_writebacks 0
Core_0_L1I_writeback_hit 0
Core_0_L1I_writeback_miss 0

Core_0_L2C_total_access 14727284
Core_0_L2C_total_hit 11670059
Core_0_L2C_total_miss 3057225
Core_0_L2C_loads 12223514
Core_0_L2C_load_hit 9691980
Core_0_L2C_load_miss 2531534
Core_0_L2C_RFOs 566193
Core_0_L2C_RFO_hit 41381
Core_0_L2C_RFO_miss 524812
Core_0_L2C_prefetches 0
Core_0_L2C_prefetch_hit 0
Core_0_L2C_prefetch_miss 0
Core_0_L2C_writebacks 1937577
Core_0_L2C_writeback_hit 1936698
Core_0_L2C_writeback_miss 879

Core_0_LLC_total_access 4869974
Core_0_LLC_total_hit 2057639
Core_0_LLC_total_miss 2812335
Core_0_LLC_loads 2531527
Core_0_LLC_load_hit 275432
Core_0_LLC_load_miss 2256095
Core_0_LLC_RFOs 524812
Core_0_LLC_RFO_hit 90
Core_0_LLC_RFO_miss 524722
Core_0_LLC_prefetches 0
Core_0_LLC_prefetch_hit 0
Core_0_LLC_prefetch_miss 0
Core_0_LLC_writebacks 1813635
Core_0_LLC_writeback_hit 1782117
Core_0_LLC_writeback_miss 31518


CPU 1 cumulative IPC: 0.42619 instructions: 326387588 cycles: 765830511
Core_1_L1D_total_access 89185407
Core_1_L1D_total_hit 76375412
Core_1_L1D_total_miss 12809995
Core_1_L1D_loads 80807004
Core_1_L1D_load_hit 68562806
Core_1_L1D_load_miss 12244198
Core_1_L1D_RFOs 8378403
Core_1_L1D_RFO_hit 7812606
Core_1_L1D_RFO_miss 565797
Core_1_L1D_prefetches 0
Core_1_L1D_prefetch_hit 0
Core_1_L1D_prefetch_miss 0
Core_1_L1D_writebacks 0
Core_1_L1D_writeback_hit 0
Core_1_L1D_writeback_miss 0

Core_1_L1I_total_access 47930775
Core_1_L1I_total_hit 47925851
Core_1_L1I_total_miss 4924
Core_1_L1I_loads 47930775
Core_1_L1I_load_hit 47925851
Core_1_L1I_load_miss 4924
Core_1_L1I_RFOs 0
Core_1_L1I_RFO_hit 0
Core_1_L1I_RFO_miss 0
Core_1_L1I_prefetches 0
Core_1_L1I_prefetch_hit 0
Core_1_L1I_prefetch_miss 0
Core_1_L1I_writebacks 0
Core_1_L1I_writeback_hit 0
Core_1_L1I_writeback_miss 0

Core_1_L2C_total_access 14752883
Core_1_L2C_total_hit 11690046
Core_1_L2C_total_miss 3062837
Core_1_L2C_loads 12249109
Core_1_L2C_load_hit 9711986
Core_1_L2C_load_miss 2537123
Core_1_L2C_RFOs 565796
Core_1_L2C_RFO_hit 40938
Core_1_L2C_RFO_miss 524858
Core_1_L2C_prefetches 0
Core_1_L2C_prefetch_hit 0
Core_1_L2C_prefetch_miss 0
Core_1_L2C_writebacks 1937978
Core_1_L2C_writeback_hit 1937122
Core_1_L2C_writeback_miss 856

Core_1_LLC_total_access 4881543
Core_1_LLC_total_hit 2071447
Core_1_LLC_total_miss 2810096
Core_1_LLC_loads 2537117
Core_1_LLC_load_hit 277693
Core_1_LLC_load_miss 2259424
Core_1_LLC_RFOs 524858
Core_1_LLC_RFO_hit 160
Core_1_LLC_RFO_miss 524698
Core_1_LLC_prefetches 0
Core_1_LLC_prefetch_hit 0
Core_1_LLC_prefetch_miss 0
Core_1_LLC_writebacks 1819568
Core_1_LLC_writeback_hit 1793594
Core_1_LLC_writeback_miss 25974


CPU 2 cumulative IPC: 0.42639 instructions: 326543301 cycles: 765830511
Core_2_L1D_total_access 89226260
Core_2_L1D_total_hit 76405817
Core_2_L1D_total_miss 12820443
Core_2_L1D_loads 80846954
Core_2_L1D_load_hit 68592345
Core_2_L1D_load_miss 12254609
Core_2_L1D_RFOs 8379306
Core_2_L1D_RFO_hit 7813472
Core_2_L1D_RFO_miss 565834
Core_2_L1D_prefetches 0
Core_2_L1D_prefetch_hit 0
Core_2_L1D_prefetch_miss 0
Core_2_L1D_writebacks 0
Core_2_L1D_writeback_hit 0
Core_2_L1D_writeback_miss 0

Core_2_L1I_total_access 47944422
Core_2_L1I_total_hit 47939501
Core_2_L1I_total_miss 4921
Core_2_L1I_loads 47944422
Core_2_L1I_load_hit 47939501
Core_2_L1I_load_miss 4921
Core_2_L1I_RFOs 0
Core_2_L1I_RFO_hit 0
Core_2_L1I_RFO_miss 0
Core_2_L1I_prefetches 0
Core_2_L1I_prefetch_hit 0
Core_2_L1I_prefetch_miss 0
Core_2_L1I_writebacks 0
Core_2_L1I_writeback_hit 0
Core_2_L1I_writeback_miss 0

Core_2_L2C_total_access 14763492
Core_2_L2C_total_hit 11701966
Core_2_L2C_total_miss 3061526
Core_2_L2C_loads 12259516
Core_2_L2C_load_hit 9723721
Core_2_L2C_load_miss 2535795
Core_2_L2C_RFOs 565834
Core_2_L2C_RFO_hit 40974
Core_2_L2C_RFO_miss 524860
Core_2_L2C_prefetches 0
Core_2_L2C_prefetch_hit 0
Core_2_L2C_prefetch_miss 0
Core_2_L2C_writebacks 1938142
Core_2_L2C_writeback_hit 1937271
Core_2_L2C_writeback_miss 871

Core_2_LLC_total_access 4874999
Core_2_LLC_total_hit 2062421
Core_2_LLC_total_miss 2812578
Core_2_LLC_loads 2535789
Core_2_LLC_load_hit 277008
Core_2_LLC_load_miss 2258781
Core_2_LLC_RFOs 524860
Core_2_LLC_RFO_hit 190
Core_2_LLC_RFO_miss 524670
Core_2_LLC_prefetches 0
Core_2_LLC_prefetch_hit 0
Core_2_LLC_prefetch_miss 0
Core_2_LLC_writebacks 1814350
Core_2_LLC_writeback_hit 1785223
Core_2_LLC_writeback_miss 29127


CPU 3 cumulative IPC: 0.43197 instructions: 330818401 cycles: 765830512
Core_3_L1D_total_access 90259144
Core_3_L1D_total_hit 77228572
Core_3_L1D_total_miss 13030572
Core_3_L1D_loads 81846450
Core_3_L1D_load_hit 69382740
Core_3_L1D_load_miss 12463710
Core_3_L1D_RFOs 8412694
Core_3_L1D_RFO_hit 7845832
Core_3_L1D_RFO_miss 566862
Core_3_L1D_prefetches 0
Core_3_L1D_prefetch_hit 0
Core_3_L1D_prefetch_miss 0
Core_3_L1D_writebacks 0
Core_3_L1D_writeback_hit 0
Core_3_L1D_writeback_miss 0

Core_3_L1I_total_access 48367024
Core_3_L1I_total_hit 48356498
Core_3_L1I_total_miss 10526
Core_3_L1I_loads 48367024
Core_3_L1I_load_hit 48356498
Core_3_L1I_load_miss 10526
Core_3_L1I_RFOs 0
Core_3_L1I_RFO_hit 0
Core_3_L1I_RFO_miss 0
Core_3_L1I_prefetches 0
Core_3_L1I_prefetch_hit 0
Core_3_L1I_prefetch_miss 0
Core_3_L1I_writebacks 0
Core_3_L1I_writeback_hit 0
Core_3_L1I_writeback_miss 0

Core_3_L2C_total_access 14992000
Core_3_L2C_total_hit 11903169
Core_3_L2C_total_miss 3088831
Core_3_L2C_loads 12474223
Core_3_L2C_load_hit 9911199
Core_3_L2C_load_miss 2563024
Core_3_L2C_RFOs 566862
Core_3_L2C_RFO_hit 41947
Core_3_L2C_RFO_miss 524915
Core_3_L2C_prefetches 0
Core_3_L2C_prefetch_hit 0
Core_3_L2C_prefetch_miss 0
Core_3_L2C_writebacks 1950915
Core_3_L2C_writeback_hit 1950023
Core_3_L2C_writeback_miss 892

Core_3_LLC_total_access 4904711
Core_3_LLC_total_hit 2069896
Core_3_LLC_total_miss 2834815
Core_3_LLC_loads 2563015
Core_3_LLC_load_hit 299106
Core_3_LLC_load_miss 2263909
Core_3_LLC_RFOs 524915
Core_3_LLC_RFO_hit 110
Core_3_LLC_RFO_miss 524805
Core_3_LLC_prefetches 0
Core_3_LLC_prefetch_hit 0
Core_3_LLC_prefetch_miss 0
Core_3_LLC_writebacks 1816781
Core_3_LLC_writeback_hit 1770680
Core_3_LLC_writeback_miss 46101


[ROI Statistics]
Core_0_instructions 326000005
Core_0_cycles 765830511
Core_0_IPC 0.42568

Core_0_branch_prediction_accuracy 99.57883
Core_0_branch_MPKI 0.12289
Core_0_average_ROB_occupancy_at_mispredict 563.84429

Core_0_L1D_total_access 89082957
Core_0_L1D_total_hit 76298160 L1D_total_Hit Ratio: 0.85648
Core_0_L1D_total_miss 12784797
Core_0_L1D_loads 80705139
Core_0_L1D_load_hit 68486535 L1D_load_Hit Ratio: 0.84860
Core_0_L1D_load_miss 12218604
Core_0_L1D_RFOs 8377818
Core_0_L1D_RFO_hit 7811625 L1D_RFO_Hit Ratio: 0.93242
Core_0_L1D_RFO_miss 566193
Core_0_L1D_prefetches 0
Core_0_L1D_prefetch_hit 0 L1D_prefetch_Hit Ratio: -nan
Core_0_L1D_prefetch_miss 0
Core_0_L1D_writebacks 0
Core_0_L1D_writeback_hit 0 L1D_writeback_Hit Ratio: -nan
Core_0_L1D_writeback_miss 0
Core_0_L1D_prefetch_requested 0
Core_0_L1D_prefetch_issued 0
Core_0_L1D_prefetch_useful 0 L1D_Useful Ratio: -nan
Core_0_L1D_prefetch_useless 0
Core_0_L1D_prefetch_late 0
Core_0_L1D_average_miss_latency 199.42785

Core_0_L1I_total_access 47887696
Core_0_L1I_total_hit 47882772 L1I_total_Hit Ratio: 0.99990
Core_0_L1I_total_miss 4924
Core_0_L1I_loads 47887696
Core_0_L1I_load_hit 47882772 L1I_load_Hit Ratio: 0.99990
Core_0_L1I_load_miss 4924
Core_0_L1I_RFOs 0
Core_0_L1I_RFO_hit 0 L1I_RFO_Hit Ratio: -nan
Core_0_L1I_RFO_miss 0
Core_0_L1I_prefetches 0
Core_0_L1I_prefetch_hit 0 L1I_prefetch_Hit Ratio: -nan
Core_0_L1I_prefetch_miss 0
Core_0_L1I_writebacks 0
Core_0_L1I_writeback_hit 0 L1I_writeback_Hit Ratio: -nan
Core_0_L1I_writeback_miss 0
Core_0_L1I_prefetch_requested 0
Core_0_L1I_prefetch_issued 0
Core_0_L1I_prefetch_useful 0 L1I_Useful Ratio: -nan
Core_0_L1I_prefetch_useless 0
Core_0_L1I_prefetch_late 0
Core_0_L1I_average_miss_latency 965.00122

Core_0_L2C_total_access 14727284
Core_0_L2C_total_hit 11670059 L2C_total_Hit Ratio: 0.79241
Core_0_L2C_total_miss 3057225
Core_0_L2C_loads 12223514
Core_0_L2C_load_hit 9691980 L2C_load_Hit Ratio: 0.79290
Core_0_L2C_load_miss 2531534
Core_0_L2C_RFOs 566193
Core_0_L2C_RFO_hit 41381 L2C_RFO_Hit Ratio: 0.07309
Core_0_L2C_RFO_miss 524812
Core_0_L2C_prefetches 0
Core_0_L2C_prefetch_hit 0 L2C_prefetch_Hit Ratio: -nan
Core_0_L2C_prefetch_miss 0
Core_0_L2C_writebacks 1937577
Core_0_L2C_writeback_hit 1936698 L2C_writeback_Hit Ratio: 0.99955
Core_0_L2C_writeback_miss 879
Core_0_L2C_prefetch_requested 0
Core_0_L2C_prefetch_issued 0
Core_0_L2C_prefetch_useful 0 L2C_Useful Ratio: -nan
Core_0_L2C_prefetch_useless 0
Core_0_L2C_prefetch_late 0
Core_0_L2C_average_miss_latency 771.90853

Core_0_LLC_total_access 4869974
Core_0_LLC_total_hit 2057639 LLC_total_Hit Ratio: 0.42252
Core_0_LLC_total_miss 2812335
Core_0_LLC_loads 2531527
Core_0_LLC_load_hit 275432 LLC_load_Hit Ratio: 0.10880
Core_0_LLC_load_miss 2256095
Core_0_LLC_RFOs 524812
Core_0_LLC_RFO_hit 90 LLC_RFO_Hit Ratio: 0.00017
Core_0_LLC_RFO_miss 524722
Core_0_LLC_prefetches 0
Core_0_LLC_prefetch_hit 0 LLC_prefetch_Hit Ratio: -nan
Core_0_LLC_prefetch_miss 0
Core_0_LLC_writebacks 1813635
Core_0_LLC_writeback_hit 1782117 LLC_writeback_Hit Ratio: 0.98262
Core_0_LLC_writeback_miss 31518
Core_0_LLC_prefetch_requested 0
Core_0_LLC_prefetch_issued 0
Core_0_LLC_prefetch_useful 0 LLC_Useful Ratio: -nan
Core_0_LLC_prefetch_useless 0
Core_0_LLC_prefetch_late 0
Core_0_LLC_average_miss_latency 3116.79290

Core_0_major_page_fault 0
Core_0_minor_page_fault 19454

Core_1_instructions 326000002
Core_1_cycles 765516083
Core_1_IPC 0.42586

Core_1_branch_prediction_accuracy 99.57881
Core_1_branch_MPKI 0.12278
Core_1_average_ROB_occupancy_at_mispredict 563.73531

Core_1_L1D_total_access 89082352
Core_1_L1D_total_hit 76298008 L1D_total_Hit Ratio: 0.85649
Core_1_L1D_total_miss 12784344
Core_1_L1D_loads 80704830
Core_1_L1D_load_hit 68486281 L1D_load_Hit Ratio: 0.84860
Core_1_L1D_load_miss 12218549
Core_1_L1D_RFOs 8377522
Core_1_L1D_RFO_hit 7811727 L1D_RFO_Hit Ratio: 0.93246
Core_1_L1D_RFO_miss 565795
Core_1_L1D_prefetches 0
Core_1_L1D_prefetch_hit 0 L1D_prefetch_Hit Ratio: -nan
Core_1_L1D_prefetch_miss 0
Core_1_L1D_writebacks 0
Core_1_L1D_writeback_hit 0 L1D_writeback_Hit Ratio: -nan
Core_1_L1D_writeback_miss 0
Core_1_L1D_prefetch_requested 0
Core_1_L1D_prefetch_issued 0
Core_1_L1D_prefetch_useful 0 L1D_Useful Ratio: -nan
Core_1_L1D_prefetch_useless 0
Core_1_L1D_prefetch_late 0
Core_1_L1D_average_miss_latency 200.02217

Core_1_L1I_total_access 47893022
Core_1_L1I_total_hit 47888098 L1I_total_Hit Ratio: 0.99990
Core_1_L1I_total_miss 4924
Core_1_L1I_loads 47893022
Core_1_L1I_load_hit 47888098 L1I_load_Hit Ratio: 0.99990
Core_1_L1I_load_miss 4924
Core_1_L1I_RFOs 0
Core_1_L1I_RFO_hit 0 L1I_RFO_Hit Ratio: -nan
Core_1_L1I_RFO_miss 0
Core_1_L1I_prefetches 0
Core_1_L1I_prefetch_hit 0 L1I_prefetch_Hit Ratio: -nan
Core_1_L1I_prefetch_miss 0
Core_1_L1I_writebacks 0
Core_1_L1I_writeback_hit 0 L1I_writeback_Hit Ratio: -nan
Core_1_L1I_writeback_miss 0
Core_1_L1I_prefetch_requested 0
Core_1_L1I_prefetch_issued 0
Core_1_L1I_prefetch_useful 0 L1I_Useful Ratio: -nan
Core_1_L1I_prefetch_useless 0
Core_1_L1I_prefetch_late 0
Core_1_L1I_average_miss_latency 908.69009

Core_1_L2C_total_access 14726827
Core_1_L2C_total_hit 11665790 L2C_total_Hit Ratio: 0.79215
Core_1_L2C_total_miss 3061037
Core_1_L2C_loads 12223461
Core_1_L2C_load_hit 9688138 L2C_load_Hit Ratio: 0.79259
Core_1_L2C_load_miss 2535323
Core_1_L2C_RFOs 565794
Core_1_L2C_RFO_hit 40936 L2C_RFO_Hit Ratio: 0.07235
Core_1_L2C_RFO_miss 524858
Core_1_L2C_prefetches 0
Core_1_L2C_prefetch_hit 0 L2C_prefetch_Hit Ratio: -nan
Core_1_L2C_prefetch_miss 0
Core_1_L2C_writebacks 1937572
Core_1_L2C_writeback_hit 1936716 L2C_writeback_Hit Ratio: 0.99956
Core_1_L2C_writeback_miss 856
Core_1_L2C_prefetch_requested 0
Core_1_L2C_prefetch_issued 0
Core_1_L2C_prefetch_useful 0 L2C_Useful Ratio: -nan
Core_1_L2C_prefetch_useless 0
Core_1_L2C_prefetch_late 0
Core_1_L2C_average_miss_latency 773.18215

Core_1_LLC_total_access 4879403
Core_1_LLC_total_hit 2071078 LLC_total_Hit Ratio: 0.42445
Core_1_LLC_total_miss 2808325
Core_1_LLC_loads 2535317
Core_1_LLC_load_hit 277541 LLC_load_Hit Ratio: 0.10947
Core_1_LLC_load_miss 2257776
Core_1_LLC_RFOs 524858
Core_1_LLC_RFO_hit 160 LLC_RFO_Hit Ratio: 0.00030
Core_1_LLC_RFO_miss 524698
Core_1_LLC_prefetches 0
Core_1_LLC_prefetch_hit 0 LLC_prefetch_Hit Ratio: -nan
Core_1_LLC_prefetch_miss 0
Core_1_LLC_writebacks 1819228
Core_1_LLC_writeback_hit 1793377 LLC_writeback_Hit Ratio: 0.98579
Core_1_LLC_writeback_miss 25851
Core_1_LLC_prefetch_requested 0
Core_1_LLC_prefetch_issued 0
Core_1_LLC_prefetch_useful 0 LLC_Useful Ratio: -nan
Core_1_LLC_prefetch_useless 0
Core_1_LLC_prefetch_late 0
Core_1_LLC_average_miss_latency 3121.24336

Core_1_major_page_fault 0
Core_1_minor_page_fault 19454

Core_2_instructions 326000003
Core_2_cycles 765393791
Core_2_IPC 0.42592

Core_2_branch_prediction_accuracy 99.57881
Core_2_branch_MPKI 0.12273
Core_2_average_ROB_occupancy_at_mispredict 563.73799

Core_2_L1D_total_access 89082451
Core_2_L1D_total_hit 76297954 L1D_total_Hit Ratio: 0.85649
Core_2_L1D_total_miss 12784497
Core_2_L1D_loads 80704392
Core_2_L1D_load_hit 68485726 L1D_load_Hit Ratio: 0.84860
Core_2_L1D_load_miss 12218666
Core_2_L1D_RFOs 8378059
Core_2_L1D_RFO_hit 7812228 L1D_RFO_Hit Ratio: 0.93246
Core_2_L1D_RFO_miss 565831
Core_2_L1D_prefetches 0
Core_2_L1D_prefetch_hit 0 L1D_prefetch_Hit Ratio: -nan
Core_2_L1D_prefetch_miss 0
Core_2_L1D_writebacks 0
Core_2_L1D_writeback_hit 0 L1D_writeback_Hit Ratio: -nan
Core_2_L1D_writeback_miss 0
Core_2_L1D_prefetch_requested 0
Core_2_L1D_prefetch_issued 0
Core_2_L1D_prefetch_useful 0 L1D_Useful Ratio: -nan
Core_2_L1D_prefetch_useless 0
Core_2_L1D_prefetch_late 0
Core_2_L1D_average_miss_latency 199.80920

Core_2_L1I_total_access 47891321
Core_2_L1I_total_hit 47886400 L1I_total_Hit Ratio: 0.99990
Core_2_L1I_total_miss 4921
Core_2_L1I_loads 47891321
Core_2_L1I_load_hit 47886400 L1I_load_Hit Ratio: 0.99990
Core_2_L1I_load_miss 4921
Core_2_L1I_RFOs 0
Core_2_L1I_RFO_hit 0 L1I_RFO_Hit Ratio: -nan
Core_2_L1I_RFO_miss 0
Core_2_L1I_prefetches 0
Core_2_L1I_prefetch_hit 0 L1I_prefetch_Hit Ratio: -nan
Core_2_L1I_prefetch_miss 0
Core_2_L1I_writebacks 0
Core_2_L1I_writeback_hit 0 L1I_writeback_Hit Ratio: -nan
Core_2_L1I_writeback_miss 0
Core_2_L1I_prefetch_requested 0
Core_2_L1I_prefetch_issued 0
Core_2_L1I_prefetch_useful 0 L1I_Useful Ratio: -nan
Core_2_L1I_prefetch_useless 0
Core_2_L1I_prefetch_late 0
Core_2_L1I_average_miss_latency 914.48161

Core_2_L2C_total_access 14726983
Core_2_L2C_total_hit 11668162 L2C_total_Hit Ratio: 0.79230
Core_2_L2C_total_miss 3058821
Core_2_L2C_loads 12223574
Core_2_L2C_load_hit 9690484 L2C_load_Hit Ratio: 0.79277
Core_2_L2C_load_miss 2533090
Core_2_L2C_RFOs 565831
Core_2_L2C_RFO_hit 40971 L2C_RFO_Hit Ratio: 0.07241
Core_2_L2C_RFO_miss 524860
Core_2_L2C_prefetches 0
Core_2_L2C_prefetch_hit 0 L2C_prefetch_Hit Ratio: -nan
Core_2_L2C_prefetch_miss 0
Core_2_L2C_writebacks 1937578
Core_2_L2C_writeback_hit 1936707 L2C_writeback_Hit Ratio: 0.99955
Core_2_L2C_writeback_miss 871
Core_2_L2C_prefetch_requested 0
Core_2_L2C_prefetch_issued 0
Core_2_L2C_prefetch_useful 0 L2C_Useful Ratio: -nan
Core_2_L2C_prefetch_useless 0
Core_2_L2C_prefetch_late 0
Core_2_L2C_average_miss_latency 772.81916

Core_2_LLC_total_access 4872026
Core_2_LLC_total_hit 2062025 LLC_total_Hit Ratio: 0.42324
Core_2_LLC_total_miss 2810001
Core_2_LLC_loads 2533084
Core_2_LLC_load_hit 276823 LLC_load_Hit Ratio: 0.10928
Core_2_LLC_load_miss 2256261
Core_2_LLC_RFOs 524860
Core_2_LLC_RFO_hit 190 LLC_RFO_Hit Ratio: 0.00036
Core_2_LLC_RFO_miss 524670
Core_2_LLC_prefetches 0
Core_2_LLC_prefetch_hit 0 LLC_prefetch_Hit Ratio: -nan
Core_2_LLC_prefetch_miss 0
Core_2_LLC_writebacks 1814082
Core_2_LLC_writeback_hit 1785012 LLC_writeback_Hit Ratio: 0.98398
Core_2_LLC_writeback_miss 29070
Core_2_LLC_prefetch_requested 0
Core_2_LLC_prefetch_issued 0
Core_2_LLC_prefetch_useful 0 LLC_Useful Ratio: -nan
Core_2_LLC_prefetch_useless 0
Core_2_LLC_prefetch_late 0
Core_2_LLC_average_miss_latency 3119.38172

Core_2_major_page_fault 0
Core_2_minor_page_fault 19454

Core_3_instructions 326000005
Core_3_cycles 761459883
Core_3_IPC 0.42812

Core_3_branch_prediction_accuracy 99.57122
Core_3_branch_MPKI 0.12387
Core_3_average_ROB_occupancy_at_mispredict 554.09829

Core_3_L1D_total_access 89095267
Core_3_L1D_total_hit 76309540 L1D_total_Hit Ratio: 0.85649
Core_3_L1D_total_miss 12785727
Core_3_L1D_loads 80714601
Core_3_L1D_load_hit 68495007 L1D_load_Hit Ratio: 0.84861
Core_3_L1D_load_miss 12219594
Core_3_L1D_RFOs 8380666
Core_3_L1D_RFO_hit 7814533 L1D_RFO_Hit Ratio: 0.93245
Core_3_L1D_RFO_miss 566133
Core_3_L1D_prefetches 0
Core_3_L1D_prefetch_hit 0 L1D_prefetch_Hit Ratio: -nan
Core_3_L1D_prefetch_miss 0
Core_3_L1D_writebacks 0
Core_3_L1D_writeback_hit 0 L1D_writeback_Hit Ratio: -nan
Core_3_L1D_writeback_miss 0
Core_3_L1D_prefetch_requested 0
Core_3_L1D_prefetch_issued 0
Core_3_L1D_prefetch_useful 0 L1D_Useful Ratio: -nan
Core_3_L1D_prefetch_useless 0
Core_3_L1D_prefetch_late 0
Core_3_L1D_average_miss_latency 194.12787

Core_3_L1I_total_access 47879630
Core_3_L1I_total_hit 47874709 L1I_total_Hit Ratio: 0.99990
Core_3_L1I_total_miss 4921
Core_3_L1I_loads 47879630
Core_3_L1I_load_hit 47874709 L1I_load_Hit Ratio: 0.99990
Core_3_L1I_load_miss 4921
Core_3_L1I_RFOs 0
Core_3_L1I_RFO_hit 0 L1I_RFO_Hit Ratio: -nan
Core_3_L1I_RFO_miss 0
Core_3_L1I_prefetches 0
Core_3_L1I_prefetch_hit 0 L1I_prefetch_Hit Ratio: -nan
Core_3_L1I_prefetch_miss 0
Core_3_L1I_writebacks 0
Core_3_L1I_writeback_hit 0 L1I_writeback_Hit Ratio: -nan
Core_3_L1I_writeback_miss 0
Core_3_L1I_prefetch_requested 0
Core_3_L1I_prefetch_issued 0
Core_3_L1I_prefetch_useful 0 L1I_Useful Ratio: -nan
Core_3_L1I_prefetch_useless 0
Core_3_L1I_prefetch_late 0
Core_3_L1I_average_miss_latency 1159.42146

Core_3_L2C_total_access 14728209
Core_3_L2C_total_hit 11670640 L2C_total_Hit Ratio: 0.79240
Core_3_L2C_total_miss 3057569
Core_3_L2C_loads 12224502
Core_3_L2C_load_hit 9692609 L2C_load_Hit Ratio: 0.79288
Core_3_L2C_load_miss 2531893
Core_3_L2C_RFOs 566133
Core_3_L2C_RFO_hit 41330 L2C_RFO_Hit Ratio: 0.07300
Core_3_L2C_RFO_miss 524803
Core_3_L2C_prefetches 0
Core_3_L2C_prefetch_hit 0 L2C_prefetch_Hit Ratio: -nan
Core_3_L2C_prefetch_miss 0
Core_3_L2C_writebacks 1937574
Core_3_L2C_writeback_hit 1936701 L2C_writeback_Hit Ratio: 0.99955
Core_3_L2C_writeback_miss 873
Core_3_L2C_prefetch_requested 0
Core_3_L2C_prefetch_issued 0
Core_3_L2C_prefetch_useful 0 L2C_Useful Ratio: -nan
Core_3_L2C_prefetch_useless 0
Core_3_L2C_prefetch_late 0
Core_3_L2C_average_miss_latency 748.75779

Core_3_LLC_total_access 4867768
Core_3_LLC_total_hit 2062040 LLC_total_Hit Ratio: 0.42361
Core_3_LLC_total_miss 2805728
Core_3_LLC_loads 2531884
Core_3_LLC_load_hit 295869 LLC_load_Hit Ratio: 0.11686
Core_3_LLC_load_miss 2236015
Core_3_LLC_RFOs 524803
Core_3_LLC_RFO_hit 104 LLC_RFO_Hit Ratio: 0.00020
Core_3_LLC_RFO_miss 524699
Core_3_LLC_prefetches 0
Core_3_LLC_prefetch_hit 0 LLC_prefetch_Hit Ratio: -nan
Core_3_LLC_prefetch_miss 0
Core_3_LLC_writebacks 1811081
Core_3_LLC_writeback_hit 1766067 LLC_writeback_Hit Ratio: 0.97515
Core_3_LLC_writeback_miss 45014
Core_3_LLC_prefetch_requested 0
Core_3_LLC_prefetch_issued 0
Core_3_LLC_prefetch_useful 0 LLC_Useful Ratio: -nan
Core_3_LLC_prefetch_useless 0
Core_3_LLC_prefetch_late 0
Core_3_LLC_average_miss_latency 3124.13240

Core_3_major_page_fault 0
Core_3_minor_page_fault 19528

Channel_0_RQ_row_buffer_hit 3771115
Channel_0_RQ_row_buffer_miss 7365653
Channel_0_WQ_row_buffer_hit 2705242
Channel_0_WQ_row_buffer_miss 3819471
Channel_0_WQ_full 1911
Channel_0_dbus_congested 8846577

avg_congested_cycle 10

EzSearch AVG IPC :0.42568: L2-Pf-HR :-nan : L2-HR :0.79241 Uful:-nan
EzSearch AVG IPC :0.42586: L2-Pf-HR :-nan : L2-HR :0.79239 Uful:-nan
EzSearch AVG IPC :0.42592: L2-Pf-HR :-nan : L2-HR :0.79263 Uful:-nan
EzSearch AVG IPC :0.42812: L2-Pf-HR :-nan : L2-HR :0.79397 Uful:-nan
     > Finished combination: TraceType=770-tot Sim:326000000 Prefetcher=L2no L1=no
