TRACE: [167000000][OPT-350M]_[h16][s512][d64] Warmup: 2000000 NumTraces: 167000000
L1:no:L2:no
*************************************************
   ChampSim Multicore Out-of-Order Simulator
   Last compiled: Oct 29 2024 15:28:39
*************************************************

trace_0 770-tot_memTraces_v3_rexz/memTraces[167000000][OPT-350M]_[h16][s512][d64].champsim.9.xz
trace_1 770-tot_memTraces_v3_rexz/memTraces[167000000][OPT-350M]_[h16][s512][d64].champsim.9.xz
trace_2 770-tot_memTraces_v3_rexz/memTraces[167000000][OPT-350M]_[h16][s512][d64].champsim.9.xz
trace_3 770-tot_memTraces_v3_rexz/memTraces[167000000][OPT-350M]_[h16][s512][d64].champsim.9.xz
MAIN.cc ln 751 stats print skipped
CPU  1 inst:    1000000 cyc:     499599 now IPC :2.00161: AVG IPC :2.00161: L2-Pf-HR :-nan: L2-HR :0.63256: (Sim:0h0m39s) 
CPU  2 inst:    1000000 cyc:     499604 now IPC :2.00159: AVG IPC :2.00159: L2-Pf-HR :-nan: L2-HR :0.62928: (Sim:0h0m39s) 
CPU  3 inst:    1000000 cyc:     499699 now IPC :2.00120: AVG IPC :2.00120: L2-Pf-HR :-nan: L2-HR :0.61922: (Sim:0h0m39s) 
CPU  0 inst:    1000000 cyc:     499700 now IPC :2.00120: AVG IPC :2.00120: L2-Pf-HR :-nan: L2-HR :0.61920: (Sim:0h0m39s) 
CPU  1 inst:    2000002 cyc:     982869 now IPC :2.06924: AVG IPC :2.03486: L2-Pf-HR :-nan: L2-HR :0.69531: (Sim:0h1m7s) 
CPU  2 inst:    2000002 cyc:     982874 now IPC :2.06924: AVG IPC :2.03485: L2-Pf-HR :-nan: L2-HR :0.69198: (Sim:0h1m7s) 
CPU  3 inst:    2000002 cyc:     983190 now IPC :2.06830: AVG IPC :2.03420: L2-Pf-HR :-nan: L2-HR :0.67859: (Sim:0h1m7s) 
CPU  0 inst:    2000002 cyc:     983191 now IPC :2.06830: AVG IPC :2.03419: L2-Pf-HR :-nan: L2-HR :0.67859: (Sim:0h1m7s) 

Warmup complete CPU  0 instructions:    2000002 cycles:     983191 (Simulation time: 0 hr 1 min 7 sec) 
Warmup complete CPU  1 instructions:    2000687 cycles:     983190 (Simulation time: 0 hr 1 min 7 sec) 
Warmup complete CPU  2 instructions:    2000669 cycles:     983190 (Simulation time: 0 hr 1 min 7 sec) 
Warmup complete CPU  3 instructions:    2000002 cycles:     983190 (Simulation time: 0 hr 1 min 7 sec) 

CPU  3 inst:    3000000 cyc:    1764137 now IPC :1.28049: AVG IPC :1.28049: L2-Pf-HR :-nan: L2-HR :0.75820: (Sim:0h1m33s) 
CPU  0 inst:    3000000 cyc:    1764188 now IPC :1.28041: AVG IPC :1.28041: L2-Pf-HR :-nan: L2-HR :0.75801: (Sim:0h1m33s) 
CPU  1 inst:    3000000 cyc:    1764494 now IPC :1.27938: AVG IPC :1.27903: L2-Pf-HR :-nan: L2-HR :0.78064: (Sim:0h1m33s) 
CPU  2 inst:    3000000 cyc:    1764798 now IPC :1.27889: AVG IPC :1.27856: L2-Pf-HR :-nan: L2-HR :0.77269: (Sim:0h1m33s) 
CPU  0 inst:    4000001 cyc:    2457361 now IPC :1.44264: AVG IPC :1.35669: L2-Pf-HR :-nan: L2-HR :0.75342: (Sim:0h2m1s) 
CPU  3 inst:    4000001 cyc:    2457568 now IPC :1.44211: AVG IPC :1.35650: L2-Pf-HR :-nan: L2-HR :0.75319: (Sim:0h2m1s) 
CPU  2 inst:    4000001 cyc:    2457772 now IPC :1.44306: AVG IPC :1.35586: L2-Pf-HR :-nan: L2-HR :0.75774: (Sim:0h2m1s) 
CPU  1 inst:    4000001 cyc:    2457976 now IPC :1.44200: AVG IPC :1.35566: L2-Pf-HR :-nan: L2-HR :0.76725: (Sim:0h2m1s) 
CPU  0 inst:    5000002 cyc:    3258144 now IPC :1.24878: AVG IPC :1.31871: L2-Pf-HR :-nan: L2-HR :0.75353: (Sim:0h2m40s) 
CPU  1 inst:    5000002 cyc:    3262019 now IPC :1.24372: AVG IPC :1.31616: L2-Pf-HR :-nan: L2-HR :0.76586: (Sim:0h2m41s) 
CPU  3 inst:    5000002 cyc:    3262834 now IPC :1.24183: AVG IPC :1.31599: L2-Pf-HR :-nan: L2-HR :0.75200: (Sim:0h2m41s) 
CPU  2 inst:    5000002 cyc:    3264419 now IPC :1.23970: AVG IPC :1.31479: L2-Pf-HR :-nan: L2-HR :0.75133: (Sim:0h2m41s) 
CPU  0 inst:    6000000 cyc:    4058168 now IPC :1.24996: AVG IPC :1.30082: L2-Pf-HR :-nan: L2-HR :0.76365: (Sim:0h3m27s) 
CPU  2 inst:    6000000 cyc:    4065626 now IPC :1.24811: AVG IPC :1.29746: L2-Pf-HR :-nan: L2-HR :0.76426: (Sim:0h3m27s) 
CPU  1 inst:    6000000 cyc:    4065930 now IPC :1.24392: AVG IPC :1.29732: L2-Pf-HR :-nan: L2-HR :0.77727: (Sim:0h3m27s) 
CPU  3 inst:    6000000 cyc:    4073230 now IPC :1.23396: AVG IPC :1.29448: L2-Pf-HR :-nan: L2-HR :0.75806: (Sim:0h3m28s) 
CPU  0 inst:    7000004 cyc:    4906157 now IPC :1.17927: AVG IPC :1.27455: L2-Pf-HR :-nan: L2-HR :0.76784: (Sim:0h4m14s) 
CPU  3 inst:    7000004 cyc:    4921618 now IPC :1.17871: AVG IPC :1.26954: L2-Pf-HR :-nan: L2-HR :0.76057: (Sim:0h4m15s) 
CPU  2 inst:    7000004 cyc:    4923546 now IPC :1.16561: AVG IPC :1.26875: L2-Pf-HR :-nan: L2-HR :0.77250: (Sim:0h4m15s) 
CPU  1 inst:    7000004 cyc:    4924054 now IPC :1.16534: AVG IPC :1.26858: L2-Pf-HR :-nan: L2-HR :0.78231: (Sim:0h4m15s) 
CPU  0 inst:    8000003 cyc:    5616720 now IPC :1.40733: AVG IPC :1.29491: L2-Pf-HR :-nan: L2-HR :0.76483: (Sim:0h4m58s) 
CPU  1 inst:    8000003 cyc:    5687721 now IPC :1.30947: AVG IPC :1.27522: L2-Pf-HR :-nan: L2-HR :0.77954: (Sim:0h5m2s) 
CPU  3 inst:    8000003 cyc:    5688025 now IPC :1.30479: AVG IPC :1.27528: L2-Pf-HR :-nan: L2-HR :0.75875: (Sim:0h5m2s) 
CPU  2 inst:    8000003 cyc:    5688229 now IPC :1.30773: AVG IPC :1.27509: L2-Pf-HR :-nan: L2-HR :0.77184: (Sim:0h5m2s) 
CPU  0 inst:    9000000 cyc:    6517252 now IPC :1.11045: AVG IPC :1.26489: L2-Pf-HR :-nan: L2-HR :0.76470: (Sim:0h5m43s) 
CPU  1 inst:    9000000 cyc:    6795453 now IPC :0.90274: AVG IPC :1.20423: L2-Pf-HR :-nan: L2-HR :0.77829: (Sim:0h5m56s) 
CPU  3 inst:    9000000 cyc:    6799625 now IPC :0.89960: AVG IPC :1.20349: L2-Pf-HR :-nan: L2-HR :0.75946: (Sim:0h5m57s) 
CPU  2 inst:    9000000 cyc:    6812512 now IPC :0.88945: AVG IPC :1.20071: L2-Pf-HR :-nan: L2-HR :0.77133: (Sim:0h5m57s) 
CPU  0 inst:   10000004 cyc:    7391489 now IPC :1.14386: AVG IPC :1.24838: L2-Pf-HR :-nan: L2-HR :0.76968: (Sim:0h6m25s) 
CPU  1 inst:   10000004 cyc:    7987472 now IPC :0.83892: AVG IPC :1.14206: L2-Pf-HR :-nan: L2-HR :0.78244: (Sim:0h6m52s) 
CPU  3 inst:   10000004 cyc:    8049861 now IPC :0.79985: AVG IPC :1.13208: L2-Pf-HR :-nan: L2-HR :0.76582: (Sim:0h6m55s) 
CPU  2 inst:   10000004 cyc:    8085528 now IPC :0.78554: AVG IPC :1.12630: L2-Pf-HR :-nan: L2-HR :0.77625: (Sim:0h6m56s) 
CPU  0 inst:   11000002 cyc:    8455404 now IPC :0.93992: AVG IPC :1.20446: L2-Pf-HR :-nan: L2-HR :0.77303: (Sim:0h7m14s) 
CPU  1 inst:   11000002 cyc:    8933287 now IPC :1.05729: AVG IPC :1.13198: L2-Pf-HR :-nan: L2-HR :0.78518: (Sim:0h7m38s) 
CPU  3 inst:   11000002 cyc:    9192774 now IPC :0.87496: AVG IPC :1.09628: L2-Pf-HR :-nan: L2-HR :0.77042: (Sim:0h7m50s) 
CPU  2 inst:   11000002 cyc:    9224437 now IPC :0.87803: AVG IPC :1.09199: L2-Pf-HR :-nan: L2-HR :0.77936: (Sim:0h7m52s) 
CPU  0 inst:   12000001 cyc:    9515455 now IPC :0.94335: AVG IPC :1.17202: L2-Pf-HR :-nan: L2-HR :0.77311: (Sim:0h8m6s) 
CPU  1 inst:   12000001 cyc:    9923050 now IPC :1.01034: AVG IPC :1.11851: L2-Pf-HR :-nan: L2-HR :0.78520: (Sim:0h8m25s) 
CPU  3 inst:   12000001 cyc:   10309350 now IPC :0.89559: AVG IPC :1.07225: L2-Pf-HR :-nan: L2-HR :0.77033: (Sim:0h8m45s) 
CPU  2 inst:   12000001 cyc:   10325473 now IPC :0.90823: AVG IPC :1.07033: L2-Pf-HR :-nan: L2-HR :0.77825: (Sim:0h8m45s) 
CPU  0 inst:   13000004 cyc:   10644497 now IPC :0.88571: AVG IPC :1.13856: L2-Pf-HR :-nan: L2-HR :0.77231: (Sim:0h9m0s) 
CPU  1 inst:   13000004 cyc:   11050762 now IPC :0.88675: AVG IPC :1.09255: L2-Pf-HR :-nan: L2-HR :0.78335: (Sim:0h9m18s) 
CPU  3 inst:   13000004 cyc:   11682082 now IPC :0.72848: AVG IPC :1.02814: L2-Pf-HR :-nan: L2-HR :0.76951: (Sim:0h9m45s) 
CPU  2 inst:   13000004 cyc:   11688479 now IPC :0.73367: AVG IPC :1.02747: L2-Pf-HR :-nan: L2-HR :0.77712: (Sim:0h9m45s) 
CPU  0 inst:   14000005 cyc:   11981566 now IPC :0.74791: AVG IPC :1.09107: L2-Pf-HR :-nan: L2-HR :0.77577: (Sim:0h9m57s) 
CPU  1 inst:   14000005 cyc:   12151902 now IPC :0.90815: AVG IPC :1.07437: L2-Pf-HR :-nan: L2-HR :0.78570: (Sim:0h10m5s) 
CPU  0 inst:   15000000 cyc:   13067818 now IPC :0.92059: AVG IPC :1.07575: L2-Pf-HR :-nan: L2-HR :0.77925: (Sim:0h10m44s) 
CPU  3 inst:   14000005 cyc:   13123040 now IPC :0.69398: AVG IPC :0.98848: L2-Pf-HR :-nan: L2-HR :0.77249: (Sim:0h10m46s) 
CPU  2 inst:   14000005 cyc:   13136113 now IPC :0.69078: AVG IPC :0.98736: L2-Pf-HR :-nan: L2-HR :0.78001: (Sim:0h10m47s) 
CPU  1 inst:   15000004 cyc:   13553412 now IPC :0.71352: AVG IPC :1.03414: L2-Pf-HR :-nan: L2-HR :0.78812: (Sim:0h11m5s) 
CPU  0 inst:   16000005 cyc:   14169619 now IPC :0.90761: AVG IPC :1.06170: L2-Pf-HR :-nan: L2-HR :0.77974: (Sim:0h11m31s) 
CPU  3 inst:   15000000 cyc:   14525721 now IPC :0.71292: AVG IPC :0.95994: L2-Pf-HR :-nan: L2-HR :0.77539: (Sim:0h11m47s) 
CPU  2 inst:   15000004 cyc:   14564635 now IPC :0.70002: AVG IPC :0.95714: L2-Pf-HR :-nan: L2-HR :0.78278: (Sim:0h11m48s) 
CPU  1 inst:   16000005 cyc:   14859434 now IPC :0.76568: AVG IPC :1.00887: L2-Pf-HR :-nan: L2-HR :0.78787: (Sim:0h12m1s) 
CPU  0 inst:   17000002 cyc:   15393462 now IPC :0.81710: AVG IPC :1.04092: L2-Pf-HR :-nan: L2-HR :0.77771: (Sim:0h12m26s) 
CPU  3 inst:   16000005 cyc:   15761745 now IPC :0.80905: AVG IPC :0.94732: L2-Pf-HR :-nan: L2-HR :0.77527: (Sim:0h12m43s) 
CPU  2 inst:   16000005 cyc:   15779914 now IPC :0.82286: AVG IPC :0.94611: L2-Pf-HR :-nan: L2-HR :0.78153: (Sim:0h12m44s) 
CPU  1 inst:   17000002 cyc:   16018258 now IPC :0.86294: AVG IPC :0.99762: L2-Pf-HR :-nan: L2-HR :0.78537: (Sim:0h12m55s) 
CPU  0 inst:   18000002 cyc:   16543842 now IPC :0.86928: AVG IPC :1.02823: L2-Pf-HR :-nan: L2-HR :0.78058: (Sim:0h13m18s) 
CPU  3 inst:   17000002 cyc:   17125514 now IPC :0.73326: AVG IPC :0.92923: L2-Pf-HR :-nan: L2-HR :0.77353: (Sim:0h13m43s) 
CPU  2 inst:   17000002 cyc:   17137032 now IPC :0.73685: AVG IPC :0.92853: L2-Pf-HR :-nan: L2-HR :0.77919: (Sim:0h13m44s) 
CPU  1 inst:   18000002 cyc:   17184221 now IPC :0.85766: AVG IPC :0.98755: L2-Pf-HR :-nan: L2-HR :0.78756: (Sim:0h13m46s) 
CPU  0 inst:   19000000 cyc:   17824969 now IPC :0.78056: AVG IPC :1.00939: L2-Pf-HR :-nan: L2-HR :0.78219: (Sim:0h14m14s) 
CPU  1 inst:   19000000 cyc:   18217117 now IPC :0.96815: AVG IPC :0.98639: L2-Pf-HR :-nan: L2-HR :0.78869: (Sim:0h14m32s) 
CPU  3 inst:   18000002 cyc:   18490756 now IPC :0.73247: AVG IPC :0.91389: L2-Pf-HR :-nan: L2-HR :0.77665: (Sim:0h14m44s) 
CPU  2 inst:   18000002 cyc:   18524265 now IPC :0.72086: AVG IPC :0.91211: L2-Pf-HR :-nan: L2-HR :0.78167: (Sim:0h14m45s) 
CPU  0 inst:   20000001 cyc:   19129195 now IPC :0.76674: AVG IPC :0.99195: L2-Pf-HR :-nan: L2-HR :0.78294: (Sim:0h15m11s) 
CPU  1 inst:   20000001 cyc:   19366148 now IPC :0.87030: AVG IPC :0.97913: L2-Pf-HR :-nan: L2-HR :0.78944: (Sim:0h15m22s) 
CPU  3 inst:   19000000 cyc:   19807593 now IPC :0.75939: AVG IPC :0.90308: L2-Pf-HR :-nan: L2-HR :0.77826: (Sim:0h15m42s) 
CPU  2 inst:   19000000 cyc:   19867820 now IPC :0.74429: AVG IPC :0.90017: L2-Pf-HR :-nan: L2-HR :0.78285: (Sim:0h15m45s) 
CPU  0 inst:   21000001 cyc:   20407650 now IPC :0.78219: AVG IPC :0.97815: L2-Pf-HR :-nan: L2-HR :0.78105: (Sim:0h16m7s) 
CPU  1 inst:   21000000 cyc:   20632474 now IPC :0.78969: AVG IPC :0.96692: L2-Pf-HR :-nan: L2-HR :0.78713: (Sim:0h16m19s) 
CPU  3 inst:   20000001 cyc:   20978584 now IPC :0.85398: AVG IPC :0.90021: L2-Pf-HR :-nan: L2-HR :0.77921: (Sim:0h16m29s) 
CPU  2 inst:   20000001 cyc:   21025984 now IPC :0.86344: AVG IPC :0.89805: L2-Pf-HR :-nan: L2-HR :0.78393: (Sim:0h16m31s) 
CPU  0 inst:   22000000 cyc:   21425000 now IPC :0.98294: AVG IPC :0.97839: L2-Pf-HR :-nan: L2-HR :0.78265: (Sim:0h16m45s) 
CPU  1 inst:   22000000 cyc:   21667744 now IPC :0.96593: AVG IPC :0.96687: L2-Pf-HR :-nan: L2-HR :0.78843: (Sim:0h16m53s) 
CPU  3 inst:   21000000 cyc:   22196387 now IPC :0.82115: AVG IPC :0.89567: L2-Pf-HR :-nan: L2-HR :0.77760: (Sim:0h17m10s) 
CPU  2 inst:   21000004 cyc:   22264649 now IPC :0.80732: AVG IPC :0.89276: L2-Pf-HR :-nan: L2-HR :0.78194: (Sim:0h17m12s) 
CPU  0 inst:   23000003 cyc:   22599925 now IPC :0.85112: AVG IPC :0.97147: L2-Pf-HR :-nan: L2-HR :0.78439: (Sim:0h17m27s) 
CPU  1 inst:   23000003 cyc:   22898695 now IPC :0.81238: AVG IPC :0.95819: L2-Pf-HR :-nan: L2-HR :0.78992: (Sim:0h17m41s) 
CPU  3 inst:   22000000 cyc:   23464825 now IPC :0.78837: AVG IPC :0.88961: L2-Pf-HR :-nan: L2-HR :0.77947: (Sim:0h18m6s) 
CPU  2 inst:   22000000 cyc:   23509842 now IPC :0.80309: AVG IPC :0.88781: L2-Pf-HR :-nan: L2-HR :0.78348: (Sim:0h18m9s) 
CPU  0 inst:   24000000 cyc:   23665329 now IPC :0.93861: AVG IPC :0.96993: L2-Pf-HR :-nan: L2-HR :0.78517: (Sim:0h18m15s) 
CPU  1 inst:   24000000 cyc:   24109024 now IPC :0.82622: AVG IPC :0.95129: L2-Pf-HR :-nan: L2-HR :0.79050: (Sim:0h18m36s) 
CPU  3 inst:   23000003 cyc:   24725483 now IPC :0.79324: AVG IPC :0.88450: L2-Pf-HR :-nan: L2-HR :0.78128: (Sim:0h19m4s) 
CPU  2 inst:   23000003 cyc:   24776473 now IPC :0.78950: AVG IPC :0.88257: L2-Pf-HR :-nan: L2-HR :0.78506: (Sim:0h19m6s) 
CPU  0 inst:   25000005 cyc:   24889029 now IPC :0.81720: AVG IPC :0.96211: L2-Pf-HR :-nan: L2-HR :0.78308: (Sim:0h19m11s) 
CPU  1 inst:   25000005 cyc:   25309993 now IPC :0.83267: AVG IPC :0.94543: L2-Pf-HR :-nan: L2-HR :0.78815: (Sim:0h19m28s) 
CPU  3 inst:   24000000 cyc:   26065961 now IPC :0.74600: AVG IPC :0.87710: L2-Pf-HR :-nan: L2-HR :0.78200: (Sim:0h20m3s) 
CPU  2 inst:   24000000 cyc:   26086423 now IPC :0.76339: AVG IPC :0.87635: L2-Pf-HR :-nan: L2-HR :0.78535: (Sim:0h20m4s) 
CPU  0 inst:   26000004 cyc:   26176898 now IPC :0.77648: AVG IPC :0.95262: L2-Pf-HR :-nan: L2-HR :0.78453: (Sim:0h20m8s) 
CPU  1 inst:   26000004 cyc:   26353566 now IPC :0.95825: AVG IPC :0.94596: L2-Pf-HR :-nan: L2-HR :0.78938: (Sim:0h20m16s) 
CPU  0 inst:   27000002 cyc:   27343038 now IPC :0.85753: AVG IPC :0.94841: L2-Pf-HR :-nan: L2-HR :0.78575: (Sim:0h21m1s) 
CPU  3 inst:   25000005 cyc:   27382895 now IPC :0.75934: AVG IPC :0.87122: L2-Pf-HR :-nan: L2-HR :0.78010: (Sim:0h21m3s) 
CPU  2 inst:   25000005 cyc:   27386070 now IPC :0.76944: AVG IPC :0.87109: L2-Pf-HR :-nan: L2-HR :0.78314: (Sim:0h21m3s) 
CPU  1 inst:   27000002 cyc:   27489517 now IPC :0.88032: AVG IPC :0.94315: L2-Pf-HR :-nan: L2-HR :0.79014: (Sim:0h21m8s) 
CPU  0 inst:   28000000 cyc:   28412618 now IPC :0.93494: AVG IPC :0.94789: L2-Pf-HR :-nan: L2-HR :0.78648: (Sim:0h21m52s) 
CPU  1 inst:   28000000 cyc:   28557345 now IPC :0.93648: AVG IPC :0.94289: L2-Pf-HR :-nan: L2-HR :0.79094: (Sim:0h21m59s) 
CPU  3 inst:   26000004 cyc:   28581082 now IPC :0.83459: AVG IPC :0.86963: L2-Pf-HR :-nan: L2-HR :0.78132: (Sim:0h22m0s) 
CPU  2 inst:   26000004 cyc:   28600209 now IPC :0.82363: AVG IPC :0.86901: L2-Pf-HR :-nan: L2-HR :0.78445: (Sim:0h22m1s) 
CPU  0 inst:   29000004 cyc:   29585502 now IPC :0.85260: AVG IPC :0.94398: L2-Pf-HR :-nan: L2-HR :0.78455: (Sim:0h22m31s) 
CPU  1 inst:   29000004 cyc:   29783886 now IPC :0.81530: AVG IPC :0.93745: L2-Pf-HR :-nan: L2-HR :0.78865: (Sim:0h22m36s) 
CPU  3 inst:   27000002 cyc:   29890021 now IPC :0.76398: AVG IPC :0.86485: L2-Pf-HR :-nan: L2-HR :0.78215: (Sim:0h22m39s) 
CPU  2 inst:   27000002 cyc:   29936202 now IPC :0.74851: AVG IPC :0.86344: L2-Pf-HR :-nan: L2-HR :0.78544: (Sim:0h22m40s) 
CPU  0 inst:   30000004 cyc:   30620501 now IPC :0.96618: AVG IPC :0.94476: L2-Pf-HR :-nan: L2-HR :0.78588: (Sim:0h23m0s) 
CPU  1 inst:   30000004 cyc:   30784197 now IPC :0.99969: AVG IPC :0.93954: L2-Pf-HR :-nan: L2-HR :0.78974: (Sim:0h23m4s) 
CPU  3 inst:   28000000 cyc:   31020227 now IPC :0.88479: AVG IPC :0.86560: L2-Pf-HR :-nan: L2-HR :0.78318: (Sim:0h23m12s) 
CPU  2 inst:   28000000 cyc:   31040370 now IPC :0.90566: AVG IPC :0.86500: L2-Pf-HR :-nan: L2-HR :0.78615: (Sim:0h23m13s) 
CPU  0 inst:   31000000 cyc:   31696691 now IPC :0.92920: AVG IPC :0.94421: L2-Pf-HR :-nan: L2-HR :0.78687: (Sim:0h23m31s) 
CPU  1 inst:   31000000 cyc:   31842997 now IPC :0.94446: AVG IPC :0.93971: L2-Pf-HR :-nan: L2-HR :0.79029: (Sim:0h23m35s) 
CPU  3 inst:   29000004 cyc:   32279229 now IPC :0.79428: AVG IPC :0.86273: L2-Pf-HR :-nan: L2-HR :0.78078: (Sim:0h23m45s) 
CPU  2 inst:   29000004 cyc:   32301881 now IPC :0.79270: AVG IPC :0.86208: L2-Pf-HR :-nan: L2-HR :0.78381: (Sim:0h23m46s) 
CPU  0 inst:   32000004 cyc:   32765173 now IPC :0.93591: AVG IPC :0.94393: L2-Pf-HR :-nan: L2-HR :0.78775: (Sim:0h23m58s) 
CPU  1 inst:   32000004 cyc:   33189828 now IPC :0.74249: AVG IPC :0.93146: L2-Pf-HR :-nan: L2-HR :0.79103: (Sim:0h24m12s) 
CPU  3 inst:   30000004 cyc:   33622802 now IPC :0.74428: AVG IPC :0.85785: L2-Pf-HR :-nan: L2-HR :0.78208: (Sim:0h24m24s) 
CPU  2 inst:   30000004 cyc:   33657142 now IPC :0.73787: AVG IPC :0.85693: L2-Pf-HR :-nan: L2-HR :0.78493: (Sim:0h24m25s) 
CPU  0 inst:   33000002 cyc:   33952114 now IPC :0.84250: AVG IPC :0.94028: L2-Pf-HR :-nan: L2-HR :0.78614: (Sim:0h24m32s) 
CPU  1 inst:   33000001 cyc:   34350902 now IPC :0.86127: AVG IPC :0.92902: L2-Pf-HR :-nan: L2-HR :0.78921: (Sim:0h24m47s) 
CPU  3 inst:   31000000 cyc:   34930231 now IPC :0.76486: AVG IPC :0.85427: L2-Pf-HR :-nan: L2-HR :0.78273: (Sim:0h25m13s) 
CPU  2 inst:   31000000 cyc:   34988680 now IPC :0.75101: AVG IPC :0.85278: L2-Pf-HR :-nan: L2-HR :0.78555: (Sim:0h25m15s) 
CPU  0 inst:   34000000 cyc:   35075964 now IPC :0.88980: AVG IPC :0.93862: L2-Pf-HR :-nan: L2-HR :0.78670: (Sim:0h25m20s) 
CPU  1 inst:   34000000 cyc:   35560960 now IPC :0.82641: AVG IPC :0.92543: L2-Pf-HR :-nan: L2-HR :0.78966: (Sim:0h25m42s) 
CPU  0 inst:   35000001 cyc:   36057261 now IPC :1.01906: AVG IPC :0.94087: L2-Pf-HR :-nan: L2-HR :0.78775: (Sim:0h26m5s) 
CPU  3 inst:   32000004 cyc:   36089009 now IPC :0.86298: AVG IPC :0.85456: L2-Pf-HR :-nan: L2-HR :0.78385: (Sim:0h26m7s) 
CPU  2 inst:   32000004 cyc:   36201628 now IPC :0.82444: AVG IPC :0.85181: L2-Pf-HR :-nan: L2-HR :0.78627: (Sim:0h26m12s) 
CPU  1 inst:   35000001 cyc:   36664680 now IPC :0.90603: AVG IPC :0.92483: L2-Pf-HR :-nan: L2-HR :0.79051: (Sim:0h26m30s) 
CPU  3 inst:   33000004 cyc:   37130682 now IPC :0.95999: AVG IPC :0.85760: L2-Pf-HR :-nan: L2-HR :0.78193: (Sim:0h26m51s) 
CPU  0 inst:   36000002 cyc:   37143411 now IPC :0.92068: AVG IPC :0.94026: L2-Pf-HR :-nan: L2-HR :0.78814: (Sim:0h26m51s) 
CPU  2 inst:   33000000 cyc:   37285581 now IPC :0.92255: AVG IPC :0.85392: L2-Pf-HR :-nan: L2-HR :0.78462: (Sim:0h26m57s) 
CPU  1 inst:   36000002 cyc:   37771225 now IPC :0.90371: AVG IPC :0.92419: L2-Pf-HR :-nan: L2-HR :0.79099: (Sim:0h27m16s) 
CPU  0 inst:   37000005 cyc:   38310935 now IPC :0.85652: AVG IPC :0.93764: L2-Pf-HR :-nan: L2-HR :0.78757: (Sim:0h27m31s) 
CPU  3 inst:   34000000 cyc:   38373006 now IPC :0.80494: AVG IPC :0.85585: L2-Pf-HR :-nan: L2-HR :0.78266: (Sim:0h27m32s) 
CPU  2 inst:   34000000 cyc:   38518672 now IPC :0.81097: AVG IPC :0.85251: L2-Pf-HR :-nan: L2-HR :0.78523: (Sim:0h27m36s) 
CPU  1 inst:   37000005 cyc:   38920654 now IPC :0.87000: AVG IPC :0.92255: L2-Pf-HR :-nan: L2-HR :0.79045: (Sim:0h27m48s) 
CPU  0 inst:   38000003 cyc:   39499047 now IPC :0.84167: AVG IPC :0.93468: L2-Pf-HR :-nan: L2-HR :0.78750: (Sim:0h28m4s) 
CPU  3 inst:   35000001 cyc:   39520770 now IPC :0.87126: AVG IPC :0.85631: L2-Pf-HR :-nan: L2-HR :0.78397: (Sim:0h28m5s) 
CPU  2 inst:   35000001 cyc:   39670936 now IPC :0.86786: AVG IPC :0.85297: L2-Pf-HR :-nan: L2-HR :0.78624: (Sim:0h28m9s) 
CPU  1 inst:   38000003 cyc:   40183252 now IPC :0.79202: AVG IPC :0.91835: L2-Pf-HR :-nan: L2-HR :0.79029: (Sim:0h28m26s) 
CPU  3 inst:   36000002 cyc:   40553788 now IPC :0.96804: AVG IPC :0.85922: L2-Pf-HR :-nan: L2-HR :0.78408: (Sim:0h28m38s) 
CPU  0 inst:   39000004 cyc:   40608298 now IPC :0.90151: AVG IPC :0.93375: L2-Pf-HR :-nan: L2-HR :0.78809: (Sim:0h28m40s) 
CPU  2 inst:   36000002 cyc:   40861908 now IPC :0.83965: AVG IPC :0.85257: L2-Pf-HR :-nan: L2-HR :0.78663: (Sim:0h28m47s) 
CPU  1 inst:   39000004 cyc:   41331123 now IPC :0.87118: AVG IPC :0.91701: L2-Pf-HR :-nan: L2-HR :0.79076: (Sim:0h29m4s) 
CPU  3 inst:   37000005 cyc:   41586047 now IPC :0.96875: AVG IPC :0.86201: L2-Pf-HR :-nan: L2-HR :0.78341: (Sim:0h29m13s) 
CPU  0 inst:   40000002 cyc:   41745840 now IPC :0.87909: AVG IPC :0.93223: L2-Pf-HR :-nan: L2-HR :0.78887: (Sim:0h29m20s) 
CPU  2 inst:   37000005 cyc:   41907247 now IPC :0.95663: AVG IPC :0.85523: L2-Pf-HR :-nan: L2-HR :0.78606: (Sim:0h29m26s) 
CPU  1 inst:   40000002 cyc:   42549660 now IPC :0.82065: AVG IPC :0.91418: L2-Pf-HR :-nan: L2-HR :0.79147: (Sim:0h29m54s) 
CPU  0 inst:   41000005 cyc:   42884462 now IPC :0.87826: AVG IPC :0.93076: L2-Pf-HR :-nan: L2-HR :0.78833: (Sim:0h30m11s) 
CPU  3 inst:   38000003 cyc:   42926527 now IPC :0.74600: AVG IPC :0.85830: L2-Pf-HR :-nan: L2-HR :0.78347: (Sim:0h30m13s) 
CPU  2 inst:   38000003 cyc:   43045596 now IPC :0.87846: AVG IPC :0.85586: L2-Pf-HR :-nan: L2-HR :0.78605: (Sim:0h30m19s) 
CPU  1 inst:   41000005 cyc:   43656835 now IPC :0.90320: AVG IPC :0.91390: L2-Pf-HR :-nan: L2-HR :0.79096: (Sim:0h30m49s) 
CPU  3 inst:   39000004 cyc:   44076836 now IPC :0.86933: AVG IPC :0.85860: L2-Pf-HR :-nan: L2-HR :0.78418: (Sim:0h31m7s) 
CPU  0 inst:   42000004 cyc:   44104174 now IPC :0.81986: AVG IPC :0.92762: L2-Pf-HR :-nan: L2-HR :0.78804: (Sim:0h31m8s) 
CPU  2 inst:   39000004 cyc:   44175883 now IPC :0.88473: AVG IPC :0.85661: L2-Pf-HR :-nan: L2-HR :0.78660: (Sim:0h31m10s) 
CPU  1 inst:   42000004 cyc:   44916578 now IPC :0.79381: AVG IPC :0.91045: L2-Pf-HR :-nan: L2-HR :0.79060: (Sim:0h31m33s) 
CPU  3 inst:   40000002 cyc:   45187162 now IPC :0.90063: AVG IPC :0.85965: L2-Pf-HR :-nan: L2-HR :0.78487: (Sim:0h31m43s) 
CPU  0 inst:   43000005 cyc:   45263992 now IPC :0.86221: AVG IPC :0.92591: L2-Pf-HR :-nan: L2-HR :0.78872: (Sim:0h31m47s) 
CPU  2 inst:   40000002 cyc:   45283849 now IPC :0.90255: AVG IPC :0.85776: L2-Pf-HR :-nan: L2-HR :0.78733: (Sim:0h31m48s) 
CPU  1 inst:   43000005 cyc:   46115186 now IPC :0.83430: AVG IPC :0.90843: L2-Pf-HR :-nan: L2-HR :0.79126: (Sim:0h32m29s) 
CPU  3 inst:   41000005 cyc:   46194761 now IPC :0.99246: AVG IPC :0.86261: L2-Pf-HR :-nan: L2-HR :0.78432: (Sim:0h32m34s) 
CPU  2 inst:   41000005 cyc:   46295825 now IPC :0.98817: AVG IPC :0.86067: L2-Pf-HR :-nan: L2-HR :0.78684: (Sim:0h32m38s) 
CPU  0 inst:   44000002 cyc:   46528712 now IPC :0.79069: AVG IPC :0.92215: L2-Pf-HR :-nan: L2-HR :0.78924: (Sim:0h32m45s) 
CPU  1 inst:   44000002 cyc:   47340296 now IPC :0.81625: AVG IPC :0.90600: L2-Pf-HR :-nan: L2-HR :0.79182: (Sim:0h33m18s) 
CPU  3 inst:   42000004 cyc:   47375398 now IPC :0.84700: AVG IPC :0.86221: L2-Pf-HR :-nan: L2-HR :0.78413: (Sim:0h33m20s) 
CPU  2 inst:   42000004 cyc:   47552204 now IPC :0.79594: AVG IPC :0.85893: L2-Pf-HR :-nan: L2-HR :0.78659: (Sim:0h33m28s) 
CPU  0 inst:   45000003 cyc:   47662908 now IPC :0.88168: AVG IPC :0.92117: L2-Pf-HR :-nan: L2-HR :0.78881: (Sim:0h33m34s) 
CPU  1 inst:   45000003 cyc:   48483801 now IPC :0.87451: AVG IPC :0.90524: L2-Pf-HR :-nan: L2-HR :0.79137: (Sim:0h34m9s) 
CPU  3 inst:   43000005 cyc:   48501288 now IPC :0.88819: AVG IPC :0.86283: L2-Pf-HR :-nan: L2-HR :0.78492: (Sim:0h34m10s) 
CPU  2 inst:   43000005 cyc:   48663100 now IPC :0.90018: AVG IPC :0.85989: L2-Pf-HR :-nan: L2-HR :0.78721: (Sim:0h34m16s) 
CPU  0 inst:   46000002 cyc:   48961260 now IPC :0.77021: AVG IPC :0.91709: L2-Pf-HR :-nan: L2-HR :0.78839: (Sim:0h34m29s) 
CPU  1 inst:   46000002 cyc:   49678908 now IPC :0.83674: AVG IPC :0.90356: L2-Pf-HR :-nan: L2-HR :0.79090: (Sim:0h34m58s) 
CPU  3 inst:   44000002 cyc:   49709088 now IPC :0.82795: AVG IPC :0.86196: L2-Pf-HR :-nan: L2-HR :0.78558: (Sim:0h34m59s) 
CPU  2 inst:   44000002 cyc:   49797087 now IPC :0.88184: AVG IPC :0.86040: L2-Pf-HR :-nan: L2-HR :0.78778: (Sim:0h35m2s) 
CPU  0 inst:   47000000 cyc:   50151725 now IPC :0.84001: AVG IPC :0.91522: L2-Pf-HR :-nan: L2-HR :0.78906: (Sim:0h35m18s) 
CPU  1 inst:   47000000 cyc:   50693820 now IPC :0.98531: AVG IPC :0.90523: L2-Pf-HR :-nan: L2-HR :0.79147: (Sim:0h35m45s) 
CPU  3 inst:   45000003 cyc:   50748886 now IPC :0.96173: AVG IPC :0.86405: L2-Pf-HR :-nan: L2-HR :0.78520: (Sim:0h35m48s) 
CPU  2 inst:   45000003 cyc:   50844423 now IPC :0.95480: AVG IPC :0.86238: L2-Pf-HR :-nan: L2-HR :0.78729: (Sim:0h35m52s) 
CPU  0 inst:   48000004 cyc:   51238081 now IPC :0.92051: AVG IPC :0.91533: L2-Pf-HR :-nan: L2-HR :0.78954: (Sim:0h36m8s) 
CPU  1 inst:   48000004 cyc:   51839467 now IPC :0.87287: AVG IPC :0.90450: L2-Pf-HR :-nan: L2-HR :0.79187: (Sim:0h36m36s) 
CPU  3 inst:   46000002 cyc:   51940975 now IPC :0.83886: AVG IPC :0.86346: L2-Pf-HR :-nan: L2-HR :0.78488: (Sim:0h36m41s) 
CPU  2 inst:   46000002 cyc:   52139942 now IPC :0.77189: AVG IPC :0.86009: L2-Pf-HR :-nan: L2-HR :0.78690: (Sim:0h36m51s) 
CPU  0 inst:   49000002 cyc:   52355097 now IPC :0.89524: AVG IPC :0.91490: L2-Pf-HR :-nan: L2-HR :0.78913: (Sim:0h37m0s) 
CPU  1 inst:   49000002 cyc:   53005806 now IPC :0.85738: AVG IPC :0.90344: L2-Pf-HR :-nan: L2-HR :0.79166: (Sim:0h37m31s) 
CPU  3 inst:   47000000 cyc:   53059054 now IPC :0.89439: AVG IPC :0.86412: L2-Pf-HR :-nan: L2-HR :0.78564: (Sim:0h37m33s) 
CPU  2 inst:   47000000 cyc:   53283592 now IPC :0.87439: AVG IPC :0.86040: L2-Pf-HR :-nan: L2-HR :0.78760: (Sim:0h37m43s) 
CPU  0 inst:   50000000 cyc:   53658233 now IPC :0.76738: AVG IPC :0.91125: L2-Pf-HR :-nan: L2-HR :0.78863: (Sim:0h38m0s) 
CPU  1 inst:   50000000 cyc:   54205021 now IPC :0.83388: AVG IPC :0.90187: L2-Pf-HR :-nan: L2-HR :0.79113: (Sim:0h38m25s) 
CPU  3 inst:   48000004 cyc:   54299478 now IPC :0.80618: AVG IPC :0.86278: L2-Pf-HR :-nan: L2-HR :0.78619: (Sim:0h38m30s) 
CPU  2 inst:   48000004 cyc:   54442143 now IPC :0.86315: AVG IPC :0.86046: L2-Pf-HR :-nan: L2-HR :0.78813: (Sim:0h38m37s) 
CPU  0 inst:   51000005 cyc:   54870231 now IPC :0.82509: AVG IPC :0.90931: L2-Pf-HR :-nan: L2-HR :0.78913: (Sim:0h38m57s) 
CPU  1 inst:   51000005 cyc:   55256025 now IPC :0.95148: AVG IPC :0.90283: L2-Pf-HR :-nan: L2-HR :0.79152: (Sim:0h39m16s) 
CPU  3 inst:   49000002 cyc:   55380954 now IPC :0.92466: AVG IPC :0.86401: L2-Pf-HR :-nan: L2-HR :0.78595: (Sim:0h39m22s) 
CPU  2 inst:   49000002 cyc:   55490685 now IPC :0.95370: AVG IPC :0.86225: L2-Pf-HR :-nan: L2-HR :0.78796: (Sim:0h39m28s) 
CPU  0 inst:   52000005 cyc:   55944103 now IPC :0.93121: AVG IPC :0.90974: L2-Pf-HR :-nan: L2-HR :0.78981: (Sim:0h39m49s) 
CPU  1 inst:   52000005 cyc:   56398793 now IPC :0.87507: AVG IPC :0.90226: L2-Pf-HR :-nan: L2-HR :0.79208: (Sim:0h40m10s) 
CPU  3 inst:   50000000 cyc:   56550243 now IPC :0.85522: AVG IPC :0.86382: L2-Pf-HR :-nan: L2-HR :0.78550: (Sim:0h40m18s) 
CPU  2 inst:   50000000 cyc:   56763349 now IPC :0.78575: AVG IPC :0.86051: L2-Pf-HR :-nan: L2-HR :0.78754: (Sim:0h40m28s) 
CPU  0 inst:   53000004 cyc:   57051303 now IPC :0.90318: AVG IPC :0.90961: L2-Pf-HR :-nan: L2-HR :0.78968: (Sim:0h40m42s) 
CPU  1 inst:   53000004 cyc:   57529225 now IPC :0.88462: AVG IPC :0.90191: L2-Pf-HR :-nan: L2-HR :0.79195: (Sim:0h41m6s) 
CPU  3 inst:   51000005 cyc:   57606009 now IPC :0.94718: AVG IPC :0.86538: L2-Pf-HR :-nan: L2-HR :0.78600: (Sim:0h41m10s) 
CPU  2 inst:   51000003 cyc:   57881113 now IPC :0.89465: AVG IPC :0.86118: L2-Pf-HR :-nan: L2-HR :0.78799: (Sim:0h41m22s) 
CPU  0 inst:   54000005 cyc:   58329471 now IPC :0.78237: AVG IPC :0.90677: L2-Pf-HR :-nan: L2-HR :0.78895: (Sim:0h41m41s) 
CPU  3 inst:   52000005 cyc:   58690793 now IPC :0.92184: AVG IPC :0.86644: L2-Pf-HR :-nan: L2-HR :0.78668: (Sim:0h42m1s) 
CPU  1 inst:   54000005 cyc:   58720028 now IPC :0.83977: AVG IPC :0.90063: L2-Pf-HR :-nan: L2-HR :0.79114: (Sim:0h42m2s) 
CPU  2 inst:   52000005 cyc:   58997264 now IPC :0.89594: AVG IPC :0.86185: L2-Pf-HR :-nan: L2-HR :0.78865: (Sim:0h42m17s) 
CPU  0 inst:   55000001 cyc:   59380995 now IPC :0.95100: AVG IPC :0.90757: L2-Pf-HR :-nan: L2-HR :0.78958: (Sim:0h42m35s) 
CPU  1 inst:   55000001 cyc:   59737901 now IPC :0.98244: AVG IPC :0.90204: L2-Pf-HR :-nan: L2-HR :0.79171: (Sim:0h42m51s) 
CPU  3 inst:   53000004 cyc:   59753303 now IPC :0.94117: AVG IPC :0.86779: L2-Pf-HR :-nan: L2-HR :0.78667: (Sim:0h42m51s) 
CPU  2 inst:   53000004 cyc:   60090547 now IPC :0.91468: AVG IPC :0.86283: L2-Pf-HR :-nan: L2-HR :0.78846: (Sim:0h43m8s) 
CPU  0 inst:   56000001 cyc:   60525573 now IPC :0.87368: AVG IPC :0.90692: L2-Pf-HR :-nan: L2-HR :0.78995: (Sim:0h43m29s) 
CPU  1 inst:   56000004 cyc:   60879716 now IPC :0.87580: AVG IPC :0.90154: L2-Pf-HR :-nan: L2-HR :0.79201: (Sim:0h43m46s) 
CPU  3 inst:   54000005 cyc:   60950463 now IPC :0.83531: AVG IPC :0.86714: L2-Pf-HR :-nan: L2-HR :0.78598: (Sim:0h43m50s) 
CPU  2 inst:   54000005 cyc:   61273993 now IPC :0.84499: AVG IPC :0.86248: L2-Pf-HR :-nan: L2-HR :0.78772: (Sim:0h44m6s) 
CPU  0 inst:   57000004 cyc:   61634446 now IPC :0.90182: AVG IPC :0.90682: L2-Pf-HR :-nan: L2-HR :0.79002: (Sim:0h44m23s) 
CPU  1 inst:   57000004 cyc:   61916383 now IPC :0.96463: AVG IPC :0.90262: L2-Pf-HR :-nan: L2-HR :0.79220: (Sim:0h44m36s) 
CPU  3 inst:   55000001 cyc:   61977822 now IPC :0.97337: AVG IPC :0.86893: L2-Pf-HR :-nan: L2-HR :0.78669: (Sim:0h44m40s) 
CPU  2 inst:   55000001 cyc:   62327016 now IPC :0.94964: AVG IPC :0.86397: L2-Pf-HR :-nan: L2-HR :0.78840: (Sim:0h44m57s) 
CPU  0 inst:   58000001 cyc:   62902400 now IPC :0.78867: AVG IPC :0.90440: L2-Pf-HR :-nan: L2-HR :0.78927: (Sim:0h45m23s) 
CPU  3 inst:   56000001 cyc:   63101110 now IPC :0.89024: AVG IPC :0.86931: L2-Pf-HR :-nan: L2-HR :0.78712: (Sim:0h45m33s) 
CPU  1 inst:   58000001 cyc:   63136603 now IPC :0.81952: AVG IPC :0.90099: L2-Pf-HR :-nan: L2-HR :0.79140: (Sim:0h45m35s) 
CPU  2 inst:   56000001 cyc:   63536465 now IPC :0.82682: AVG IPC :0.86325: L2-Pf-HR :-nan: L2-HR :0.78880: (Sim:0h45m56s) 
CPU  0 inst:   59000002 cyc:   64065584 now IPC :0.85971: AVG IPC :0.90358: L2-Pf-HR :-nan: L2-HR :0.78970: (Sim:0h46m24s) 
CPU  3 inst:   57000004 cyc:   64156617 now IPC :0.94741: AVG IPC :0.87062: L2-Pf-HR :-nan: L2-HR :0.78737: (Sim:0h46m28s) 
CPU  1 inst:   59000002 cyc:   64195734 now IPC :0.94417: AVG IPC :0.90171: L2-Pf-HR :-nan: L2-HR :0.79177: (Sim:0h46m30s) 
CPU  2 inst:   57000004 cyc:   64701935 now IPC :0.85803: AVG IPC :0.86316: L2-Pf-HR :-nan: L2-HR :0.78897: (Sim:0h46m56s) 
CPU  0 inst:   60000004 cyc:   65201813 now IPC :0.88011: AVG IPC :0.90316: L2-Pf-HR :-nan: L2-HR :0.79014: (Sim:0h47m23s) 
CPU  1 inst:   60000003 cyc:   65311600 now IPC :0.89617: AVG IPC :0.90161: L2-Pf-HR :-nan: L2-HR :0.79218: (Sim:0h47m29s) 
CPU  3 inst:   58000001 cyc:   65345401 now IPC :0.84119: AVG IPC :0.87008: L2-Pf-HR :-nan: L2-HR :0.78664: (Sim:0h47m31s) 
CPU  2 inst:   58000001 cyc:   65836956 now IPC :0.88104: AVG IPC :0.86347: L2-Pf-HR :-nan: L2-HR :0.78825: (Sim:0h47m57s) 
CPU  0 inst:   61000002 cyc:   66292548 now IPC :0.91681: AVG IPC :0.90339: L2-Pf-HR :-nan: L2-HR :0.79028: (Sim:0h48m22s) 
CPU  1 inst:   61000002 cyc:   66399650 now IPC :0.91907: AVG IPC :0.90190: L2-Pf-HR :-nan: L2-HR :0.79238: (Sim:0h48m29s) 
CPU  3 inst:   59000002 cyc:   66412953 now IPC :0.93672: AVG IPC :0.87116: L2-Pf-HR :-nan: L2-HR :0.78714: (Sim:0h48m30s) 
CPU  2 inst:   59000002 cyc:   66882852 now IPC :0.95612: AVG IPC :0.86494: L2-Pf-HR :-nan: L2-HR :0.78871: (Sim:0h48m58s) 
CPU  0 inst:   62000001 cyc:   67490820 now IPC :0.83453: AVG IPC :0.90215: L2-Pf-HR :-nan: L2-HR :0.78943: (Sim:0h49m29s) 
CPU  3 inst:   60000005 cyc:   67531857 now IPC :0.89373: AVG IPC :0.87154: L2-Pf-HR :-nan: L2-HR :0.78761: (Sim:0h49m31s) 
CPU  1 inst:   62000001 cyc:   67589937 now IPC :0.84013: AVG IPC :0.90080: L2-Pf-HR :-nan: L2-HR :0.79148: (Sim:0h49m34s) 
CPU  2 inst:   60000004 cyc:   68174690 now IPC :0.77409: AVG IPC :0.86319: L2-Pf-HR :-nan: L2-HR :0.78918: (Sim:0h50m6s) 
CPU  3 inst:   61000002 cyc:   68669741 now IPC :0.87882: AVG IPC :0.87167: L2-Pf-HR :-nan: L2-HR :0.78772: (Sim:0h50m34s) 
CPU  0 inst:   63000000 cyc:   68795371 now IPC :0.76655: AVG IPC :0.89954: L2-Pf-HR :-nan: L2-HR :0.78988: (Sim:0h50m41s) 
CPU  1 inst:   63000000 cyc:   68879326 now IPC :0.77556: AVG IPC :0.89842: L2-Pf-HR :-nan: L2-HR :0.79189: (Sim:0h50m45s) 
CPU  2 inst:   61000002 cyc:   69382111 now IPC :0.82821: AVG IPC :0.86258: L2-Pf-HR :-nan: L2-HR :0.78930: (Sim:0h51m15s) 
CPU  3 inst:   62000001 cyc:   69863771 now IPC :0.83750: AVG IPC :0.87107: L2-Pf-HR :-nan: L2-HR :0.78686: (Sim:0h51m43s) 
CPU  0 inst:   64000000 cyc:   70036141 now IPC :0.80595: AVG IPC :0.89786: L2-Pf-HR :-nan: L2-HR :0.79029: (Sim:0h51m54s) 
CPU  1 inst:   64000003 cyc:   70081127 now IPC :0.83209: AVG IPC :0.89727: L2-Pf-HR :-nan: L2-HR :0.79223: (Sim:0h51m57s) 
CPU  2 inst:   62000001 cyc:   70518884 now IPC :0.87968: AVG IPC :0.86286: L2-Pf-HR :-nan: L2-HR :0.78851: (Sim:0h52m20s) 
CPU  3 inst:   63000000 cyc:   70924217 now IPC :0.94300: AVG IPC :0.87216: L2-Pf-HR :-nan: L2-HR :0.78734: (Sim:0h52m46s) 
CPU  0 inst:   65000000 cyc:   71200660 now IPC :0.85872: AVG IPC :0.89721: L2-Pf-HR :-nan: L2-HR :0.79058: (Sim:0h53m5s) 
CPU  1 inst:   65000000 cyc:   71251586 now IPC :0.85436: AVG IPC :0.89655: L2-Pf-HR :-nan: L2-HR :0.79247: (Sim:0h53m8s) 
CPU  2 inst:   63000000 cyc:   71672949 now IPC :0.86650: AVG IPC :0.86292: L2-Pf-HR :-nan: L2-HR :0.78898: (Sim:0h53m32s) 
CPU  3 inst:   64000003 cyc:   72087040 now IPC :0.85998: AVG IPC :0.87196: L2-Pf-HR :-nan: L2-HR :0.78775: (Sim:0h53m57s) 
CPU  2 inst:   64000000 cyc:   73006683 now IPC :0.74977: AVG IPC :0.86082: L2-Pf-HR :-nan: L2-HR :0.78939: (Sim:0h54m29s) 
CPU  3 inst:   65000000 cyc:   73904096 now IPC :0.55034: AVG IPC :0.86395: L2-Pf-HR :-nan: L2-HR :0.78797: (Sim:0h55m3s) 
CPU  0 inst:   66000001 cyc:   73937739 now IPC :0.36535: AVG IPC :0.87726: L2-Pf-HR :-nan: L2-HR :0.78511: (Sim:0h55m4s) 
CPU  1 inst:   66000001 cyc:   73974861 now IPC :0.36721: AVG IPC :0.87680: L2-Pf-HR :-nan: L2-HR :0.78699: (Sim:0h55m6s) 
CPU  2 inst:   65000000 cyc:   75383701 now IPC :0.42070: AVG IPC :0.84676: L2-Pf-HR :-nan: L2-HR :0.78955: (Sim:0h55m56s) 
CPU  3 inst:   66000004 cyc:   78512613 now IPC :0.21699: AVG IPC :0.82549: L2-Pf-HR :-nan: L2-HR :0.78261: (Sim:0h57m35s) 
CPU  2 inst:   66000000 cyc:   81206951 now IPC :0.17173: AVG IPC :0.79776: L2-Pf-HR :-nan: L2-HR :0.78412: (Sim:0h58m58s) 
CPU  0 inst:   67000000 cyc:   92099627 now IPC :0.05506: AVG IPC :0.71337: L2-Pf-HR :-nan: L2-HR :0.75042: (Sim:1h5m7s) 
CPU  1 inst:   67000003 cyc:   92239912 now IPC :0.05475: AVG IPC :0.71227: L2-Pf-HR :-nan: L2-HR :0.75208: (Sim:1h5m12s) 
CPU  3 inst:   67000000 cyc:   99917717 now IPC :0.04672: AVG IPC :0.65700: L2-Pf-HR :-nan: L2-HR :0.74822: (Sim:1h9m48s) 
CPU  2 inst:   67000003 cyc:  103100258 now IPC :0.04568: AVG IPC :0.63652: L2-Pf-HR :-nan: L2-HR :0.74954: (Sim:1h11m37s) 
Caught signal: 2
     > Finished combination: TraceType=770-tot Sim:162000000 Prefetcher=L2no L1=no
