TRACE: [83000000][Pythia-70M]_[h8][s512][d64] Warmup: 2000000 NumTraces: 83000000
L1:next_line:L2:029-SecTOP-L2-MultiMarkovDelta_ip_stride_v4-IPStrS256
*************************************************
   ChampSim Multicore Out-of-Order Simulator
   Last compiled: Oct 29 2024 15:44:34
*************************************************

trace_0 770-tot_memTraces_v3_rexz/memTraces[83000000][Pythia-70M]_[h8][s512][d64].champsim.9.xz
trace_1 770-tot_memTraces_v3_rexz/memTraces[83000000][Pythia-70M]_[h8][s512][d64].champsim.9.xz
trace_2 770-tot_memTraces_v3_rexz/memTraces[83000000][Pythia-70M]_[h8][s512][d64].champsim.9.xz
trace_3 770-tot_memTraces_v3_rexz/memTraces[83000000][Pythia-70M]_[h8][s512][d64].champsim.9.xz
CPU 0 L1D next line prefetcher
MK1: Size: 128 TMAX: 64 TMIN: 32 MKPTHRESH: 40
MK2: Size: 256 TMAX: 32 TMIN: 16 MK2PTHRESH: 30
MK3: Size: 384 TMAX: 16 TMIN: 8 MK3PTHRESH: 25
MK4: Size: 512 TMAX: 8 TMIN: 0 MK4PTHRESH: 20
Stride Size: 256 Prefetch Degree: 15

CPU 0 L2C prefetcher
CPU 1 L1D next line prefetcher
MK1: Size: 128 TMAX: 64 TMIN: 32 MKPTHRESH: 40
MK2: Size: 256 TMAX: 32 TMIN: 16 MK2PTHRESH: 30
MK3: Size: 384 TMAX: 16 TMIN: 8 MK3PTHRESH: 25
MK4: Size: 512 TMAX: 8 TMIN: 0 MK4PTHRESH: 20
Stride Size: 256 Prefetch Degree: 15

CPU 1 L2C prefetcher
CPU 2 L1D next line prefetcher
MK1: Size: 128 TMAX: 64 TMIN: 32 MKPTHRESH: 40
MK2: Size: 256 TMAX: 32 TMIN: 16 MK2PTHRESH: 30
MK3: Size: 384 TMAX: 16 TMIN: 8 MK3PTHRESH: 25
MK4: Size: 512 TMAX: 8 TMIN: 0 MK4PTHRESH: 20
Stride Size: 256 Prefetch Degree: 15

CPU 2 L2C prefetcher
CPU 3 L1D next line prefetcher
MK1: Size: 128 TMAX: 64 TMIN: 32 MKPTHRESH: 40
MK2: Size: 256 TMAX: 32 TMIN: 16 MK2PTHRESH: 30
MK3: Size: 384 TMAX: 16 TMIN: 8 MK3PTHRESH: 25
MK4: Size: 512 TMAX: 8 TMIN: 0 MK4PTHRESH: 20
Stride Size: 256 Prefetch Degree: 15

CPU 3 L2C prefetcher
MAIN.cc ln 751 stats print skipped
CPU 0 L2C prefetcher initialized


Cache Size: 1280
number of cache lines: 20480
CPU  0 inst:    1000003 cyc:     502607 now IPC :1.98963: AVG IPC :1.98963: L2-Pf-HR :0.77231: L2-HR :0.74997: (Sim:0h0m41s) 
CPU  3 inst:    1000003 cyc:     502687 now IPC :1.98932: AVG IPC :1.98932: L2-Pf-HR :0.76825: L2-HR :0.75757: (Sim:0h0m41s) 
CPU  2 inst:    1000003 cyc:     502701 now IPC :1.98926: AVG IPC :1.98926: L2-Pf-HR :0.77624: L2-HR :0.75326: (Sim:0h0m41s) 
CPU  1 inst:    1000003 cyc:     502724 now IPC :1.98917: AVG IPC :1.98917: L2-Pf-HR :0.77254: L2-HR :0.75923: (Sim:0h0m41s) 
CPU  0 inst:    2000001 cyc:     985575 now IPC :2.07053: AVG IPC :2.02927: L2-Pf-HR :0.83328: L2-HR :0.81605: (Sim:0h1m14s) 
CPU  2 inst:    2000001 cyc:     985608 now IPC :2.07079: AVG IPC :2.02921: L2-Pf-HR :0.82079: L2-HR :0.80290: (Sim:0h1m14s) 
CPU  3 inst:    2000001 cyc:     985695 now IPC :2.07035: AVG IPC :2.02903: L2-Pf-HR :0.83861: L2-HR :0.83183: (Sim:0h1m14s) 
CPU  1 inst:    2000001 cyc:     985732 now IPC :2.07035: AVG IPC :2.02895: L2-Pf-HR :0.85423: L2-HR :0.84343: (Sim:0h1m14s) 

Warmup complete CPU  0 instructions:    2000282 cycles:     985732 (Simulation time: 0 hr 1 min 14 sec) 
Warmup complete CPU  1 instructions:    2000001 cycles:     985732 (Simulation time: 0 hr 1 min 14 sec) 
Warmup complete CPU  2 instructions:    2000282 cycles:     985731 (Simulation time: 0 hr 1 min 14 sec) 
Warmup complete CPU  3 instructions:    2000105 cycles:     985731 (Simulation time: 0 hr 1 min 14 sec) 

CPU  1 inst:    3000004 cyc:    1484537 now IPC :2.00480: AVG IPC :2.00480: L2-Pf-HR :0.91637: L2-HR :0.91764: (Sim:0h1m41s) 
CPU  0 inst:    3000004 cyc:    1486560 now IPC :1.99607: AVG IPC :1.99614: L2-Pf-HR :0.83476: L2-HR :0.83859: (Sim:0h1m41s) 
CPU  2 inst:    3000004 cyc:    1486611 now IPC :1.99600: AVG IPC :1.99593: L2-Pf-HR :0.82343: L2-HR :0.81797: (Sim:0h1m41s) 
CPU  3 inst:    3000004 cyc:    1486662 now IPC :1.99615: AVG IPC :1.99608: L2-Pf-HR :0.89790: L2-HR :0.90129: (Sim:0h1m41s) 
CPU  1 inst:    4000005 cyc:    2020880 now IPC :1.86448: AVG IPC :1.93209: L2-Pf-HR :0.90497: L2-HR :0.91177: (Sim:0h2m10s) 
CPU  3 inst:    4000005 cyc:    2022283 now IPC :1.86699: AVG IPC :1.92938: L2-Pf-HR :0.89375: L2-HR :0.90196: (Sim:0h2m10s) 
CPU  2 inst:    4000005 cyc:    2022858 now IPC :1.86481: AVG IPC :1.92814: L2-Pf-HR :0.84895: L2-HR :0.85080: (Sim:0h2m10s) 
CPU  0 inst:    4000005 cyc:    2023361 now IPC :1.86289: AVG IPC :1.92720: L2-Pf-HR :0.85306: L2-HR :0.86155: (Sim:0h2m10s) 
CPU  3 inst:    5000000 cyc:    2685565 now IPC :1.50765: AVG IPC :1.76482: L2-Pf-HR :0.87762: L2-HR :0.88220: (Sim:0h2m39s) 
CPU  1 inst:    5000000 cyc:    2686849 now IPC :1.50156: AVG IPC :1.76355: L2-Pf-HR :0.87429: L2-HR :0.87851: (Sim:0h2m39s) 
CPU  0 inst:    5000000 cyc:    2686972 now IPC :1.50690: AVG IPC :1.76325: L2-Pf-HR :0.85253: L2-HR :0.85807: (Sim:0h2m39s) 
CPU  2 inst:    5000000 cyc:    2687619 now IPC :1.50429: AVG IPC :1.76258: L2-Pf-HR :0.83138: L2-HR :0.83132: (Sim:0h2m39s) 
CPU  3 inst:    6000001 cyc:    3170552 now IPC :2.06191: AVG IPC :1.83077: L2-Pf-HR :0.87148: L2-HR :0.87594: (Sim:0h3m8s) 
CPU  2 inst:    6000001 cyc:    3171556 now IPC :2.06639: AVG IPC :1.82984: L2-Pf-HR :0.81225: L2-HR :0.81417: (Sim:0h3m8s) 
CPU  1 inst:    6000001 cyc:    3173552 now IPC :2.05464: AVG IPC :1.82830: L2-Pf-HR :0.85263: L2-HR :0.85884: (Sim:0h3m8s) 
CPU  0 inst:    6000001 cyc:    3173678 now IPC :2.05463: AVG IPC :1.82807: L2-Pf-HR :0.85231: L2-HR :0.85934: (Sim:0h3m8s) 
CPU  3 inst:    7000002 cyc:    3643769 now IPC :2.11320: AVG IPC :1.88105: L2-Pf-HR :0.87537: L2-HR :0.87839: (Sim:0h3m51s) 
CPU  0 inst:    7000002 cyc:    3652454 now IPC :2.08866: AVG IPC :1.87486: L2-Pf-HR :0.85776: L2-HR :0.86416: (Sim:0h3m52s) 
CPU  1 inst:    7000002 cyc:    3655000 now IPC :2.07707: AVG IPC :1.87317: L2-Pf-HR :0.84292: L2-HR :0.84974: (Sim:0h3m52s) 
CPU  2 inst:    7000002 cyc:    3656750 now IPC :2.06103: AVG IPC :1.87184: L2-Pf-HR :0.80147: L2-HR :0.80439: (Sim:0h3m52s) 
CPU  3 inst:    8000001 cyc:    4179021 now IPC :1.86828: AVG IPC :1.87891: L2-Pf-HR :0.87350: L2-HR :0.87817: (Sim:0h4m34s) 
CPU  0 inst:    8000001 cyc:    4199396 now IPC :1.82835: AVG IPC :1.86694: L2-Pf-HR :0.86002: L2-HR :0.86761: (Sim:0h4m36s) 
CPU  1 inst:    8000001 cyc:    4221154 now IPC :1.76630: AVG IPC :1.85447: L2-Pf-HR :0.84314: L2-HR :0.85140: (Sim:0h4m38s) 
CPU  2 inst:    8000001 cyc:    4221160 now IPC :1.77176: AVG IPC :1.85438: L2-Pf-HR :0.80821: L2-HR :0.81235: (Sim:0h4m38s) 
CPU  3 inst:    9000004 cyc:    5133448 now IPC :1.04775: AVG IPC :1.68765: L2-Pf-HR :0.87339: L2-HR :0.87852: (Sim:0h5m23s) 
CPU  0 inst:    9000004 cyc:    5248487 now IPC :0.95321: AVG IPC :1.64207: L2-Pf-HR :0.86264: L2-HR :0.87046: (Sim:0h5m31s) 
CPU  2 inst:    9000004 cyc:    5352449 now IPC :0.88395: AVG IPC :1.60297: L2-Pf-HR :0.81925: L2-HR :0.82378: (Sim:0h5m39s) 
CPU  1 inst:    9000004 cyc:    5410996 now IPC :0.84045: AVG IPC :1.58183: L2-Pf-HR :0.84868: L2-HR :0.85692: (Sim:0h5m43s) 
CPU  3 inst:   10000002 cyc:    5851527 now IPC :1.39260: AVG IPC :1.64411: L2-Pf-HR :0.87831: L2-HR :0.88407: (Sim:0h6m14s) 
CPU  0 inst:   10000002 cyc:    5898454 now IPC :1.53854: AVG IPC :1.62837: L2-Pf-HR :0.87004: L2-HR :0.87870: (Sim:0h6m16s) 
CPU  2 inst:   10000002 cyc:    6000070 now IPC :1.54411: AVG IPC :1.59537: L2-Pf-HR :0.83215: L2-HR :0.83736: (Sim:0h6m21s) 
CPU  1 inst:   10000002 cyc:    6082764 now IPC :1.48861: AVG IPC :1.56954: L2-Pf-HR :0.85781: L2-HR :0.86675: (Sim:0h6m24s) 
CPU  0 inst:   11000003 cyc:    6546898 now IPC :1.54215: AVG IPC :1.61832: L2-Pf-HR :0.87722: L2-HR :0.88601: (Sim:0h6m45s) 
CPU  3 inst:   11000003 cyc:    6547467 now IPC :1.43691: AVG IPC :1.61818: L2-Pf-HR :0.88339: L2-HR :0.88921: (Sim:0h6m45s) 
CPU  2 inst:   11000003 cyc:    6612855 now IPC :1.63190: AVG IPC :1.59935: L2-Pf-HR :0.84361: L2-HR :0.84890: (Sim:0h6m48s) 
CPU  1 inst:   11000003 cyc:    6663114 now IPC :1.72310: AVG IPC :1.58524: L2-Pf-HR :0.86643: L2-HR :0.87540: (Sim:0h6m51s) 
CPU  0 inst:   12000005 cyc:    7226258 now IPC :1.47198: AVG IPC :1.60238: L2-Pf-HR :0.88278: L2-HR :0.89093: (Sim:0h7m12s) 
CPU  3 inst:   12000005 cyc:    7230911 now IPC :1.46318: AVG IPC :1.60122: L2-Pf-HR :0.88712: L2-HR :0.89272: (Sim:0h7m12s) 
CPU  2 inst:   12000005 cyc:    7446028 now IPC :1.20023: AVG IPC :1.54787: L2-Pf-HR :0.85199: L2-HR :0.85680: (Sim:0h7m23s) 
CPU  1 inst:   12000005 cyc:    7496800 now IPC :1.19949: AVG IPC :1.53585: L2-Pf-HR :0.87324: L2-HR :0.88131: (Sim:0h7m26s) 
CPU  3 inst:   13000001 cyc:    8488080 now IPC :0.79543: AVG IPC :1.46619: L2-Pf-HR :0.88652: L2-HR :0.89204: (Sim:0h7m54s) 
CPU  0 inst:   13000001 cyc:    8491106 now IPC :0.79061: AVG IPC :1.46558: L2-Pf-HR :0.88243: L2-HR :0.89037: (Sim:0h7m54s) 
CPU  2 inst:   13000001 cyc:    8984048 now IPC :0.65018: AVG IPC :1.37525: L2-Pf-HR :0.85546: L2-HR :0.85984: (Sim:0h8m10s) 
CPU  1 inst:   13000001 cyc:    9039094 now IPC :0.64838: AVG IPC :1.36589: L2-Pf-HR :0.87528: L2-HR :0.88266: (Sim:0h8m14s) 
CPU  3 inst:   14000000 cyc:    9278520 now IPC :1.26512: AVG IPC :1.44703: L2-Pf-HR :0.89003: L2-HR :0.89593: (Sim:0h8m24s) 
CPU  0 inst:   14000000 cyc:    9285042 now IPC :1.25955: AVG IPC :1.44587: L2-Pf-HR :0.88643: L2-HR :0.89457: (Sim:0h8m24s) 
CPU  1 inst:   14000000 cyc:    9911531 now IPC :1.14621: AVG IPC :1.34442: L2-Pf-HR :0.87888: L2-HR :0.88637: (Sim:0h8m55s) 
CPU  2 inst:   14000000 cyc:    9917402 now IPC :1.07140: AVG IPC :1.34350: L2-Pf-HR :0.86066: L2-HR :0.86529: (Sim:0h8m55s) 
CPU  3 inst:   15000002 cyc:   10170287 now IPC :1.12137: AVG IPC :1.41541: L2-Pf-HR :0.89245: L2-HR :0.89864: (Sim:0h9m6s) 
CPU  0 inst:   15000002 cyc:   10171056 now IPC :1.12865: AVG IPC :1.41527: L2-Pf-HR :0.88929: L2-HR :0.89738: (Sim:0h9m6s) 
CPU  2 inst:   15000002 cyc:   10577627 now IPC :1.51464: AVG IPC :1.35528: L2-Pf-HR :0.86485: L2-HR :0.86981: (Sim:0h9m32s) 
CPU  1 inst:   15000002 cyc:   10578148 now IPC :1.50011: AVG IPC :1.35524: L2-Pf-HR :0.88219: L2-HR :0.88983: (Sim:0h9m32s) 
CPU  0 inst:   16000000 cyc:   10861860 now IPC :1.44759: AVG IPC :1.41753: L2-Pf-HR :0.89214: L2-HR :0.89978: (Sim:0h9m50s) 
CPU  3 inst:   16000000 cyc:   10909115 now IPC :1.35349: AVG IPC :1.41080: L2-Pf-HR :0.89505: L2-HR :0.90099: (Sim:0h9m54s) 
CPU  1 inst:   16000000 cyc:   11333890 now IPC :1.32320: AVG IPC :1.35290: L2-Pf-HR :0.88613: L2-HR :0.89325: (Sim:0h10m15s) 
CPU  2 inst:   16000000 cyc:   11340318 now IPC :1.31114: AVG IPC :1.35203: L2-Pf-HR :0.87029: L2-HR :0.87472: (Sim:0h10m16s) 
CPU  0 inst:   17000000 cyc:   12158949 now IPC :0.77096: AVG IPC :1.34247: L2-Pf-HR :0.89182: L2-HR :0.89919: (Sim:0h10m38s) 
CPU  3 inst:   17000000 cyc:   12260407 now IPC :0.74003: AVG IPC :1.33041: L2-Pf-HR :0.89444: L2-HR :0.90018: (Sim:0h10m41s) 
CPU  0 inst:   18000000 cyc:   12919599 now IPC :1.31467: AVG IPC :1.34070: L2-Pf-HR :0.89415: L2-HR :0.90166: (Sim:0h11m3s) 
CPU  2 inst:   17000000 cyc:   12925062 now IPC :0.63102: AVG IPC :1.25633: L2-Pf-HR :0.87133: L2-HR :0.87564: (Sim:0h11m4s) 
CPU  1 inst:   17000000 cyc:   12942861 now IPC :0.62152: AVG IPC :1.25448: L2-Pf-HR :0.88578: L2-HR :0.89248: (Sim:0h11m4s) 
CPU  3 inst:   18000000 cyc:   13125996 now IPC :1.15528: AVG IPC :1.31792: L2-Pf-HR :0.89597: L2-HR :0.90186: (Sim:0h11m14s) 
CPU  0 inst:   19000000 cyc:   13763359 now IPC :1.18517: AVG IPC :1.33043: L2-Pf-HR :0.89602: L2-HR :0.90377: (Sim:0h11m54s) 
CPU  2 inst:   18000000 cyc:   13778094 now IPC :1.17229: AVG IPC :1.25072: L2-Pf-HR :0.87444: L2-HR :0.87920: (Sim:0h11m55s) 
CPU  1 inst:   18000000 cyc:   13866364 now IPC :1.08283: AVG IPC :1.24217: L2-Pf-HR :0.88696: L2-HR :0.89370: (Sim:0h12m1s) 
CPU  3 inst:   19000000 cyc:   13948725 now IPC :1.21547: AVG IPC :1.31142: L2-Pf-HR :0.89746: L2-HR :0.90341: (Sim:0h12m8s) 
CPU  2 inst:   19000000 cyc:   14413226 now IPC :1.57448: AVG IPC :1.26604: L2-Pf-HR :0.87731: L2-HR :0.88254: (Sim:0h12m39s) 
CPU  1 inst:   19000000 cyc:   14503502 now IPC :1.56952: AVG IPC :1.25760: L2-Pf-HR :0.88848: L2-HR :0.89536: (Sim:0h12m45s) 
CPU  0 inst:   20000000 cyc:   14570650 now IPC :1.23871: AVG IPC :1.32498: L2-Pf-HR :0.89880: L2-HR :0.90607: (Sim:0h12m50s) 
CPU  3 inst:   20000000 cyc:   14765353 now IPC :1.22455: AVG IPC :1.30627: L2-Pf-HR :0.89982: L2-HR :0.90533: (Sim:0h13m5s) 
CPU  2 inst:   20000000 cyc:   15156946 now IPC :1.34459: AVG IPC :1.27016: L2-Pf-HR :0.88195: L2-HR :0.88663: (Sim:0h13m27s) 
CPU  1 inst:   20000000 cyc:   15323750 now IPC :1.21914: AVG IPC :1.25540: L2-Pf-HR :0.89206: L2-HR :0.89808: (Sim:0h13m36s) 
CPU  0 inst:   21000001 cyc:   15829279 now IPC :0.79452: AVG IPC :1.28000: L2-Pf-HR :0.89798: L2-HR :0.90506: (Sim:0h14m0s) 
CPU  3 inst:   21000001 cyc:   16189658 now IPC :0.70210: AVG IPC :1.24967: L2-Pf-HR :0.89921: L2-HR :0.90460: (Sim:0h14m16s) 
CPU  0 inst:   22000004 cyc:   16527521 now IPC :1.43217: AVG IPC :1.28684: L2-Pf-HR :0.90023: L2-HR :0.90722: (Sim:0h14m33s) 
CPU  2 inst:   21000001 cyc:   16694620 now IPC :0.65033: AVG IPC :1.20949: L2-Pf-HR :0.88231: L2-HR :0.88686: (Sim:0h14m42s) 
CPU  1 inst:   21000001 cyc:   16869364 now IPC :0.64699: AVG IPC :1.19620: L2-Pf-HR :0.89209: L2-HR :0.89798: (Sim:0h14m54s) 
CPU  3 inst:   22000004 cyc:   16951497 now IPC :1.31262: AVG IPC :1.25267: L2-Pf-HR :0.90120: L2-HR :0.90666: (Sim:0h14m59s) 
CPU  0 inst:   23000002 cyc:   17303082 now IPC :1.28939: AVG IPC :1.28696: L2-Pf-HR :0.90245: L2-HR :0.90935: (Sim:0h15m21s) 
CPU  2 inst:   22000004 cyc:   17542006 now IPC :1.18010: AVG IPC :1.20798: L2-Pf-HR :0.88479: L2-HR :0.88936: (Sim:0h15m38s) 
CPU  1 inst:   22000004 cyc:   17630045 now IPC :1.31462: AVG IPC :1.20161: L2-Pf-HR :0.89418: L2-HR :0.90010: (Sim:0h15m44s) 
CPU  3 inst:   23000002 cyc:   17727191 now IPC :1.28917: AVG IPC :1.25436: L2-Pf-HR :0.90290: L2-HR :0.90839: (Sim:0h15m51s) 
CPU  2 inst:   23000002 cyc:   18161904 now IPC :1.61317: AVG IPC :1.22261: L2-Pf-HR :0.88677: L2-HR :0.89147: (Sim:0h16m22s) 
CPU  0 inst:   24000004 cyc:   18199130 now IPC :1.11601: AVG IPC :1.27806: L2-Pf-HR :0.90515: L2-HR :0.91153: (Sim:0h16m25s) 
CPU  1 inst:   23000002 cyc:   18251821 now IPC :1.60829: AVG IPC :1.21626: L2-Pf-HR :0.89592: L2-HR :0.90206: (Sim:0h16m28s) 
CPU  3 inst:   24000004 cyc:   18497819 now IPC :1.29765: AVG IPC :1.25627: L2-Pf-HR :0.90532: L2-HR :0.91040: (Sim:0h16m47s) 
CPU  2 inst:   24000004 cyc:   18898806 now IPC :1.35704: AVG IPC :1.22814: L2-Pf-HR :0.89033: L2-HR :0.89448: (Sim:0h17m11s) 
CPU  1 inst:   24000004 cyc:   19007410 now IPC :1.32347: AVG IPC :1.22075: L2-Pf-HR :0.89960: L2-HR :0.90511: (Sim:0h17m18s) 
CPU  0 inst:   25000004 cyc:   19361154 now IPC :0.86057: AVG IPC :1.25166: L2-Pf-HR :0.90391: L2-HR :0.91030: (Sim:0h17m33s) 
CPU  3 inst:   25000004 cyc:   19849036 now IPC :0.74007: AVG IPC :1.21929: L2-Pf-HR :0.90442: L2-HR :0.90945: (Sim:0h17m50s) 
CPU  0 inst:   26000002 cyc:   20101115 now IPC :1.35142: AVG IPC :1.25552: L2-Pf-HR :0.90466: L2-HR :0.91105: (Sim:0h18m2s) 
CPU  2 inst:   25000004 cyc:   20394432 now IPC :0.66862: AVG IPC :1.18502: L2-Pf-HR :0.89002: L2-HR :0.89419: (Sim:0h18m17s) 
CPU  1 inst:   25000004 cyc:   20523137 now IPC :0.65975: AVG IPC :1.17723: L2-Pf-HR :0.89861: L2-HR :0.90412: (Sim:0h18m25s) 
CPU  3 inst:   26000002 cyc:   20625762 now IPC :1.28745: AVG IPC :1.22199: L2-Pf-HR :0.90533: L2-HR :0.91057: (Sim:0h18m31s) 
CPU  0 inst:   27000005 cyc:   20916393 now IPC :1.22658: AVG IPC :1.25433: L2-Pf-HR :0.90600: L2-HR :0.91226: (Sim:0h18m49s) 
CPU  2 inst:   26000002 cyc:   21285959 now IPC :1.12167: AVG IPC :1.18224: L2-Pf-HR :0.89102: L2-HR :0.89539: (Sim:0h19m8s) 
CPU  1 inst:   26000002 cyc:   21370282 now IPC :1.18043: AVG IPC :1.17736: L2-Pf-HR :0.89939: L2-HR :0.90518: (Sim:0h19m14s) 
CPU  3 inst:   27000005 cyc:   21374969 now IPC :1.33475: AVG IPC :1.22613: L2-Pf-HR :0.90637: L2-HR :0.91175: (Sim:0h19m14s) 
CPU  2 inst:   27000005 cyc:   21880496 now IPC :1.68199: AVG IPC :1.19646: L2-Pf-HR :0.89231: L2-HR :0.89685: (Sim:0h19m50s) 
CPU  0 inst:   28000003 cyc:   21967641 now IPC :0.95125: AVG IPC :1.23915: L2-Pf-HR :0.90782: L2-HR :0.91353: (Sim:0h19m53s) 
CPU  1 inst:   27000005 cyc:   21982578 now IPC :1.63320: AVG IPC :1.19066: L2-Pf-HR :0.90039: L2-HR :0.90640: (Sim:0h19m54s) 
CPU  3 inst:   28000004 cyc:   22213431 now IPC :1.19266: AVG IPC :1.22481: L2-Pf-HR :0.90861: L2-HR :0.91355: (Sim:0h20m9s) 
CPU  2 inst:   28000004 cyc:   22695914 now IPC :1.22636: AVG IPC :1.19758: L2-Pf-HR :0.89516: L2-HR :0.89911: (Sim:0h20m41s) 
CPU  1 inst:   28000004 cyc:   22790869 now IPC :1.23718: AVG IPC :1.19238: L2-Pf-HR :0.90340: L2-HR :0.90883: (Sim:0h20m46s) 
CPU  0 inst:   29000002 cyc:   23050509 now IPC :0.92347: AVG IPC :1.22366: L2-Pf-HR :0.90684: L2-HR :0.91261: (Sim:0h21m0s) 
CPU  3 inst:   29000002 cyc:   23316614 now IPC :0.90647: AVG IPC :1.20908: L2-Pf-HR :0.90784: L2-HR :0.91290: (Sim:0h21m15s) 
CPU  0 inst:   30000000 cyc:   23863927 now IPC :1.22938: AVG IPC :1.22386: L2-Pf-HR :0.90697: L2-HR :0.91293: (Sim:0h21m39s) 
CPU  2 inst:   29000002 cyc:   24038492 now IPC :0.74483: AVG IPC :1.17121: L2-Pf-HR :0.89479: L2-HR :0.89891: (Sim:0h21m48s) 
CPU  1 inst:   29000002 cyc:   24111442 now IPC :0.75725: AVG IPC :1.16753: L2-Pf-HR :0.90261: L2-HR :0.90820: (Sim:0h21m51s) 
CPU  3 inst:   30000000 cyc:   24243448 now IPC :1.07894: AVG IPC :1.20390: L2-Pf-HR :0.90757: L2-HR :0.91294: (Sim:0h21m58s) 
CPU  0 inst:   31000004 cyc:   24559904 now IPC :1.43683: AVG IPC :1.23015: L2-Pf-HR :0.90764: L2-HR :0.91379: (Sim:0h22m17s) 
CPU  3 inst:   31000004 cyc:   24997028 now IPC :1.32700: AVG IPC :1.20776: L2-Pf-HR :0.90803: L2-HR :0.91364: (Sim:0h22m46s) 
CPU  2 inst:   30000000 cyc:   25060645 now IPC :0.97833: AVG IPC :1.16302: L2-Pf-HR :0.89488: L2-HR :0.89939: (Sim:0h22m51s) 
CPU  1 inst:   30000000 cyc:   25161662 now IPC :0.95218: AVG IPC :1.15818: L2-Pf-HR :0.90228: L2-HR :0.90812: (Sim:0h22m59s) 
CPU  0 inst:   32000002 cyc:   25431405 now IPC :1.14744: AVG IPC :1.22720: L2-Pf-HR :0.90955: L2-HR :0.91537: (Sim:0h23m17s) 
CPU  2 inst:   31000004 cyc:   25726162 now IPC :1.50260: AVG IPC :1.17216: L2-Pf-HR :0.89574: L2-HR :0.90057: (Sim:0h23m37s) 
CPU  1 inst:   31000004 cyc:   25819775 now IPC :1.51950: AVG IPC :1.16775: L2-Pf-HR :0.90270: L2-HR :0.90873: (Sim:0h23m43s) 
CPU  3 inst:   32000002 cyc:   25846859 now IPC :1.17670: AVG IPC :1.20670: L2-Pf-HR :0.91000: L2-HR :0.91532: (Sim:0h23m44s) 
CPU  0 inst:   33000000 cyc:   26290016 now IPC :1.16467: AVG IPC :1.22508: L2-Pf-HR :0.90848: L2-HR :0.91446: (Sim:0h24m17s) 
CPU  2 inst:   32000002 cyc:   26394101 now IPC :1.49714: AVG IPC :1.18070: L2-Pf-HR :0.89844: L2-HR :0.90291: (Sim:0h24m23s) 
CPU  1 inst:   32000002 cyc:   26545950 now IPC :1.37708: AVG IPC :1.17370: L2-Pf-HR :0.90517: L2-HR :0.91067: (Sim:0h24m27s) 
CPU  3 inst:   33000000 cyc:   26850835 now IPC :0.99604: AVG IPC :1.19852: L2-Pf-HR :0.90894: L2-HR :0.91440: (Sim:0h24m40s) 
CPU  2 inst:   33000000 cyc:   27422841 now IPC :0.97206: AVG IPC :1.17258: L2-Pf-HR :0.89795: L2-HR :0.90254: (Sim:0h24m55s) 
CPU  1 inst:   33000000 cyc:   27573545 now IPC :0.97314: AVG IPC :1.16595: L2-Pf-HR :0.90452: L2-HR :0.91011: (Sim:0h24m57s) 
CPU  0 inst:   34000000 cyc:   45422448 now IPC :0.05227: AVG IPC :0.72012: L2-Pf-HR :0.88828: L2-HR :0.87838: (Sim:0h34m36s) 
CPU  3 inst:   34000000 cyc:   47091971 now IPC :0.04940: AVG IPC :0.69405: L2-Pf-HR :0.88826: L2-HR :0.87815: (Sim:0h35m34s) 
CPU  2 inst:   34000003 cyc:   48583002 now IPC :0.04726: AVG IPC :0.67230: L2-Pf-HR :0.87759: L2-HR :0.86729: (Sim:0h36m26s) 
CPU  1 inst:   34000000 cyc:   48993464 now IPC :0.04669: AVG IPC :0.66656: L2-Pf-HR :0.88405: L2-HR :0.87434: (Sim:0h36m40s) 
CPU  0 inst:   35000002 cyc:   54375511 now IPC :0.11169: AVG IPC :0.61809: L2-Pf-HR :0.88070: L2-HR :0.86810: (Sim:0h39m33s) 
CPU  3 inst:   35000002 cyc:   55163772 now IPC :0.12389: AVG IPC :0.60910: L2-Pf-HR :0.88076: L2-HR :0.86798: (Sim:0h39m58s) 
CPU  2 inst:   35000002 cyc:   55854849 now IPC :0.13752: AVG IPC :0.60143: L2-Pf-HR :0.87009: L2-HR :0.85742: (Sim:0h40m21s) 
CPU  1 inst:   35000002 cyc:   55953356 now IPC :0.14368: AVG IPC :0.60035: L2-Pf-HR :0.87645: L2-HR :0.86432: (Sim:0h40m25s) 
CPU  0 inst:   36000001 cyc:   58306096 now IPC :0.25441: AVG IPC :0.59315: L2-Pf-HR :0.87701: L2-HR :0.86439: (Sim:0h41m47s) 
CPU  3 inst:   36000001 cyc:   59108835 now IPC :0.25348: AVG IPC :0.58496: L2-Pf-HR :0.87709: L2-HR :0.86427: (Sim:0h42m15s) 
CPU  2 inst:   36000001 cyc:   59806498 now IPC :0.25306: AVG IPC :0.57802: L2-Pf-HR :0.86632: L2-HR :0.85369: (Sim:0h42m41s) 
CPU  1 inst:   36000001 cyc:   59893530 now IPC :0.25380: AVG IPC :0.57717: L2-Pf-HR :0.87261: L2-HR :0.86051: (Sim:0h42m44s) 
CPU  0 inst:   37000001 cyc:   62223524 now IPC :0.25527: AVG IPC :0.57154: L2-Pf-HR :0.87351: L2-HR :0.86090: (Sim:0h44m9s) 
CPU  3 inst:   37000001 cyc:   63002331 now IPC :0.25684: AVG IPC :0.56436: L2-Pf-HR :0.87330: L2-HR :0.86057: (Sim:0h44m42s) 
CPU  2 inst:   37000001 cyc:   63658821 now IPC :0.25958: AVG IPC :0.55845: L2-Pf-HR :0.86296: L2-HR :0.85037: (Sim:0h45m7s) 
CPU  1 inst:   37000001 cyc:   63752213 now IPC :0.25916: AVG IPC :0.55762: L2-Pf-HR :0.86897: L2-HR :0.85693: (Sim:0h45m11s) 
CPU  0 inst:   38000000 cyc:   65959548 now IPC :0.26766: AVG IPC :0.55406: L2-Pf-HR :0.87051: L2-HR :0.85781: (Sim:0h46m41s) 
CPU  3 inst:   38000000 cyc:   66705344 now IPC :0.27005: AVG IPC :0.54778: L2-Pf-HR :0.87015: L2-HR :0.85738: (Sim:0h47m9s) 
CPU  2 inst:   38000000 cyc:   67329785 now IPC :0.27241: AVG IPC :0.54262: L2-Pf-HR :0.86039: L2-HR :0.84766: (Sim:0h47m33s) 
CPU  1 inst:   38000000 cyc:   67421874 now IPC :0.27250: AVG IPC :0.54187: L2-Pf-HR :0.86602: L2-HR :0.85390: (Sim:0h47m36s) 
CPU  0 inst:   39000000 cyc:   69621248 now IPC :0.27310: AVG IPC :0.53908: L2-Pf-HR :0.86767: L2-HR :0.85488: (Sim:0h49m1s) 
CPU  3 inst:   39000000 cyc:   70369253 now IPC :0.27293: AVG IPC :0.53327: L2-Pf-HR :0.86734: L2-HR :0.85448: (Sim:0h49m30s) 
CPU  2 inst:   39000000 cyc:   70995791 now IPC :0.27278: AVG IPC :0.52849: L2-Pf-HR :0.85818: L2-HR :0.84525: (Sim:0h49m55s) 
CPU  1 inst:   39000000 cyc:   71082948 now IPC :0.27314: AVG IPC :0.52784: L2-Pf-HR :0.86341: L2-HR :0.85116: (Sim:0h49m59s) 
CPU  0 inst:   40000003 cyc:   73276336 now IPC :0.27359: AVG IPC :0.52565: L2-Pf-HR :0.86556: L2-HR :0.85259: (Sim:0h51m32s) 
CPU  3 inst:   40000003 cyc:   74028677 now IPC :0.27327: AVG IPC :0.52024: L2-Pf-HR :0.86536: L2-HR :0.85231: (Sim:0h52m1s) 
CPU  2 inst:   40000003 cyc:   74649448 now IPC :0.27370: AVG IPC :0.51585: L2-Pf-HR :0.85650: L2-HR :0.84337: (Sim:0h52m27s) 
CPU  1 inst:   40000003 cyc:   74723497 now IPC :0.27468: AVG IPC :0.51534: L2-Pf-HR :0.86170: L2-HR :0.84922: (Sim:0h52m29s) 
CPU  0 inst:   41000001 cyc:   76912502 now IPC :0.27501: AVG IPC :0.51365: L2-Pf-HR :0.86381: L2-HR :0.85066: (Sim:0h53m57s) 
CPU  3 inst:   41000001 cyc:   77671433 now IPC :0.27452: AVG IPC :0.50857: L2-Pf-HR :0.86353: L2-HR :0.85032: (Sim:0h54m30s) 
CPU  2 inst:   41000001 cyc:   78292988 now IPC :0.27446: AVG IPC :0.50448: L2-Pf-HR :0.85502: L2-HR :0.84168: (Sim:0h54m56s) 
CPU  1 inst:   41000001 cyc:   78368166 now IPC :0.27437: AVG IPC :0.50399: L2-Pf-HR :0.86010: L2-HR :0.84740: (Sim:0h55m0s) 
CPU  0 inst:   42000001 cyc:   80555400 now IPC :0.27451: AVG IPC :0.50270: L2-Pf-HR :0.86205: L2-HR :0.84874: (Sim:0h56m37s) 
CPU  3 inst:   42000001 cyc:   81309235 now IPC :0.27489: AVG IPC :0.49798: L2-Pf-HR :0.86185: L2-HR :0.84846: (Sim:0h57m7s) 
CPU  2 inst:   42000001 cyc:   81931072 now IPC :0.27487: AVG IPC :0.49416: L2-Pf-HR :0.85366: L2-HR :0.84009: (Sim:0h57m34s) 
CPU  1 inst:   42000001 cyc:   82005401 now IPC :0.27493: AVG IPC :0.49371: L2-Pf-HR :0.85853: L2-HR :0.84562: (Sim:0h57m37s) 
Caught signal: 2
     > Finished combination: TraceType=770-tot Sim:78000000 Prefetcher=L2029-SecTOP-L2-MultiMarkovDelta_ip_stride_v4-IPStrS256 L1=next_line
