TRACE: [331000000][Pythia-70M]_[h8][s1024][d64] Warmup: 2000000 NumTraces: 331000000
L1:berti_concurso:L2:berti_concurso
*************************************************
   ChampSim Multicore Out-of-Order Simulator
   Last compiled: Oct 29 2024 16:55:01
*************************************************

trace_0 770-tot_memTraces_v3_rexz/memTraces[331000000][Pythia-70M]_[h8][s1024][d64].champsim.9.xz
trace_1 770-tot_memTraces_v3_rexz/memTraces[331000000][Pythia-70M]_[h8][s1024][d64].champsim.9.xz
trace_2 770-tot_memTraces_v3_rexz/memTraces[331000000][Pythia-70M]_[h8][s1024][d64].champsim.9.xz
trace_3 770-tot_memTraces_v3_rexz/memTraces[331000000][Pythia-70M]_[h8][s1024][d64].champsim.9.xz
CPU 0 L1D Berti prefetcher
CPU 0 L2C Berti prefetcher
CPU 1 L1D Berti prefetcher
CPU 1 L2C Berti prefetcher
CPU 2 L1D Berti prefetcher
CPU 2 L2C Berti prefetcher
CPU 3 L1D Berti prefetcher
CPU 3 L2C Berti prefetcher
MAIN.cc ln 751 stats print skipped
CPU  1 inst:    1000000 cyc:     499796 now IPC :2.00082: AVG IPC :2.00082: L2-Pf-HR :0.77362: L2-HR :0.72080: (Sim:0h0m49s) 
CPU  3 inst:    1000000 cyc:     499826 now IPC :2.00070: AVG IPC :2.00070: L2-Pf-HR :0.77400: L2-HR :0.71963: (Sim:0h0m49s) 
CPU  0 inst:    1000000 cyc:     499968 now IPC :2.00013: AVG IPC :2.00013: L2-Pf-HR :0.77467: L2-HR :0.72100: (Sim:0h0m49s) 
CPU  2 inst:    1000000 cyc:     500050 now IPC :1.99980: AVG IPC :1.99980: L2-Pf-HR :0.77436: L2-HR :0.72027: (Sim:0h0m49s) 
CPU  1 inst:    2000003 cyc:     983107 now IPC :2.06907: AVG IPC :2.03437: L2-Pf-HR :0.82369: L2-HR :0.77395: (Sim:0h1m41s) 
CPU  3 inst:    2000003 cyc:     983123 now IPC :2.06913: AVG IPC :2.03434: L2-Pf-HR :0.82468: L2-HR :0.77330: (Sim:0h1m41s) 
CPU  0 inst:    2000003 cyc:     983324 now IPC :2.06887: AVG IPC :2.03392: L2-Pf-HR :0.82503: L2-HR :0.77423: (Sim:0h1m41s) 
CPU  2 inst:    2000003 cyc:     983392 now IPC :2.06893: AVG IPC :2.03378: L2-Pf-HR :0.82548: L2-HR :0.77478: (Sim:0h1m41s) 

Warmup complete CPU  0 instructions:    2000283 cycles:     983392 (Simulation time: 0 hr 1 min 41 sec) 
Warmup complete CPU  1 instructions:    2000668 cycles:     983392 (Simulation time: 0 hr 1 min 41 sec) 
Warmup complete CPU  2 instructions:    2000003 cycles:     983392 (Simulation time: 0 hr 1 min 41 sec) 
Warmup complete CPU  3 instructions:    2000620 cycles:     983391 (Simulation time: 0 hr 1 min 41 sec) 

CPU  1 inst:    3000000 cyc:    1823496 now IPC :1.18992: AVG IPC :1.18953: L2-Pf-HR :0.93426: L2-HR :0.81224: (Sim:0h2m32s) 
CPU  3 inst:    3000000 cyc:    1823700 now IPC :1.18966: AVG IPC :1.18930: L2-Pf-HR :0.93585: L2-HR :0.81123: (Sim:0h2m32s) 
CPU  0 inst:    3000000 cyc:    1828746 now IPC :1.18284: AVG IPC :1.18260: L2-Pf-HR :0.93945: L2-HR :0.81299: (Sim:0h2m32s) 
CPU  2 inst:    3000000 cyc:    1843455 now IPC :1.16270: AVG IPC :1.16270: L2-Pf-HR :0.93952: L2-HR :0.81512: (Sim:0h2m33s) 
CPU  1 inst:    4000002 cyc:    2725964 now IPC :1.10807: AVG IPC :1.14735: L2-Pf-HR :0.93668: L2-HR :0.81291: (Sim:0h3m24s) 
CPU  3 inst:    4000002 cyc:    2729251 now IPC :1.10430: AVG IPC :1.14521: L2-Pf-HR :0.93854: L2-HR :0.81164: (Sim:0h3m24s) 
CPU  0 inst:    4000002 cyc:    2744814 now IPC :1.09162: AVG IPC :1.13529: L2-Pf-HR :0.94017: L2-HR :0.81258: (Sim:0h3m25s) 
CPU  2 inst:    4000002 cyc:    2756958 now IPC :1.09469: AVG IPC :1.12767: L2-Pf-HR :0.93967: L2-HR :0.81412: (Sim:0h3m26s) 
CPU  1 inst:    5000000 cyc:    3613329 now IPC :1.12693: AVG IPC :1.14046: L2-Pf-HR :0.93739: L2-HR :0.81382: (Sim:0h4m15s) 
CPU  3 inst:    5000000 cyc:    3643707 now IPC :1.09354: AVG IPC :1.12745: L2-Pf-HR :0.93910: L2-HR :0.81105: (Sim:0h4m16s) 
CPU  0 inst:    5000000 cyc:    3665867 now IPC :1.08571: AVG IPC :1.11826: L2-Pf-HR :0.94099: L2-HR :0.81394: (Sim:0h4m18s) 
CPU  2 inst:    5000000 cyc:    3672807 now IPC :1.09188: AVG IPC :1.11548: L2-Pf-HR :0.94085: L2-HR :0.81465: (Sim:0h4m18s) 
CPU  1 inst:    6000000 cyc:    4381935 now IPC :1.30106: AVG IPC :1.17678: L2-Pf-HR :0.93831: L2-HR :0.81411: (Sim:0h5m2s) 
CPU  3 inst:    6000000 cyc:    4471532 now IPC :1.20798: AVG IPC :1.14656: L2-Pf-HR :0.94001: L2-HR :0.81074: (Sim:0h5m8s) 
CPU  0 inst:    6000000 cyc:    4496862 now IPC :1.20338: AVG IPC :1.13840: L2-Pf-HR :0.94176: L2-HR :0.81433: (Sim:0h5m10s) 
CPU  2 inst:    6000000 cyc:    4497166 now IPC :1.21306: AVG IPC :1.13838: L2-Pf-HR :0.94102: L2-HR :0.81378: (Sim:0h5m10s) 
CPU  1 inst:    7000004 cyc:    5231170 now IPC :1.17754: AVG IPC :1.17693: L2-Pf-HR :0.93528: L2-HR :0.81128: (Sim:0h5m40s) 
CPU  3 inst:    7000004 cyc:    5578678 now IPC :0.90323: AVG IPC :1.08794: L2-Pf-HR :0.93706: L2-HR :0.80938: (Sim:0h5m53s) 
CPU  0 inst:    7000004 cyc:    5651323 now IPC :0.86621: AVG IPC :1.07108: L2-Pf-HR :0.93893: L2-HR :0.81253: (Sim:0h5m57s) 
CPU  2 inst:    7000004 cyc:    5661102 now IPC :0.85916: AVG IPC :1.06890: L2-Pf-HR :0.93803: L2-HR :0.81248: (Sim:0h5m58s) 
CPU  1 inst:    8000001 cyc:    6073689 now IPC :1.18691: AVG IPC :1.17858: L2-Pf-HR :0.93840: L2-HR :0.81286: (Sim:0h6m20s) 
CPU  3 inst:    8000001 cyc:    6485250 now IPC :1.10305: AVG IPC :1.09043: L2-Pf-HR :0.93983: L2-HR :0.81165: (Sim:0h6m41s) 
CPU  0 inst:    8000001 cyc:    6792568 now IPC :0.87623: AVG IPC :1.03280: L2-Pf-HR :0.94119: L2-HR :0.81447: (Sim:0h6m58s) 
CPU  2 inst:    8000001 cyc:    6806878 now IPC :0.87277: AVG IPC :1.03031: L2-Pf-HR :0.94117: L2-HR :0.81457: (Sim:0h6m58s) 
CPU  1 inst:    9000002 cyc:    7179142 now IPC :0.90461: AVG IPC :1.12970: L2-Pf-HR :0.94013: L2-HR :0.81330: (Sim:0h7m18s) 
CPU  3 inst:    9000002 cyc:    7322787 now IPC :1.19398: AVG IPC :1.10411: L2-Pf-HR :0.94109: L2-HR :0.81221: (Sim:0h7m25s) 
CPU  0 inst:    9000002 cyc:    7956464 now IPC :0.85918: AVG IPC :1.00382: L2-Pf-HR :0.94224: L2-HR :0.81518: (Sim:0h7m52s) 
CPU  2 inst:    9000002 cyc:    8017285 now IPC :0.82617: AVG IPC :0.99518: L2-Pf-HR :0.94262: L2-HR :0.81491: (Sim:0h7m55s) 
CPU  1 inst:   10000001 cyc:    8368884 now IPC :0.84052: AVG IPC :1.08311: L2-Pf-HR :0.94192: L2-HR :0.81399: (Sim:0h8m11s) 
CPU  3 inst:   10000001 cyc:    8407149 now IPC :0.92220: AVG IPC :1.07754: L2-Pf-HR :0.94264: L2-HR :0.81312: (Sim:0h8m13s) 
CPU  0 inst:   10000001 cyc:    8974757 now IPC :0.98203: AVG IPC :1.00105: L2-Pf-HR :0.94360: L2-HR :0.81608: (Sim:0h8m42s) 
CPU  2 inst:   10000001 cyc:    9177650 now IPC :0.86180: AVG IPC :0.97629: L2-Pf-HR :0.94443: L2-HR :0.81558: (Sim:0h8m53s) 
CPU  1 inst:   11000002 cyc:    9430045 now IPC :0.94236: AVG IPC :1.06543: L2-Pf-HR :0.94315: L2-HR :0.81486: (Sim:0h9m7s) 
CPU  3 inst:   11000002 cyc:    9467747 now IPC :0.94287: AVG IPC :1.06070: L2-Pf-HR :0.94407: L2-HR :0.81417: (Sim:0h9m10s) 
CPU  0 inst:   11000002 cyc:    9794965 now IPC :1.21920: AVG IPC :1.02135: L2-Pf-HR :0.94424: L2-HR :0.81678: (Sim:0h9m28s) 
CPU  2 inst:   11000002 cyc:   10149105 now IPC :1.02938: AVG IPC :0.98192: L2-Pf-HR :0.94560: L2-HR :0.81650: (Sim:0h9m49s) 
CPU  1 inst:   12000001 cyc:   10332342 now IPC :1.10828: AVG IPC :1.06957: L2-Pf-HR :0.94397: L2-HR :0.81513: (Sim:0h10m0s) 
CPU  3 inst:   12000001 cyc:   10407090 now IPC :1.06457: AVG IPC :1.06109: L2-Pf-HR :0.94496: L2-HR :0.81449: (Sim:0h10m4s) 
CPU  0 inst:   12000001 cyc:   10625498 now IPC :1.20404: AVG IPC :1.03709: L2-Pf-HR :0.94476: L2-HR :0.81696: (Sim:0h10m16s) 
CPU  2 inst:   12000001 cyc:   11259575 now IPC :0.90052: AVG IPC :0.97312: L2-Pf-HR :0.94649: L2-HR :0.81695: (Sim:0h10m43s) 
CPU  1 inst:   13000003 cyc:   11452094 now IPC :0.89306: AVG IPC :1.05069: L2-Pf-HR :0.94271: L2-HR :0.81664: (Sim:0h10m50s) 
CPU  3 inst:   13000004 cyc:   11590458 now IPC :0.84505: AVG IPC :1.03699: L2-Pf-HR :0.94370: L2-HR :0.81612: (Sim:0h10m55s) 
CPU  0 inst:   13000004 cyc:   11743807 now IPC :0.89421: AVG IPC :1.02224: L2-Pf-HR :0.94342: L2-HR :0.81840: (Sim:0h11m1s) 
CPU  2 inst:   13000000 cyc:   12346305 now IPC :0.92019: AVG IPC :0.96806: L2-Pf-HR :0.94508: L2-HR :0.81860: (Sim:0h11m34s) 
CPU  1 inst:   14000000 cyc:   12439590 now IPC :1.01266: AVG IPC :1.04741: L2-Pf-HR :0.94303: L2-HR :0.81883: (Sim:0h11m39s) 
CPU  3 inst:   14000002 cyc:   12519081 now IPC :1.07686: AVG IPC :1.04020: L2-Pf-HR :0.94378: L2-HR :0.81829: (Sim:0h11m44s) 
CPU  0 inst:   14000000 cyc:   12702448 now IPC :1.04314: AVG IPC :1.02395: L2-Pf-HR :0.94369: L2-HR :0.82065: (Sim:0h11m53s) 
CPU  2 inst:   14000002 cyc:   13380111 now IPC :0.96730: AVG IPC :0.96800: L2-Pf-HR :0.94550: L2-HR :0.82140: (Sim:0h12m29s) 
CPU  1 inst:   15000004 cyc:   13488194 now IPC :0.95365: AVG IPC :1.03955: L2-Pf-HR :0.94352: L2-HR :0.82108: (Sim:0h12m35s) 
CPU  3 inst:   15000004 cyc:   13555014 now IPC :0.96532: AVG IPC :1.03403: L2-Pf-HR :0.94421: L2-HR :0.82056: (Sim:0h12m38s) 
CPU  0 inst:   15000004 cyc:   13671729 now IPC :1.03170: AVG IPC :1.02454: L2-Pf-HR :0.94432: L2-HR :0.82328: (Sim:0h12m44s) 
CPU  2 inst:   15000004 cyc:   14402555 now IPC :0.97805: AVG IPC :0.96876: L2-Pf-HR :0.94610: L2-HR :0.82420: (Sim:0h13m23s) 
CPU  1 inst:   16000005 cyc:   14526102 now IPC :0.96348: AVG IPC :1.03372: L2-Pf-HR :0.94408: L2-HR :0.82311: (Sim:0h13m29s) 
CPU  3 inst:   16000005 cyc:   14634022 now IPC :0.92678: AVG IPC :1.02555: L2-Pf-HR :0.94525: L2-HR :0.82307: (Sim:0h13m35s) 
CPU  0 inst:   16000005 cyc:   14700255 now IPC :0.97227: AVG IPC :1.02062: L2-Pf-HR :0.94524: L2-HR :0.82562: (Sim:0h13m38s) 
CPU  2 inst:   16000005 cyc:   15612664 now IPC :0.82637: AVG IPC :0.95699: L2-Pf-HR :0.94683: L2-HR :0.82656: (Sim:0h14m17s) 
CPU  1 inst:   17000001 cyc:   15850077 now IPC :0.75530: AVG IPC :1.00892: L2-Pf-HR :0.94135: L2-HR :0.82068: (Sim:0h14m28s) 
CPU  3 inst:   17000001 cyc:   16162138 now IPC :0.65440: AVG IPC :0.98818: L2-Pf-HR :0.94271: L2-HR :0.82101: (Sim:0h14m41s) 
CPU  0 inst:   17000001 cyc:   16251600 now IPC :0.64460: AVG IPC :0.98242: L2-Pf-HR :0.94273: L2-HR :0.82351: (Sim:0h14m45s) 
CPU  1 inst:   18000000 cyc:   17007548 now IPC :0.86395: AVG IPC :0.99845: L2-Pf-HR :0.94153: L2-HR :0.82020: (Sim:0h15m18s) 
CPU  2 inst:   17000001 cyc:   17228374 now IPC :0.61892: AVG IPC :0.92336: L2-Pf-HR :0.94405: L2-HR :0.82385: (Sim:0h15m28s) 
CPU  3 inst:   18000000 cyc:   17754573 now IPC :0.62797: AVG IPC :0.95398: L2-Pf-HR :0.94263: L2-HR :0.82094: (Sim:0h15m49s) 
CPU  0 inst:   18000000 cyc:   17827353 now IPC :0.63462: AVG IPC :0.94988: L2-Pf-HR :0.94282: L2-HR :0.82343: (Sim:0h15m53s) 
CPU  1 inst:   19000003 cyc:   18328826 now IPC :0.75685: AVG IPC :0.98005: L2-Pf-HR :0.94141: L2-HR :0.81951: (Sim:0h16m14s) 
CPU  2 inst:   18000000 cyc:   18542119 now IPC :0.76118: AVG IPC :0.91123: L2-Pf-HR :0.94410: L2-HR :0.82326: (Sim:0h16m23s) 
CPU  3 inst:   19000003 cyc:   19186721 now IPC :0.69825: AVG IPC :0.93386: L2-Pf-HR :0.94245: L2-HR :0.82063: (Sim:0h16m53s) 
CPU  0 inst:   19000000 cyc:   19354737 now IPC :0.65471: AVG IPC :0.92534: L2-Pf-HR :0.94281: L2-HR :0.82302: (Sim:0h17m1s) 
CPU  2 inst:   19000000 cyc:   19679424 now IPC :0.87927: AVG IPC :0.90928: L2-Pf-HR :0.94400: L2-HR :0.82243: (Sim:0h17m17s) 
CPU  1 inst:   20000004 cyc:   19769756 now IPC :0.69400: AVG IPC :0.95811: L2-Pf-HR :0.94172: L2-HR :0.81924: (Sim:0h17m21s) 
CPU  3 inst:   20000004 cyc:   20326155 now IPC :0.87763: AVG IPC :0.93055: L2-Pf-HR :0.94264: L2-HR :0.82065: (Sim:0h17m47s) 
CPU  0 inst:   20000004 cyc:   20654139 now IPC :0.76959: AVG IPC :0.91505: L2-Pf-HR :0.94282: L2-HR :0.82293: (Sim:0h18m3s) 
CPU  2 inst:   20000004 cyc:   20897748 now IPC :0.82080: AVG IPC :0.90387: L2-Pf-HR :0.94404: L2-HR :0.82188: (Sim:0h18m13s) 
CPU  1 inst:   21000003 cyc:   21128403 now IPC :0.73603: AVG IPC :0.94313: L2-Pf-HR :0.94184: L2-HR :0.81907: (Sim:0h18m20s) 
CPU  3 inst:   21000003 cyc:   21465072 now IPC :0.87803: AVG IPC :0.92763: L2-Pf-HR :0.94268: L2-HR :0.82047: (Sim:0h18m36s) 
CPU  0 inst:   21000003 cyc:   21848182 now IPC :0.83749: AVG IPC :0.91061: L2-Pf-HR :0.94262: L2-HR :0.82241: (Sim:0h18m50s) 
CPU  2 inst:   21000003 cyc:   22194126 now IPC :0.77138: AVG IPC :0.89577: L2-Pf-HR :0.94411: L2-HR :0.82130: (Sim:0h19m2s) 
CPU  1 inst:   22000000 cyc:   22434936 now IPC :0.76538: AVG IPC :0.93230: L2-Pf-HR :0.94202: L2-HR :0.81885: (Sim:0h19m13s) 
CPU  3 inst:   22000000 cyc:   22656745 now IPC :0.83915: AVG IPC :0.92276: L2-Pf-HR :0.94289: L2-HR :0.82048: (Sim:0h19m24s) 
CPU  0 inst:   22000000 cyc:   23014076 now IPC :0.85771: AVG IPC :0.90781: L2-Pf-HR :0.94275: L2-HR :0.82235: (Sim:0h19m35s) 
CPU  2 inst:   22000000 cyc:   23525698 now IPC :0.75099: AVG IPC :0.88722: L2-Pf-HR :0.94416: L2-HR :0.82078: (Sim:0h19m49s) 
CPU  1 inst:   23000002 cyc:   23879035 now IPC :0.69247: AVG IPC :0.91718: L2-Pf-HR :0.94133: L2-HR :0.81816: (Sim:0h20m4s) 
CPU  3 inst:   23000002 cyc:   24029530 now IPC :0.72845: AVG IPC :0.91119: L2-Pf-HR :0.94177: L2-HR :0.81945: (Sim:0h20m10s) 
CPU  0 inst:   23000002 cyc:   24280818 now IPC :0.78943: AVG IPC :0.90138: L2-Pf-HR :0.94186: L2-HR :0.82131: (Sim:0h20m22s) 
CPU  2 inst:   23000002 cyc:   24942672 now IPC :0.70573: AVG IPC :0.87649: L2-Pf-HR :0.94323: L2-HR :0.81985: (Sim:0h20m54s) 
CPU  1 inst:   24000005 cyc:   25051317 now IPC :0.85304: AVG IPC :0.91405: L2-Pf-HR :0.94188: L2-HR :0.81830: (Sim:0h20m59s) 
CPU  3 inst:   24000005 cyc:   25309000 now IPC :0.78158: AVG IPC :0.90437: L2-Pf-HR :0.94222: L2-HR :0.81947: (Sim:0h21m11s) 
CPU  0 inst:   24000005 cyc:   25430056 now IPC :0.87014: AVG IPC :0.89991: L2-Pf-HR :0.94236: L2-HR :0.82126: (Sim:0h21m17s) 
CPU  1 inst:   25000001 cyc:   26023714 now IPC :1.02838: AVG IPC :0.91849: L2-Pf-HR :0.94232: L2-HR :0.81837: (Sim:0h21m45s) 
CPU  2 inst:   24000005 cyc:   26275219 now IPC :0.75044: AVG IPC :0.86985: L2-Pf-HR :0.94370: L2-HR :0.81992: (Sim:0h21m57s) 
CPU  3 inst:   25000001 cyc:   26759358 now IPC :0.68948: AVG IPC :0.89228: L2-Pf-HR :0.94260: L2-HR :0.81942: (Sim:0h22m18s) 
CPU  0 inst:   25000000 cyc:   26806011 now IPC :0.72676: AVG IPC :0.89068: L2-Pf-HR :0.94276: L2-HR :0.82119: (Sim:0h22m20s) 
CPU  1 inst:   26000004 cyc:   27239379 now IPC :0.82260: AVG IPC :0.91405: L2-Pf-HR :0.94262: L2-HR :0.81819: (Sim:0h22m40s) 
CPU  2 inst:   25000001 cyc:   27357223 now IPC :0.92421: AVG IPC :0.87208: L2-Pf-HR :0.94406: L2-HR :0.81998: (Sim:0h22m46s) 
CPU  3 inst:   26000004 cyc:   28098407 now IPC :0.74680: AVG IPC :0.88510: L2-Pf-HR :0.94295: L2-HR :0.81932: (Sim:0h23m21s) 
CPU  0 inst:   26000004 cyc:   28189834 now IPC :0.72264: AVG IPC :0.88213: L2-Pf-HR :0.94309: L2-HR :0.82099: (Sim:0h23m25s) 
CPU  2 inst:   26000004 cyc:   28293835 now IPC :1.06768: AVG IPC :0.87878: L2-Pf-HR :0.94436: L2-HR :0.81990: (Sim:0h23m30s) 
CPU  1 inst:   27000000 cyc:   28576343 now IPC :0.74796: AVG IPC :0.90600: L2-Pf-HR :0.94306: L2-HR :0.81821: (Sim:0h23m43s) 
CPU  3 inst:   27000000 cyc:   29124044 now IPC :0.97500: AVG IPC :0.88837: L2-Pf-HR :0.94338: L2-HR :0.81929: (Sim:0h24m10s) 
CPU  0 inst:   27000000 cyc:   29505926 now IPC :0.75982: AVG IPC :0.87649: L2-Pf-HR :0.94347: L2-HR :0.82093: (Sim:0h24m28s) 
CPU  2 inst:   27000000 cyc:   29566430 now IPC :0.78579: AVG IPC :0.87464: L2-Pf-HR :0.94476: L2-HR :0.81997: (Sim:0h24m31s) 
CPU  1 inst:   28000003 cyc:   29864293 now IPC :0.77643: AVG IPC :0.90023: L2-Pf-HR :0.94352: L2-HR :0.81831: (Sim:0h24m45s) 
CPU  3 inst:   28000003 cyc:   30066439 now IPC :1.06113: AVG IPC :0.89397: L2-Pf-HR :0.94382: L2-HR :0.81934: (Sim:0h24m55s) 
CPU  0 inst:   28000003 cyc:   30831212 now IPC :0.75456: AVG IPC :0.87108: L2-Pf-HR :0.94394: L2-HR :0.82101: (Sim:0h25m28s) 
CPU  2 inst:   28000003 cyc:   30916932 now IPC :0.74047: AVG IPC :0.86859: L2-Pf-HR :0.94514: L2-HR :0.82005: (Sim:0h25m32s) 
CPU  1 inst:   29000004 cyc:   31272548 now IPC :0.71010: AVG IPC :0.89139: L2-Pf-HR :0.94318: L2-HR :0.81879: (Sim:0h25m48s) 
CPU  3 inst:   29000004 cyc:   31371408 now IPC :0.76630: AVG IPC :0.88849: L2-Pf-HR :0.94336: L2-HR :0.81957: (Sim:0h25m52s) 
CPU  0 inst:   29000004 cyc:   32060625 now IPC :0.81340: AVG IPC :0.86879: L2-Pf-HR :0.94348: L2-HR :0.82079: (Sim:0h26m28s) 
CPU  2 inst:   29000004 cyc:   32139234 now IPC :0.81813: AVG IPC :0.86661: L2-Pf-HR :0.94471: L2-HR :0.82006: (Sim:0h26m32s) 
CPU  1 inst:   30000004 cyc:   32290779 now IPC :0.98210: AVG IPC :0.89434: L2-Pf-HR :0.94336: L2-HR :0.81995: (Sim:0h26m40s) 
CPU  3 inst:   30000004 cyc:   32365419 now IPC :1.00603: AVG IPC :0.89221: L2-Pf-HR :0.94347: L2-HR :0.82067: (Sim:0h26m45s) 
CPU  0 inst:   30000003 cyc:   33004709 now IPC :1.05923: AVG IPC :0.87441: L2-Pf-HR :0.94368: L2-HR :0.82110: (Sim:0h27m19s) 
CPU  2 inst:   30000004 cyc:   33115883 now IPC :1.02391: AVG IPC :0.87139: L2-Pf-HR :0.94476: L2-HR :0.82040: (Sim:0h27m25s) 
CPU  1 inst:   31000005 cyc:   33282857 now IPC :1.00799: AVG IPC :0.89783: L2-Pf-HR :0.94355: L2-HR :0.82105: (Sim:0h27m34s) 
CPU  3 inst:   31000005 cyc:   33362243 now IPC :1.00319: AVG IPC :0.89563: L2-Pf-HR :0.94377: L2-HR :0.82189: (Sim:0h27m39s) 
CPU  0 inst:   31000002 cyc:   33974392 now IPC :1.03126: AVG IPC :0.87902: L2-Pf-HR :0.94387: L2-HR :0.82132: (Sim:0h28m12s) 
CPU  2 inst:   31000005 cyc:   34092789 now IPC :1.02364: AVG IPC :0.87588: L2-Pf-HR :0.94501: L2-HR :0.82090: (Sim:0h28m18s) 
CPU  1 inst:   32000002 cyc:   34256790 now IPC :1.02676: AVG IPC :0.90160: L2-Pf-HR :0.94387: L2-HR :0.82206: (Sim:0h28m27s) 
CPU  3 inst:   32000000 cyc:   34378572 now IPC :0.98393: AVG IPC :0.89831: L2-Pf-HR :0.94432: L2-HR :0.82302: (Sim:0h28m34s) 
CPU  0 inst:   32000000 cyc:   35135340 now IPC :0.86136: AVG IPC :0.87842: L2-Pf-HR :0.94435: L2-HR :0.82175: (Sim:0h29m7s) 
CPU  2 inst:   32000001 cyc:   35241050 now IPC :0.87088: AVG IPC :0.87572: L2-Pf-HR :0.94530: L2-HR :0.82132: (Sim:0h29m12s) 
CPU  1 inst:   33000002 cyc:   35640180 now IPC :0.72286: AVG IPC :0.89447: L2-Pf-HR :0.94293: L2-HR :0.82129: (Sim:0h29m30s) 
CPU  3 inst:   33000001 cyc:   35795214 now IPC :0.70590: AVG IPC :0.89048: L2-Pf-HR :0.94306: L2-HR :0.82207: (Sim:0h29m37s) 
CPU  0 inst:   33000002 cyc:   36422094 now IPC :0.77715: AVG IPC :0.87474: L2-Pf-HR :0.94378: L2-HR :0.82105: (Sim:0h30m3s) 
CPU  2 inst:   33000001 cyc:   36785910 now IPC :0.64731: AVG IPC :0.86586: L2-Pf-HR :0.94408: L2-HR :0.82027: (Sim:0h30m20s) 
CPU  1 inst:   34000002 cyc:   36986577 now IPC :0.74272: AVG IPC :0.88879: L2-Pf-HR :0.94300: L2-HR :0.82102: (Sim:0h30m30s) 
CPU  3 inst:   34000002 cyc:   37182503 now IPC :0.72083: AVG IPC :0.88398: L2-Pf-HR :0.94313: L2-HR :0.82173: (Sim:0h30m40s) 
CPU  0 inst:   34000002 cyc:   37550045 now IPC :0.88656: AVG IPC :0.87511: L2-Pf-HR :0.94393: L2-HR :0.82085: (Sim:0h30m58s) 
CPU  2 inst:   34000002 cyc:   38122064 now IPC :0.74842: AVG IPC :0.86164: L2-Pf-HR :0.94413: L2-HR :0.82004: (Sim:0h31m27s) 
CPU  1 inst:   35000000 cyc:   38148690 now IPC :0.86050: AVG IPC :0.88791: L2-Pf-HR :0.94306: L2-HR :0.82080: (Sim:0h31m28s) 
CPU  3 inst:   35000000 cyc:   38515758 now IPC :0.75004: AVG IPC :0.87922: L2-Pf-HR :0.94312: L2-HR :0.82143: (Sim:0h31m46s) 
CPU  0 inst:   35000004 cyc:   38700090 now IPC :0.86953: AVG IPC :0.87494: L2-Pf-HR :0.94394: L2-HR :0.82060: (Sim:0h31m56s) 
CPU  1 inst:   36000004 cyc:   39277917 now IPC :0.88557: AVG IPC :0.88784: L2-Pf-HR :0.94300: L2-HR :0.82048: (Sim:0h32m23s) 
CPU  2 inst:   35000001 cyc:   39532534 now IPC :0.70898: AVG IPC :0.85605: L2-Pf-HR :0.94407: L2-HR :0.81981: (Sim:0h32m34s) 
CPU  3 inst:   36000004 cyc:   39942281 now IPC :0.70101: AVG IPC :0.87270: L2-Pf-HR :0.94306: L2-HR :0.82105: (Sim:0h32m52s) 
CPU  0 inst:   36000004 cyc:   40104573 now IPC :0.71201: AVG IPC :0.86909: L2-Pf-HR :0.94392: L2-HR :0.82026: (Sim:0h32m58s) 
CPU  1 inst:   37000004 cyc:   40561483 now IPC :0.77908: AVG IPC :0.88431: L2-Pf-HR :0.94307: L2-HR :0.82032: (Sim:0h33m17s) 
CPU  2 inst:   36000004 cyc:   41050487 now IPC :0.65878: AVG IPC :0.84858: L2-Pf-HR :0.94404: L2-HR :0.81955: (Sim:0h33m38s) 
CPU  3 inst:   37000004 cyc:   41371392 now IPC :0.69974: AVG IPC :0.86658: L2-Pf-HR :0.94314: L2-HR :0.82080: (Sim:0h33m51s) 
CPU  0 inst:   37000004 cyc:   41592164 now IPC :0.67223: AVG IPC :0.86188: L2-Pf-HR :0.94396: L2-HR :0.82003: (Sim:0h34m1s) 
CPU  1 inst:   38000001 cyc:   42003871 now IPC :0.69329: AVG IPC :0.87759: L2-Pf-HR :0.94318: L2-HR :0.82010: (Sim:0h34m18s) 
CPU  2 inst:   37000004 cyc:   42436814 now IPC :0.72133: AVG IPC :0.84432: L2-Pf-HR :0.94404: L2-HR :0.81933: (Sim:0h34m38s) 
CPU  3 inst:   38000001 cyc:   42630186 now IPC :0.79441: AVG IPC :0.86440: L2-Pf-HR :0.94315: L2-HR :0.82045: (Sim:0h34m47s) 
CPU  0 inst:   38000001 cyc:   42988837 now IPC :0.71599: AVG IPC :0.85703: L2-Pf-HR :0.94394: L2-HR :0.81969: (Sim:0h35m1s) 
CPU  1 inst:   39000002 cyc:   43426341 now IPC :0.70300: AVG IPC :0.87174: L2-Pf-HR :0.94263: L2-HR :0.81952: (Sim:0h35m21s) 
CPU  2 inst:   38000001 cyc:   43812697 now IPC :0.72680: AVG IPC :0.84055: L2-Pf-HR :0.94407: L2-HR :0.81909: (Sim:0h35m38s) 
CPU  3 inst:   39000002 cyc:   44090630 now IPC :0.68472: AVG IPC :0.85831: L2-Pf-HR :0.94262: L2-HR :0.81992: (Sim:0h35m50s) 
CPU  0 inst:   39000002 cyc:   44364242 now IPC :0.72706: AVG IPC :0.85290: L2-Pf-HR :0.94345: L2-HR :0.81923: (Sim:0h36m3s) 
CPU  1 inst:   40000004 cyc:   44664650 now IPC :0.80755: AVG IPC :0.86992: L2-Pf-HR :0.94295: L2-HR :0.81950: (Sim:0h36m16s) 
CPU  3 inst:   40000004 cyc:   45151999 now IPC :0.94218: AVG IPC :0.86033: L2-Pf-HR :0.94293: L2-HR :0.81991: (Sim:0h36m41s) 
CPU  2 inst:   39000002 cyc:   45154414 now IPC :0.74531: AVG IPC :0.83765: L2-Pf-HR :0.94354: L2-HR :0.81859: (Sim:0h36m41s) 
CPU  0 inst:   40000004 cyc:   45613022 now IPC :0.80078: AVG IPC :0.85145: L2-Pf-HR :0.94376: L2-HR :0.81923: (Sim:0h37m3s) 
CPU  1 inst:   41000003 cyc:   45847950 now IPC :0.84509: AVG IPC :0.86927: L2-Pf-HR :0.94316: L2-HR :0.81946: (Sim:0h37m15s) 
CPU  3 inst:   41000003 cyc:   46115656 now IPC :1.03771: AVG IPC :0.86411: L2-Pf-HR :0.94315: L2-HR :0.81992: (Sim:0h37m26s) 
CPU  2 inst:   40000004 cyc:   46338672 now IPC :0.84441: AVG IPC :0.83783: L2-Pf-HR :0.94384: L2-HR :0.81863: (Sim:0h37m33s) 
CPU  0 inst:   41000003 cyc:   46819582 now IPC :0.82880: AVG IPC :0.85085: L2-Pf-HR :0.94395: L2-HR :0.81917: (Sim:0h37m48s) 
CPU  1 inst:   42000005 cyc:   47005515 now IPC :0.86388: AVG IPC :0.86913: L2-Pf-HR :0.94338: L2-HR :0.81952: (Sim:0h37m53s) 
CPU  3 inst:   42000005 cyc:   47175490 now IPC :0.94355: AVG IPC :0.86594: L2-Pf-HR :0.94334: L2-HR :0.81988: (Sim:0h37m59s) 
CPU  2 inst:   41000003 cyc:   47415652 now IPC :0.92852: AVG IPC :0.83993: L2-Pf-HR :0.94399: L2-HR :0.81856: (Sim:0h38m6s) 
CPU  0 inst:   42000002 cyc:   47961933 now IPC :0.87539: AVG IPC :0.85145: L2-Pf-HR :0.94413: L2-HR :0.81923: (Sim:0h38m24s) 
CPU  1 inst:   43000000 cyc:   48048424 now IPC :0.95885: AVG IPC :0.87112: L2-Pf-HR :0.94368: L2-HR :0.81953: (Sim:0h38m26s) 
CPU  3 inst:   43000000 cyc:   48273825 now IPC :0.91046: AVG IPC :0.86697: L2-Pf-HR :0.94366: L2-HR :0.81994: (Sim:0h38m34s) 
CPU  2 inst:   42000000 cyc:   48452650 now IPC :0.96432: AVG IPC :0.84265: L2-Pf-HR :0.94418: L2-HR :0.81864: (Sim:0h38m43s) 
CPU  0 inst:   43000000 cyc:   49052531 now IPC :0.91693: AVG IPC :0.85293: L2-Pf-HR :0.94433: L2-HR :0.81919: (Sim:0h39m15s) 
CPU  1 inst:   44000001 cyc:   49067492 now IPC :0.98129: AVG IPC :0.87346: L2-Pf-HR :0.94391: L2-HR :0.81946: (Sim:0h39m16s) 
CPU  3 inst:   44000001 cyc:   49366218 now IPC :0.91542: AVG IPC :0.86806: L2-Pf-HR :0.94389: L2-HR :0.81986: (Sim:0h39m32s) 
CPU  2 inst:   43000003 cyc:   49451988 now IPC :1.00067: AVG IPC :0.84591: L2-Pf-HR :0.94439: L2-HR :0.81866: (Sim:0h39m36s) 
CPU  0 inst:   44000001 cyc:   50138120 now IPC :0.92116: AVG IPC :0.85444: L2-Pf-HR :0.94455: L2-HR :0.81918: (Sim:0h40m10s) 
CPU  1 inst:   45000004 cyc:   50207529 now IPC :0.87717: AVG IPC :0.87354: L2-Pf-HR :0.94369: L2-HR :0.81960: (Sim:0h40m14s) 
CPU  2 inst:   44000001 cyc:   50516255 now IPC :0.93961: AVG IPC :0.84792: L2-Pf-HR :0.94458: L2-HR :0.81860: (Sim:0h40m31s) 
CPU  3 inst:   45000004 cyc:   50541746 now IPC :0.85068: AVG IPC :0.86765: L2-Pf-HR :0.94371: L2-HR :0.82001: (Sim:0h40m32s) 
CPU  1 inst:   46000005 cyc:   51318507 now IPC :0.90011: AVG IPC :0.87413: L2-Pf-HR :0.94381: L2-HR :0.82043: (Sim:0h41m11s) 
CPU  0 inst:   45000004 cyc:   51328854 now IPC :0.83982: AVG IPC :0.85409: L2-Pf-HR :0.94428: L2-HR :0.81930: (Sim:0h41m12s) 
CPU  3 inst:   46000005 cyc:   51608295 now IPC :0.93760: AVG IPC :0.86913: L2-Pf-HR :0.94379: L2-HR :0.82075: (Sim:0h41m26s) 
CPU  2 inst:   45000004 cyc:   51673814 now IPC :0.86389: AVG IPC :0.84829: L2-Pf-HR :0.94440: L2-HR :0.81879: (Sim:0h41m29s) 
CPU  0 inst:   46000005 cyc:   52440367 now IPC :0.89968: AVG IPC :0.85508: L2-Pf-HR :0.94432: L2-HR :0.82002: (Sim:0h42m9s) 
CPU  1 inst:   47000002 cyc:   52447672 now IPC :0.88561: AVG IPC :0.87438: L2-Pf-HR :0.94396: L2-HR :0.82112: (Sim:0h42m9s) 
CPU  3 inst:   47000002 cyc:   52680040 now IPC :0.93305: AVG IPC :0.87045: L2-Pf-HR :0.94391: L2-HR :0.82136: (Sim:0h42m21s) 
CPU  2 inst:   46000005 cyc:   52752508 now IPC :0.92705: AVG IPC :0.84993: L2-Pf-HR :0.94451: L2-HR :0.81968: (Sim:0h42m25s) 
CPU  0 inst:   47000002 cyc:   53578698 now IPC :0.87848: AVG IPC :0.85558: L2-Pf-HR :0.94446: L2-HR :0.82067: (Sim:0h43m7s) 
CPU  1 inst:   48000002 cyc:   53591492 now IPC :0.87426: AVG IPC :0.87438: L2-Pf-HR :0.94420: L2-HR :0.82186: (Sim:0h43m8s) 
CPU  3 inst:   48000002 cyc:   53749724 now IPC :0.93486: AVG IPC :0.87176: L2-Pf-HR :0.94415: L2-HR :0.82204: (Sim:0h43m16s) 
CPU  2 inst:   47000002 cyc:   53827133 now IPC :0.93055: AVG IPC :0.85157: L2-Pf-HR :0.94469: L2-HR :0.82045: (Sim:0h43m20s) 
CPU  0 inst:   48000002 cyc:   54710490 now IPC :0.88355: AVG IPC :0.85617: L2-Pf-HR :0.94465: L2-HR :0.82134: (Sim:0h44m1s) 
CPU  1 inst:   49000005 cyc:   54931876 now IPC :0.74606: AVG IPC :0.87119: L2-Pf-HR :0.94335: L2-HR :0.82139: (Sim:0h44m12s) 
CPU  2 inst:   48000002 cyc:   55026179 now IPC :0.83400: AVG IPC :0.85118: L2-Pf-HR :0.94493: L2-HR :0.82124: (Sim:0h44m17s) 
CPU  3 inst:   49000005 cyc:   55124946 now IPC :0.72716: AVG IPC :0.86808: L2-Pf-HR :0.94347: L2-HR :0.82163: (Sim:0h44m22s) 
CPU  1 inst:   50000003 cyc:   56105209 now IPC :0.85227: AVG IPC :0.87079: L2-Pf-HR :0.94333: L2-HR :0.82117: (Sim:0h45m7s) 
CPU  0 inst:   49000005 cyc:   56149471 now IPC :0.69494: AVG IPC :0.85197: L2-Pf-HR :0.94391: L2-HR :0.82082: (Sim:0h45m9s) 
CPU  2 inst:   49000005 cyc:   56322500 now IPC :0.77142: AVG IPC :0.84931: L2-Pf-HR :0.94406: L2-HR :0.82081: (Sim:0h45m18s) 
CPU  3 inst:   50000003 cyc:   56410736 now IPC :0.77773: AVG IPC :0.86599: L2-Pf-HR :0.94349: L2-HR :0.82139: (Sim:0h45m22s) 
CPU  1 inst:   51000004 cyc:   57188048 now IPC :0.92350: AVG IPC :0.87180: L2-Pf-HR :0.94331: L2-HR :0.82098: (Sim:0h46m0s) 
CPU  0 inst:   50000003 cyc:   57444675 now IPC :0.77208: AVG IPC :0.85014: L2-Pf-HR :0.94394: L2-HR :0.82065: (Sim:0h46m13s) 
CPU  2 inst:   50000003 cyc:   57565687 now IPC :0.80438: AVG IPC :0.84832: L2-Pf-HR :0.94410: L2-HR :0.82066: (Sim:0h46m18s) 
CPU  3 inst:   51000004 cyc:   57742052 now IPC :0.75114: AVG IPC :0.86329: L2-Pf-HR :0.94346: L2-HR :0.82119: (Sim:0h46m27s) 
CPU  1 inst:   52000001 cyc:   58350724 now IPC :0.86008: AVG IPC :0.87156: L2-Pf-HR :0.94329: L2-HR :0.82085: (Sim:0h46m55s) 
CPU  0 inst:   51000004 cyc:   58897026 now IPC :0.68854: AVG IPC :0.84608: L2-Pf-HR :0.94389: L2-HR :0.82044: (Sim:0h47m20s) 
CPU  2 inst:   51000004 cyc:   58974464 now IPC :0.70984: AVG IPC :0.84496: L2-Pf-HR :0.94403: L2-HR :0.82049: (Sim:0h47m24s) 
CPU  3 inst:   52000001 cyc:   59002283 now IPC :0.79350: AVG IPC :0.86178: L2-Pf-HR :0.94342: L2-HR :0.82101: (Sim:0h47m25s) 
CPU  1 inst:   53000003 cyc:   59702946 now IPC :0.73953: AVG IPC :0.86852: L2-Pf-HR :0.94329: L2-HR :0.82067: (Sim:0h47m57s) 
CPU  3 inst:   53000003 cyc:   60128968 now IPC :0.88756: AVG IPC :0.86227: L2-Pf-HR :0.94341: L2-HR :0.82082: (Sim:0h48m17s) 
CPU  0 inst:   52000001 cyc:   60355247 now IPC :0.68577: AVG IPC :0.84215: L2-Pf-HR :0.94389: L2-HR :0.82028: (Sim:0h48m25s) 
CPU  2 inst:   52000002 cyc:   60467915 now IPC :0.66959: AVG IPC :0.84055: L2-Pf-HR :0.94400: L2-HR :0.82038: (Sim:0h48m28s) 
CPU  1 inst:   54000001 cyc:   61157608 now IPC :0.68744: AVG IPC :0.86415: L2-Pf-HR :0.94333: L2-HR :0.82052: (Sim:0h48m47s) 
CPU  3 inst:   54000001 cyc:   61353326 now IPC :0.81675: AVG IPC :0.86135: L2-Pf-HR :0.94343: L2-HR :0.82060: (Sim:0h48m56s) 
CPU  0 inst:   53000003 cyc:   61888976 now IPC :0.65201: AVG IPC :0.83736: L2-Pf-HR :0.94387: L2-HR :0.82010: (Sim:0h49m18s) 
CPU  2 inst:   53000003 cyc:   62039451 now IPC :0.63632: AVG IPC :0.83530: L2-Pf-HR :0.94397: L2-HR :0.82017: (Sim:0h49m25s) 
CPU  1 inst:   55000001 cyc:   62834125 now IPC :0.59647: AVG IPC :0.85689: L2-Pf-HR :0.94298: L2-HR :0.82015: (Sim:0h50m0s) 
CPU  3 inst:   55000001 cyc:   62901563 now IPC :0.64590: AVG IPC :0.85596: L2-Pf-HR :0.94314: L2-HR :0.82029: (Sim:0h50m4s) 
CPU  0 inst:   54000001 cyc:   63118311 now IPC :0.81345: AVG IPC :0.83688: L2-Pf-HR :0.94382: L2-HR :0.81990: (Sim:0h50m15s) 
CPU  2 inst:   54000001 cyc:   63282373 now IPC :0.80455: AVG IPC :0.83468: L2-Pf-HR :0.94402: L2-HR :0.82005: (Sim:0h50m23s) 
CPU  1 inst:   56000001 cyc:   64164598 now IPC :0.75161: AVG IPC :0.85467: L2-Pf-HR :0.94313: L2-HR :0.82028: (Sim:0h51m4s) 
CPU  3 inst:   56000001 cyc:   64198480 now IPC :0.77106: AVG IPC :0.85422: L2-Pf-HR :0.94342: L2-HR :0.82044: (Sim:0h51m5s) 
CPU  0 inst:   55000001 cyc:   64391834 now IPC :0.78522: AVG IPC :0.83585: L2-Pf-HR :0.94344: L2-HR :0.81956: (Sim:0h51m14s) 
CPU  2 inst:   55000001 cyc:   64566266 now IPC :0.77888: AVG IPC :0.83356: L2-Pf-HR :0.94367: L2-HR :0.81974: (Sim:0h51m24s) 
CPU  0 inst:   56000001 cyc:   65395676 now IPC :0.99617: AVG IPC :0.83835: L2-Pf-HR :0.94364: L2-HR :0.81965: (Sim:0h52m6s) 
CPU  1 inst:   57000001 cyc:   65414282 now IPC :0.80020: AVG IPC :0.85362: L2-Pf-HR :0.94327: L2-HR :0.82036: (Sim:0h52m7s) 
CPU  3 inst:   57000001 cyc:   65420575 now IPC :0.81827: AVG IPC :0.85353: L2-Pf-HR :0.94367: L2-HR :0.82057: (Sim:0h52m7s) 
CPU  2 inst:   56000001 cyc:   65603395 now IPC :0.96420: AVG IPC :0.83565: L2-Pf-HR :0.94383: L2-HR :0.81983: (Sim:0h52m17s) 
CPU  0 inst:   57000001 cyc:   66536659 now IPC :0.87644: AVG IPC :0.83901: L2-Pf-HR :0.94380: L2-HR :0.81968: (Sim:0h53m3s) 
CPU  2 inst:   57000001 cyc:   66624990 now IPC :0.97886: AVG IPC :0.83788: L2-Pf-HR :0.94399: L2-HR :0.81991: (Sim:0h53m8s) 
CPU  3 inst:   58000002 cyc:   66644315 now IPC :0.81717: AVG IPC :0.85286: L2-Pf-HR :0.94392: L2-HR :0.82074: (Sim:0h53m9s) 
CPU  1 inst:   58000002 cyc:   66696549 now IPC :0.77987: AVG IPC :0.85218: L2-Pf-HR :0.94339: L2-HR :0.82049: (Sim:0h53m12s) 
CPU  3 inst:   59000000 cyc:   67701185 now IPC :0.94619: AVG IPC :0.85434: L2-Pf-HR :0.94431: L2-HR :0.82096: (Sim:0h54m1s) 
CPU  0 inst:   58000002 cyc:   67762743 now IPC :0.81561: AVG IPC :0.83858: L2-Pf-HR :0.94398: L2-HR :0.81981: (Sim:0h54m4s) 
CPU  2 inst:   58000002 cyc:   67799379 now IPC :0.85151: AVG IPC :0.83812: L2-Pf-HR :0.94412: L2-HR :0.82004: (Sim:0h54m6s) 
CPU  1 inst:   59000004 cyc:   67931715 now IPC :0.80961: AVG IPC :0.85139: L2-Pf-HR :0.94367: L2-HR :0.82070: (Sim:0h54m12s) 
CPU  3 inst:   60000003 cyc:   68656176 now IPC :1.04713: AVG IPC :0.85706: L2-Pf-HR :0.94459: L2-HR :0.82110: (Sim:0h54m51s) 
CPU  1 inst:   60000003 cyc:   68914490 now IPC :1.01753: AVG IPC :0.85380: L2-Pf-HR :0.94395: L2-HR :0.82088: (Sim:0h55m5s) 
CPU  0 inst:   59000004 cyc:   68916482 now IPC :0.86675: AVG IPC :0.83906: L2-Pf-HR :0.94411: L2-HR :0.81983: (Sim:0h55m5s) 
CPU  2 inst:   59000004 cyc:   68938842 now IPC :0.87761: AVG IPC :0.83878: L2-Pf-HR :0.94427: L2-HR :0.82014: (Sim:0h55m7s) 
CPU  3 inst:   61000005 cyc:   69761772 now IPC :0.90449: AVG IPC :0.85782: L2-Pf-HR :0.94454: L2-HR :0.82130: (Sim:0h55m48s) 
CPU  1 inst:   61000005 cyc:   70000960 now IPC :0.92041: AVG IPC :0.85485: L2-Pf-HR :0.94371: L2-HR :0.82096: (Sim:0h56m0s) 
CPU  0 inst:   60000004 cyc:   70140786 now IPC :0.81679: AVG IPC :0.83866: L2-Pf-HR :0.94428: L2-HR :0.81988: (Sim:0h56m6s) 
CPU  2 inst:   60000004 cyc:   70179497 now IPC :0.80603: AVG IPC :0.83820: L2-Pf-HR :0.94446: L2-HR :0.82028: (Sim:0h56m8s) 
CPU  3 inst:   62000000 cyc:   70864892 now IPC :0.90652: AVG IPC :0.85859: L2-Pf-HR :0.94459: L2-HR :0.82171: (Sim:0h56m42s) 
CPU  1 inst:   62000000 cyc:   71175218 now IPC :0.85160: AVG IPC :0.85479: L2-Pf-HR :0.94381: L2-HR :0.82149: (Sim:0h56m55s) 
CPU  0 inst:   61000005 cyc:   71592288 now IPC :0.68894: AVG IPC :0.83558: L2-Pf-HR :0.94400: L2-HR :0.81981: (Sim:0h57m15s) 
CPU  2 inst:   61000005 cyc:   71620356 now IPC :0.69403: AVG IPC :0.83526: L2-Pf-HR :0.94424: L2-HR :0.82024: (Sim:0h57m16s) 
CPU  3 inst:   63000000 cyc:   72113888 now IPC :0.80064: AVG IPC :0.85757: L2-Pf-HR :0.94463: L2-HR :0.82211: (Sim:0h57m39s) 
CPU  1 inst:   63000000 cyc:   72376823 now IPC :0.83222: AVG IPC :0.85441: L2-Pf-HR :0.94390: L2-HR :0.82193: (Sim:0h57m52s) 
CPU  0 inst:   62000000 cyc:   73004050 now IPC :0.70833: AVG IPC :0.83309: L2-Pf-HR :0.94399: L2-HR :0.81994: (Sim:0h58m21s) 
CPU  2 inst:   62000000 cyc:   73042574 now IPC :0.70312: AVG IPC :0.83265: L2-Pf-HR :0.94432: L2-HR :0.82051: (Sim:0h58m22s) 
CPU  3 inst:   64000000 cyc:   73176292 now IPC :0.94126: AVG IPC :0.85880: L2-Pf-HR :0.94474: L2-HR :0.82255: (Sim:0h58m28s) 
CPU  1 inst:   64000003 cyc:   73788042 now IPC :0.70861: AVG IPC :0.85158: L2-Pf-HR :0.94405: L2-HR :0.82246: (Sim:0h58m58s) 
CPU  0 inst:   63000000 cyc:   74070040 now IPC :0.93810: AVG IPC :0.83462: L2-Pf-HR :0.94399: L2-HR :0.82005: (Sim:0h59m13s) 
CPU  2 inst:   63000000 cyc:   74209866 now IPC :0.85668: AVG IPC :0.83303: L2-Pf-HR :0.94439: L2-HR :0.82074: (Sim:0h59m19s) 
CPU  3 inst:   65000002 cyc:   74598515 now IPC :0.70313: AVG IPC :0.85579: L2-Pf-HR :0.94426: L2-HR :0.82226: (Sim:0h59m38s) 
CPU  1 inst:   65000002 cyc:   75060095 now IPC :0.78613: AVG IPC :0.85046: L2-Pf-HR :0.94355: L2-HR :0.82226: (Sim:1h0m0s) 
CPU  0 inst:   64000003 cyc:   75291006 now IPC :0.81903: AVG IPC :0.83437: L2-Pf-HR :0.94402: L2-HR :0.82016: (Sim:1h0m12s) 
CPU  2 inst:   64000005 cyc:   75375018 now IPC :0.85826: AVG IPC :0.83343: L2-Pf-HR :0.94472: L2-HR :0.82111: (Sim:1h0m16s) 
CPU  3 inst:   66000002 cyc:   75717068 now IPC :0.89401: AVG IPC :0.85637: L2-Pf-HR :0.94423: L2-HR :0.82207: (Sim:1h0m34s) 
CPU  1 inst:   66000002 cyc:   76309904 now IPC :0.80012: AVG IPC :0.84963: L2-Pf-HR :0.94357: L2-HR :0.82207: (Sim:1h1m0s) 
CPU  0 inst:   65000002 cyc:   76609831 now IPC :0.75825: AVG IPC :0.83304: L2-Pf-HR :0.94351: L2-HR :0.81976: (Sim:1h1m15s) 
CPU  2 inst:   65000002 cyc:   76714857 now IPC :0.74636: AVG IPC :0.83189: L2-Pf-HR :0.94429: L2-HR :0.82077: (Sim:1h1m20s) 
CPU  3 inst:   67000000 cyc:   76919466 now IPC :0.83167: AVG IPC :0.85597: L2-Pf-HR :0.94421: L2-HR :0.82186: (Sim:1h1m29s) 
CPU  1 inst:   67000000 cyc:   77454541 now IPC :0.87364: AVG IPC :0.84999: L2-Pf-HR :0.94357: L2-HR :0.82187: (Sim:1h1m56s) 
CPU  0 inst:   66000002 cyc:   77780757 now IPC :0.85402: AVG IPC :0.83336: L2-Pf-HR :0.94345: L2-HR :0.81967: (Sim:1h2m11s) 
CPU  2 inst:   66000002 cyc:   77958721 now IPC :0.80395: AVG IPC :0.83144: L2-Pf-HR :0.94435: L2-HR :0.82065: (Sim:1h2m20s) 
CPU  3 inst:   68000005 cyc:   78008856 now IPC :0.91795: AVG IPC :0.85685: L2-Pf-HR :0.94419: L2-HR :0.82171: (Sim:1h2m22s) 
CPU  1 inst:   68000005 cyc:   78685940 now IPC :0.81209: AVG IPC :0.84938: L2-Pf-HR :0.94356: L2-HR :0.82171: (Sim:1h2m55s) 
CPU  0 inst:   67000000 cyc:   78934289 now IPC :0.86690: AVG IPC :0.83385: L2-Pf-HR :0.94348: L2-HR :0.81964: (Sim:1h3m6s) 
CPU  3 inst:   69000000 cyc:   79159474 now IPC :0.86909: AVG IPC :0.85703: L2-Pf-HR :0.94419: L2-HR :0.82155: (Sim:1h3m17s) 
CPU  2 inst:   67000000 cyc:   79200251 now IPC :0.80546: AVG IPC :0.83102: L2-Pf-HR :0.94435: L2-HR :0.82049: (Sim:1h3m19s) 
CPU  1 inst:   69000000 cyc:   79963327 now IPC :0.78284: AVG IPC :0.84831: L2-Pf-HR :0.94357: L2-HR :0.82155: (Sim:1h3m55s) 
CPU  0 inst:   68000005 cyc:   80075467 now IPC :0.87629: AVG IPC :0.83447: L2-Pf-HR :0.94343: L2-HR :0.81961: (Sim:1h4m0s) 
CPU  3 inst:   70000004 cyc:   80404273 now IPC :0.80335: AVG IPC :0.85619: L2-Pf-HR :0.94417: L2-HR :0.82137: (Sim:1h4m15s) 
CPU  2 inst:   68000005 cyc:   80431781 now IPC :0.81200: AVG IPC :0.83073: L2-Pf-HR :0.94432: L2-HR :0.82034: (Sim:1h4m17s) 
CPU  0 inst:   69000000 cyc:   81242692 now IPC :0.85673: AVG IPC :0.83479: L2-Pf-HR :0.94343: L2-HR :0.81958: (Sim:1h4m55s) 
CPU  1 inst:   70000004 cyc:   81245869 now IPC :0.77970: AVG IPC :0.84721: L2-Pf-HR :0.94358: L2-HR :0.82139: (Sim:1h4m55s) 
CPU  2 inst:   69000000 cyc:   81650636 now IPC :0.82044: AVG IPC :0.83057: L2-Pf-HR :0.94435: L2-HR :0.82022: (Sim:1h5m12s) 
CPU  3 inst:   71000005 cyc:   81846418 now IPC :0.69341: AVG IPC :0.85329: L2-Pf-HR :0.94384: L2-HR :0.82107: (Sim:1h5m21s) 
CPU  1 inst:   71000001 cyc:   82603035 now IPC :0.73683: AVG IPC :0.84538: L2-Pf-HR :0.94329: L2-HR :0.82106: (Sim:1h5m55s) 
CPU  0 inst:   70000004 cyc:   82643251 now IPC :0.71400: AVG IPC :0.83272: L2-Pf-HR :0.94341: L2-HR :0.81955: (Sim:1h5m57s) 
CPU  2 inst:   70000004 cyc:   82816924 now IPC :0.85742: AVG IPC :0.83096: L2-Pf-HR :0.94433: L2-HR :0.82007: (Sim:1h6m5s) 
CPU  3 inst:   72000000 cyc:   83184334 now IPC :0.74743: AVG IPC :0.85156: L2-Pf-HR :0.94395: L2-HR :0.82103: (Sim:1h6m23s) 
CPU  1 inst:   72000000 cyc:   83659250 now IPC :0.94678: AVG IPC :0.84667: L2-Pf-HR :0.94343: L2-HR :0.82104: (Sim:1h6m45s) 
CPU  0 inst:   71000001 cyc:   84164616 now IPC :0.65730: AVG IPC :0.82951: L2-Pf-HR :0.94308: L2-HR :0.81935: (Sim:1h7m6s) 
CPU  2 inst:   71000001 cyc:   84229211 now IPC :0.70807: AVG IPC :0.82887: L2-Pf-HR :0.94403: L2-HR :0.81978: (Sim:1h7m9s) 
CPU  3 inst:   73000000 cyc:   84326561 now IPC :0.87548: AVG IPC :0.85189: L2-Pf-HR :0.94405: L2-HR :0.82099: (Sim:1h7m14s) 
CPU  1 inst:   73000000 cyc:   84919180 now IPC :0.79369: AVG IPC :0.84588: L2-Pf-HR :0.94352: L2-HR :0.82097: (Sim:1h7m42s) 
CPU  0 inst:   72000000 cyc:   85358550 now IPC :0.83757: AVG IPC :0.82962: L2-Pf-HR :0.94323: L2-HR :0.81943: (Sim:1h8m3s) 
CPU  3 inst:   74000005 cyc:   85381779 now IPC :0.94768: AVG IPC :0.85309: L2-Pf-HR :0.94415: L2-HR :0.82097: (Sim:1h8m4s) 
CPU  2 inst:   72000000 cyc:   85550249 now IPC :0.75698: AVG IPC :0.82775: L2-Pf-HR :0.94419: L2-HR :0.81988: (Sim:1h8m12s) 
CPU  1 inst:   74000005 cyc:   86242126 now IPC :0.75589: AVG IPC :0.84448: L2-Pf-HR :0.94362: L2-HR :0.82092: (Sim:1h8m44s) 
CPU  0 inst:   73000000 cyc:   86346231 now IPC :1.01247: AVG IPC :0.83174: L2-Pf-HR :0.94332: L2-HR :0.81944: (Sim:1h8m49s) 
CPU  3 inst:   75000000 cyc:   86660543 now IPC :0.78200: AVG IPC :0.85203: L2-Pf-HR :0.94429: L2-HR :0.82096: (Sim:1h9m4s) 
CPU  2 inst:   73000000 cyc:   86804665 now IPC :0.79718: AVG IPC :0.82730: L2-Pf-HR :0.94434: L2-HR :0.81997: (Sim:1h9m11s) 
CPU  0 inst:   74000005 cyc:   87397835 now IPC :0.95093: AVG IPC :0.83319: L2-Pf-HR :0.94344: L2-HR :0.81947: (Sim:1h9m39s) 
CPU  1 inst:   75000000 cyc:   87472394 now IPC :0.81283: AVG IPC :0.84403: L2-Pf-HR :0.94374: L2-HR :0.82089: (Sim:1h9m43s) 
CPU  2 inst:   74000005 cyc:   87882135 now IPC :0.92810: AVG IPC :0.82855: L2-Pf-HR :0.94449: L2-HR :0.82006: (Sim:1h10m0s) 
CPU  3 inst:   76000003 cyc:   87889231 now IPC :0.81388: AVG IPC :0.85149: L2-Pf-HR :0.94442: L2-HR :0.82093: (Sim:1h10m0s) 
CPU  0 inst:   75000000 cyc:   88578856 now IPC :0.84672: AVG IPC :0.83337: L2-Pf-HR :0.94359: L2-HR :0.81959: (Sim:1h10m21s) 
CPU  1 inst:   76000003 cyc:   88613313 now IPC :0.87649: AVG IPC :0.84445: L2-Pf-HR :0.94389: L2-HR :0.82088: (Sim:1h10m22s) 
CPU  2 inst:   75000000 cyc:   88842332 now IPC :1.04145: AVG IPC :0.83088: L2-Pf-HR :0.94463: L2-HR :0.82014: (Sim:1h10m30s) 
CPU  3 inst:   77000004 cyc:   89209768 now IPC :0.75727: AVG IPC :0.85008: L2-Pf-HR :0.94432: L2-HR :0.82088: (Sim:1h10m41s) 
CPU  0 inst:   76000003 cyc:   89685196 now IPC :0.90388: AVG IPC :0.83425: L2-Pf-HR :0.94372: L2-HR :0.81964: (Sim:1h10m57s) 
CPU  1 inst:   77000004 cyc:   89730488 now IPC :0.89512: AVG IPC :0.84509: L2-Pf-HR :0.94377: L2-HR :0.82084: (Sim:1h10m58s) 
CPU  2 inst:   76000003 cyc:   89862807 now IPC :0.97994: AVG IPC :0.83259: L2-Pf-HR :0.94483: L2-HR :0.82024: (Sim:1h11m2s) 
CPU  3 inst:   78000002 cyc:   90323091 now IPC :0.89821: AVG IPC :0.85068: L2-Pf-HR :0.94437: L2-HR :0.82124: (Sim:1h11m18s) 
CPU  0 inst:   77000004 cyc:   90748516 now IPC :0.94045: AVG IPC :0.83551: L2-Pf-HR :0.94365: L2-HR :0.81968: (Sim:1h11m30s) 
CPU  1 inst:   78000002 cyc:   90949545 now IPC :0.82030: AVG IPC :0.84475: L2-Pf-HR :0.94384: L2-HR :0.82122: (Sim:1h11m36s) 
CPU  2 inst:   77000004 cyc:   91092643 now IPC :0.81312: AVG IPC :0.83232: L2-Pf-HR :0.94471: L2-HR :0.82028: (Sim:1h11m41s) 
CPU  3 inst:   79000000 cyc:   91556935 now IPC :0.81047: AVG IPC :0.85013: L2-Pf-HR :0.94448: L2-HR :0.82175: (Sim:1h11m57s) 
CPU  0 inst:   78000002 cyc:   91711078 now IPC :1.03889: AVG IPC :0.83767: L2-Pf-HR :0.94368: L2-HR :0.82002: (Sim:1h12m2s) 
CPU  1 inst:   79000000 cyc:   91917010 now IPC :1.03363: AVG IPC :0.84676: L2-Pf-HR :0.94393: L2-HR :0.82166: (Sim:1h12m9s) 
CPU  2 inst:   78000002 cyc:   92130519 now IPC :0.96350: AVG IPC :0.83382: L2-Pf-HR :0.94477: L2-HR :0.82068: (Sim:1h12m15s) 
CPU  3 inst:   80000002 cyc:   92672339 now IPC :0.89654: AVG IPC :0.85070: L2-Pf-HR :0.94458: L2-HR :0.82214: (Sim:1h12m33s) 
CPU  0 inst:   79000000 cyc:   92790382 now IPC :0.92652: AVG IPC :0.83871: L2-Pf-HR :0.94376: L2-HR :0.82045: (Sim:1h12m37s) 
CPU  1 inst:   80000002 cyc:   92855901 now IPC :1.06509: AVG IPC :0.84900: L2-Pf-HR :0.94402: L2-HR :0.82205: (Sim:1h12m39s) 
CPU  2 inst:   79000000 cyc:   93280425 now IPC :0.86963: AVG IPC :0.83426: L2-Pf-HR :0.94490: L2-HR :0.82119: (Sim:1h12m58s) 
CPU  3 inst:   81000001 cyc:   93975508 now IPC :0.76736: AVG IPC :0.84953: L2-Pf-HR :0.94417: L2-HR :0.82208: (Sim:1h13m29s) 
CPU  0 inst:   80000002 cyc:   94022817 now IPC :0.81140: AVG IPC :0.83835: L2-Pf-HR :0.94386: L2-HR :0.82082: (Sim:1h13m32s) 
CPU  1 inst:   81000001 cyc:   94132605 now IPC :0.78327: AVG IPC :0.84809: L2-Pf-HR :0.94363: L2-HR :0.82194: (Sim:1h13m38s) 
CPU  2 inst:   80000002 cyc:   94412369 now IPC :0.88344: AVG IPC :0.83486: L2-Pf-HR :0.94500: L2-HR :0.82161: (Sim:1h13m53s) 
CPU  3 inst:   82000003 cyc:   95090425 now IPC :0.89693: AVG IPC :0.85009: L2-Pf-HR :0.94413: L2-HR :0.82193: (Sim:1h14m25s) 
CPU  0 inst:   81000001 cyc:   95250757 now IPC :0.81437: AVG IPC :0.83804: L2-Pf-HR :0.94352: L2-HR :0.82070: (Sim:1h14m33s) 
CPU  1 inst:   82000003 cyc:   95292208 now IPC :0.86237: AVG IPC :0.84827: L2-Pf-HR :0.94361: L2-HR :0.82179: (Sim:1h14m35s) 
CPU  2 inst:   81000001 cyc:   95823936 now IPC :0.70843: AVG IPC :0.83298: L2-Pf-HR :0.94468: L2-HR :0.82154: (Sim:1h14m59s) 
CPU  3 inst:   83000004 cyc:   96373271 now IPC :0.77952: AVG IPC :0.84914: L2-Pf-HR :0.94412: L2-HR :0.82178: (Sim:1h15m26s) 
CPU  0 inst:   82000003 cyc:   96437798 now IPC :0.84243: AVG IPC :0.83809: L2-Pf-HR :0.94352: L2-HR :0.82057: (Sim:1h15m28s) 
CPU  1 inst:   83000004 cyc:   96547071 now IPC :0.79690: AVG IPC :0.84760: L2-Pf-HR :0.94357: L2-HR :0.82163: (Sim:1h15m33s) 
CPU  2 inst:   82000003 cyc:   97238106 now IPC :0.70713: AVG IPC :0.83113: L2-Pf-HR :0.94466: L2-HR :0.82140: (Sim:1h16m5s) 
CPU  3 inst:   84000002 cyc:   97626408 now IPC :0.79800: AVG IPC :0.84848: L2-Pf-HR :0.94412: L2-HR :0.82169: (Sim:1h16m23s) 
CPU  0 inst:   83000004 cyc:   97742287 now IPC :0.76658: AVG IPC :0.83713: L2-Pf-HR :0.94350: L2-HR :0.82044: (Sim:1h16m28s) 
CPU  1 inst:   84000002 cyc:   97947449 now IPC :0.71409: AVG IPC :0.84567: L2-Pf-HR :0.94360: L2-HR :0.82153: (Sim:1h16m38s) 
CPU  2 inst:   83000004 cyc:   98745897 now IPC :0.66322: AVG IPC :0.82854: L2-Pf-HR :0.94464: L2-HR :0.82125: (Sim:1h17m14s) 
CPU  3 inst:   85000002 cyc:   98757849 now IPC :0.88383: AVG IPC :0.84889: L2-Pf-HR :0.94410: L2-HR :0.82157: (Sim:1h17m14s) 
CPU  0 inst:   84000002 cyc:   99237462 now IPC :0.66882: AVG IPC :0.83457: L2-Pf-HR :0.94350: L2-HR :0.82032: (Sim:1h17m35s) 
CPU  1 inst:   85000002 cyc:   99455809 now IPC :0.66297: AVG IPC :0.84287: L2-Pf-HR :0.94358: L2-HR :0.82141: (Sim:1h17m44s) 
CPU  3 inst:   86000001 cyc:  100042184 now IPC :0.77861: AVG IPC :0.84798: L2-Pf-HR :0.94411: L2-HR :0.82144: (Sim:1h18m9s) 
CPU  2 inst:   84000002 cyc:  100261864 now IPC :0.65964: AVG IPC :0.82596: L2-Pf-HR :0.94462: L2-HR :0.82116: (Sim:1h18m18s) 
CPU  0 inst:   85000002 cyc:  100825328 now IPC :0.62978: AVG IPC :0.83131: L2-Pf-HR :0.94351: L2-HR :0.82023: (Sim:1h18m42s) 
CPU  1 inst:   86000001 cyc:  101076551 now IPC :0.61700: AVG IPC :0.83921: L2-Pf-HR :0.94361: L2-HR :0.82129: (Sim:1h18m53s) 
CPU  2 inst:   85000002 cyc:  101606857 now IPC :0.74350: AVG IPC :0.82486: L2-Pf-HR :0.94459: L2-HR :0.82101: (Sim:1h19m16s) 
CPU  3 inst:   87000002 cyc:  101660702 now IPC :0.61785: AVG IPC :0.84428: L2-Pf-HR :0.94383: L2-HR :0.82114: (Sim:1h19m19s) 
CPU  0 inst:   86000001 cyc:  102203927 now IPC :0.72537: AVG IPC :0.82987: L2-Pf-HR :0.94350: L2-HR :0.82009: (Sim:1h19m45s) 
CPU  1 inst:   87000002 cyc:  102596336 now IPC :0.65799: AVG IPC :0.83650: L2-Pf-HR :0.94336: L2-HR :0.82099: (Sim:1h20m2s) 
CPU  2 inst:   86000001 cyc:  102754294 now IPC :0.87151: AVG IPC :0.82538: L2-Pf-HR :0.94460: L2-HR :0.82090: (Sim:1h20m9s) 
CPU  3 inst:   88000003 cyc:  102983953 now IPC :0.75572: AVG IPC :0.84313: L2-Pf-HR :0.94389: L2-HR :0.82109: (Sim:1h20m20s) 
CPU  0 inst:   87000002 cyc:  103755364 now IPC :0.64456: AVG IPC :0.82707: L2-Pf-HR :0.94323: L2-HR :0.81982: (Sim:1h20m54s) 
CPU  2 inst:   87000002 cyc:  104030436 now IPC :0.78361: AVG IPC :0.82487: L2-Pf-HR :0.94436: L2-HR :0.82061: (Sim:1h21m5s) 
CPU  1 inst:   88000003 cyc:  104073175 now IPC :0.67712: AVG IPC :0.83422: L2-Pf-HR :0.94342: L2-HR :0.82092: (Sim:1h21m7s) 
CPU  3 inst:   89000003 cyc:  104528129 now IPC :0.64759: AVG IPC :0.84021: L2-Pf-HR :0.94398: L2-HR :0.82105: (Sim:1h21m27s) 
CPU  0 inst:   88000003 cyc:  105214260 now IPC :0.68545: AVG IPC :0.82509: L2-Pf-HR :0.94331: L2-HR :0.81977: (Sim:1h21m55s) 
CPU  2 inst:   88000003 cyc:  105347195 now IPC :0.75944: AVG IPC :0.82404: L2-Pf-HR :0.94441: L2-HR :0.82055: (Sim:1h22m1s) 
CPU  1 inst:   89000003 cyc:  105595106 now IPC :0.65706: AVG IPC :0.83164: L2-Pf-HR :0.94352: L2-HR :0.82088: (Sim:1h22m11s) 
CPU  3 inst:   90000000 cyc:  106082583 now IPC :0.64331: AVG IPC :0.83730: L2-Pf-HR :0.94407: L2-HR :0.82102: (Sim:1h22m33s) 
CPU  0 inst:   89000003 cyc:  106506358 now IPC :0.77394: AVG IPC :0.82446: L2-Pf-HR :0.94342: L2-HR :0.81975: (Sim:1h22m52s) 
CPU  2 inst:   89000003 cyc:  106735458 now IPC :0.72032: AVG IPC :0.82268: L2-Pf-HR :0.94448: L2-HR :0.82051: (Sim:1h23m2s) 
CPU  1 inst:   90000000 cyc:  107131367 now IPC :0.65093: AVG IPC :0.82903: L2-Pf-HR :0.94363: L2-HR :0.82087: (Sim:1h23m21s) 
CPU  0 inst:   90000000 cyc:  107469440 now IPC :1.03833: AVG IPC :0.82640: L2-Pf-HR :0.94353: L2-HR :0.81976: (Sim:1h23m36s) 
CPU  3 inst:   91000002 cyc:  107513819 now IPC :0.69870: AVG IPC :0.83544: L2-Pf-HR :0.94415: L2-HR :0.82098: (Sim:1h23m39s) 
CPU  2 inst:   90000000 cyc:  108135183 now IPC :0.71442: AVG IPC :0.82126: L2-Pf-HR :0.94458: L2-HR :0.82052: (Sim:1h24m7s) 
CPU  1 inst:   91000002 cyc:  108622501 now IPC :0.67063: AVG IPC :0.82683: L2-Pf-HR :0.94373: L2-HR :0.82086: (Sim:1h24m27s) 
CPU  0 inst:   91000002 cyc:  108683718 now IPC :0.82354: AVG IPC :0.82636: L2-Pf-HR :0.94363: L2-HR :0.81977: (Sim:1h24m29s) 
CPU  3 inst:   92000000 cyc:  108888736 now IPC :0.72732: AVG IPC :0.83406: L2-Pf-HR :0.94427: L2-HR :0.82097: (Sim:1h24m38s) 
CPU  2 inst:   91000002 cyc:  109626730 now IPC :0.67045: AVG IPC :0.81919: L2-Pf-HR :0.94464: L2-HR :0.82048: (Sim:1h25m8s) 
CPU  1 inst:   92000000 cyc:  110188967 now IPC :0.63838: AVG IPC :0.82413: L2-Pf-HR :0.94387: L2-HR :0.82086: (Sim:1h25m31s) 
CPU  0 inst:   92000000 cyc:  110190804 now IPC :0.66353: AVG IPC :0.82412: L2-Pf-HR :0.94374: L2-HR :0.81974: (Sim:1h25m31s) 
CPU  3 inst:   93000001 cyc:  110374179 now IPC :0.67320: AVG IPC :0.83187: L2-Pf-HR :0.94414: L2-HR :0.82085: (Sim:1h25m38s) 
CPU  2 inst:   92000000 cyc:  110923095 now IPC :0.77139: AVG IPC :0.81863: L2-Pf-HR :0.94475: L2-HR :0.82046: (Sim:1h26m5s) 
CPU  3 inst:   94000004 cyc:  111486629 now IPC :0.89892: AVG IPC :0.83255: L2-Pf-HR :0.94420: L2-HR :0.82120: (Sim:1h26m32s) 
CPU  0 inst:   93000000 cyc:  111616913 now IPC :0.70121: AVG IPC :0.82253: L2-Pf-HR :0.94365: L2-HR :0.81964: (Sim:1h26m38s) 
CPU  1 inst:   93000001 cyc:  111636004 now IPC :0.69107: AVG IPC :0.82239: L2-Pf-HR :0.94379: L2-HR :0.82074: (Sim:1h26m39s) 
CPU  2 inst:   93000002 cyc:  112044844 now IPC :0.89147: AVG IPC :0.81937: L2-Pf-HR :0.94466: L2-HR :0.82036: (Sim:1h26m59s) 
CPU  3 inst:   95000005 cyc:  112614315 now IPC :0.88677: AVG IPC :0.83310: L2-Pf-HR :0.94424: L2-HR :0.82152: (Sim:1h27m28s) 
CPU  0 inst:   94000004 cyc:  112800833 now IPC :0.84466: AVG IPC :0.82277: L2-Pf-HR :0.94374: L2-HR :0.81997: (Sim:1h27m38s) 
CPU  1 inst:   94000004 cyc:  112808015 now IPC :0.85324: AVG IPC :0.82271: L2-Pf-HR :0.94387: L2-HR :0.82105: (Sim:1h27m38s) 
CPU  2 inst:   94000004 cyc:  113181488 now IPC :0.87978: AVG IPC :0.81998: L2-Pf-HR :0.94473: L2-HR :0.82076: (Sim:1h27m56s) 
CPU  3 inst:   96000000 cyc:  113764071 now IPC :0.86975: AVG IPC :0.83347: L2-Pf-HR :0.94431: L2-HR :0.82183: (Sim:1h28m26s) 
CPU  1 inst:   95000005 cyc:  113974674 now IPC :0.85715: AVG IPC :0.82307: L2-Pf-HR :0.94392: L2-HR :0.82130: (Sim:1h28m37s) 
CPU  0 inst:   95000005 cyc:  113980266 now IPC :0.84787: AVG IPC :0.82303: L2-Pf-HR :0.94383: L2-HR :0.82027: (Sim:1h28m37s) 
CPU  2 inst:   95000005 cyc:  114310523 now IPC :0.88571: AVG IPC :0.82063: L2-Pf-HR :0.94479: L2-HR :0.82113: (Sim:1h28m53s) 
CPU  3 inst:   97000000 cyc:  115089089 now IPC :0.75471: AVG IPC :0.83256: L2-Pf-HR :0.94411: L2-HR :0.82188: (Sim:1h29m22s) 
CPU  1 inst:   96000000 cyc:  115237072 now IPC :0.79214: AVG IPC :0.82272: L2-Pf-HR :0.94398: L2-HR :0.82154: (Sim:1h29m28s) 
CPU  0 inst:   96000000 cyc:  115253711 now IPC :0.78527: AVG IPC :0.82261: L2-Pf-HR :0.94388: L2-HR :0.82047: (Sim:1h29m29s) 
CPU  2 inst:   96000000 cyc:  115439573 now IPC :0.88570: AVG IPC :0.82127: L2-Pf-HR :0.94486: L2-HR :0.82144: (Sim:1h29m38s) 
CPU  3 inst:   98000001 cyc:  116305122 now IPC :0.82235: AVG IPC :0.83245: L2-Pf-HR :0.94404: L2-HR :0.82171: (Sim:1h30m21s) 
CPU  1 inst:   97000000 cyc:  116595686 now IPC :0.73604: AVG IPC :0.82171: L2-Pf-HR :0.94374: L2-HR :0.82155: (Sim:1h30m32s) 
CPU  0 inst:   97000000 cyc:  116711268 now IPC :0.68608: AVG IPC :0.82089: L2-Pf-HR :0.94368: L2-HR :0.82044: (Sim:1h30m36s) 
CPU  2 inst:   97000000 cyc:  116770760 now IPC :0.75121: AVG IPC :0.82047: L2-Pf-HR :0.94460: L2-HR :0.82152: (Sim:1h30m39s) 
CPU  3 inst:   99000004 cyc:  117619360 now IPC :0.76090: AVG IPC :0.83164: L2-Pf-HR :0.94405: L2-HR :0.82160: (Sim:1h31m18s) 
CPU  1 inst:   98000002 cyc:  117806084 now IPC :0.82618: AVG IPC :0.82175: L2-Pf-HR :0.94368: L2-HR :0.82142: (Sim:1h31m26s) 
CPU  0 inst:   98000002 cyc:  118186369 now IPC :0.67792: AVG IPC :0.81909: L2-Pf-HR :0.94366: L2-HR :0.82037: (Sim:1h31m42s) 
CPU  2 inst:   98000001 cyc:  118233809 now IPC :0.68350: AVG IPC :0.81876: L2-Pf-HR :0.94453: L2-HR :0.82142: (Sim:1h31m44s) 
CPU  1 inst:   99000004 cyc:  118933041 now IPC :0.88735: AVG IPC :0.82238: L2-Pf-HR :0.94369: L2-HR :0.82136: (Sim:1h32m3s) 
CPU  3 inst:  100000000 cyc:  119024101 now IPC :0.71187: AVG IPC :0.83022: L2-Pf-HR :0.94402: L2-HR :0.82149: (Sim:1h32m6s) 
CPU  0 inst:   99000004 cyc:  119731147 now IPC :0.64734: AVG IPC :0.81686: L2-Pf-HR :0.94373: L2-HR :0.82037: (Sim:1h32m24s) 
CPU  2 inst:   99000004 cyc:  119839293 now IPC :0.62287: AVG IPC :0.81611: L2-Pf-HR :0.94455: L2-HR :0.82139: (Sim:1h32m27s) 
CPU  1 inst:  100000001 cyc:  120374348 now IPC :0.69381: AVG IPC :0.82083: L2-Pf-HR :0.94368: L2-HR :0.82129: (Sim:1h32m42s) 
CPU  3 inst:  101000003 cyc:  120591423 now IPC :0.63803: AVG IPC :0.82770: L2-Pf-HR :0.94405: L2-HR :0.82139: (Sim:1h32m51s) 
CPU  0 inst:  100000004 cyc:  121099466 now IPC :0.73082: AVG IPC :0.81588: L2-Pf-HR :0.94375: L2-HR :0.82035: (Sim:1h33m8s) 
CPU  2 inst:  100000000 cyc:  121455176 now IPC :0.61885: AVG IPC :0.81347: L2-Pf-HR :0.94454: L2-HR :0.82137: (Sim:1h33m18s) 
CPU  1 inst:  101000003 cyc:  121943669 now IPC :0.63722: AVG IPC :0.81845: L2-Pf-HR :0.94372: L2-HR :0.82122: (Sim:1h33m32s) 
CPU  3 inst:  102000002 cyc:  122175643 now IPC :0.63122: AVG IPC :0.82513: L2-Pf-HR :0.94405: L2-HR :0.82128: (Sim:1h33m38s) 
CPU  0 inst:  101000003 cyc:  122228738 now IPC :0.88553: AVG IPC :0.81652: L2-Pf-HR :0.94375: L2-HR :0.82032: (Sim:1h33m39s) 
CPU  2 inst:  101000003 cyc:  123010910 now IPC :0.64279: AVG IPC :0.81129: L2-Pf-HR :0.94452: L2-HR :0.82134: (Sim:1h34m0s) 
CPU  1 inst:  102000002 cyc:  123597887 now IPC :0.60451: AVG IPC :0.81556: L2-Pf-HR :0.94371: L2-HR :0.82111: (Sim:1h34m14s) 
CPU  0 inst:  102000002 cyc:  123626446 now IPC :0.71546: AVG IPC :0.81537: L2-Pf-HR :0.94372: L2-HR :0.82026: (Sim:1h34m15s) 
CPU  3 inst:  103000001 cyc:  123738082 now IPC :0.64002: AVG IPC :0.82277: L2-Pf-HR :0.94408: L2-HR :0.82124: (Sim:1h34m19s) 
CPU  2 inst:  102000002 cyc:  124676048 now IPC :0.60055: AVG IPC :0.80846: L2-Pf-HR :0.94450: L2-HR :0.82126: (Sim:1h34m41s) 
CPU  1 inst:  103000001 cyc:  125448090 now IPC :0.54048: AVG IPC :0.81147: L2-Pf-HR :0.94372: L2-HR :0.82110: (Sim:1h35m9s) 
CPU  3 inst:  104000005 cyc:  125461231 now IPC :0.58034: AVG IPC :0.81942: L2-Pf-HR :0.94386: L2-HR :0.82101: (Sim:1h35m10s) 
CPU  0 inst:  103000001 cyc:  125472961 now IPC :0.54156: AVG IPC :0.81131: L2-Pf-HR :0.94374: L2-HR :0.82025: (Sim:1h35m10s) 
CPU  2 inst:  103000001 cyc:  125868729 now IPC :0.83845: AVG IPC :0.80874: L2-Pf-HR :0.94451: L2-HR :0.82126: (Sim:1h35m27s) 
CPU  3 inst:  105000001 cyc:  126656610 now IPC :0.83655: AVG IPC :0.81958: L2-Pf-HR :0.94392: L2-HR :0.82097: (Sim:1h36m6s) 
CPU  1 inst:  104000003 cyc:  126867262 now IPC :0.70464: AVG IPC :0.81027: L2-Pf-HR :0.94360: L2-HR :0.82093: (Sim:1h36m17s) 
CPU  0 inst:  104000000 cyc:  126882921 now IPC :0.70924: AVG IPC :0.81017: L2-Pf-HR :0.94350: L2-HR :0.82004: (Sim:1h36m18s) 
CPU  2 inst:  104000005 cyc:  127105275 now IPC :0.80871: AVG IPC :0.80874: L2-Pf-HR :0.94433: L2-HR :0.82104: (Sim:1h36m29s) 
CPU  3 inst:  106000005 cyc:  127758531 now IPC :0.90751: AVG IPC :0.82035: L2-Pf-HR :0.94401: L2-HR :0.82096: (Sim:1h37m3s) 
CPU  1 inst:  105000001 cyc:  127992563 now IPC :0.88865: AVG IPC :0.81096: L2-Pf-HR :0.94371: L2-HR :0.82094: (Sim:1h37m16s) 
CPU  0 inst:  105000001 cyc:  128042604 now IPC :0.86231: AVG IPC :0.81064: L2-Pf-HR :0.94355: L2-HR :0.82004: (Sim:1h37m18s) 
CPU  2 inst:  105000001 cyc:  128178381 now IPC :0.93187: AVG IPC :0.80978: L2-Pf-HR :0.94438: L2-HR :0.82101: (Sim:1h37m26s) 
CPU  3 inst:  107000005 cyc:  128839412 now IPC :0.92517: AVG IPC :0.82123: L2-Pf-HR :0.94410: L2-HR :0.82094: (Sim:1h38m1s) 
CPU  1 inst:  106000005 cyc:  128982696 now IPC :1.00997: AVG IPC :0.81250: L2-Pf-HR :0.94386: L2-HR :0.82098: (Sim:1h38m9s) 
CPU  0 inst:  106000005 cyc:  129126362 now IPC :0.92272: AVG IPC :0.81159: L2-Pf-HR :0.94360: L2-HR :0.82004: (Sim:1h38m16s) 
CPU  2 inst:  106000005 cyc:  129283796 now IPC :0.90464: AVG IPC :0.81060: L2-Pf-HR :0.94447: L2-HR :0.82101: (Sim:1h38m22s) 
CPU  3 inst:  108000005 cyc:  129898930 now IPC :0.94383: AVG IPC :0.82224: L2-Pf-HR :0.94420: L2-HR :0.82095: (Sim:1h38m46s) 
CPU  1 inst:  107000005 cyc:  129902170 now IPC :1.08758: AVG IPC :0.81446: L2-Pf-HR :0.94402: L2-HR :0.82101: (Sim:1h38m46s) 
CPU  0 inst:  107000005 cyc:  130094753 now IPC :1.03264: AVG IPC :0.81325: L2-Pf-HR :0.94367: L2-HR :0.82005: (Sim:1h38m57s) 
CPU  2 inst:  107000005 cyc:  130307919 now IPC :0.97645: AVG IPC :0.81191: L2-Pf-HR :0.94457: L2-HR :0.82100: (Sim:1h39m9s) 
CPU  1 inst:  108000005 cyc:  130832500 now IPC :1.07489: AVG IPC :0.81633: L2-Pf-HR :0.94417: L2-HR :0.82105: (Sim:1h39m38s) 
CPU  3 inst:  109000001 cyc:  130929959 now IPC :0.96990: AVG IPC :0.82341: L2-Pf-HR :0.94431: L2-HR :0.82097: (Sim:1h39m43s) 
CPU  0 inst:  108000005 cyc:  131083902 now IPC :1.01097: AVG IPC :0.81475: L2-Pf-HR :0.94374: L2-HR :0.82007: (Sim:1h39m49s) 
CPU  2 inst:  108000005 cyc:  131347951 now IPC :0.96151: AVG IPC :0.81310: L2-Pf-HR :0.94463: L2-HR :0.82097: (Sim:1h40m3s) 
CPU  1 inst:  109000001 cyc:  131822594 now IPC :1.01000: AVG IPC :0.81779: L2-Pf-HR :0.94442: L2-HR :0.82116: (Sim:1h40m29s) 
CPU  3 inst:  110000001 cyc:  132054473 now IPC :0.88927: AVG IPC :0.82398: L2-Pf-HR :0.94414: L2-HR :0.82109: (Sim:1h40m40s) 
CPU  0 inst:  109000001 cyc:  132069145 now IPC :1.01497: AVG IPC :0.81626: L2-Pf-HR :0.94389: L2-HR :0.82014: (Sim:1h40m41s) 
CPU  2 inst:  109000001 cyc:  132389081 now IPC :0.96049: AVG IPC :0.81427: L2-Pf-HR :0.94474: L2-HR :0.82102: (Sim:1h40m56s) 
CPU  1 inst:  110000002 cyc:  132988767 now IPC :0.85751: AVG IPC :0.81814: L2-Pf-HR :0.94427: L2-HR :0.82131: (Sim:1h41m24s) 
CPU  3 inst:  111000001 cyc:  133195604 now IPC :0.87632: AVG IPC :0.82443: L2-Pf-HR :0.94418: L2-HR :0.82133: (Sim:1h41m35s) 
CPU  0 inst:  110000003 cyc:  133262590 now IPC :0.83791: AVG IPC :0.81645: L2-Pf-HR :0.94376: L2-HR :0.82029: (Sim:1h41m38s) 
CPU  2 inst:  110000003 cyc:  133588701 now IPC :0.83360: AVG IPC :0.81445: L2-Pf-HR :0.94460: L2-HR :0.82115: (Sim:1h41m54s) 
CPU  1 inst:  111000001 cyc:  134103728 now IPC :0.89689: AVG IPC :0.81880: L2-Pf-HR :0.94431: L2-HR :0.82153: (Sim:1h42m19s) 
CPU  3 inst:  112000002 cyc:  134272321 now IPC :0.92875: AVG IPC :0.82527: L2-Pf-HR :0.94425: L2-HR :0.82164: (Sim:1h42m27s) 
CPU  0 inst:  111000001 cyc:  134362938 now IPC :0.90880: AVG IPC :0.81721: L2-Pf-HR :0.94381: L2-HR :0.82055: (Sim:1h42m32s) 
CPU  2 inst:  111000000 cyc:  134714228 now IPC :0.88847: AVG IPC :0.81507: L2-Pf-HR :0.94466: L2-HR :0.82142: (Sim:1h42m49s) 
CPU  1 inst:  112000002 cyc:  135254063 now IPC :0.86931: AVG IPC :0.81924: L2-Pf-HR :0.94435: L2-HR :0.82176: (Sim:1h43m14s) 
CPU  3 inst:  113000004 cyc:  135434914 now IPC :0.86015: AVG IPC :0.82557: L2-Pf-HR :0.94443: L2-HR :0.82201: (Sim:1h43m23s) 
CPU  0 inst:  112000002 cyc:  135481711 now IPC :0.89384: AVG IPC :0.81785: L2-Pf-HR :0.94388: L2-HR :0.82086: (Sim:1h43m25s) 
CPU  2 inst:  112000002 cyc:  135938300 now IPC :0.81695: AVG IPC :0.81509: L2-Pf-HR :0.94473: L2-HR :0.82172: (Sim:1h43m45s) 
CPU  1 inst:  113000004 cyc:  136537354 now IPC :0.77925: AVG IPC :0.81886: L2-Pf-HR :0.94443: L2-HR :0.82201: (Sim:1h44m12s) 
CPU  0 inst:  113000004 cyc:  136675915 now IPC :0.83738: AVG IPC :0.81802: L2-Pf-HR :0.94403: L2-HR :0.82122: (Sim:1h44m18s) 
CPU  3 inst:  114000003 cyc:  136986467 now IPC :0.64451: AVG IPC :0.82351: L2-Pf-HR :0.94403: L2-HR :0.82158: (Sim:1h44m29s) 
CPU  2 inst:  113000004 cyc:  137270519 now IPC :0.75063: AVG IPC :0.81446: L2-Pf-HR :0.94485: L2-HR :0.82205: (Sim:1h44m43s) 
CPU  1 inst:  114000003 cyc:  138157033 now IPC :0.61741: AVG IPC :0.81648: L2-Pf-HR :0.94401: L2-HR :0.82162: (Sim:1h45m22s) 
CPU  0 inst:  114000003 cyc:  138247222 now IPC :0.63641: AVG IPC :0.81594: L2-Pf-HR :0.94358: L2-HR :0.82081: (Sim:1h45m26s) 
CPU  3 inst:  115000000 cyc:  138311865 now IPC :0.75449: AVG IPC :0.82284: L2-Pf-HR :0.94402: L2-HR :0.82146: (Sim:1h45m29s) 
CPU  2 inst:  114000003 cyc:  138571557 now IPC :0.76862: AVG IPC :0.81402: L2-Pf-HR :0.94449: L2-HR :0.82166: (Sim:1h45m42s) 
CPU  3 inst:  116000004 cyc:  139474728 now IPC :0.85995: AVG IPC :0.82315: L2-Pf-HR :0.94404: L2-HR :0.82138: (Sim:1h46m25s) 
CPU  1 inst:  115000000 cyc:  139489878 now IPC :0.75027: AVG IPC :0.81584: L2-Pf-HR :0.94400: L2-HR :0.82152: (Sim:1h46m26s) 
CPU  0 inst:  115000000 cyc:  139559961 now IPC :0.76176: AVG IPC :0.81543: L2-Pf-HR :0.94359: L2-HR :0.82073: (Sim:1h46m29s) 
CPU  2 inst:  115000000 cyc:  139707341 now IPC :0.88045: AVG IPC :0.81457: L2-Pf-HR :0.94448: L2-HR :0.82155: (Sim:1h46m36s) 
CPU  3 inst:  117000002 cyc:  140602424 now IPC :0.88676: AVG IPC :0.82367: L2-Pf-HR :0.94403: L2-HR :0.82128: (Sim:1h47m19s) 
CPU  1 inst:  116000004 cyc:  140764098 now IPC :0.78480: AVG IPC :0.81556: L2-Pf-HR :0.94401: L2-HR :0.82145: (Sim:1h47m27s) 
CPU  0 inst:  116000004 cyc:  140933377 now IPC :0.72811: AVG IPC :0.81457: L2-Pf-HR :0.94363: L2-HR :0.82069: (Sim:1h47m35s) 
CPU  2 inst:  116000004 cyc:  140971608 now IPC :0.79098: AVG IPC :0.81435: L2-Pf-HR :0.94446: L2-HR :0.82146: (Sim:1h47m37s) 
CPU  3 inst:  118000000 cyc:  141867741 now IPC :0.79031: AVG IPC :0.82337: L2-Pf-HR :0.94407: L2-HR :0.82121: (Sim:1h48m17s) 
CPU  1 inst:  117000000 cyc:  141900880 now IPC :0.87967: AVG IPC :0.81608: L2-Pf-HR :0.94400: L2-HR :0.82137: (Sim:1h48m19s) 
CPU  0 inst:  117000005 cyc:  142370243 now IPC :0.69596: AVG IPC :0.81337: L2-Pf-HR :0.94363: L2-HR :0.82059: (Sim:1h48m40s) 
CPU  2 inst:  117000005 cyc:  142444613 now IPC :0.67888: AVG IPC :0.81294: L2-Pf-HR :0.94446: L2-HR :0.82138: (Sim:1h48m43s) 
CPU  1 inst:  118000000 cyc:  143085125 now IPC :0.84442: AVG IPC :0.81631: L2-Pf-HR :0.94403: L2-HR :0.82132: (Sim:1h49m12s) 
CPU  3 inst:  119000005 cyc:  143232791 now IPC :0.73258: AVG IPC :0.82249: L2-Pf-HR :0.94410: L2-HR :0.82113: (Sim:1h49m19s) 
CPU  0 inst:  118000000 cyc:  143676489 now IPC :0.76555: AVG IPC :0.81293: L2-Pf-HR :0.94362: L2-HR :0.82052: (Sim:1h49m39s) 
CPU  2 inst:  118000000 cyc:  143804430 now IPC :0.73539: AVG IPC :0.81221: L2-Pf-HR :0.94446: L2-HR :0.82129: (Sim:1h49m45s) 
CPU  1 inst:  119000005 cyc:  144361778 now IPC :0.78330: AVG IPC :0.81602: L2-Pf-HR :0.94404: L2-HR :0.82124: (Sim:1h50m12s) 
CPU  3 inst:  120000005 cyc:  144601378 now IPC :0.73068: AVG IPC :0.82162: L2-Pf-HR :0.94394: L2-HR :0.82098: (Sim:1h50m23s) 
CPU  0 inst:  119000005 cyc:  144940886 now IPC :0.79089: AVG IPC :0.81274: L2-Pf-HR :0.94365: L2-HR :0.82043: (Sim:1h50m38s) 
CPU  2 inst:  119000005 cyc:  145033037 now IPC :0.81393: AVG IPC :0.81222: L2-Pf-HR :0.94445: L2-HR :0.82120: (Sim:1h50m43s) 
CPU  1 inst:  120000005 cyc:  145704528 now IPC :0.74474: AVG IPC :0.81536: L2-Pf-HR :0.94388: L2-HR :0.82109: (Sim:1h51m13s) 
CPU  3 inst:  121000005 cyc:  145873580 now IPC :0.78604: AVG IPC :0.82131: L2-Pf-HR :0.94399: L2-HR :0.82095: (Sim:1h51m20s) 
CPU  0 inst:  120000005 cyc:  146259088 now IPC :0.75861: AVG IPC :0.81225: L2-Pf-HR :0.94349: L2-HR :0.82029: (Sim:1h51m39s) 
CPU  2 inst:  120000005 cyc:  146440868 now IPC :0.71031: AVG IPC :0.81123: L2-Pf-HR :0.94428: L2-HR :0.82105: (Sim:1h51m48s) 
CPU  1 inst:  121000002 cyc:  146920062 now IPC :0.82268: AVG IPC :0.81542: L2-Pf-HR :0.94393: L2-HR :0.82107: (Sim:1h52m11s) 
CPU  3 inst:  122000004 cyc:  147060308 now IPC :0.84265: AVG IPC :0.82148: L2-Pf-HR :0.94405: L2-HR :0.82092: (Sim:1h52m19s) 
CPU  0 inst:  121000002 cyc:  147239154 now IPC :1.02034: AVG IPC :0.81364: L2-Pf-HR :0.94355: L2-HR :0.82028: (Sim:1h52m27s) 
CPU  2 inst:  121000005 cyc:  147667738 now IPC :0.81508: AVG IPC :0.81127: L2-Pf-HR :0.94434: L2-HR :0.82106: (Sim:1h52m49s) 
CPU  1 inst:  122000002 cyc:  148104369 now IPC :0.84438: AVG IPC :0.81565: L2-Pf-HR :0.94400: L2-HR :0.82104: (Sim:1h53m11s) 
CPU  0 inst:  122000005 cyc:  148207802 now IPC :1.03237: AVG IPC :0.81508: L2-Pf-HR :0.94363: L2-HR :0.82027: (Sim:1h53m15s) 
CPU  3 inst:  123000002 cyc:  148335816 now IPC :0.78400: AVG IPC :0.82116: L2-Pf-HR :0.94412: L2-HR :0.82091: (Sim:1h53m21s) 
CPU  2 inst:  122000002 cyc:  148814788 now IPC :0.87180: AVG IPC :0.81174: L2-Pf-HR :0.94441: L2-HR :0.82106: (Sim:1h53m45s) 
CPU  1 inst:  123000002 cyc:  149367931 now IPC :0.79141: AVG IPC :0.81544: L2-Pf-HR :0.94408: L2-HR :0.82104: (Sim:1h54m13s) 
CPU  0 inst:  123000002 cyc:  149387209 now IPC :0.84788: AVG IPC :0.81534: L2-Pf-HR :0.94372: L2-HR :0.82027: (Sim:1h54m14s) 
CPU  3 inst:  124000003 cyc:  149450958 now IPC :0.89675: AVG IPC :0.82172: L2-Pf-HR :0.94422: L2-HR :0.82092: (Sim:1h54m16s) 
CPU  2 inst:  123000002 cyc:  149818362 now IPC :0.99644: AVG IPC :0.81298: L2-Pf-HR :0.94448: L2-HR :0.82104: (Sim:1h54m35s) 
CPU  3 inst:  125000003 cyc:  150463621 now IPC :0.98750: AVG IPC :0.82285: L2-Pf-HR :0.94430: L2-HR :0.82091: (Sim:1h55m9s) 
CPU  1 inst:  124000003 cyc:  150494309 now IPC :0.88780: AVG IPC :0.81599: L2-Pf-HR :0.94418: L2-HR :0.82104: (Sim:1h55m10s) 
CPU  0 inst:  124000003 cyc:  150511740 now IPC :0.88926: AVG IPC :0.81590: L2-Pf-HR :0.94381: L2-HR :0.82028: (Sim:1h55m11s) 
CPU  2 inst:  124000003 cyc:  150774324 now IPC :1.04607: AVG IPC :0.81447: L2-Pf-HR :0.94457: L2-HR :0.82106: (Sim:1h55m24s) 
CPU  3 inst:  126000005 cyc:  151594892 now IPC :0.88396: AVG IPC :0.82331: L2-Pf-HR :0.94420: L2-HR :0.82101: (Sim:1h56m5s) 
CPU  1 inst:  125000003 cyc:  151623581 now IPC :0.88553: AVG IPC :0.81651: L2-Pf-HR :0.94426: L2-HR :0.82103: (Sim:1h56m7s) 
CPU  0 inst:  125000003 cyc:  151675673 now IPC :0.85916: AVG IPC :0.81623: L2-Pf-HR :0.94389: L2-HR :0.82027: (Sim:1h56m9s) 
CPU  2 inst:  125000003 cyc:  151795747 now IPC :0.97903: AVG IPC :0.81558: L2-Pf-HR :0.94464: L2-HR :0.82105: (Sim:1h56m14s) 
CPU  3 inst:  127000002 cyc:  152820380 now IPC :0.81600: AVG IPC :0.82325: L2-Pf-HR :0.94423: L2-HR :0.82124: (Sim:1h57m1s) 
CPU  1 inst:  126000005 cyc:  152905889 now IPC :0.77985: AVG IPC :0.81620: L2-Pf-HR :0.94417: L2-HR :0.82115: (Sim:1h57m6s) 
CPU  0 inst:  126000005 cyc:  153000094 now IPC :0.75505: AVG IPC :0.81570: L2-Pf-HR :0.94378: L2-HR :0.82021: (Sim:1h57m11s) 
CPU  2 inst:  126000005 cyc:  153051031 now IPC :0.79663: AVG IPC :0.81543: L2-Pf-HR :0.94453: L2-HR :0.82100: (Sim:1h57m13s) 
CPU  3 inst:  128000000 cyc:  153864266 now IPC :0.95796: AVG IPC :0.82417: L2-Pf-HR :0.94431: L2-HR :0.82152: (Sim:1h57m56s) 
CPU  1 inst:  127000002 cyc:  153952291 now IPC :0.95565: AVG IPC :0.81716: L2-Pf-HR :0.94422: L2-HR :0.82141: (Sim:1h58m0s) 
CPU  0 inst:  127000002 cyc:  154031209 now IPC :0.96982: AVG IPC :0.81674: L2-Pf-HR :0.94381: L2-HR :0.82023: (Sim:1h58m4s) 
CPU  2 inst:  127000002 cyc:  154101978 now IPC :0.95152: AVG IPC :0.81636: L2-Pf-HR :0.94456: L2-HR :0.82101: (Sim:1h58m8s) 
CPU  3 inst:  129000004 cyc:  154886271 now IPC :0.97847: AVG IPC :0.82519: L2-Pf-HR :0.94442: L2-HR :0.82179: (Sim:1h58m48s) 
CPU  1 inst:  128000000 cyc:  155034958 now IPC :0.92364: AVG IPC :0.81790: L2-Pf-HR :0.94427: L2-HR :0.82166: (Sim:1h58m56s) 
CPU  0 inst:  128000000 cyc:  155110629 now IPC :0.92642: AVG IPC :0.81750: L2-Pf-HR :0.94387: L2-HR :0.82024: (Sim:1h58m59s) 
CPU  2 inst:  128000000 cyc:  155169938 now IPC :0.93636: AVG IPC :0.81719: L2-Pf-HR :0.94464: L2-HR :0.82106: (Sim:1h59m1s) 
CPU  1 inst:  129000004 cyc:  156426610 now IPC :0.71857: AVG IPC :0.81701: L2-Pf-HR :0.94443: L2-HR :0.82196: (Sim:1h59m46s) 
CPU  0 inst:  129000004 cyc:  156751666 now IPC :0.60937: AVG IPC :0.81531: L2-Pf-HR :0.94402: L2-HR :0.82033: (Sim:1h59m53s) 
CPU  2 inst:  129000004 cyc:  156896424 now IPC :0.57921: AVG IPC :0.81456: L2-Pf-HR :0.94469: L2-HR :0.82105: (Sim:1h59m56s) 
CPU  3 inst:  130000002 cyc:  167784418 now IPC :0.07753: AVG IPC :0.76738: L2-Pf-HR :0.93416: L2-HR :0.81058: (Sim:2h5m6s) 
CPU  1 inst:  130000005 cyc:  173770871 now IPC :0.05766: AVG IPC :0.74079: L2-Pf-HR :0.93444: L2-HR :0.81072: (Sim:2h7m3s) 
CPU  0 inst:  130000002 cyc:  175169106 now IPC :0.05430: AVG IPC :0.73485: L2-Pf-HR :0.93404: L2-HR :0.80908: (Sim:2h7m29s) 
CPU  2 inst:  130000002 cyc:  175515343 now IPC :0.05371: AVG IPC :0.73339: L2-Pf-HR :0.93483: L2-HR :0.80980: (Sim:2h7m35s) 
CPU  3 inst:  131000001 cyc:  189472381 now IPC :0.04611: AVG IPC :0.68439: L2-Pf-HR :0.92163: L2-HR :0.79768: (Sim:2h13m50s) 
CPU  1 inst:  131000003 cyc:  195496968 now IPC :0.04603: AVG IPC :0.66319: L2-Pf-HR :0.92185: L2-HR :0.79783: (Sim:2h16m30s) 
CPU  0 inst:  131000001 cyc:  196958854 now IPC :0.04589: AVG IPC :0.65824: L2-Pf-HR :0.92150: L2-HR :0.79624: (Sim:2h17m15s) 
CPU  2 inst:  131000001 cyc:  197365901 now IPC :0.04577: AVG IPC :0.65688: L2-Pf-HR :0.92240: L2-HR :0.79695: (Sim:2h17m27s) 
CPU  3 inst:  132000003 cyc:  211327131 now IPC :0.04576: AVG IPC :0.61803: L2-Pf-HR :0.90954: L2-HR :0.78595: (Sim:2h24m37s) 
CPU  1 inst:  132000000 cyc:  217416073 now IPC :0.04562: AVG IPC :0.60065: L2-Pf-HR :0.90971: L2-HR :0.78610: (Sim:2h28m0s) 
CPU  0 inst:  132000000 cyc:  218674822 now IPC :0.04605: AVG IPC :0.59717: L2-Pf-HR :0.90928: L2-HR :0.78457: (Sim:2h28m41s) 
CPU  2 inst:  132000000 cyc:  219154722 now IPC :0.04590: AVG IPC :0.59586: L2-Pf-HR :0.91011: L2-HR :0.78528: (Sim:2h28m57s) 
CPU  3 inst:  133000002 cyc:  233145152 now IPC :0.04583: AVG IPC :0.56426: L2-Pf-HR :0.89779: L2-HR :0.77522: (Sim:2h36m38s) 
CPU  1 inst:  133000002 cyc:  239084964 now IPC :0.04615: AVG IPC :0.55018: L2-Pf-HR :0.89805: L2-HR :0.77537: (Sim:2h39m3s) 
CPU  0 inst:  133000001 cyc:  240610838 now IPC :0.04559: AVG IPC :0.54668: L2-Pf-HR :0.89762: L2-HR :0.77389: (Sim:2h39m39s) 
CPU  2 inst:  133000002 cyc:  241064343 now IPC :0.04564: AVG IPC :0.54565: L2-Pf-HR :0.89852: L2-HR :0.77459: (Sim:2h39m49s) 
CPU  3 inst:  134000000 cyc:  254826095 now IPC :0.04612: AVG IPC :0.52000: L2-Pf-HR :0.88675: L2-HR :0.76563: (Sim:2h46m17s) 
CPU  1 inst:  134000000 cyc:  259529719 now IPC :0.04891: AVG IPC :0.51054: L2-Pf-HR :0.88700: L2-HR :0.76577: (Sim:2h48m34s) 
CPU  0 inst:  134000000 cyc:  260427313 now IPC :0.05046: AVG IPC :0.50878: L2-Pf-HR :0.88667: L2-HR :0.76433: (Sim:2h48m52s) 
CPU  2 inst:  134000000 cyc:  260472118 now IPC :0.05153: AVG IPC :0.50869: L2-Pf-HR :0.88727: L2-HR :0.76504: (Sim:2h48m53s) 
CPU  3 inst:  135000000 cyc:  260990822 now IPC :0.16221: AVG IPC :0.51152: L2-Pf-HR :0.88450: L2-HR :0.76389: (Sim:2h49m8s) 
CPU  1 inst:  135000000 cyc:  263892949 now IPC :0.22919: AVG IPC :0.50587: L2-Pf-HR :0.88479: L2-HR :0.76403: (Sim:2h50m34s) 
CPU  0 inst:  135000000 cyc:  264580689 now IPC :0.24077: AVG IPC :0.50456: L2-Pf-HR :0.88448: L2-HR :0.76259: (Sim:2h50m54s) 
CPU  2 inst:  135000000 cyc:  264603228 now IPC :0.24207: AVG IPC :0.50451: L2-Pf-HR :0.88506: L2-HR :0.76331: (Sim:2h50m55s) 
CPU  3 inst:  136000002 cyc:  265098432 now IPC :0.24345: AVG IPC :0.50735: L2-Pf-HR :0.88232: L2-HR :0.76215: (Sim:2h51m10s) 
CPU  1 inst:  136000002 cyc:  267982388 now IPC :0.24453: AVG IPC :0.50187: L2-Pf-HR :0.88261: L2-HR :0.76230: (Sim:2h52m35s) 
CPU  0 inst:  136000002 cyc:  268659948 now IPC :0.24514: AVG IPC :0.50060: L2-Pf-HR :0.88230: L2-HR :0.76087: (Sim:2h52m55s) 
CPU  2 inst:  136000002 cyc:  268686133 now IPC :0.24492: AVG IPC :0.50056: L2-Pf-HR :0.88289: L2-HR :0.76158: (Sim:2h52m56s) 
CPU  3 inst:  137000000 cyc:  269179754 now IPC :0.24502: AVG IPC :0.50336: L2-Pf-HR :0.88016: L2-HR :0.76044: (Sim:2h53m11s) 
CPU  1 inst:  137000000 cyc:  271997589 now IPC :0.24905: AVG IPC :0.49813: L2-Pf-HR :0.88046: L2-HR :0.76060: (Sim:2h54m37s) 
CPU  0 inst:  137000000 cyc:  272658753 now IPC :0.25007: AVG IPC :0.49692: L2-Pf-HR :0.88014: L2-HR :0.75917: (Sim:2h54m57s) 
CPU  2 inst:  137000000 cyc:  272685426 now IPC :0.25004: AVG IPC :0.49687: L2-Pf-HR :0.88074: L2-HR :0.75989: (Sim:2h54m58s) 
CPU  3 inst:  138000000 cyc:  273162061 now IPC :0.25111: AVG IPC :0.49967: L2-Pf-HR :0.87803: L2-HR :0.75876: (Sim:2h55m12s) 
CPU  1 inst:  138000000 cyc:  275907508 now IPC :0.25576: AVG IPC :0.49468: L2-Pf-HR :0.87833: L2-HR :0.75893: (Sim:2h56m36s) 
CPU  0 inst:  138000000 cyc:  276565036 now IPC :0.25600: AVG IPC :0.49350: L2-Pf-HR :0.87801: L2-HR :0.75751: (Sim:2h56m56s) 
CPU  2 inst:  138000000 cyc:  276601233 now IPC :0.25538: AVG IPC :0.49344: L2-Pf-HR :0.87861: L2-HR :0.75822: (Sim:2h56m57s) 
CPU  3 inst:  139000000 cyc:  277065605 now IPC :0.25618: AVG IPC :0.49623: L2-Pf-HR :0.87591: L2-HR :0.75710: (Sim:2h57m12s) 
CPU  1 inst:  139000000 cyc:  279814771 now IPC :0.25593: AVG IPC :0.49133: L2-Pf-HR :0.87621: L2-HR :0.75728: (Sim:2h58m16s) 
CPU  0 inst:  139000000 cyc:  280455758 now IPC :0.25702: AVG IPC :0.49021: L2-Pf-HR :0.87589: L2-HR :0.75587: (Sim:2h58m35s) 
CPU  2 inst:  139000000 cyc:  280487099 now IPC :0.25734: AVG IPC :0.49015: L2-Pf-HR :0.87650: L2-HR :0.75657: (Sim:2h58m36s) 
CPU  3 inst:  140000002 cyc:  280956680 now IPC :0.25700: AVG IPC :0.49290: L2-Pf-HR :0.87381: L2-HR :0.75547: (Sim:2h58m50s) 
CPU  1 inst:  140000002 cyc:  283697079 now IPC :0.25758: AVG IPC :0.48812: L2-Pf-HR :0.87411: L2-HR :0.75564: (Sim:3h0m11s) 
CPU  0 inst:  140000002 cyc:  284337906 now IPC :0.25759: AVG IPC :0.48702: L2-Pf-HR :0.87379: L2-HR :0.75424: (Sim:3h0m30s) 
CPU  2 inst:  140000002 cyc:  284388060 now IPC :0.25635: AVG IPC :0.48694: L2-Pf-HR :0.87439: L2-HR :0.75494: (Sim:3h0m31s) 
CPU  3 inst:  141000004 cyc:  284847388 now IPC :0.25702: AVG IPC :0.48967: L2-Pf-HR :0.87172: L2-HR :0.75385: (Sim:3h0m45s) 
CPU  1 inst:  141000004 cyc:  287624348 now IPC :0.25463: AVG IPC :0.48492: L2-Pf-HR :0.87201: L2-HR :0.75401: (Sim:3h2m6s) 
CPU  0 inst:  141000004 cyc:  288271800 now IPC :0.25420: AVG IPC :0.48383: L2-Pf-HR :0.87169: L2-HR :0.75262: (Sim:3h2m25s) 
CPU  2 inst:  141000004 cyc:  288311667 now IPC :0.25487: AVG IPC :0.48377: L2-Pf-HR :0.87230: L2-HR :0.75331: (Sim:3h2m26s) 
CPU  3 inst:  142000004 cyc:  288785242 now IPC :0.25395: AVG IPC :0.48644: L2-Pf-HR :0.86963: L2-HR :0.75223: (Sim:3h2m40s) 
CPU  1 inst:  142000004 cyc:  291518006 now IPC :0.25683: AVG IPC :0.48187: L2-Pf-HR :0.86994: L2-HR :0.75241: (Sim:3h4m0s) 
CPU  0 inst:  142000004 cyc:  292157953 now IPC :0.25732: AVG IPC :0.48081: L2-Pf-HR :0.86961: L2-HR :0.75103: (Sim:3h4m19s) 
CPU  2 inst:  142000004 cyc:  292202466 now IPC :0.25702: AVG IPC :0.48074: L2-Pf-HR :0.87022: L2-HR :0.75171: (Sim:3h4m21s) 
CPU  3 inst:  143000000 cyc:  292668892 now IPC :0.25749: AVG IPC :0.48340: L2-Pf-HR :0.86757: L2-HR :0.75064: (Sim:3h4m34s) 
CPU  1 inst:  143000000 cyc:  295431777 now IPC :0.25551: AVG IPC :0.47886: L2-Pf-HR :0.86788: L2-HR :0.75082: (Sim:3h5m55s) 
CPU  0 inst:  143000000 cyc:  296070563 now IPC :0.25558: AVG IPC :0.47782: L2-Pf-HR :0.86754: L2-HR :0.74943: (Sim:3h6m14s) 
CPU  2 inst:  143000000 cyc:  296109930 now IPC :0.25592: AVG IPC :0.47776: L2-Pf-HR :0.86815: L2-HR :0.75011: (Sim:3h6m15s) 
CPU  3 inst:  144000003 cyc:  296576749 now IPC :0.25590: AVG IPC :0.48039: L2-Pf-HR :0.86551: L2-HR :0.74906: (Sim:3h6m29s) 
CPU  1 inst:  144000003 cyc:  299324374 now IPC :0.25690: AVG IPC :0.47596: L2-Pf-HR :0.86582: L2-HR :0.74924: (Sim:3h7m49s) 
CPU  0 inst:  144000003 cyc:  299958259 now IPC :0.25722: AVG IPC :0.47496: L2-Pf-HR :0.86549: L2-HR :0.74786: (Sim:3h8m8s) 
CPU  2 inst:  144000003 cyc:  299993813 now IPC :0.25748: AVG IPC :0.47490: L2-Pf-HR :0.86610: L2-HR :0.74854: (Sim:3h8m9s) 
CPU  3 inst:  145000002 cyc:  300455988 now IPC :0.25778: AVG IPC :0.47750: L2-Pf-HR :0.86349: L2-HR :0.74750: (Sim:3h8m22s) 
CPU  1 inst:  145000002 cyc:  303184844 now IPC :0.25904: AVG IPC :0.47319: L2-Pf-HR :0.86381: L2-HR :0.74769: (Sim:3h9m42s) 
CPU  0 inst:  145000002 cyc:  303843849 now IPC :0.25736: AVG IPC :0.47216: L2-Pf-HR :0.86347: L2-HR :0.74631: (Sim:3h10m1s) 
CPU  2 inst:  145000002 cyc:  303879277 now IPC :0.25737: AVG IPC :0.47211: L2-Pf-HR :0.86409: L2-HR :0.74699: (Sim:3h10m2s) 
CPU  3 inst:  146000000 cyc:  304354648 now IPC :0.25650: AVG IPC :0.47466: L2-Pf-HR :0.86148: L2-HR :0.74596: (Sim:3h10m16s) 
CPU  1 inst:  146000000 cyc:  307107772 now IPC :0.25491: AVG IPC :0.47039: L2-Pf-HR :0.86179: L2-HR :0.74614: (Sim:3h11m36s) 
CPU  0 inst:  146000000 cyc:  307753221 now IPC :0.25580: AVG IPC :0.46941: L2-Pf-HR :0.86144: L2-HR :0.74477: (Sim:3h11m55s) 
CPU  2 inst:  146000000 cyc:  307776938 now IPC :0.25656: AVG IPC :0.46937: L2-Pf-HR :0.86206: L2-HR :0.74544: (Sim:3h11m55s) 
CPU  3 inst:  147000000 cyc:  308243191 now IPC :0.25717: AVG IPC :0.47191: L2-Pf-HR :0.85947: L2-HR :0.74443: (Sim:3h12m9s) 
CPU  1 inst:  147000000 cyc:  310982797 now IPC :0.25806: AVG IPC :0.46774: L2-Pf-HR :0.85979: L2-HR :0.74461: (Sim:3h13m29s) 
CPU  0 inst:  147000000 cyc:  311643926 now IPC :0.25702: AVG IPC :0.46675: L2-Pf-HR :0.85943: L2-HR :0.74323: (Sim:3h13m48s) 
CPU  2 inst:  147000000 cyc:  311668472 now IPC :0.25697: AVG IPC :0.46671: L2-Pf-HR :0.86006: L2-HR :0.74391: (Sim:3h13m48s) 
CPU  3 inst:  148000003 cyc:  312136549 now IPC :0.25685: AVG IPC :0.46922: L2-Pf-HR :0.85748: L2-HR :0.74291: (Sim:3h14m2s) 
CPU  1 inst:  148000003 cyc:  314887853 now IPC :0.25608: AVG IPC :0.46511: L2-Pf-HR :0.85779: L2-HR :0.74308: (Sim:3h14m54s) 
CPU  0 inst:  148000003 cyc:  315544657 now IPC :0.25636: AVG IPC :0.46414: L2-Pf-HR :0.85743: L2-HR :0.74171: (Sim:3h15m5s) 
CPU  2 inst:  148000003 cyc:  315556292 now IPC :0.25721: AVG IPC :0.46412: L2-Pf-HR :0.85807: L2-HR :0.74239: (Sim:3h15m5s) 
CPU  3 inst:  149000002 cyc:  316055496 now IPC :0.25517: AVG IPC :0.46656: L2-Pf-HR :0.85550: L2-HR :0.74140: (Sim:3h15m13s) 
CPU  1 inst:  149000002 cyc:  318802918 now IPC :0.25542: AVG IPC :0.46252: L2-Pf-HR :0.85581: L2-HR :0.74157: (Sim:3h16m23s) 
CPU  0 inst:  149000002 cyc:  319467446 now IPC :0.25492: AVG IPC :0.46156: L2-Pf-HR :0.85543: L2-HR :0.74020: (Sim:3h16m38s) 
CPU  2 inst:  149000002 cyc:  319490145 now IPC :0.25420: AVG IPC :0.46153: L2-Pf-HR :0.85608: L2-HR :0.74088: (Sim:3h16m38s) 
CPU  3 inst:  150000000 cyc:  319966675 now IPC :0.25568: AVG IPC :0.46397: L2-Pf-HR :0.85352: L2-HR :0.73990: (Sim:3h16m46s) 
CPU  1 inst:  150000000 cyc:  322702074 now IPC :0.25647: AVG IPC :0.46003: L2-Pf-HR :0.85383: L2-HR :0.74008: (Sim:3h17m31s) 
CPU  0 inst:  150000000 cyc:  323360771 now IPC :0.25685: AVG IPC :0.45909: L2-Pf-HR :0.85346: L2-HR :0.73871: (Sim:3h17m42s) 
CPU  2 inst:  150000000 cyc:  323363301 now IPC :0.25819: AVG IPC :0.45909: L2-Pf-HR :0.85411: L2-HR :0.73939: (Sim:3h17m42s) 
CPU  3 inst:  151000000 cyc:  323831137 now IPC :0.25877: AVG IPC :0.46152: L2-Pf-HR :0.85158: L2-HR :0.73843: (Sim:3h17m49s) 
CPU  1 inst:  151000000 cyc:  326602447 now IPC :0.25639: AVG IPC :0.45759: L2-Pf-HR :0.85188: L2-HR :0.73859: (Sim:3h18m35s) 
CPU  0 inst:  151000000 cyc:  327306888 now IPC :0.25341: AVG IPC :0.45660: L2-Pf-HR :0.85149: L2-HR :0.73723: (Sim:3h18m46s) 
CPU  2 inst:  151000000 cyc:  327327972 now IPC :0.25223: AVG IPC :0.45657: L2-Pf-HR :0.85215: L2-HR :0.73791: (Sim:3h18m47s) 
CPU  3 inst:  152000002 cyc:  327779205 now IPC :0.25329: AVG IPC :0.45900: L2-Pf-HR :0.84963: L2-HR :0.73695: (Sim:3h18m54s) 
CPU  1 inst:  152000002 cyc:  330548459 now IPC :0.25342: AVG IPC :0.45514: L2-Pf-HR :0.84993: L2-HR :0.73712: (Sim:3h19m39s) 
CPU  0 inst:  152000002 cyc:  331225897 now IPC :0.25517: AVG IPC :0.45421: L2-Pf-HR :0.84954: L2-HR :0.73576: (Sim:3h19m50s) 
CPU  2 inst:  152000002 cyc:  331231938 now IPC :0.25615: AVG IPC :0.45420: L2-Pf-HR :0.85022: L2-HR :0.73645: (Sim:3h19m50s) 
CPU  3 inst:  153000002 cyc:  331700804 now IPC :0.25500: AVG IPC :0.45658: L2-Pf-HR :0.84771: L2-HR :0.73550: (Sim:3h19m57s) 
CPU  1 inst:  153000002 cyc:  334415624 now IPC :0.25859: AVG IPC :0.45286: L2-Pf-HR :0.84802: L2-HR :0.73567: (Sim:3h20m42s) 
CPU  0 inst:  153000002 cyc:  335102346 now IPC :0.25797: AVG IPC :0.45193: L2-Pf-HR :0.84762: L2-HR :0.73431: (Sim:3h20m53s) 
CPU  2 inst:  153000002 cyc:  335110319 now IPC :0.25784: AVG IPC :0.45192: L2-Pf-HR :0.84830: L2-HR :0.73500: (Sim:3h20m53s) 
CPU  3 inst:  154000000 cyc:  335577352 now IPC :0.25796: AVG IPC :0.45428: L2-Pf-HR :0.84579: L2-HR :0.73405: (Sim:3h21m1s) 
CPU  1 inst:  154000000 cyc:  338326397 now IPC :0.25570: AVG IPC :0.45058: L2-Pf-HR :0.84610: L2-HR :0.73423: (Sim:3h21m46s) 
CPU  0 inst:  154000000 cyc:  339004314 now IPC :0.25628: AVG IPC :0.44968: L2-Pf-HR :0.84570: L2-HR :0.73287: (Sim:3h21m57s) 
CPU  2 inst:  154000000 cyc:  339009490 now IPC :0.25646: AVG IPC :0.44967: L2-Pf-HR :0.84638: L2-HR :0.73356: (Sim:3h21m57s) 
CPU  3 inst:  155000000 cyc:  339474606 now IPC :0.25659: AVG IPC :0.45200: L2-Pf-HR :0.84389: L2-HR :0.73262: (Sim:3h22m4s) 
CPU  1 inst:  155000000 cyc:  342204117 now IPC :0.25788: AVG IPC :0.44839: L2-Pf-HR :0.84420: L2-HR :0.73280: (Sim:3h22m49s) 
CPU  0 inst:  155000000 cyc:  342894330 now IPC :0.25707: AVG IPC :0.44748: L2-Pf-HR :0.84379: L2-HR :0.73145: (Sim:3h23m0s) 
CPU  2 inst:  155000000 cyc:  342918528 now IPC :0.25582: AVG IPC :0.44745: L2-Pf-HR :0.84448: L2-HR :0.73213: (Sim:3h23m1s) 
[...]
Core_1_L1D_prefetch_hit 1853905
Core_1_L1D_prefetch_miss 5546303
Core_1_L1D_writebacks 0
Core_1_L1D_writeback_hit 0
Core_1_L1D_writeback_miss 0

Core_1_L1I_total_access 48080237
Core_1_L1I_total_hit 48075314
Core_1_L1I_total_miss 4923
Core_1_L1I_loads 48080237
Core_1_L1I_load_hit 48075314
Core_1_L1I_load_miss 4923
Core_1_L1I_RFOs 0
Core_1_L1I_RFO_hit 0
Core_1_L1I_RFO_miss 0
Core_1_L1I_prefetches 0
Core_1_L1I_prefetch_hit 0
Core_1_L1I_prefetch_miss 0
Core_1_L1I_writebacks 0
Core_1_L1I_writeback_hit 0
Core_1_L1I_writeback_miss 0

Core_1_L2C_total_access 19143187
Core_1_L2C_total_hit 15952150
Core_1_L2C_total_miss 3191037
Core_1_L2C_loads 5727038
Core_1_L2C_load_hit 4609073
Core_1_L2C_load_miss 1117965
Core_1_L2C_RFOs 550567
Core_1_L2C_RFO_hit 42579
Core_1_L2C_RFO_miss 507988
Core_1_L2C_prefetches 10926984
Core_1_L2C_prefetch_hit 9362771
Core_1_L2C_prefetch_miss 1564213
Core_1_L2C_writebacks 1938598
Core_1_L2C_writeback_hit 1937727
Core_1_L2C_writeback_miss 871

CPU 1 L1D berti prefetcher final stats
CPU 1 L2C berti prefetcher final stats
Core_1_LLC_total_access 5008351
Core_1_LLC_total_hit 2125213
Core_1_LLC_total_miss 2883138
Core_1_LLC_loads 893008
Core_1_LLC_load_hit 154925
Core_1_LLC_load_miss 738083
Core_1_LLC_RFOs 507987
Core_1_LLC_RFO_hit 77
Core_1_LLC_RFO_miss 507910
Core_1_LLC_prefetches 1789165
Core_1_LLC_prefetch_hit 183061
Core_1_LLC_prefetch_miss 1606104
Core_1_LLC_writebacks 1818191
Core_1_LLC_writeback_hit 1787150
Core_1_LLC_writeback_miss 31041


CPU 2 cumulative IPC: 0.55060 instructions: 326272174 cycles: 592575826
Core_2_L1D_total_access 98538320
Core_2_L1D_total_hit 85597500
Core_2_L1D_total_miss 12940820
Core_2_L1D_loads 82756589
Core_2_L1D_load_hit 75894516
Core_2_L1D_load_miss 6862073
Core_2_L1D_RFOs 8408229
Core_2_L1D_RFO_hit 7858473
Core_2_L1D_RFO_miss 549756
Core_2_L1D_prefetches 7373502
Core_2_L1D_prefetch_hit 1844511
Core_2_L1D_prefetch_miss 5528991
Core_2_L1D_writebacks 0
Core_2_L1D_writeback_hit 0
Core_2_L1D_writeback_miss 0

Core_2_L1I_total_access 48001833
Core_2_L1I_total_hit 47996912
Core_2_L1I_total_miss 4921
Core_2_L1I_loads 48001833
Core_2_L1I_load_hit 47996912
Core_2_L1I_load_miss 4921
Core_2_L1I_RFOs 0
Core_2_L1I_RFO_hit 0
Core_2_L1I_RFO_miss 0
Core_2_L1I_prefetches 0
Core_2_L1I_prefetch_hit 0
Core_2_L1I_prefetch_miss 0
Core_2_L1I_writebacks 0
Core_2_L1I_writeback_hit 0
Core_2_L1I_writeback_miss 0

Core_2_L2C_total_access 19077675
Core_2_L2C_total_hit 15887681
Core_2_L2C_total_miss 3189994
Core_2_L2C_loads 5700414
Core_2_L2C_load_hit 4577988
Core_2_L2C_load_miss 1122426
Core_2_L2C_RFOs 549752
Core_2_L2C_RFO_hit 41785
Core_2_L2C_RFO_miss 507967
Core_2_L2C_prefetches 10889636
Core_2_L2C_prefetch_hit 9330902
Core_2_L2C_prefetch_miss 1558734
Core_2_L2C_writebacks 1937873
Core_2_L2C_writeback_hit 1937006
Core_2_L2C_writeback_miss 867

CPU 2 L1D berti prefetcher final stats
CPU 2 L2C berti prefetcher final stats
Core_2_LLC_total_access 5011767
Core_2_LLC_total_hit 2126936
Core_2_LLC_total_miss 2884831
Core_2_LLC_loads 897626
Core_2_LLC_load_hit 160755
Core_2_LLC_load_miss 736871
Core_2_LLC_RFOs 507967
Core_2_LLC_RFO_hit 125
Core_2_LLC_RFO_miss 507842
Core_2_LLC_prefetches 1783528
Core_2_LLC_prefetch_hit 175530
Core_2_LLC_prefetch_miss 1607998
Core_2_LLC_writebacks 1822646
Core_2_LLC_writeback_hit 1790526
Core_2_LLC_writeback_miss 32120


CPU 3 cumulative IPC: 0.56348 instructions: 333905023 cycles: 592575827
Core_3_L1D_total_access 100537545
Core_3_L1D_total_hit 87304395
Core_3_L1D_total_miss 13233150
Core_3_L1D_loads 84508558
Core_3_L1D_load_hit 77487741
Core_3_L1D_load_miss 7020817
Core_3_L1D_RFOs 8470468
Core_3_L1D_RFO_hit 7918973
Core_3_L1D_RFO_miss 551495
Core_3_L1D_prefetches 7558519
Core_3_L1D_prefetch_hit 1897681
Core_3_L1D_prefetch_miss 5660838
Core_3_L1D_writebacks 0
Core_3_L1D_writeback_hit 0
Core_3_L1D_writeback_miss 0

Core_3_L1I_total_access 48797361
Core_3_L1I_total_hit 48786828
Core_3_L1I_total_miss 10533
Core_3_L1I_loads 48797361
Core_3_L1I_load_hit 48786828
Core_3_L1I_load_miss 10533
Core_3_L1I_RFOs 0
Core_3_L1I_RFO_hit 0
Core_3_L1I_RFO_miss 0
Core_3_L1I_prefetches 0
Core_3_L1I_prefetch_hit 0
Core_3_L1I_prefetch_miss 0
Core_3_L1I_writebacks 0
Core_3_L1I_writeback_hit 0
Core_3_L1I_writeback_miss 0

Core_3_L2C_total_access 19490850
Core_3_L2C_total_hit 16247012
Core_3_L2C_total_miss 3243838
Core_3_L2C_loads 5835985
Core_3_L2C_load_hit 4686971
Core_3_L2C_load_miss 1149014
Core_3_L2C_RFOs 551485
Core_3_L2C_RFO_hit 43484
Core_3_L2C_RFO_miss 508001
Core_3_L2C_prefetches 11133551
Core_3_L2C_prefetch_hit 9547676
Core_3_L2C_prefetch_miss 1585875
Core_3_L2C_writebacks 1969829
Core_3_L2C_writeback_hit 1968881
Core_3_L2C_writeback_miss 948

CPU 3 L1D berti prefetcher final stats
CPU 3 L2C berti prefetcher final stats
Core_3_LLC_total_access 5079897
Core_3_LLC_total_hit 2204739
Core_3_LLC_total_miss 2875158
Core_3_LLC_loads 923905
Core_3_LLC_load_hit 195055
Core_3_LLC_load_miss 728850
Core_3_LLC_RFOs 507999
Core_3_LLC_RFO_hit 157
Core_3_LLC_RFO_miss 507842
Core_3_LLC_prefetches 1810985
Core_3_LLC_prefetch_hit 219113
Core_3_LLC_prefetch_miss 1591872
Core_3_LLC_writebacks 1837008
Core_3_LLC_writeback_hit 1790414
Core_3_LLC_writeback_miss 46594


[ROI Statistics]
Core_0_instructions 326000005
Core_0_cycles 592575826
Core_0_IPC 0.55014

Core_0_branch_prediction_accuracy 99.57883
Core_0_branch_MPKI 0.12289
Core_0_average_ROB_occupancy_at_mispredict 562.53769

Core_0_L1D_total_access 98447309
Core_0_L1D_total_hit 85524386 L1D_total_Hit Ratio: 0.86873
Core_0_L1D_total_miss 12922923
Core_0_L1D_loads 82676995
Core_0_L1D_load_hit 75819567 L1D_load_Hit Ratio: 0.91706
Core_0_L1D_load_miss 6857428
Core_0_L1D_RFOs 8408080
Core_0_L1D_RFO_hit 7858219 L1D_RFO_Hit Ratio: 0.93460
Core_0_L1D_RFO_miss 549861
Core_0_L1D_prefetches 7362234
Core_0_L1D_prefetch_hit 1846600 L1D_prefetch_Hit Ratio: 0.25082
Core_0_L1D_prefetch_miss 5515634
Core_0_L1D_writebacks 0
Core_0_L1D_writeback_hit 0 L1D_writeback_Hit Ratio: -nan
Core_0_L1D_writeback_miss 0
Core_0_L1D_prefetch_requested 12569315
Core_0_L1D_prefetch_issued 11476101
Core_0_L1D_prefetch_useful 5381699 L1D_Useful Ratio: 0.46895
Core_0_L1D_prefetch_useless 160635
Core_0_L1D_prefetch_late 1166415
Core_0_L1D_average_miss_latency 42403230.79651

Core_0_L1I_total_access 47985537
Core_0_L1I_total_hit 47980614 L1I_total_Hit Ratio: 0.99990
Core_0_L1I_total_miss 4923
Core_0_L1I_loads 47985537
Core_0_L1I_load_hit 47980614 L1I_load_Hit Ratio: 0.99990
Core_0_L1I_load_miss 4923
Core_0_L1I_RFOs 0
Core_0_L1I_RFO_hit 0 L1I_RFO_Hit Ratio: -nan
Core_0_L1I_RFO_miss 0
Core_0_L1I_prefetches 0
Core_0_L1I_prefetch_hit 0 L1I_prefetch_Hit Ratio: -nan
Core_0_L1I_prefetch_miss 0
Core_0_L1I_writebacks 0
Core_0_L1I_writeback_hit 0 L1I_writeback_Hit Ratio: -nan
Core_0_L1I_writeback_miss 0
Core_0_L1I_prefetch_requested 0
Core_0_L1I_prefetch_issued 0
Core_0_L1I_prefetch_useful 0 L1I_Useful Ratio: -nan
Core_0_L1I_prefetch_useless 0
Core_0_L1I_prefetch_late 0
Core_0_L1I_average_miss_latency 1051.79078

Core_0_L2C_total_access 19050919
Core_0_L2C_total_hit 15861400 L2C_total_Hit Ratio: 0.83258
Core_0_L2C_total_miss 3189519
Core_0_L2C_loads 5697834
Core_0_L2C_load_hit 4575084 L2C_load_Hit Ratio: 0.80295
Core_0_L2C_load_miss 1122750
Core_0_L2C_RFOs 549855
Core_0_L2C_RFO_hit 41814 L2C_RFO_Hit Ratio: 0.07605
Core_0_L2C_RFO_miss 508041
Core_0_L2C_prefetches 10865654
Core_0_L2C_prefetch_hit 9307722 L2C_prefetch_Hit Ratio: 0.85662
Core_0_L2C_prefetch_miss 1557932
Core_0_L2C_writebacks 1937576
Core_0_L2C_writeback_hit 1936780 L2C_writeback_Hit Ratio: 0.99959
Core_0_L2C_writeback_miss 796
Core_0_L2C_prefetch_requested 6527284
Core_0_L2C_prefetch_issued 5473193
Core_0_L2C_prefetch_useful 336089 L2C_Useful Ratio: 0.06141
Core_0_L2C_prefetch_useless 1222151
Core_0_L2C_prefetch_late 224892
Core_0_L2C_average_miss_latency 898.50609

Core_0_LLC_total_access 5012481
Core_0_LLC_total_hit 2119828 LLC_total_Hit Ratio: 0.42291
Core_0_LLC_total_miss 2892653
Core_0_LLC_loads 898346
Core_0_LLC_load_hit 158737 LLC_load_Hit Ratio: 0.17670
Core_0_LLC_load_miss 739609
Core_0_LLC_RFOs 508041
Core_0_LLC_RFO_hit 166 LLC_RFO_Hit Ratio: 0.00033
Core_0_LLC_RFO_miss 507875
Core_0_LLC_prefetches 1782333
Core_0_LLC_prefetch_hit 176706 LLC_prefetch_Hit Ratio: 0.09914
Core_0_LLC_prefetch_miss 1605627
Core_0_LLC_writebacks 1823761
Core_0_LLC_writeback_hit 1784219 LLC_writeback_Hit Ratio: 0.97832
Core_0_LLC_writeback_miss 39542
Core_0_LLC_prefetch_requested 0
Core_0_LLC_prefetch_issued 0
Core_0_LLC_prefetch_useful 152033 LLC_Useful Ratio: inf
Core_0_LLC_prefetch_useless 6151674
Core_0_LLC_prefetch_late 0
Core_0_LLC_average_miss_latency 3700.35853

Core_0_major_page_fault 0
Core_0_minor_page_fault 19454

Core_1_instructions 326000004
Core_1_cycles 591971390
Core_1_IPC 0.55070

Core_1_branch_prediction_accuracy 99.57879
Core_1_branch_MPKI 0.12261
Core_1_average_ROB_occupancy_at_mispredict 562.33119

Core_1_L1D_total_access 98455680
Core_1_L1D_total_hit 85530769 L1D_total_Hit Ratio: 0.86872
Core_1_L1D_total_miss 12924911
Core_1_L1D_loads 82677869
Core_1_L1D_load_hit 75824625 L1D_load_Hit Ratio: 0.91711
Core_1_L1D_load_miss 6853244
Core_1_L1D_RFOs 8407931
Core_1_L1D_RFO_hit 7857360 L1D_RFO_Hit Ratio: 0.93452
Core_1_L1D_RFO_miss 550571
Core_1_L1D_prefetches 7369880
Core_1_L1D_prefetch_hit 1848784 L1D_prefetch_Hit Ratio: 0.25086
Core_1_L1D_prefetch_miss 5521096
Core_1_L1D_writebacks 0
Core_1_L1D_writeback_hit 0 L1D_writeback_Hit Ratio: -nan
Core_1_L1D_writeback_miss 0
Core_1_L1D_prefetch_requested 12648167
Core_1_L1D_prefetch_issued 11538375
Core_1_L1D_prefetch_useful 5409780 L1D_Useful Ratio: 0.46885
Core_1_L1D_prefetch_useless 163239
Core_1_L1D_prefetch_late 1173425
Core_1_L1D_average_miss_latency 42631693.45438

Core_1_L1I_total_access 47984358
Core_1_L1I_total_hit 47979435 L1I_total_Hit Ratio: 0.99990
Core_1_L1I_total_miss 4923
Core_1_L1I_loads 47984358
Core_1_L1I_load_hit 47979435 L1I_load_Hit Ratio: 0.99990
Core_1_L1I_load_miss 4923
Core_1_L1I_RFOs 0
Core_1_L1I_RFO_hit 0 L1I_RFO_Hit Ratio: -nan
Core_1_L1I_RFO_miss 0
Core_1_L1I_prefetches 0
Core_1_L1I_prefetch_hit 0 L1I_prefetch_Hit Ratio: -nan
Core_1_L1I_prefetch_miss 0
Core_1_L1I_writebacks 0
Core_1_L1I_writeback_hit 0 L1I_writeback_Hit Ratio: -nan
Core_1_L1I_writeback_miss 0
Core_1_L1I_prefetch_requested 0
Core_1_L1I_prefetch_issued 0
Core_1_L1I_prefetch_useful 0 L1I_Useful Ratio: -nan
Core_1_L1I_prefetch_useless 0
Core_1_L1I_prefetch_late 0
Core_1_L1I_average_miss_latency 1172.94820

Core_1_L2C_total_access 19058487
Core_1_L2C_total_hit 15872698 L2C_total_Hit Ratio: 0.83284
Core_1_L2C_total_miss 3185789
Core_1_L2C_loads 5693320
Core_1_L2C_load_hit 4576239 L2C_load_Hit Ratio: 0.80379
Core_1_L2C_load_miss 1117081
Core_1_L2C_RFOs 550562
Core_1_L2C_RFO_hit 42574 L2C_RFO_Hit Ratio: 0.07733
Core_1_L2C_RFO_miss 507988
Core_1_L2C_prefetches 10877026
Core_1_L2C_prefetch_hit 9317177 L2C_prefetch_Hit Ratio: 0.85659
Core_1_L2C_prefetch_miss 1559849
Core_1_L2C_writebacks 1937579
Core_1_L2C_writeback_hit 1936708 L2C_writeback_Hit Ratio: 0.99955
Core_1_L2C_writeback_miss 871
Core_1_L2C_prefetch_requested 6588833
Core_1_L2C_prefetch_issued 5495784
Core_1_L2C_prefetch_useful 336911 L2C_Useful Ratio: 0.06130
Core_1_L2C_prefetch_useless 1227398
Core_1_L2C_prefetch_late 225334
Core_1_L2C_average_miss_latency 899.60386

Core_1_LLC_total_access 5002520
Core_1_LLC_total_hit 2123474 LLC_total_Hit Ratio: 0.42448
Core_1_LLC_total_miss 2879046
Core_1_LLC_loads 892167
Core_1_LLC_load_hit 154577 LLC_load_Hit Ratio: 0.17326
Core_1_LLC_load_miss 737590
Core_1_LLC_RFOs 507987
Core_1_LLC_RFO_hit 77 LLC_RFO_Hit Ratio: 0.00015
Core_1_LLC_RFO_miss 507910
Core_1_LLC_prefetches 1784758
Core_1_LLC_prefetch_hit 182159 LLC_prefetch_Hit Ratio: 0.10206
Core_1_LLC_prefetch_miss 1602599
Core_1_LLC_writebacks 1817608
Core_1_LLC_writeback_hit 1786661 LLC_writeback_Hit Ratio: 0.98297
Core_1_LLC_writeback_miss 30947
Core_1_LLC_prefetch_requested 0
Core_1_LLC_prefetch_issued 0
Core_1_LLC_prefetch_useful 152033 LLC_Useful Ratio: inf
Core_1_LLC_prefetch_useless 6151674
Core_1_LLC_prefetch_late 0
Core_1_LLC_average_miss_latency 3717.84723

Core_1_major_page_fault 0
Core_1_minor_page_fault 19454

Core_2_instructions 326000002
Core_2_cycles 592410552
Core_2_IPC 0.55029

Core_2_branch_prediction_accuracy 99.57881
Core_2_branch_MPKI 0.12281
Core_2_average_ROB_occupancy_at_mispredict 562.42500

Core_2_L1D_total_access 98454720
Core_2_L1D_total_hit 85532129 L1D_total_Hit Ratio: 0.86875
Core_2_L1D_total_miss 12922591
Core_2_L1D_loads 82681682
Core_2_L1D_load_hit 75831161 L1D_load_Hit Ratio: 0.91715
Core_2_L1D_load_miss 6850521
Core_2_L1D_RFOs 8407604
Core_2_L1D_RFO_hit 7857850 L1D_RFO_Hit Ratio: 0.93461
Core_2_L1D_RFO_miss 549754
Core_2_L1D_prefetches 7365434
Core_2_L1D_prefetch_hit 1843118 L1D_prefetch_Hit Ratio: 0.25024
Core_2_L1D_prefetch_miss 5522316
Core_2_L1D_writebacks 0
Core_2_L1D_writeback_hit 0 L1D_writeback_Hit Ratio: -nan
Core_2_L1D_writeback_miss 0
Core_2_L1D_prefetch_requested 12587499
Core_2_L1D_prefetch_issued 11494844
Core_2_L1D_prefetch_useful 5394471 L1D_Useful Ratio: 0.46929
Core_2_L1D_prefetch_useless 161083
Core_2_L1D_prefetch_late 1168506
Core_2_L1D_average_miss_latency 42511698.66230

Core_2_L1I_total_access 47975149
Core_2_L1I_total_hit 47970228 L1I_total_Hit Ratio: 0.99990
Core_2_L1I_total_miss 4921
Core_2_L1I_loads 47975149
Core_2_L1I_load_hit 47970228 L1I_load_Hit Ratio: 0.99990
Core_2_L1I_load_miss 4921
Core_2_L1I_RFOs 0
Core_2_L1I_RFO_hit 0 L1I_RFO_Hit Ratio: -nan
Core_2_L1I_RFO_miss 0
Core_2_L1I_prefetches 0
Core_2_L1I_prefetch_hit 0 L1I_prefetch_Hit Ratio: -nan
Core_2_L1I_prefetch_miss 0
Core_2_L1I_writebacks 0
Core_2_L1I_writeback_hit 0 L1I_writeback_Hit Ratio: -nan
Core_2_L1I_writeback_miss 0
Core_2_L1I_prefetch_requested 0
Core_2_L1I_prefetch_issued 0
Core_2_L1I_prefetch_useful 0 L1I_Useful Ratio: -nan
Core_2_L1I_prefetch_useless 0
Core_2_L1I_prefetch_late 0
Core_2_L1I_average_miss_latency 1060.86304

Core_2_L2C_total_access 19054065
Core_2_L2C_total_hit 15866052 L2C_total_Hit Ratio: 0.83269
Core_2_L2C_total_miss 3188013
Core_2_L2C_loads 5690676
Core_2_L2C_load_hit 4568568 L2C_load_Hit Ratio: 0.80282
Core_2_L2C_load_miss 1122108
Core_2_L2C_RFOs 549750
Core_2_L2C_RFO_hit 41783 L2C_RFO_Hit Ratio: 0.07600
Core_2_L2C_RFO_miss 507967
Core_2_L2C_prefetches 10876056
Core_2_L2C_prefetch_hit 9318985 L2C_prefetch_Hit Ratio: 0.85683
Core_2_L2C_prefetch_miss 1557071
Core_2_L2C_writebacks 1937583
Core_2_L2C_writeback_hit 1936716 L2C_writeback_Hit Ratio: 0.99955
Core_2_L2C_writeback_miss 867
Core_2_L2C_prefetch_requested 6554639
Core_2_L2C_prefetch_issued 5480098
Core_2_L2C_prefetch_useful 334713 L2C_Useful Ratio: 0.06108
Core_2_L2C_prefetch_useless 1223925
Core_2_L2C_prefetch_late 225236
Core_2_L2C_average_miss_latency 896.30464

Core_2_LLC_total_access 5009623
Core_2_LLC_total_hit 2126435 LLC_total_Hit Ratio: 0.42447
Core_2_LLC_total_miss 2883188
Core_2_LLC_loads 897327
Core_2_LLC_load_hit 160665 LLC_load_Hit Ratio: 0.17905
Core_2_LLC_load_miss 736662
Core_2_LLC_RFOs 507967
Core_2_LLC_RFO_hit 125 LLC_RFO_Hit Ratio: 0.00025
Core_2_LLC_RFO_miss 507842
Core_2_LLC_prefetches 1781846
Core_2_LLC_prefetch_hit 175244 LLC_prefetch_Hit Ratio: 0.09835
Core_2_LLC_prefetch_miss 1606602
Core_2_LLC_writebacks 1822483
Core_2_LLC_writeback_hit 1790401 LLC_writeback_Hit Ratio: 0.98240
Core_2_LLC_writeback_miss 32082
Core_2_LLC_prefetch_requested 0
Core_2_LLC_prefetch_issued 0
Core_2_LLC_prefetch_useful 152033 LLC_Useful Ratio: inf
Core_2_LLC_prefetch_useless 6151674
Core_2_LLC_prefetch_late 0
Core_2_LLC_average_miss_latency 3712.50616

Core_2_major_page_fault 0
Core_2_minor_page_fault 19454

Core_3_instructions 326000004
Core_3_cycles 586226238
Core_3_IPC 0.55610

Core_3_branch_prediction_accuracy 99.57290
Core_3_branch_MPKI 0.12280
Core_3_average_ROB_occupancy_at_mispredict 552.71240

Core_3_L1D_total_access 98492747
Core_3_L1D_total_hit 85569219 L1D_total_Hit Ratio: 0.86879
Core_3_L1D_total_miss 12923528
Core_3_L1D_loads 82708185
Core_3_L1D_load_hit 75858326 L1D_load_Hit Ratio: 0.91718
Core_3_L1D_load_miss 6849859
Core_3_L1D_RFOs 8408130
Core_3_L1D_RFO_hit 7857779 L1D_RFO_Hit Ratio: 0.93455
Core_3_L1D_RFO_miss 550351
Core_3_L1D_prefetches 7376432
Core_3_L1D_prefetch_hit 1853114 L1D_prefetch_Hit Ratio: 0.25122
Core_3_L1D_prefetch_miss 5523318
Core_3_L1D_writebacks 0
Core_3_L1D_writeback_hit 0 L1D_writeback_Hit Ratio: -nan
Core_3_L1D_writeback_miss 0
Core_3_L1D_prefetch_requested 12889168
Core_3_L1D_prefetch_issued 11782153
Core_3_L1D_prefetch_useful 5522792 L1D_Useful Ratio: 0.46874
Core_3_L1D_prefetch_useless 164645
Core_3_L1D_prefetch_late 1197288
Core_3_L1D_average_miss_latency 43297834.99178

Core_3_L1I_total_access 47973786
Core_3_L1I_total_hit 47968859 L1I_total_Hit Ratio: 0.99990
Core_3_L1I_total_miss 4927
Core_3_L1I_loads 47973786
Core_3_L1I_load_hit 47968859 L1I_load_Hit Ratio: 0.99990
Core_3_L1I_load_miss 4927
Core_3_L1I_RFOs 0
Core_3_L1I_RFO_hit 0 L1I_RFO_Hit Ratio: -nan
Core_3_L1I_RFO_miss 0
Core_3_L1I_prefetches 0
Core_3_L1I_prefetch_hit 0 L1I_prefetch_Hit Ratio: -nan
Core_3_L1I_prefetch_miss 0
Core_3_L1I_writebacks 0
Core_3_L1I_writeback_hit 0 L1I_writeback_Hit Ratio: -nan
Core_3_L1I_writeback_miss 0
Core_3_L1I_prefetch_requested 0
Core_3_L1I_prefetch_issued 0
Core_3_L1I_prefetch_useful 0 L1I_Useful Ratio: -nan
Core_3_L1I_prefetch_useless 0
Core_3_L1I_prefetch_late 0
Core_3_L1I_average_miss_latency 1378.10696

Core_3_L2C_total_access 19033972
Core_3_L2C_total_hit 15847662 L2C_total_Hit Ratio: 0.83260
Core_3_L2C_total_miss 3186310
Core_3_L2C_loads 5685103
Core_3_L2C_load_hit 4569542 L2C_load_Hit Ratio: 0.80377
Core_3_L2C_load_miss 1115561
Core_3_L2C_RFOs 550343
Core_3_L2C_RFO_hit 42416 L2C_RFO_Hit Ratio: 0.07707
Core_3_L2C_RFO_miss 507927
Core_3_L2C_prefetches 10860947
Core_3_L2C_prefetch_hit 9298991 L2C_prefetch_Hit Ratio: 0.85619
Core_3_L2C_prefetch_miss 1561956
Core_3_L2C_writebacks 1937579
Core_3_L2C_writeback_hit 1936713 L2C_writeback_Hit Ratio: 0.99955
Core_3_L2C_writeback_miss 866
Core_3_L2C_prefetch_requested 6702130
Core_3_L2C_prefetch_issued 5595118
Core_3_L2C_prefetch_useful 341393 L2C_Useful Ratio: 0.06102
Core_3_L2C_prefetch_useless 1250261
Core_3_L2C_prefetch_late 225482
Core_3_L2C_average_miss_latency 883.70017

Core_3_LLC_total_access 5003268
Core_3_LLC_total_hit 2176209 LLC_total_Hit Ratio: 0.43496
Core_3_LLC_total_miss 2827059
Core_3_LLC_loads 891871
Core_3_LLC_load_hit 187566 LLC_load_Hit Ratio: 0.21031
Core_3_LLC_load_miss 704305
Core_3_LLC_RFOs 507925
Core_3_LLC_RFO_hit 144 LLC_RFO_Hit Ratio: 0.00028
Core_3_LLC_RFO_miss 507781
Core_3_LLC_prefetches 1785647
Core_3_LLC_prefetch_hit 214202 LLC_prefetch_Hit Ratio: 0.11996
Core_3_LLC_prefetch_miss 1571445
Core_3_LLC_writebacks 1817825
Core_3_LLC_writeback_hit 1774297 LLC_writeback_Hit Ratio: 0.97605
Core_3_LLC_writeback_miss 43528
Core_3_LLC_prefetch_requested 0
Core_3_LLC_prefetch_issued 0
Core_3_LLC_prefetch_useful 152033 LLC_Useful Ratio: inf
Core_3_LLC_prefetch_useless 6151674
Core_3_LLC_prefetch_late 0
Core_3_LLC_average_miss_latency 3786.21500

Core_3_major_page_fault 0
Core_3_minor_page_fault 19528

CPU 0 L1D berti prefetcher final stats
CPU 0 L2C berti prefetcher final stats
CPU 1 L1D berti prefetcher final stats
CPU 1 L2C berti prefetcher final stats
CPU 2 L1D berti prefetcher final stats
CPU 2 L2C berti prefetcher final stats
CPU 3 L1D berti prefetcher final stats
CPU 3 L2C berti prefetcher final stats
Channel_0_RQ_row_buffer_hit 4412540
Channel_0_RQ_row_buffer_miss 6973438
Channel_0_WQ_row_buffer_hit 2408720
Channel_0_WQ_row_buffer_miss 4139192
Channel_0_WQ_full 6778
Channel_0_dbus_congested 11411711

avg_congested_cycle 10

EzSearch AVG IPC :0.55014: L2-Pf-HR :0.85662 : L2-HR :0.83258 Uful:0.06141
EzSearch AVG IPC :0.55070: L2-Pf-HR :0.85659 : L2-HR :0.83331 Uful:0.06130
EzSearch AVG IPC :0.55029: L2-Pf-HR :0.85683 : L2-HR :0.83279 Uful:0.06108
EzSearch AVG IPC :0.55610: L2-Pf-HR :0.85619 : L2-HR :0.83357 Uful:0.06102
     > Finished combination: TraceType=770-tot Sim:326000000 Prefetcher=L2berti_concurso L1=berti_concurso
