TRACE: [167000000][OPT-350M]_[h16][s512][d64] Warmup: 2000000 NumTraces: 167000000
L1:next_line:L2:029-SecTOP-L2-MultiMarkovDelta_ip_stride_v4-IPStrS256
*************************************************
   ChampSim Multicore Out-of-Order Simulator
   Last compiled: Oct 29 2024 15:26:52
*************************************************

trace_0 770-tot_memTraces_v3_rexz/memTraces[167000000][OPT-350M]_[h16][s512][d64].champsim.9.xz
trace_1 770-tot_memTraces_v3_rexz/memTraces[167000000][OPT-350M]_[h16][s512][d64].champsim.9.xz
trace_2 770-tot_memTraces_v3_rexz/memTraces[167000000][OPT-350M]_[h16][s512][d64].champsim.9.xz
trace_3 770-tot_memTraces_v3_rexz/memTraces[167000000][OPT-350M]_[h16][s512][d64].champsim.9.xz
CPU 0 L1D next line prefetcher
MK1: Size: 128 TMAX: 64 TMIN: 32 MKPTHRESH: 40
MK2: Size: 256 TMAX: 32 TMIN: 16 MK2PTHRESH: 30
MK3: Size: 384 TMAX: 16 TMIN: 8 MK3PTHRESH: 25
MK4: Size: 512 TMAX: 8 TMIN: 0 MK4PTHRESH: 20
Stride Size: 256 Prefetch Degree: 15

CPU 0 L2C prefetcher
CPU 1 L1D next line prefetcher
MK1: Size: 128 TMAX: 64 TMIN: 32 MKPTHRESH: 40
MK2: Size: 256 TMAX: 32 TMIN: 16 MK2PTHRESH: 30
MK3: Size: 384 TMAX: 16 TMIN: 8 MK3PTHRESH: 25
MK4: Size: 512 TMAX: 8 TMIN: 0 MK4PTHRESH: 20
Stride Size: 256 Prefetch Degree: 15

CPU 1 L2C prefetcher
CPU 2 L1D next line prefetcher
MK1: Size: 128 TMAX: 64 TMIN: 32 MKPTHRESH: 40
MK2: Size: 256 TMAX: 32 TMIN: 16 MK2PTHRESH: 30
MK3: Size: 384 TMAX: 16 TMIN: 8 MK3PTHRESH: 25
MK4: Size: 512 TMAX: 8 TMIN: 0 MK4PTHRESH: 20
Stride Size: 256 Prefetch Degree: 15

CPU 2 L2C prefetcher
CPU 3 L1D next line prefetcher
MK1: Size: 128 TMAX: 64 TMIN: 32 MKPTHRESH: 40
MK2: Size: 256 TMAX: 32 TMIN: 16 MK2PTHRESH: 30
MK3: Size: 384 TMAX: 16 TMIN: 8 MK3PTHRESH: 25
MK4: Size: 512 TMAX: 8 TMIN: 0 MK4PTHRESH: 20
Stride Size: 256 Prefetch Degree: 15

CPU 3 L2C prefetcher
MAIN.cc ln 751 stats print skipped
CPU 0 L2C prefetcher initialized


Cache Size: 1280
number of cache lines: 20480
CPU  1 inst:    1000000 cyc:     502607 now IPC :1.98963: AVG IPC :1.98963: L2-Pf-HR :0.79490: L2-HR :0.77411: (Sim:0h0m41s) 
CPU  3 inst:    1000000 cyc:     502800 now IPC :1.98886: AVG IPC :1.98886: L2-Pf-HR :0.76340: L2-HR :0.74995: (Sim:0h0m41s) 
CPU  2 inst:    1000000 cyc:     502805 now IPC :1.98884: AVG IPC :1.98884: L2-Pf-HR :0.75677: L2-HR :0.74340: (Sim:0h0m41s) 
CPU  0 inst:    1000000 cyc:     502876 now IPC :1.98856: AVG IPC :1.98856: L2-Pf-HR :0.77297: L2-HR :0.75144: (Sim:0h0m41s) 
CPU  1 inst:    2000002 cyc:     985506 now IPC :2.07083: AVG IPC :2.02942: L2-Pf-HR :0.83594: L2-HR :0.82179: (Sim:0h1m26s) 
CPU  3 inst:    2000002 cyc:     985786 now IPC :2.07046: AVG IPC :2.02884: L2-Pf-HR :0.84560: L2-HR :0.83515: (Sim:0h1m26s) 
CPU  2 inst:    2000002 cyc:     985882 now IPC :2.07007: AVG IPC :2.02864: L2-Pf-HR :0.83188: L2-HR :0.82206: (Sim:0h1m26s) 
CPU  0 inst:    2000002 cyc:     985919 now IPC :2.07021: AVG IPC :2.02857: L2-Pf-HR :0.84515: L2-HR :0.82958: (Sim:0h1m26s) 

Warmup complete CPU  0 instructions:    2000002 cycles:     985919 (Simulation time: 0 hr 1 min 26 sec) 
Warmup complete CPU  1 instructions:    2000913 cycles:     985918 (Simulation time: 0 hr 1 min 26 sec) 
Warmup complete CPU  2 instructions:    2000109 cycles:     985918 (Simulation time: 0 hr 1 min 26 sec) 
Warmup complete CPU  3 instructions:    2000283 cycles:     985918 (Simulation time: 0 hr 1 min 26 sec) 

CPU  2 inst:    3000003 cyc:    1486676 now IPC :1.99683: AVG IPC :1.99676: L2-Pf-HR :0.89107: L2-HR :0.89333: (Sim:0h2m6s) 
CPU  0 inst:    3000000 cyc:    1490435 now IPC :1.98209: AVG IPC :1.98209: L2-Pf-HR :0.91402: L2-HR :0.91162: (Sim:0h2m6s) 
CPU  3 inst:    3000003 cyc:    1491662 now IPC :1.97677: AVG IPC :1.97673: L2-Pf-HR :0.91621: L2-HR :0.91715: (Sim:0h2m6s) 
CPU  1 inst:    3000003 cyc:    1492304 now IPC :1.97317: AVG IPC :1.97298: L2-Pf-HR :0.86674: L2-HR :0.86409: (Sim:0h2m6s) 
CPU  2 inst:    4000001 cyc:    2013347 now IPC :1.89871: AVG IPC :1.94650: L2-Pf-HR :0.89261: L2-HR :0.89853: (Sim:0h2m45s) 
CPU  3 inst:    4000001 cyc:    2016821 now IPC :1.90418: AVG IPC :1.93977: L2-Pf-HR :0.89945: L2-HR :0.90705: (Sim:0h2m45s) 
CPU  0 inst:    4000001 cyc:    2017156 now IPC :1.89854: AVG IPC :1.93942: L2-Pf-HR :0.89714: L2-HR :0.90298: (Sim:0h2m45s) 
CPU  1 inst:    4000001 cyc:    2017488 now IPC :1.90409: AVG IPC :1.93791: L2-Pf-HR :0.87504: L2-HR :0.87877: (Sim:0h2m45s) 
CPU  2 inst:    5000002 cyc:    2670957 now IPC :1.52066: AVG IPC :1.78031: L2-Pf-HR :0.88422: L2-HR :0.88446: (Sim:0h3m13s) 
CPU  3 inst:    5000002 cyc:    2671243 now IPC :1.52807: AVG IPC :1.77991: L2-Pf-HR :0.89062: L2-HR :0.89455: (Sim:0h3m13s) 
CPU  1 inst:    5000002 cyc:    2671906 now IPC :1.52808: AVG IPC :1.77883: L2-Pf-HR :0.87207: L2-HR :0.87292: (Sim:0h3m13s) 
CPU  0 inst:    5000002 cyc:    2681355 now IPC :1.50557: AVG IPC :1.76946: L2-Pf-HR :0.88751: L2-HR :0.88913: (Sim:0h3m14s) 
CPU  3 inst:    6000000 cyc:    3152043 now IPC :2.07986: AVG IPC :1.84648: L2-Pf-HR :0.89020: L2-HR :0.89393: (Sim:0h3m38s) 
CPU  1 inst:    6000000 cyc:    3157401 now IPC :2.05975: AVG IPC :1.84164: L2-Pf-HR :0.87837: L2-HR :0.88092: (Sim:0h3m38s) 
CPU  2 inst:    6000000 cyc:    3158186 now IPC :2.05242: AVG IPC :1.84134: L2-Pf-HR :0.88186: L2-HR :0.88115: (Sim:0h3m38s) 
CPU  0 inst:    6000000 cyc:    3159145 now IPC :2.09297: AVG IPC :1.84058: L2-Pf-HR :0.88364: L2-HR :0.88422: (Sim:0h3m38s) 
CPU  3 inst:    7000004 cyc:    3625621 now IPC :2.11159: AVG IPC :1.89405: L2-Pf-HR :0.89351: L2-HR :0.89643: (Sim:0h4m7s) 
CPU  1 inst:    7000004 cyc:    3633373 now IPC :2.10097: AVG IPC :1.88826: L2-Pf-HR :0.88754: L2-HR :0.88983: (Sim:0h4m8s) 
CPU  0 inst:    7000004 cyc:    3638303 now IPC :2.08700: AVG IPC :1.88510: L2-Pf-HR :0.88457: L2-HR :0.88353: (Sim:0h4m8s) 
CPU  2 inst:    7000004 cyc:    3639096 now IPC :2.07940: AVG IPC :1.88449: L2-Pf-HR :0.88235: L2-HR :0.87980: (Sim:0h4m8s) 
CPU  3 inst:    8000003 cyc:    4181053 now IPC :1.80040: AVG IPC :1.87777: L2-Pf-HR :0.89184: L2-HR :0.89582: (Sim:0h4m51s) 
CPU  2 inst:    8000003 cyc:    4199982 now IPC :1.78289: AVG IPC :1.86676: L2-Pf-HR :0.88065: L2-HR :0.87987: (Sim:0h4m52s) 
CPU  1 inst:    8000003 cyc:    4200851 now IPC :1.76218: AVG IPC :1.86601: L2-Pf-HR :0.88732: L2-HR :0.89091: (Sim:0h4m53s) 
CPU  0 inst:    8000003 cyc:    4201049 now IPC :1.77700: AVG IPC :1.86618: L2-Pf-HR :0.88455: L2-HR :0.88516: (Sim:0h4m53s) 
CPU  3 inst:    9000000 cyc:    5174073 now IPC :1.00703: AVG IPC :1.67131: L2-Pf-HR :0.89023: L2-HR :0.89444: (Sim:0h5m40s) 
CPU  2 inst:    9000000 cyc:    5305507 now IPC :0.90454: AVG IPC :1.62050: L2-Pf-HR :0.88143: L2-HR :0.88137: (Sim:0h5m49s) 
CPU  0 inst:    9000000 cyc:    5314084 now IPC :0.89844: AVG IPC :1.61731: L2-Pf-HR :0.88434: L2-HR :0.88498: (Sim:0h5m50s) 
CPU  1 inst:    9000000 cyc:    5364673 now IPC :0.85924: AVG IPC :1.59842: L2-Pf-HR :0.88622: L2-HR :0.88968: (Sim:0h5m53s) 
CPU  3 inst:   10000004 cyc:    5867223 now IPC :1.44269: AVG IPC :1.63885: L2-Pf-HR :0.89363: L2-HR :0.89918: (Sim:0h6m28s) 
CPU  2 inst:   10000004 cyc:    5964125 now IPC :1.51834: AVG IPC :1.60698: L2-Pf-HR :0.88560: L2-HR :0.88743: (Sim:0h6m35s) 
CPU  0 inst:   10000004 cyc:    5982609 now IPC :1.49584: AVG IPC :1.60106: L2-Pf-HR :0.88667: L2-HR :0.88838: (Sim:0h6m36s) 
CPU  1 inst:   10000004 cyc:    6079532 now IPC :1.39888: AVG IPC :1.57042: L2-Pf-HR :0.88823: L2-HR :0.89249: (Sim:0h6m43s) 
CPU  3 inst:   11000003 cyc:    6523764 now IPC :1.52313: AVG IPC :1.62513: L2-Pf-HR :0.89758: L2-HR :0.90374: (Sim:0h7m16s) 
CPU  2 inst:   11000003 cyc:    6594499 now IPC :1.58636: AVG IPC :1.60467: L2-Pf-HR :0.89043: L2-HR :0.89317: (Sim:0h7m22s) 
CPU  0 inst:   11000003 cyc:    6595227 now IPC :1.63234: AVG IPC :1.60448: L2-Pf-HR :0.89010: L2-HR :0.89214: (Sim:0h7m22s) 
CPU  1 inst:   11000003 cyc:    6657574 now IPC :1.72998: AVG IPC :1.58668: L2-Pf-HR :0.89244: L2-HR :0.89707: (Sim:0h7m28s) 
CPU  3 inst:   12000001 cyc:    7163188 now IPC :1.56390: AVG IPC :1.61879: L2-Pf-HR :0.89903: L2-HR :0.90524: (Sim:0h7m59s) 
CPU  2 inst:   12000001 cyc:    7330860 now IPC :1.35803: AVG IPC :1.57604: L2-Pf-HR :0.89416: L2-HR :0.89685: (Sim:0h8m11s) 
CPU  0 inst:   12000001 cyc:    7334859 now IPC :1.35202: AVG IPC :1.57507: L2-Pf-HR :0.89248: L2-HR :0.89468: (Sim:0h8m11s) 
CPU  1 inst:   12000001 cyc:    7468652 now IPC :1.23292: AVG IPC :1.54242: L2-Pf-HR :0.89533: L2-HR :0.89997: (Sim:0h8m22s) 
CPU  3 inst:   13000001 cyc:    8409945 now IPC :0.80208: AVG IPC :1.48164: L2-Pf-HR :0.89776: L2-HR :0.90384: (Sim:0h8m58s) 
CPU  0 inst:   13000001 cyc:    8719186 now IPC :0.72237: AVG IPC :1.42243: L2-Pf-HR :0.89120: L2-HR :0.89379: (Sim:0h9m14s) 
CPU  2 inst:   13000001 cyc:    8783573 now IPC :0.68837: AVG IPC :1.41067: L2-Pf-HR :0.89282: L2-HR :0.89583: (Sim:0h9m18s) 
CPU  1 inst:   13000001 cyc:    9074322 now IPC :0.62279: AVG IPC :1.35986: L2-Pf-HR :0.89408: L2-HR :0.89870: (Sim:0h9m35s) 
CPU  3 inst:   14000005 cyc:    9209026 now IPC :1.25144: AVG IPC :1.45927: L2-Pf-HR :0.90008: L2-HR :0.90664: (Sim:0h9m44s) 
CPU  0 inst:   14000005 cyc:    9585831 now IPC :1.15388: AVG IPC :1.39536: L2-Pf-HR :0.89381: L2-HR :0.89719: (Sim:0h10m8s) 
CPU  2 inst:   14000005 cyc:    9593292 now IPC :1.23500: AVG IPC :1.39414: L2-Pf-HR :0.89505: L2-HR :0.89895: (Sim:0h10m8s) 
CPU  1 inst:   14000005 cyc:    9935654 now IPC :1.16100: AVG IPC :1.34072: L2-Pf-HR :0.89584: L2-HR :0.90121: (Sim:0h10m30s) 
CPU  3 inst:   15000004 cyc:   10111370 now IPC :1.10822: AVG IPC :1.42456: L2-Pf-HR :0.90234: L2-HR :0.90921: (Sim:0h10m42s) 
CPU  2 inst:   15000000 cyc:   10312681 now IPC :1.39006: AVG IPC :1.39383: L2-Pf-HR :0.89733: L2-HR :0.90174: (Sim:0h10m57s) 
CPU  0 inst:   15000000 cyc:   10314693 now IPC :1.37199: AVG IPC :1.39354: L2-Pf-HR :0.89607: L2-HR :0.90000: (Sim:0h10m57s) 
CPU  1 inst:   15000000 cyc:   10535834 now IPC :1.66616: AVG IPC :1.36117: L2-Pf-HR :0.89821: L2-HR :0.90397: (Sim:0h11m15s) 
CPU  3 inst:   16000005 cyc:   10771618 now IPC :1.51458: AVG IPC :1.43063: L2-Pf-HR :0.90442: L2-HR :0.91103: (Sim:0h11m29s) 
CPU  2 inst:   16000005 cyc:   11036293 now IPC :1.38196: AVG IPC :1.39297: L2-Pf-HR :0.89998: L2-HR :0.90433: (Sim:0h11m46s) 
CPU  0 inst:   16000005 cyc:   11045699 now IPC :1.36798: AVG IPC :1.39168: L2-Pf-HR :0.89877: L2-HR :0.90256: (Sim:0h11m47s) 
CPU  1 inst:   16000005 cyc:   11390302 now IPC :1.17032: AVG IPC :1.34550: L2-Pf-HR :0.90105: L2-HR :0.90644: (Sim:0h12m8s) 
CPU  3 inst:   17000002 cyc:   12016444 now IPC :0.80332: AVG IPC :1.35984: L2-Pf-HR :0.90265: L2-HR :0.90932: (Sim:0h12m32s) 
CPU  2 inst:   17000002 cyc:   12475476 now IPC :0.69484: AVG IPC :1.30552: L2-Pf-HR :0.89850: L2-HR :0.90305: (Sim:0h12m54s) 
CPU  0 inst:   17000002 cyc:   12477266 now IPC :0.69853: AVG IPC :1.30533: L2-Pf-HR :0.89755: L2-HR :0.90151: (Sim:0h12m54s) 
CPU  3 inst:   18000004 cyc:   12830777 now IPC :1.22800: AVG IPC :1.35077: L2-Pf-HR :0.90437: L2-HR :0.91120: (Sim:0h13m14s) 
CPU  1 inst:   17000002 cyc:   13007603 now IPC :0.61831: AVG IPC :1.24767: L2-Pf-HR :0.90004: L2-HR :0.90525: (Sim:0h13m25s) 
CPU  2 inst:   18000004 cyc:   13288363 now IPC :1.23019: AVG IPC :1.30055: L2-Pf-HR :0.90030: L2-HR :0.90518: (Sim:0h13m43s) 
CPU  0 inst:   18000004 cyc:   13290508 now IPC :1.22965: AVG IPC :1.30033: L2-Pf-HR :0.89926: L2-HR :0.90363: (Sim:0h13m43s) 
CPU  3 inst:   19000003 cyc:   13665903 now IPC :1.19742: AVG IPC :1.34067: L2-Pf-HR :0.90548: L2-HR :0.91258: (Sim:0h14m7s) 
CPU  1 inst:   18000004 cyc:   13868506 now IPC :1.16157: AVG IPC :1.24192: L2-Pf-HR :0.90100: L2-HR :0.90652: (Sim:0h14m20s) 
CPU  0 inst:   19000003 cyc:   14089622 now IPC :1.25138: AVG IPC :1.29734: L2-Pf-HR :0.90042: L2-HR :0.90512: (Sim:0h14m36s) 
CPU  2 inst:   19000003 cyc:   14092611 now IPC :1.24340: AVG IPC :1.29704: L2-Pf-HR :0.90144: L2-HR :0.90664: (Sim:0h14m36s) 
CPU  3 inst:   20000001 cyc:   14464017 now IPC :1.25295: AVG IPC :1.33548: L2-Pf-HR :0.90691: L2-HR :0.91377: (Sim:0h15m2s) 
CPU  1 inst:   19000003 cyc:   14535779 now IPC :1.49864: AVG IPC :1.25456: L2-Pf-HR :0.90197: L2-HR :0.90785: (Sim:0h15m6s) 
CPU  0 inst:   20000001 cyc:   14877081 now IPC :1.26990: AVG IPC :1.29579: L2-Pf-HR :0.90293: L2-HR :0.90736: (Sim:0h15m28s) 
CPU  2 inst:   20000001 cyc:   14880245 now IPC :1.26962: AVG IPC :1.29549: L2-Pf-HR :0.90386: L2-HR :0.90877: (Sim:0h15m28s) 
CPU  1 inst:   20000001 cyc:   15351122 now IPC :1.22648: AVG IPC :1.25296: L2-Pf-HR :0.90473: L2-HR :0.91015: (Sim:0h15m54s) 
CPU  3 inst:   21000005 cyc:   15706676 now IPC :0.80473: AVG IPC :1.29068: L2-Pf-HR :0.90538: L2-HR :0.91223: (Sim:0h16m9s) 
CPU  0 inst:   21000005 cyc:   16239980 now IPC :0.73373: AVG IPC :1.24557: L2-Pf-HR :0.90178: L2-HR :0.90620: (Sim:0h16m34s) 
CPU  2 inst:   21000005 cyc:   16241292 now IPC :0.73473: AVG IPC :1.24546: L2-Pf-HR :0.90265: L2-HR :0.90755: (Sim:0h16m34s) 
CPU  3 inst:   22000000 cyc:   16399590 now IPC :1.44317: AVG IPC :1.29753: L2-Pf-HR :0.90638: L2-HR :0.91340: (Sim:0h16m42s) 
CPU  1 inst:   21000005 cyc:   16981245 now IPC :0.61345: AVG IPC :1.18779: L2-Pf-HR :0.90346: L2-HR :0.90881: (Sim:0h17m17s) 
CPU  0 inst:   22000000 cyc:   17074253 now IPC :1.19864: AVG IPC :1.24314: L2-Pf-HR :0.90235: L2-HR :0.90724: (Sim:0h17m22s) 
CPU  2 inst:   22000000 cyc:   17085464 now IPC :1.18459: AVG IPC :1.24226: L2-Pf-HR :0.90321: L2-HR :0.90843: (Sim:0h17m23s) 
CPU  3 inst:   23000000 cyc:   17200234 now IPC :1.24899: AVG IPC :1.29513: L2-Pf-HR :0.90737: L2-HR :0.91455: (Sim:0h17m31s) 
CPU  1 inst:   22000000 cyc:   17717109 now IPC :1.35894: AVG IPC :1.19532: L2-Pf-HR :0.90376: L2-HR :0.90942: (Sim:0h18m6s) 
CPU  2 inst:   23000000 cyc:   17816557 now IPC :1.36782: AVG IPC :1.24772: L2-Pf-HR :0.90386: L2-HR :0.90921: (Sim:0h18m10s) 
CPU  0 inst:   23000000 cyc:   17818106 now IPC :1.34435: AVG IPC :1.24761: L2-Pf-HR :0.90322: L2-HR :0.90844: (Sim:0h18m10s) 
CPU  3 inst:   24000000 cyc:   18122400 now IPC :1.08440: AVG IPC :1.28379: L2-Pf-HR :0.90910: L2-HR :0.91595: (Sim:0h18m24s) 
CPU  1 inst:   23000000 cyc:   18350025 now IPC :1.57999: AVG IPC :1.20934: L2-Pf-HR :0.90447: L2-HR :0.91039: (Sim:0h18m41s) 
CPU  2 inst:   24000000 cyc:   18601606 now IPC :1.27381: AVG IPC :1.24888: L2-Pf-HR :0.90543: L2-HR :0.91053: (Sim:0h18m56s) 
CPU  0 inst:   24000000 cyc:   18604771 now IPC :1.27119: AVG IPC :1.24866: L2-Pf-HR :0.90522: L2-HR :0.91013: (Sim:0h18m57s) 
CPU  1 inst:   24000000 cyc:   19190559 now IPC :1.18972: AVG IPC :1.20843: L2-Pf-HR :0.90740: L2-HR :0.91273: (Sim:0h19m29s) 
CPU  3 inst:   25000002 cyc:   19372688 now IPC :0.79982: AVG IPC :1.25088: L2-Pf-HR :0.90758: L2-HR :0.91446: (Sim:0h19m37s) 
CPU  0 inst:   25000000 cyc:   19914922 now IPC :0.76327: AVG IPC :1.21507: L2-Pf-HR :0.90409: L2-HR :0.90900: (Sim:0h20m2s) 
CPU  2 inst:   25000000 cyc:   19918782 now IPC :0.75920: AVG IPC :1.21481: L2-Pf-HR :0.90416: L2-HR :0.90927: (Sim:0h20m2s) 
CPU  3 inst:   26000004 cyc:   20084337 now IPC :1.40519: AVG IPC :1.25663: L2-Pf-HR :0.90841: L2-HR :0.91540: (Sim:0h20m11s) 
CPU  1 inst:   25000004 cyc:   20673663 now IPC :0.67426: AVG IPC :1.16819: L2-Pf-HR :0.90607: L2-HR :0.91138: (Sim:0h20m44s) 
CPU  2 inst:   26000004 cyc:   20757061 now IPC :1.19292: AVG IPC :1.21389: L2-Pf-HR :0.90471: L2-HR :0.91009: (Sim:0h20m50s) 
CPU  0 inst:   26000004 cyc:   20761087 now IPC :1.18181: AVG IPC :1.21364: L2-Pf-HR :0.90449: L2-HR :0.90954: (Sim:0h20m50s) 
CPU  3 inst:   27000002 cyc:   20858328 now IPC :1.29200: AVG IPC :1.25801: L2-Pf-HR :0.90904: L2-HR :0.91620: (Sim:0h20m56s) 
CPU  1 inst:   26000004 cyc:   21473136 now IPC :1.25082: AVG IPC :1.17142: L2-Pf-HR :0.90606: L2-HR :0.91173: (Sim:0h21m39s) 
CPU  2 inst:   27000002 cyc:   21482768 now IPC :1.37796: AVG IPC :1.21969: L2-Pf-HR :0.90526: L2-HR :0.91090: (Sim:0h21m40s) 
CPU  0 inst:   27000002 cyc:   21496827 now IPC :1.35917: AVG IPC :1.21886: L2-Pf-HR :0.90473: L2-HR :0.90993: (Sim:0h21m41s) 
CPU  3 inst:   28000000 cyc:   21813607 now IPC :1.04681: AVG IPC :1.24832: L2-Pf-HR :0.91059: L2-HR :0.91740: (Sim:0h22m0s) 
CPU  1 inst:   27000002 cyc:   22086843 now IPC :1.62944: AVG IPC :1.18474: L2-Pf-HR :0.90652: L2-HR :0.91251: (Sim:0h22m15s) 
CPU  0 inst:   28000000 cyc:   22290269 now IPC :1.26033: AVG IPC :1.22041: L2-Pf-HR :0.90635: L2-HR :0.91121: (Sim:0h22m23s) 
CPU  2 inst:   28000000 cyc:   22305384 now IPC :1.21563: AVG IPC :1.21954: L2-Pf-HR :0.90651: L2-HR :0.91184: (Sim:0h22m23s) 
CPU  3 inst:   29000005 cyc:   22821406 now IPC :0.99227: AVG IPC :1.23651: L2-Pf-HR :0.90940: L2-HR :0.91632: (Sim:0h22m43s) 
CPU  1 inst:   28000000 cyc:   22881890 now IPC :1.25778: AVG IPC :1.18739: L2-Pf-HR :0.90919: L2-HR :0.91469: (Sim:0h22m45s) 
CPU  0 inst:   29000005 cyc:   23441171 now IPC :0.86889: AVG IPC :1.20239: L2-Pf-HR :0.90557: L2-HR :0.91051: (Sim:0h23m2s) 
CPU  2 inst:   29000005 cyc:   23465862 now IPC :0.86172: AVG IPC :1.20107: L2-Pf-HR :0.90580: L2-HR :0.91120: (Sim:0h23m3s) 
CPU  3 inst:   30000004 cyc:   23680881 now IPC :1.16350: AVG IPC :1.23374: L2-Pf-HR :0.91014: L2-HR :0.91701: (Sim:0h23m8s) 
CPU  1 inst:   29000004 cyc:   24217620 now IPC :0.74866: AVG IPC :1.16217: L2-Pf-HR :0.90848: L2-HR :0.91396: (Sim:0h23m26s) 
CPU  2 inst:   30000004 cyc:   24445879 now IPC :1.02039: AVG IPC :1.19352: L2-Pf-HR :0.90613: L2-HR :0.91171: (Sim:0h23m35s) 
CPU  3 inst:   31000000 cyc:   24454113 now IPC :1.29327: AVG IPC :1.23570: L2-Pf-HR :0.91114: L2-HR :0.91804: (Sim:0h23m35s) 
CPU  0 inst:   30000004 cyc:   24456954 now IPC :0.98446: AVG IPC :1.19296: L2-Pf-HR :0.90588: L2-HR :0.91099: (Sim:0h23m35s) 
CPU  1 inst:   30000004 cyc:   25182104 now IPC :1.03682: AVG IPC :1.15717: L2-Pf-HR :0.90806: L2-HR :0.91385: (Sim:0h24m8s) 
CPU  0 inst:   31000000 cyc:   25187991 now IPC :1.36791: AVG IPC :1.19824: L2-Pf-HR :0.90616: L2-HR :0.91152: (Sim:0h24m8s) 
CPU  2 inst:   31000000 cyc:   25192400 now IPC :1.33954: AVG IPC :1.19802: L2-Pf-HR :0.90640: L2-HR :0.91224: (Sim:0h24m8s) 
CPU  3 inst:   32000004 cyc:   25470804 now IPC :0.98359: AVG IPC :1.22523: L2-Pf-HR :0.91301: L2-HR :0.91954: (Sim:0h24m26s) 
CPU  1 inst:   31000000 cyc:   25805959 now IPC :1.60293: AVG IPC :1.16837: L2-Pf-HR :0.90810: L2-HR :0.91423: (Sim:0h24m51s) 
CPU  0 inst:   32000004 cyc:   25971015 now IPC :1.27711: AVG IPC :1.20072: L2-Pf-HR :0.90791: L2-HR :0.91301: (Sim:0h25m1s) 
CPU  2 inst:   32000004 cyc:   25996431 now IPC :1.24374: AVG IPC :1.19949: L2-Pf-HR :0.90810: L2-HR :0.91367: (Sim:0h25m3s) 
CPU  3 inst:   33000000 cyc:   26184074 now IPC :1.40199: AVG IPC :1.23024: L2-Pf-HR :0.91243: L2-HR :0.91920: (Sim:0h25m14s) 
CPU  1 inst:   32000004 cyc:   26558599 now IPC :1.32866: AVG IPC :1.17309: L2-Pf-HR :0.91071: L2-HR :0.91635: (Sim:0h25m37s) 
CPU  0 inst:   33000000 cyc:   26758028 now IPC :1.27062: AVG IPC :1.20285: L2-Pf-HR :0.90733: L2-HR :0.91273: (Sim:0h25m46s) 
CPU  2 inst:   33000001 cyc:   26817471 now IPC :1.21796: AVG IPC :1.20008: L2-Pf-HR :0.90742: L2-HR :0.91328: (Sim:0h25m48s) 
CPU  3 inst:   34000000 cyc:   27230527 now IPC :0.95561: AVG IPC :1.21929: L2-Pf-HR :0.91163: L2-HR :0.91847: (Sim:0h26m9s) 
CPU  1 inst:   33000001 cyc:   27471052 now IPC :1.09594: AVG IPC :1.17043: L2-Pf-HR :0.90995: L2-HR :0.91584: (Sim:0h26m19s) 
CPU  3 inst:   35000001 cyc:   27918524 now IPC :1.45350: AVG IPC :1.22527: L2-Pf-HR :0.91216: L2-HR :0.91911: (Sim:0h26m45s) 
CPU  0 inst:   34000000 cyc:   28147786 now IPC :0.71955: AVG IPC :1.17812: L2-Pf-HR :0.90659: L2-HR :0.91214: (Sim:0h26m57s) 
CPU  2 inst:   34000000 cyc:   28152325 now IPC :0.74914: AVG IPC :1.17792: L2-Pf-HR :0.90672: L2-HR :0.91270: (Sim:0h26m58s) 
CPU  3 inst:   36000004 cyc:   28774408 now IPC :1.16839: AVG IPC :1.22352: L2-Pf-HR :0.91327: L2-HR :0.92008: (Sim:0h27m39s) 
CPU  1 inst:   34000000 cyc:   28838412 now IPC :0.73134: AVG IPC :1.14888: L2-Pf-HR :0.90895: L2-HR :0.91497: (Sim:0h27m44s) 
CPU  2 inst:   35000001 cyc:   28858176 now IPC :1.41673: AVG IPC :1.18397: L2-Pf-HR :0.90687: L2-HR :0.91312: (Sim:0h27m45s) 
CPU  0 inst:   35000001 cyc:   28860285 now IPC :1.40351: AVG IPC :1.18388: L2-Pf-HR :0.90668: L2-HR :0.91251: (Sim:0h27m45s) 
CPU  1 inst:   35000001 cyc:   29504800 now IPC :1.50063: AVG IPC :1.15710: L2-Pf-HR :0.90884: L2-HR :0.91519: (Sim:0h28m30s) 
CPU  2 inst:   36000004 cyc:   29507754 now IPC :1.53947: AVG IPC :1.19207: L2-Pf-HR :0.90827: L2-HR :0.91443: (Sim:0h28m31s) 
CPU  0 inst:   36000004 cyc:   29516254 now IPC :1.52447: AVG IPC :1.19171: L2-Pf-HR :0.90818: L2-HR :0.91389: (Sim:0h28m31s) 
CPU  3 inst:   37000005 cyc:   29597035 now IPC :1.21562: AVG IPC :1.22329: L2-Pf-HR :0.91257: L2-HR :0.91957: (Sim:0h28m37s) 
CPU  1 inst:   36000004 cyc:   30168896 now IPC :1.50581: AVG IPC :1.16503: L2-Pf-HR :0.91109: L2-HR :0.91709: (Sim:0h29m11s) 
CPU  2 inst:   37000005 cyc:   30239424 now IPC :1.36674: AVG IPC :1.19643: L2-Pf-HR :0.90786: L2-HR :0.91424: (Sim:0h29m16s) 
CPU  0 inst:   37000005 cyc:   30240780 now IPC :1.38021: AVG IPC :1.19638: L2-Pf-HR :0.90775: L2-HR :0.91369: (Sim:0h29m16s) 
CPU  3 inst:   38000003 cyc:   30876765 now IPC :0.78141: AVG IPC :1.20437: L2-Pf-HR :0.91198: L2-HR :0.91886: (Sim:0h29m46s) 
CPU  1 inst:   37000005 cyc:   30990286 now IPC :1.21745: AVG IPC :1.16647: L2-Pf-HR :0.91075: L2-HR :0.91689: (Sim:0h29m52s) 
CPU  3 inst:   39000004 cyc:   31546608 now IPC :1.49289: AVG IPC :1.21070: L2-Pf-HR :0.91261: L2-HR :0.91954: (Sim:0h30m19s) 
CPU  0 inst:   38000003 cyc:   31823756 now IPC :0.63172: AVG IPC :1.16740: L2-Pf-HR :0.90749: L2-HR :0.91319: (Sim:0h30m35s) 
CPU  2 inst:   38000003 cyc:   31841457 now IPC :0.62421: AVG IPC :1.16672: L2-Pf-HR :0.90740: L2-HR :0.91349: (Sim:0h30m36s) 
CPU  3 inst:   40000002 cyc:   32288111 now IPC :1.34861: AVG IPC :1.21396: L2-Pf-HR :0.91403: L2-HR :0.92081: (Sim:0h31m4s) 
CPU  0 inst:   39000004 cyc:   32509816 now IPC :1.45760: AVG IPC :1.17371: L2-Pf-HR :0.90774: L2-HR :0.91359: (Sim:0h31m19s) 
CPU  2 inst:   39000004 cyc:   32526852 now IPC :1.45901: AVG IPC :1.17308: L2-Pf-HR :0.90770: L2-HR :0.91390: (Sim:0h31m20s) 
CPU  1 inst:   38000003 cyc:   32679150 now IPC :0.59211: AVG IPC :1.13586: L2-Pf-HR :0.90965: L2-HR :0.91569: (Sim:0h31m28s) 
CPU  0 inst:   40000002 cyc:   33169345 now IPC :1.51623: AVG IPC :1.18073: L2-Pf-HR :0.90884: L2-HR :0.91467: (Sim:0h32m5s) 
CPU  2 inst:   40000002 cyc:   33177695 now IPC :1.53647: AVG IPC :1.18042: L2-Pf-HR :0.90872: L2-HR :0.91490: (Sim:0h32m5s) 
CPU  3 inst:   41000005 cyc:   33180969 now IPC :1.12000: AVG IPC :1.21136: L2-Pf-HR :0.91373: L2-HR :0.92062: (Sim:0h32m6s) 
CPU  1 inst:   39000004 cyc:   33278753 now IPC :1.66777: AVG IPC :1.14574: L2-Pf-HR :0.90927: L2-HR :0.91546: (Sim:0h32m14s) 
CPU  1 inst:   40000002 cyc:   33931635 now IPC :1.53167: AVG IPC :1.15338: L2-Pf-HR :0.91093: L2-HR :0.91677: (Sim:0h32m49s) 
CPU  2 inst:   41000005 cyc:   33999100 now IPC :1.21743: AVG IPC :1.18134: L2-Pf-HR :0.90828: L2-HR :0.91466: (Sim:0h32m54s) 
CPU  0 inst:   41000005 cyc:   34000932 now IPC :1.20252: AVG IPC :1.18128: L2-Pf-HR :0.90841: L2-HR :0.91442: (Sim:0h32m54s) 
CPU  3 inst:   42000004 cyc:   34447422 now IPC :0.78961: AVG IPC :1.19540: L2-Pf-HR :0.91317: L2-HR :0.91996: (Sim:0h33m17s) 
CPU  1 inst:   41000005 cyc:   34782094 now IPC :1.17584: AVG IPC :1.15395: L2-Pf-HR :0.91064: L2-HR :0.91661: (Sim:0h33m34s) 
CPU  3 inst:   43000005 cyc:   35112449 now IPC :1.50370: AVG IPC :1.20140: L2-Pf-HR :0.91350: L2-HR :0.92041: (Sim:0h33m51s) 
CPU  2 inst:   42000004 cyc:   35518178 now IPC :0.65829: AVG IPC :1.15833: L2-Pf-HR :0.90774: L2-HR :0.91406: (Sim:0h34m13s) 
CPU  0 inst:   42000004 cyc:   35553382 now IPC :0.64414: AVG IPC :1.15716: L2-Pf-HR :0.90785: L2-HR :0.91384: (Sim:0h34m15s) 
CPU  3 inst:   44000002 cyc:   35846884 now IPC :1.36159: AVG IPC :1.20478: L2-Pf-HR :0.91428: L2-HR :0.92118: (Sim:0h34m34s) 
CPU  0 inst:   43000005 cyc:   36214302 now IPC :1.51304: AVG IPC :1.16383: L2-Pf-HR :0.90807: L2-HR :0.91424: (Sim:0h34m51s) 
CPU  2 inst:   43000005 cyc:   36215629 now IPC :1.43379: AVG IPC :1.16379: L2-Pf-HR :0.90800: L2-HR :0.91445: (Sim:0h34m51s) 
CPU  1 inst:   42000004 cyc:   36355433 now IPC :0.63559: AVG IPC :1.13089: L2-Pf-HR :0.90999: L2-HR :0.91591: (Sim:0h34m56s) 
CPU  3 inst:   45000002 cyc:   36843617 now IPC :1.00328: AVG IPC :1.19918: L2-Pf-HR :0.91414: L2-HR :0.92108: (Sim:0h35m24s) 
CPU  2 inst:   44000002 cyc:   37005838 now IPC :1.26548: AVG IPC :1.16602: L2-Pf-HR :0.90879: L2-HR :0.91524: (Sim:0h35m37s) 
CPU  0 inst:   44000002 cyc:   37010074 now IPC :1.25664: AVG IPC :1.16588: L2-Pf-HR :0.90878: L2-HR :0.91498: (Sim:0h35m37s) 
CPU  1 inst:   43000005 cyc:   37085889 now IPC :1.36901: AVG IPC :1.13571: L2-Pf-HR :0.90987: L2-HR :0.91602: (Sim:0h35m42s) 
CPU  1 inst:   44000002 cyc:   37801524 now IPC :1.39736: AVG IPC :1.14080: L2-Pf-HR :0.91120: L2-HR :0.91720: (Sim:0h36m23s) 
CPU  2 inst:   45000002 cyc:   37849734 now IPC :1.18498: AVG IPC :1.16645: L2-Pf-HR :0.90886: L2-HR :0.91538: (Sim:0h36m26s) 
CPU  0 inst:   45000002 cyc:   37866194 now IPC :1.16806: AVG IPC :1.16593: L2-Pf-HR :0.90877: L2-HR :0.91501: (Sim:0h36m27s) 
CPU  3 inst:   46000002 cyc:   37988225 now IPC :0.87366: AVG IPC :1.18911: L2-Pf-HR :0.91341: L2-HR :0.92031: (Sim:0h36m36s) 
CPU  3 inst:   47000000 cyc:   38643215 now IPC :1.52674: AVG IPC :1.19498: L2-Pf-HR :0.91388: L2-HR :0.92081: (Sim:0h37m5s) 
CPU  1 inst:   45000002 cyc:   38682051 now IPC :1.13568: AVG IPC :1.14068: L2-Pf-HR :0.91118: L2-HR :0.91721: (Sim:0h37m7s) 
CPU  3 inst:   48000004 cyc:   39319526 now IPC :1.47862: AVG IPC :1.19998: L2-Pf-HR :0.91465: L2-HR :0.92154: (Sim:0h37m42s) 
CPU  0 inst:   46000002 cyc:   39344118 now IPC :0.67662: AVG IPC :1.14708: L2-Pf-HR :0.90821: L2-HR :0.91444: (Sim:0h37m44s) 
CPU  2 inst:   46000002 cyc:   39347355 now IPC :0.66773: AVG IPC :1.14698: L2-Pf-HR :0.90826: L2-HR :0.91475: (Sim:0h37m44s) 
CPU  0 inst:   47000000 cyc:   40026052 now IPC :1.46641: AVG IPC :1.15266: L2-Pf-HR :0.90841: L2-HR :0.91480: (Sim:0h38m24s) 
CPU  2 inst:   47000000 cyc:   40037215 now IPC :1.44957: AVG IPC :1.15233: L2-Pf-HR :0.90847: L2-HR :0.91512: (Sim:0h38m25s) 
CPU  1 inst:   46000002 cyc:   40215228 now IPC :0.65224: AVG IPC :1.12159: L2-Pf-HR :0.91063: L2-HR :0.91660: (Sim:0h38m36s) 
CPU  3 inst:   49000002 cyc:   40376187 now IPC :0.94638: AVG IPC :1.19318: L2-Pf-HR :0.91478: L2-HR :0.92164: (Sim:0h38m46s) 
CPU  2 inst:   48000004 cyc:   40791690 now IPC :1.32543: AVG IPC :1.15561: L2-Pf-HR :0.90898: L2-HR :0.91567: (Sim:0h39m15s) 
CPU  0 inst:   48000004 cyc:   40803592 now IPC :1.28611: AVG IPC :1.15527: L2-Pf-HR :0.90895: L2-HR :0.91536: (Sim:0h39m16s) 
CPU  1 inst:   47000000 cyc:   40908857 now IPC :1.44169: AVG IPC :1.12715: L2-Pf-HR :0.91045: L2-HR :0.91660: (Sim:0h39m23s) 
CPU  3 inst:   50000000 cyc:   41507700 now IPC :0.88377: AVG IPC :1.18454: L2-Pf-HR :0.91398: L2-HR :0.92084: (Sim:0h39m59s) 
CPU  1 inst:   48000004 cyc:   41541859 now IPC :1.57978: AVG IPC :1.13421: L2-Pf-HR :0.91137: L2-HR :0.91740: (Sim:0h40m2s) 
CPU  2 inst:   49000002 cyc:   41639599 now IPC :1.17937: AVG IPC :1.15610: L2-Pf-HR :0.90938: L2-HR :0.91603: (Sim:0h40m9s) 
CPU  0 inst:   49000002 cyc:   41652741 now IPC :1.17765: AVG IPC :1.15573: L2-Pf-HR :0.90931: L2-HR :0.91569: (Sim:0h40m11s) 
CPU  3 inst:   51000005 cyc:   42125801 now IPC :1.61787: AVG IPC :1.19105: L2-Pf-HR :0.91410: L2-HR :0.92109: (Sim:0h40m41s) 
CPU  1 inst:   49000002 cyc:   42343510 now IPC :1.24742: AVG IPC :1.13641: L2-Pf-HR :0.91162: L2-HR :0.91763: (Sim:0h40m52s) 
CPU  3 inst:   52000000 cyc:   42756459 now IPC :1.58564: AVG IPC :1.19701: L2-Pf-HR :0.91480: L2-HR :0.92174: (Sim:0h41m14s) 
CPU  0 inst:   50000000 cyc:   42965075 now IPC :0.76200: AVG IPC :1.14342: L2-Pf-HR :0.90872: L2-HR :0.91510: (Sim:0h41m27s) 
CPU  2 inst:   50000000 cyc:   42987754 now IPC :0.74175: AVG IPC :1.14280: L2-Pf-HR :0.90879: L2-HR :0.91543: (Sim:0h41m28s) 
CPU  2 inst:   51000005 cyc:   43708607 now IPC :1.38725: AVG IPC :1.14693: L2-Pf-HR :0.90903: L2-HR :0.91579: (Sim:0h42m10s) 
CPU  0 inst:   51000005 cyc:   43708704 now IPC :1.34476: AVG IPC :1.14693: L2-Pf-HR :0.90903: L2-HR :0.91552: (Sim:0h42m10s) 
CPU  1 inst:   50000000 cyc:   43826764 now IPC :0.67419: AVG IPC :1.12040: L2-Pf-HR :0.91098: L2-HR :0.91698: (Sim:0h42m18s) 
CPU  3 inst:   53000004 cyc:   43897066 now IPC :0.87673: AVG IPC :1.18850: L2-Pf-HR :0.91518: L2-HR :0.92201: (Sim:0h42m23s) 
CPU  2 inst:   52000000 cyc:   44414693 now IPC :1.41625: AVG IPC :1.15131: L2-Pf-HR :0.90942: L2-HR :0.91624: (Sim:0h42m59s) 
CPU  0 inst:   52000000 cyc:   44432414 now IPC :1.38176: AVG IPC :1.15084: L2-Pf-HR :0.90930: L2-HR :0.91585: (Sim:0h43m0s) 
CPU  1 inst:   51000005 cyc:   44518318 now IPC :1.44603: AVG IPC :1.12558: L2-Pf-HR :0.91091: L2-HR :0.91710: (Sim:0h43m7s) 
CPU  1 inst:   52000000 cyc:   45128538 now IPC :1.63875: AVG IPC :1.13267: L2-Pf-HR :0.91151: L2-HR :0.91773: (Sim:0h43m42s) 
CPU  3 inst:   54000005 cyc:   45220687 now IPC :0.75550: AVG IPC :1.17554: L2-Pf-HR :0.91440: L2-HR :0.92122: (Sim:0h43m48s) 
CPU  0 inst:   53000004 cyc:   45267799 now IPC :1.19706: AVG IPC :1.15171: L2-Pf-HR :0.90990: L2-HR :0.91632: (Sim:0h43m51s) 
CPU  2 inst:   53000004 cyc:   45288132 now IPC :1.14490: AVG IPC :1.15118: L2-Pf-HR :0.91009: L2-HR :0.91679: (Sim:0h43m53s) 
CPU  3 inst:   55000001 cyc:   45877650 now IPC :1.52215: AVG IPC :1.18061: L2-Pf-HR :0.91461: L2-HR :0.92151: (Sim:0h44m29s) 
CPU  1 inst:   53000004 cyc:   46012929 now IPC :1.13073: AVG IPC :1.13263: L2-Pf-HR :0.91203: L2-HR :0.91816: (Sim:0h44m36s) 
CPU  3 inst:   56000002 cyc:   46493181 now IPC :1.62462: AVG IPC :1.18662: L2-Pf-HR :0.91525: L2-HR :0.92212: (Sim:0h45m1s) 
CPU  2 inst:   54000005 cyc:   46684806 now IPC :0.71599: AVG IPC :1.13788: L2-Pf-HR :0.90942: L2-HR :0.91608: (Sim:0h45m13s) 
CPU  0 inst:   54000005 cyc:   46686104 now IPC :0.70507: AVG IPC :1.13785: L2-Pf-HR :0.90929: L2-HR :0.91571: (Sim:0h45m13s) 
CPU  0 inst:   55000001 cyc:   47402290 now IPC :1.39628: AVG IPC :1.14184: L2-Pf-HR :0.90943: L2-HR :0.91597: (Sim:0h45m55s) 
CPU  2 inst:   55000001 cyc:   47407852 now IPC :1.38303: AVG IPC :1.14170: L2-Pf-HR :0.90952: L2-HR :0.91622: (Sim:0h45m56s) 
CPU  3 inst:   57000004 cyc:   47593407 now IPC :0.90891: AVG IPC :1.18006: L2-Pf-HR :0.91577: L2-HR :0.92251: (Sim:0h46m8s) 
CPU  1 inst:   54000005 cyc:   47621199 now IPC :0.62179: AVG IPC :1.11502: L2-Pf-HR :0.91147: L2-HR :0.91755: (Sim:0h46m10s) 
CPU  0 inst:   56000002 cyc:   48189161 now IPC :1.27086: AVG IPC :1.14399: L2-Pf-HR :0.90963: L2-HR :0.91626: (Sim:0h46m50s) 
CPU  2 inst:   56000002 cyc:   48194113 now IPC :1.27184: AVG IPC :1.14387: L2-Pf-HR :0.90965: L2-HR :0.91640: (Sim:0h46m51s) 
CPU  1 inst:   55000001 cyc:   48348972 now IPC :1.37405: AVG IPC :1.11900: L2-Pf-HR :0.91126: L2-HR :0.91746: (Sim:0h47m3s) 
CPU  3 inst:   58000004 cyc:   48796785 now IPC :0.83099: AVG IPC :1.17128: L2-Pf-HR :0.91505: L2-HR :0.92180: (Sim:0h47m29s) 
CPU  0 inst:   57000004 cyc:   49017083 now IPC :1.20785: AVG IPC :1.14509: L2-Pf-HR :0.91015: L2-HR :0.91671: (Sim:0h47m45s) 
CPU  2 inst:   57000004 cyc:   49023939 now IPC :1.20507: AVG IPC :1.14492: L2-Pf-HR :0.91013: L2-HR :0.91676: (Sim:0h47m46s) 
CPU  1 inst:   56000002 cyc:   49028227 now IPC :1.47220: AVG IPC :1.12399: L2-Pf-HR :0.91142: L2-HR :0.91767: (Sim:0h47m46s) 
CPU  3 inst:   59000004 cyc:   49455571 now IPC :1.51794: AVG IPC :1.17599: L2-Pf-HR :0.91505: L2-HR :0.92193: (Sim:0h48m22s) 
CPU  1 inst:   57000004 cyc:   49922381 now IPC :1.11838: AVG IPC :1.12389: L2-Pf-HR :0.91194: L2-HR :0.91806: (Sim:0h48m45s) 
CPU  3 inst:   60000000 cyc:   50110983 now IPC :1.52575: AVG IPC :1.18065: L2-Pf-HR :0.91559: L2-HR :0.92244: (Sim:0h48m57s) 
CPU  2 inst:   58000004 cyc:   50307612 now IPC :0.77901: AVG IPC :1.13540: L2-Pf-HR :0.90951: L2-HR :0.91614: (Sim:0h49m12s) 
CPU  0 inst:   58000004 cyc:   50309037 now IPC :0.77402: AVG IPC :1.13537: L2-Pf-HR :0.90948: L2-HR :0.91602: (Sim:0h49m12s) 
CPU  2 inst:   59000004 cyc:   50963514 now IPC :1.52462: AVG IPC :1.14051: L2-Pf-HR :0.90956: L2-HR :0.91634: (Sim:0h49m54s) 
CPU  0 inst:   59000004 cyc:   50972859 now IPC :1.50643: AVG IPC :1.14030: L2-Pf-HR :0.90947: L2-HR :0.91610: (Sim:0h49m55s) 
CPU  3 inst:   61000002 cyc:   51169645 now IPC :0.94459: AVG IPC :1.17567: L2-Pf-HR :0.91621: L2-HR :0.92292: (Sim:0h50m7s) 
CPU  1 inst:   58000004 cyc:   51479012 now IPC :0.64241: AVG IPC :1.10904: L2-Pf-HR :0.91131: L2-HR :0.91741: (Sim:0h50m28s) 
CPU  2 inst:   60000000 cyc:   51763728 now IPC :1.24966: AVG IPC :1.14223: L2-Pf-HR :0.90975: L2-HR :0.91662: (Sim:0h50m49s) 
CPU  0 inst:   60000003 cyc:   51779156 now IPC :1.24024: AVG IPC :1.14188: L2-Pf-HR :0.90952: L2-HR :0.91618: (Sim:0h50m50s) 
CPU  1 inst:   59000004 cyc:   52133838 now IPC :1.52712: AVG IPC :1.11440: L2-Pf-HR :0.91111: L2-HR :0.91735: (Sim:0h51m16s) 
CPU  3 inst:   62000001 cyc:   52420718 now IPC :0.79931: AVG IPC :1.16652: L2-Pf-HR :0.91548: L2-HR :0.92220: (Sim:0h51m34s) 
CPU  0 inst:   61000002 cyc:   52711100 now IPC :1.07302: AVG IPC :1.14064: L2-Pf-HR :0.91013: L2-HR :0.91662: (Sim:0h51m52s) 
CPU  2 inst:   61000002 cyc:   52712894 now IPC :1.05356: AVG IPC :1.14060: L2-Pf-HR :0.91045: L2-HR :0.91718: (Sim:0h51m52s) 
CPU  1 inst:   60000000 cyc:   52847445 now IPC :1.40133: AVG IPC :1.11835: L2-Pf-HR :0.91134: L2-HR :0.91759: (Sim:0h52m2s) 
CPU  3 inst:   63000000 cyc:   53165408 now IPC :1.34284: AVG IPC :1.16904: L2-Pf-HR :0.91538: L2-HR :0.92224: (Sim:0h52m28s) 
CPU  1 inst:   61000002 cyc:   53782449 now IPC :1.06952: AVG IPC :1.11748: L2-Pf-HR :0.91201: L2-HR :0.91814: (Sim:0h53m1s) 
CPU  3 inst:   64000004 cyc:   53783221 now IPC :1.61862: AVG IPC :1.17430: L2-Pf-HR :0.91582: L2-HR :0.92267: (Sim:0h53m1s) 
CPU  0 inst:   62000002 cyc:   54018856 now IPC :0.76467: AVG IPC :1.13137: L2-Pf-HR :0.90950: L2-HR :0.91602: (Sim:0h53m17s) 
CPU  2 inst:   62000001 cyc:   54019694 now IPC :0.76523: AVG IPC :1.13135: L2-Pf-HR :0.90977: L2-HR :0.91653: (Sim:0h53m17s) 
CPU  0 inst:   63000000 cyc:   54665849 now IPC :1.54561: AVG IPC :1.13637: L2-Pf-HR :0.90951: L2-HR :0.91609: (Sim:0h54m3s) 
CPU  2 inst:   63000000 cyc:   54670301 now IPC :1.53702: AVG IPC :1.13627: L2-Pf-HR :0.90982: L2-HR :0.91671: (Sim:0h54m3s) 
CPU  3 inst:   65000000 cyc:   54842281 now IPC :0.94423: AVG IPC :1.16977: L2-Pf-HR :0.91666: L2-HR :0.92331: (Sim:0h54m13s) 
CPU  1 inst:   62000005 cyc:   55188598 now IPC :0.71116: AVG IPC :1.10694: L2-Pf-HR :0.91135: L2-HR :0.91749: (Sim:0h54m37s) 
CPU  0 inst:   64000004 cyc:   55400790 now IPC :1.36066: AVG IPC :1.13939: L2-Pf-HR :0.90961: L2-HR :0.91621: (Sim:0h54m51s) 
CPU  2 inst:   64000002 cyc:   55403271 now IPC :1.36432: AVG IPC :1.13934: L2-Pf-HR :0.90994: L2-HR :0.91692: (Sim:0h54m51s) 
CPU  1 inst:   63000000 cyc:   55847163 now IPC :1.51845: AVG IPC :1.11188: L2-Pf-HR :0.91102: L2-HR :0.91728: (Sim:0h55m26s) 
CPU  0 inst:   65000000 cyc:   56221615 now IPC :1.21828: AVG IPC :1.14057: L2-Pf-HR :0.91024: L2-HR :0.91672: (Sim:0h55m48s) 
CPU  2 inst:   65000000 cyc:   56231757 now IPC :1.20702: AVG IPC :1.14036: L2-Pf-HR :0.91055: L2-HR :0.91740: (Sim:0h55m48s) 
CPU  1 inst:   64000004 cyc:   56446480 now IPC :1.66857: AVG IPC :1.11790: L2-Pf-HR :0.91126: L2-HR :0.91748: (Sim:0h56m4s) 
CPU  1 inst:   65000000 cyc:   57257422 now IPC :1.23313: AVG IPC :1.11956: L2-Pf-HR :0.91235: L2-HR :0.91829: (Sim:0h56m43s) 
CPU  3 inst:   66000001 cyc:   57624433 now IPC :0.35943: AVG IPC :1.12997: L2-Pf-HR :0.91494: L2-HR :0.92061: (Sim:0h56m56s) 
CPU  2 inst:   66000001 cyc:   59771634 now IPC :0.28250: AVG IPC :1.08870: L2-Pf-HR :0.90874: L2-HR :0.91464: (Sim:0h57m59s) 
CPU  0 inst:   66000004 cyc:   59779850 now IPC :0.28104: AVG IPC :1.08855: L2-Pf-HR :0.90845: L2-HR :0.91399: (Sim:0h57m59s) 
CPU  1 inst:   66000000 cyc:   61494434 now IPC :0.23602: AVG IPC :1.05769: L2-Pf-HR :0.91071: L2-HR :0.91569: (Sim:0h59m2s) 
CPU  3 inst:   67000003 cyc:   76780907 now IPC :0.05220: AVG IPC :0.85757: L2-Pf-HR :0.90525: L2-HR :0.90255: (Sim:1h9m31s) 
CPU  0 inst:   67000003 cyc:   80917895 now IPC :0.04731: AVG IPC :0.81319: L2-Pf-HR :0.89798: L2-HR :0.89526: (Sim:1h12m33s) 
CPU  2 inst:   67000000 cyc:   80930879 now IPC :0.04726: AVG IPC :0.81306: L2-Pf-HR :0.89835: L2-HR :0.89589: (Sim:1h12m34s) 
CPU  1 inst:   67000000 cyc:   82131932 now IPC :0.04846: AVG IPC :0.80101: L2-Pf-HR :0.90103: L2-HR :0.89777: (Sim:1h13m27s) 
Caught signal: 2
     > Finished combination: TraceType=770-tot Sim:162000000 Prefetcher=L2029-SecTOP-L2-MultiMarkovDelta_ip_stride_v4-IPStrS256 L1=next_line
