TRACE: [21000000]_FE_[Pythia-70M]_[h8]_[s256]_[d64] Warmup: 2000000 NumTraces: 21000000
L1:bingo_dpc3_PHT1k:L2:bingo_dpc3_PHT1k
*************************************************
   ChampSim Multicore Out-of-Order Simulator
   Last compiled: Oct 29 2024 19:43:20
*************************************************

trace_0 770-tot_memTraces_v3_rexz/memTraces[21000000]_FE_[Pythia-70M]_[h8]_[s256]_[d64].champsim.9.xz
trace_1 770-tot_memTraces_v3_rexz/memTraces[21000000]_FE_[Pythia-70M]_[h8]_[s256]_[d64].champsim.9.xz
trace_2 770-tot_memTraces_v3_rexz/memTraces[21000000]_FE_[Pythia-70M]_[h8]_[s256]_[d64].champsim.9.xz
trace_3 770-tot_memTraces_v3_rexz/memTraces[21000000]_FE_[Pythia-70M]_[h8]_[s256]_[d64].champsim.9.xz
Bingo PHT WAYS: 16 and PHT_SIZE: 1024
Bingo2 PHT WAYS: 16 and PHT_SIZE: 1024
Bingo PHT WAYS: 16 and PHT_SIZE: 1024
Bingo2 PHT WAYS: 16 and PHT_SIZE: 1024
Bingo PHT WAYS: 16 and PHT_SIZE: 1024
Bingo2 PHT WAYS: 16 and PHT_SIZE: 1024
Bingo PHT WAYS: 16 and PHT_SIZE: 1024
Bingo2 PHT WAYS: 16 and PHT_SIZE: 1024
MAIN.cc ln 751 stats print skipped
CPU  1 inst:    1000001 cyc:     500554 now IPC :1.99779: AVG IPC :1.99779: L2-Pf-HR :0.79038: L2-HR :0.67178: (Sim:0h0m44s) 
CPU  0 inst:    1000001 cyc:     500626 now IPC :1.99750: AVG IPC :1.99750: L2-Pf-HR :0.80201: L2-HR :0.67224: (Sim:0h0m44s) 
CPU  2 inst:    1000001 cyc:     500882 now IPC :1.99648: AVG IPC :1.99648: L2-Pf-HR :0.79845: L2-HR :0.67368: (Sim:0h0m44s) 
CPU  3 inst:    1000001 cyc:     500909 now IPC :1.99637: AVG IPC :1.99637: L2-Pf-HR :0.80546: L2-HR :0.67339: (Sim:0h0m44s) 
CPU  0 inst:    2000003 cyc:     987814 now IPC :2.05260: AVG IPC :2.02468: L2-Pf-HR :0.79664: L2-HR :0.74274: (Sim:0h1m29s) 
CPU  1 inst:    2000003 cyc:     987868 now IPC :2.05207: AVG IPC :2.02456: L2-Pf-HR :0.78338: L2-HR :0.74083: (Sim:0h1m29s) 
CPU  2 inst:    2000003 cyc:     987996 now IPC :2.05291: AVG IPC :2.02430: L2-Pf-HR :0.79182: L2-HR :0.74242: (Sim:0h1m29s) 
CPU  3 inst:    2000003 cyc:     988171 now IPC :2.05229: AVG IPC :2.02394: L2-Pf-HR :0.79215: L2-HR :0.74200: (Sim:0h1m29s) 

Warmup complete CPU  0 instructions:    2000800 cycles:     988171 (Simulation time: 0 hr 1 min 29 sec) 
Warmup complete CPU  1 instructions:    2000629 cycles:     988171 (Simulation time: 0 hr 1 min 29 sec) 
Warmup complete CPU  2 instructions:    2000301 cycles:     988171 (Simulation time: 0 hr 1 min 29 sec) 
Warmup complete CPU  3 instructions:    2000003 cycles:     988171 (Simulation time: 0 hr 1 min 29 sec) 

CPU  3 inst:    3000005 cyc:    1725155 now IPC :1.35688: AVG IPC :1.35688: L2-Pf-HR :0.80975: L2-HR :0.81881: (Sim:0h2m13s) 
CPU  0 inst:    3000002 cyc:    1727174 now IPC :1.35252: AVG IPC :1.35209: L2-Pf-HR :0.79862: L2-HR :0.80309: (Sim:0h2m13s) 
CPU  1 inst:    3000005 cyc:    1746351 now IPC :1.31842: AVG IPC :1.31813: L2-Pf-HR :0.80522: L2-HR :0.80633: (Sim:0h2m14s) 
CPU  2 inst:    3000002 cyc:    1747810 now IPC :1.31611: AVG IPC :1.31602: L2-Pf-HR :0.80574: L2-HR :0.81112: (Sim:0h2m14s) 
CPU  2 inst:    4000001 cyc:    2424790 now IPC :1.47715: AVG IPC :1.39195: L2-Pf-HR :0.80549: L2-HR :0.82074: (Sim:0h2m57s) 
CPU  0 inst:    4000001 cyc:    2442861 now IPC :1.39726: AVG IPC :1.37431: L2-Pf-HR :0.80248: L2-HR :0.81137: (Sim:0h2m58s) 
CPU  3 inst:    4000001 cyc:    2446273 now IPC :1.38673: AVG IPC :1.37164: L2-Pf-HR :0.80213: L2-HR :0.81829: (Sim:0h2m58s) 
CPU  1 inst:    4000001 cyc:    2449387 now IPC :1.42240: AVG IPC :1.36829: L2-Pf-HR :0.79746: L2-HR :0.81069: (Sim:0h2m59s) 
CPU  1 inst:    5000000 cyc:    3123120 now IPC :1.48427: AVG IPC :1.40489: L2-Pf-HR :0.79050: L2-HR :0.81294: (Sim:0h3m45s) 
CPU  2 inst:    5000000 cyc:    3137160 now IPC :1.40376: AVG IPC :1.39587: L2-Pf-HR :0.79998: L2-HR :0.81865: (Sim:0h3m46s) 
CPU  3 inst:    5000000 cyc:    3139674 now IPC :1.44217: AVG IPC :1.39437: L2-Pf-HR :0.79577: L2-HR :0.81617: (Sim:0h3m46s) 
CPU  0 inst:    5000000 cyc:    3157691 now IPC :1.39893: AVG IPC :1.38243: L2-Pf-HR :0.80022: L2-HR :0.81078: (Sim:0h3m47s) 
CPU  1 inst:    6000005 cyc:    3774465 now IPC :1.53529: AVG IPC :1.43537: L2-Pf-HR :0.78870: L2-HR :0.81590: (Sim:0h4m31s) 
CPU  3 inst:    6000005 cyc:    3816325 now IPC :1.47787: AVG IPC :1.41435: L2-Pf-HR :0.79897: L2-HR :0.81910: (Sim:0h4m34s) 
CPU  2 inst:    6000005 cyc:    3825790 now IPC :1.45217: AVG IPC :1.40953: L2-Pf-HR :0.80059: L2-HR :0.81886: (Sim:0h4m35s) 
CPU  0 inst:    6000003 cyc:    3839110 now IPC :1.46753: AVG IPC :1.40277: L2-Pf-HR :0.79762: L2-HR :0.81294: (Sim:0h4m36s) 
CPU  1 inst:    7000002 cyc:    4432518 now IPC :1.51963: AVG IPC :1.45147: L2-Pf-HR :0.79080: L2-HR :0.81881: (Sim:0h5m17s) 
CPU  0 inst:    7000002 cyc:    4527072 now IPC :1.45357: AVG IPC :1.41264: L2-Pf-HR :0.79794: L2-HR :0.81483: (Sim:0h5m25s) 
CPU  3 inst:    7000004 cyc:    4555532 now IPC :1.35280: AVG IPC :1.40160: L2-Pf-HR :0.79909: L2-HR :0.81817: (Sim:0h5m27s) 
CPU  2 inst:    7000004 cyc:    4557597 now IPC :1.36648: AVG IPC :1.40070: L2-Pf-HR :0.79770: L2-HR :0.81725: (Sim:0h5m27s) 
CPU  1 inst:    8000002 cyc:    5197144 now IPC :1.30783: AVG IPC :1.42538: L2-Pf-HR :0.79205: L2-HR :0.82027: (Sim:0h6m7s) 
CPU  0 inst:    8000002 cyc:    5276753 now IPC :1.33390: AVG IPC :1.39888: L2-Pf-HR :0.80191: L2-HR :0.81891: (Sim:0h6m12s) 
CPU  2 inst:    8000002 cyc:    5299443 now IPC :1.34799: AVG IPC :1.39163: L2-Pf-HR :0.79784: L2-HR :0.81927: (Sim:0h6m14s) 
CPU  3 inst:    8000002 cyc:    5359046 now IPC :1.24453: AVG IPC :1.37272: L2-Pf-HR :0.79640: L2-HR :0.81576: (Sim:0h6m18s) 
CPU  1 inst:    9000000 cyc:    7054979 now IPC :0.53826: AVG IPC :1.15372: L2-Pf-HR :0.73983: L2-HR :0.74323: (Sim:0h7m14s) 
CPU  0 inst:    9000000 cyc:    7360604 now IPC :0.47988: AVG IPC :1.09836: L2-Pf-HR :0.74437: L2-HR :0.74170: (Sim:0h7m23s) 
CPU  3 inst:    9000000 cyc:    7521248 now IPC :0.46249: AVG IPC :1.07147: L2-Pf-HR :0.73776: L2-HR :0.73907: (Sim:0h7m27s) 
CPU  2 inst:    9000000 cyc:    7534338 now IPC :0.44745: AVG IPC :1.06928: L2-Pf-HR :0.73738: L2-HR :0.74090: (Sim:0h7m28s) 
CPU  1 inst:   10000000 cyc:   10435104 now IPC :0.29585: AVG IPC :0.84677: L2-Pf-HR :0.67056: L2-HR :0.71268: (Sim:0h8m45s) 
CPU  0 inst:   10000000 cyc:   10735822 now IPC :0.29628: AVG IPC :0.82063: L2-Pf-HR :0.67442: L2-HR :0.71119: (Sim:0h8m52s) 
CPU  3 inst:   10000000 cyc:   10895533 now IPC :0.29636: AVG IPC :0.80748: L2-Pf-HR :0.66870: L2-HR :0.70915: (Sim:0h8m57s) 
CPU  2 inst:   10000000 cyc:   10909086 now IPC :0.29632: AVG IPC :0.80635: L2-Pf-HR :0.66813: L2-HR :0.71051: (Sim:0h8m57s) 
CPU  1 inst:   11000000 cyc:   13814829 now IPC :0.29588: AVG IPC :0.70161: L2-Pf-HR :0.61550: L2-HR :0.68734: (Sim:0h10m15s) 
CPU  0 inst:   11000000 cyc:   14112053 now IPC :0.29619: AVG IPC :0.68571: L2-Pf-HR :0.61925: L2-HR :0.68599: (Sim:0h10m23s) 
CPU  3 inst:   11000000 cyc:   14271311 now IPC :0.29623: AVG IPC :0.67755: L2-Pf-HR :0.61362: L2-HR :0.68404: (Sim:0h10m28s) 
CPU  2 inst:   11000000 cyc:   14287339 now IPC :0.29601: AVG IPC :0.67671: L2-Pf-HR :0.61319: L2-HR :0.68524: (Sim:0h10m28s) 
CPU  1 inst:   12000000 cyc:   17196013 now IPC :0.29575: AVG IPC :0.61695: L2-Pf-HR :0.57100: L2-HR :0.66619: (Sim:0h11m47s) 
CPU  0 inst:   12000000 cyc:   17498445 now IPC :0.29530: AVG IPC :0.60563: L2-Pf-HR :0.57192: L2-HR :0.66357: (Sim:0h11m55s) 
CPU  3 inst:   12000000 cyc:   17652040 now IPC :0.29579: AVG IPC :0.60010: L2-Pf-HR :0.56692: L2-HR :0.66191: (Sim:0h11m59s) 
CPU  2 inst:   12000000 cyc:   17667737 now IPC :0.29582: AVG IPC :0.59952: L2-Pf-HR :0.56691: L2-HR :0.66313: (Sim:0h11m59s) 
CPU  1 inst:   13000000 cyc:   20582477 now IPC :0.29529: AVG IPC :0.56136: L2-Pf-HR :0.53281: L2-HR :0.64748: (Sim:0h13m17s) 
CPU  0 inst:   13000000 cyc:   20908572 now IPC :0.29324: AVG IPC :0.55216: L2-Pf-HR :0.53101: L2-HR :0.64364: (Sim:0h13m25s) 
CPU  3 inst:   13000000 cyc:   21092877 now IPC :0.29063: AVG IPC :0.54714: L2-Pf-HR :0.52685: L2-HR :0.64233: (Sim:0h13m29s) 
CPU  2 inst:   13000000 cyc:   21117849 now IPC :0.28985: AVG IPC :0.54644: L2-Pf-HR :0.52690: L2-HR :0.64341: (Sim:0h13m30s) 
CPU  1 inst:   14000000 cyc:   22230648 now IPC :0.60673: AVG IPC :0.56488: L2-Pf-HR :0.57338: L2-HR :0.68395: (Sim:0h14m12s) 
CPU  0 inst:   14000000 cyc:   22658078 now IPC :0.57159: AVG IPC :0.55373: L2-Pf-HR :0.57128: L2-HR :0.68018: (Sim:0h14m39s) 
CPU  3 inst:   14000000 cyc:   22849465 now IPC :0.56929: AVG IPC :0.54892: L2-Pf-HR :0.56794: L2-HR :0.67954: (Sim:0h14m51s) 
CPU  2 inst:   14000000 cyc:   22889926 now IPC :0.56431: AVG IPC :0.54789: L2-Pf-HR :0.56837: L2-HR :0.68040: (Sim:0h14m55s) 
CPU  1 inst:   15000000 cyc:   23278434 now IPC :0.95439: AVG IPC :0.58319: L2-Pf-HR :0.60623: L2-HR :0.71488: (Sim:0h15m10s) 
CPU  0 inst:   15000000 cyc:   23732193 now IPC :0.93100: AVG IPC :0.57154: L2-Pf-HR :0.60438: L2-HR :0.71155: (Sim:0h15m32s) 
CPU  3 inst:   15000000 cyc:   24091888 now IPC :0.80488: AVG IPC :0.56268: L2-Pf-HR :0.60128: L2-HR :0.71110: (Sim:0h15m53s) 
CPU  2 inst:   15000000 cyc:   24092038 now IPC :0.83187: AVG IPC :0.56266: L2-Pf-HR :0.60152: L2-HR :0.71183: (Sim:0h15m53s) 
CPU  1 inst:   16000004 cyc:   24440080 now IPC :0.86085: AVG IPC :0.59694: L2-Pf-HR :0.63132: L2-HR :0.73859: (Sim:0h16m12s) 
CPU  0 inst:   16000004 cyc:   24739994 now IPC :0.99226: AVG IPC :0.58939: L2-Pf-HR :0.63024: L2-HR :0.73580: (Sim:0h16m32s) 
CPU  3 inst:   16000004 cyc:   25301257 now IPC :0.82688: AVG IPC :0.57582: L2-Pf-HR :0.62709: L2-HR :0.73532: (Sim:0h17m5s) 
CPU  2 inst:   16000004 cyc:   25306853 now IPC :0.82317: AVG IPC :0.57568: L2-Pf-HR :0.62750: L2-HR :0.73598: (Sim:0h17m6s) 
CPU  1 inst:   17000002 cyc:   25362176 now IPC :1.08448: AVG IPC :0.61538: L2-Pf-HR :0.65303: L2-HR :0.75805: (Sim:0h17m11s) 
CPU  0 inst:   17000000 cyc:   25664702 now IPC :1.08142: AVG IPC :0.60783: L2-Pf-HR :0.65196: L2-HR :0.75546: (Sim:0h17m28s) 
CPU  1 inst:   18000000 cyc:   26250841 now IPC :1.12528: AVG IPC :0.63332: L2-Pf-HR :0.67190: L2-HR :0.77429: (Sim:0h18m10s) 
Finished CPU 1 instr: 16000002 cyc: 25269387 AVG IPC: 0.63318 (Sim time: 0h18m10s)
CPU  2 inst:   17000004 cyc:   26263046 now IPC :1.04581: AVG IPC :0.59346: L2-Pf-HR :0.64942: L2-HR :0.75560: (Sim:0h18m10s) 
CPU  3 inst:   17000002 cyc:   26348167 now IPC :0.95519: AVG IPC :0.59148: L2-Pf-HR :0.64900: L2-HR :0.75503: (Sim:0h18m14s) 
CPU  0 inst:   18000000 cyc:   26480015 now IPC :1.22652: AVG IPC :0.62762: L2-Pf-HR :0.67087: L2-HR :0.77197: (Sim:0h18m23s) 
Finished CPU 0 instr: 16000002 cyc: 25494831 AVG IPC: 0.62758 (Sim time: 0h18m24s)
CPU  2 inst:   18000000 cyc:   27165753 now IPC :1.10777: AVG IPC :0.61120: L2-Pf-HR :0.66840: L2-HR :0.77204: (Sim:0h19m9s) 
Finished CPU 2 instr: 16000003 cyc: 26178292 AVG IPC: 0.61119 (Sim time: 0h19m9s)
CPU  3 inst:   18000000 cyc:   27213027 now IPC :1.15625: AVG IPC :0.61011: L2-Pf-HR :0.66831: L2-HR :0.77155: (Sim:0h19m12s) 
Finished CPU 3 instr: 16000003 cyc: 26224857 AVG IPC: 0.61011 (Sim time: 0h19m12s)

ChampSim completed all CPUs

Total Simulation Statistics (not including warmup)

CPU 0 cumulative IPC: 0.63712 instructions: 16708430 cycles: 26224857
Core_0_L1D_total_access 5078682
Core_0_L1D_total_hit 4468330
Core_0_L1D_total_miss 610352
Core_0_L1D_loads 4187733
Core_0_L1D_load_hit 3855126
Core_0_L1D_load_miss 332607
Core_0_L1D_RFOs 567720
Core_0_L1D_RFO_hit 564734
Core_0_L1D_RFO_miss 2986
Core_0_L1D_prefetches 323229
Core_0_L1D_prefetch_hit 48470
Core_0_L1D_prefetch_miss 274759
Core_0_L1D_writebacks 0
Core_0_L1D_writeback_hit 0
Core_0_L1D_writeback_miss 0

Core_0_L1I_total_access 2333298
Core_0_L1I_total_hit 2328589
Core_0_L1I_total_miss 4709
Core_0_L1I_loads 2333298
Core_0_L1I_load_hit 2328589
Core_0_L1I_load_miss 4709
Core_0_L1I_RFOs 0
Core_0_L1I_RFO_hit 0
Core_0_L1I_RFO_miss 0
Core_0_L1I_prefetches 0
Core_0_L1I_prefetch_hit 0
Core_0_L1I_prefetch_miss 0
Core_0_L1I_writebacks 0
Core_0_L1I_writeback_hit 0
Core_0_L1I_writeback_miss 0

Core_0_L2C_total_access 801021
Core_0_L2C_total_hit 625285
Core_0_L2C_total_miss 175736
Core_0_L2C_loads 289595
Core_0_L2C_load_hit 243063
Core_0_L2C_load_miss 46532
Core_0_L2C_RFOs 2953
Core_0_L2C_RFO_hit 301
Core_0_L2C_RFO_miss 2652
Core_0_L2C_prefetches 395568
Core_0_L2C_prefetch_hit 269021
Core_0_L2C_prefetch_miss 126547
Core_0_L2C_writebacks 112905
Core_0_L2C_writeback_hit 112900
Core_0_L2C_writeback_miss 5

[Bingo] PHT Access: 64006
[Bingo] PHT Hit PC+Addr: 20455
[Bingo] PHT Hit PC+Offs: 37350
[Bingo] PHT Miss: 6201
[Bingo] Prefetch PC+Addr: 0
[Bingo] Prefetch PC+Offs: 0
[Bingo] Useful PC+Addr: 0
[Bingo] Useful PC+Offs: 0
[Bingo] Useless PC+Addr: 0
[Bingo] Useless PC+Offs: 0
[Bingo] L1 Prefetch per Region: 10.50842
[Bingo] L2 Prefetch per Region: 0.55013
[Bingo] L3 Prefetch per Region: 0.00000
[Bingo] No Prefetch per Region: 20.94146
[Bingo] Number of Voters Mean: 9.52311
[Bingo] Number of Voters SD: 6.86419
PHT read accesses: 869586
PHT write accesses: 61264
AT read accesses: 3914907
AT write accesses: 3914909
FT read accesses: 868199
FT write accesses: 64006
PS read accesses: 374047
PS write accesses: 57805
PHT tag read accesses: 2596783
PHT tag write accesses: 81719
AT tag read accesses: 108119677
AT tag write accesses: 3976171
FT tag read accesses: 47407963
FT tag write accesses: 530041
PS tag read accesses: 70030476
PS tag write accesses: 429850
[Bingo2] PHT Access: 12240
[Bingo2] PHT Hit PC+Addr: 1040
[Bingo2] PHT Hit PC+Offs: 9177
[Bingo2] PHT Miss: 2023
[Bingo2] Prefetch PC+Addr: 0
[Bingo2] Prefetch PC+Offs: 0
[Bingo2] Useful PC+Addr: 0
[Bingo2] Useful PC+Offs: 0
[Bingo2] Useless PC+Addr: 0
[Bingo2] Useless PC+Offs: 0
[Bingo2] L1 Prefetch per Region: 0.00000
[Bingo2] L2 Prefetch per Region: 14.11843
[Bingo2] L3 Prefetch per Region: 0.00000
[Bingo2] No Prefetch per Region: 17.88157
[Bingo2] Number of Voters Mean: 13.98148
[Bingo2] Number of Voters SD: 5.49495
PHT read accesses: 182638
PHT write accesses: 9914
AT read accesses: 275335
AT write accesses: 285069
FT read accesses: 34276
FT write accesses: 12240
PS read accesses: 33117
PS write accesses: 10217
PHT tag read accesses: 490757
PHT tag write accesses: 10954
AT tag read accesses: 15633984
AT tag write accesses: 285249
FT tag read accesses: 11374924
FT tag write accesses: 34394
PS tag read accesses: 4986701
PS tag write accesses: 42690
Core_0_LLC_total_access 273327
Core_0_LLC_total_hit 144643
Core_0_LLC_total_miss 128684
Core_0_LLC_loads 32720
Core_0_LLC_load_hit 10630
Core_0_LLC_load_miss 22090
Core_0_LLC_RFOs 2652
Core_0_LLC_RFO_hit 16
Core_0_LLC_RFO_miss 2636
Core_0_LLC_prefetches 140359
Core_0_LLC_prefetch_hit 38627
Core_0_LLC_prefetch_miss 101732
Core_0_LLC_writebacks 97596
Core_0_LLC_writeback_hit 95370
Core_0_LLC_writeback_miss 2226


CPU 1 cumulative IPC: 0.64635 instructions: 16950524 cycles: 26224857
Core_1_L1D_total_access 5151158
Core_1_L1D_total_hit 4524669
Core_1_L1D_total_miss 626489
Core_1_L1D_loads 4252819
Core_1_L1D_load_hit 3909338
Core_1_L1D_load_miss 343481
Core_1_L1D_RFOs 568453
Core_1_L1D_RFO_hit 565476
Core_1_L1D_RFO_miss 2977
Core_1_L1D_prefetches 329886
Core_1_L1D_prefetch_hit 49855
Core_1_L1D_prefetch_miss 280031
Core_1_L1D_writebacks 0
Core_1_L1D_writeback_hit 0
Core_1_L1D_writeback_miss 0

Core_1_L1I_total_access 2356449
Core_1_L1I_total_hit 2351742
Core_1_L1I_total_miss 4707
Core_1_L1I_loads 2356449
Core_1_L1I_load_hit 2351742
Core_1_L1I_load_miss 4707
Core_1_L1I_RFOs 0
Core_1_L1I_RFO_hit 0
Core_1_L1I_RFO_miss 0
Core_1_L1I_prefetches 0
Core_1_L1I_prefetch_hit 0
Core_1_L1I_prefetch_miss 0
Core_1_L1I_writebacks 0
Core_1_L1I_writeback_hit 0
Core_1_L1I_writeback_miss 0

Core_1_L2C_total_access 819678
Core_1_L2C_total_hit 644351
Core_1_L2C_total_miss 175327
Core_1_L2C_loads 299508
Core_1_L2C_load_hit 254045
Core_1_L2C_load_miss 45463
Core_1_L2C_RFOs 2955
Core_1_L2C_RFO_hit 302
Core_1_L2C_RFO_miss 2653
Core_1_L2C_prefetches 404057
Core_1_L2C_prefetch_hit 276851
Core_1_L2C_prefetch_miss 127206
Core_1_L2C_writebacks 113158
Core_1_L2C_writeback_hit 113153
Core_1_L2C_writeback_miss 5

[Bingo] PHT Access: 70306
[Bingo] PHT Hit PC+Addr: 21545
[Bingo] PHT Hit PC+Offs: 41626
[Bingo] PHT Miss: 7135
[Bingo] Prefetch PC+Addr: 0
[Bingo] Prefetch PC+Offs: 0
[Bingo] Useful PC+Addr: 0
[Bingo] Useful PC+Offs: 0
[Bingo] Useless PC+Addr: 0
[Bingo] Useless PC+Offs: 0
[Bingo] L1 Prefetch per Region: 10.47633
[Bingo] L2 Prefetch per Region: 0.51674
[Bingo] L3 Prefetch per Region: 0.00000
[Bingo] No Prefetch per Region: 21.00693
[Bingo] Number of Voters Mean: 9.76053
[Bingo] Number of Voters SD: 5.49959
PHT read accesses: 950743
PHT write accesses: 67142
AT read accesses: 4681244
AT write accesses: 4681265
FT read accesses: 888257
FT write accesses: 70306
PS read accesses: 398263
PS write accesses: 63171
PHT tag read accesses: 2862119
PHT tag write accesses: 88687
AT tag read accesses: 123202553
AT tag write accesses: 4748407
FT tag read accesses: 50414576
FT tag write accesses: 549464
PS tag read accesses: 82485242
PS tag write accesses: 459266
[Bingo2] PHT Access: 15030
[Bingo2] PHT Hit PC+Addr: 1229
[Bingo2] PHT Hit PC+Offs: 9556
[Bingo2] PHT Miss: 4245
[Bingo2] Prefetch PC+Addr: 0
[Bingo2] Prefetch PC+Offs: 0
[Bingo2] Useful PC+Addr: 0
[Bingo2] Useful PC+Offs: 0
[Bingo2] Useless PC+Addr: 0
[Bingo2] Useless PC+Offs: 0
[Bingo2] L1 Prefetch per Region: 0.00000
[Bingo2] L2 Prefetch per Region: 14.82995
[Bingo2] L3 Prefetch per Region: 0.00000
[Bingo2] No Prefetch per Region: 17.17005
[Bingo2] Number of Voters Mean: 13.74226
[Bingo2] Number of Voters SD: 4.01520
PHT read accesses: 199324
PHT write accesses: 11907
AT read accesses: 298014
AT write accesses: 309889
FT read accesses: 41672
FT write accesses: 15030
PS read accesses: 37342
PS write accesses: 10785
PHT tag read accesses: 589345
PHT tag write accesses: 13136
AT tag read accesses: 16447709
AT tag write accesses: 310049
FT tag read accesses: 11856416
FT tag write accesses: 41951
PS tag read accesses: 5414015
PS tag write accesses: 47261
Core_1_LLC_total_access 273916
Core_1_LLC_total_hit 141939
Core_1_LLC_total_miss 131977
Core_1_LLC_loads 31551
Core_1_LLC_load_hit 11008
Core_1_LLC_load_miss 20543
Core_1_LLC_RFOs 2653
Core_1_LLC_RFO_hit 31
Core_1_LLC_RFO_miss 2622
Core_1_LLC_prefetches 141118
Core_1_LLC_prefetch_hit 38009
Core_1_LLC_prefetch_miss 103109
Core_1_LLC_writebacks 98594
Core_1_LLC_writeback_hit 92891
Core_1_LLC_writeback_miss 5703


CPU 2 cumulative IPC: 0.61105 instructions: 16024725 cycles: 26224857
Core_2_L1D_total_access 4867198
Core_2_L1D_total_hit 4301984
Core_2_L1D_total_miss 565214
Core_2_L1D_loads 4000624
Core_2_L1D_load_hit 3696281
Core_2_L1D_load_miss 304343
Core_2_L1D_RFOs 566274
Core_2_L1D_RFO_hit 563251
Core_2_L1D_RFO_miss 3023
Core_2_L1D_prefetches 300300
Core_2_L1D_prefetch_hit 42452
Core_2_L1D_prefetch_miss 257848
Core_2_L1D_writebacks 0
Core_2_L1D_writeback_hit 0
Core_2_L1D_writeback_miss 0

Core_2_L1I_total_access 2265876
Core_2_L1I_total_hit 2261168
Core_2_L1I_total_miss 4708
Core_2_L1I_loads 2265876
Core_2_L1I_load_hit 2261168
Core_2_L1I_load_miss 4708
Core_2_L1I_RFOs 0
Core_2_L1I_RFO_hit 0
Core_2_L1I_RFO_miss 0
Core_2_L1I_prefetches 0
Core_2_L1I_prefetch_hit 0
Core_2_L1I_prefetch_miss 0
Core_2_L1I_writebacks 0
Core_2_L1I_writeback_hit 0
Core_2_L1I_writeback_miss 0

Core_2_L2C_total_access 751904
Core_2_L2C_total_hit 580467
Core_2_L2C_total_miss 171437
Core_2_L2C_loads 264394
Core_2_L2C_load_hit 219266
Core_2_L2C_load_miss 45128
Core_2_L2C_RFOs 2963
Core_2_L2C_RFO_hit 281
Core_2_L2C_RFO_miss 2682
Core_2_L2C_prefetches 372385
Core_2_L2C_prefetch_hit 248763
Core_2_L2C_prefetch_miss 123622
Core_2_L2C_writebacks 112162
Core_2_L2C_writeback_hit 112157
Core_2_L2C_writeback_miss 5

[Bingo] PHT Access: 62573
[Bingo] PHT Hit PC+Addr: 18496
[Bingo] PHT Hit PC+Offs: 37711
[Bingo] PHT Miss: 6366
[Bingo] Prefetch PC+Addr: 0
[Bingo] Prefetch PC+Offs: 0
[Bingo] Useful PC+Addr: 0
[Bingo] Useful PC+Offs: 0
[Bingo] Useless PC+Addr: 0
[Bingo] Useless PC+Offs: 0
[Bingo] L1 Prefetch per Region: 10.66833
[Bingo] L2 Prefetch per Region: 0.49204
[Bingo] L3 Prefetch per Region: 0.00000
[Bingo] No Prefetch per Region: 20.83963
[Bingo] Number of Voters Mean: 10.15144
[Bingo] Number of Voters SD: 5.50311
PHT read accesses: 847917
PHT write accesses: 59747
AT read accesses: 4421124
AT write accesses: 4421153
FT read accesses: 863825
FT write accesses: 62573
PS read accesses: 360855
PS write accesses: 56207
PHT tag read accesses: 2557352
PHT tag write accesses: 78243
AT tag read accesses: 118763137
AT tag write accesses: 4480899
FT tag read accesses: 49904561
FT tag write accesses: 525630
PS tag read accesses: 78077661
PS tag write accesses: 415304
[Bingo2] PHT Access: 14979
[Bingo2] PHT Hit PC+Addr: 1442
[Bingo2] PHT Hit PC+Offs: 9246
[Bingo2] PHT Miss: 4291
[Bingo2] Prefetch PC+Addr: 0
[Bingo2] Prefetch PC+Offs: 0
[Bingo2] Useful PC+Addr: 0
[Bingo2] Useful PC+Offs: 0
[Bingo2] Useless PC+Addr: 0
[Bingo2] Useless PC+Offs: 0
[Bingo2] L1 Prefetch per Region: 0.00000
[Bingo2] L2 Prefetch per Region: 13.98466
[Bingo2] L3 Prefetch per Region: 0.00000
[Bingo2] No Prefetch per Region: 18.01534
[Bingo2] Number of Voters Mean: 14.05700
[Bingo2] Number of Voters SD: 3.51845
PHT read accesses: 196951
PHT write accesses: 11941
AT read accesses: 262858
AT write accesses: 274774
FT read accesses: 42123
FT write accesses: 14979
PS read accesses: 34488
PS write accesses: 10688
PHT tag read accesses: 586900
PHT tag write accesses: 13383
AT tag read accesses: 15889145
AT tag write accesses: 274927
FT tag read accesses: 11875145
FT tag write accesses: 42136
PS tag read accesses: 4848561
PS tag write accesses: 44341
Core_2_LLC_total_access 268224
Core_2_LLC_total_hit 140499
Core_2_LLC_total_miss 127725
Core_2_LLC_loads 30834
Core_2_LLC_load_hit 8914
Core_2_LLC_load_miss 21920
Core_2_LLC_RFOs 2682
Core_2_LLC_RFO_hit 14
Core_2_LLC_RFO_miss 2668
Core_2_LLC_prefetches 137917
Core_2_LLC_prefetch_hit 36669
Core_2_LLC_prefetch_miss 101248
Core_2_LLC_writebacks 96791
Core_2_LLC_writeback_hit 94902
Core_2_LLC_writeback_miss 1889


CPU 3 cumulative IPC: 0.61011 instructions: 16000003 cycles: 26224857
Core_3_L1D_total_access 4860612
Core_3_L1D_total_hit 4296985
Core_3_L1D_total_miss 563627
Core_3_L1D_loads 3994092
Core_3_L1D_load_hit 3690854
Core_3_L1D_load_miss 303238
Core_3_L1D_RFOs 566252
Core_3_L1D_RFO_hit 563279
Core_3_L1D_RFO_miss 2973
Core_3_L1D_prefetches 300268
Core_3_L1D_prefetch_hit 42852
Core_3_L1D_prefetch_miss 257416
Core_3_L1D_writebacks 0
Core_3_L1D_writeback_hit 0
Core_3_L1D_writeback_miss 0

Core_3_L1I_total_access 2264382
Core_3_L1I_total_hit 2259674
Core_3_L1I_total_miss 4708
Core_3_L1I_loads 2264382
Core_3_L1I_load_hit 2259674
Core_3_L1I_load_miss 4708
Core_3_L1I_RFOs 0
Core_3_L1I_RFO_hit 0
Core_3_L1I_RFO_miss 0
Core_3_L1I_prefetches 0
Core_3_L1I_prefetch_hit 0
Core_3_L1I_prefetch_miss 0
Core_3_L1I_writebacks 0
Core_3_L1I_writeback_hit 0
Core_3_L1I_writeback_miss 0

Core_3_L2C_total_access 748466
Core_3_L2C_total_hit 577478
Core_3_L2C_total_miss 170988
Core_3_L2C_loads 263420
Core_3_L2C_load_hit 217803
Core_3_L2C_load_miss 45617
Core_3_L2C_RFOs 2933
Core_3_L2C_RFO_hit 281
Core_3_L2C_RFO_miss 2652
Core_3_L2C_prefetches 369970
Core_3_L2C_prefetch_hit 247256
Core_3_L2C_prefetch_miss 122714
Core_3_L2C_writebacks 112143
Core_3_L2C_writeback_hit 112138
Core_3_L2C_writeback_miss 5

[Bingo] PHT Access: 62371
[Bingo] PHT Hit PC+Addr: 18551
[Bingo] PHT Hit PC+Offs: 37462
[Bingo] PHT Miss: 6358
[Bingo] Prefetch PC+Addr: 0
[Bingo] Prefetch PC+Offs: 0
[Bingo] Useful PC+Addr: 0
[Bingo] Useful PC+Offs: 0
[Bingo] Useless PC+Addr: 0
[Bingo] Useless PC+Offs: 0
[Bingo] L1 Prefetch per Region: 10.68423
[Bingo] L2 Prefetch per Region: 0.49306
[Bingo] L3 Prefetch per Region: 0.00000
[Bingo] No Prefetch per Region: 20.82270
[Bingo] Number of Voters Mean: 10.15007
[Bingo] Number of Voters SD: 5.48349
PHT read accesses: 842272
PHT write accesses: 59555
AT read accesses: 4413824
AT write accesses: 4413849
FT read accesses: 863291
FT write accesses: 62371
PS read accesses: 359578
PS write accesses: 56013
PHT tag read accesses: 2543853
PHT tag write accesses: 78106
AT tag read accesses: 118640765
AT tag write accesses: 4473404
FT tag read accesses: 49894692
FT tag write accesses: 525071
PS tag read accesses: 77956664
PS tag write accesses: 413781
[Bingo2] PHT Access: 15053
[Bingo2] PHT Hit PC+Addr: 1461
[Bingo2] PHT Hit PC+Offs: 9516
[Bingo2] PHT Miss: 4076
[Bingo2] Prefetch PC+Addr: 0
[Bingo2] Prefetch PC+Offs: 0
[Bingo2] Useful PC+Addr: 0
[Bingo2] Useful PC+Offs: 0
[Bingo2] Useless PC+Addr: 0
[Bingo2] Useless PC+Offs: 0
[Bingo2] L1 Prefetch per Region: 0.00000
[Bingo2] L2 Prefetch per Region: 13.84468
[Bingo2] L3 Prefetch per Region: 0.00000
[Bingo2] No Prefetch per Region: 18.15532
[Bingo2] Number of Voters Mean: 13.97730
[Bingo2] Number of Voters SD: 3.56421
PHT read accesses: 199471
PHT write accesses: 12011
AT read accesses: 262133
AT write accesses: 274127
FT read accesses: 41969
FT write accesses: 15053
PS read accesses: 34933
PS write accesses: 10977
PHT tag read accesses: 588458
PHT tag write accesses: 13472
AT tag read accesses: 15879404
AT tag write accesses: 274272
FT tag read accesses: 11865332
FT tag write accesses: 42165
PS tag read accesses: 4849116
PS tag write accesses: 45394
Core_3_LLC_total_access 268749
Core_3_LLC_total_hit 143600
Core_3_LLC_total_miss 125149
Core_3_LLC_loads 31286
Core_3_LLC_load_hit 9518
Core_3_LLC_load_miss 21768
Core_3_LLC_RFOs 2652
Core_3_LLC_RFO_hit 32
Core_3_LLC_RFO_miss 2620
Core_3_LLC_prefetches 137045
Core_3_LLC_prefetch_hit 38889
Core_3_LLC_prefetch_miss 98156
Core_3_LLC_writebacks 97766
Core_3_LLC_writeback_hit 95161
Core_3_LLC_writeback_miss 2605


[ROI Statistics]
Core_0_instructions 16000002
Core_0_cycles 25494831
Core_0_IPC 0.62758

Core_0_branch_prediction_accuracy 98.25522
Core_0_branch_MPKI 0.60607
Core_0_average_ROB_occupancy_at_mispredict 321.98005

Core_0_L1D_total_access 4863399
Core_0_L1D_total_hit 4299689 L1D_total_Hit Ratio: 0.88409
Core_0_L1D_total_miss 563710
Core_0_L1D_loads 3995970
Core_0_L1D_load_hit 3693662 L1D_load_Hit Ratio: 0.92435
Core_0_L1D_load_miss 302308
Core_0_L1D_RFOs 565990
Core_0_L1D_RFO_hit 563024 L1D_RFO_Hit Ratio: 0.99476
Core_0_L1D_RFO_miss 2966
Core_0_L1D_prefetches 301439
Core_0_L1D_prefetch_hit 43003 L1D_prefetch_Hit Ratio: 0.14266
Core_0_L1D_prefetch_miss 258436
Core_0_L1D_writebacks 0
Core_0_L1D_writeback_hit 0 L1D_writeback_Hit Ratio: -nan
Core_0_L1D_writeback_miss 0
Core_0_L1D_prefetch_requested 528255
Core_0_L1D_prefetch_issued 528255
Core_0_L1D_prefetch_useful 295178 L1D_Useful Ratio: 0.55878
Core_0_L1D_prefetch_useless 6505
Core_0_L1D_prefetch_late 49121
Core_0_L1D_average_miss_latency 1334618.79462

Core_0_L1I_total_access 2263591
Core_0_L1I_total_hit 2258882 L1I_total_Hit Ratio: 0.99792
Core_0_L1I_total_miss 4709
Core_0_L1I_loads 2263591
Core_0_L1I_load_hit 2258882 L1I_load_Hit Ratio: 0.99792
Core_0_L1I_load_miss 4709
Core_0_L1I_RFOs 0
Core_0_L1I_RFO_hit 0 L1I_RFO_Hit Ratio: -nan
Core_0_L1I_RFO_miss 0
Core_0_L1I_prefetches 0
Core_0_L1I_prefetch_hit 0 L1I_prefetch_Hit Ratio: -nan
Core_0_L1I_prefetch_miss 0
Core_0_L1I_writebacks 0
Core_0_L1I_writeback_hit 0 L1I_writeback_Hit Ratio: -nan
Core_0_L1I_writeback_miss 0
Core_0_L1I_prefetch_requested 0
Core_0_L1I_prefetch_issued 0
Core_0_L1I_prefetch_useful 0 L1I_Useful Ratio: -nan
Core_0_L1I_prefetch_useless 0
Core_0_L1I_prefetch_late 0
Core_0_L1I_average_miss_latency 486.14143

Core_0_L2C_total_access 749287
Core_0_L2C_total_hit 578420 L2C_total_Hit Ratio: 0.77196
Core_0_L2C_total_miss 170867
Core_0_L2C_loads 262586
Core_0_L2C_load_hit 216702 L2C_load_Hit Ratio: 0.82526
Core_0_L2C_load_miss 45884
Core_0_L2C_RFOs 2933
Core_0_L2C_RFO_hit 281 L2C_RFO_Hit Ratio: 0.09581
Core_0_L2C_RFO_miss 2652
Core_0_L2C_prefetches 371635
Core_0_L2C_prefetch_hit 249309 L2C_prefetch_Hit Ratio: 0.67084
Core_0_L2C_prefetch_miss 122326
Core_0_L2C_writebacks 112133
Core_0_L2C_writeback_hit 112128 L2C_writeback_Hit Ratio: 0.99996
Core_0_L2C_writeback_miss 5
Core_0_L2C_prefetch_requested 116715
Core_0_L2C_prefetch_issued 116715
Core_0_L2C_prefetch_useful 35017 L2C_Useful Ratio: 0.30002
Core_0_L2C_prefetch_useless 91258
Core_0_L2C_prefetch_late 13855
Core_0_L2C_average_miss_latency 515.93847

Core_0_LLC_total_access 267650
Core_0_LLC_total_hit 143208 LLC_total_Hit Ratio: 0.53506
Core_0_LLC_total_miss 124442
Core_0_LLC_loads 32186
Core_0_LLC_load_hit 10577 LLC_load_Hit Ratio: 0.32862
Core_0_LLC_load_miss 21609
Core_0_LLC_RFOs 2652
Core_0_LLC_RFO_hit 16 LLC_RFO_Hit Ratio: 0.00603
Core_0_LLC_RFO_miss 2636
Core_0_LLC_prefetches 136024
Core_0_LLC_prefetch_hit 38052 LLC_prefetch_Hit Ratio: 0.27974
Core_0_LLC_prefetch_miss 97972
Core_0_LLC_writebacks 96788
Core_0_LLC_writeback_hit 94563 LLC_writeback_Hit Ratio: 0.97701
Core_0_LLC_writeback_miss 2225
Core_0_LLC_prefetch_requested 0
Core_0_LLC_prefetch_issued 0
Core_0_LLC_prefetch_useful 21970 LLC_Useful Ratio: inf
Core_0_LLC_prefetch_useless 252463
Core_0_LLC_prefetch_late 0
Core_0_LLC_average_miss_latency 2650.82269

Core_0_major_page_fault 0
Core_0_minor_page_fault 2410

Core_1_instructions 16000002
Core_1_cycles 25269387
Core_1_IPC 0.63318

Core_1_branch_prediction_accuracy 98.25872
Core_1_branch_MPKI 0.59784
Core_1_average_ROB_occupancy_at_mispredict 322.15561

Core_1_L1D_total_access 4862102
Core_1_L1D_total_hit 4298182 L1D_total_Hit Ratio: 0.88402
Core_1_L1D_total_miss 563920
Core_1_L1D_loads 3995496
Core_1_L1D_load_hit 3692538 L1D_load_Hit Ratio: 0.92418
Core_1_L1D_load_miss 302958
Core_1_L1D_RFOs 566169
Core_1_L1D_RFO_hit 563213 L1D_RFO_Hit Ratio: 0.99478
Core_1_L1D_RFO_miss 2956
Core_1_L1D_prefetches 300437
Core_1_L1D_prefetch_hit 42431 L1D_prefetch_Hit Ratio: 0.14123
Core_1_L1D_prefetch_miss 258006
Core_1_L1D_writebacks 0
Core_1_L1D_writeback_hit 0 L1D_writeback_Hit Ratio: -nan
Core_1_L1D_writeback_miss 0
Core_1_L1D_prefetch_requested 540320
Core_1_L1D_prefetch_issued 540320
Core_1_L1D_prefetch_useful 300223 L1D_Useful Ratio: 0.55564
Core_1_L1D_prefetch_useless 6929
Core_1_L1D_prefetch_late 50141
Core_1_L1D_average_miss_latency 1363991.20726

Core_1_L1I_total_access 2262785
Core_1_L1I_total_hit 2258078 L1I_total_Hit Ratio: 0.99792
Core_1_L1I_total_miss 4707
Core_1_L1I_loads 2262785
Core_1_L1I_load_hit 2258078 L1I_load_Hit Ratio: 0.99792
Core_1_L1I_load_miss 4707
Core_1_L1I_RFOs 0
Core_1_L1I_RFO_hit 0 L1I_RFO_Hit Ratio: -nan
Core_1_L1I_RFO_miss 0
Core_1_L1I_prefetches 0
Core_1_L1I_prefetch_hit 0 L1I_prefetch_Hit Ratio: -nan
Core_1_L1I_prefetch_miss 0
Core_1_L1I_writebacks 0
Core_1_L1I_writeback_hit 0 L1I_writeback_Hit Ratio: -nan
Core_1_L1I_writeback_miss 0
Core_1_L1I_prefetch_requested 0
Core_1_L1I_prefetch_issued 0
Core_1_L1I_prefetch_useful 0 L1I_Useful Ratio: -nan
Core_1_L1I_prefetch_useless 0
Core_1_L1I_prefetch_late 0
Core_1_L1I_average_miss_latency 517.95454

Core_1_L2C_total_access 750740
Core_1_L2C_total_hit 581285 L2C_total_Hit Ratio: 0.77428
Core_1_L2C_total_miss 169455
Core_1_L2C_loads 263451
Core_1_L2C_load_hit 218788 L2C_load_Hit Ratio: 0.83047
Core_1_L2C_load_miss 44663
Core_1_L2C_RFOs 2934
Core_1_L2C_RFO_hit 281 L2C_RFO_Hit Ratio: 0.09577
Core_1_L2C_RFO_miss 2653
Core_1_L2C_prefetches 372222
Core_1_L2C_prefetch_hit 250088 L2C_prefetch_Hit Ratio: 0.67188
Core_1_L2C_prefetch_miss 122134
Core_1_L2C_writebacks 112133
Core_1_L2C_writeback_hit 112128 L2C_writeback_Hit Ratio: 0.99996
Core_1_L2C_writeback_miss 5
Core_1_L2C_prefetch_requested 117398
Core_1_L2C_prefetch_issued 117398
Core_1_L2C_prefetch_useful 37259 L2C_Useful Ratio: 0.31737
Core_1_L2C_prefetch_useless 90038
Core_1_L2C_prefetch_late 13966
Core_1_L2C_average_miss_latency 539.79838

Core_1_LLC_total_access 266443
Core_1_LLC_total_hit 139899 LLC_total_Hit Ratio: 0.52506
Core_1_LLC_total_miss 126544
Core_1_LLC_loads 30874
Core_1_LLC_load_hit 10923 LLC_load_Hit Ratio: 0.35379
Core_1_LLC_load_miss 19951
Core_1_LLC_RFOs 2653
Core_1_LLC_RFO_hit 31 LLC_RFO_Hit Ratio: 0.01168
Core_1_LLC_RFO_miss 2622
Core_1_LLC_prefetches 135923
Core_1_LLC_prefetch_hit 37477 LLC_prefetch_Hit Ratio: 0.27572
Core_1_LLC_prefetch_miss 98446
Core_1_LLC_writebacks 96993
Core_1_LLC_writeback_hit 91468 LLC_writeback_Hit Ratio: 0.94304
Core_1_LLC_writeback_miss 5525
Core_1_LLC_prefetch_requested 0
Core_1_LLC_prefetch_issued 0
Core_1_LLC_prefetch_useful 21970 LLC_Useful Ratio: inf
Core_1_LLC_prefetch_useless 252463
Core_1_LLC_prefetch_late 0
Core_1_LLC_average_miss_latency 2606.79034

Core_1_major_page_fault 0
Core_1_minor_page_fault 2413

Core_2_instructions 16000003
Core_2_cycles 26178292
Core_2_IPC 0.61119

Core_2_branch_prediction_accuracy 98.24603
Core_2_branch_MPKI 0.63033
Core_2_average_ROB_occupancy_at_mispredict 321.71280

Core_2_L1D_total_access 4860406
Core_2_L1D_total_hit 4296813 L1D_total_Hit Ratio: 0.88404
Core_2_L1D_total_miss 563593
Core_2_L1D_loads 3994436
Core_2_L1D_load_hit 3691262 L1D_load_Hit Ratio: 0.92410
Core_2_L1D_load_miss 303174
Core_2_L1D_RFOs 566222
Core_2_L1D_RFO_hit 563199 L1D_RFO_Hit Ratio: 0.99466
Core_2_L1D_RFO_miss 3023
Core_2_L1D_prefetches 299748
Core_2_L1D_prefetch_hit 42352 L1D_prefetch_Hit Ratio: 0.14129
Core_2_L1D_prefetch_miss 257396
Core_2_L1D_writebacks 0
Core_2_L1D_writeback_hit 0 L1D_writeback_Hit Ratio: -nan
Core_2_L1D_writeback_miss 0
Core_2_L1D_prefetch_requested 489820
Core_2_L1D_prefetch_issued 489820
Core_2_L1D_prefetch_useful 279042 L1D_Useful Ratio: 0.56968
Core_2_L1D_prefetch_useless 5825
Core_2_L1D_prefetch_late 46122
Core_2_L1D_average_miss_latency 1209081.77795

Core_2_L1I_total_access 2263342
Core_2_L1I_total_hit 2258634 L1I_total_Hit Ratio: 0.99792
Core_2_L1I_total_miss 4708
Core_2_L1I_loads 2263342
Core_2_L1I_load_hit 2258634 L1I_load_Hit Ratio: 0.99792
Core_2_L1I_load_miss 4708
Core_2_L1I_RFOs 0
Core_2_L1I_RFO_hit 0 L1I_RFO_Hit Ratio: -nan
Core_2_L1I_RFO_miss 0
Core_2_L1I_prefetches 0
Core_2_L1I_prefetch_hit 0 L1I_prefetch_Hit Ratio: -nan
Core_2_L1I_prefetch_miss 0
Core_2_L1I_writebacks 0
Core_2_L1I_writeback_hit 0 L1I_writeback_Hit Ratio: -nan
Core_2_L1I_writeback_miss 0
Core_2_L1I_prefetch_requested 0
Core_2_L1I_prefetch_issued 0
Core_2_L1I_prefetch_useful 0 L1I_Useful Ratio: -nan
Core_2_L1I_prefetch_useless 0
Core_2_L1I_prefetch_late 0
Core_2_L1I_average_miss_latency 472.19860

Core_2_L2C_total_access 749974
Core_2_L2C_total_hit 579012 L2C_total_Hit Ratio: 0.77204
Core_2_L2C_total_miss 170962
Core_2_L2C_loads 263341
Core_2_L2C_load_hit 218267 L2C_load_Hit Ratio: 0.82884
Core_2_L2C_load_miss 45074
Core_2_L2C_RFOs 2963
Core_2_L2C_RFO_hit 281 L2C_RFO_Hit Ratio: 0.09484
Core_2_L2C_RFO_miss 2682
Core_2_L2C_prefetches 371535
Core_2_L2C_prefetch_hit 248334 L2C_prefetch_Hit Ratio: 0.66840
Core_2_L2C_prefetch_miss 123201
Core_2_L2C_writebacks 112135
Core_2_L2C_writeback_hit 112130 L2C_writeback_Hit Ratio: 0.99996
Core_2_L2C_writeback_miss 5
Core_2_L2C_prefetch_requested 113202
Core_2_L2C_prefetch_issued 113202
Core_2_L2C_prefetch_useful 34024 L2C_Useful Ratio: 0.30056
Core_2_L2C_prefetch_useless 89061
Core_2_L2C_prefetch_late 14365
Core_2_L2C_average_miss_latency 555.37231

Core_2_LLC_total_access 267664
Core_2_LLC_total_hit 140414 LLC_total_Hit Ratio: 0.52459
Core_2_LLC_total_miss 127250
Core_2_LLC_loads 30797
Core_2_LLC_load_hit 8914 LLC_load_Hit Ratio: 0.28944
Core_2_LLC_load_miss 21883
Core_2_LLC_RFOs 2682
Core_2_LLC_RFO_hit 14 LLC_RFO_Hit Ratio: 0.00522
Core_2_LLC_RFO_miss 2668
Core_2_LLC_prefetches 137478
Core_2_LLC_prefetch_hit 36668 LLC_prefetch_Hit Ratio: 0.26672
Core_2_LLC_prefetch_miss 100810
Core_2_LLC_writebacks 96707
Core_2_LLC_writeback_hit 94818 LLC_writeback_Hit Ratio: 0.98047
Core_2_LLC_writeback_miss 1889
Core_2_LLC_prefetch_requested 0
Core_2_LLC_prefetch_issued 0
Core_2_LLC_prefetch_useful 21970 LLC_Useful Ratio: inf
Core_2_LLC_prefetch_useless 252463
Core_2_LLC_prefetch_late 0
Core_2_LLC_average_miss_latency 2592.32752

Core_2_major_page_fault 0
Core_2_minor_page_fault 2383

Core_3_instructions 16000003
Core_3_cycles 26224857
Core_3_IPC 0.61011

Core_3_branch_prediction_accuracy 98.24556
Core_3_branch_MPKI 0.63131
Core_3_average_ROB_occupancy_at_mispredict 321.64320

Core_3_L1D_total_access 4860612
Core_3_L1D_total_hit 4296985 L1D_total_Hit Ratio: 0.88404
Core_3_L1D_total_miss 563627
Core_3_L1D_loads 3994092
Core_3_L1D_load_hit 3690854 L1D_load_Hit Ratio: 0.92408
Core_3_L1D_load_miss 303238
Core_3_L1D_RFOs 566252
Core_3_L1D_RFO_hit 563279 L1D_RFO_Hit Ratio: 0.99475
Core_3_L1D_RFO_miss 2973
Core_3_L1D_prefetches 300268
Core_3_L1D_prefetch_hit 42852 L1D_prefetch_Hit Ratio: 0.14271
Core_3_L1D_prefetch_miss 257416
Core_3_L1D_writebacks 0
Core_3_L1D_writeback_hit 0 L1D_writeback_Hit Ratio: -nan
Core_3_L1D_writeback_miss 0
Core_3_L1D_prefetch_requested 488392
Core_3_L1D_prefetch_issued 488392
Core_3_L1D_prefetch_useful 278215 L1D_Useful Ratio: 0.56966
Core_3_L1D_prefetch_useless 5883
Core_3_L1D_prefetch_late 46152
Core_3_L1D_average_miss_latency 1200099.11288

Core_3_L1I_total_access 2264382
Core_3_L1I_total_hit 2259674 L1I_total_Hit Ratio: 0.99792
Core_3_L1I_total_miss 4708
Core_3_L1I_loads 2264382
Core_3_L1I_load_hit 2259674 L1I_load_Hit Ratio: 0.99792
Core_3_L1I_load_miss 4708
Core_3_L1I_RFOs 0
Core_3_L1I_RFO_hit 0 L1I_RFO_Hit Ratio: -nan
Core_3_L1I_RFO_miss 0
Core_3_L1I_prefetches 0
Core_3_L1I_prefetch_hit 0 L1I_prefetch_Hit Ratio: -nan
Core_3_L1I_prefetch_miss 0
Core_3_L1I_writebacks 0
Core_3_L1I_writeback_hit 0 L1I_writeback_Hit Ratio: -nan
Core_3_L1I_writeback_miss 0
Core_3_L1I_prefetch_requested 0
Core_3_L1I_prefetch_issued 0
Core_3_L1I_prefetch_useful 0 L1I_Useful Ratio: -nan
Core_3_L1I_prefetch_useless 0
Core_3_L1I_prefetch_late 0
Core_3_L1I_average_miss_latency 481.01763

Core_3_L2C_total_access 748466
Core_3_L2C_total_hit 577478 L2C_total_Hit Ratio: 0.77155
Core_3_L2C_total_miss 170988
Core_3_L2C_loads 263420
Core_3_L2C_load_hit 217803 L2C_load_Hit Ratio: 0.82683
Core_3_L2C_load_miss 45617
Core_3_L2C_RFOs 2933
Core_3_L2C_RFO_hit 281 L2C_RFO_Hit Ratio: 0.09581
Core_3_L2C_RFO_miss 2652
Core_3_L2C_prefetches 369970
Core_3_L2C_prefetch_hit 247256 L2C_prefetch_Hit Ratio: 0.66831
Core_3_L2C_prefetch_miss 122714
Core_3_L2C_writebacks 112143
Core_3_L2C_writeback_hit 112138 L2C_writeback_Hit Ratio: 0.99996
Core_3_L2C_writeback_miss 5
Core_3_L2C_prefetch_requested 113111
Core_3_L2C_prefetch_issued 113111
Core_3_L2C_prefetch_useful 33494 L2C_Useful Ratio: 0.29612
Core_3_L2C_prefetch_useless 88687
Core_3_L2C_prefetch_late 14417
Core_3_L2C_average_miss_latency 555.19752

Core_3_LLC_total_access 268749
Core_3_LLC_total_hit 143600 LLC_total_Hit Ratio: 0.53433
Core_3_LLC_total_miss 125149
Core_3_LLC_loads 31286
Core_3_LLC_load_hit 9518 LLC_load_Hit Ratio: 0.30423
Core_3_LLC_load_miss 21768
Core_3_LLC_RFOs 2652
Core_3_LLC_RFO_hit 32 LLC_RFO_Hit Ratio: 0.01207
Core_3_LLC_RFO_miss 2620
Core_3_LLC_prefetches 137045
Core_3_LLC_prefetch_hit 38889 LLC_prefetch_Hit Ratio: 0.28377
Core_3_LLC_prefetch_miss 98156
Core_3_LLC_writebacks 97766
Core_3_LLC_writeback_hit 95161 LLC_writeback_Hit Ratio: 0.97335
Core_3_LLC_writeback_miss 2605
Core_3_LLC_prefetch_requested 0
Core_3_LLC_prefetch_issued 0
Core_3_LLC_prefetch_useful 21970 LLC_Useful Ratio: inf
Core_3_LLC_prefetch_useless 252463
Core_3_LLC_prefetch_late 0
Core_3_LLC_average_miss_latency 2635.84749

Core_3_major_page_fault 0
Core_3_minor_page_fault 2382

[Bingo] PHT Access: 64006
[Bingo] PHT Hit PC+Addr: 20455
[Bingo] PHT Hit PC+Offs: 37350
[Bingo] PHT Miss: 6201
[Bingo] Prefetch PC+Addr: 0
[Bingo] Prefetch PC+Offs: 0
[Bingo] Useful PC+Addr: 0
[Bingo] Useful PC+Offs: 0
[Bingo] Useless PC+Addr: 0
[Bingo] Useless PC+Offs: 0
[Bingo] L1 Prefetch per Region: 10.50842
[Bingo] L2 Prefetch per Region: 0.55013
[Bingo] L3 Prefetch per Region: 0.00000
[Bingo] No Prefetch per Region: 20.94146
[Bingo] Number of Voters Mean: 9.52311
[Bingo] Number of Voters SD: 6.86419
PHT read accesses: 869586
PHT write accesses: 61264
AT read accesses: 3914907
AT write accesses: 3914909
FT read accesses: 868199
FT write accesses: 64006
PS read accesses: 374047
PS write accesses: 57805
PHT tag read accesses: 2596783
PHT tag write accesses: 81719
AT tag read accesses: 108119677
AT tag write accesses: 3976171
FT tag read accesses: 47407963
FT tag write accesses: 530041
PS tag read accesses: 70030476
PS tag write accesses: 429850
[Bingo2] PHT Access: 12240
[Bingo2] PHT Hit PC+Addr: 1040
[Bingo2] PHT Hit PC+Offs: 9177
[Bingo2] PHT Miss: 2023
[Bingo2] Prefetch PC+Addr: 0
[Bingo2] Prefetch PC+Offs: 0
[Bingo2] Useful PC+Addr: 0
[Bingo2] Useful PC+Offs: 0
[Bingo2] Useless PC+Addr: 0
[Bingo2] Useless PC+Offs: 0
[Bingo2] L1 Prefetch per Region: 0.00000
[Bingo2] L2 Prefetch per Region: 14.11843
[Bingo2] L3 Prefetch per Region: 0.00000
[Bingo2] No Prefetch per Region: 17.88157
[Bingo2] Number of Voters Mean: 13.98148
[Bingo2] Number of Voters SD: 5.49495
PHT read accesses: 182638
PHT write accesses: 9914
AT read accesses: 275335
AT write accesses: 285069
FT read accesses: 34276
FT write accesses: 12240
PS read accesses: 33117
PS write accesses: 10217
PHT tag read accesses: 490757
PHT tag write accesses: 10954
AT tag read accesses: 15633984
AT tag write accesses: 285249
FT tag read accesses: 11374924
FT tag write accesses: 34394
PS tag read accesses: 4986701
PS tag write accesses: 42690
[Bingo] PHT Access: 70306
[Bingo] PHT Hit PC+Addr: 21545
[Bingo] PHT Hit PC+Offs: 41626
[Bingo] PHT Miss: 7135
[Bingo] Prefetch PC+Addr: 0
[Bingo] Prefetch PC+Offs: 0
[Bingo] Useful PC+Addr: 0
[Bingo] Useful PC+Offs: 0
[Bingo] Useless PC+Addr: 0
[Bingo] Useless PC+Offs: 0
[Bingo] L1 Prefetch per Region: 10.47633
[Bingo] L2 Prefetch per Region: 0.51674
[Bingo] L3 Prefetch per Region: 0.00000
[Bingo] No Prefetch per Region: 21.00693
[Bingo] Number of Voters Mean: 9.76053
[Bingo] Number of Voters SD: 5.49959
PHT read accesses: 950743
PHT write accesses: 67142
AT read accesses: 4681244
AT write accesses: 4681265
FT read accesses: 888257
FT write accesses: 70306
PS read accesses: 398263
PS write accesses: 63171
PHT tag read accesses: 2862119
PHT tag write accesses: 88687
AT tag read accesses: 123202553
AT tag write accesses: 4748407
FT tag read accesses: 50414576
FT tag write accesses: 549464
PS tag read accesses: 82485242
PS tag write accesses: 459266
[Bingo2] PHT Access: 15030
[Bingo2] PHT Hit PC+Addr: 1229
[Bingo2] PHT Hit PC+Offs: 9556
[Bingo2] PHT Miss: 4245
[Bingo2] Prefetch PC+Addr: 0
[Bingo2] Prefetch PC+Offs: 0
[Bingo2] Useful PC+Addr: 0
[Bingo2] Useful PC+Offs: 0
[Bingo2] Useless PC+Addr: 0
[Bingo2] Useless PC+Offs: 0
[Bingo2] L1 Prefetch per Region: 0.00000
[Bingo2] L2 Prefetch per Region: 14.82995
[Bingo2] L3 Prefetch per Region: 0.00000
[Bingo2] No Prefetch per Region: 17.17005
[Bingo2] Number of Voters Mean: 13.74226
[Bingo2] Number of Voters SD: 4.01520
PHT read accesses: 199324
PHT write accesses: 11907
AT read accesses: 298014
AT write accesses: 309889
FT read accesses: 41672
FT write accesses: 15030
PS read accesses: 37342
PS write accesses: 10785
PHT tag read accesses: 589345
PHT tag write accesses: 13136
AT tag read accesses: 16447709
AT tag write accesses: 310049
FT tag read accesses: 11856416
FT tag write accesses: 41951
PS tag read accesses: 5414015
PS tag write accesses: 47261
[Bingo] PHT Access: 62573
[Bingo] PHT Hit PC+Addr: 18496
[Bingo] PHT Hit PC+Offs: 37711
[Bingo] PHT Miss: 6366
[Bingo] Prefetch PC+Addr: 0
[Bingo] Prefetch PC+Offs: 0
[Bingo] Useful PC+Addr: 0
[Bingo] Useful PC+Offs: 0
[Bingo] Useless PC+Addr: 0
[Bingo] Useless PC+Offs: 0
[Bingo] L1 Prefetch per Region: 10.66833
[Bingo] L2 Prefetch per Region: 0.49204
[Bingo] L3 Prefetch per Region: 0.00000
[Bingo] No Prefetch per Region: 20.83963
[Bingo] Number of Voters Mean: 10.15144
[Bingo] Number of Voters SD: 5.50311
PHT read accesses: 847917
PHT write accesses: 59747
AT read accesses: 4421124
AT write accesses: 4421153
FT read accesses: 863825
FT write accesses: 62573
PS read accesses: 360855
PS write accesses: 56207
PHT tag read accesses: 2557352
PHT tag write accesses: 78243
AT tag read accesses: 118763137
AT tag write accesses: 4480899
FT tag read accesses: 49904561
FT tag write accesses: 525630
PS tag read accesses: 78077661
PS tag write accesses: 415304
[Bingo2] PHT Access: 14979
[Bingo2] PHT Hit PC+Addr: 1442
[Bingo2] PHT Hit PC+Offs: 9246
[Bingo2] PHT Miss: 4291
[Bingo2] Prefetch PC+Addr: 0
[Bingo2] Prefetch PC+Offs: 0
[Bingo2] Useful PC+Addr: 0
[Bingo2] Useful PC+Offs: 0
[Bingo2] Useless PC+Addr: 0
[Bingo2] Useless PC+Offs: 0
[Bingo2] L1 Prefetch per Region: 0.00000
[Bingo2] L2 Prefetch per Region: 13.98466
[Bingo2] L3 Prefetch per Region: 0.00000
[Bingo2] No Prefetch per Region: 18.01534
[Bingo2] Number of Voters Mean: 14.05700
[Bingo2] Number of Voters SD: 3.51845
PHT read accesses: 196951
PHT write accesses: 11941
AT read accesses: 262858
AT write accesses: 274774
FT read accesses: 42123
FT write accesses: 14979
PS read accesses: 34488
PS write accesses: 10688
PHT tag read accesses: 586900
PHT tag write accesses: 13383
AT tag read accesses: 15889145
AT tag write accesses: 274927
FT tag read accesses: 11875145
FT tag write accesses: 42136
PS tag read accesses: 4848561
PS tag write accesses: 44341
[Bingo] PHT Access: 62371
[Bingo] PHT Hit PC+Addr: 18551
[Bingo] PHT Hit PC+Offs: 37462
[Bingo] PHT Miss: 6358
[Bingo] Prefetch PC+Addr: 0
[Bingo] Prefetch PC+Offs: 0
[Bingo] Useful PC+Addr: 0
[Bingo] Useful PC+Offs: 0
[Bingo] Useless PC+Addr: 0
[Bingo] Useless PC+Offs: 0
[Bingo] L1 Prefetch per Region: 10.68423
[Bingo] L2 Prefetch per Region: 0.49306
[Bingo] L3 Prefetch per Region: 0.00000
[Bingo] No Prefetch per Region: 20.82270
[Bingo] Number of Voters Mean: 10.15007
[Bingo] Number of Voters SD: 5.48349
PHT read accesses: 842272
PHT write accesses: 59555
AT read accesses: 4413824
AT write accesses: 4413849
FT read accesses: 863291
FT write accesses: 62371
PS read accesses: 359578
PS write accesses: 56013
PHT tag read accesses: 2543853
PHT tag write accesses: 78106
AT tag read accesses: 118640765
AT tag write accesses: 4473404
FT tag read accesses: 49894692
FT tag write accesses: 525071
PS tag read accesses: 77956664
PS tag write accesses: 413781
[Bingo2] PHT Access: 15053
[Bingo2] PHT Hit PC+Addr: 1461
[Bingo2] PHT Hit PC+Offs: 9516
[Bingo2] PHT Miss: 4076
[Bingo2] Prefetch PC+Addr: 0
[Bingo2] Prefetch PC+Offs: 0
[Bingo2] Useful PC+Addr: 0
[Bingo2] Useful PC+Offs: 0
[Bingo2] Useless PC+Addr: 0
[Bingo2] Useless PC+Offs: 0
[Bingo2] L1 Prefetch per Region: 0.00000
[Bingo2] L2 Prefetch per Region: 13.84468
[Bingo2] L3 Prefetch per Region: 0.00000
[Bingo2] No Prefetch per Region: 18.15532
[Bingo2] Number of Voters Mean: 13.97730
[Bingo2] Number of Voters SD: 3.56421
PHT read accesses: 199471
PHT write accesses: 12011
AT read accesses: 262133
AT write accesses: 274127
FT read accesses: 41969
FT write accesses: 15053
PS read accesses: 34933
PS write accesses: 10977
PHT tag read accesses: 588458
PHT tag write accesses: 13472
AT tag read accesses: 15879404
AT tag write accesses: 274272
FT tag read accesses: 11865332
FT tag write accesses: 42165
PS tag read accesses: 4849116
PS tag write accesses: 45394
Channel_0_RQ_row_buffer_hit 289474
Channel_0_RQ_row_buffer_miss 211564
Channel_0_WQ_row_buffer_hit 86881
Channel_0_WQ_row_buffer_miss 168974
Channel_0_WQ_full 2995
Channel_0_dbus_congested 602858

avg_congested_cycle 11

EzSearch AVG IPC :0.62758: L2-Pf-HR :0.67084 : L2-HR :0.78061 Uful:0.30002
EzSearch AVG IPC :0.63318: L2-Pf-HR :0.67188 : L2-HR :0.78610 Uful:0.31737
EzSearch AVG IPC :0.61119: L2-Pf-HR :0.66840 : L2-HR :0.77200 Uful:0.30056
EzSearch AVG IPC :0.61011: L2-Pf-HR :0.66831 : L2-HR :0.77155 Uful:0.29612
     > Finished combination: TraceType=770-tot Sim:16000000 Prefetcher=L2bingo_dpc3_PHT1k L1=bingo_dpc3_PHT1k
