TRACE: [331000000][Pythia-70M]_[h8][s1024][d64] Warmup: 2000000 NumTraces: 331000000
L1:bingo_dpc3:L2:bingo_dpc3
*************************************************
   ChampSim Multicore Out-of-Order Simulator
   Last compiled: Oct 29 2024 15:48:59
*************************************************

trace_0 770-tot_memTraces_v3_rexz/memTraces[331000000][Pythia-70M]_[h8][s1024][d64].champsim.9.xz
trace_1 770-tot_memTraces_v3_rexz/memTraces[331000000][Pythia-70M]_[h8][s1024][d64].champsim.9.xz
trace_2 770-tot_memTraces_v3_rexz/memTraces[331000000][Pythia-70M]_[h8][s1024][d64].champsim.9.xz
trace_3 770-tot_memTraces_v3_rexz/memTraces[331000000][Pythia-70M]_[h8][s1024][d64].champsim.9.xz
Bingo PHT WAYS: 16 and PHT_SIZE: 16384
Bingo2 PHT WAYS: 16 and PHT_SIZE: 16384
Bingo PHT WAYS: 16 and PHT_SIZE: 16384
Bingo2 PHT WAYS: 16 and PHT_SIZE: 16384
Bingo PHT WAYS: 16 and PHT_SIZE: 16384
Bingo2 PHT WAYS: 16 and PHT_SIZE: 16384
Bingo PHT WAYS: 16 and PHT_SIZE: 16384
Bingo2 PHT WAYS: 16 and PHT_SIZE: 16384
MAIN.cc ln 751 stats print skipped
CPU  1 inst:    1000000 cyc:     500000 now IPC :2.00000: AVG IPC :2.00000: L2-Pf-HR :0.77185: L2-HR :0.68419: (Sim:0h0m46s) 
CPU  2 inst:    1000000 cyc:     500035 now IPC :1.99986: AVG IPC :1.99986: L2-Pf-HR :0.77347: L2-HR :0.68547: (Sim:0h0m46s) 
CPU  0 inst:    1000000 cyc:     500120 now IPC :1.99952: AVG IPC :1.99952: L2-Pf-HR :0.73300: L2-HR :0.65785: (Sim:0h0m46s) 
CPU  3 inst:    1000000 cyc:     500276 now IPC :1.99890: AVG IPC :1.99890: L2-Pf-HR :0.77373: L2-HR :0.68271: (Sim:0h0m46s) 
CPU  1 inst:    2000003 cyc:     983435 now IPC :2.06854: AVG IPC :2.03369: L2-Pf-HR :0.80197: L2-HR :0.73854: (Sim:0h1m31s) 
CPU  2 inst:    2000003 cyc:     983454 now IPC :2.06861: AVG IPC :2.03365: L2-Pf-HR :0.80162: L2-HR :0.73766: (Sim:0h1m31s) 
CPU  0 inst:    2000003 cyc:     983533 now IPC :2.06863: AVG IPC :2.03349: L2-Pf-HR :0.76910: L2-HR :0.71608: (Sim:0h1m31s) 
CPU  3 inst:    2000003 cyc:     983625 now IPC :2.06890: AVG IPC :2.03330: L2-Pf-HR :0.79763: L2-HR :0.73394: (Sim:0h1m31s) 

Warmup complete CPU  0 instructions:    2000283 cycles:     983625 (Simulation time: 0 hr 1 min 31 sec) 
Warmup complete CPU  1 instructions:    2000416 cycles:     983625 (Simulation time: 0 hr 1 min 31 sec) 
Warmup complete CPU  2 instructions:    2000367 cycles:     983625 (Simulation time: 0 hr 1 min 31 sec) 
Warmup complete CPU  3 instructions:    2000003 cycles:     983625 (Simulation time: 0 hr 1 min 31 sec) 

CPU  1 inst:    3000000 cyc:    1804519 now IPC :1.21790: AVG IPC :1.21768: L2-Pf-HR :0.90887: L2-HR :0.77450: (Sim:0h2m16s) 
CPU  0 inst:    3000000 cyc:    1805127 now IPC :1.21714: AVG IPC :1.21694: L2-Pf-HR :0.91373: L2-HR :0.77734: (Sim:0h2m16s) 
CPU  2 inst:    3000000 cyc:    1805331 now IPC :1.21672: AVG IPC :1.21653: L2-Pf-HR :0.91769: L2-HR :0.77577: (Sim:0h2m16s) 
CPU  3 inst:    3000000 cyc:    1812671 now IPC :1.20620: AVG IPC :1.20620: L2-Pf-HR :0.91386: L2-HR :0.77639: (Sim:0h2m16s) 
CPU  1 inst:    4000002 cyc:    2621494 now IPC :1.22403: AVG IPC :1.22085: L2-Pf-HR :0.89203: L2-HR :0.76861: (Sim:0h2m59s) 
CPU  2 inst:    4000002 cyc:    2622948 now IPC :1.22307: AVG IPC :1.21979: L2-Pf-HR :0.90003: L2-HR :0.76887: (Sim:0h2m59s) 
CPU  0 inst:    4000002 cyc:    2630268 now IPC :1.21192: AVG IPC :1.21442: L2-Pf-HR :0.89532: L2-HR :0.77087: (Sim:0h3m0s) 
CPU  3 inst:    4000002 cyc:    2643432 now IPC :1.20372: AVG IPC :1.20496: L2-Pf-HR :0.89646: L2-HR :0.77032: (Sim:0h3m1s) 
CPU  1 inst:    5000000 cyc:    3386116 now IPC :1.30783: AVG IPC :1.24853: L2-Pf-HR :0.88763: L2-HR :0.77000: (Sim:0h3m42s) 
CPU  2 inst:    5000000 cyc:    3406414 now IPC :1.27638: AVG IPC :1.23809: L2-Pf-HR :0.89135: L2-HR :0.76754: (Sim:0h3m43s) 
CPU  3 inst:    5000000 cyc:    3442039 now IPC :1.25218: AVG IPC :1.22030: L2-Pf-HR :0.88837: L2-HR :0.76720: (Sim:0h3m45s) 
CPU  0 inst:    5000000 cyc:    3445287 now IPC :1.22696: AVG IPC :1.21857: L2-Pf-HR :0.89063: L2-HR :0.77203: (Sim:0h3m45s) 
CPU  1 inst:    6000005 cyc:    4150156 now IPC :1.30884: AVG IPC :1.26308: L2-Pf-HR :0.88934: L2-HR :0.76813: (Sim:0h4m24s) 
CPU  2 inst:    6000005 cyc:    4200081 now IPC :1.25998: AVG IPC :1.24349: L2-Pf-HR :0.89205: L2-HR :0.76590: (Sim:0h4m27s) 
CPU  0 inst:    6000005 cyc:    4238308 now IPC :1.26101: AVG IPC :1.22891: L2-Pf-HR :0.89149: L2-HR :0.77032: (Sim:0h4m29s) 
CPU  3 inst:    6000005 cyc:    4238639 now IPC :1.25534: AVG IPC :1.22887: L2-Pf-HR :0.88790: L2-HR :0.76403: (Sim:0h4m29s) 
CPU  1 inst:    7000004 cyc:    5017275 now IPC :1.15324: AVG IPC :1.23947: L2-Pf-HR :0.88888: L2-HR :0.76861: (Sim:0h5m5s) 
CPU  2 inst:    7000004 cyc:    5254636 now IPC :0.94827: AVG IPC :1.17060: L2-Pf-HR :0.89059: L2-HR :0.76573: (Sim:0h5m16s) 
CPU  0 inst:    7000004 cyc:    5341608 now IPC :0.90637: AVG IPC :1.14726: L2-Pf-HR :0.89044: L2-HR :0.77133: (Sim:0h5m20s) 
CPU  3 inst:    7000004 cyc:    5350928 now IPC :0.89905: AVG IPC :1.14487: L2-Pf-HR :0.88736: L2-HR :0.76402: (Sim:0h5m21s) 
CPU  1 inst:    8000000 cyc:    5805401 now IPC :1.26883: AVG IPC :1.24427: L2-Pf-HR :0.89611: L2-HR :0.77018: (Sim:0h5m44s) 
CPU  2 inst:    8000000 cyc:    6118368 now IPC :1.15776: AVG IPC :1.16844: L2-Pf-HR :0.89723: L2-HR :0.76750: (Sim:0h5m59s) 
CPU  3 inst:    8000000 cyc:    6361718 now IPC :0.98932: AVG IPC :1.11564: L2-Pf-HR :0.89422: L2-HR :0.76508: (Sim:0h6m11s) 
CPU  0 inst:    8000000 cyc:    6362466 now IPC :0.97956: AVG IPC :1.11543: L2-Pf-HR :0.89649: L2-HR :0.77179: (Sim:0h6m11s) 
CPU  1 inst:    9000002 cyc:    6753433 now IPC :1.05482: AVG IPC :1.21314: L2-Pf-HR :0.90037: L2-HR :0.77009: (Sim:0h6m29s) 
CPU  2 inst:    9000002 cyc:    6951600 now IPC :1.20015: AVG IPC :1.17287: L2-Pf-HR :0.90171: L2-HR :0.76837: (Sim:0h6m39s) 
CPU  3 inst:    9000002 cyc:    7480657 now IPC :0.89371: AVG IPC :1.07741: L2-Pf-HR :0.89920: L2-HR :0.76582: (Sim:0h7m3s) 
CPU  0 inst:    9000002 cyc:    7495720 now IPC :0.88242: AVG IPC :1.07488: L2-Pf-HR :0.90103: L2-HR :0.77223: (Sim:0h7m3s) 
CPU  1 inst:   10000001 cyc:    7875150 now IPC :0.89149: AVG IPC :1.16079: L2-Pf-HR :0.90355: L2-HR :0.76877: (Sim:0h7m19s) 
CPU  2 inst:   10000001 cyc:    7914336 now IPC :1.03871: AVG IPC :1.15423: L2-Pf-HR :0.90531: L2-HR :0.76816: (Sim:0h7m21s) 
CPU  3 inst:   10000001 cyc:    8615906 now IPC :0.88086: AVG IPC :1.04818: L2-Pf-HR :0.90406: L2-HR :0.76616: (Sim:0h7m50s) 
CPU  0 inst:   10000001 cyc:    8734339 now IPC :0.80735: AVG IPC :1.03213: L2-Pf-HR :0.90285: L2-HR :0.77154: (Sim:0h7m55s) 
CPU  1 inst:   11000002 cyc:    9031161 now IPC :0.86504: AVG IPC :1.11830: L2-Pf-HR :0.90570: L2-HR :0.76810: (Sim:0h8m9s) 
CPU  2 inst:   11000002 cyc:    9050194 now IPC :0.88039: AVG IPC :1.11567: L2-Pf-HR :0.90709: L2-HR :0.76834: (Sim:0h8m10s) 
CPU  3 inst:   11000002 cyc:    9449613 now IPC :1.19946: AVG IPC :1.06308: L2-Pf-HR :0.90647: L2-HR :0.76659: (Sim:0h8m29s) 
CPU  0 inst:   11000002 cyc:    9763962 now IPC :0.97123: AVG IPC :1.02499: L2-Pf-HR :0.90476: L2-HR :0.77121: (Sim:0h8m45s) 
CPU  1 inst:   12000005 cyc:    9983138 now IPC :1.05045: AVG IPC :1.11113: L2-Pf-HR :0.90581: L2-HR :0.76731: (Sim:0h8m55s) 
CPU  2 inst:   12000005 cyc:   10022463 now IPC :1.02852: AVG IPC :1.10630: L2-Pf-HR :0.90709: L2-HR :0.76816: (Sim:0h8m57s) 
CPU  3 inst:   12000005 cyc:   10285076 now IPC :1.19694: AVG IPC :1.07510: L2-Pf-HR :0.90783: L2-HR :0.76681: (Sim:0h9m5s) 
CPU  0 inst:   12000005 cyc:   10940355 now IPC :0.85006: AVG IPC :1.00432: L2-Pf-HR :0.90605: L2-HR :0.77137: (Sim:0h9m23s) 
CPU  1 inst:   13000005 cyc:   11179797 now IPC :0.83566: AVG IPC :1.07880: L2-Pf-HR :0.90429: L2-HR :0.76994: (Sim:0h9m31s) 
CPU  2 inst:   13000005 cyc:   11274780 now IPC :0.79852: AVG IPC :1.06884: L2-Pf-HR :0.90511: L2-HR :0.77037: (Sim:0h9m36s) 
CPU  3 inst:   13000000 cyc:   11391763 now IPC :0.90359: AVG IPC :1.05686: L2-Pf-HR :0.90610: L2-HR :0.76978: (Sim:0h9m40s) 
CPU  0 inst:   13000004 cyc:   11969787 now IPC :0.97141: AVG IPC :1.00123: L2-Pf-HR :0.90446: L2-HR :0.77380: (Sim:0h10m5s) 
CPU  1 inst:   14000002 cyc:   12140412 now IPC :1.04100: AVG IPC :1.07554: L2-Pf-HR :0.90505: L2-HR :0.77220: (Sim:0h10m13s) 
CPU  2 inst:   14000002 cyc:   12223684 now IPC :1.05384: AVG IPC :1.06758: L2-Pf-HR :0.90586: L2-HR :0.77235: (Sim:0h10m17s) 
CPU  3 inst:   14000004 cyc:   12358382 now IPC :1.03454: AVG IPC :1.05497: L2-Pf-HR :0.90693: L2-HR :0.77244: (Sim:0h10m24s) 
CPU  0 inst:   14000003 cyc:   13009698 now IPC :0.96162: AVG IPC :0.99781: L2-Pf-HR :0.90522: L2-HR :0.77582: (Sim:0h10m58s) 
CPU  1 inst:   15000004 cyc:   13144538 now IPC :0.99589: AVG IPC :1.06896: L2-Pf-HR :0.90335: L2-HR :0.77510: (Sim:0h11m3s) 
CPU  2 inst:   15000004 cyc:   13219168 now IPC :1.00454: AVG IPC :1.06245: L2-Pf-HR :0.90401: L2-HR :0.77497: (Sim:0h11m5s) 
CPU  3 inst:   15000004 cyc:   13327992 now IPC :1.03134: AVG IPC :1.05311: L2-Pf-HR :0.90596: L2-HR :0.77533: (Sim:0h11m11s) 
CPU  0 inst:   15000004 cyc:   13996467 now IPC :1.01341: AVG IPC :0.99899: L2-Pf-HR :0.90421: L2-HR :0.77830: (Sim:0h11m45s) 
CPU  1 inst:   16000005 cyc:   14221854 now IPC :0.92823: AVG IPC :1.05751: L2-Pf-HR :0.90165: L2-HR :0.77746: (Sim:0h11m57s) 
CPU  2 inst:   16000005 cyc:   14304672 now IPC :0.92123: AVG IPC :1.05094: L2-Pf-HR :0.90248: L2-HR :0.77688: (Sim:0h12m1s) 
CPU  3 inst:   16000005 cyc:   14366940 now IPC :0.96251: AVG IPC :1.04608: L2-Pf-HR :0.90449: L2-HR :0.77833: (Sim:0h12m4s) 
CPU  0 inst:   16000005 cyc:   15287953 now IPC :0.77430: AVG IPC :0.97871: L2-Pf-HR :0.90432: L2-HR :0.78048: (Sim:0h12m40s) 
CPU  1 inst:   17000001 cyc:   15694194 now IPC :0.67919: AVG IPC :1.01965: L2-Pf-HR :0.89552: L2-HR :0.77555: (Sim:0h12m56s) 
CPU  2 inst:   17000001 cyc:   15876769 now IPC :0.63609: AVG IPC :1.00715: L2-Pf-HR :0.89602: L2-HR :0.77512: (Sim:0h13m2s) 
CPU  3 inst:   17000001 cyc:   15886927 now IPC :0.65790: AVG IPC :1.00649: L2-Pf-HR :0.89812: L2-HR :0.77659: (Sim:0h13m2s) 
CPU  1 inst:   18000000 cyc:   16971408 now IPC :0.78295: AVG IPC :1.00074: L2-Pf-HR :0.89398: L2-HR :0.77487: (Sim:0h13m43s) 
CPU  0 inst:   17000001 cyc:   16992974 now IPC :0.58650: AVG IPC :0.93693: L2-Pf-HR :0.89802: L2-HR :0.77822: (Sim:0h13m44s) 
CPU  2 inst:   18000000 cyc:   17208312 now IPC :0.75101: AVG IPC :0.98613: L2-Pf-HR :0.89462: L2-HR :0.77503: (Sim:0h13m53s) 
CPU  3 inst:   18000000 cyc:   17320542 now IPC :0.69754: AVG IPC :0.97938: L2-Pf-HR :0.89648: L2-HR :0.77610: (Sim:0h13m58s) 
CPU  1 inst:   19000000 cyc:   18082073 now IPC :0.90036: AVG IPC :0.99422: L2-Pf-HR :0.89299: L2-HR :0.77420: (Sim:0h14m29s) 
CPU  0 inst:   18000000 cyc:   18331141 now IPC :0.74729: AVG IPC :0.92231: L2-Pf-HR :0.89707: L2-HR :0.77734: (Sim:0h14m40s) 
CPU  2 inst:   19000000 cyc:   18513147 now IPC :0.76638: AVG IPC :0.96977: L2-Pf-HR :0.89384: L2-HR :0.77455: (Sim:0h14m48s) 
CPU  3 inst:   19000001 cyc:   18712457 now IPC :0.71844: AVG IPC :0.95889: L2-Pf-HR :0.89599: L2-HR :0.77527: (Sim:0h14m56s) 
CPU  1 inst:   20000004 cyc:   19197765 now IPC :0.89631: AVG IPC :0.98822: L2-Pf-HR :0.89046: L2-HR :0.77284: (Sim:0h15m16s) 
CPU  2 inst:   20000004 cyc:   19560086 now IPC :0.95517: AVG IPC :0.96895: L2-Pf-HR :0.89139: L2-HR :0.77351: (Sim:0h15m32s) 
CPU  0 inst:   19000001 cyc:   19768161 now IPC :0.69589: AVG IPC :0.90498: L2-Pf-HR :0.89659: L2-HR :0.77639: (Sim:0h15m40s) 
CPU  3 inst:   20000004 cyc:   19954379 now IPC :0.80521: AVG IPC :0.94883: L2-Pf-HR :0.89384: L2-HR :0.77377: (Sim:0h15m48s) 
CPU  1 inst:   21000003 cyc:   20507736 now IPC :0.76337: AVG IPC :0.97313: L2-Pf-HR :0.89003: L2-HR :0.77216: (Sim:0h16m13s) 
CPU  2 inst:   21000003 cyc:   20666448 now IPC :0.90386: AVG IPC :0.96529: L2-Pf-HR :0.89131: L2-HR :0.77290: (Sim:0h16m21s) 
CPU  0 inst:   20000004 cyc:   21021588 now IPC :0.79782: AVG IPC :0.89828: L2-Pf-HR :0.89492: L2-HR :0.77468: (Sim:0h16m38s) 
CPU  3 inst:   21000003 cyc:   21332307 now IPC :0.72573: AVG IPC :0.93372: L2-Pf-HR :0.89361: L2-HR :0.77304: (Sim:0h16m52s) 
CPU  1 inst:   22000000 cyc:   21902442 now IPC :0.71699: AVG IPC :0.95606: L2-Pf-HR :0.88938: L2-HR :0.77127: (Sim:0h17m16s) 
CPU  2 inst:   22000000 cyc:   21967494 now IPC :0.76861: AVG IPC :0.95310: L2-Pf-HR :0.89027: L2-HR :0.77203: (Sim:0h17m18s) 
CPU  0 inst:   21000003 cyc:   22572023 now IPC :0.64498: AVG IPC :0.88009: L2-Pf-HR :0.89520: L2-HR :0.77367: (Sim:0h17m38s) 
CPU  3 inst:   22000000 cyc:   22671435 now IPC :0.74675: AVG IPC :0.92218: L2-Pf-HR :0.89286: L2-HR :0.77216: (Sim:0h17m41s) 
CPU  1 inst:   23000002 cyc:   23377067 now IPC :0.67814: AVG IPC :0.93776: L2-Pf-HR :0.88889: L2-HR :0.77110: (Sim:0h18m10s) 
CPU  2 inst:   23000002 cyc:   23434724 now IPC :0.68156: AVG IPC :0.93535: L2-Pf-HR :0.88963: L2-HR :0.77179: (Sim:0h18m12s) 
CPU  0 inst:   22000000 cyc:   23786317 now IPC :0.82352: AVG IPC :0.87708: L2-Pf-HR :0.89484: L2-HR :0.77243: (Sim:0h18m26s) 
CPU  3 inst:   23000002 cyc:   23979866 now IPC :0.76428: AVG IPC :0.91319: L2-Pf-HR :0.89197: L2-HR :0.77170: (Sim:0h18m36s) 
CPU  1 inst:   24000002 cyc:   24630104 now IPC :0.79806: AVG IPC :0.93035: L2-Pf-HR :0.89067: L2-HR :0.77117: (Sim:0h19m5s) 
CPU  2 inst:   24000002 cyc:   24669591 now IPC :0.80980: AVG IPC :0.92880: L2-Pf-HR :0.89131: L2-HR :0.77160: (Sim:0h19m7s) 
CPU  3 inst:   24000002 cyc:   25033022 now IPC :0.94953: AVG IPC :0.91478: L2-Pf-HR :0.89357: L2-HR :0.77134: (Sim:0h19m25s) 
CPU  0 inst:   23000002 cyc:   25044062 now IPC :0.79508: AVG IPC :0.87279: L2-Pf-HR :0.89395: L2-HR :0.77196: (Sim:0h19m26s) 
CPU  1 inst:   25000004 cyc:   25889144 now IPC :0.79426: AVG IPC :0.92347: L2-Pf-HR :0.89214: L2-HR :0.77108: (Sim:0h20m8s) 
CPU  2 inst:   25000005 cyc:   25900547 now IPC :0.81238: AVG IPC :0.92305: L2-Pf-HR :0.89268: L2-HR :0.77136: (Sim:0h20m9s) 
CPU  3 inst:   25000001 cyc:   26040553 now IPC :0.99252: AVG IPC :0.91791: L2-Pf-HR :0.89491: L2-HR :0.77098: (Sim:0h20m16s) 
CPU  0 inst:   24000002 cyc:   26050259 now IPC :0.99384: AVG IPC :0.87765: L2-Pf-HR :0.89541: L2-HR :0.77157: (Sim:0h20m16s) 
CPU  0 inst:   25000001 cyc:   27065443 now IPC :0.98504: AVG IPC :0.88183: L2-Pf-HR :0.89659: L2-HR :0.77117: (Sim:0h21m5s) 
CPU  2 inst:   26000004 cyc:   27166012 now IPC :0.79022: AVG IPC :0.91663: L2-Pf-HR :0.89286: L2-HR :0.77056: (Sim:0h21m10s) 
CPU  1 inst:   26000004 cyc:   27183363 now IPC :0.77267: AVG IPC :0.91602: L2-Pf-HR :0.89260: L2-HR :0.77058: (Sim:0h21m10s) 
CPU  3 inst:   26000004 cyc:   27220585 now IPC :0.84744: AVG IPC :0.91474: L2-Pf-HR :0.89517: L2-HR :0.77002: (Sim:0h21m12s) 
CPU  2 inst:   27000000 cyc:   28329612 now IPC :0.85940: AVG IPC :0.91420: L2-Pf-HR :0.89408: L2-HR :0.77056: (Sim:0h22m1s) 
CPU  0 inst:   26000004 cyc:   28330470 now IPC :0.79050: AVG IPC :0.87760: L2-Pf-HR :0.89675: L2-HR :0.77019: (Sim:0h22m1s) 
CPU  1 inst:   27000000 cyc:   28691778 now IPC :0.66294: AVG IPC :0.90225: L2-Pf-HR :0.89386: L2-HR :0.77050: (Sim:0h22m17s) 
CPU  3 inst:   27000000 cyc:   28717202 now IPC :0.66817: AVG IPC :0.90143: L2-Pf-HR :0.89640: L2-HR :0.76966: (Sim:0h22m19s) 
CPU  2 inst:   28000003 cyc:   29299138 now IPC :1.03143: AVG IPC :0.91821: L2-Pf-HR :0.89507: L2-HR :0.77028: (Sim:0h22m44s) 
CPU  0 inst:   27000000 cyc:   29772435 now IPC :0.69350: AVG IPC :0.86838: L2-Pf-HR :0.89785: L2-HR :0.76980: (Sim:0h23m4s) 
CPU  1 inst:   28000003 cyc:   30195387 now IPC :0.66507: AVG IPC :0.89004: L2-Pf-HR :0.89489: L2-HR :0.77032: (Sim:0h23m21s) 
CPU  3 inst:   28000003 cyc:   30263030 now IPC :0.64690: AVG IPC :0.88800: L2-Pf-HR :0.89727: L2-HR :0.76920: (Sim:0h23m23s) 
CPU  2 inst:   29000002 cyc:   30644876 now IPC :0.74309: AVG IPC :0.91027: L2-Pf-HR :0.89480: L2-HR :0.77100: (Sim:0h23m40s) 
CPU  0 inst:   28000003 cyc:   31169662 now IPC :0.71571: AVG IPC :0.86132: L2-Pf-HR :0.89860: L2-HR :0.76939: (Sim:0h24m4s) 
CPU  3 inst:   29000002 cyc:   31735561 now IPC :0.67910: AVG IPC :0.87799: L2-Pf-HR :0.89684: L2-HR :0.76961: (Sim:0h24m28s) 
CPU  1 inst:   29000002 cyc:   31753002 now IPC :0.64201: AVG IPC :0.87748: L2-Pf-HR :0.89449: L2-HR :0.77065: (Sim:0h24m29s) 
CPU  2 inst:   30000002 cyc:   31871092 now IPC :0.81552: AVG IPC :0.90650: L2-Pf-HR :0.89555: L2-HR :0.77226: (Sim:0h24m34s) 
CPU  0 inst:   29000002 cyc:   32563458 now IPC :0.71746: AVG IPC :0.85497: L2-Pf-HR :0.89817: L2-HR :0.77002: (Sim:0h25m5s) 
CPU  3 inst:   30000004 cyc:   33033885 now IPC :0.77023: AVG IPC :0.87363: L2-Pf-HR :0.89748: L2-HR :0.77044: (Sim:0h25m27s) 
CPU  2 inst:   31000005 cyc:   33089364 now IPC :0.82084: AVG IPC :0.90325: L2-Pf-HR :0.89466: L2-HR :0.77371: (Sim:0h25m30s) 
CPU  1 inst:   30000004 cyc:   33157664 now IPC :0.71192: AVG IPC :0.87025: L2-Pf-HR :0.89499: L2-HR :0.77116: (Sim:0h25m34s) 
CPU  0 inst:   30000004 cyc:   33747099 now IPC :0.84485: AVG IPC :0.85460: L2-Pf-HR :0.89871: L2-HR :0.77109: (Sim:0h26m6s) 
CPU  3 inst:   31000004 cyc:   34050983 now IPC :0.98319: AVG IPC :0.87700: L2-Pf-HR :0.89675: L2-HR :0.77132: (Sim:0h26m23s) 
CPU  2 inst:   32000001 cyc:   34227150 now IPC :0.87890: AVG IPC :0.90242: L2-Pf-HR :0.89405: L2-HR :0.77488: (Sim:0h26m32s) 
CPU  1 inst:   31000002 cyc:   34302608 now IPC :0.87340: AVG IPC :0.87036: L2-Pf-HR :0.89422: L2-HR :0.77175: (Sim:0h26m36s) 
CPU  0 inst:   31000003 cyc:   34888918 now IPC :0.87579: AVG IPC :0.85532: L2-Pf-HR :0.89802: L2-HR :0.77230: (Sim:0h27m3s) 
CPU  3 inst:   32000002 cyc:   35117936 now IPC :0.93725: AVG IPC :0.87888: L2-Pf-HR :0.89563: L2-HR :0.77198: (Sim:0h27m16s) 
CPU  2 inst:   33000001 cyc:   35447563 now IPC :0.81939: AVG IPC :0.89948: L2-Pf-HR :0.89157: L2-HR :0.77457: (Sim:0h27m35s) 
CPU  1 inst:   32000005 cyc:   35617599 now IPC :0.76046: AVG IPC :0.86619: L2-Pf-HR :0.89337: L2-HR :0.77231: (Sim:0h27m42s) 
CPU  0 inst:   32000002 cyc:   36087491 now IPC :0.83432: AVG IPC :0.85460: L2-Pf-HR :0.89818: L2-HR :0.77334: (Sim:0h28m7s) 
CPU  3 inst:   33000002 cyc:   36441752 now IPC :0.75539: AVG IPC :0.87427: L2-Pf-HR :0.89363: L2-HR :0.77205: (Sim:0h28m25s) 
CPU  2 inst:   34000002 cyc:   36780084 now IPC :0.75046: AVG IPC :0.89393: L2-Pf-HR :0.89135: L2-HR :0.77422: (Sim:0h28m39s) 
CPU  1 inst:   33000001 cyc:   36864867 now IPC :0.80175: AVG IPC :0.86395: L2-Pf-HR :0.89131: L2-HR :0.77187: (Sim:0h28m43s) 
CPU  0 inst:   33000000 cyc:   37606998 now IPC :0.65811: AVG IPC :0.84645: L2-Pf-HR :0.89582: L2-HR :0.77317: (Sim:0h29m24s) 
CPU  3 inst:   34000002 cyc:   37880106 now IPC :0.69524: AVG IPC :0.86729: L2-Pf-HR :0.89360: L2-HR :0.77175: (Sim:0h29m39s) 
CPU  2 inst:   35000005 cyc:   38015828 now IPC :0.80923: AVG IPC :0.89111: L2-Pf-HR :0.89070: L2-HR :0.77392: (Sim:0h29m47s) 
CPU  1 inst:   34000002 cyc:   38042784 now IPC :0.84896: AVG IPC :0.86347: L2-Pf-HR :0.89144: L2-HR :0.77159: (Sim:0h29m49s) 
CPU  0 inst:   34000002 cyc:   39001915 now IPC :0.71689: AVG IPC :0.84169: L2-Pf-HR :0.89563: L2-HR :0.77276: (Sim:0h30m47s) 
CPU  2 inst:   36000004 cyc:   39089650 now IPC :0.93125: AVG IPC :0.89224: L2-Pf-HR :0.88970: L2-HR :0.77319: (Sim:0h30m53s) 
CPU  3 inst:   35000005 cyc:   39125068 now IPC :0.80324: AVG IPC :0.86520: L2-Pf-HR :0.89325: L2-HR :0.77149: (Sim:0h30m56s) 
CPU  1 inst:   35000000 cyc:   39381566 now IPC :0.74695: AVG IPC :0.85941: L2-Pf-HR :0.89159: L2-HR :0.77125: (Sim:0h31m11s) 
CPU  2 inst:   37000004 cyc:   40204776 now IPC :0.89676: AVG IPC :0.89237: L2-Pf-HR :0.88906: L2-HR :0.77302: (Sim:0h32m3s) 
CPU  3 inst:   36000004 cyc:   40261602 now IPC :0.87987: AVG IPC :0.86563: L2-Pf-HR :0.89225: L2-HR :0.77076: (Sim:0h32m7s) 
CPU  0 inst:   35000000 cyc:   40349197 now IPC :0.74223: AVG IPC :0.83829: L2-Pf-HR :0.89525: L2-HR :0.77241: (Sim:0h32m12s) 
CPU  1 inst:   36000004 cyc:   40671069 now IPC :0.77550: AVG IPC :0.85668: L2-Pf-HR :0.89079: L2-HR :0.77053: (Sim:0h32m29s) 
CPU  3 inst:   37000004 cyc:   41396973 now IPC :0.88077: AVG IPC :0.86605: L2-Pf-HR :0.89178: L2-HR :0.77054: (Sim:0h33m10s) 
CPU  2 inst:   38000001 cyc:   41424363 now IPC :0.81995: AVG IPC :0.89018: L2-Pf-HR :0.88864: L2-HR :0.77265: (Sim:0h33m12s) 
CPU  0 inst:   36000004 cyc:   41619216 now IPC :0.78739: AVG IPC :0.83670: L2-Pf-HR :0.89445: L2-HR :0.77166: (Sim:0h33m24s) 
CPU  1 inst:   37000004 cyc:   42151682 now IPC :0.67540: AVG IPC :0.85016: L2-Pf-HR :0.89057: L2-HR :0.77034: (Sim:0h33m54s) 
CPU  3 inst:   38000001 cyc:   42694276 now IPC :0.77083: AVG IPC :0.86309: L2-Pf-HR :0.89134: L2-HR :0.77024: (Sim:0h34m21s) 
CPU  0 inst:   37000004 cyc:   42866314 now IPC :0.80186: AVG IPC :0.83566: L2-Pf-HR :0.89408: L2-HR :0.77129: (Sim:0h34m32s) 
CPU  2 inst:   39000002 cyc:   42934946 now IPC :0.66200: AVG IPC :0.88197: L2-Pf-HR :0.88807: L2-HR :0.77241: (Sim:0h34m36s) 
CPU  1 inst:   38000001 cyc:   43377718 now IPC :0.81563: AVG IPC :0.84917: L2-Pf-HR :0.89030: L2-HR :0.77005: (Sim:0h35m0s) 
CPU  0 inst:   38000001 cyc:   44037074 now IPC :0.85414: AVG IPC :0.83616: L2-Pf-HR :0.89369: L2-HR :0.77098: (Sim:0h35m38s) 
CPU  3 inst:   39000002 cyc:   44049783 now IPC :0.73773: AVG IPC :0.85914: L2-Pf-HR :0.89066: L2-HR :0.77002: (Sim:0h35m38s) 
CPU  2 inst:   40000004 cyc:   44190189 now IPC :0.79666: AVG IPC :0.87949: L2-Pf-HR :0.88913: L2-HR :0.77220: (Sim:0h35m47s) 
CPU  1 inst:   39000002 cyc:   44623861 now IPC :0.80248: AVG IPC :0.84783: L2-Pf-HR :0.88963: L2-HR :0.76982: (Sim:0h36m11s) 
CPU  0 inst:   39000002 cyc:   45177066 now IPC :0.87720: AVG IPC :0.83722: L2-Pf-HR :0.89295: L2-HR :0.77066: (Sim:0h36m47s) 
CPU  3 inst:   40000004 cyc:   45183961 now IPC :0.88170: AVG IPC :0.85972: L2-Pf-HR :0.89164: L2-HR :0.76984: (Sim:0h36m47s) 
CPU  2 inst:   41000002 cyc:   45299394 now IPC :0.90154: AVG IPC :0.88004: L2-Pf-HR :0.89001: L2-HR :0.77197: (Sim:0h36m57s) 
CPU  1 inst:   40000004 cyc:   45648190 now IPC :0.97625: AVG IPC :0.85078: L2-Pf-HR :0.89059: L2-HR :0.76967: (Sim:0h37m20s) 
CPU  0 inst:   40000004 cyc:   46144837 now IPC :1.03330: AVG IPC :0.84142: L2-Pf-HR :0.89387: L2-HR :0.77048: (Sim:0h37m55s) 
CPU  3 inst:   41000002 cyc:   46217335 now IPC :0.96770: AVG IPC :0.86219: L2-Pf-HR :0.89247: L2-HR :0.76964: (Sim:0h38m1s) 
CPU  2 inst:   42000004 cyc:   46311864 now IPC :0.98769: AVG IPC :0.88244: L2-Pf-HR :0.89025: L2-HR :0.77141: (Sim:0h38m7s) 
CPU  1 inst:   41000002 cyc:   46674927 now IPC :0.97396: AVG IPC :0.85355: L2-Pf-HR :0.89136: L2-HR :0.76948: (Sim:0h38m32s) 
CPU  0 inst:   41000002 cyc:   47152710 now IPC :0.99219: AVG IPC :0.84471: L2-Pf-HR :0.89463: L2-HR :0.77025: (Sim:0h39m2s) 
CPU  3 inst:   42000004 cyc:   47217847 now IPC :0.99949: AVG IPC :0.86516: L2-Pf-HR :0.89266: L2-HR :0.76913: (Sim:0h39m6s) 
CPU  2 inst:   43000000 cyc:   47349255 now IPC :0.96395: AVG IPC :0.88427: L2-Pf-HR :0.89114: L2-HR :0.77122: (Sim:0h39m15s) 
CPU  1 inst:   42000005 cyc:   47597833 now IPC :1.08354: AVG IPC :0.85810: L2-Pf-HR :0.89150: L2-HR :0.76890: (Sim:0h39m27s) 
CPU  0 inst:   42000004 cyc:   48102033 now IPC :1.05338: AVG IPC :0.84892: L2-Pf-HR :0.89463: L2-HR :0.76975: (Sim:0h40m0s) 
CPU  3 inst:   43000003 cyc:   48278373 now IPC :0.94293: AVG IPC :0.86690: L2-Pf-HR :0.89351: L2-HR :0.76899: (Sim:0h40m15s) 
CPU  2 inst:   44000001 cyc:   48411564 now IPC :0.94135: AVG IPC :0.88555: L2-Pf-HR :0.89196: L2-HR :0.77099: (Sim:0h40m24s) 
CPU  1 inst:   43000003 cyc:   48512702 now IPC :1.09305: AVG IPC :0.86262: L2-Pf-HR :0.89231: L2-HR :0.76872: (Sim:0h40m32s) 
CPU  0 inst:   43000005 cyc:   49176686 now IPC :0.93053: AVG IPC :0.85074: L2-Pf-HR :0.89541: L2-HR :0.76958: (Sim:0h41m15s) 
CPU  3 inst:   44000001 cyc:   49388083 now IPC :0.90113: AVG IPC :0.86769: L2-Pf-HR :0.89431: L2-HR :0.76881: (Sim:0h41m29s) 
CPU  2 inst:   45000004 cyc:   49456932 now IPC :0.95660: AVG IPC :0.88708: L2-Pf-HR :0.89167: L2-HR :0.77114: (Sim:0h41m32s) 
CPU  1 inst:   44000001 cyc:   49555401 now IPC :0.95905: AVG IPC :0.86469: L2-Pf-HR :0.89301: L2-HR :0.76853: (Sim:0h41m38s) 
CPU  0 inst:   44000001 cyc:   50429097 now IPC :0.79846: AVG IPC :0.84941: L2-Pf-HR :0.89615: L2-HR :0.76938: (Sim:0h42m32s) 
CPU  3 inst:   45000004 cyc:   50553040 now IPC :0.85840: AVG IPC :0.86747: L2-Pf-HR :0.89402: L2-HR :0.76905: (Sim:0h42m41s) 
CPU  2 inst:   46000005 cyc:   50656866 now IPC :0.83338: AVG IPC :0.88578: L2-Pf-HR :0.89212: L2-HR :0.77186: (Sim:0h42m48s) 
CPU  1 inst:   45000004 cyc:   50788672 now IPC :0.81085: AVG IPC :0.86336: L2-Pf-HR :0.89265: L2-HR :0.76875: (Sim:0h42m56s) 
CPU  0 inst:   45000004 cyc:   51607538 now IPC :0.84858: AVG IPC :0.84940: L2-Pf-HR :0.89580: L2-HR :0.76958: (Sim:0h43m47s) 
CPU  3 inst:   46000005 cyc:   51655075 now IPC :0.90741: AVG IPC :0.86834: L2-Pf-HR :0.89446: L2-HR :0.76987: (Sim:0h43m51s) 
CPU  2 inst:   47000002 cyc:   51709628 now IPC :0.94988: AVG IPC :0.88711: L2-Pf-HR :0.89201: L2-HR :0.77265: (Sim:0h43m54s) 
CPU  1 inst:   46000005 cyc:   51783712 now IPC :1.00499: AVG IPC :0.86613: L2-Pf-HR :0.89308: L2-HR :0.76951: (Sim:0h43m58s) 
CPU  3 inst:   47000002 cyc:   52780305 now IPC :0.88870: AVG IPC :0.86878: L2-Pf-HR :0.89433: L2-HR :0.77078: (Sim:0h44m59s) 
CPU  1 inst:   47000002 cyc:   52921431 now IPC :0.87895: AVG IPC :0.86641: L2-Pf-HR :0.89306: L2-HR :0.77035: (Sim:0h45m9s) 
CPU  0 inst:   46000005 cyc:   52934555 now IPC :0.75357: AVG IPC :0.84695: L2-Pf-HR :0.89614: L2-HR :0.77033: (Sim:0h45m9s) 
CPU  2 inst:   48000002 cyc:   52994921 now IPC :0.77803: AVG IPC :0.88442: L2-Pf-HR :0.89175: L2-HR :0.77339: (Sim:0h45m13s) 
CPU  3 inst:   48000002 cyc:   53766683 now IPC :1.01381: AVG IPC :0.87149: L2-Pf-HR :0.89428: L2-HR :0.77166: (Sim:0h45m58s) 
CPU  0 inst:   47000002 cyc:   54186571 now IPC :0.79871: AVG IPC :0.84581: L2-Pf-HR :0.89610: L2-HR :0.77115: (Sim:0h46m29s) 
CPU  1 inst:   48000002 cyc:   54195095 now IPC :0.78514: AVG IPC :0.86447: L2-Pf-HR :0.89316: L2-HR :0.77124: (Sim:0h46m30s) 
CPU  2 inst:   49000005 cyc:   54281808 now IPC :0.77707: AVG IPC :0.88182: L2-Pf-HR :0.88994: L2-HR :0.77322: (Sim:0h46m36s) 
CPU  3 inst:   49000005 cyc:   54998862 now IPC :0.81157: AVG IPC :0.87012: L2-Pf-HR :0.89248: L2-HR :0.77165: (Sim:0h47m19s) 
CPU  1 inst:   49000005 cyc:   55447176 now IPC :0.79867: AVG IPC :0.86295: L2-Pf-HR :0.89131: L2-HR :0.77115: (Sim:0h47m52s) 
CPU  2 inst:   50000003 cyc:   55455623 now IPC :0.85192: AVG IPC :0.88118: L2-Pf-HR :0.88956: L2-HR :0.77311: (Sim:0h47m53s) 
CPU  0 inst:   48000002 cyc:   55470491 now IPC :0.77886: AVG IPC :0.84424: L2-Pf-HR :0.89661: L2-HR :0.77192: (Sim:0h47m53s) 
CPU  3 inst:   50000003 cyc:   56102483 now IPC :0.90611: AVG IPC :0.87085: L2-Pf-HR :0.89210: L2-HR :0.77156: (Sim:0h48m33s) 
CPU  1 inst:   50000003 cyc:   56531721 now IPC :0.92204: AVG IPC :0.86411: L2-Pf-HR :0.89100: L2-HR :0.77102: (Sim:0h49m1s) 
CPU  2 inst:   51000004 cyc:   56619258 now IPC :0.85938: AVG IPC :0.88072: L2-Pf-HR :0.88910: L2-HR :0.77291: (Sim:0h49m7s) 
CPU  0 inst:   49000005 cyc:   56845825 now IPC :0.72710: AVG IPC :0.84135: L2-Pf-HR :0.89514: L2-HR :0.77185: (Sim:0h49m20s) 
CPU  3 inst:   51000004 cyc:   57584593 now IPC :0.67471: AVG IPC :0.86571: L2-Pf-HR :0.89176: L2-HR :0.77135: (Sim:0h50m4s) 
CPU  1 inst:   51000004 cyc:   57720186 now IPC :0.84142: AVG IPC :0.86363: L2-Pf-HR :0.89057: L2-HR :0.77081: (Sim:0h50m11s) 
CPU  2 inst:   52000000 cyc:   57891315 now IPC :0.78613: AVG IPC :0.87861: L2-Pf-HR :0.88811: L2-HR :0.77257: (Sim:0h50m20s) 
CPU  0 inst:   50000003 cyc:   58442024 now IPC :0.62649: AVG IPC :0.83538: L2-Pf-HR :0.89495: L2-HR :0.77164: (Sim:0h50m49s) 
CPU  3 inst:   52000001 cyc:   58958809 now IPC :0.72769: AVG IPC :0.86244: L2-Pf-HR :0.89086: L2-HR :0.77103: (Sim:0h51m20s) 
CPU  1 inst:   52000005 cyc:   59115310 now IPC :0.71678: AVG IPC :0.86011: L2-Pf-HR :0.88959: L2-HR :0.77045: (Sim:0h51m29s) 
CPU  2 inst:   53000003 cyc:   59506631 now IPC :0.61908: AVG IPC :0.87145: L2-Pf-HR :0.88772: L2-HR :0.77239: (Sim:0h51m51s) 
CPU  0 inst:   51000004 cyc:   60008536 now IPC :0.63836: AVG IPC :0.83015: L2-Pf-HR :0.89474: L2-HR :0.77138: (Sim:0h52m21s) 
CPU  3 inst:   53000003 cyc:   60141610 now IPC :0.84545: AVG IPC :0.86210: L2-Pf-HR :0.89054: L2-HR :0.77087: (Sim:0h52m31s) 
CPU  1 inst:   53000003 cyc:   60558729 now IPC :0.69280: AVG IPC :0.85606: L2-Pf-HR :0.88914: L2-HR :0.77028: (Sim:0h53m0s) 
CPU  2 inst:   54000001 cyc:   60919223 now IPC :0.70792: AVG IPC :0.86759: L2-Pf-HR :0.88768: L2-HR :0.77223: (Sim:0h53m27s) 
Caught signal: 2
     > Finished combination: TraceType=770-tot Sim:326000000 Prefetcher=L2bingo_dpc3 L1=bingo_dpc3
