TRACE: [597000000][OPT-6_7B]_[h32][s512][d128] Warmup: 2000000 NumTraces: 597000000
L1:next_line:L2:no
*************************************************
   ChampSim Multicore Out-of-Order Simulator
   Last compiled: Oct 22 2024 11:25:28
*************************************************

trace_0 770-tot_memTraces_v3/memTraces[597000000][OPT-6_7B]_[h32][s512][d128].champsim.xz
CPU 0 L1D next line prefetcher
MAIN.cc ln 751 stats print skipped
CPU  0 inst:    1000000 cyc:     505565 now IPC :1.97799: AVG IPC :1.97799: L2-Pf-HR :0.47267: L2-HR :0.56836: (Sim:0h0m5s) 
CPU  0 inst:    2000000 cyc:     995617 now IPC :2.04060: AVG IPC :2.00880: L2-Pf-HR :0.60606: L2-HR :0.67739: (Sim:0h0m10s) 

Warmup complete CPU  0 instructions:    2000001 cycles:     995618 (Simulation time: 0 hr 0 min 10 sec) 

CPU  0 inst:    3000002 cyc:    1554889 now IPC :1.78804: AVG IPC :1.78804: L2-Pf-HR :0.72643: L2-HR :0.82983: (Sim:0h0m15s) 
CPU  0 inst:    4000005 cyc:    2106629 now IPC :1.81245: AVG IPC :1.80017: L2-Pf-HR :0.73351: L2-HR :0.83643: (Sim:0h0m20s) 
CPU  0 inst:    5000003 cyc:    2664124 now IPC :1.79373: AVG IPC :1.79802: L2-Pf-HR :0.73345: L2-HR :0.83764: (Sim:0h0m27s) 
CPU  0 inst:    6000003 cyc:    3219220 now IPC :1.80149: AVG IPC :1.79888: L2-Pf-HR :0.74601: L2-HR :0.84160: (Sim:0h0m34s) 
CPU  0 inst:    7000003 cyc:    3778040 now IPC :1.78948: AVG IPC :1.79700: L2-Pf-HR :0.74867: L2-HR :0.83541: (Sim:0h0m41s) 
CPU  0 inst:    8000000 cyc:    4300034 now IPC :1.91573: AVG IPC :1.81575: L2-Pf-HR :0.75952: L2-HR :0.84123: (Sim:0h0m48s) 
CPU  0 inst:    9000001 cyc:    4915846 now IPC :1.62387: AVG IPC :1.78561: L2-Pf-HR :0.74333: L2-HR :0.83034: (Sim:0h0m56s) 
CPU  0 inst:   10000001 cyc:    5443287 now IPC :1.89595: AVG IPC :1.79869: L2-Pf-HR :0.74799: L2-HR :0.83472: (Sim:0h1m3s) 
CPU  0 inst:   11000000 cyc:    5972411 now IPC :1.88991: AVG IPC :1.80839: L2-Pf-HR :0.74938: L2-HR :0.83718: (Sim:0h1m10s) 
CPU  0 inst:   12000002 cyc:    6500397 now IPC :1.89399: AVG IPC :1.81660: L2-Pf-HR :0.75029: L2-HR :0.83891: (Sim:0h1m16s) 
CPU  0 inst:   13000001 cyc:    7034793 now IPC :1.87127: AVG IPC :1.82144: L2-Pf-HR :0.74974: L2-HR :0.83942: (Sim:0h1m23s) 
CPU  0 inst:   14000000 cyc:    7564062 now IPC :1.88940: AVG IPC :1.82692: L2-Pf-HR :0.75256: L2-HR :0.84080: (Sim:0h1m30s) 
CPU  0 inst:   15000002 cyc:    8134232 now IPC :1.75387: AVG IPC :1.82108: L2-Pf-HR :0.75404: L2-HR :0.83904: (Sim:0h1m37s) 
CPU  0 inst:   16000000 cyc:    8669461 now IPC :1.86836: AVG IPC :1.82438: L2-Pf-HR :0.75826: L2-HR :0.84113: (Sim:0h1m44s) 
CPU  0 inst:   17000002 cyc:    9346273 now IPC :1.47752: AVG IPC :1.79627: L2-Pf-HR :0.75155: L2-HR :0.83619: (Sim:0h1m52s) 
CPU  0 inst:   18000001 cyc:    9903594 now IPC :1.79430: AVG IPC :1.79614: L2-Pf-HR :0.75311: L2-HR :0.83800: (Sim:0h1m57s) 
CPU  0 inst:   19000000 cyc:   10451294 now IPC :1.82582: AVG IPC :1.79786: L2-Pf-HR :0.75392: L2-HR :0.83941: (Sim:0h2m2s) 
CPU  0 inst:   20000002 cyc:   11010901 now IPC :1.78697: AVG IPC :1.79725: L2-Pf-HR :0.75405: L2-HR :0.84003: (Sim:0h2m8s) 
CPU  0 inst:   21000004 cyc:   11571490 now IPC :1.78384: AVG IPC :1.79654: L2-Pf-HR :0.75360: L2-HR :0.84015: (Sim:0h2m13s) 
CPU  0 inst:   22000003 cyc:   12123584 now IPC :1.81128: AVG IPC :1.79727: L2-Pf-HR :0.75509: L2-HR :0.84100: (Sim:0h2m20s) 
CPU  0 inst:   23000002 cyc:   12705874 now IPC :1.71736: AVG IPC :1.79330: L2-Pf-HR :0.75597: L2-HR :0.83998: (Sim:0h2m27s) 
CPU  0 inst:   24000000 cyc:   13244528 now IPC :1.85648: AVG IPC :1.79608: L2-Pf-HR :0.75876: L2-HR :0.84118: (Sim:0h2m34s) 
CPU  0 inst:   25000005 cyc:   13931808 now IPC :1.45502: AVG IPC :1.77796: L2-Pf-HR :0.75394: L2-HR :0.83782: (Sim:0h2m42s) 
CPU  0 inst:   26000003 cyc:   14489157 now IPC :1.79420: AVG IPC :1.77863: L2-Pf-HR :0.75478: L2-HR :0.83894: (Sim:0h2m49s) 
CPU  0 inst:   27000002 cyc:   15040470 now IPC :1.81385: AVG IPC :1.78001: L2-Pf-HR :0.75541: L2-HR :0.83992: (Sim:0h2m56s) 
CPU  0 inst:   28000002 cyc:   15602264 now IPC :1.78001: AVG IPC :1.78001: L2-Pf-HR :0.75550: L2-HR :0.84028: (Sim:0h3m3s) 
CPU  0 inst:   29000000 cyc:   16160547 now IPC :1.79120: AVG IPC :1.78042: L2-Pf-HR :0.75501: L2-HR :0.84028: (Sim:0h3m10s) 
CPU  0 inst:   30000003 cyc:   16710607 now IPC :1.81799: AVG IPC :1.78174: L2-Pf-HR :0.75648: L2-HR :0.84114: (Sim:0h3m17s) 
CPU  0 inst:   31000004 cyc:   17292361 now IPC :1.71894: AVG IPC :1.77950: L2-Pf-HR :0.75695: L2-HR :0.84036: (Sim:0h3m22s) 
CPU  0 inst:   32000000 cyc:   17837585 now IPC :1.83410: AVG IPC :1.78126: L2-Pf-HR :0.75880: L2-HR :0.84113: (Sim:0h3m26s) 
CPU  0 inst:   33000005 cyc:   18514835 now IPC :1.47657: AVG IPC :1.76949: L2-Pf-HR :0.75554: L2-HR :0.83889: (Sim:0h3m32s) 
CPU  0 inst:   34000003 cyc:   19065588 now IPC :1.81569: AVG IPC :1.77089: L2-Pf-HR :0.75598: L2-HR :0.83968: (Sim:0h3m36s) 
CPU  0 inst:   35000002 cyc:   19614871 now IPC :1.82055: AVG IPC :1.77236: L2-Pf-HR :0.75634: L2-HR :0.84035: (Sim:0h3m42s) 
CPU  0 inst:   36000001 cyc:   20174988 now IPC :1.78534: AVG IPC :1.77274: L2-Pf-HR :0.75620: L2-HR :0.84059: (Sim:0h3m49s) 
CPU  0 inst:   37000001 cyc:   20723283 now IPC :1.82384: AVG IPC :1.77416: L2-Pf-HR :0.75611: L2-HR :0.84081: (Sim:0h3m55s) 
CPU  0 inst:   38000003 cyc:   21279544 now IPC :1.79772: AVG IPC :1.77480: L2-Pf-HR :0.75687: L2-HR :0.84126: (Sim:0h4m0s) 
CPU  0 inst:   39000001 cyc:   21859316 now IPC :1.72481: AVG IPC :1.77342: L2-Pf-HR :0.75724: L2-HR :0.84066: (Sim:0h4m7s) 
CPU  0 inst:   40000000 cyc:   22397616 now IPC :1.85770: AVG IPC :1.77554: L2-Pf-HR :0.75859: L2-HR :0.84121: (Sim:0h4m14s) 
CPU  0 inst:   41000001 cyc:   23079956 now IPC :1.46555: AVG IPC :1.76596: L2-Pf-HR :0.75601: L2-HR :0.83943: (Sim:0h4m21s) 
CPU  0 inst:   42000004 cyc:   23625851 now IPC :1.83186: AVG IPC :1.76755: L2-Pf-HR :0.75650: L2-HR :0.84017: (Sim:0h4m27s) 
CPU  0 inst:   43000000 cyc:   24186493 now IPC :1.78366: AVG IPC :1.76794: L2-Pf-HR :0.75676: L2-HR :0.84056: (Sim:0h4m33s) 
CPU  0 inst:   44000002 cyc:   24742241 now IPC :1.79938: AVG IPC :1.76867: L2-Pf-HR :0.75673: L2-HR :0.84076: (Sim:0h4m39s) 
CPU  0 inst:   45000002 cyc:   25286754 now IPC :1.83650: AVG IPC :1.77019: L2-Pf-HR :0.75687: L2-HR :0.84102: (Sim:0h4m46s) 
CPU  0 inst:   46000003 cyc:   25836944 now IPC :1.81756: AVG IPC :1.77124: L2-Pf-HR :0.75716: L2-HR :0.84134: (Sim:0h4m53s) 
CPU  0 inst:   47000001 cyc:   26422340 now IPC :1.70824: AVG IPC :1.76979: L2-Pf-HR :0.75735: L2-HR :0.84072: (Sim:0h5m0s) 
CPU  0 inst:   48000000 cyc:   26962343 now IPC :1.85184: AVG IPC :1.77150: L2-Pf-HR :0.75835: L2-HR :0.84120: (Sim:0h5m7s) 
CPU  0 inst:   49000005 cyc:   27642344 now IPC :1.47059: AVG IPC :1.76382: L2-Pf-HR :0.75616: L2-HR :0.83958: (Sim:0h5m15s) 
CPU  0 inst:   50000004 cyc:   28188479 now IPC :1.83105: AVG IPC :1.76517: L2-Pf-HR :0.75663: L2-HR :0.84015: (Sim:0h5m22s) 
CPU  0 inst:   51000000 cyc:   28745115 now IPC :1.79650: AVG IPC :1.76580: L2-Pf-HR :0.75686: L2-HR :0.84052: (Sim:0h5m29s) 
CPU  0 inst:   52000002 cyc:   29302842 now IPC :1.79300: AVG IPC :1.76633: L2-Pf-HR :0.75692: L2-HR :0.84063: (Sim:0h5m36s) 
CPU  0 inst:   53000004 cyc:   29848704 now IPC :1.83197: AVG IPC :1.76758: L2-Pf-HR :0.75688: L2-HR :0.84091: (Sim:0h5m42s) 
CPU  0 inst:   54000003 cyc:   30402502 now IPC :1.80571: AVG IPC :1.76829: L2-Pf-HR :0.75712: L2-HR :0.84115: (Sim:0h5m49s) 
CPU  0 inst:   55000000 cyc:   30993507 now IPC :1.69203: AVG IPC :1.76679: L2-Pf-HR :0.75738: L2-HR :0.84070: (Sim:0h5m56s) 
CPU  0 inst:   56000000 cyc:   31530919 now IPC :1.86077: AVG IPC :1.76844: L2-Pf-HR :0.75813: L2-HR :0.84108: (Sim:0h6m3s) 
CPU  0 inst:   57000001 cyc:   32215116 now IPC :1.46157: AVG IPC :1.76172: L2-Pf-HR :0.75647: L2-HR :0.83982: (Sim:0h6m11s) 
CPU  0 inst:   58000001 cyc:   32767498 now IPC :1.81034: AVG IPC :1.76256: L2-Pf-HR :0.75686: L2-HR :0.84029: (Sim:0h6m18s) 
CPU  0 inst:   59000003 cyc:   33328422 now IPC :1.78278: AVG IPC :1.76292: L2-Pf-HR :0.75719: L2-HR :0.84062: (Sim:0h6m25s) 
CPU  0 inst:   60000002 cyc:   33876354 now IPC :1.82504: AVG IPC :1.76395: L2-Pf-HR :0.75725: L2-HR :0.84082: (Sim:0h6m32s) 
CPU  0 inst:   61000001 cyc:   34432041 now IPC :1.79957: AVG IPC :1.76454: L2-Pf-HR :0.75713: L2-HR :0.84099: (Sim:0h6m39s) 
CPU  0 inst:   62000000 cyc:   34991310 now IPC :1.78805: AVG IPC :1.76493: L2-Pf-HR :0.75721: L2-HR :0.84117: (Sim:0h6m46s) 
CPU  0 inst:   63000003 cyc:   35578912 now IPC :1.70184: AVG IPC :1.76386: L2-Pf-HR :0.75755: L2-HR :0.84083: (Sim:0h6m53s) 
CPU  0 inst:   64000000 cyc:   36117560 now IPC :1.85649: AVG IPC :1.76528: L2-Pf-HR :0.75812: L2-HR :0.84111: (Sim:0h7m0s) 
CPU  0 inst:   65000005 cyc:   36791853 now IPC :1.48304: AVG IPC :1.75996: L2-Pf-HR :0.75677: L2-HR :0.84009: (Sim:0h7m7s) 
CPU  0 inst:   66000001 cyc:   37348007 now IPC :1.79806: AVG IPC :1.76054: L2-Pf-HR :0.75706: L2-HR :0.84044: (Sim:0h7m14s) 
CPU  0 inst:   67000000 cyc:   37906747 now IPC :1.78974: AVG IPC :1.76099: L2-Pf-HR :0.75729: L2-HR :0.84071: (Sim:0h7m21s) 
CPU  0 inst:   68000002 cyc:   38453129 now IPC :1.83022: AVG IPC :1.76200: L2-Pf-HR :0.75723: L2-HR :0.84092: (Sim:0h7m28s) 
CPU  0 inst:   69000004 cyc:   39003064 now IPC :1.81840: AVG IPC :1.76281: L2-Pf-HR :0.75714: L2-HR :0.84107: (Sim:0h7m35s) 
CPU  0 inst:   70000002 cyc:   39555665 now IPC :1.80962: AVG IPC :1.76348: L2-Pf-HR :0.75732: L2-HR :0.84124: (Sim:0h7m42s) 
CPU  0 inst:   71000003 cyc:   40150817 now IPC :1.68024: AVG IPC :1.76222: L2-Pf-HR :0.75768: L2-HR :0.84097: (Sim:0h7m49s) 
CPU  0 inst:   72000000 cyc:   40692309 now IPC :1.84674: AVG IPC :1.76337: L2-Pf-HR :0.75814: L2-HR :0.84118: (Sim:0h7m56s) 
CPU  0 inst:   73000005 cyc:   41354963 now IPC :1.50909: AVG IPC :1.75920: L2-Pf-HR :0.75696: L2-HR :0.84028: (Sim:0h8m3s) 
CPU  0 inst:   74000003 cyc:   41912720 now IPC :1.79289: AVG IPC :1.75966: L2-Pf-HR :0.75725: L2-HR :0.84061: (Sim:0h8m10s) 
CPU  0 inst:   75000001 cyc:   42470545 now IPC :1.79267: AVG IPC :1.76010: L2-Pf-HR :0.75734: L2-HR :0.84082: (Sim:0h8m17s) 
CPU  0 inst:   76000002 cyc:   43018567 now IPC :1.82475: AVG IPC :1.76094: L2-Pf-HR :0.75741: L2-HR :0.84104: (Sim:0h8m22s) 
CPU  0 inst:   77000003 cyc:   43571062 now IPC :1.80997: AVG IPC :1.76158: L2-Pf-HR :0.75729: L2-HR :0.84117: (Sim:0h8m26s) 
CPU  0 inst:   78000003 cyc:   44118816 now IPC :1.82564: AVG IPC :1.76239: L2-Pf-HR :0.75746: L2-HR :0.84133: (Sim:0h8m31s) 
CPU  0 inst:   79000002 cyc:   44717505 now IPC :1.67031: AVG IPC :1.76113: L2-Pf-HR :0.75769: L2-HR :0.84103: (Sim:0h8m36s) 
CPU  0 inst:   80000000 cyc:   45262002 now IPC :1.83655: AVG IPC :1.76206: L2-Pf-HR :0.75815: L2-HR :0.84121: (Sim:0h8m41s) 
CPU  0 inst:   81000005 cyc:   45937782 now IPC :1.47978: AVG IPC :1.75781: L2-Pf-HR :0.75708: L2-HR :0.84037: (Sim:0h8m46s) 
CPU  0 inst:   82000003 cyc:   46493360 now IPC :1.79992: AVG IPC :1.75833: L2-Pf-HR :0.75728: L2-HR :0.84064: (Sim:0h8m51s) 
CPU  0 inst:   83000002 cyc:   47040898 now IPC :1.82636: AVG IPC :1.75914: L2-Pf-HR :0.75743: L2-HR :0.84091: (Sim:0h8m56s) 
CPU  0 inst:   84000001 cyc:   47592192 now IPC :1.81391: AVG IPC :1.75979: L2-Pf-HR :0.75742: L2-HR :0.84108: (Sim:0h9m0s) 
CPU  0 inst:   85000004 cyc:   48149052 now IPC :1.79579: AVG IPC :1.76021: L2-Pf-HR :0.75735: L2-HR :0.84118: (Sim:0h9m5s) 
CPU  0 inst:   86000005 cyc:   48697327 now IPC :1.82390: AVG IPC :1.76094: L2-Pf-HR :0.75749: L2-HR :0.84132: (Sim:0h9m10s) 
CPU  0 inst:   87000002 cyc:   49286521 now IPC :1.69723: AVG IPC :1.76017: L2-Pf-HR :0.75767: L2-HR :0.84106: (Sim:0h9m17s) 
CPU  0 inst:   88000000 cyc:   49827341 now IPC :1.84904: AVG IPC :1.76115: L2-Pf-HR :0.75810: L2-HR :0.84123: (Sim:0h9m23s) 
CPU  0 inst:   89000004 cyc:   50502988 now IPC :1.48007: AVG IPC :1.75731: L2-Pf-HR :0.75711: L2-HR :0.84046: (Sim:0h9m30s) 
CPU  0 inst:   90000004 cyc:   51060828 now IPC :1.79263: AVG IPC :1.75771: L2-Pf-HR :0.75721: L2-HR :0.84070: (Sim:0h9m37s) 
CPU  0 inst:   91000000 cyc:   51613536 now IPC :1.80927: AVG IPC :1.75827: L2-Pf-HR :0.75738: L2-HR :0.84096: (Sim:0h9m44s) 
CPU  0 inst:   92000005 cyc:   52167195 now IPC :1.80617: AVG IPC :1.75879: L2-Pf-HR :0.75739: L2-HR :0.84111: (Sim:0h9m51s) 
CPU  0 inst:   93000004 cyc:   52719491 now IPC :1.81062: AVG IPC :1.75934: L2-Pf-HR :0.75736: L2-HR :0.84118: (Sim:0h9m58s) 
CPU  0 inst:   94000001 cyc:   53267850 now IPC :1.82362: AVG IPC :1.76002: L2-Pf-HR :0.75752: L2-HR :0.84132: (Sim:0h10m4s) 
CPU  0 inst:   95000004 cyc:   53855821 now IPC :1.70077: AVG IPC :1.75936: L2-Pf-HR :0.75773: L2-HR :0.84110: (Sim:0h10m9s) 
CPU  0 inst:   96000000 cyc:   54395050 now IPC :1.85449: AVG IPC :1.76032: L2-Pf-HR :0.75811: L2-HR :0.84122: (Sim:0h10m14s) 
CPU  0 inst:   97000005 cyc:   55074422 now IPC :1.47195: AVG IPC :1.75670: L2-Pf-HR :0.75721: L2-HR :0.84049: (Sim:0h10m19s) 
CPU  0 inst:   98000000 cyc:   55635299 now IPC :1.78291: AVG IPC :1.75696: L2-Pf-HR :0.75728: L2-HR :0.84069: (Sim:0h10m24s) 
CPU  0 inst:   99000000 cyc:   56182321 now IPC :1.82808: AVG IPC :1.75767: L2-Pf-HR :0.75746: L2-HR :0.84096: (Sim:0h10m29s) 
CPU  0 inst:  100000002 cyc:   56739827 now IPC :1.79371: AVG IPC :1.75803: L2-Pf-HR :0.75752: L2-HR :0.84111: (Sim:0h10m34s) 
CPU  0 inst:  101000004 cyc:   57287657 now IPC :1.82539: AVG IPC :1.75869: L2-Pf-HR :0.75753: L2-HR :0.84121: (Sim:0h10m39s) 
CPU  0 inst:  102000003 cyc:   57843846 now IPC :1.79795: AVG IPC :1.75907: L2-Pf-HR :0.75763: L2-HR :0.84128: (Sim:0h10m44s) 
CPU  0 inst:  103000004 cyc:   58433603 now IPC :1.69562: AVG IPC :1.75842: L2-Pf-HR :0.75788: L2-HR :0.84112: (Sim:0h10m51s) 
CPU  0 inst:  104000000 cyc:   58980539 now IPC :1.82836: AVG IPC :1.75908: L2-Pf-HR :0.75819: L2-HR :0.84122: (Sim:0h10m58s) 
CPU  0 inst:  105000000 cyc:   59665198 now IPC :1.46058: AVG IPC :1.75559: L2-Pf-HR :0.75735: L2-HR :0.84056: (Sim:0h11m5s) 
CPU  0 inst:  106000001 cyc:   60214971 now IPC :1.81893: AVG IPC :1.75618: L2-Pf-HR :0.75750: L2-HR :0.84081: (Sim:0h11m12s) 
CPU  0 inst:  107000000 cyc:   60771153 now IPC :1.79797: AVG IPC :1.75657: L2-Pf-HR :0.75761: L2-HR :0.84102: (Sim:0h11m19s) 
CPU  0 inst:  108000002 cyc:   61322121 now IPC :1.81499: AVG IPC :1.75710: L2-Pf-HR :0.75765: L2-HR :0.84115: (Sim:0h11m26s) 
CPU  0 inst:  109000004 cyc:   61869936 now IPC :1.82544: AVG IPC :1.75772: L2-Pf-HR :0.75770: L2-HR :0.84125: (Sim:0h11m33s) 
CPU  0 inst:  110000003 cyc:   62427937 now IPC :1.79211: AVG IPC :1.75803: L2-Pf-HR :0.75768: L2-HR :0.84131: (Sim:0h11m40s) 
CPU  0 inst:  111000004 cyc:   63011739 now IPC :1.71291: AVG IPC :1.75761: L2-Pf-HR :0.75794: L2-HR :0.84120: (Sim:0h11m47s) 
CPU  0 inst:  112000000 cyc:   63553151 now IPC :1.84701: AVG IPC :1.75838: L2-Pf-HR :0.75820: L2-HR :0.84127: (Sim:0h11m54s) 
CPU  0 inst:  113000002 cyc:   64232875 now IPC :1.47119: AVG IPC :1.75529: L2-Pf-HR :0.75744: L2-HR :0.84065: (Sim:0h12m2s) 
CPU  0 inst:  114000001 cyc:   64778130 now IPC :1.83400: AVG IPC :1.75597: L2-Pf-HR :0.75755: L2-HR :0.84087: (Sim:0h12m9s) 
CPU  0 inst:  115000004 cyc:   65330967 now IPC :1.80886: AVG IPC :1.75642: L2-Pf-HR :0.75767: L2-HR :0.84106: (Sim:0h12m14s) 
CPU  0 inst:  116000005 cyc:   65886900 now IPC :1.79878: AVG IPC :1.75678: L2-Pf-HR :0.75774: L2-HR :0.84117: (Sim:0h12m19s) 
CPU  0 inst:  117000004 cyc:   66440428 now IPC :1.80659: AVG IPC :1.75721: L2-Pf-HR :0.75776: L2-HR :0.84127: (Sim:0h12m24s) 
CPU  0 inst:  118000003 cyc:   67005040 now IPC :1.77113: AVG IPC :1.75732: L2-Pf-HR :0.75770: L2-HR :0.84131: (Sim:0h12m29s) 
CPU  0 inst:  119000000 cyc:   67596797 now IPC :1.68988: AVG IPC :1.75673: L2-Pf-HR :0.75794: L2-HR :0.84124: (Sim:0h12m34s) 
CPU  0 inst:  120000000 cyc:   68136178 now IPC :1.85398: AVG IPC :1.75751: L2-Pf-HR :0.75812: L2-HR :0.84128: (Sim:0h12m39s) 
CPU  0 inst:  121000002 cyc:   68821687 now IPC :1.45877: AVG IPC :1.75449: L2-Pf-HR :0.75743: L2-HR :0.84069: (Sim:0h12m44s) 
CPU  0 inst:  122000003 cyc:   69365207 now IPC :1.83986: AVG IPC :1.75517: L2-Pf-HR :0.75761: L2-HR :0.84093: (Sim:0h12m49s) 
CPU  0 inst:  123000003 cyc:   69914712 now IPC :1.81982: AVG IPC :1.75568: L2-Pf-HR :0.75776: L2-HR :0.84112: (Sim:0h12m55s) 
CPU  0 inst:  124000002 cyc:   70459742 now IPC :1.83476: AVG IPC :1.75630: L2-Pf-HR :0.75785: L2-HR :0.84126: (Sim:0h12m59s) 
CPU  0 inst:  125000003 cyc:   71020536 now IPC :1.78319: AVG IPC :1.75652: L2-Pf-HR :0.75776: L2-HR :0.84131: (Sim:0h13m4s) 
CPU  0 inst:  126000000 cyc:   71581544 now IPC :1.78250: AVG IPC :1.75672: L2-Pf-HR :0.75773: L2-HR :0.84134: (Sim:0h13m9s) 
CPU  0 inst:  127000001 cyc:   72166311 now IPC :1.71008: AVG IPC :1.75634: L2-Pf-HR :0.75790: L2-HR :0.84125: (Sim:0h13m14s) 
CPU  0 inst:  128000000 cyc:   72705458 now IPC :1.85478: AVG IPC :1.75708: L2-Pf-HR :0.75808: L2-HR :0.84130: (Sim:0h13m21s) 
CPU  0 inst:  129000005 cyc:   73377874 now IPC :1.48718: AVG IPC :1.75457: L2-Pf-HR :0.75746: L2-HR :0.84075: (Sim:0h13m28s) 
CPU  0 inst:  130000003 cyc:   73930030 now IPC :1.81108: AVG IPC :1.75500: L2-Pf-HR :0.75761: L2-HR :0.84095: (Sim:0h13m35s) 
CPU  0 inst:  131000005 cyc:   74479848 now IPC :1.81879: AVG IPC :1.75548: L2-Pf-HR :0.75776: L2-HR :0.84114: (Sim:0h13m43s) 
CPU  0 inst:  132000002 cyc:   75032837 now IPC :1.80835: AVG IPC :1.75587: L2-Pf-HR :0.75782: L2-HR :0.84127: (Sim:0h13m50s) 
CPU  0 inst:  133000004 cyc:   75593469 now IPC :1.78370: AVG IPC :1.75608: L2-Pf-HR :0.75778: L2-HR :0.84133: (Sim:0h13m57s) 
CPU  0 inst:  134000003 cyc:   76155086 now IPC :1.78057: AVG IPC :1.75627: L2-Pf-HR :0.75770: L2-HR :0.84132: (Sim:0h14m4s) 
CPU  0 inst:  135000003 cyc:   76743684 now IPC :1.69895: AVG IPC :1.75582: L2-Pf-HR :0.75799: L2-HR :0.84131: (Sim:0h14m11s) 
CPU  0 inst:  136000000 cyc:   77289066 now IPC :1.83357: AVG IPC :1.75638: L2-Pf-HR :0.75813: L2-HR :0.84135: (Sim:0h14m18s) 
CPU  0 inst:  137000005 cyc:   77952053 now IPC :1.50833: AVG IPC :1.75424: L2-Pf-HR :0.75761: L2-HR :0.84088: (Sim:0h14m25s) 
CPU  0 inst:  138000004 cyc:   78507647 now IPC :1.79987: AVG IPC :1.75457: L2-Pf-HR :0.75772: L2-HR :0.84103: (Sim:0h14m32s) 
CPU  0 inst:  139000003 cyc:   79062411 now IPC :1.80257: AVG IPC :1.75491: L2-Pf-HR :0.75782: L2-HR :0.84119: (Sim:0h14m39s) 
CPU  0 inst:  140000002 cyc:   79611403 now IPC :1.82152: AVG IPC :1.75537: L2-Pf-HR :0.75785: L2-HR :0.84130: (Sim:0h14m46s) 
CPU  0 inst:  141000004 cyc:   80169687 now IPC :1.79121: AVG IPC :1.75563: L2-Pf-HR :0.75781: L2-HR :0.84135: (Sim:0h14m53s) 
CPU  0 inst:  142000000 cyc:   80720225 now IPC :1.81640: AVG IPC :1.75604: L2-Pf-HR :0.75781: L2-HR :0.84140: (Sim:0h14m59s) 
CPU  0 inst:  143000005 cyc:   81310389 now IPC :1.69445: AVG IPC :1.75559: L2-Pf-HR :0.75807: L2-HR :0.84137: (Sim:0h15m6s) 
CPU  0 inst:  144000000 cyc:   81851161 now IPC :1.84920: AVG IPC :1.75622: L2-Pf-HR :0.75821: L2-HR :0.84138: (Sim:0h15m13s) 
CPU  0 inst:  145000005 cyc:   82517035 now IPC :1.50179: AVG IPC :1.75414: L2-Pf-HR :0.75777: L2-HR :0.84095: (Sim:0h15m20s) 
CPU  0 inst:  146000000 cyc:   83076500 now IPC :1.78741: AVG IPC :1.75437: L2-Pf-HR :0.75785: L2-HR :0.84109: (Sim:0h15m26s) 
CPU  0 inst:  147000000 cyc:   83623713 now IPC :1.82744: AVG IPC :1.75485: L2-Pf-HR :0.75796: L2-HR :0.84126: (Sim:0h15m31s) 
CPU  0 inst:  148000002 cyc:   84185358 now IPC :1.78049: AVG IPC :1.75502: L2-Pf-HR :0.75796: L2-HR :0.84134: (Sim:0h15m36s) 
CPU  0 inst:  149000004 cyc:   84742024 now IPC :1.79641: AVG IPC :1.75530: L2-Pf-HR :0.75793: L2-HR :0.84138: (Sim:0h15m41s) 
CPU  0 inst:  150000003 cyc:   85290630 now IPC :1.82280: AVG IPC :1.75574: L2-Pf-HR :0.75792: L2-HR :0.84144: (Sim:0h15m48s) 
CPU  0 inst:  151000002 cyc:   85882883 now IPC :1.68847: AVG IPC :1.75527: L2-Pf-HR :0.75815: L2-HR :0.84139: (Sim:0h15m55s) 
CPU  0 inst:  152000000 cyc:   86425646 now IPC :1.84242: AVG IPC :1.75582: L2-Pf-HR :0.75827: L2-HR :0.84139: (Sim:0h16m2s) 
CPU  0 inst:  153000000 cyc:   87082253 now IPC :1.52298: AVG IPC :1.75405: L2-Pf-HR :0.75787: L2-HR :0.84102: (Sim:0h16m9s) 
CPU  0 inst:  154000001 cyc:   87648755 now IPC :1.76522: AVG IPC :1.75412: L2-Pf-HR :0.75788: L2-HR :0.84112: (Sim:0h16m14s) 
CPU  0 inst:  155000003 cyc:   88202767 now IPC :1.80502: AVG IPC :1.75444: L2-Pf-HR :0.75796: L2-HR :0.84126: (Sim:0h16m20s) 
CPU  0 inst:  156000001 cyc:   88761331 now IPC :1.79030: AVG IPC :1.75467: L2-Pf-HR :0.75796: L2-HR :0.84133: (Sim:0h16m27s) 
CPU  0 inst:  157000001 cyc:   89318637 now IPC :1.79435: AVG IPC :1.75492: L2-Pf-HR :0.75791: L2-HR :0.84135: (Sim:0h16m34s) 
CPU  0 inst:  158000000 cyc:   89863309 now IPC :1.83597: AVG IPC :1.75542: L2-Pf-HR :0.75793: L2-HR :0.84143: (Sim:0h16m41s) 
CPU  0 inst:  159000004 cyc:   90451644 now IPC :1.69972: AVG IPC :1.75505: L2-Pf-HR :0.75820: L2-HR :0.84143: (Sim:0h16m48s) 
CPU  0 inst:  160000000 cyc:   90993431 now IPC :1.84574: AVG IPC :1.75560: L2-Pf-HR :0.75826: L2-HR :0.84138: (Sim:0h16m55s) 
CPU  0 inst:  161000002 cyc:   91655581 now IPC :1.51023: AVG IPC :1.75381: L2-Pf-HR :0.75790: L2-HR :0.84106: (Sim:0h17m2s) 
CPU  0 inst:  162000004 cyc:   92229430 now IPC :1.74262: AVG IPC :1.75374: L2-Pf-HR :0.75789: L2-HR :0.84113: (Sim:0h17m10s) 
CPU  0 inst:  163000000 cyc:   92782932 now IPC :1.80667: AVG IPC :1.75406: L2-Pf-HR :0.75800: L2-HR :0.84128: (Sim:0h17m17s) 
CPU  0 inst:  164000004 cyc:   93346355 now IPC :1.77487: AVG IPC :1.75418: L2-Pf-HR :0.75801: L2-HR :0.84135: (Sim:0h17m24s) 
CPU  0 inst:  165000004 cyc:   93895167 now IPC :1.82212: AVG IPC :1.75458: L2-Pf-HR :0.75800: L2-HR :0.84141: (Sim:0h17m31s) 
CPU  0 inst:  166000003 cyc:   94444695 now IPC :1.81974: AVG IPC :1.75497: L2-Pf-HR :0.75801: L2-HR :0.84145: (Sim:0h17m38s) 
CPU  0 inst:  167000004 cyc:   95041098 now IPC :1.67672: AVG IPC :1.75447: L2-Pf-HR :0.75824: L2-HR :0.84144: (Sim:0h17m45s) 
CPU  0 inst:  168000000 cyc:   95584675 now IPC :1.83966: AVG IPC :1.75496: L2-Pf-HR :0.75831: L2-HR :0.84141: (Sim:0h17m53s) 
CPU  0 inst:  169000002 cyc:   96241019 now IPC :1.52359: AVG IPC :1.75337: L2-Pf-HR :0.75793: L2-HR :0.84106: (Sim:0h18m0s) 
CPU  0 inst:  170000004 cyc:   96810687 now IPC :1.75541: AVG IPC :1.75338: L2-Pf-HR :0.75792: L2-HR :0.84111: (Sim:0h18m7s) 
CPU  0 inst:  171000003 cyc:   97371885 now IPC :1.78190: AVG IPC :1.75354: L2-Pf-HR :0.75798: L2-HR :0.84121: (Sim:0h18m11s) 
CPU  0 inst:  172000002 cyc:   97931528 now IPC :1.78685: AVG IPC :1.75374: L2-Pf-HR :0.75801: L2-HR :0.84127: (Sim:0h18m16s) 
CPU  0 inst:  173000003 cyc:   98478050 now IPC :1.82975: AVG IPC :1.75416: L2-Pf-HR :0.75805: L2-HR :0.84135: (Sim:0h18m21s) 
CPU  0 inst:  174000003 cyc:   99029682 now IPC :1.81280: AVG IPC :1.75449: L2-Pf-HR :0.75802: L2-HR :0.84139: (Sim:0h18m27s) 
CPU  0 inst:  175000004 cyc:   99625902 now IPC :1.67723: AVG IPC :1.75403: L2-Pf-HR :0.75829: L2-HR :0.84138: (Sim:0h18m32s) 
CPU  0 inst:  176000000 cyc:  100167289 now IPC :1.84710: AVG IPC :1.75453: L2-Pf-HR :0.75831: L2-HR :0.84135: (Sim:0h18m37s) 
CPU  0 inst:  177000003 cyc:  100814469 now IPC :1.54517: AVG IPC :1.75318: L2-Pf-HR :0.75801: L2-HR :0.84109: (Sim:0h18m43s) 
CPU  0 inst:  178000000 cyc:  101382017 now IPC :1.76196: AVG IPC :1.75323: L2-Pf-HR :0.75802: L2-HR :0.84113: (Sim:0h18m50s) 
CPU  0 inst:  179000005 cyc:  101943034 now IPC :1.78249: AVG IPC :1.75339: L2-Pf-HR :0.75809: L2-HR :0.84124: (Sim:0h18m55s) 
CPU  0 inst:  180000005 cyc:  102500872 now IPC :1.79264: AVG IPC :1.75360: L2-Pf-HR :0.75812: L2-HR :0.84130: (Sim:0h19m0s) 
CPU  0 inst:  181000004 cyc:  103046938 now IPC :1.83128: AVG IPC :1.75402: L2-Pf-HR :0.75816: L2-HR :0.84139: (Sim:0h19m4s) 
CPU  0 inst:  182000000 cyc:  103597178 now IPC :1.81738: AVG IPC :1.75436: L2-Pf-HR :0.75811: L2-HR :0.84143: (Sim:0h19m9s) 
CPU  0 inst:  183000003 cyc:  104194792 now IPC :1.67333: AVG IPC :1.75389: L2-Pf-HR :0.75831: L2-HR :0.84142: (Sim:0h19m14s) 
CPU  0 inst:  184000000 cyc:  104736959 now IPC :1.84444: AVG IPC :1.75436: L2-Pf-HR :0.75830: L2-HR :0.84139: (Sim:0h19m19s) 
CPU  0 inst:  185000002 cyc:  105373292 now IPC :1.57151: AVG IPC :1.75325: L2-Pf-HR :0.75806: L2-HR :0.84116: (Sim:0h19m24s) 
CPU  0 inst:  186000001 cyc:  105952664 now IPC :1.72601: AVG IPC :1.75310: L2-Pf-HR :0.75805: L2-HR :0.84117: (Sim:0h19m29s) 
CPU  0 inst:  187000000 cyc:  106510249 now IPC :1.79345: AVG IPC :1.75331: L2-Pf-HR :0.75813: L2-HR :0.84127: (Sim:0h19m35s) 
CPU  0 inst:  188000002 cyc:  107061572 now IPC :1.81382: AVG IPC :1.75363: L2-Pf-HR :0.75819: L2-HR :0.84135: (Sim:0h19m42s) 
CPU  0 inst:  189000004 cyc:  107615621 now IPC :1.80490: AVG IPC :1.75389: L2-Pf-HR :0.75816: L2-HR :0.84142: (Sim:0h19m49s) 
CPU  0 inst:  190000000 cyc:  108169167 now IPC :1.80653: AVG IPC :1.75416: L2-Pf-HR :0.75808: L2-HR :0.84144: (Sim:0h19m56s) 
CPU  0 inst:  191000003 cyc:  108757724 now IPC :1.69908: AVG IPC :1.75386: L2-Pf-HR :0.75833: L2-HR :0.84147: (Sim:0h20m4s) 
CPU  0 inst:  192000000 cyc:  109306564 now IPC :1.82202: AVG IPC :1.75421: L2-Pf-HR :0.75832: L2-HR :0.84142: (Sim:0h20m11s) 
CPU  0 inst:  193000002 cyc:  109939103 now IPC :1.58093: AVG IPC :1.75320: L2-Pf-HR :0.75808: L2-HR :0.84121: (Sim:0h20m18s) 
CPU  0 inst:  194000004 cyc:  110522133 now IPC :1.71518: AVG IPC :1.75300: L2-Pf-HR :0.75802: L2-HR :0.84119: (Sim:0h20m25s) 
CPU  0 inst:  195000003 cyc:  111078662 now IPC :1.79685: AVG IPC :1.75322: L2-Pf-HR :0.75813: L2-HR :0.84129: (Sim:0h20m31s) 
CPU  0 inst:  196000005 cyc:  111629836 now IPC :1.81431: AVG IPC :1.75353: L2-Pf-HR :0.75815: L2-HR :0.84137: (Sim:0h20m35s) 
CPU  0 inst:  197000004 cyc:  112184175 now IPC :1.80395: AVG IPC :1.75378: L2-Pf-HR :0.75812: L2-HR :0.84144: (Sim:0h20m40s) 
CPU  0 inst:  198000000 cyc:  112738041 now IPC :1.80548: AVG IPC :1.75403: L2-Pf-HR :0.75805: L2-HR :0.84145: (Sim:0h20m45s) 
CPU  0 inst:  199000001 cyc:  113325173 now IPC :1.70320: AVG IPC :1.75377: L2-Pf-HR :0.75829: L2-HR :0.84149: (Sim:0h20m50s) 
CPU  0 inst:  200000000 cyc:  113872867 now IPC :1.82584: AVG IPC :1.75412: L2-Pf-HR :0.75828: L2-HR :0.84140: (Sim:0h20m55s) 
CPU  0 inst:  201000003 cyc:  114466157 now IPC :1.68552: AVG IPC :1.75376: L2-Pf-HR :0.75833: L2-HR :0.84137: (Sim:0h21m0s) 
CPU  0 inst:  202000004 cyc:  115085185 now IPC :1.61544: AVG IPC :1.75301: L2-Pf-HR :0.75800: L2-HR :0.84117: (Sim:0h21m5s) 
CPU  0 inst:  203000000 cyc:  115642507 now IPC :1.79429: AVG IPC :1.75321: L2-Pf-HR :0.75806: L2-HR :0.84126: (Sim:0h21m10s) 
CPU  0 inst:  204000002 cyc:  116192928 now IPC :1.81679: AVG IPC :1.75351: L2-Pf-HR :0.75811: L2-HR :0.84136: (Sim:0h21m15s) 
CPU  0 inst:  205000001 cyc:  116748304 now IPC :1.80058: AVG IPC :1.75374: L2-Pf-HR :0.75808: L2-HR :0.84142: (Sim:0h21m20s) 
CPU  0 inst:  206000000 cyc:  117299732 now IPC :1.81347: AVG IPC :1.75402: L2-Pf-HR :0.75806: L2-HR :0.84146: (Sim:0h21m24s) 
CPU  0 inst:  207000003 cyc:  117867268 now IPC :1.76201: AVG IPC :1.75406: L2-Pf-HR :0.75854: L2-HR :0.84163: (Sim:0h21m29s) 
CPU  0 inst:  208000000 cyc:  118436644 now IPC :1.75630: AVG IPC :1.75407: L2-Pf-HR :0.75830: L2-HR :0.84140: (Sim:0h21m34s) 
CPU  0 inst:  209000004 cyc:  118990915 now IPC :1.80418: AVG IPC :1.75431: L2-Pf-HR :0.75863: L2-HR :0.84152: (Sim:0h21m39s) 
CPU  0 inst:  210000001 cyc:  119658338 now IPC :1.49830: AVG IPC :1.75287: L2-Pf-HR :0.75807: L2-HR :0.84117: (Sim:0h21m44s) 
CPU  0 inst:  211000004 cyc:  120208310 now IPC :1.81828: AVG IPC :1.75317: L2-Pf-HR :0.75812: L2-HR :0.84127: (Sim:0h21m49s) 
CPU  0 inst:  212000005 cyc:  120767030 now IPC :1.78981: AVG IPC :1.75334: L2-Pf-HR :0.75817: L2-HR :0.84136: (Sim:0h21m54s) 
CPU  0 inst:  213000001 cyc:  121319612 now IPC :1.80968: AVG IPC :1.75360: L2-Pf-HR :0.75815: L2-HR :0.84141: (Sim:0h21m59s) 
CPU  0 inst:  214000003 cyc:  121868207 now IPC :1.82284: AVG IPC :1.75391: L2-Pf-HR :0.75814: L2-HR :0.84145: (Sim:0h22m4s) 
CPU  0 inst:  215000005 cyc:  122430640 now IPC :1.77799: AVG IPC :1.75402: L2-Pf-HR :0.75850: L2-HR :0.84159: (Sim:0h22m9s) 
CPU  0 inst:  216000000 cyc:  123006222 now IPC :1.73736: AVG IPC :1.75395: L2-Pf-HR :0.75830: L2-HR :0.84137: (Sim:0h22m14s) 
CPU  0 inst:  217000003 cyc:  123548434 now IPC :1.84430: AVG IPC :1.75435: L2-Pf-HR :0.75871: L2-HR :0.84155: (Sim:0h22m18s) 
CPU  0 inst:  218000004 cyc:  124221258 now IPC :1.48627: AVG IPC :1.75288: L2-Pf-HR :0.75805: L2-HR :0.84115: (Sim:0h22m24s) 
CPU  0 inst:  219000003 cyc:  124767679 now IPC :1.83009: AVG IPC :1.75322: L2-Pf-HR :0.75813: L2-HR :0.84126: (Sim:0h22m29s) 
CPU  0 inst:  220000000 cyc:  125326624 now IPC :1.78908: AVG IPC :1.75338: L2-Pf-HR :0.75817: L2-HR :0.84135: (Sim:0h22m35s) 
CPU  0 inst:  221000001 cyc:  125881007 now IPC :1.80381: AVG IPC :1.75361: L2-Pf-HR :0.75817: L2-HR :0.84139: (Sim:0h22m42s) 
CPU  0 inst:  222000000 cyc:  126429687 now IPC :1.82255: AVG IPC :1.75391: L2-Pf-HR :0.75816: L2-HR :0.84142: (Sim:0h22m47s) 
CPU  0 inst:  223000004 cyc:  126992025 now IPC :1.77830: AVG IPC :1.75402: L2-Pf-HR :0.75848: L2-HR :0.84155: (Sim:0h22m53s) 
CPU  0 inst:  224000000 cyc:  127575111 now IPC :1.71501: AVG IPC :1.75384: L2-Pf-HR :0.75836: L2-HR :0.84138: (Sim:0h23m0s) 
CPU  0 inst:  225000001 cyc:  128115060 now IPC :1.85203: AVG IPC :1.75426: L2-Pf-HR :0.75868: L2-HR :0.84152: (Sim:0h23m7s) 
CPU  0 inst:  226000001 cyc:  128800290 now IPC :1.45936: AVG IPC :1.75267: L2-Pf-HR :0.75810: L2-HR :0.84115: (Sim:0h23m14s) 
CPU  0 inst:  227000005 cyc:  129350667 now IPC :1.81694: AVG IPC :1.75295: L2-Pf-HR :0.75817: L2-HR :0.84127: (Sim:0h23m21s) 
CPU  0 inst:  228000005 cyc:  129910832 now IPC :1.78519: AVG IPC :1.75309: L2-Pf-HR :0.75819: L2-HR :0.84136: (Sim:0h23m29s) 
CPU  0 inst:  229000004 cyc:  130454362 now IPC :1.83982: AVG IPC :1.75345: L2-Pf-HR :0.75819: L2-HR :0.84141: (Sim:0h23m36s) 
CPU  0 inst:  230000000 cyc:  131013321 now IPC :1.78903: AVG IPC :1.75361: L2-Pf-HR :0.75817: L2-HR :0.84143: (Sim:0h23m43s) 
CPU  0 inst:  231000001 cyc:  131577059 now IPC :1.77388: AVG IPC :1.75369: L2-Pf-HR :0.75834: L2-HR :0.84151: (Sim:0h23m51s) 
CPU  0 inst:  232000000 cyc:  132155679 now IPC :1.72825: AVG IPC :1.75358: L2-Pf-HR :0.75832: L2-HR :0.84138: (Sim:0h23m58s) 
CPU  0 inst:  233000000 cyc:  132698690 now IPC :1.84158: AVG IPC :1.75395: L2-Pf-HR :0.75861: L2-HR :0.84152: (Sim:0h24m5s) 
CPU  0 inst:  234000001 cyc:  133372704 now IPC :1.48365: AVG IPC :1.75257: L2-Pf-HR :0.75809: L2-HR :0.84118: (Sim:0h24m13s) 
CPU  0 inst:  235000003 cyc:  133931006 now IPC :1.79115: AVG IPC :1.75273: L2-Pf-HR :0.75815: L2-HR :0.84128: (Sim:0h24m20s) 
CPU  0 inst:  236000002 cyc:  134481754 now IPC :1.81571: AVG IPC :1.75299: L2-Pf-HR :0.75818: L2-HR :0.84136: (Sim:0h24m28s) 
CPU  0 inst:  237000002 cyc:  135027280 now IPC :1.83309: AVG IPC :1.75332: L2-Pf-HR :0.75821: L2-HR :0.84142: (Sim:0h24m35s) 
CPU  0 inst:  238000000 cyc:  135586453 now IPC :1.78835: AVG IPC :1.75346: L2-Pf-HR :0.75819: L2-HR :0.84144: (Sim:0h24m42s) 
CPU  0 inst:  239000000 cyc:  136146201 now IPC :1.78652: AVG IPC :1.75360: L2-Pf-HR :0.75828: L2-HR :0.84149: (Sim:0h24m49s) 
CPU  0 inst:  240000000 cyc:  136729161 now IPC :1.71538: AVG IPC :1.75344: L2-Pf-HR :0.75832: L2-HR :0.84140: (Sim:0h24m54s) 
CPU  0 inst:  241000000 cyc:  137269828 now IPC :1.84957: AVG IPC :1.75382: L2-Pf-HR :0.75856: L2-HR :0.84152: (Sim:0h25m1s) 
CPU  0 inst:  242000004 cyc:  137955467 now IPC :1.45850: AVG IPC :1.75234: L2-Pf-HR :0.75808: L2-HR :0.84118: (Sim:0h25m9s) 
CPU  0 inst:  243000003 cyc:  138508789 now IPC :1.80726: AVG IPC :1.75256: L2-Pf-HR :0.75816: L2-HR :0.84128: (Sim:0h25m16s) 
CPU  0 inst:  244000000 cyc:  139059137 now IPC :1.81703: AVG IPC :1.75282: L2-Pf-HR :0.75819: L2-HR :0.84134: (Sim:0h25m23s) 
CPU  0 inst:  245000004 cyc:  139606590 now IPC :1.82665: AVG IPC :1.75311: L2-Pf-HR :0.75822: L2-HR :0.84140: (Sim:0h25m30s) 
CPU  0 inst:  246000000 cyc:  140165560 now IPC :1.78900: AVG IPC :1.75325: L2-Pf-HR :0.75817: L2-HR :0.84141: (Sim:0h25m37s) 
CPU  0 inst:  247000002 cyc:  140718194 now IPC :1.80952: AVG IPC :1.75347: L2-Pf-HR :0.75826: L2-HR :0.84147: (Sim:0h25m44s) 
CPU  0 inst:  248000000 cyc:  141300140 now IPC :1.71837: AVG IPC :1.75333: L2-Pf-HR :0.75827: L2-HR :0.84138: (Sim:0h25m52s) 
CPU  0 inst:  249000005 cyc:  141838189 now IPC :1.85858: AVG IPC :1.75373: L2-Pf-HR :0.75849: L2-HR :0.84149: (Sim:0h25m59s) 
CPU  0 inst:  250000004 cyc:  142512858 now IPC :1.48221: AVG IPC :1.75244: L2-Pf-HR :0.75806: L2-HR :0.84119: (Sim:0h26m6s) 
CPU  0 inst:  251000003 cyc:  143064336 now IPC :1.81331: AVG IPC :1.75267: L2-Pf-HR :0.75814: L2-HR :0.84128: (Sim:0h26m13s) 
CPU  0 inst:  252000002 cyc:  143609950 now IPC :1.83280: AVG IPC :1.75298: L2-Pf-HR :0.75821: L2-HR :0.84137: (Sim:0h26m19s) 
CPU  0 inst:  253000003 cyc:  144164486 now IPC :1.80331: AVG IPC :1.75317: L2-Pf-HR :0.75821: L2-HR :0.84140: (Sim:0h26m23s) 
CPU  0 inst:  254000000 cyc:  144725372 now IPC :1.78289: AVG IPC :1.75329: L2-Pf-HR :0.75815: L2-HR :0.84141: (Sim:0h26m28s) 
CPU  0 inst:  255000001 cyc:  145281128 now IPC :1.79935: AVG IPC :1.75347: L2-Pf-HR :0.75824: L2-HR :0.84147: (Sim:0h26m35s) 
CPU  0 inst:  256000000 cyc:  145865182 now IPC :1.71217: AVG IPC :1.75330: L2-Pf-HR :0.75829: L2-HR :0.84139: (Sim:0h26m42s) 
CPU  0 inst:  257000005 cyc:  146402885 now IPC :1.85977: AVG IPC :1.75370: L2-Pf-HR :0.75846: L2-HR :0.84148: (Sim:0h26m49s) 
CPU  0 inst:  258000002 cyc:  150600528 now IPC :0.23823: AVG IPC :1.71117: L2-Pf-HR :0.74905: L2-HR :0.83179: (Sim:0h27m9s) 
CPU  0 inst:  259000005 cyc:  156109644 now IPC :0.18152: AVG IPC :1.65685: L2-Pf-HR :0.73692: L2-HR :0.82020: (Sim:0h27m35s) 
CPU  0 inst:  260000004 cyc:  161625662 now IPC :0.18129: AVG IPC :1.60618: L2-Pf-HR :0.72517: L2-HR :0.80938: (Sim:0h28m1s) 
CPU  0 inst:  261000003 cyc:  167138350 now IPC :0.18140: AVG IPC :1.55890: L2-Pf-HR :0.71380: L2-HR :0.79928: (Sim:0h28m20s) 
CPU  0 inst:  262000001 cyc:  172537213 now IPC :0.18522: AVG IPC :1.51567: L2-Pf-HR :0.70312: L2-HR :0.79003: (Sim:0h28m41s) 
CPU  0 inst:  263000003 cyc:  176342467 now IPC :0.26280: AVG IPC :1.48848: L2-Pf-HR :0.70046: L2-HR :0.78843: (Sim:0h28m53s) 
CPU  0 inst:  264000000 cyc:  180141366 now IPC :0.26323: AVG IPC :1.46250: L2-Pf-HR :0.69785: L2-HR :0.78685: (Sim:0h29m4s) 
CPU  0 inst:  265000003 cyc:  183935511 now IPC :0.26356: AVG IPC :1.43763: L2-Pf-HR :0.69525: L2-HR :0.78529: (Sim:0h29m16s) 
CPU  0 inst:  266000003 cyc:  187702099 now IPC :0.26549: AVG IPC :1.41398: L2-Pf-HR :0.69268: L2-HR :0.78373: (Sim:0h29m27s) 
CPU  0 inst:  267000002 cyc:  191475492 now IPC :0.26501: AVG IPC :1.39122: L2-Pf-HR :0.69012: L2-HR :0.78219: (Sim:0h29m42s) 
CPU  0 inst:  268000002 cyc:  195233613 now IPC :0.26609: AVG IPC :1.36945: L2-Pf-HR :0.68759: L2-HR :0.78065: (Sim:0h29m59s) 
CPU  0 inst:  269000001 cyc:  199002798 now IPC :0.26531: AVG IPC :1.34844: L2-Pf-HR :0.68507: L2-HR :0.77913: (Sim:0h30m15s) 
CPU  0 inst:  270000000 cyc:  202766243 now IPC :0.26571: AVG IPC :1.32824: L2-Pf-HR :0.68257: L2-HR :0.77762: (Sim:0h30m30s) 
CPU  0 inst:  271000001 cyc:  206536218 now IPC :0.26525: AVG IPC :1.30874: L2-Pf-HR :0.68008: L2-HR :0.77612: (Sim:0h30m42s) 
CPU  0 inst:  272000000 cyc:  210308193 now IPC :0.26511: AVG IPC :1.28994: L2-Pf-HR :0.67762: L2-HR :0.77462: (Sim:0h30m56s) 
CPU  0 inst:  273000003 cyc:  214072928 now IPC :0.26562: AVG IPC :1.27184: L2-Pf-HR :0.67516: L2-HR :0.77314: (Sim:0h31m13s) 
CPU  0 inst:  274000003 cyc:  217839828 now IPC :0.26547: AVG IPC :1.25436: L2-Pf-HR :0.67273: L2-HR :0.77166: (Sim:0h31m29s) 
CPU  0 inst:  275000002 cyc:  221616203 now IPC :0.26480: AVG IPC :1.23742: L2-Pf-HR :0.67032: L2-HR :0.77020: (Sim:0h31m45s) 
CPU  0 inst:  276000002 cyc:  225375535 now IPC :0.26600: AVG IPC :1.22114: L2-Pf-HR :0.66793: L2-HR :0.76875: (Sim:0h32m2s) 
CPU  0 inst:  277000001 cyc:  229150767 now IPC :0.26488: AVG IPC :1.20532: L2-Pf-HR :0.66555: L2-HR :0.76730: (Sim:0h32m18s) 
CPU  0 inst:  278000000 cyc:  232909519 now IPC :0.26605: AVG IPC :1.19010: L2-Pf-HR :0.66319: L2-HR :0.76587: (Sim:0h32m34s) 
CPU  0 inst:  279000000 cyc:  236669635 now IPC :0.26595: AVG IPC :1.17535: L2-Pf-HR :0.66085: L2-HR :0.76445: (Sim:0h32m50s) 
CPU  0 inst:  280000000 cyc:  240425866 now IPC :0.26622: AVG IPC :1.16109: L2-Pf-HR :0.65852: L2-HR :0.76303: (Sim:0h33m7s) 
CPU  0 inst:  281000003 cyc:  244188687 now IPC :0.26576: AVG IPC :1.14724: L2-Pf-HR :0.65621: L2-HR :0.76162: (Sim:0h33m23s) 
CPU  0 inst:  282000001 cyc:  247942691 now IPC :0.26638: AVG IPC :1.13385: L2-Pf-HR :0.65391: L2-HR :0.76023: (Sim:0h33m39s) 
CPU  0 inst:  283000002 cyc:  251710687 now IPC :0.26539: AVG IPC :1.12079: L2-Pf-HR :0.65163: L2-HR :0.75884: (Sim:0h33m54s) 
CPU  0 inst:  284000002 cyc:  255477499 now IPC :0.26548: AVG IPC :1.10813: L2-Pf-HR :0.64936: L2-HR :0.75746: (Sim:0h34m6s) 
CPU  0 inst:  285000001 cyc:  259251887 now IPC :0.26494: AVG IPC :1.09581: L2-Pf-HR :0.64712: L2-HR :0.75609: (Sim:0h34m19s) 
CPU  0 inst:  286000000 cyc:  263017169 now IPC :0.26558: AVG IPC :1.08388: L2-Pf-HR :0.64489: L2-HR :0.75473: (Sim:0h34m36s) 
CPU  0 inst:  287000000 cyc:  266773414 now IPC :0.26622: AVG IPC :1.07232: L2-Pf-HR :0.64267: L2-HR :0.75338: (Sim:0h34m52s) 
CPU  0 inst:  288000000 cyc:  270535750 now IPC :0.26579: AVG IPC :1.06107: L2-Pf-HR :0.64047: L2-HR :0.75203: (Sim:0h35m8s) 
CPU  0 inst:  289000001 cyc:  274309394 now IPC :0.26500: AVG IPC :1.05008: L2-Pf-HR :0.63828: L2-HR :0.75070: (Sim:0h35m25s) 
CPU  0 inst:  290000003 cyc:  278086881 now IPC :0.26473: AVG IPC :1.03937: L2-Pf-HR :0.63611: L2-HR :0.74937: (Sim:0h35m41s) 
CPU  0 inst:  291000003 cyc:  281860597 now IPC :0.26499: AVG IPC :1.02896: L2-Pf-HR :0.63396: L2-HR :0.74805: (Sim:0h35m57s) 
CPU  0 inst:  292000002 cyc:  285613753 now IPC :0.26644: AVG IPC :1.01891: L2-Pf-HR :0.63181: L2-HR :0.74674: (Sim:0h36m14s) 
CPU  0 inst:  293000001 cyc:  289392018 now IPC :0.26467: AVG IPC :1.00903: L2-Pf-HR :0.62968: L2-HR :0.74544: (Sim:0h36m30s) 
CPU  0 inst:  294000000 cyc:  293159699 now IPC :0.26541: AVG IPC :0.99944: L2-Pf-HR :0.62756: L2-HR :0.74415: (Sim:0h36m47s) 
CPU  0 inst:  295000000 cyc:  296923772 now IPC :0.26567: AVG IPC :0.99011: L2-Pf-HR :0.62547: L2-HR :0.74286: (Sim:0h37m3s) 
CPU  0 inst:  296000000 cyc:  300688878 now IPC :0.26560: AVG IPC :0.98100: L2-Pf-HR :0.62338: L2-HR :0.74158: (Sim:0h37m19s) 
CPU  0 inst:  297000001 cyc:  304457303 now IPC :0.26536: AVG IPC :0.97212: L2-Pf-HR :0.62131: L2-HR :0.74031: (Sim:0h37m36s) 
CPU  0 inst:  298000003 cyc:  308220811 now IPC :0.26571: AVG IPC :0.96346: L2-Pf-HR :0.61925: L2-HR :0.73905: (Sim:0h37m50s) 
CPU  0 inst:  299000003 cyc:  311983977 now IPC :0.26573: AVG IPC :0.95502: L2-Pf-HR :0.61721: L2-HR :0.73780: (Sim:0h38m2s) 
CPU  0 inst:  300000003 cyc:  315746659 now IPC :0.26577: AVG IPC :0.94678: L2-Pf-HR :0.61518: L2-HR :0.73655: (Sim:0h38m19s) 
CPU  0 inst:  301000001 cyc:  319506414 now IPC :0.26597: AVG IPC :0.93874: L2-Pf-HR :0.61316: L2-HR :0.73531: (Sim:0h38m31s) 
CPU  0 inst:  302000000 cyc:  323283070 now IPC :0.26478: AVG IPC :0.93085: L2-Pf-HR :0.61115: L2-HR :0.73408: (Sim:0h38m48s) 
CPU  0 inst:  303000000 cyc:  327043727 now IPC :0.26591: AVG IPC :0.92318: L2-Pf-HR :0.60916: L2-HR :0.73286: (Sim:0h39m4s) 
CPU  0 inst:  304000000 cyc:  330809744 now IPC :0.26553: AVG IPC :0.91567: L2-Pf-HR :0.60718: L2-HR :0.73164: (Sim:0h39m20s) 
CPU  0 inst:  305000001 cyc:  334579447 now IPC :0.26527: AVG IPC :0.90832: L2-Pf-HR :0.60521: L2-HR :0.73043: (Sim:0h39m36s) 
CPU  0 inst:  306000003 cyc:  338346466 now IPC :0.26546: AVG IPC :0.90114: L2-Pf-HR :0.60326: L2-HR :0.72923: (Sim:0h39m53s) 
CPU  0 inst:  307000003 cyc:  342117526 now IPC :0.26518: AVG IPC :0.89411: L2-Pf-HR :0.60132: L2-HR :0.72804: (Sim:0h40m9s) 
CPU  0 inst:  308000002 cyc:  345874404 now IPC :0.26618: AVG IPC :0.88727: L2-Pf-HR :0.59940: L2-HR :0.72685: (Sim:0h40m25s) 
CPU  0 inst:  309000002 cyc:  349643163 now IPC :0.26534: AVG IPC :0.88055: L2-Pf-HR :0.59748: L2-HR :0.72567: (Sim:0h40m41s) 
CPU  0 inst:  310000003 cyc:  353399814 now IPC :0.26619: AVG IPC :0.87400: L2-Pf-HR :0.59558: L2-HR :0.72450: (Sim:0h40m57s) 
CPU  0 inst:  311000002 cyc:  357165718 now IPC :0.26554: AVG IPC :0.86756: L2-Pf-HR :0.59369: L2-HR :0.72334: (Sim:0h41m14s) 
CPU  0 inst:  312000000 cyc:  360930922 now IPC :0.26559: AVG IPC :0.86127: L2-Pf-HR :0.59180: L2-HR :0.72217: (Sim:0h41m30s) 
CPU  0 inst:  313000001 cyc:  364686256 now IPC :0.26629: AVG IPC :0.85512: L2-Pf-HR :0.58993: L2-HR :0.72102: (Sim:0h41m46s) 
CPU  0 inst:  314000003 cyc:  368447656 now IPC :0.26586: AVG IPC :0.84909: L2-Pf-HR :0.58808: L2-HR :0.71988: (Sim:0h42m2s) 
CPU  0 inst:  315000003 cyc:  372209104 now IPC :0.26586: AVG IPC :0.84318: L2-Pf-HR :0.58623: L2-HR :0.71874: (Sim:0h42m18s) 
CPU  0 inst:  316000002 cyc:  375984536 now IPC :0.26487: AVG IPC :0.83736: L2-Pf-HR :0.58440: L2-HR :0.71761: (Sim:0h42m35s) 
CPU  0 inst:  317000002 cyc:  379755211 now IPC :0.26520: AVG IPC :0.83166: L2-Pf-HR :0.58258: L2-HR :0.71648: (Sim:0h42m51s) 
CPU  0 inst:  318000001 cyc:  383522064 now IPC :0.26547: AVG IPC :0.82609: L2-Pf-HR :0.58077: L2-HR :0.71537: (Sim:0h43m5s) 
CPU  0 inst:  319000000 cyc:  387285994 now IPC :0.26568: AVG IPC :0.82063: L2-Pf-HR :0.57897: L2-HR :0.71425: (Sim:0h43m21s) 
CPU  0 inst:  320000000 cyc:  391050981 now IPC :0.26561: AVG IPC :0.81527: L2-Pf-HR :0.57719: L2-HR :0.71315: (Sim:0h43m37s) 
CPU  0 inst:  321000000 cyc:  394820556 now IPC :0.26528: AVG IPC :0.81000: L2-Pf-HR :0.57541: L2-HR :0.71205: (Sim:0h43m54s) 
CPU  0 inst:  322000003 cyc:  398582820 now IPC :0.26580: AVG IPC :0.80485: L2-Pf-HR :0.57364: L2-HR :0.71095: (Sim:0h44m10s) 
CPU  0 inst:  323000003 cyc:  402351988 now IPC :0.26531: AVG IPC :0.79979: L2-Pf-HR :0.57189: L2-HR :0.70987: (Sim:0h44m26s) 
CPU  0 inst:  324000002 cyc:  406110055 now IPC :0.26609: AVG IPC :0.79484: L2-Pf-HR :0.57014: L2-HR :0.70879: (Sim:0h44m43s) 
CPU  0 inst:  325000002 cyc:  409877116 now IPC :0.26546: AVG IPC :0.78996: L2-Pf-HR :0.56841: L2-HR :0.70771: (Sim:0h44m59s) 
CPU  0 inst:  326000001 cyc:  413646477 now IPC :0.26530: AVG IPC :0.78517: L2-Pf-HR :0.56669: L2-HR :0.70665: (Sim:0h45m14s) 
CPU  0 inst:  327000001 cyc:  415502706 now IPC :0.53873: AVG IPC :0.78406: L2-Pf-HR :0.56568: L2-HR :0.70567: (Sim:0h45m23s) 
CPU  0 inst:  328000000 cyc:  416067978 now IPC :1.76906: AVG IPC :0.78541: L2-Pf-HR :0.56623: L2-HR :0.70601: (Sim:0h45m31s) 
CPU  0 inst:  329000003 cyc:  416703262 now IPC :1.57410: AVG IPC :0.78661: L2-Pf-HR :0.56722: L2-HR :0.70646: (Sim:0h45m40s) 
CPU  0 inst:  330000000 cyc:  417348447 now IPC :1.54994: AVG IPC :0.78779: L2-Pf-HR :0.56762: L2-HR :0.70671: (Sim:0h45m48s) 
CPU  0 inst:  331000004 cyc:  417830383 now IPC :2.07497: AVG IPC :0.78928: L2-Pf-HR :0.56842: L2-HR :0.70721: (Sim:0h45m57s) 
CPU  0 inst:  332000000 cyc:  418366129 now IPC :1.86655: AVG IPC :0.79066: L2-Pf-HR :0.56955: L2-HR :0.70777: (Sim:0h46m5s) 
CPU  0 inst:  333000000 cyc:  418902862 now IPC :1.86312: AVG IPC :0.79204: L2-Pf-HR :0.57031: L2-HR :0.70816: (Sim:0h46m13s) 
CPU  0 inst:  334000002 cyc:  419394379 now IPC :2.03452: AVG IPC :0.79350: L2-Pf-HR :0.57138: L2-HR :0.70879: (Sim:0h46m22s) 
CPU  0 inst:  335000005 cyc:  420109113 now IPC :1.39913: AVG IPC :0.79453: L2-Pf-HR :0.57192: L2-HR :0.70901: (Sim:0h46m31s) 
CPU  0 inst:  336000000 cyc:  420677097 now IPC :1.76060: AVG IPC :0.79584: L2-Pf-HR :0.57247: L2-HR :0.70934: (Sim:0h46m39s) 
CPU  0 inst:  337000005 cyc:  421230047 now IPC :1.80849: AVG IPC :0.79717: L2-Pf-HR :0.57339: L2-HR :0.70981: (Sim:0h46m48s) 
CPU  0 inst:  338000000 cyc:  421919115 now IPC :1.45123: AVG IPC :0.79824: L2-Pf-HR :0.57368: L2-HR :0.70999: (Sim:0h46m56s) 
CPU  0 inst:  339000001 cyc:  422396502 now IPC :2.09474: AVG IPC :0.79971: L2-Pf-HR :0.57443: L2-HR :0.71044: (Sim:0h47m4s) 
CPU  0 inst:  340000004 cyc:  422869619 now IPC :2.11365: AVG IPC :0.80119: L2-Pf-HR :0.57524: L2-HR :0.71093: (Sim:0h47m12s) 
CPU  0 inst:  341000004 cyc:  423377823 now IPC :1.96771: AVG IPC :0.80259: L2-Pf-HR :0.57639: L2-HR :0.71152: (Sim:0h47m19s) 
CPU  0 inst:  342000003 cyc:  423920636 now IPC :1.84225: AVG IPC :0.80393: L2-Pf-HR :0.57702: L2-HR :0.71188: (Sim:0h47m27s) 
CPU  0 inst:  343000000 cyc:  424417652 now IPC :2.01200: AVG IPC :0.80534: L2-Pf-HR :0.57820: L2-HR :0.71251: (Sim:0h47m35s) 
CPU  0 inst:  344000000 cyc:  425084042 now IPC :1.50062: AVG IPC :0.80644: L2-Pf-HR :0.57826: L2-HR :0.71254: (Sim:0h47m43s) 
CPU  0 inst:  345000001 cyc:  425628160 now IPC :1.83784: AVG IPC :0.80776: L2-Pf-HR :0.57888: L2-HR :0.71288: (Sim:0h47m52s) 
CPU  0 inst:  346000004 cyc:  426209658 now IPC :1.71970: AVG IPC :0.80900: L2-Pf-HR :0.57977: L2-HR :0.71331: (Sim:0h47m59s) 
CPU  0 inst:  347000001 cyc:  426805376 now IPC :1.67864: AVG IPC :0.81022: L2-Pf-HR :0.58004: L2-HR :0.71352: (Sim:0h48m7s) 
CPU  0 inst:  348000004 cyc:  427278520 now IPC :2.11353: AVG IPC :0.81167: L2-Pf-HR :0.58076: L2-HR :0.71398: (Sim:0h48m15s) 
CPU  0 inst:  349000001 cyc:  427798174 now IPC :1.92435: AVG IPC :0.81302: L2-Pf-HR :0.58178: L2-HR :0.71449: (Sim:0h48m23s) 
CPU  0 inst:  350000000 cyc:  428324805 now IPC :1.89886: AVG IPC :0.81436: L2-Pf-HR :0.58244: L2-HR :0.71485: (Sim:0h48m30s) 
CPU  0 inst:  351000003 cyc:  428808266 now IPC :2.06843: AVG IPC :0.81578: L2-Pf-HR :0.58347: L2-HR :0.71545: (Sim:0h48m35s) 
CPU  0 inst:  352000000 cyc:  429462799 now IPC :1.52780: AVG IPC :0.81687: L2-Pf-HR :0.58383: L2-HR :0.71559: (Sim:0h48m41s) 
CPU  0 inst:  353000000 cyc:  430022804 now IPC :1.78570: AVG IPC :0.81813: L2-Pf-HR :0.58438: L2-HR :0.71590: (Sim:0h48m46s) 
CPU  0 inst:  354000004 cyc:  430560565 now IPC :1.85957: AVG IPC :0.81943: L2-Pf-HR :0.58532: L2-HR :0.71635: (Sim:0h48m51s) 
CPU  0 inst:  355000003 cyc:  431221977 now IPC :1.51192: AVG IPC :0.82050: L2-Pf-HR :0.58543: L2-HR :0.71647: (Sim:0h48m57s) 
CPU  0 inst:  356000005 cyc:  431697933 now IPC :2.10104: AVG IPC :0.82191: L2-Pf-HR :0.58611: L2-HR :0.71689: (Sim:0h49m2s) 
CPU  0 inst:  357000003 cyc:  432173935 now IPC :2.10083: AVG IPC :0.82333: L2-Pf-HR :0.58690: L2-HR :0.71738: (Sim:0h49m7s) 
CPU  0 inst:  358000000 cyc:  432700871 now IPC :1.89776: AVG IPC :0.82464: L2-Pf-HR :0.58784: L2-HR :0.71784: (Sim:0h49m12s) 
CPU  0 inst:  359000000 cyc:  433218539 now IPC :1.93174: AVG IPC :0.82596: L2-Pf-HR :0.58847: L2-HR :0.71822: (Sim:0h49m18s) 
CPU  0 inst:  360000000 cyc:  433716399 now IPC :2.00860: AVG IPC :0.82732: L2-Pf-HR :0.58956: L2-HR :0.71880: (Sim:0h49m23s) 
CPU  0 inst:  361000004 cyc:  434386313 now IPC :1.49273: AVG IPC :0.82835: L2-Pf-HR :0.58953: L2-HR :0.71879: (Sim:0h49m28s) 
CPU  0 inst:  362000001 cyc:  434930108 now IPC :1.83892: AVG IPC :0.82962: L2-Pf-HR :0.59009: L2-HR :0.71911: (Sim:0h49m34s) 
CPU  0 inst:  363000003 cyc:  435507610 now IPC :1.73160: AVG IPC :0.83082: L2-Pf-HR :0.59090: L2-HR :0.71950: (Sim:0h49m39s) 
CPU  0 inst:  364000004 cyc:  436101137 now IPC :1.68484: AVG IPC :0.83198: L2-Pf-HR :0.59115: L2-HR :0.71968: (Sim:0h49m44s) 
CPU  0 inst:  365000003 cyc:  436574244 now IPC :2.11368: AVG IPC :0.83337: L2-Pf-HR :0.59181: L2-HR :0.72011: (Sim:0h49m50s) 
CPU  0 inst:  366000000 cyc:  437093840 now IPC :1.92457: AVG IPC :0.83467: L2-Pf-HR :0.59274: L2-HR :0.72059: (Sim:0h49m55s) 
CPU  0 inst:  367000003 cyc:  437620670 now IPC :1.89815: AVG IPC :0.83596: L2-Pf-HR :0.59332: L2-HR :0.72092: (Sim:0h50m0s) 
CPU  0 inst:  368000000 cyc:  438114489 now IPC :2.02503: AVG IPC :0.83730: L2-Pf-HR :0.59440: L2-HR :0.72151: (Sim:0h50m6s) 
CPU  0 inst:  369000000 cyc:  438773949 now IPC :1.51639: AVG IPC :0.83832: L2-Pf-HR :0.59454: L2-HR :0.72156: (Sim:0h50m11s) 
CPU  0 inst:  370000005 cyc:  439318836 now IPC :1.83525: AVG IPC :0.83956: L2-Pf-HR :0.59501: L2-HR :0.72186: (Sim:0h50m17s) 
CPU  0 inst:  371000000 cyc:  439895122 now IPC :1.73524: AVG IPC :0.84074: L2-Pf-HR :0.59573: L2-HR :0.72222: (Sim:0h50m22s) 
CPU  0 inst:  372000005 cyc:  440512526 now IPC :1.61969: AVG IPC :0.84183: L2-Pf-HR :0.59594: L2-HR :0.72238: (Sim:0h50m28s) 
CPU  0 inst:  373000004 cyc:  440988471 now IPC :2.10108: AVG IPC :0.84320: L2-Pf-HR :0.59656: L2-HR :0.72277: (Sim:0h50m33s) 
CPU  0 inst:  374000000 cyc:  441473330 now IPC :2.06245: AVG IPC :0.84454: L2-Pf-HR :0.59742: L2-HR :0.72325: (Sim:0h50m39s) 
CPU  0 inst:  375000001 cyc:  442025446 now IPC :1.81122: AVG IPC :0.84575: L2-Pf-HR :0.59791: L2-HR :0.72351: (Sim:0h50m44s) 
CPU  0 inst:  376000000 cyc:  442505333 now IPC :2.08382: AVG IPC :0.84709: L2-Pf-HR :0.59872: L2-HR :0.72401: (Sim:0h50m49s) 
CPU  0 inst:  377000001 cyc:  443002880 now IPC :2.00986: AVG IPC :0.84840: L2-Pf-HR :0.59976: L2-HR :0.72455: (Sim:0h50m55s) 
CPU  0 inst:  378000000 cyc:  443686942 now IPC :1.46185: AVG IPC :0.84935: L2-Pf-HR :0.59963: L2-HR :0.72449: (Sim:0h51m3s) 
CPU  0 inst:  379000000 cyc:  444225843 now IPC :1.85563: AVG IPC :0.85057: L2-Pf-HR :0.60012: L2-HR :0.72479: (Sim:0h51m11s) 
CPU  0 inst:  380000003 cyc:  444799686 now IPC :1.74264: AVG IPC :0.85173: L2-Pf-HR :0.60087: L2-HR :0.72517: (Sim:0h51m18s) 
CPU  0 inst:  381000003 cyc:  445391517 now IPC :1.68967: AVG IPC :0.85284: L2-Pf-HR :0.60105: L2-HR :0.72532: (Sim:0h51m26s) 
CPU  0 inst:  382000004 cyc:  445874768 now IPC :2.06932: AVG IPC :0.85416: L2-Pf-HR :0.60168: L2-HR :0.72571: (Sim:0h51m35s) 
CPU  0 inst:  383000003 cyc:  446383416 now IPC :1.96599: AVG IPC :0.85543: L2-Pf-HR :0.60252: L2-HR :0.72616: (Sim:0h51m42s) 
CPU  0 inst:  384000000 cyc:  446916805 now IPC :1.87480: AVG IPC :0.85665: L2-Pf-HR :0.60306: L2-HR :0.72645: (Sim:0h51m49s) 
CPU  0 inst:  385000004 cyc:  447419864 now IPC :1.98785: AVG IPC :0.85793: L2-Pf-HR :0.60402: L2-HR :0.72697: (Sim:0h51m54s) 
CPU  0 inst:  386000002 cyc:  448063337 now IPC :1.55406: AVG IPC :0.85893: L2-Pf-HR :0.60411: L2-HR :0.72702: (Sim:0h52m0s) 
CPU  0 inst:  387000001 cyc:  448603106 now IPC :1.85264: AVG IPC :0.86013: L2-Pf-HR :0.60455: L2-HR :0.72731: (Sim:0h52m5s) 
CPU  0 inst:  388000005 cyc:  449186206 now IPC :1.71498: AVG IPC :0.86124: L2-Pf-HR :0.60523: L2-HR :0.72764: (Sim:0h52m11s) 
CPU  0 inst:  389000004 cyc:  449788355 now IPC :1.66072: AVG IPC :0.86231: L2-Pf-HR :0.60541: L2-HR :0.72777: (Sim:0h52m16s) 
CPU  0 inst:  390000004 cyc:  450264136 now IPC :2.10181: AVG IPC :0.86363: L2-Pf-HR :0.60598: L2-HR :0.72814: (Sim:0h52m22s) 
CPU  0 inst:  391000004 cyc:  450757500 now IPC :2.02690: AVG IPC :0.86490: L2-Pf-HR :0.60689: L2-HR :0.72862: (Sim:0h52m27s) 
CPU  0 inst:  392000000 cyc:  451307282 now IPC :1.81890: AVG IPC :0.86607: L2-Pf-HR :0.60723: L2-HR :0.72883: (Sim:0h52m32s) 
CPU  0 inst:  393000000 cyc:  451786070 now IPC :2.08861: AVG IPC :0.86737: L2-Pf-HR :0.60802: L2-HR :0.72930: (Sim:0h52m38s) 
CPU  0 inst:  394000000 cyc:  452322589 now IPC :1.86387: AVG IPC :0.86855: L2-Pf-HR :0.60883: L2-HR :0.72973: (Sim:0h52m43s) 
CPU  0 inst:  395000000 cyc:  452972667 now IPC :1.53828: AVG IPC :0.86951: L2-Pf-HR :0.60880: L2-HR :0.72971: (Sim:0h52m49s) 
CPU  0 inst:  396000000 cyc:  453509850 now IPC :1.86156: AVG IPC :0.87069: L2-Pf-HR :0.60928: L2-HR :0.72999: (Sim:0h52m54s) 
CPU  0 inst:  397000003 cyc:  454083197 now IPC :1.74415: AVG IPC :0.87180: L2-Pf-HR :0.60998: L2-HR :0.73033: (Sim:0h53m0s) 
CPU  0 inst:  398000002 cyc:  454668395 now IPC :1.70882: AVG IPC :0.87288: L2-Pf-HR :0.61012: L2-HR :0.73047: (Sim:0h53m9s) 
CPU  0 inst:  399000000 cyc:  455154858 now IPC :2.05565: AVG IPC :0.87414: L2-Pf-HR :0.61071: L2-HR :0.73084: (Sim:0h53m17s) 
CPU  0 inst:  400000000 cyc:  455663783 now IPC :1.96493: AVG IPC :0.87536: L2-Pf-HR :0.61149: L2-HR :0.73126: (Sim:0h53m22s) 
CPU  0 inst:  401000001 cyc:  456199046 now IPC :1.86824: AVG IPC :0.87653: L2-Pf-HR :0.61195: L2-HR :0.73152: (Sim:0h53m28s) 
CPU  0 inst:  402000005 cyc:  456703144 now IPC :1.98375: AVG IPC :0.87776: L2-Pf-HR :0.61283: L2-HR :0.73199: (Sim:0h53m33s) 
CPU  0 inst:  403000000 cyc:  457364885 now IPC :1.51116: AVG IPC :0.87867: L2-Pf-HR :0.61290: L2-HR :0.73202: (Sim:0h53m39s) 
CPU  0 inst:  404000000 cyc:  457894349 now IPC :1.88870: AVG IPC :0.87984: L2-Pf-HR :0.61333: L2-HR :0.73228: (Sim:0h53m44s) 
CPU  0 inst:  405000001 cyc:  458483698 now IPC :1.69679: AVG IPC :0.88090: L2-Pf-HR :0.61396: L2-HR :0.73258: (Sim:0h53m50s) 
CPU  0 inst:  406000001 cyc:  459085581 now IPC :1.66145: AVG IPC :0.88192: L2-Pf-HR :0.61409: L2-HR :0.73269: (Sim:0h53m57s) 
CPU  0 inst:  407000000 cyc:  459569760 now IPC :2.06535: AVG IPC :0.88317: L2-Pf-HR :0.61462: L2-HR :0.73304: (Sim:0h54m5s) 
CPU  0 inst:  408000000 cyc:  460085233 now IPC :1.93997: AVG IPC :0.88436: L2-Pf-HR :0.61536: L2-HR :0.73343: (Sim:0h54m13s) 
CPU  0 inst:  409000001 cyc:  460607278 now IPC :1.91555: AVG IPC :0.88553: L2-Pf-HR :0.61574: L2-HR :0.73367: (Sim:0h54m21s) 
CPU  0 inst:  410000001 cyc:  461093754 now IPC :2.05560: AVG IPC :0.88677: L2-Pf-HR :0.61647: L2-HR :0.73411: (Sim:0h54m29s) 
CPU  0 inst:  411000000 cyc:  461696581 now IPC :1.65885: AVG IPC :0.88778: L2-Pf-HR :0.61687: L2-HR :0.73433: (Sim:0h54m37s) 
CPU  0 inst:  412000005 cyc:  462282911 now IPC :1.70553: AVG IPC :0.88882: L2-Pf-HR :0.61717: L2-HR :0.73447: (Sim:0h54m46s) 
CPU  0 inst:  413000003 cyc:  462820917 now IPC :1.85871: AVG IPC :0.88995: L2-Pf-HR :0.61763: L2-HR :0.73472: (Sim:0h54m54s) 
CPU  0 inst:  414000004 cyc:  463399568 now IPC :1.72816: AVG IPC :0.89100: L2-Pf-HR :0.61831: L2-HR :0.73506: (Sim:0h55m0s) 
CPU  0 inst:  415000000 cyc:  463982001 now IPC :1.71693: AVG IPC :0.89203: L2-Pf-HR :0.61840: L2-HR :0.73516: (Sim:0h55m6s) 
CPU  0 inst:  416000000 cyc:  464455042 now IPC :2.11398: AVG IPC :0.89328: L2-Pf-HR :0.61896: L2-HR :0.73553: (Sim:0h55m12s) 
CPU  0 inst:  417000005 cyc:  464963082 now IPC :1.96836: AVG IPC :0.89446: L2-Pf-HR :0.61968: L2-HR :0.73593: (Sim:0h55m16s) 
CPU  0 inst:  418000004 cyc:  465494689 now IPC :1.88109: AVG IPC :0.89559: L2-Pf-HR :0.62012: L2-HR :0.73617: (Sim:0h55m22s) 
CPU  0 inst:  419000000 cyc:  465998517 now IPC :1.98480: AVG IPC :0.89677: L2-Pf-HR :0.62093: L2-HR :0.73661: (Sim:0h55m27s) 
CPU  0 inst:  420000003 cyc:  466661484 now IPC :1.50838: AVG IPC :0.89764: L2-Pf-HR :0.62092: L2-HR :0.73661: (Sim:0h55m33s) 
CPU  0 inst:  421000001 cyc:  467187735 now IPC :1.90023: AVG IPC :0.89877: L2-Pf-HR :0.62131: L2-HR :0.73685: (Sim:0h55m38s) 
CPU  0 inst:  422000002 cyc:  467780037 now IPC :1.68833: AVG IPC :0.89977: L2-Pf-HR :0.62188: L2-HR :0.73713: (Sim:0h55m44s) 
CPU  0 inst:  423000000 cyc:  468378678 now IPC :1.67045: AVG IPC :0.90076: L2-Pf-HR :0.62200: L2-HR :0.73722: (Sim:0h55m49s) 
CPU  0 inst:  424000000 cyc:  468862501 now IPC :2.06687: AVG IPC :0.90197: L2-Pf-HR :0.62251: L2-HR :0.73756: (Sim:0h55m55s) 
CPU  0 inst:  425000002 cyc:  469382046 now IPC :1.92476: AVG IPC :0.90310: L2-Pf-HR :0.62318: L2-HR :0.73793: (Sim:0h56m0s) 
CPU  0 inst:  426000003 cyc:  469898465 now IPC :1.93641: AVG IPC :0.90424: L2-Pf-HR :0.62354: L2-HR :0.73813: (Sim:0h56m5s) 
CPU  0 inst:  427000002 cyc:  470383871 now IPC :2.06013: AVG IPC :0.90543: L2-Pf-HR :0.62424: L2-HR :0.73856: (Sim:0h56m11s) 
CPU  0 inst:  428000005 cyc:  471018480 now IPC :1.57578: AVG IPC :0.90634: L2-Pf-HR :0.62447: L2-HR :0.73866: (Sim:0h56m17s) 
CPU  0 inst:  429000000 cyc:  471579237 now IPC :1.78329: AVG IPC :0.90738: L2-Pf-HR :0.62479: L2-HR :0.73886: (Sim:0h56m22s) 
CPU  0 inst:  430000003 cyc:  472122027 now IPC :1.84234: AVG IPC :0.90846: L2-Pf-HR :0.62523: L2-HR :0.73912: (Sim:0h56m27s) 
CPU  0 inst:  431000003 cyc:  472708837 now IPC :1.70413: AVG IPC :0.90945: L2-Pf-HR :0.62581: L2-HR :0.73940: (Sim:0h56m32s) 
CPU  0 inst:  432000000 cyc:  473275399 now IPC :1.76503: AVG IPC :0.91048: L2-Pf-HR :0.62590: L2-HR :0.73951: (Sim:0h56m38s) 
CPU  0 inst:  433000000 cyc:  473748601 now IPC :2.11326: AVG IPC :0.91168: L2-Pf-HR :0.62643: L2-HR :0.73985: (Sim:0h56m44s) 
CPU  0 inst:  434000000 cyc:  474257157 now IPC :1.96635: AVG IPC :0.91281: L2-Pf-HR :0.62710: L2-HR :0.74023: (Sim:0h56m51s) 
CPU  0 inst:  435000003 cyc:  474792841 now IPC :1.86678: AVG IPC :0.91389: L2-Pf-HR :0.62749: L2-HR :0.74044: (Sim:0h57m0s) 
CPU  0 inst:  436000003 cyc:  475296545 now IPC :1.98529: AVG IPC :0.91503: L2-Pf-HR :0.62826: L2-HR :0.74086: (Sim:0h57m8s) 
CPU  0 inst:  437000003 cyc:  475955997 now IPC :1.51641: AVG IPC :0.91587: L2-Pf-HR :0.62819: L2-HR :0.74083: (Sim:0h57m16s) 
CPU  0 inst:  438000004 cyc:  476482612 now IPC :1.89892: AVG IPC :0.91695: L2-Pf-HR :0.62855: L2-HR :0.74106: (Sim:0h57m24s) 
CPU  0 inst:  439000000 cyc:  477074394 now IPC :1.68980: AVG IPC :0.91792: L2-Pf-HR :0.62909: L2-HR :0.74133: (Sim:0h57m33s) 
CPU  0 inst:  440000000 cyc:  477673643 now IPC :1.66876: AVG IPC :0.91886: L2-Pf-HR :0.62917: L2-HR :0.74141: (Sim:0h57m41s) 
CPU  0 inst:  441000000 cyc:  478147655 now IPC :2.10965: AVG IPC :0.92004: L2-Pf-HR :0.62965: L2-HR :0.74173: (Sim:0h57m50s) 
CPU  0 inst:  442000002 cyc:  478667458 now IPC :1.92381: AVG IPC :0.92113: L2-Pf-HR :0.63028: L2-HR :0.74207: (Sim:0h57m58s) 
CPU  0 inst:  443000001 cyc:  479193231 now IPC :1.90196: AVG IPC :0.92221: L2-Pf-HR :0.63062: L2-HR :0.74226: (Sim:0h58m6s) 
CPU  0 inst:  444000001 cyc:  479672014 now IPC :2.08863: AVG IPC :0.92338: L2-Pf-HR :0.63129: L2-HR :0.74267: (Sim:0h58m14s) 
CPU  0 inst:  445000001 cyc:  480313158 now IPC :1.55971: AVG IPC :0.92423: L2-Pf-HR :0.63145: L2-HR :0.74273: (Sim:0h58m22s) 
CPU  0 inst:  446000000 cyc:  480869021 now IPC :1.79900: AVG IPC :0.92524: L2-Pf-HR :0.63177: L2-HR :0.74292: (Sim:0h58m30s) 
CPU  0 inst:  447000005 cyc:  481410091 now IPC :1.84820: AVG IPC :0.92628: L2-Pf-HR :0.63228: L2-HR :0.74320: (Sim:0h58m38s) 
CPU  0 inst:  448000000 cyc:  482040893 now IPC :1.58528: AVG IPC :0.92715: L2-Pf-HR :0.63246: L2-HR :0.74331: (Sim:0h58m46s) 
CPU  0 inst:  449000003 cyc:  482552958 now IPC :1.95288: AVG IPC :0.92824: L2-Pf-HR :0.63280: L2-HR :0.74353: (Sim:0h58m55s) 
CPU  0 inst:  450000002 cyc:  483026716 now IPC :2.11078: AVG IPC :0.92940: L2-Pf-HR :0.63331: L2-HR :0.74386: (Sim:0h59m3s) 
CPU  0 inst:  451000002 cyc:  483535129 now IPC :1.96690: AVG IPC :0.93049: L2-Pf-HR :0.63394: L2-HR :0.74421: (Sim:0h59m10s) 
CPU  0 inst:  452000000 cyc:  484077257 now IPC :1.84458: AVG IPC :0.93152: L2-Pf-HR :0.63429: L2-HR :0.74441: (Sim:0h59m18s) 
CPU  0 inst:  453000000 cyc:  484573420 now IPC :2.01547: AVG IPC :0.93263: L2-Pf-HR :0.63501: L2-HR :0.74481: (Sim:0h59m26s) 
CPU  0 inst:  454000000 cyc:  485237499 now IPC :1.50584: AVG IPC :0.93342: L2-Pf-HR :0.63490: L2-HR :0.74475: (Sim:0h59m34s) 
CPU  0 inst:  455000001 cyc:  485773277 now IPC :1.86645: AVG IPC :0.93445: L2-Pf-HR :0.63527: L2-HR :0.74496: (Sim:0h59m43s) 
CPU  0 inst:  456000000 cyc:  486357042 now IPC :1.71302: AVG IPC :0.93539: L2-Pf-HR :0.63578: L2-HR :0.74520: (Sim:0h59m50s) 
CPU  0 inst:  457000003 cyc:  486952870 now IPC :1.67834: AVG IPC :0.93630: L2-Pf-HR :0.63584: L2-HR :0.74528: (Sim:0h59m59s) 
CPU  0 inst:  458000001 cyc:  487427231 now IPC :2.10809: AVG IPC :0.93744: L2-Pf-HR :0.63629: L2-HR :0.74558: (Sim:1h0m7s) 
CPU  0 inst:  459000005 cyc:  487946079 now IPC :1.92735: AVG IPC :0.93849: L2-Pf-HR :0.63689: L2-HR :0.74590: (Sim:1h0m15s) 
CPU  0 inst:  460000004 cyc:  488474060 now IPC :1.89401: AVG IPC :0.93953: L2-Pf-HR :0.63720: L2-HR :0.74608: (Sim:1h0m22s) 
CPU  0 inst:  461000004 cyc:  488957185 now IPC :2.06986: AVG IPC :0.94065: L2-Pf-HR :0.63783: L2-HR :0.74646: (Sim:1h0m30s) 
CPU  0 inst:  462000004 cyc:  489617064 now IPC :1.51543: AVG IPC :0.94142: L2-Pf-HR :0.63794: L2-HR :0.74649: (Sim:1h0m39s) 
CPU  0 inst:  463000000 cyc:  490171442 now IPC :1.80382: AVG IPC :0.94240: L2-Pf-HR :0.63827: L2-HR :0.74668: (Sim:1h0m47s) 
CPU  0 inst:  464000000 cyc:  490718267 now IPC :1.82874: AVG IPC :0.94339: L2-Pf-HR :0.63884: L2-HR :0.74696: (Sim:1h0m55s) 
CPU  0 inst:  465000000 cyc:  491376818 now IPC :1.51849: AVG IPC :0.94416: L2-Pf-HR :0.63882: L2-HR :0.74697: (Sim:1h1m4s) 
CPU  0 inst:  466000000 cyc:  491852208 now IPC :2.10354: AVG IPC :0.94529: L2-Pf-HR :0.63924: L2-HR :0.74725: (Sim:1h1m12s) 
CPU  0 inst:  467000002 cyc:  492325715 now IPC :2.11191: AVG IPC :0.94641: L2-Pf-HR :0.63972: L2-HR :0.74755: (Sim:1h1m20s) 
CPU  0 inst:  468000000 cyc:  492838423 now IPC :1.95042: AVG IPC :0.94746: L2-Pf-HR :0.64038: L2-HR :0.74791: (Sim:1h1m27s) 
CPU  0 inst:  469000000 cyc:  493370722 now IPC :1.87864: AVG IPC :0.94846: L2-Pf-HR :0.64064: L2-HR :0.74808: (Sim:1h1m35s) 
CPU  0 inst:  470000002 cyc:  493867082 now IPC :2.01467: AVG IPC :0.94954: L2-Pf-HR :0.64131: L2-HR :0.74846: (Sim:1h1m42s) 
CPU  0 inst:  471000001 cyc:  494541716 now IPC :1.48228: AVG IPC :0.95027: L2-Pf-HR :0.64118: L2-HR :0.74838: (Sim:1h1m50s) 
CPU  0 inst:  472000000 cyc:  495085788 now IPC :1.83799: AVG IPC :0.95124: L2-Pf-HR :0.64153: L2-HR :0.74857: (Sim:1h1m56s) 
CPU  0 inst:  473000001 cyc:  495664408 now IPC :1.72825: AVG IPC :0.95215: L2-Pf-HR :0.64200: L2-HR :0.74881: (Sim:1h2m1s) 
CPU  0 inst:  474000002 cyc:  496261830 now IPC :1.67386: AVG IPC :0.95302: L2-Pf-HR :0.64203: L2-HR :0.74887: (Sim:1h2m6s) 
CPU  0 inst:  475000003 cyc:  496736468 now IPC :2.10687: AVG IPC :0.95413: L2-Pf-HR :0.64246: L2-HR :0.74916: (Sim:1h2m11s) 
CPU  0 inst:  476000001 cyc:  497255175 now IPC :1.92787: AVG IPC :0.95515: L2-Pf-HR :0.64303: L2-HR :0.74946: (Sim:1h2m17s) 
CPU  0 inst:  477000004 cyc:  497783068 now IPC :1.89433: AVG IPC :0.95614: L2-Pf-HR :0.64331: L2-HR :0.74962: (Sim:1h2m25s) 
CPU  0 inst:  478000004 cyc:  498269232 now IPC :2.05692: AVG IPC :0.95722: L2-Pf-HR :0.64396: L2-HR :0.75001: (Sim:1h2m33s) 
CPU  0 inst:  479000002 cyc:  498929262 now IPC :1.51508: AVG IPC :0.95796: L2-Pf-HR :0.64397: L2-HR :0.74998: (Sim:1h2m41s) 
CPU  0 inst:  480000000 cyc:  499484063 now IPC :1.80244: AVG IPC :0.95890: L2-Pf-HR :0.64426: L2-HR :0.75017: (Sim:1h2m50s) 
CPU  0 inst:  481000004 cyc:  500044992 now IPC :1.78276: AVG IPC :0.95982: L2-Pf-HR :0.64475: L2-HR :0.75040: (Sim:1h2m58s) 
CPU  0 inst:  482000000 cyc:  500680005 now IPC :1.57476: AVG IPC :0.96061: L2-Pf-HR :0.64472: L2-HR :0.75043: (Sim:1h3m3s) 
CPU  0 inst:  483000003 cyc:  501156509 now IPC :2.09862: AVG IPC :0.96169: L2-Pf-HR :0.64513: L2-HR :0.75069: (Sim:1h3m9s) 
CPU  0 inst:  484000002 cyc:  501638440 now IPC :2.07498: AVG IPC :0.96276: L2-Pf-HR :0.64566: L2-HR :0.75101: (Sim:1h3m14s) 
CPU  0 inst:  485000005 cyc:  502186111 now IPC :1.82592: AVG IPC :0.96371: L2-Pf-HR :0.64598: L2-HR :0.75119: (Sim:1h3m19s) 
CPU  0 inst:  486000002 cyc:  502683733 now IPC :2.00955: AVG IPC :0.96474: L2-Pf-HR :0.64645: L2-HR :0.75148: (Sim:1h3m24s) 
CPU  0 inst:  487000002 cyc:  503180350 now IPC :2.01362: AVG IPC :0.96578: L2-Pf-HR :0.64710: L2-HR :0.75184: (Sim:1h3m29s) 
CPU  0 inst:  488000000 cyc:  503849006 now IPC :1.49553: AVG IPC :0.96648: L2-Pf-HR :0.64691: L2-HR :0.75175: (Sim:1h3m34s) 
CPU  0 inst:  489000005 cyc:  504394009 now IPC :1.83486: AVG IPC :0.96742: L2-Pf-HR :0.64723: L2-HR :0.75193: (Sim:1h3m42s) 
CPU  0 inst:  490000003 cyc:  504968915 now IPC :1.73941: AVG IPC :0.96831: L2-Pf-HR :0.64768: L2-HR :0.75216: (Sim:1h3m47s) 
CPU  0 inst:  491000003 cyc:  505557798 now IPC :1.69813: AVG IPC :0.96916: L2-Pf-HR :0.64771: L2-HR :0.75222: (Sim:1h3m53s) 
CPU  0 inst:  492000004 cyc:  506042289 now IPC :2.06402: AVG IPC :0.97021: L2-Pf-HR :0.64813: L2-HR :0.75248: (Sim:1h3m59s) 
CPU  0 inst:  493000002 cyc:  506550376 now IPC :1.96816: AVG IPC :0.97121: L2-Pf-HR :0.64866: L2-HR :0.75277: (Sim:1h4m3s) 
CPU  0 inst:  494000005 cyc:  507076173 now IPC :1.90188: AVG IPC :0.97218: L2-Pf-HR :0.64892: L2-HR :0.75293: (Sim:1h4m8s) 
CPU  0 inst:  495000000 cyc:  507571202 now IPC :2.02007: AVG IPC :0.97320: L2-Pf-HR :0.64962: L2-HR :0.75332: (Sim:1h4m13s) 
CPU  0 inst:  496000000 cyc:  508231038 now IPC :1.51553: AVG IPC :0.97391: L2-Pf-HR :0.64950: L2-HR :0.75325: (Sim:1h4m19s) 
CPU  0 inst:  497000001 cyc:  508780169 now IPC :1.82106: AVG IPC :0.97482: L2-Pf-HR :0.64978: L2-HR :0.75343: (Sim:1h4m24s) 
CPU  0 inst:  498000005 cyc:  509361855 now IPC :1.71915: AVG IPC :0.97567: L2-Pf-HR :0.65019: L2-HR :0.75363: (Sim:1h4m30s) 
CPU  0 inst:  499000002 cyc:  509969576 now IPC :1.64549: AVG IPC :0.97647: L2-Pf-HR :0.65021: L2-HR :0.75367: (Sim:1h4m35s) 
CPU  0 inst:  500000001 cyc:  510446509 now IPC :2.09673: AVG IPC :0.97752: L2-Pf-HR :0.65060: L2-HR :0.75392: (Sim:1h4m40s) 
CPU  0 inst:  501000005 cyc:  510936984 now IPC :2.03885: AVG IPC :0.97854: L2-Pf-HR :0.65118: L2-HR :0.75425: (Sim:1h4m45s) 
CPU  0 inst:  502000000 cyc:  511493881 now IPC :1.79566: AVG IPC :0.97944: L2-Pf-HR :0.65132: L2-HR :0.75434: (Sim:1h4m51s) 
CPU  0 inst:  503000005 cyc:  511973040 now IPC :2.08700: AVG IPC :0.98047: L2-Pf-HR :0.65184: L2-HR :0.75466: (Sim:1h4m56s) 
CPU  0 inst:  504000000 cyc:  512476204 now IPC :1.98741: AVG IPC :0.98146: L2-Pf-HR :0.65248: L2-HR :0.75501: (Sim:1h5m1s) 
CPU  0 inst:  505000002 cyc:  513153831 now IPC :1.47574: AVG IPC :0.98212: L2-Pf-HR :0.65224: L2-HR :0.75488: (Sim:1h5m7s) 
CPU  0 inst:  506000000 cyc:  513685967 now IPC :1.87922: AVG IPC :0.98305: L2-Pf-HR :0.65256: L2-HR :0.75506: (Sim:1h5m12s) 
CPU  0 inst:  507000000 cyc:  514257455 now IPC :1.74982: AVG IPC :0.98390: L2-Pf-HR :0.65298: L2-HR :0.75528: (Sim:1h5m17s) 
CPU  0 inst:  508000003 cyc:  514838015 now IPC :1.72248: AVG IPC :0.98474: L2-Pf-HR :0.65297: L2-HR :0.75533: (Sim:1h5m22s) 
CPU  0 inst:  509000002 cyc:  515322592 now IPC :2.06365: AVG IPC :0.98575: L2-Pf-HR :0.65336: L2-HR :0.75558: (Sim:1h5m28s) 
CPU  0 inst:  510000005 cyc:  515833184 now IPC :1.95852: AVG IPC :0.98672: L2-Pf-HR :0.65386: L2-HR :0.75586: (Sim:1h5m33s) 
CPU  0 inst:  511000000 cyc:  516364763 now IPC :1.88118: AVG IPC :0.98764: L2-Pf-HR :0.65410: L2-HR :0.75599: (Sim:1h5m38s) 
CPU  0 inst:  512000000 cyc:  516868240 now IPC :1.98619: AVG IPC :0.98862: L2-Pf-HR :0.65468: L2-HR :0.75632: (Sim:1h5m43s) 
CPU  0 inst:  513000005 cyc:  517525040 now IPC :1.52254: AVG IPC :0.98930: L2-Pf-HR :0.65463: L2-HR :0.75627: (Sim:1h5m49s) 
CPU  0 inst:  514000004 cyc:  518051984 now IPC :1.89773: AVG IPC :0.99022: L2-Pf-HR :0.65491: L2-HR :0.75645: (Sim:1h5m54s) 
CPU  0 inst:  515000002 cyc:  518640832 now IPC :1.69823: AVG IPC :0.99103: L2-Pf-HR :0.65530: L2-HR :0.75663: (Sim:1h5m59s) 
CPU  0 inst:  516000002 cyc:  519237879 now IPC :1.67491: AVG IPC :0.99181: L2-Pf-HR :0.65531: L2-HR :0.75667: (Sim:1h6m4s) 
CPU  0 inst:  517000005 cyc:  519723640 now IPC :2.05863: AVG IPC :0.99281: L2-Pf-HR :0.65567: L2-HR :0.75691: (Sim:1h6m9s) 
CPU  0 inst:  518000001 cyc:  520213299 now IPC :2.04223: AVG IPC :0.99380: L2-Pf-HR :0.65629: L2-HR :0.75723: (Sim:1h6m17s) 
CPU  0 inst:  519000000 cyc:  520757013 now IPC :1.83920: AVG IPC :0.99469: L2-Pf-HR :0.65636: L2-HR :0.75731: (Sim:1h6m24s) 
CPU  0 inst:  520000000 cyc:  521241847 now IPC :2.06256: AVG IPC :0.99568: L2-Pf-HR :0.65686: L2-HR :0.75761: (Sim:1h6m32s) 
CPU  0 inst:  521000002 cyc:  521800668 now IPC :1.78949: AVG IPC :0.99653: L2-Pf-HR :0.65720: L2-HR :0.75782: (Sim:1h6m40s) 
CPU  0 inst:  522000004 cyc:  522415194 now IPC :1.62727: AVG IPC :0.99728: L2-Pf-HR :0.65722: L2-HR :0.75780: (Sim:1h6m49s) 
CPU  0 inst:  523000002 cyc:  522951398 now IPC :1.86496: AVG IPC :0.99817: L2-Pf-HR :0.65753: L2-HR :0.75797: (Sim:1h6m57s) 
CPU  0 inst:  524000005 cyc:  523526901 now IPC :1.73762: AVG IPC :0.99898: L2-Pf-HR :0.65794: L2-HR :0.75818: (Sim:1h7m4s) 
CPU  0 inst:  525000000 cyc:  524106559 now IPC :1.72515: AVG IPC :0.99979: L2-Pf-HR :0.65791: L2-HR :0.75822: (Sim:1h7m13s) 
CPU  0 inst:  526000001 cyc:  524591235 now IPC :2.06324: AVG IPC :1.00077: L2-Pf-HR :0.65830: L2-HR :0.75846: (Sim:1h7m22s) 
CPU  0 inst:  527000002 cyc:  525100736 now IPC :1.96271: AVG IPC :1.00171: L2-Pf-HR :0.65877: L2-HR :0.75872: (Sim:1h7m29s) 
CPU  0 inst:  528000000 cyc:  525632091 now IPC :1.88198: AVG IPC :1.00260: L2-Pf-HR :0.65900: L2-HR :0.75885: (Sim:1h7m37s) 
CPU  0 inst:  529000000 cyc:  526135379 now IPC :1.98693: AVG IPC :1.00354: L2-Pf-HR :0.65955: L2-HR :0.75916: (Sim:1h7m45s) 
CPU  0 inst:  530000000 cyc:  526795695 now IPC :1.51443: AVG IPC :1.00418: L2-Pf-HR :0.65945: L2-HR :0.75911: (Sim:1h7m53s) 
CPU  0 inst:  531000001 cyc:  527327667 now IPC :1.87980: AVG IPC :1.00507: L2-Pf-HR :0.65971: L2-HR :0.75927: (Sim:1h8m1s) 
CPU  0 inst:  532000001 cyc:  527920284 now IPC :1.68743: AVG IPC :1.00584: L2-Pf-HR :0.66009: L2-HR :0.75945: (Sim:1h8m9s) 
CPU  0 inst:  533000003 cyc:  528521637 now IPC :1.66292: AVG IPC :1.00659: L2-Pf-HR :0.66009: L2-HR :0.75947: (Sim:1h8m14s) 
CPU  0 inst:  534000000 cyc:  529006136 now IPC :2.06398: AVG IPC :1.00756: L2-Pf-HR :0.66044: L2-HR :0.75970: (Sim:1h8m20s) 
CPU  0 inst:  535000003 cyc:  529523129 now IPC :1.93427: AVG IPC :1.00846: L2-Pf-HR :0.66090: L2-HR :0.75995: (Sim:1h8m25s) 
CPU  0 inst:  536000000 cyc:  530040899 now IPC :1.93135: AVG IPC :1.00937: L2-Pf-HR :0.66107: L2-HR :0.76007: (Sim:1h8m30s) 
CPU  0 inst:  537000000 cyc:  530526411 now IPC :2.05968: AVG IPC :1.01033: L2-Pf-HR :0.66156: L2-HR :0.76037: (Sim:1h8m35s) 
CPU  0 inst:  538000004 cyc:  531157350 now IPC :1.58495: AVG IPC :1.01101: L2-Pf-HR :0.66164: L2-HR :0.76039: (Sim:1h8m40s) 
CPU  0 inst:  539000003 cyc:  531716102 now IPC :1.78970: AVG IPC :1.01183: L2-Pf-HR :0.66186: L2-HR :0.76052: (Sim:1h8m45s) 
CPU  0 inst:  540000000 cyc:  532254330 now IPC :1.85794: AVG IPC :1.01269: L2-Pf-HR :0.66214: L2-HR :0.76068: (Sim:1h8m50s) 
CPU  0 inst:  541000003 cyc:  532835187 now IPC :1.72160: AVG IPC :1.01346: L2-Pf-HR :0.66257: L2-HR :0.76091: (Sim:1h8m55s) 
CPU  0 inst:  542000002 cyc:  533414840 now IPC :1.72517: AVG IPC :1.01424: L2-Pf-HR :0.66249: L2-HR :0.76091: (Sim:1h9m1s) 
CPU  0 inst:  543000002 cyc:  533889885 now IPC :2.10506: AVG IPC :1.01521: L2-Pf-HR :0.66287: L2-HR :0.76115: (Sim:1h9m6s) 
CPU  0 inst:  544000000 cyc:  534400211 now IPC :1.95953: AVG IPC :1.01611: L2-Pf-HR :0.66331: L2-HR :0.76141: (Sim:1h9m11s) 
CPU  0 inst:  545000000 cyc:  534935279 now IPC :1.86892: AVG IPC :1.01697: L2-Pf-HR :0.66352: L2-HR :0.76153: (Sim:1h9m18s) 
CPU  0 inst:  546000005 cyc:  535438871 now IPC :1.98574: AVG IPC :1.01788: L2-Pf-HR :0.66404: L2-HR :0.76182: (Sim:1h9m25s) 
CPU  0 inst:  547000000 cyc:  536097437 now IPC :1.51844: AVG IPC :1.01850: L2-Pf-HR :0.66393: L2-HR :0.76176: (Sim:1h9m34s) 
CPU  0 inst:  548000004 cyc:  536626433 now IPC :1.89038: AVG IPC :1.01936: L2-Pf-HR :0.66416: L2-HR :0.76191: (Sim:1h9m42s) 
CPU  0 inst:  549000003 cyc:  537218192 now IPC :1.68988: AVG IPC :1.02010: L2-Pf-HR :0.66451: L2-HR :0.76208: (Sim:1h9m50s) 
CPU  0 inst:  550000000 cyc:  537812810 now IPC :1.68175: AVG IPC :1.02083: L2-Pf-HR :0.66450: L2-HR :0.76210: (Sim:1h9m58s) 
CPU  0 inst:  551000005 cyc:  538296647 now IPC :2.06682: AVG IPC :1.02177: L2-Pf-HR :0.66485: L2-HR :0.76233: (Sim:1h10m6s) 
CPU  0 inst:  552000000 cyc:  538819489 now IPC :1.91261: AVG IPC :1.02264: L2-Pf-HR :0.66528: L2-HR :0.76256: (Sim:1h10m14s) 
CPU  0 inst:  553000003 cyc:  539338605 now IPC :1.92636: AVG IPC :1.02351: L2-Pf-HR :0.66545: L2-HR :0.76267: (Sim:1h10m21s) 
CPU  0 inst:  554000002 cyc:  539823975 now IPC :2.06028: AVG IPC :1.02444: L2-Pf-HR :0.66592: L2-HR :0.76296: (Sim:1h10m29s) 
CPU  0 inst:  555000001 cyc:  540458329 now IPC :1.57641: AVG IPC :1.02509: L2-Pf-HR :0.66596: L2-HR :0.76297: (Sim:1h10m37s) 
CPU  0 inst:  556000005 cyc:  541010859 now IPC :1.80986: AVG IPC :1.02590: L2-Pf-HR :0.66617: L2-HR :0.76310: (Sim:1h10m45s) 
CPU  0 inst:  557000002 cyc:  541550418 now IPC :1.85336: AVG IPC :1.02672: L2-Pf-HR :0.66650: L2-HR :0.76328: (Sim:1h10m54s) 
CPU  0 inst:  558000001 cyc:  542162897 now IPC :1.63271: AVG IPC :1.02741: L2-Pf-HR :0.66670: L2-HR :0.76339: (Sim:1h11m1s) 
CPU  0 inst:  559000005 cyc:  542703160 now IPC :1.85096: AVG IPC :1.02823: L2-Pf-HR :0.66679: L2-HR :0.76347: (Sim:1h11m10s) 
CPU  0 inst:  560000000 cyc:  543177190 now IPC :2.10956: AVG IPC :1.02918: L2-Pf-HR :0.66715: L2-HR :0.76370: (Sim:1h11m18s) 
CPU  0 inst:  561000000 cyc:  543686192 now IPC :1.96463: AVG IPC :1.03005: L2-Pf-HR :0.66758: L2-HR :0.76395: (Sim:1h11m25s) 
CPU  0 inst:  562000005 cyc:  544222942 now IPC :1.86307: AVG IPC :1.03088: L2-Pf-HR :0.66779: L2-HR :0.76406: (Sim:1h11m33s) 
CPU  0 inst:  563000003 cyc:  544725879 now IPC :1.98832: AVG IPC :1.03176: L2-Pf-HR :0.66828: L2-HR :0.76435: (Sim:1h11m41s) 
CPU  0 inst:  564000005 cyc:  545391770 now IPC :1.50175: AVG IPC :1.03234: L2-Pf-HR :0.66814: L2-HR :0.76426: (Sim:1h11m49s) 
CPU  0 inst:  565000000 cyc:  545917142 now IPC :1.90340: AVG IPC :1.03318: L2-Pf-HR :0.66837: L2-HR :0.76442: (Sim:1h11m57s) 
CPU  0 inst:  566000004 cyc:  546513485 now IPC :1.67689: AVG IPC :1.03388: L2-Pf-HR :0.66871: L2-HR :0.76458: (Sim:1h12m5s) 
CPU  0 inst:  567000002 cyc:  547114313 now IPC :1.66437: AVG IPC :1.03457: L2-Pf-HR :0.66869: L2-HR :0.76458: (Sim:1h12m14s) 
CPU  0 inst:  568000000 cyc:  547587866 now IPC :2.11169: AVG IPC :1.03551: L2-Pf-HR :0.66901: L2-HR :0.76480: (Sim:1h12m22s) 
CPU  0 inst:  569000001 cyc:  548109290 now IPC :1.91783: AVG IPC :1.03635: L2-Pf-HR :0.66942: L2-HR :0.76503: (Sim:1h12m30s) 
CPU  0 inst:  570000004 cyc:  548633361 now IPC :1.90814: AVG IPC :1.03718: L2-Pf-HR :0.66957: L2-HR :0.76513: (Sim:1h12m37s) 
CPU  0 inst:  571000000 cyc:  549112739 now IPC :2.08603: AVG IPC :1.03810: L2-Pf-HR :0.67002: L2-HR :0.76541: (Sim:1h12m45s) 
CPU  0 inst:  572000000 cyc:  549760673 now IPC :1.54337: AVG IPC :1.03870: L2-Pf-HR :0.67004: L2-HR :0.76540: (Sim:1h12m54s) 
CPU  0 inst:  573000004 cyc:  550315451 now IPC :1.80253: AVG IPC :1.03947: L2-Pf-HR :0.67026: L2-HR :0.76552: (Sim:1h13m2s) 
CPU  0 inst:  574000002 cyc:  550855722 now IPC :1.85092: AVG IPC :1.04026: L2-Pf-HR :0.67063: L2-HR :0.76571: (Sim:1h13m10s) 
CPU  0 inst:  575000005 cyc:  551524362 now IPC :1.49558: AVG IPC :1.04082: L2-Pf-HR :0.67053: L2-HR :0.76568: (Sim:1h13m18s) 
CPU  0 inst:  576000000 cyc:  552000217 now IPC :2.10147: AVG IPC :1.04173: L2-Pf-HR :0.67083: L2-HR :0.76587: (Sim:1h13m26s) 
CPU  0 inst:  577000005 cyc:  552474313 now IPC :2.10929: AVG IPC :1.04265: L2-Pf-HR :0.67117: L2-HR :0.76609: (Sim:1h13m31s) 
CPU  0 inst:  578000004 cyc:  552986297 now IPC :1.95318: AVG IPC :1.04350: L2-Pf-HR :0.67160: L2-HR :0.76634: (Sim:1h13m35s) 
CPU  0 inst:  579000001 cyc:  553527389 now IPC :1.84811: AVG IPC :1.04428: L2-Pf-HR :0.67175: L2-HR :0.76643: (Sim:1h13m41s) 
CPU  0 inst:  580000001 cyc:  554024091 now IPC :2.01328: AVG IPC :1.04515: L2-Pf-HR :0.67224: L2-HR :0.76671: (Sim:1h13m46s) 
CPU  0 inst:  581000005 cyc:  554688989 now IPC :1.50400: AVG IPC :1.04571: L2-Pf-HR :0.67207: L2-HR :0.76661: (Sim:1h13m52s) 
CPU  0 inst:  582000002 cyc:  555233583 now IPC :1.83622: AVG IPC :1.04648: L2-Pf-HR :0.67232: L2-HR :0.76674: (Sim:1h14m1s) 
CPU  0 inst:  583000003 cyc:  555819981 now IPC :1.70533: AVG IPC :1.04718: L2-Pf-HR :0.67265: L2-HR :0.76691: (Sim:1h14m8s) 
CPU  0 inst:  584000000 cyc:  556413671 now IPC :1.68438: AVG IPC :1.04786: L2-Pf-HR :0.67261: L2-HR :0.76691: (Sim:1h14m17s) 
CPU  0 inst:  585000005 cyc:  556887196 now IPC :2.11183: AVG IPC :1.04877: L2-Pf-HR :0.67292: L2-HR :0.76712: (Sim:1h14m25s) 
CPU  0 inst:  586000002 cyc:  557408150 now IPC :1.91955: AVG IPC :1.04958: L2-Pf-HR :0.67329: L2-HR :0.76733: (Sim:1h14m33s) 
CPU  0 inst:  587000003 cyc:  557933953 now IPC :1.90185: AVG IPC :1.05039: L2-Pf-HR :0.67345: L2-HR :0.76743: (Sim:1h14m41s) 
CPU  0 inst:  588000001 cyc:  558417552 now IPC :2.06782: AVG IPC :1.05127: L2-Pf-HR :0.67390: L2-HR :0.76770: (Sim:1h14m48s) 
CPU  0 inst:  589000002 cyc:  559064546 now IPC :1.54561: AVG IPC :1.05184: L2-Pf-HR :0.67386: L2-HR :0.76766: (Sim:1h14m57s) 
CPU  0 inst:  590000003 cyc:  559624548 now IPC :1.78571: AVG IPC :1.05258: L2-Pf-HR :0.67406: L2-HR :0.76778: (Sim:1h15m5s) 
CPU  0 inst:  591000004 cyc:  560160749 now IPC :1.86497: AVG IPC :1.05336: L2-Pf-HR :0.67447: L2-HR :0.76798: (Sim:1h15m13s) 
CPU  0 inst:  592000000 cyc:  560817306 now IPC :1.52309: AVG IPC :1.05391: L2-Pf-HR :0.67432: L2-HR :0.76793: (Sim:1h15m21s) 
CPU  0 inst:  593000003 cyc:  561294849 now IPC :2.09406: AVG IPC :1.05479: L2-Pf-HR :0.67461: L2-HR :0.76811: (Sim:1h15m29s) 
CPU  0 inst:  594000002 cyc:  561772681 now IPC :2.09278: AVG IPC :1.05568: L2-Pf-HR :0.67498: L2-HR :0.76834: (Sim:1h15m37s) 
Finished CPU 0 instr: 592000001 cyc: 560777063 AVG IPC: 1.05568 (Sim time: 1h15m37s)

ChampSim completed all CPUs

[ROI Statistics]
Core_0_instructions 592000001
Core_0_cycles 560777063
Core_0_IPC 1.05568

Core_0_branch_prediction_accuracy 98.24511
Core_0_branch_MPKI 0.42508
Core_0_average_ROB_occupancy_at_mispredict 477.37416

Core_0_L1D_total_access 311924354
Core_0_L1D_total_hit 299407440 L1D_total_Hit Ratio: 0.95987
Core_0_L1D_total_miss 12516914
Core_0_L1D_loads 123581016
Core_0_L1D_load_hit 116127971 L1D_load_Hit Ratio: 0.93969
Core_0_L1D_load_miss 7453045
Core_0_L1D_RFOs 11923525
Core_0_L1D_RFO_hit 11331058 L1D_RFO_Hit Ratio: 0.95031
Core_0_L1D_RFO_miss 592467
Core_0_L1D_prefetches 176419813
Core_0_L1D_prefetch_hit 171948411 L1D_prefetch_Hit Ratio: 0.97465
Core_0_L1D_prefetch_miss 4471402
Core_0_L1D_writebacks 0
Core_0_L1D_writeback_hit 0 L1D_writeback_Hit Ratio: -nan
Core_0_L1D_writeback_miss 0
Core_0_L1D_prefetch_requested 375826602
Core_0_L1D_prefetch_issued 217130579
Core_0_L1D_prefetch_useful 3405808 L1D_Useful Ratio: 0.01569
Core_0_L1D_prefetch_useless 1082092
Core_0_L1D_prefetch_late 1149506
Core_0_L1D_average_miss_latency 29093086.20609

Core_0_L1I_total_access 76210678
Core_0_L1I_total_hit 76205803 L1I_total_Hit Ratio: 0.99994
Core_0_L1I_total_miss 4875
Core_0_L1I_loads 76210678
Core_0_L1I_load_hit 76205803 L1I_load_Hit Ratio: 0.99994
Core_0_L1I_load_miss 4875
Core_0_L1I_RFOs 0
Core_0_L1I_RFO_hit 0 L1I_RFO_Hit Ratio: -nan
Core_0_L1I_RFO_miss 0
Core_0_L1I_prefetches 0
Core_0_L1I_prefetch_hit 0 L1I_prefetch_Hit Ratio: -nan
Core_0_L1I_prefetch_miss 0
Core_0_L1I_writebacks 0
Core_0_L1I_writeback_hit 0 L1I_writeback_Hit Ratio: -nan
Core_0_L1I_writeback_miss 0
Core_0_L1I_prefetch_requested 0
Core_0_L1I_prefetch_issued 0
Core_0_L1I_prefetch_useful 0 L1I_Useful Ratio: -nan
Core_0_L1I_prefetch_useless 0
Core_0_L1I_prefetch_late 0
Core_0_L1I_average_miss_latency 296.87282

Core_0_L2C_total_access 15726628
Core_0_L2C_total_hit 12083355 L2C_total_Hit Ratio: 0.76834
Core_0_L2C_total_miss 3643273
Core_0_L2C_loads 6309124
Core_0_L2C_load_hit 4964251 L2C_load_Hit Ratio: 0.78684
Core_0_L2C_load_miss 1344873
Core_0_L2C_RFOs 592332
Core_0_L2C_RFO_hit 120683 L2C_RFO_Hit Ratio: 0.20374
Core_0_L2C_RFO_miss 471649
Core_0_L2C_prefetches 5620312
Core_0_L2C_prefetch_hit 3793576 L2C_prefetch_Hit Ratio: 0.67498
Core_0_L2C_prefetch_miss 1826736
Core_0_L2C_writebacks 3204860
Core_0_L2C_writeback_hit 3204845 L2C_writeback_Hit Ratio: 1.00000
Core_0_L2C_writeback_miss 15
Core_0_L2C_prefetch_requested 0
Core_0_L2C_prefetch_issued 0
Core_0_L2C_prefetch_useful 498650 L2C_Useful Ratio: inf
Core_0_L2C_prefetch_useless 1329874
Core_0_L2C_prefetch_late 0
Core_0_L2C_average_miss_latency 290.75202

Core_0_LLC_total_access 5640768
Core_0_LLC_total_hit 2480609 LLC_total_Hit Ratio: 0.43976
Core_0_LLC_total_miss 3160159
Core_0_LLC_loads 1344848
Core_0_LLC_load_hit 263665 LLC_load_Hit Ratio: 0.19606
Core_0_LLC_load_miss 1081183
Core_0_LLC_RFOs 471644
Core_0_LLC_RFO_hit 4293 LLC_RFO_Hit Ratio: 0.00910
Core_0_LLC_RFO_miss 467351
Core_0_LLC_prefetches 1826726
Core_0_LLC_prefetch_hit 226656 LLC_prefetch_Hit Ratio: 0.12408
Core_0_LLC_prefetch_miss 1600070
Core_0_LLC_writebacks 1997550
Core_0_LLC_writeback_hit 1985995 LLC_writeback_Hit Ratio: 0.99422
Core_0_LLC_writeback_miss 11555
Core_0_LLC_prefetch_requested 0
Core_0_LLC_prefetch_issued 0
Core_0_LLC_prefetch_useful 78332 LLC_Useful Ratio: inf
Core_0_LLC_prefetch_useless 1508698
Core_0_LLC_prefetch_late 0
Core_0_LLC_average_miss_latency 277.19582

Core_0_major_page_fault 0
Core_0_minor_page_fault 25625

CPU 0 L1D next line prefetcher final stats
Channel_0_RQ_row_buffer_hit 1585086
Channel_0_RQ_row_buffer_miss 1563516
Channel_0_WQ_row_buffer_hit 566401
Channel_0_WQ_row_buffer_miss 1144691
Channel_0_WQ_full 531
Channel_0_dbus_congested 2332050

avg_congested_cycle 10

EzSearch AVG IPC :1.05568: L2-Pf-HR :0.67498 : L2-HR :0.76834 Uful:inf
     > Finished combination: TraceType=770-tot Sim:592000000 Prefetcher=L2no L1=next_line
