TRACE: [1183000000][GPT-Neo-1_3B]_[h16][s1024][d128] Warmup: 2000000 NumTraces: 1183000000
L1:berti:L2:berti
*************************************************
   ChampSim Multicore Out-of-Order Simulator
   Last compiled: Oct 26 2024 22:14:36
*************************************************

trace_0 770-tot_memTraces_v3/memTraces[1183000000][GPT-Neo-1_3B]_[h16][s1024][d128].champsim.xz
CPU 0 L1D Berti prefetcher
CPU 0 L2C Berti prefetcher
MAIN.cc ln 751 stats print skipped
CPU  0 inst:    1000001 cyc:     498313 now IPC :2.00677: AVG IPC :2.00677: L2-Pf-HR :0.65010: L2-HR :0.66560: (Sim:0h0m22s) 
CPU  0 inst:    2000002 cyc:     983152 now IPC :2.06254: AVG IPC :2.03428: L2-Pf-HR :0.75339: L2-HR :0.75374: (Sim:0h0m45s) 

Warmup complete CPU  0 instructions:    2000002 cycles:     983152 (Simulation time: 0 hr 0 min 45 sec) 

CPU  0 inst:    3000001 cyc:    1465036 now IPC :2.07519: AVG IPC :2.07519: L2-Pf-HR :0.88656: L2-HR :0.88622: (Sim:0h1m3s) 
CPU  0 inst:    4000000 cyc:    1941378 now IPC :2.09933: AVG IPC :2.08719: L2-Pf-HR :0.88795: L2-HR :0.88904: (Sim:0h1m22s) 
CPU  0 inst:    5000004 cyc:    2411302 now IPC :2.12801: AVG IPC :2.10062: L2-Pf-HR :0.88653: L2-HR :0.88970: (Sim:0h1m40s) 
CPU  0 inst:    6000001 cyc:    2887621 now IPC :2.09943: AVG IPC :2.10032: L2-Pf-HR :0.88609: L2-HR :0.89012: (Sim:0h1m58s) 
CPU  0 inst:    7000001 cyc:    3359935 now IPC :2.11724: AVG IPC :2.10368: L2-Pf-HR :0.88766: L2-HR :0.89158: (Sim:0h2m17s) 
CPU  0 inst:    8000005 cyc:    3832982 now IPC :2.11396: AVG IPC :2.10539: L2-Pf-HR :0.88882: L2-HR :0.89257: (Sim:0h2m37s) 
CPU  0 inst:    9000002 cyc:    4305510 now IPC :2.11627: AVG IPC :2.10694: L2-Pf-HR :0.89048: L2-HR :0.89407: (Sim:0h2m56s) 
CPU  0 inst:   10000000 cyc:    4780483 now IPC :2.10538: AVG IPC :2.10674: L2-Pf-HR :0.89136: L2-HR :0.89474: (Sim:0h3m16s) 
CPU  0 inst:   11000005 cyc:    5251271 now IPC :2.12411: AVG IPC :2.10866: L2-Pf-HR :0.89445: L2-HR :0.89760: (Sim:0h3m35s) 
CPU  0 inst:   12000000 cyc:    5729682 now IPC :2.09024: AVG IPC :2.10680: L2-Pf-HR :0.89943: L2-HR :0.90171: (Sim:0h3m54s) 
CPU  0 inst:   13000003 cyc:    6301471 now IPC :1.74890: AVG IPC :2.06832: L2-Pf-HR :0.89715: L2-HR :0.89440: (Sim:0h4m15s) 
CPU  0 inst:   14000002 cyc:    6769347 now IPC :2.13732: AVG IPC :2.07390: L2-Pf-HR :0.89722: L2-HR :0.89485: (Sim:0h4m34s) 
CPU  0 inst:   15000003 cyc:    7223774 now IPC :2.20058: AVG IPC :2.08313: L2-Pf-HR :0.89879: L2-HR :0.89687: (Sim:0h4m53s) 
CPU  0 inst:   16000001 cyc:    7674479 now IPC :2.21874: AVG IPC :2.09226: L2-Pf-HR :0.90027: L2-HR :0.89882: (Sim:0h5m12s) 
CPU  0 inst:   17000004 cyc:    8123273 now IPC :2.22820: AVG IPC :2.10081: L2-Pf-HR :0.90170: L2-HR :0.90065: (Sim:0h5m31s) 
CPU  0 inst:   18000001 cyc:    8571948 now IPC :2.22878: AVG IPC :2.10837: L2-Pf-HR :0.90284: L2-HR :0.90221: (Sim:0h5m50s) 
CPU  0 inst:   19000000 cyc:    9024147 now IPC :2.21141: AVG IPC :2.11417: L2-Pf-HR :0.90433: L2-HR :0.90392: (Sim:0h6m10s) 
CPU  0 inst:   20000005 cyc:    9474209 now IPC :2.22193: AVG IPC :2.11988: L2-Pf-HR :0.90536: L2-HR :0.90523: (Sim:0h6m29s) 
CPU  0 inst:   21000001 cyc:    9925476 now IPC :2.21597: AVG IPC :2.12473: L2-Pf-HR :0.90637: L2-HR :0.90648: (Sim:0h6m49s) 
CPU  0 inst:   22000001 cyc:   10375787 now IPC :2.22069: AVG IPC :2.12933: L2-Pf-HR :0.90738: L2-HR :0.90770: (Sim:0h7m9s) 
CPU  0 inst:   23000002 cyc:   10826797 now IPC :2.21725: AVG IPC :2.13336: L2-Pf-HR :0.90999: L2-HR :0.91017: (Sim:0h7m29s) 
CPU  0 inst:   24000000 cyc:   11341767 now IPC :1.94186: AVG IPC :2.12384: L2-Pf-HR :0.91165: L2-HR :0.91022: (Sim:0h7m49s) 
CPU  0 inst:   25000001 cyc:   11830802 now IPC :2.04485: AVG IPC :2.12027: L2-Pf-HR :0.91087: L2-HR :0.90935: (Sim:0h8m9s) 
CPU  0 inst:   26000004 cyc:   12285310 now IPC :2.20019: AVG IPC :2.12349: L2-Pf-HR :0.91135: L2-HR :0.91003: (Sim:0h8m29s) 
CPU  0 inst:   27000002 cyc:   12739868 now IPC :2.19993: AVG IPC :2.12644: L2-Pf-HR :0.91204: L2-HR :0.91091: (Sim:0h8m49s) 
CPU  0 inst:   28000000 cyc:   13192481 now IPC :2.20939: AVG IPC :2.12952: L2-Pf-HR :0.91255: L2-HR :0.91164: (Sim:0h9m8s) 
CPU  0 inst:   29000004 cyc:   13644539 now IPC :2.21211: AVG IPC :2.13247: L2-Pf-HR :0.91313: L2-HR :0.91238: (Sim:0h9m28s) 
CPU  0 inst:   30000001 cyc:   14100331 now IPC :2.19398: AVG IPC :2.13461: L2-Pf-HR :0.91380: L2-HR :0.91316: (Sim:0h9m48s) 
CPU  0 inst:   31000005 cyc:   14554593 now IPC :2.20138: AVG IPC :2.13684: L2-Pf-HR :0.91523: L2-HR :0.91457: (Sim:0h10m8s) 
CPU  0 inst:   32000002 cyc:   15121325 now IPC :1.76450: AVG IPC :2.12191: L2-Pf-HR :0.91566: L2-HR :0.91284: (Sim:0h10m28s) 
CPU  0 inst:   33000001 cyc:   15625053 now IPC :1.98520: AVG IPC :2.11721: L2-Pf-HR :0.91428: L2-HR :0.91133: (Sim:0h10m49s) 
CPU  0 inst:   34000003 cyc:   16109986 now IPC :2.06214: AVG IPC :2.11545: L2-Pf-HR :0.91366: L2-HR :0.91073: (Sim:0h11m9s) 
CPU  0 inst:   35000000 cyc:   16574736 now IPC :2.15169: AVG IPC :2.11653: L2-Pf-HR :0.91357: L2-HR :0.91076: (Sim:0h11m30s) 
CPU  0 inst:   36000003 cyc:   17043585 now IPC :2.13289: AVG IPC :2.11700: L2-Pf-HR :0.91356: L2-HR :0.91080: (Sim:0h11m50s) 
CPU  0 inst:   37000003 cyc:   17512891 now IPC :2.13081: AVG IPC :2.11740: L2-Pf-HR :0.91366: L2-HR :0.91098: (Sim:0h12m10s) 
CPU  0 inst:   38000003 cyc:   17983995 now IPC :2.12267: AVG IPC :2.11754: L2-Pf-HR :0.91348: L2-HR :0.91087: (Sim:0h12m30s) 
CPU  0 inst:   39000001 cyc:   18456997 now IPC :2.11415: AVG IPC :2.11745: L2-Pf-HR :0.91337: L2-HR :0.91081: (Sim:0h12m50s) 
CPU  0 inst:   40000003 cyc:   18925142 now IPC :2.13609: AVG IPC :2.11794: L2-Pf-HR :0.91349: L2-HR :0.91096: (Sim:0h13m11s) 
CPU  0 inst:   41000001 cyc:   19389458 now IPC :2.15370: AVG IPC :2.11884: L2-Pf-HR :0.91371: L2-HR :0.91124: (Sim:0h13m31s) 
CPU  0 inst:   42000001 cyc:   19853996 now IPC :2.15268: AVG IPC :2.11967: L2-Pf-HR :0.91407: L2-HR :0.91163: (Sim:0h13m51s) 
CPU  0 inst:   43000000 cyc:   20329329 now IPC :2.10379: AVG IPC :2.11928: L2-Pf-HR :0.91524: L2-HR :0.91259: (Sim:0h14m12s) 
CPU  0 inst:   44000000 cyc:   20927842 now IPC :1.67081: AVG IPC :2.10582: L2-Pf-HR :0.91547: L2-HR :0.91129: (Sim:0h14m33s) 
CPU  0 inst:   45000002 cyc:   21412664 now IPC :2.06262: AVG IPC :2.10480: L2-Pf-HR :0.91473: L2-HR :0.91068: (Sim:0h14m54s) 
CPU  0 inst:   46000000 cyc:   21888128 now IPC :2.10320: AVG IPC :2.10476: L2-Pf-HR :0.91464: L2-HR :0.91077: (Sim:0h15m15s) 
CPU  0 inst:   47000000 cyc:   22348663 now IPC :2.17139: AVG IPC :2.10620: L2-Pf-HR :0.91470: L2-HR :0.91105: (Sim:0h15m36s) 
CPU  0 inst:   48000004 cyc:   22807769 now IPC :2.17815: AVG IPC :2.10771: L2-Pf-HR :0.91485: L2-HR :0.91138: (Sim:0h15m57s) 
CPU  0 inst:   49000001 cyc:   23265389 now IPC :2.18521: AVG IPC :2.10930: L2-Pf-HR :0.91509: L2-HR :0.91180: (Sim:0h16m17s) 
CPU  0 inst:   50000001 cyc:   23725248 now IPC :2.17458: AVG IPC :2.11062: L2-Pf-HR :0.91523: L2-HR :0.91210: (Sim:0h16m38s) 
CPU  0 inst:   51000002 cyc:   24181576 now IPC :2.19141: AVG IPC :2.11221: L2-Pf-HR :0.91542: L2-HR :0.91246: (Sim:0h16m58s) 
CPU  0 inst:   52000002 cyc:   24636244 now IPC :2.19941: AVG IPC :2.11389: L2-Pf-HR :0.91558: L2-HR :0.91279: (Sim:0h17m19s) 
CPU  0 inst:   53000005 cyc:   25093748 now IPC :2.18578: AVG IPC :2.11525: L2-Pf-HR :0.91586: L2-HR :0.91319: (Sim:0h17m40s) 
CPU  0 inst:   54000002 cyc:   25548521 now IPC :2.19889: AVG IPC :2.11680: L2-Pf-HR :0.91634: L2-HR :0.91377: (Sim:0h18m0s) 
CPU  0 inst:   55000004 cyc:   26004408 now IPC :2.19353: AVG IPC :2.11820: L2-Pf-HR :0.91744: L2-HR :0.91482: (Sim:0h18m20s) 
CPU  0 inst:   56000004 cyc:   26605535 now IPC :1.66354: AVG IPC :2.10753: L2-Pf-HR :0.91734: L2-HR :0.91399: (Sim:0h18m41s) 
CPU  0 inst:   57000000 cyc:   27082250 now IPC :2.09768: AVG IPC :2.10735: L2-Pf-HR :0.91717: L2-HR :0.91393: (Sim:0h19m1s) 
CPU  0 inst:   58000003 cyc:   27547273 now IPC :2.15044: AVG IPC :2.10811: L2-Pf-HR :0.91726: L2-HR :0.91416: (Sim:0h19m21s) 
CPU  0 inst:   59000000 cyc:   28010261 now IPC :2.15988: AVG IPC :2.10899: L2-Pf-HR :0.91746: L2-HR :0.91447: (Sim:0h19m41s) 
CPU  0 inst:   60000004 cyc:   28473801 now IPC :2.15732: AVG IPC :2.10981: L2-Pf-HR :0.91762: L2-HR :0.91475: (Sim:0h20m1s) 
CPU  0 inst:   61000002 cyc:   28937422 now IPC :2.15693: AVG IPC :2.11059: L2-Pf-HR :0.91779: L2-HR :0.91503: (Sim:0h20m21s) 
CPU  0 inst:   62000003 cyc:   29401604 now IPC :2.15433: AVG IPC :2.11130: L2-Pf-HR :0.91800: L2-HR :0.91534: (Sim:0h20m41s) 
CPU  0 inst:   63000003 cyc:   29862369 now IPC :2.17030: AVG IPC :2.11225: L2-Pf-HR :0.91890: L2-HR :0.91621: (Sim:0h21m1s) 
CPU  0 inst:   64000003 cyc:   30518399 now IPC :1.52432: AVG IPC :2.09919: L2-Pf-HR :0.91827: L2-HR :0.91465: (Sim:0h21m22s) 
CPU  0 inst:   65000003 cyc:   31038592 now IPC :1.92236: AVG IPC :2.09613: L2-Pf-HR :0.91765: L2-HR :0.91399: (Sim:0h21m43s) 
CPU  0 inst:   66000003 cyc:   31525667 now IPC :2.05307: AVG IPC :2.09544: L2-Pf-HR :0.91747: L2-HR :0.91389: (Sim:0h22m4s) 
CPU  0 inst:   67000003 cyc:   32015387 now IPC :2.04198: AVG IPC :2.09460: L2-Pf-HR :0.91729: L2-HR :0.91376: (Sim:0h22m25s) 
CPU  0 inst:   68000001 cyc:   32503031 now IPC :2.05067: AVG IPC :2.09392: L2-Pf-HR :0.91727: L2-HR :0.91377: (Sim:0h22m45s) 
CPU  0 inst:   69000004 cyc:   32992891 now IPC :2.04141: AVG IPC :2.09311: L2-Pf-HR :0.91721: L2-HR :0.91377: (Sim:0h23m6s) 
CPU  0 inst:   70000000 cyc:   33488383 now IPC :2.01819: AVG IPC :2.09197: L2-Pf-HR :0.91717: L2-HR :0.91374: (Sim:0h23m27s) 
CPU  0 inst:   71000005 cyc:   33974374 now IPC :2.05766: AVG IPC :2.09147: L2-Pf-HR :0.91713: L2-HR :0.91376: (Sim:0h23m47s) 
CPU  0 inst:   72000001 cyc:   34464096 now IPC :2.04197: AVG IPC :2.09074: L2-Pf-HR :0.91701: L2-HR :0.91369: (Sim:0h24m8s) 
CPU  0 inst:   73000000 cyc:   34948065 now IPC :2.06625: AVG IPC :2.09039: L2-Pf-HR :0.91709: L2-HR :0.91380: (Sim:0h24m17s) 
CPU  0 inst:   74000000 cyc:   35446806 now IPC :2.00505: AVG IPC :2.08916: L2-Pf-HR :0.91740: L2-HR :0.91407: (Sim:0h24m27s) 
CPU  0 inst:   75000003 cyc:   35933478 now IPC :2.05478: AVG IPC :2.08868: L2-Pf-HR :0.91808: L2-HR :0.91465: (Sim:0h24m36s) 
CPU  0 inst:   76000000 cyc:   36587284 now IPC :1.52950: AVG IPC :2.07841: L2-Pf-HR :0.91777: L2-HR :0.91351: (Sim:0h24m46s) 
CPU  0 inst:   77000002 cyc:   37073815 now IPC :2.05537: AVG IPC :2.07810: L2-Pf-HR :0.91736: L2-HR :0.91322: (Sim:0h24m57s) 
CPU  0 inst:   78000002 cyc:   37538859 now IPC :2.15033: AVG IPC :2.07902: L2-Pf-HR :0.91738: L2-HR :0.91337: (Sim:0h25m6s) 
CPU  0 inst:   79000000 cyc:   38000999 now IPC :2.16384: AVG IPC :2.08008: L2-Pf-HR :0.91744: L2-HR :0.91354: (Sim:0h25m16s) 
CPU  0 inst:   80000000 cyc:   38464735 now IPC :2.15640: AVG IPC :2.08102: L2-Pf-HR :0.91755: L2-HR :0.91376: (Sim:0h25m25s) 
CPU  0 inst:   81000005 cyc:   38925417 now IPC :2.17071: AVG IPC :2.08211: L2-Pf-HR :0.91766: L2-HR :0.91397: (Sim:0h25m34s) 
CPU  0 inst:   82000000 cyc:   39388423 now IPC :2.15979: AVG IPC :2.08305: L2-Pf-HR :0.91775: L2-HR :0.91416: (Sim:0h25m43s) 
CPU  0 inst:   83000005 cyc:   39850322 now IPC :2.16499: AVG IPC :2.08402: L2-Pf-HR :0.91787: L2-HR :0.91438: (Sim:0h25m53s) 
CPU  0 inst:   84000000 cyc:   40312707 now IPC :2.16269: AVG IPC :2.08495: L2-Pf-HR :0.91802: L2-HR :0.91461: (Sim:0h26m2s) 
CPU  0 inst:   85000002 cyc:   40772170 now IPC :2.17646: AVG IPC :2.08600: L2-Pf-HR :0.91817: L2-HR :0.91485: (Sim:0h26m11s) 
CPU  0 inst:   86000003 cyc:   41227931 now IPC :2.19413: AVG IPC :2.08723: L2-Pf-HR :0.91867: L2-HR :0.91537: (Sim:0h26m22s) 
CPU  0 inst:   87000001 cyc:   41754898 now IPC :1.89765: AVG IPC :2.08478: L2-Pf-HR :0.91905: L2-HR :0.91545: (Sim:0h26m33s) 
CPU  0 inst:   88000005 cyc:   42290685 now IPC :1.86642: AVG IPC :2.08194: L2-Pf-HR :0.91883: L2-HR :0.91510: (Sim:0h26m42s) 
CPU  0 inst:   89000003 cyc:   42761350 now IPC :2.12465: AVG IPC :2.08243: L2-Pf-HR :0.91884: L2-HR :0.91519: (Sim:0h26m51s) 
CPU  0 inst:   90000004 cyc:   43226270 now IPC :2.15091: AVG IPC :2.08318: L2-Pf-HR :0.91889: L2-HR :0.91533: (Sim:0h27m0s) 
CPU  0 inst:   91000000 cyc:   43685839 now IPC :2.17594: AVG IPC :2.08418: L2-Pf-HR :0.91898: L2-HR :0.91551: (Sim:0h27m10s) 
CPU  0 inst:   92000002 cyc:   44148119 now IPC :2.16320: AVG IPC :2.08502: L2-Pf-HR :0.91908: L2-HR :0.91570: (Sim:0h27m19s) 
CPU  0 inst:   93000002 cyc:   44611210 now IPC :2.15940: AVG IPC :2.08581: L2-Pf-HR :0.91921: L2-HR :0.91590: (Sim:0h27m28s) 
CPU  0 inst:   94000000 cyc:   45074719 now IPC :2.15745: AVG IPC :2.08657: L2-Pf-HR :0.91949: L2-HR :0.91623: (Sim:0h27m37s) 
CPU  0 inst:   95000002 cyc:   45690392 now IPC :1.62424: AVG IPC :2.08020: L2-Pf-HR :0.91962: L2-HR :0.91581: (Sim:0h27m47s) 
CPU  0 inst:   96000004 cyc:   46251905 now IPC :1.78091: AVG IPC :2.07649: L2-Pf-HR :0.91919: L2-HR :0.91524: (Sim:0h27m57s) 
CPU  0 inst:   97000003 cyc:   46746075 now IPC :2.02359: AVG IPC :2.07592: L2-Pf-HR :0.91891: L2-HR :0.91500: (Sim:0h28m6s) 
CPU  0 inst:   98000000 cyc:   47243635 now IPC :2.00980: AVG IPC :2.07521: L2-Pf-HR :0.91880: L2-HR :0.91492: (Sim:0h28m16s) 
CPU  0 inst:   99000001 cyc:   47732055 now IPC :2.04742: AVG IPC :2.07491: L2-Pf-HR :0.91876: L2-HR :0.91491: (Sim:0h28m25s) 
CPU  0 inst:  100000002 cyc:   48217047 now IPC :2.06189: AVG IPC :2.07478: L2-Pf-HR :0.91862: L2-HR :0.91481: (Sim:0h28m35s) 
CPU  0 inst:  101000002 cyc:   48708937 now IPC :2.03297: AVG IPC :2.07435: L2-Pf-HR :0.91853: L2-HR :0.91474: (Sim:0h28m45s) 
CPU  0 inst:  102000000 cyc:   49193283 now IPC :2.06464: AVG IPC :2.07425: L2-Pf-HR :0.91853: L2-HR :0.91477: (Sim:0h28m54s) 
CPU  0 inst:  103000001 cyc:   49672623 now IPC :2.08620: AVG IPC :2.07437: L2-Pf-HR :0.91854: L2-HR :0.91480: (Sim:0h29m4s) 
CPU  0 inst:  104000002 cyc:   50159320 now IPC :2.05467: AVG IPC :2.07418: L2-Pf-HR :0.91857: L2-HR :0.91485: (Sim:0h29m14s) 
CPU  0 inst:  105000003 cyc:   50656627 now IPC :2.01083: AVG IPC :2.07354: L2-Pf-HR :0.91860: L2-HR :0.91488: (Sim:0h29m23s) 
CPU  0 inst:  106000005 cyc:   51144432 now IPC :2.05000: AVG IPC :2.07331: L2-Pf-HR :0.91891: L2-HR :0.91515: (Sim:0h29m33s) 
CPU  0 inst:  107000002 cyc:   51772119 now IPC :1.59315: AVG IPC :2.06738: L2-Pf-HR :0.91908: L2-HR :0.91476: (Sim:0h29m43s) 
CPU  0 inst:  108000001 cyc:   52288320 now IPC :1.93723: AVG IPC :2.06607: L2-Pf-HR :0.91880: L2-HR :0.91448: (Sim:0h29m54s) 
CPU  0 inst:  109000000 cyc:   52767117 now IPC :2.08857: AVG IPC :2.06628: L2-Pf-HR :0.91867: L2-HR :0.91442: (Sim:0h30m4s) 
CPU  0 inst:  110000005 cyc:   53227117 now IPC :2.17392: AVG IPC :2.06722: L2-Pf-HR :0.91864: L2-HR :0.91450: (Sim:0h30m13s) 
CPU  0 inst:  111000005 cyc:   53685495 now IPC :2.18161: AVG IPC :2.06822: L2-Pf-HR :0.91867: L2-HR :0.91463: (Sim:0h30m23s) 
CPU  0 inst:  112000000 cyc:   54140359 now IPC :2.19845: AVG IPC :2.06933: L2-Pf-HR :0.91874: L2-HR :0.91479: (Sim:0h30m33s) 
CPU  0 inst:  113000000 cyc:   54600789 now IPC :2.17188: AVG IPC :2.07021: L2-Pf-HR :0.91879: L2-HR :0.91493: (Sim:0h30m43s) 
CPU  0 inst:  114000000 cyc:   55065721 now IPC :2.15085: AVG IPC :2.07091: L2-Pf-HR :0.91885: L2-HR :0.91505: (Sim:0h30m53s) 
CPU  0 inst:  115000001 cyc:   55527442 now IPC :2.16581: AVG IPC :2.07171: L2-Pf-HR :0.91892: L2-HR :0.91519: (Sim:0h31m3s) 
CPU  0 inst:  116000002 cyc:   55990315 now IPC :2.16042: AVG IPC :2.07246: L2-Pf-HR :0.91904: L2-HR :0.91538: (Sim:0h31m12s) 
CPU  0 inst:  117000002 cyc:   56451189 now IPC :2.16979: AVG IPC :2.07327: L2-Pf-HR :0.91920: L2-HR :0.91559: (Sim:0h31m22s) 
CPU  0 inst:  118000000 cyc:   56912358 now IPC :2.16840: AVG IPC :2.07405: L2-Pf-HR :0.91970: L2-HR :0.91608: (Sim:0h31m31s) 
CPU  0 inst:  119000000 cyc:   57509328 now IPC :1.67513: AVG IPC :2.06984: L2-Pf-HR :0.91974: L2-HR :0.91577: (Sim:0h31m41s) 
CPU  0 inst:  120000001 cyc:   57990477 now IPC :2.07836: AVG IPC :2.06991: L2-Pf-HR :0.91958: L2-HR :0.91567: (Sim:0h31m51s) 
CPU  0 inst:  121000001 cyc:   58456949 now IPC :2.14375: AVG IPC :2.07051: L2-Pf-HR :0.91962: L2-HR :0.91578: (Sim:0h32m0s) 
CPU  0 inst:  122000001 cyc:   58918709 now IPC :2.16563: AVG IPC :2.07127: L2-Pf-HR :0.91972: L2-HR :0.91593: (Sim:0h32m9s) 
CPU  0 inst:  123000000 cyc:   59383046 now IPC :2.15361: AVG IPC :2.07192: L2-Pf-HR :0.91977: L2-HR :0.91605: (Sim:0h32m18s) 
CPU  0 inst:  124000001 cyc:   59846106 now IPC :2.15955: AVG IPC :2.07261: L2-Pf-HR :0.91984: L2-HR :0.91617: (Sim:0h32m28s) 
CPU  0 inst:  125000004 cyc:   60310759 now IPC :2.15215: AVG IPC :2.07323: L2-Pf-HR :0.91995: L2-HR :0.91634: (Sim:0h32m37s) 
CPU  0 inst:  126000001 cyc:   60767419 now IPC :2.18981: AVG IPC :2.07412: L2-Pf-HR :0.92031: L2-HR :0.91671: (Sim:0h32m46s) 
CPU  0 inst:  127000004 cyc:   61424723 now IPC :1.52137: AVG IPC :2.06811: L2-Pf-HR :0.92012: L2-HR :0.91603: (Sim:0h32m56s) 
CPU  0 inst:  128000003 cyc:   61935281 now IPC :1.95864: AVG IPC :2.06720: L2-Pf-HR :0.91972: L2-HR :0.91565: (Sim:0h33m6s) 
CPU  0 inst:  129000005 cyc:   62436307 now IPC :1.99591: AVG IPC :2.06661: L2-Pf-HR :0.91960: L2-HR :0.91555: (Sim:0h33m16s) 
CPU  0 inst:  130000002 cyc:   62927119 now IPC :2.03743: AVG IPC :2.06638: L2-Pf-HR :0.91953: L2-HR :0.91550: (Sim:0h33m25s) 
CPU  0 inst:  131000002 cyc:   63415763 now IPC :2.04648: AVG IPC :2.06623: L2-Pf-HR :0.91947: L2-HR :0.91547: (Sim:0h33m35s) 
CPU  0 inst:  132000004 cyc:   63901261 now IPC :2.05974: AVG IPC :2.06618: L2-Pf-HR :0.91942: L2-HR :0.91545: (Sim:0h33m44s) 
CPU  0 inst:  133000002 cyc:   64384061 now IPC :2.07125: AVG IPC :2.06622: L2-Pf-HR :0.91939: L2-HR :0.91544: (Sim:0h34m2s) 
CPU  0 inst:  134000002 cyc:   64871645 now IPC :2.05093: AVG IPC :2.06610: L2-Pf-HR :0.91930: L2-HR :0.91539: (Sim:0h34m22s) 
CPU  0 inst:  135000003 cyc:   65359390 now IPC :2.05025: AVG IPC :2.06598: L2-Pf-HR :0.91928: L2-HR :0.91540: (Sim:0h34m42s) 
CPU  0 inst:  136000003 cyc:   65857657 now IPC :2.00696: AVG IPC :2.06553: L2-Pf-HR :0.91929: L2-HR :0.91541: (Sim:0h35m2s) 
CPU  0 inst:  137000005 cyc:   66346969 now IPC :2.04369: AVG IPC :2.06536: L2-Pf-HR :0.91943: L2-HR :0.91555: (Sim:0h35m22s) 
CPU  0 inst:  138000003 cyc:   66833004 now IPC :2.05746: AVG IPC :2.06530: L2-Pf-HR :0.91980: L2-HR :0.91587: (Sim:0h35m42s) 
CPU  0 inst:  139000005 cyc:   67484978 now IPC :1.53381: AVG IPC :2.06009: L2-Pf-HR :0.91960: L2-HR :0.91529: (Sim:0h36m3s) 
CPU  0 inst:  140000005 cyc:   67974339 now IPC :2.04348: AVG IPC :2.05997: L2-Pf-HR :0.91935: L2-HR :0.91509: (Sim:0h36m24s) 
CPU  0 inst:  141000000 cyc:   68439372 now IPC :2.15037: AVG IPC :2.06060: L2-Pf-HR :0.91935: L2-HR :0.91517: (Sim:0h36m44s) 
CPU  0 inst:  142000004 cyc:   68897664 now IPC :2.18202: AVG IPC :2.06142: L2-Pf-HR :0.91937: L2-HR :0.91527: (Sim:0h37m5s) 
CPU  0 inst:  143000000 cyc:   69357610 now IPC :2.17416: AVG IPC :2.06217: L2-Pf-HR :0.91942: L2-HR :0.91538: (Sim:0h37m25s) 
CPU  0 inst:  144000000 cyc:   69818319 now IPC :2.17057: AVG IPC :2.06290: L2-Pf-HR :0.91947: L2-HR :0.91549: (Sim:0h37m45s) 
CPU  0 inst:  145000000 cyc:   70281046 now IPC :2.16110: AVG IPC :2.06355: L2-Pf-HR :0.91950: L2-HR :0.91558: (Sim:0h38m5s) 
CPU  0 inst:  146000000 cyc:   70740503 now IPC :2.17648: AVG IPC :2.06430: L2-Pf-HR :0.91958: L2-HR :0.91572: (Sim:0h38m25s) 
CPU  0 inst:  147000005 cyc:   71197864 now IPC :2.18647: AVG IPC :2.06509: L2-Pf-HR :0.91966: L2-HR :0.91586: (Sim:0h38m45s) 
CPU  0 inst:  148000005 cyc:   71657766 now IPC :2.17438: AVG IPC :2.06581: L2-Pf-HR :0.91974: L2-HR :0.91599: (Sim:0h39m5s) 
CPU  0 inst:  149000005 cyc:   72118791 now IPC :2.16908: AVG IPC :2.06647: L2-Pf-HR :0.91998: L2-HR :0.91625: (Sim:0h39m25s) 
CPU  0 inst:  150000003 cyc:   72585826 now IPC :2.14116: AVG IPC :2.06696: L2-Pf-HR :0.92038: L2-HR :0.91663: (Sim:0h39m44s) 
CPU  0 inst:  151000005 cyc:   73197565 now IPC :1.63469: AVG IPC :2.06330: L2-Pf-HR :0.92011: L2-HR :0.91612: (Sim:0h40m5s) 
CPU  0 inst:  152000002 cyc:   73670565 now IPC :2.11416: AVG IPC :2.06363: L2-Pf-HR :0.92009: L2-HR :0.91614: (Sim:0h40m24s) 
CPU  0 inst:  153000003 cyc:   74135603 now IPC :2.15036: AVG IPC :2.06418: L2-Pf-HR :0.92014: L2-HR :0.91624: (Sim:0h40m44s) 
CPU  0 inst:  154000003 cyc:   74598190 now IPC :2.16176: AVG IPC :2.06480: L2-Pf-HR :0.92020: L2-HR :0.91636: (Sim:0h41m3s) 
CPU  0 inst:  155000001 cyc:   75064730 now IPC :2.14343: AVG IPC :2.06529: L2-Pf-HR :0.92025: L2-HR :0.91646: (Sim:0h41m22s) 
CPU  0 inst:  156000004 cyc:   75529069 now IPC :2.15361: AVG IPC :2.06584: L2-Pf-HR :0.92031: L2-HR :0.91656: (Sim:0h41m42s) 
CPU  0 inst:  157000000 cyc:   75994713 now IPC :2.14755: AVG IPC :2.06635: L2-Pf-HR :0.92045: L2-HR :0.91673: (Sim:0h42m1s) 
CPU  0 inst:  158000000 cyc:   76558807 now IPC :1.77275: AVG IPC :2.06416: L2-Pf-HR :0.92054: L2-HR :0.91657: (Sim:0h42m21s) 
CPU  0 inst:  159000001 cyc:   77134856 now IPC :1.73597: AVG IPC :2.06167: L2-Pf-HR :0.92034: L2-HR :0.91625: (Sim:0h42m42s) 
CPU  0 inst:  160000003 cyc:   77643188 now IPC :1.96722: AVG IPC :2.06105: L2-Pf-HR :0.92013: L2-HR :0.91604: (Sim:0h43m2s) 
CPU  0 inst:  161000005 cyc:   78133022 now IPC :2.04151: AVG IPC :2.06092: L2-Pf-HR :0.92006: L2-HR :0.91599: (Sim:0h43m22s) 
CPU  0 inst:  162000001 cyc:   78618456 now IPC :2.06000: AVG IPC :2.06092: L2-Pf-HR :0.91999: L2-HR :0.91594: (Sim:0h43m42s) 
CPU  0 inst:  163000003 cyc:   79112223 now IPC :2.02525: AVG IPC :2.06069: L2-Pf-HR :0.91992: L2-HR :0.91588: (Sim:0h44m2s) 
CPU  0 inst:  164000002 cyc:   79598353 now IPC :2.05706: AVG IPC :2.06067: L2-Pf-HR :0.91990: L2-HR :0.91589: (Sim:0h44m22s) 
CPU  0 inst:  165000004 cyc:   80088749 now IPC :2.03917: AVG IPC :2.06054: L2-Pf-HR :0.91987: L2-HR :0.91589: (Sim:0h44m42s) 
CPU  0 inst:  166000000 cyc:   80573236 now IPC :2.06403: AVG IPC :2.06056: L2-Pf-HR :0.91988: L2-HR :0.91591: (Sim:0h45m2s) 
CPU  0 inst:  167000000 cyc:   81071076 now IPC :2.00868: AVG IPC :2.06024: L2-Pf-HR :0.91986: L2-HR :0.91589: (Sim:0h45m22s) 
CPU  0 inst:  168000001 cyc:   81561433 now IPC :2.03933: AVG IPC :2.06011: L2-Pf-HR :0.91984: L2-HR :0.91589: (Sim:0h45m42s) 
CPU  0 inst:  169000000 cyc:   82049719 now IPC :2.04798: AVG IPC :2.06004: L2-Pf-HR :0.92005: L2-HR :0.91608: (Sim:0h46m2s) 
CPU  0 inst:  170000003 cyc:   82640507 now IPC :1.69266: AVG IPC :2.05738: L2-Pf-HR :0.92003: L2-HR :0.91590: (Sim:0h46m23s) 
CPU  0 inst:  171000001 cyc:   83178042 now IPC :1.86034: AVG IPC :2.05609: L2-Pf-HR :0.91990: L2-HR :0.91571: (Sim:0h46m44s) 
CPU  0 inst:  172000004 cyc:   83662717 now IPC :2.06324: AVG IPC :2.05613: L2-Pf-HR :0.91978: L2-HR :0.91563: (Sim:0h47m5s) 
CPU  0 inst:  173000003 cyc:   84119613 now IPC :2.18868: AVG IPC :2.05686: L2-Pf-HR :0.91977: L2-HR :0.91570: (Sim:0h47m25s) 
CPU  0 inst:  174000000 cyc:   84578035 now IPC :2.18139: AVG IPC :2.05754: L2-Pf-HR :0.91979: L2-HR :0.91577: (Sim:0h47m45s) 
CPU  0 inst:  175000000 cyc:   85036200 now IPC :2.18262: AVG IPC :2.05822: L2-Pf-HR :0.91982: L2-HR :0.91586: (Sim:0h48m5s) 
CPU  0 inst:  176000000 cyc:   85495177 now IPC :2.17876: AVG IPC :2.05888: L2-Pf-HR :0.91984: L2-HR :0.91593: (Sim:0h48m26s) 
CPU  0 inst:  177000004 cyc:   85953359 now IPC :2.18255: AVG IPC :2.05955: L2-Pf-HR :0.91988: L2-HR :0.91602: (Sim:0h48m47s) 
CPU  0 inst:  178000005 cyc:   86411330 now IPC :2.18355: AVG IPC :2.06021: L2-Pf-HR :0.91994: L2-HR :0.91614: (Sim:0h49m6s) 
CPU  0 inst:  179000004 cyc:   86868945 now IPC :2.18524: AVG IPC :2.06088: L2-Pf-HR :0.92001: L2-HR :0.91625: (Sim:0h49m27s) 
CPU  0 inst:  180000000 cyc:   87323238 now IPC :2.20121: AVG IPC :2.06161: L2-Pf-HR :0.92010: L2-HR :0.91638: (Sim:0h49m46s) 
CPU  0 inst:  181000000 cyc:   87784843 now IPC :2.16635: AVG IPC :2.06217: L2-Pf-HR :0.92040: L2-HR :0.91667: (Sim:0h50m6s) 
CPU  0 inst:  182000002 cyc:   88372992 now IPC :1.70025: AVG IPC :2.05974: L2-Pf-HR :0.92051: L2-HR :0.91656: (Sim:0h50m26s) 
CPU  0 inst:  183000000 cyc:   88862616 now IPC :2.04238: AVG IPC :2.05964: L2-Pf-HR :0.92036: L2-HR :0.91644: (Sim:0h50m46s) 
CPU  0 inst:  184000001 cyc:   89326559 now IPC :2.15544: AVG IPC :2.06014: L2-Pf-HR :0.92038: L2-HR :0.91650: (Sim:0h51m5s) 
CPU  0 inst:  185000005 cyc:   89792657 now IPC :2.14548: AVG IPC :2.06059: L2-Pf-HR :0.92041: L2-HR :0.91658: (Sim:0h51m25s) 
CPU  0 inst:  186000005 cyc:   90253300 now IPC :2.17088: AVG IPC :2.06116: L2-Pf-HR :0.92046: L2-HR :0.91666: (Sim:0h51m44s) 
CPU  0 inst:  187000001 cyc:   90715426 now IPC :2.16390: AVG IPC :2.06169: L2-Pf-HR :0.92051: L2-HR :0.91676: (Sim:0h52m4s) 
CPU  0 inst:  188000003 cyc:   91179598 now IPC :2.15438: AVG IPC :2.06217: L2-Pf-HR :0.92057: L2-HR :0.91685: (Sim:0h52m23s) 
CPU  0 inst:  189000001 cyc:   91644114 now IPC :2.15277: AVG IPC :2.06263: L2-Pf-HR :0.92079: L2-HR :0.91707: (Sim:0h52m42s) 
CPU  0 inst:  190000005 cyc:   92294235 now IPC :1.53818: AVG IPC :2.05890: L2-Pf-HR :0.92070: L2-HR :0.91670: (Sim:0h53m3s) 
CPU  0 inst:  191000002 cyc:   92823675 now IPC :1.88878: AVG IPC :2.05792: L2-Pf-HR :0.92041: L2-HR :0.91641: (Sim:0h53m24s) 
CPU  0 inst:  192000000 cyc:   93321771 now IPC :2.00764: AVG IPC :2.05764: L2-Pf-HR :0.92032: L2-HR :0.91634: (Sim:0h53m44s) 
CPU  0 inst:  193000003 cyc:   93818282 now IPC :2.01406: AVG IPC :2.05741: L2-Pf-HR :0.92026: L2-HR :0.91630: (Sim:0h54m4s) 
CPU  0 inst:  194000004 cyc:   94311221 now IPC :2.02865: AVG IPC :2.05726: L2-Pf-HR :0.92024: L2-HR :0.91629: (Sim:0h54m24s) 
CPU  0 inst:  195000000 cyc:   94798864 now IPC :2.05067: AVG IPC :2.05722: L2-Pf-HR :0.92020: L2-HR :0.91627: (Sim:0h54m44s) 
CPU  0 inst:  196000004 cyc:   95291781 now IPC :2.02875: AVG IPC :2.05708: L2-Pf-HR :0.92014: L2-HR :0.91623: (Sim:0h55m4s) 
CPU  0 inst:  197000002 cyc:   95779640 now IPC :2.04977: AVG IPC :2.05704: L2-Pf-HR :0.92011: L2-HR :0.91622: (Sim:0h55m24s) 
CPU  0 inst:  198000001 cyc:   96277598 now IPC :2.00820: AVG IPC :2.05678: L2-Pf-HR :0.92009: L2-HR :0.91621: (Sim:0h55m44s) 
CPU  0 inst:  199000000 cyc:   96759861 now IPC :2.07356: AVG IPC :2.05687: L2-Pf-HR :0.92011: L2-HR :0.91625: (Sim:0h56m4s) 
CPU  0 inst:  200000002 cyc:   97245474 now IPC :2.05926: AVG IPC :2.05688: L2-Pf-HR :0.92020: L2-HR :0.91632: (Sim:0h56m24s) 
CPU  0 inst:  201000001 cyc:   97739459 now IPC :2.02435: AVG IPC :2.05671: L2-Pf-HR :0.92040: L2-HR :0.91649: (Sim:0h56m45s) 
CPU  0 inst:  202000001 cyc:   98395037 now IPC :1.52537: AVG IPC :2.05314: L2-Pf-HR :0.92037: L2-HR :0.91617: (Sim:0h57m6s) 
CPU  0 inst:  203000004 cyc:   98883751 now IPC :2.04619: AVG IPC :2.05310: L2-Pf-HR :0.92014: L2-HR :0.91599: (Sim:0h57m27s) 
CPU  0 inst:  204000004 cyc:   99352283 now IPC :2.13433: AVG IPC :2.05349: L2-Pf-HR :0.92011: L2-HR :0.91600: (Sim:0h57m47s) 
CPU  0 inst:  205000000 cyc:   99813496 now IPC :2.16819: AVG IPC :2.05402: L2-Pf-HR :0.92010: L2-HR :0.91605: (Sim:0h58m7s) 
CPU  0 inst:  206000005 cyc:  100274827 now IPC :2.16765: AVG IPC :2.05455: L2-Pf-HR :0.92013: L2-HR :0.91612: (Sim:0h58m27s) 
CPU  0 inst:  207000003 cyc:  100736484 now IPC :2.16611: AVG IPC :2.05507: L2-Pf-HR :0.92018: L2-HR :0.91620: (Sim:0h58m46s) 
CPU  0 inst:  208000002 cyc:  101196474 now IPC :2.17396: AVG IPC :2.05561: L2-Pf-HR :0.92020: L2-HR :0.91627: (Sim:0h59m6s) 
CPU  0 inst:  209000003 cyc:  101654647 now IPC :2.18258: AVG IPC :2.05619: L2-Pf-HR :0.92026: L2-HR :0.91637: (Sim:0h59m25s) 
CPU  0 inst:  210000003 cyc:  102111261 now IPC :2.19003: AVG IPC :2.05680: L2-Pf-HR :0.92032: L2-HR :0.91646: (Sim:0h59m44s) 
CPU  0 inst:  211000000 cyc:  102568053 now IPC :2.18917: AVG IPC :2.05739: L2-Pf-HR :0.92037: L2-HR :0.91655: (Sim:1h0m3s) 
CPU  0 inst:  212000004 cyc:  103026502 now IPC :2.18128: AVG IPC :2.05795: L2-Pf-HR :0.92052: L2-HR :0.91672: (Sim:1h0m23s) 
CPU  0 inst:  213000000 cyc:  103486390 now IPC :2.17443: AVG IPC :2.05847: L2-Pf-HR :0.92079: L2-HR :0.91698: (Sim:1h0m42s) 
CPU  0 inst:  214000003 cyc:  104089791 now IPC :1.65728: AVG IPC :2.05612: L2-Pf-HR :0.92068: L2-HR :0.91669: (Sim:1h1m2s) 
CPU  0 inst:  215000003 cyc:  104567212 now IPC :2.09459: AVG IPC :2.05630: L2-Pf-HR :0.92065: L2-HR :0.91670: (Sim:1h1m22s) 
CPU  0 inst:  216000001 cyc:  105029193 now IPC :2.16459: AVG IPC :2.05678: L2-Pf-HR :0.92065: L2-HR :0.91674: (Sim:1h1m41s) 
CPU  0 inst:  217000002 cyc:  105487939 now IPC :2.17986: AVG IPC :2.05732: L2-Pf-HR :0.92069: L2-HR :0.91682: (Sim:1h1m59s) 
CPU  0 inst:  218000000 cyc:  105956998 now IPC :2.13192: AVG IPC :2.05766: L2-Pf-HR :0.92072: L2-HR :0.91688: (Sim:1h2m18s) 
CPU  0 inst:  219000001 cyc:  106420072 now IPC :2.15948: AVG IPC :2.05810: L2-Pf-HR :0.92074: L2-HR :0.91694: (Sim:1h2m37s) 
CPU  0 inst:  220000002 cyc:  106883223 now IPC :2.15913: AVG IPC :2.05854: L2-Pf-HR :0.92081: L2-HR :0.91703: (Sim:1h2m56s) 
CPU  0 inst:  221000000 cyc:  107349624 now IPC :2.14407: AVG IPC :2.05892: L2-Pf-HR :0.92108: L2-HR :0.91729: (Sim:1h3m15s) 
CPU  0 inst:  222000003 cyc:  108001698 now IPC :1.53357: AVG IPC :2.05572: L2-Pf-HR :0.92077: L2-HR :0.91673: (Sim:1h3m36s) 
CPU  0 inst:  223000003 cyc:  108508881 now IPC :1.97167: AVG IPC :2.05532: L2-Pf-HR :0.92063: L2-HR :0.91660: (Sim:1h3m55s) 
CPU  0 inst:  224000004 cyc:  109001472 now IPC :2.03008: AVG IPC :2.05521: L2-Pf-HR :0.92054: L2-HR :0.91653: (Sim:1h4m14s) 
CPU  0 inst:  225000001 cyc:  109494550 now IPC :2.02807: AVG IPC :2.05508: L2-Pf-HR :0.92048: L2-HR :0.91647: (Sim:1h4m34s) 
CPU  0 inst:  226000003 cyc:  109983671 now IPC :2.04449: AVG IPC :2.05504: L2-Pf-HR :0.92044: L2-HR :0.91645: (Sim:1h4m54s) 
CPU  0 inst:  227000005 cyc:  110474836 now IPC :2.03598: AVG IPC :2.05495: L2-Pf-HR :0.92042: L2-HR :0.91644: (Sim:1h5m14s) 
CPU  0 inst:  228000004 cyc:  110958933 now IPC :2.06570: AVG IPC :2.05500: L2-Pf-HR :0.92040: L2-HR :0.91644: (Sim:1h5m33s) 
CPU  0 inst:  229000000 cyc:  111448498 now IPC :2.04262: AVG IPC :2.05494: L2-Pf-HR :0.92037: L2-HR :0.91642: (Sim:1h5m52s) 
CPU  0 inst:  230000002 cyc:  111936892 now IPC :2.04753: AVG IPC :2.05491: L2-Pf-HR :0.92034: L2-HR :0.91639: (Sim:1h6m12s) 
CPU  0 inst:  231000001 cyc:  112424860 now IPC :2.04931: AVG IPC :2.05489: L2-Pf-HR :0.92036: L2-HR :0.91642: (Sim:1h6m32s) 
CPU  0 inst:  232000000 cyc:  112916936 now IPC :2.03220: AVG IPC :2.05479: L2-Pf-HR :0.92049: L2-HR :0.91654: (Sim:1h6m51s) 
CPU  0 inst:  233000002 cyc:  113434022 now IPC :1.93392: AVG IPC :2.05423: L2-Pf-HR :0.92064: L2-HR :0.91661: (Sim:1h7m11s) 
CPU  0 inst:  234000001 cyc:  114056932 now IPC :1.60537: AVG IPC :2.05176: L2-Pf-HR :0.92045: L2-HR :0.91627: (Sim:1h7m32s) 
CPU  0 inst:  235000004 cyc:  114535292 now IPC :2.09048: AVG IPC :2.05192: L2-Pf-HR :0.92034: L2-HR :0.91620: (Sim:1h7m52s) 
CPU  0 inst:  236000003 cyc:  114996405 now IPC :2.16866: AVG IPC :2.05239: L2-Pf-HR :0.92033: L2-HR :0.91624: (Sim:1h8m11s) 
CPU  0 inst:  237000000 cyc:  115457729 now IPC :2.16767: AVG IPC :2.05286: L2-Pf-HR :0.92032: L2-HR :0.91627: (Sim:1h8m31s) 
CPU  0 inst:  238000000 cyc:  115919693 now IPC :2.16467: AVG IPC :2.05331: L2-Pf-HR :0.92033: L2-HR :0.91633: (Sim:1h8m51s) 
CPU  0 inst:  239000000 cyc:  116380419 now IPC :2.17049: AVG IPC :2.05377: L2-Pf-HR :0.92035: L2-HR :0.91639: (Sim:1h9m11s) 
CPU  0 inst:  240000005 cyc:  116841893 now IPC :2.16698: AVG IPC :2.05423: L2-Pf-HR :0.92038: L2-HR :0.91645: (Sim:1h9m31s) 
CPU  0 inst:  241000002 cyc:  117300589 now IPC :2.18009: AVG IPC :2.05472: L2-Pf-HR :0.92042: L2-HR :0.91653: (Sim:1h9m50s) 
CPU  0 inst:  242000004 cyc:  117761421 now IPC :2.16999: AVG IPC :2.05518: L2-Pf-HR :0.92047: L2-HR :0.91661: (Sim:1h10m10s) 
CPU  0 inst:  243000004 cyc:  118219292 now IPC :2.18402: AVG IPC :2.05568: L2-Pf-HR :0.92053: L2-HR :0.91671: (Sim:1h10m29s) 
CPU  0 inst:  244000000 cyc:  118680420 now IPC :2.16859: AVG IPC :2.05612: L2-Pf-HR :0.92074: L2-HR :0.91691: (Sim:1h10m48s) 
CPU  0 inst:  245000003 cyc:  119257923 now IPC :1.73160: AVG IPC :2.05454: L2-Pf-HR :0.92086: L2-HR :0.91686: (Sim:1h11m8s) 
CPU  0 inst:  246000003 cyc:  119754037 now IPC :2.01567: AVG IPC :2.05438: L2-Pf-HR :0.92075: L2-HR :0.91677: (Sim:1h11m27s) 
CPU  0 inst:  247000005 cyc:  120225238 now IPC :2.12224: AVG IPC :2.05464: L2-Pf-HR :0.92076: L2-HR :0.91680: (Sim:1h11m46s) 
CPU  0 inst:  248000000 cyc:  120687608 now IPC :2.16276: AVG IPC :2.05506: L2-Pf-HR :0.92077: L2-HR :0.91686: (Sim:1h12m5s) 
CPU  0 inst:  249000001 cyc:  121145599 now IPC :2.18345: AVG IPC :2.05555: L2-Pf-HR :0.92081: L2-HR :0.91693: (Sim:1h12m24s) 
CPU  0 inst:  250000000 cyc:  121613214 now IPC :2.13851: AVG IPC :2.05587: L2-Pf-HR :0.92084: L2-HR :0.91698: (Sim:1h12m43s) 
CPU  0 inst:  251000002 cyc:  122079567 now IPC :2.14430: AVG IPC :2.05621: L2-Pf-HR :0.92089: L2-HR :0.91705: (Sim:1h13m2s) 
CPU  0 inst:  252000000 cyc:  122540619 now IPC :2.16895: AVG IPC :2.05664: L2-Pf-HR :0.92102: L2-HR :0.91720: (Sim:1h13m20s) 
CPU  0 inst:  253000003 cyc:  123177462 now IPC :1.57025: AVG IPC :2.05411: L2-Pf-HR :0.92101: L2-HR :0.91695: (Sim:1h13m40s) 
CPU  0 inst:  254000002 cyc:  123692516 now IPC :1.94154: AVG IPC :2.05363: L2-Pf-HR :0.92084: L2-HR :0.91677: (Sim:1h14m0s) 
CPU  0 inst:  255000002 cyc:  124194389 now IPC :1.99254: AVG IPC :2.05338: L2-Pf-HR :0.92075: L2-HR :0.91669: (Sim:1h14m20s) 
CPU  0 inst:  256000000 cyc:  124685476 now IPC :2.03629: AVG IPC :2.05332: L2-Pf-HR :0.92070: L2-HR :0.91666: (Sim:1h14m40s) 
CPU  0 inst:  257000002 cyc:  125180731 now IPC :2.01917: AVG IPC :2.05318: L2-Pf-HR :0.92066: L2-HR :0.91662: (Sim:1h14m59s) 
CPU  0 inst:  258000001 cyc:  125665591 now IPC :2.06245: AVG IPC :2.05322: L2-Pf-HR :0.92061: L2-HR :0.91659: (Sim:1h15m18s) 
CPU  0 inst:  259000003 cyc:  126145858 now IPC :2.08218: AVG IPC :2.05333: L2-Pf-HR :0.92058: L2-HR :0.91659: (Sim:1h15m38s) 
CPU  0 inst:  260000002 cyc:  126642102 now IPC :2.01514: AVG IPC :2.05318: L2-Pf-HR :0.92057: L2-HR :0.91657: (Sim:1h15m58s) 
CPU  0 inst:  261000002 cyc:  127130411 now IPC :2.04788: AVG IPC :2.05316: L2-Pf-HR :0.92055: L2-HR :0.91657: (Sim:1h16m18s) 
CPU  0 inst:  262000005 cyc:  127620245 now IPC :2.04151: AVG IPC :2.05311: L2-Pf-HR :0.92057: L2-HR :0.91659: (Sim:1h16m37s) 
CPU  0 inst:  263000003 cyc:  128100255 now IPC :2.08329: AVG IPC :2.05322: L2-Pf-HR :0.92059: L2-HR :0.91661: (Sim:1h16m57s) 
CPU  0 inst:  264000003 cyc:  128568915 now IPC :2.13374: AVG IPC :2.05352: L2-Pf-HR :0.92075: L2-HR :0.91677: (Sim:1h17m16s) 
CPU  0 inst:  265000004 cyc:  129199773 now IPC :1.58514: AVG IPC :2.05122: L2-Pf-HR :0.92075: L2-HR :0.91654: (Sim:1h17m36s) 
CPU  0 inst:  266000004 cyc:  129695225 now IPC :2.01836: AVG IPC :2.05109: L2-Pf-HR :0.92060: L2-HR :0.91641: (Sim:1h17m57s) 
CPU  0 inst:  267000001 cyc:  130166511 now IPC :2.12185: AVG IPC :2.05135: L2-Pf-HR :0.92058: L2-HR :0.91642: (Sim:1h18m17s) 
CPU  0 inst:  268000000 cyc:  130629597 now IPC :2.15942: AVG IPC :2.05173: L2-Pf-HR :0.92058: L2-HR :0.91646: (Sim:1h18m36s) 
CPU  0 inst:  269000000 cyc:  131090706 now IPC :2.16868: AVG IPC :2.05215: L2-Pf-HR :0.92059: L2-HR :0.91651: (Sim:1h18m56s) 
CPU  0 inst:  270000004 cyc:  131547665 now IPC :2.18839: AVG IPC :2.05263: L2-Pf-HR :0.92062: L2-HR :0.91657: (Sim:1h19m15s) 
CPU  0 inst:  271000002 cyc:  132006297 now IPC :2.18039: AVG IPC :2.05307: L2-Pf-HR :0.92063: L2-HR :0.91662: (Sim:1h19m34s) 
CPU  0 inst:  272000002 cyc:  132462746 now IPC :2.19083: AVG IPC :2.05355: L2-Pf-HR :0.92065: L2-HR :0.91667: (Sim:1h19m53s) 
CPU  0 inst:  273000002 cyc:  132924645 now IPC :2.16498: AVG IPC :2.05394: L2-Pf-HR :0.92067: L2-HR :0.91672: (Sim:1h20m12s) 
CPU  0 inst:  274000002 cyc:  133385246 now IPC :2.17108: AVG IPC :2.05435: L2-Pf-HR :0.92072: L2-HR :0.91679: (Sim:1h20m31s) 
CPU  0 inst:  275000000 cyc:  133846947 now IPC :2.16590: AVG IPC :2.05474: L2-Pf-HR :0.92081: L2-HR :0.91690: (Sim:1h20m50s) 
CPU  0 inst:  276000005 cyc:  134310122 now IPC :2.15902: AVG IPC :2.05510: L2-Pf-HR :0.92103: L2-HR :0.91711: (Sim:1h21m8s) 
CPU  0 inst:  277000002 cyc:  134914575 now IPC :1.65438: AVG IPC :2.05329: L2-Pf-HR :0.92098: L2-HR :0.91692: (Sim:1h21m28s) 
CPU  0 inst:  278000001 cyc:  135392835 now IPC :2.09091: AVG IPC :2.05342: L2-Pf-HR :0.92094: L2-HR :0.91691: (Sim:1h21m47s) 
CPU  0 inst:  279000002 cyc:  135855596 now IPC :2.16094: AVG IPC :2.05379: L2-Pf-HR :0.92095: L2-HR :0.91695: (Sim:1h22m6s) 
CPU  0 inst:  280000005 cyc:  136319624 now IPC :2.15505: AVG IPC :2.05414: L2-Pf-HR :0.92098: L2-HR :0.91700: (Sim:1h22m25s) 
CPU  0 inst:  281000004 cyc:  136782592 now IPC :2.15997: AVG IPC :2.05450: L2-Pf-HR :0.92101: L2-HR :0.91706: (Sim:1h22m44s) 
CPU  0 inst:  282000000 cyc:  137244306 now IPC :2.16583: AVG IPC :2.05488: L2-Pf-HR :0.92103: L2-HR :0.91711: (Sim:1h23m3s) 
CPU  0 inst:  283000002 cyc:  137713434 now IPC :2.13162: AVG IPC :2.05514: L2-Pf-HR :0.92108: L2-HR :0.91718: (Sim:1h23m22s) 
CPU  0 inst:  284000000 cyc:  138175353 now IPC :2.16488: AVG IPC :2.05551: L2-Pf-HR :0.92125: L2-HR :0.91735: (Sim:1h23m41s) 
CPU  0 inst:  285000003 cyc:  138826454 now IPC :1.53586: AVG IPC :2.05306: L2-Pf-HR :0.92108: L2-HR :0.91698: (Sim:1h24m1s) 
CPU  0 inst:  286000004 cyc:  139333629 now IPC :1.97171: AVG IPC :2.05276: L2-Pf-HR :0.92092: L2-HR :0.91683: (Sim:1h24m21s) 
CPU  0 inst:  287000005 cyc:  139821440 now IPC :2.04998: AVG IPC :2.05275: L2-Pf-HR :0.92087: L2-HR :0.91680: (Sim:1h24m40s) 
CPU  0 inst:  288000000 cyc:  140318643 now IPC :2.01124: AVG IPC :2.05260: L2-Pf-HR :0.92084: L2-HR :0.91677: (Sim:1h25m0s) 
CPU  0 inst:  289000003 cyc:  140808592 now IPC :2.04103: AVG IPC :2.05256: L2-Pf-HR :0.92081: L2-HR :0.91676: (Sim:1h25m19s) 
CPU  0 inst:  290000004 cyc:  141300416 now IPC :2.03325: AVG IPC :2.05249: L2-Pf-HR :0.92079: L2-HR :0.91675: (Sim:1h25m36s) 
CPU  0 inst:  291000000 cyc:  141795942 now IPC :2.01805: AVG IPC :2.05237: L2-Pf-HR :0.92076: L2-HR :0.91673: (Sim:1h25m46s) 
CPU  0 inst:  292000000 cyc:  142275082 now IPC :2.08707: AVG IPC :2.05249: L2-Pf-HR :0.92073: L2-HR :0.91672: (Sim:1h25m55s) 
CPU  0 inst:  293000002 cyc:  142761364 now IPC :2.05642: AVG IPC :2.05250: L2-Pf-HR :0.92071: L2-HR :0.91670: (Sim:1h26m5s) 
CPU  0 inst:  294000000 cyc:  143247393 now IPC :2.05749: AVG IPC :2.05252: L2-Pf-HR :0.92072: L2-HR :0.91671: (Sim:1h26m14s) 
CPU  0 inst:  295000003 cyc:  143721618 now IPC :2.10871: AVG IPC :2.05271: L2-Pf-HR :0.92081: L2-HR :0.91681: (Sim:1h26m24s) 
CPU  0 inst:  296000003 cyc:  144216034 now IPC :2.02259: AVG IPC :2.05260: L2-Pf-HR :0.92096: L2-HR :0.91693: (Sim:1h26m33s) 
CPU  0 inst:  297000001 cyc:  144877004 now IPC :1.51292: AVG IPC :2.05012: L2-Pf-HR :0.92080: L2-HR :0.91660: (Sim:1h26m44s) 
CPU  0 inst:  298000000 cyc:  145366117 now IPC :2.04452: AVG IPC :2.05010: L2-Pf-HR :0.92072: L2-HR :0.91655: (Sim:1h26m54s) 
CPU  0 inst:  299000004 cyc:  145835839 now IPC :2.12893: AVG IPC :2.05036: L2-Pf-HR :0.92072: L2-HR :0.91657: (Sim:1h27m11s) 
CPU  0 inst:  300000003 cyc:  146294994 now IPC :2.17791: AVG IPC :2.05076: L2-Pf-HR :0.92072: L2-HR :0.91661: (Sim:1h27m31s) 
CPU  0 inst:  301000002 cyc:  146755512 now IPC :2.17147: AVG IPC :2.05114: L2-Pf-HR :0.92073: L2-HR :0.91665: (Sim:1h27m50s) 
CPU  0 inst:  302000001 cyc:  147217965 now IPC :2.16238: AVG IPC :2.05150: L2-Pf-HR :0.92074: L2-HR :0.91669: (Sim:1h28m9s) 
CPU  0 inst:  303000002 cyc:  147676501 now IPC :2.18086: AVG IPC :2.05190: L2-Pf-HR :0.92076: L2-HR :0.91674: (Sim:1h28m28s) 
CPU  0 inst:  304000003 cyc:  148134446 now IPC :2.18367: AVG IPC :2.05231: L2-Pf-HR :0.92078: L2-HR :0.91679: (Sim:1h28m47s) 
CPU  0 inst:  305000001 cyc:  148591922 now IPC :2.18590: AVG IPC :2.05272: L2-Pf-HR :0.92081: L2-HR :0.91685: (Sim:1h29m6s) 
CPU  0 inst:  306000003 cyc:  149048925 now IPC :2.18817: AVG IPC :2.05314: L2-Pf-HR :0.92086: L2-HR :0.91692: (Sim:1h29m25s) 
CPU  0 inst:  307000003 cyc:  149507310 now IPC :2.18157: AVG IPC :2.05354: L2-Pf-HR :0.92100: L2-HR :0.91708: (Sim:1h29m44s) 
CPU  0 inst:  308000000 cyc:  150034942 now IPC :1.89525: AVG IPC :2.05298: L2-Pf-HR :0.92111: L2-HR :0.91708: (Sim:1h30m3s) 
CPU  0 inst:  309000002 cyc:  150554072 now IPC :1.92630: AVG IPC :2.05254: L2-Pf-HR :0.92102: L2-HR :0.91698: (Sim:1h30m22s) 
CPU  0 inst:  310000001 cyc:  151023678 now IPC :2.12944: AVG IPC :2.05278: L2-Pf-HR :0.92103: L2-HR :0.91701: (Sim:1h30m41s) 
CPU  0 inst:  311000005 cyc:  151483682 now IPC :2.17390: AVG IPC :2.05315: L2-Pf-HR :0.92105: L2-HR :0.91706: (Sim:1h31m0s) 
CPU  0 inst:  312000001 cyc:  151949209 now IPC :2.14809: AVG IPC :2.05344: L2-Pf-HR :0.92107: L2-HR :0.91711: (Sim:1h31m19s) 
CPU  0 inst:  313000002 cyc:  152415879 now IPC :2.14284: AVG IPC :2.05372: L2-Pf-HR :0.92109: L2-HR :0.91715: (Sim:1h31m38s) 
CPU  0 inst:  314000001 cyc:  152875120 now IPC :2.17750: AVG IPC :2.05409: L2-Pf-HR :0.92113: L2-HR :0.91721: (Sim:1h31m57s) 
CPU  0 inst:  315000002 cyc:  153337062 now IPC :2.16478: AVG IPC :2.05443: L2-Pf-HR :0.92121: L2-HR :0.91731: (Sim:1h32m15s) 
CPU  0 inst:  316000000 cyc:  153944487 now IPC :1.64629: AVG IPC :2.05281: L2-Pf-HR :0.92123: L2-HR :0.91715: (Sim:1h32m35s) 
CPU  0 inst:  317000002 cyc:  154477067 now IPC :1.87766: AVG IPC :2.05220: L2-Pf-HR :0.92109: L2-HR :0.91700: (Sim:1h32m55s) 
CPU  0 inst:  318000001 cyc:  154972250 now IPC :2.01945: AVG IPC :2.05209: L2-Pf-HR :0.92102: L2-HR :0.91693: (Sim:1h33m15s) 
CPU  0 inst:  319000000 cyc:  155467414 now IPC :2.01953: AVG IPC :2.05199: L2-Pf-HR :0.92097: L2-HR :0.91689: (Sim:1h33m33s) 
CPU  0 inst:  320000001 cyc:  155956665 now IPC :2.04394: AVG IPC :2.05196: L2-Pf-HR :0.92093: L2-HR :0.91686: (Sim:1h33m52s) 
CPU  0 inst:  321000001 cyc:  156438819 now IPC :2.07403: AVG IPC :2.05203: L2-Pf-HR :0.92091: L2-HR :0.91685: (Sim:1h34m11s) 
CPU  0 inst:  322000005 cyc:  156926383 now IPC :2.05102: AVG IPC :2.05203: L2-Pf-HR :0.92089: L2-HR :0.91684: (Sim:1h34m31s) 
CPU  0 inst:  323000002 cyc:  157406951 now IPC :2.08086: AVG IPC :2.05212: L2-Pf-HR :0.92089: L2-HR :0.91685: (Sim:1h34m51s) 
CPU  0 inst:  324000001 cyc:  157899904 now IPC :2.02859: AVG IPC :2.05204: L2-Pf-HR :0.92088: L2-HR :0.91685: (Sim:1h35m10s) 
CPU  0 inst:  325000000 cyc:  158386889 now IPC :2.05345: AVG IPC :2.05205: L2-Pf-HR :0.92086: L2-HR :0.91684: (Sim:1h35m29s) 
CPU  0 inst:  326000003 cyc:  158870981 now IPC :2.06573: AVG IPC :2.05209: L2-Pf-HR :0.92087: L2-HR :0.91685: (Sim:1h35m49s) 
CPU  0 inst:  327000001 cyc:  159371584 now IPC :1.99759: AVG IPC :2.05192: L2-Pf-HR :0.92098: L2-HR :0.91695: (Sim:1h36m8s) 
CPU  0 inst:  328000003 cyc:  160019019 now IPC :1.54456: AVG IPC :2.04985: L2-Pf-HR :0.92099: L2-HR :0.91679: (Sim:1h36m29s) 
CPU  0 inst:  329000003 cyc:  160523126 now IPC :1.98371: AVG IPC :2.04964: L2-Pf-HR :0.92088: L2-HR :0.91669: (Sim:1h36m49s) 
CPU  0 inst:  330000003 cyc:  161003414 now IPC :2.08208: AVG IPC :2.04974: L2-Pf-HR :0.92083: L2-HR :0.91668: (Sim:1h37m9s) 
CPU  0 inst:  331000002 cyc:  161463885 now IPC :2.17169: AVG IPC :2.05009: L2-Pf-HR :0.92083: L2-HR :0.91670: (Sim:1h37m20s) 
CPU  0 inst:  332000000 cyc:  161924999 now IPC :2.16866: AVG IPC :2.05043: L2-Pf-HR :0.92085: L2-HR :0.91675: (Sim:1h37m29s) 
CPU  0 inst:  333000000 cyc:  162383006 now IPC :2.18337: AVG IPC :2.05081: L2-Pf-HR :0.92087: L2-HR :0.91680: (Sim:1h37m38s) 
CPU  0 inst:  334000000 cyc:  162845628 now IPC :2.16159: AVG IPC :2.05112: L2-Pf-HR :0.92088: L2-HR :0.91684: (Sim:1h37m47s) 
CPU  0 inst:  335000001 cyc:  163305770 now IPC :2.17324: AVG IPC :2.05147: L2-Pf-HR :0.92089: L2-HR :0.91688: (Sim:1h37m56s) 
CPU  0 inst:  336000001 cyc:  163766057 now IPC :2.17256: AVG IPC :2.05181: L2-Pf-HR :0.92092: L2-HR :0.91693: (Sim:1h38m5s) 
CPU  0 inst:  337000001 cyc:  164225359 now IPC :2.17722: AVG IPC :2.05217: L2-Pf-HR :0.92096: L2-HR :0.91699: (Sim:1h38m14s) 
CPU  0 inst:  338000002 cyc:  164684089 now IPC :2.17993: AVG IPC :2.05252: L2-Pf-HR :0.92102: L2-HR :0.91706: (Sim:1h38m24s) 
CPU  0 inst:  339000003 cyc:  165140667 now IPC :2.19021: AVG IPC :2.05291: L2-Pf-HR :0.92118: L2-HR :0.91723: (Sim:1h38m33s) 
CPU  0 inst:  340000004 cyc:  165730662 now IPC :1.69493: AVG IPC :2.05162: L2-Pf-HR :0.92118: L2-HR :0.91711: (Sim:1h38m43s) 
CPU  0 inst:  341000004 cyc:  166215960 now IPC :2.06059: AVG IPC :2.05165: L2-Pf-HR :0.92113: L2-HR :0.91708: (Sim:1h38m52s) 
CPU  0 inst:  342000002 cyc:  166679138 now IPC :2.15899: AVG IPC :2.05195: L2-Pf-HR :0.92113: L2-HR :0.91710: (Sim:1h39m1s) 
CPU  0 inst:  343000002 cyc:  167139227 now IPC :2.17349: AVG IPC :2.05229: L2-Pf-HR :0.92115: L2-HR :0.91714: (Sim:1h39m15s) 
CPU  0 inst:  344000001 cyc:  167602462 now IPC :2.15873: AVG IPC :2.05258: L2-Pf-HR :0.92116: L2-HR :0.91719: (Sim:1h39m33s) 
CPU  0 inst:  345000004 cyc:  168070233 now IPC :2.13780: AVG IPC :2.05282: L2-Pf-HR :0.92118: L2-HR :0.91722: (Sim:1h39m52s) 
CPU  0 inst:  346000004 cyc:  168532124 now IPC :2.16501: AVG IPC :2.05313: L2-Pf-HR :0.92122: L2-HR :0.91728: (Sim:1h40m10s) 
CPU  0 inst:  347000003 cyc:  168993935 now IPC :2.16539: AVG IPC :2.05344: L2-Pf-HR :0.92136: L2-HR :0.91742: (Sim:1h40m29s) 
CPU  0 inst:  348000001 cyc:  169664512 now IPC :1.49125: AVG IPC :2.05120: L2-Pf-HR :0.92126: L2-HR :0.91714: (Sim:1h40m49s) 
CPU  0 inst:  349000000 cyc:  170182307 now IPC :1.93126: AVG IPC :2.05084: L2-Pf-HR :0.92114: L2-HR :0.91702: (Sim:1h41m9s) 
CPU  0 inst:  350000002 cyc:  170684238 now IPC :1.99231: AVG IPC :2.05066: L2-Pf-HR :0.92109: L2-HR :0.91698: (Sim:1h41m28s) 
CPU  0 inst:  351000004 cyc:  171174025 now IPC :2.04171: AVG IPC :2.05064: L2-Pf-HR :0.92107: L2-HR :0.91696: (Sim:1h41m47s) 
CPU  0 inst:  352000002 cyc:  171659154 now IPC :2.06130: AVG IPC :2.05067: L2-Pf-HR :0.92105: L2-HR :0.91696: (Sim:1h42m6s) 
CPU  0 inst:  353000003 cyc:  172147465 now IPC :2.04788: AVG IPC :2.05066: L2-Pf-HR :0.92102: L2-HR :0.91694: (Sim:1h42m26s) 
CPU  0 inst:  354000004 cyc:  172626702 now IPC :2.08665: AVG IPC :2.05076: L2-Pf-HR :0.92099: L2-HR :0.91692: (Sim:1h42m45s) 
CPU  0 inst:  355000004 cyc:  173123778 now IPC :2.01176: AVG IPC :2.05065: L2-Pf-HR :0.92097: L2-HR :0.91690: (Sim:1h43m5s) 
CPU  0 inst:  356000002 cyc:  173612835 now IPC :2.04475: AVG IPC :2.05063: L2-Pf-HR :0.92096: L2-HR :0.91690: (Sim:1h43m25s) 
CPU  0 inst:  357000001 cyc:  174097897 now IPC :2.06159: AVG IPC :2.05066: L2-Pf-HR :0.92097: L2-HR :0.91692: (Sim:1h43m44s) 
CPU  0 inst:  358000003 cyc:  174584382 now IPC :2.05557: AVG IPC :2.05068: L2-Pf-HR :0.92102: L2-HR :0.91697: (Sim:1h44m2s) 
CPU  0 inst:  359000005 cyc:  175063414 now IPC :2.08755: AVG IPC :2.05078: L2-Pf-HR :0.92114: L2-HR :0.91707: (Sim:1h44m21s) 
CPU  0 inst:  360000001 cyc:  175724090 now IPC :1.51360: AVG IPC :2.04875: L2-Pf-HR :0.92108: L2-HR :0.91684: (Sim:1h44m42s) 
CPU  0 inst:  361000000 cyc:  176210991 now IPC :2.05380: AVG IPC :2.04876: L2-Pf-HR :0.92097: L2-HR :0.91675: (Sim:1h45m2s) 
CPU  0 inst:  362000000 cyc:  176678387 now IPC :2.13951: AVG IPC :2.04900: L2-Pf-HR :0.92095: L2-HR :0.91676: (Sim:1h45m22s) 
CPU  0 inst:  363000000 cyc:  177137478 now IPC :2.17822: AVG IPC :2.04934: L2-Pf-HR :0.92095: L2-HR :0.91679: (Sim:1h45m41s) 
CPU  0 inst:  364000000 cyc:  177598937 now IPC :2.16704: AVG IPC :2.04965: L2-Pf-HR :0.92096: L2-HR :0.91683: (Sim:1h46m1s) 
CPU  0 inst:  365000001 cyc:  178058752 now IPC :2.17479: AVG IPC :2.04997: L2-Pf-HR :0.92097: L2-HR :0.91686: (Sim:1h46m20s) 
CPU  0 inst:  366000001 cyc:  178520079 now IPC :2.16766: AVG IPC :2.05028: L2-Pf-HR :0.92099: L2-HR :0.91690: (Sim:1h46m40s) 
CPU  0 inst:  367000001 cyc:  178979413 now IPC :2.17707: AVG IPC :2.05060: L2-Pf-HR :0.92100: L2-HR :0.91694: (Sim:1h46m59s) 
CPU  0 inst:  368000003 cyc:  179438715 now IPC :2.17722: AVG IPC :2.05093: L2-Pf-HR :0.92102: L2-HR :0.91699: (Sim:1h47m19s) 
CPU  0 inst:  369000005 cyc:  179895013 now IPC :2.19155: AVG IPC :2.05129: L2-Pf-HR :0.92106: L2-HR :0.91704: (Sim:1h47m38s) 
CPU  0 inst:  370000003 cyc:  180351051 now IPC :2.19280: AVG IPC :2.05165: L2-Pf-HR :0.92116: L2-HR :0.91716: (Sim:1h47m56s) 
CPU  0 inst:  371000005 cyc:  180828757 now IPC :2.09334: AVG IPC :2.05176: L2-Pf-HR :0.92131: L2-HR :0.91728: (Sim:1h48m15s) 
CPU  0 inst:  372000002 cyc:  181424276 now IPC :1.67920: AVG IPC :2.05053: L2-Pf-HR :0.92120: L2-HR :0.91709: (Sim:1h48m35s) 
CPU  0 inst:  373000005 cyc:  181890659 now IPC :2.14417: AVG IPC :2.05077: L2-Pf-HR :0.92119: L2-HR :0.91711: (Sim:1h48m54s) 
CPU  0 inst:  374000000 cyc:  182354265 now IPC :2.15699: AVG IPC :2.05104: L2-Pf-HR :0.92120: L2-HR :0.91714: (Sim:1h49m12s) 
CPU  0 inst:  375000004 cyc:  182815660 now IPC :2.16735: AVG IPC :2.05134: L2-Pf-HR :0.92122: L2-HR :0.91718: (Sim:1h49m31s) 
CPU  0 inst:  376000001 cyc:  183279416 now IPC :2.15630: AVG IPC :2.05161: L2-Pf-HR :0.92124: L2-HR :0.91722: (Sim:1h49m50s) 
CPU  0 inst:  377000003 cyc:  183741116 now IPC :2.16591: AVG IPC :2.05189: L2-Pf-HR :0.92127: L2-HR :0.91727: (Sim:1h50m9s) 
CPU  0 inst:  378000003 cyc:  184206935 now IPC :2.14676: AVG IPC :2.05214: L2-Pf-HR :0.92133: L2-HR :0.91733: (Sim:1h50m27s) 
CPU  0 inst:  379000001 cyc:  184760619 now IPC :1.80608: AVG IPC :2.05139: L2-Pf-HR :0.92134: L2-HR :0.91726: (Sim:1h50m47s) 
CPU  0 inst:  380000004 cyc:  185318115 now IPC :1.79374: AVG IPC :2.05061: L2-Pf-HR :0.92126: L2-HR :0.91714: (Sim:1h51m6s) 
CPU  0 inst:  381000003 cyc:  185827595 now IPC :1.96278: AVG IPC :2.05037: L2-Pf-HR :0.92117: L2-HR :0.91705: (Sim:1h51m26s) 
CPU  0 inst:  382000004 cyc:  186316502 now IPC :2.04538: AVG IPC :2.05036: L2-Pf-HR :0.92112: L2-HR :0.91701: (Sim:1h51m45s) 
CPU  0 inst:  383000005 cyc:  186802259 now IPC :2.05864: AVG IPC :2.05038: L2-Pf-HR :0.92109: L2-HR :0.91699: (Sim:1h52m5s) 
CPU  0 inst:  384000000 cyc:  187295870 now IPC :2.02588: AVG IPC :2.05032: L2-Pf-HR :0.92108: L2-HR :0.91698: (Sim:1h52m24s) 
CPU  0 inst:  385000001 cyc:  187778082 now IPC :2.07378: AVG IPC :2.05038: L2-Pf-HR :0.92107: L2-HR :0.91699: (Sim:1h52m44s) 
CPU  0 inst:  386000005 cyc:  188276529 now IPC :2.00624: AVG IPC :2.05026: L2-Pf-HR :0.92105: L2-HR :0.91697: (Sim:1h53m3s) 
CPU  0 inst:  387000001 cyc:  188758984 now IPC :2.07272: AVG IPC :2.05032: L2-Pf-HR :0.92101: L2-HR :0.91695: (Sim:1h53m23s) 
CPU  0 inst:  388000000 cyc:  189241204 now IPC :2.07374: AVG IPC :2.05038: L2-Pf-HR :0.92100: L2-HR :0.91695: (Sim:1h53m41s) 
CPU  0 inst:  389000001 cyc:  189740817 now IPC :2.00155: AVG IPC :2.05025: L2-Pf-HR :0.92101: L2-HR :0.91696: (Sim:1h54m1s) 
CPU  0 inst:  390000001 cyc:  190223940 now IPC :2.06987: AVG IPC :2.05030: L2-Pf-HR :0.92111: L2-HR :0.91705: (Sim:1h54m20s) 
CPU  0 inst:  391000000 cyc:  190842990 now IPC :1.61538: AVG IPC :2.04888: L2-Pf-HR :0.92117: L2-HR :0.91695: (Sim:1h54m40s) 
CPU  0 inst:  392000000 cyc:  191374168 now IPC :1.88261: AVG IPC :2.04842: L2-Pf-HR :0.92109: L2-HR :0.91686: (Sim:1h55m0s) 
CPU  0 inst:  393000002 cyc:  191855059 now IPC :2.07948: AVG IPC :2.04849: L2-Pf-HR :0.92103: L2-HR :0.91682: (Sim:1h55m20s) 
CPU  0 inst:  394000005 cyc:  192315636 now IPC :2.17120: AVG IPC :2.04879: L2-Pf-HR :0.92102: L2-HR :0.91684: (Sim:1h55m39s) 
CPU  0 inst:  395000000 cyc:  192771140 now IPC :2.19536: AVG IPC :2.04914: L2-Pf-HR :0.92101: L2-HR :0.91686: (Sim:1h55m58s) 
CPU  0 inst:  396000001 cyc:  193231953 now IPC :2.17008: AVG IPC :2.04943: L2-Pf-HR :0.92102: L2-HR :0.91689: (Sim:1h56m17s) 
CPU  0 inst:  397000000 cyc:  193697012 now IPC :2.15026: AVG IPC :2.04967: L2-Pf-HR :0.92102: L2-HR :0.91692: (Sim:1h56m36s) 
CPU  0 inst:  398000001 cyc:  194161236 now IPC :2.15413: AVG IPC :2.04992: L2-Pf-HR :0.92104: L2-HR :0.91695: (Sim:1h56m54s) 
CPU  0 inst:  399000000 cyc:  194621040 now IPC :2.17484: AVG IPC :2.05022: L2-Pf-HR :0.92106: L2-HR :0.91700: (Sim:1h57m13s) 
CPU  0 inst:  400000000 cyc:  195082165 now IPC :2.16861: AVG IPC :2.05050: L2-Pf-HR :0.92109: L2-HR :0.91704: (Sim:1h57m31s) 
CPU  0 inst:  401000000 cyc:  195541675 now IPC :2.17623: AVG IPC :2.05080: L2-Pf-HR :0.92112: L2-HR :0.91710: (Sim:1h57m50s) 
CPU  0 inst:  402000002 cyc:  196002715 now IPC :2.16901: AVG IPC :2.05108: L2-Pf-HR :0.92127: L2-HR :0.91724: (Sim:1h58m9s) 
CPU  0 inst:  403000005 cyc:  196586419 now IPC :1.71320: AVG IPC :2.05007: L2-Pf-HR :0.92130: L2-HR :0.91717: (Sim:1h58m28s) 
CPU  0 inst:  404000005 cyc:  197073159 now IPC :2.05448: AVG IPC :2.05008: L2-Pf-HR :0.92124: L2-HR :0.91712: (Sim:1h58m46s) 
CPU  0 inst:  405000004 cyc:  197537329 now IPC :2.15438: AVG IPC :2.05033: L2-Pf-HR :0.92125: L2-HR :0.91715: (Sim:1h59m5s) 
CPU  0 inst:  406000005 cyc:  197999482 now IPC :2.16379: AVG IPC :2.05059: L2-Pf-HR :0.92126: L2-HR :0.91718: (Sim:1h59m23s) 
CPU  0 inst:  407000002 cyc:  198465940 now IPC :2.14381: AVG IPC :2.05081: L2-Pf-HR :0.92127: L2-HR :0.91721: (Sim:1h59m37s) 
CPU  0 inst:  408000005 cyc:  198929561 now IPC :2.15694: AVG IPC :2.05106: L2-Pf-HR :0.92129: L2-HR :0.91725: (Sim:1h59m55s) 
CPU  0 inst:  409000001 cyc:  199390634 now IPC :2.16885: AVG IPC :2.05133: L2-Pf-HR :0.92132: L2-HR :0.91729: (Sim:2h0m13s) 
CPU  0 inst:  410000003 cyc:  199856817 now IPC :2.14508: AVG IPC :2.05155: L2-Pf-HR :0.92141: L2-HR :0.91739: (Sim:2h0m32s) 
CPU  0 inst:  411000001 cyc:  200495677 now IPC :1.56529: AVG IPC :2.05000: L2-Pf-HR :0.92138: L2-HR :0.91721: (Sim:2h0m52s) 
CPU  0 inst:  412000005 cyc:  201009769 now IPC :1.94518: AVG IPC :2.04973: L2-Pf-HR :0.92125: L2-HR :0.91708: (Sim:2h1m12s) 
CPU  0 inst:  413000005 cyc:  201499606 now IPC :2.04150: AVG IPC :2.04971: L2-Pf-HR :0.92120: L2-HR :0.91705: (Sim:2h1m31s) 
CPU  0 inst:  414000001 cyc:  201989904 now IPC :2.03957: AVG IPC :2.04968: L2-Pf-HR :0.92118: L2-HR :0.91703: (Sim:2h1m50s) 
CPU  0 inst:  415000000 cyc:  202483751 now IPC :2.02492: AVG IPC :2.04962: L2-Pf-HR :0.92115: L2-HR :0.91701: (Sim:2h2m9s) 
CPU  0 inst:  416000003 cyc:  202968452 now IPC :2.06313: AVG IPC :2.04965: L2-Pf-HR :0.92113: L2-HR :0.91700: (Sim:2h2m27s) 
CPU  0 inst:  417000002 cyc:  203462293 now IPC :2.02494: AVG IPC :2.04959: L2-Pf-HR :0.92110: L2-HR :0.91699: (Sim:2h2m47s) 
CPU  0 inst:  418000001 cyc:  203949297 now IPC :2.05337: AVG IPC :2.04960: L2-Pf-HR :0.92110: L2-HR :0.91698: (Sim:2h3m6s) 
CPU  0 inst:  419000000 cyc:  204437699 now IPC :2.04749: AVG IPC :2.04960: L2-Pf-HR :0.92109: L2-HR :0.91698: (Sim:2h3m26s) 
CPU  0 inst:  420000002 cyc:  204933547 now IPC :2.01675: AVG IPC :2.04952: L2-Pf-HR :0.92109: L2-HR :0.91699: (Sim:2h3m45s) 
CPU  0 inst:  421000003 cyc:  205415370 now IPC :2.07545: AVG IPC :2.04958: L2-Pf-HR :0.92111: L2-HR :0.91701: (Sim:2h4m3s) 
CPU  0 inst:  422000003 cyc:  205908620 now IPC :2.02737: AVG IPC :2.04953: L2-Pf-HR :0.92121: L2-HR :0.91709: (Sim:2h4m21s) 
CPU  0 inst:  423000004 cyc:  206565768 now IPC :1.52173: AVG IPC :2.04784: L2-Pf-HR :0.92120: L2-HR :0.91693: (Sim:2h4m41s) 
CPU  0 inst:  424000002 cyc:  207054290 now IPC :2.04699: AVG IPC :2.04784: L2-Pf-HR :0.92109: L2-HR :0.91684: (Sim:2h5m1s) 
CPU  0 inst:  425000005 cyc:  207526730 now IPC :2.11668: AVG IPC :2.04799: L2-Pf-HR :0.92108: L2-HR :0.91685: (Sim:2h5m21s) 
CPU  0 inst:  426000002 cyc:  207991716 now IPC :2.15060: AVG IPC :2.04822: L2-Pf-HR :0.92107: L2-HR :0.91687: (Sim:2h5m41s) 
CPU  0 inst:  427000001 cyc:  208455832 now IPC :2.15463: AVG IPC :2.04846: L2-Pf-HR :0.92107: L2-HR :0.91688: (Sim:2h6m0s) 
CPU  0 inst:  428000000 cyc:  208917392 now IPC :2.16656: AVG IPC :2.04872: L2-Pf-HR :0.92107: L2-HR :0.91691: (Sim:2h6m20s) 
CPU  0 inst:  429000005 cyc:  209380635 now IPC :2.15870: AVG IPC :2.04897: L2-Pf-HR :0.92107: L2-HR :0.91693: (Sim:2h6m39s) 
CPU  0 inst:  430000000 cyc:  209843090 now IPC :2.16236: AVG IPC :2.04922: L2-Pf-HR :0.92108: L2-HR :0.91696: (Sim:2h6m59s) 
CPU  0 inst:  431000005 cyc:  210303348 now IPC :2.17271: AVG IPC :2.04949: L2-Pf-HR :0.92109: L2-HR :0.91699: (Sim:2h7m19s) 
CPU  0 inst:  432000004 cyc:  210761889 now IPC :2.18083: AVG IPC :2.04978: L2-Pf-HR :0.92111: L2-HR :0.91704: (Sim:2h7m39s) 
CPU  0 inst:  433000002 cyc:  211221513 now IPC :2.17569: AVG IPC :2.05005: L2-Pf-HR :0.92119: L2-HR :0.91712: (Sim:2h7m58s) 
CPU  0 inst:  434000003 cyc:  211687935 now IPC :2.14398: AVG IPC :2.05026: L2-Pf-HR :0.92132: L2-HR :0.91724: (Sim:2h8m17s) 
CPU  0 inst:  435000000 cyc:  212285967 now IPC :1.67215: AVG IPC :2.04919: L2-Pf-HR :0.92125: L2-HR :0.91709: (Sim:2h8m38s) 
CPU  0 inst:  436000000 cyc:  212754728 now IPC :2.13328: AVG IPC :2.04938: L2-Pf-HR :0.92124: L2-HR :0.91709: (Sim:2h8m57s) 
CPU  0 inst:  437000001 cyc:  213216519 now IPC :2.16548: AVG IPC :2.04963: L2-Pf-HR :0.92124: L2-HR :0.91712: (Sim:2h9m17s) 
CPU  0 inst:  438000002 cyc:  213674923 now IPC :2.18148: AVG IPC :2.04991: L2-Pf-HR :0.92126: L2-HR :0.91716: (Sim:2h9m36s) 
CPU  0 inst:  439000000 cyc:  214138356 now IPC :2.15780: AVG IPC :2.05015: L2-Pf-HR :0.92127: L2-HR :0.91718: (Sim:2h9m55s) 
CPU  0 inst:  440000004 cyc:  214601137 now IPC :2.16086: AVG IPC :2.05039: L2-Pf-HR :0.92129: L2-HR :0.91722: (Sim:2h10m15s) 
CPU  0 inst:  441000004 cyc:  215065231 now IPC :2.15474: AVG IPC :2.05062: L2-Pf-HR :0.92132: L2-HR :0.91727: (Sim:2h10m34s) 
CPU  0 inst:  442000003 cyc:  215576202 now IPC :1.95706: AVG IPC :2.05039: L2-Pf-HR :0.92142: L2-HR :0.91731: (Sim:2h10m53s) 
CPU  0 inst:  443000001 cyc:  216212310 now IPC :1.57206: AVG IPC :2.04898: L2-Pf-HR :0.92129: L2-HR :0.91710: (Sim:2h11m14s) 
CPU  0 inst:  444000005 cyc:  216720081 now IPC :1.96940: AVG IPC :2.04879: L2-Pf-HR :0.92120: L2-HR :0.91702: (Sim:2h11m35s) 
CPU  0 inst:  445000004 cyc:  217210801 now IPC :2.03782: AVG IPC :2.04877: L2-Pf-HR :0.92117: L2-HR :0.91700: (Sim:2h11m55s) 
CPU  0 inst:  446000001 cyc:  217705841 now IPC :2.02003: AVG IPC :2.04870: L2-Pf-HR :0.92115: L2-HR :0.91698: (Sim:2h12m15s) 
CPU  0 inst:  447000001 cyc:  218189043 now IPC :2.06953: AVG IPC :2.04875: L2-Pf-HR :0.92114: L2-HR :0.91698: (Sim:2h12m35s) 
CPU  0 inst:  448000003 cyc:  218685367 now IPC :2.01482: AVG IPC :2.04867: L2-Pf-HR :0.92113: L2-HR :0.91697: (Sim:2h12m55s) 
CPU  0 inst:  449000004 cyc:  219172022 now IPC :2.05485: AVG IPC :2.04868: L2-Pf-HR :0.92110: L2-HR :0.91695: (Sim:2h13m15s) 
CPU  0 inst:  450000001 cyc:  219655131 now IPC :2.06992: AVG IPC :2.04873: L2-Pf-HR :0.92108: L2-HR :0.91694: (Sim:2h13m35s) 
CPU  0 inst:  451000000 cyc:  220151437 now IPC :2.01488: AVG IPC :2.04865: L2-Pf-HR :0.92108: L2-HR :0.91694: (Sim:2h13m55s) 
CPU  0 inst:  452000001 cyc:  220630254 now IPC :2.08848: AVG IPC :2.04874: L2-Pf-HR :0.92110: L2-HR :0.91696: (Sim:2h14m15s) 
CPU  0 inst:  453000003 cyc:  221125627 now IPC :2.01868: AVG IPC :2.04867: L2-Pf-HR :0.92117: L2-HR :0.91702: (Sim:2h14m35s) 
CPU  0 inst:  454000003 cyc:  221704119 now IPC :1.72863: AVG IPC :2.04783: L2-Pf-HR :0.92121: L2-HR :0.91695: (Sim:2h14m56s) 
CPU  0 inst:  455000005 cyc:  222263145 now IPC :1.78883: AVG IPC :2.04718: L2-Pf-HR :0.92117: L2-HR :0.91688: (Sim:2h15m16s) 
CPU  0 inst:  456000002 cyc:  222751123 now IPC :2.04927: AVG IPC :2.04718: L2-Pf-HR :0.92111: L2-HR :0.91684: (Sim:2h15m37s) 
CPU  0 inst:  457000000 cyc:  223215277 now IPC :2.15445: AVG IPC :2.04741: L2-Pf-HR :0.92110: L2-HR :0.91685: (Sim:2h15m57s) 
CPU  0 inst:  458000001 cyc:  223674579 now IPC :2.17722: AVG IPC :2.04768: L2-Pf-HR :0.92109: L2-HR :0.91686: (Sim:2h16m16s) 
CPU  0 inst:  459000004 cyc:  224136566 now IPC :2.16457: AVG IPC :2.04792: L2-Pf-HR :0.92109: L2-HR :0.91689: (Sim:2h16m36s) 
CPU  0 inst:  460000004 cyc:  224602588 now IPC :2.14582: AVG IPC :2.04812: L2-Pf-HR :0.92110: L2-HR :0.91691: (Sim:2h16m55s) 
CPU  0 inst:  461000004 cyc:  225063699 now IPC :2.16868: AVG IPC :2.04837: L2-Pf-HR :0.92110: L2-HR :0.91693: (Sim:2h17m14s) 
CPU  0 inst:  462000003 cyc:  225521589 now IPC :2.18393: AVG IPC :2.04865: L2-Pf-HR :0.92111: L2-HR :0.91696: (Sim:2h17m33s) 
CPU  0 inst:  463000005 cyc:  225972917 now IPC :2.21569: AVG IPC :2.04898: L2-Pf-HR :0.92112: L2-HR :0.91700: (Sim:2h17m52s) 
CPU  0 inst:  464000005 cyc:  226431141 now IPC :2.18234: AVG IPC :2.04925: L2-Pf-HR :0.92114: L2-HR :0.91703: (Sim:2h18m12s) 
CPU  0 inst:  465000005 cyc:  226893519 now IPC :2.16273: AVG IPC :2.04949: L2-Pf-HR :0.92124: L2-HR :0.91714: (Sim:2h18m31s) 
CPU  0 inst:  466000003 cyc:  227474828 now IPC :1.72025: AVG IPC :2.04864: L2-Pf-HR :0.92129: L2-HR :0.91710: (Sim:2h18m51s) 
CPU  0 inst:  467000004 cyc:  227961470 now IPC :2.05490: AVG IPC :2.04865: L2-Pf-HR :0.92122: L2-HR :0.91705: (Sim:2h19m10s) 
CPU  0 inst:  468000000 cyc:  228428798 now IPC :2.13982: AVG IPC :2.04884: L2-Pf-HR :0.92123: L2-HR :0.91707: (Sim:2h19m30s) 
CPU  0 inst:  469000001 cyc:  228891494 now IPC :2.16125: AVG IPC :2.04907: L2-Pf-HR :0.92124: L2-HR :0.91710: (Sim:2h19m49s) 
CPU  0 inst:  470000003 cyc:  229352929 now IPC :2.16716: AVG IPC :2.04931: L2-Pf-HR :0.92126: L2-HR :0.91714: (Sim:2h20m8s) 
CPU  0 inst:  471000000 cyc:  229815980 now IPC :2.15958: AVG IPC :2.04953: L2-Pf-HR :0.92127: L2-HR :0.91716: (Sim:2h20m27s) 
CPU  0 inst:  472000000 cyc:  230282859 now IPC :2.14188: AVG IPC :2.04972: L2-Pf-HR :0.92129: L2-HR :0.91720: (Sim:2h20m47s) 
CPU  0 inst:  473000004 cyc:  230743883 now IPC :2.16909: AVG IPC :2.04996: L2-Pf-HR :0.92137: L2-HR :0.91728: (Sim:2h21m6s) 
CPU  0 inst:  474000000 cyc:  231393472 now IPC :1.53943: AVG IPC :2.04852: L2-Pf-HR :0.92134: L2-HR :0.91713: (Sim:2h21m27s) 
CPU  0 inst:  475000001 cyc:  231913063 now IPC :1.92459: AVG IPC :2.04824: L2-Pf-HR :0.92123: L2-HR :0.91702: (Sim:2h21m47s) 
CPU  0 inst:  476000005 cyc:  232410695 now IPC :2.00953: AVG IPC :2.04816: L2-Pf-HR :0.92120: L2-HR :0.91700: (Sim:2h22m7s) 
CPU  0 inst:  477000004 cyc:  232907122 now IPC :2.01439: AVG IPC :2.04808: L2-Pf-HR :0.92117: L2-HR :0.91697: (Sim:2h22m27s) 
CPU  0 inst:  478000000 cyc:  233386686 now IPC :2.08522: AVG IPC :2.04816: L2-Pf-HR :0.92114: L2-HR :0.91696: (Sim:2h22m47s) 
CPU  0 inst:  479000002 cyc:  233877998 now IPC :2.03537: AVG IPC :2.04813: L2-Pf-HR :0.92111: L2-HR :0.91694: (Sim:2h23m7s) 
CPU  0 inst:  480000001 cyc:  234364208 now IPC :2.05672: AVG IPC :2.04815: L2-Pf-HR :0.92110: L2-HR :0.91694: (Sim:2h23m27s) 
CPU  0 inst:  481000003 cyc:  234844063 now IPC :2.08397: AVG IPC :2.04823: L2-Pf-HR :0.92110: L2-HR :0.91694: (Sim:2h23m47s) 
CPU  0 inst:  482000000 cyc:  235340196 now IPC :2.01558: AVG IPC :2.04816: L2-Pf-HR :0.92109: L2-HR :0.91694: (Sim:2h24m8s) 
CPU  0 inst:  483000001 cyc:  235823516 now IPC :2.06902: AVG IPC :2.04820: L2-Pf-HR :0.92109: L2-HR :0.91694: (Sim:2h24m29s) 
CPU  0 inst:  484000002 cyc:  236318884 now IPC :2.01870: AVG IPC :2.04814: L2-Pf-HR :0.92110: L2-HR :0.91695: (Sim:2h24m50s) 
CPU  0 inst:  485000002 cyc:  236813674 now IPC :2.02106: AVG IPC :2.04808: L2-Pf-HR :0.92119: L2-HR :0.91703: (Sim:2h25m10s) 
CPU  0 inst:  486000004 cyc:  237470984 now IPC :1.52136: AVG IPC :2.04662: L2-Pf-HR :0.92117: L2-HR :0.91690: (Sim:2h25m32s) 
CPU  0 inst:  487000005 cyc:  237963278 now IPC :2.03131: AVG IPC :2.04659: L2-Pf-HR :0.92108: L2-HR :0.91682: (Sim:2h25m53s) 
CPU  0 inst:  488000004 cyc:  238437601 now IPC :2.10827: AVG IPC :2.04671: L2-Pf-HR :0.92106: L2-HR :0.91682: (Sim:2h26m15s) 
CPU  0 inst:  489000001 cyc:  238901363 now IPC :2.15627: AVG IPC :2.04692: L2-Pf-HR :0.92106: L2-HR :0.91684: (Sim:2h26m35s) 
CPU  0 inst:  490000002 cyc:  239365835 now IPC :2.15298: AVG IPC :2.04713: L2-Pf-HR :0.92107: L2-HR :0.91686: (Sim:2h26m55s) 
CPU  0 inst:  491000000 cyc:  239829356 now IPC :2.15740: AVG IPC :2.04734: L2-Pf-HR :0.92108: L2-HR :0.91689: (Sim:2h27m15s) 
CPU  0 inst:  492000003 cyc:  240289132 now IPC :2.17498: AVG IPC :2.04759: L2-Pf-HR :0.92108: L2-HR :0.91691: (Sim:2h27m35s) 
CPU  0 inst:  493000002 cyc:  240751753 now IPC :2.16159: AVG IPC :2.04781: L2-Pf-HR :0.92109: L2-HR :0.91694: (Sim:2h27m55s) 
CPU  0 inst:  494000000 cyc:  241214645 now IPC :2.16033: AVG IPC :2.04802: L2-Pf-HR :0.92110: L2-HR :0.91697: (Sim:2h28m15s) 
CPU  0 inst:  495000003 cyc:  241677441 now IPC :2.16079: AVG IPC :2.04824: L2-Pf-HR :0.92112: L2-HR :0.91700: (Sim:2h28m36s) 
CPU  0 inst:  496000003 cyc:  242140742 now IPC :2.15842: AVG IPC :2.04845: L2-Pf-HR :0.92117: L2-HR :0.91706: (Sim:2h28m56s) 
CPU  0 inst:  497000004 cyc:  242598930 now IPC :2.18251: AVG IPC :2.04871: L2-Pf-HR :0.92127: L2-HR :0.91716: (Sim:2h29m16s) 
CPU  0 inst:  498000004 cyc:  243174417 now IPC :1.73766: AVG IPC :2.04797: L2-Pf-HR :0.92120: L2-HR :0.91707: (Sim:2h29m37s) 
CPU  0 inst:  499000000 cyc:  243652803 now IPC :2.09035: AVG IPC :2.04805: L2-Pf-HR :0.92118: L2-HR :0.91705: (Sim:2h29m57s) 
CPU  0 inst:  500000000 cyc:  244116431 now IPC :2.15690: AVG IPC :2.04826: L2-Pf-HR :0.92118: L2-HR :0.91707: (Sim:2h30m17s) 
CPU  0 inst:  501000004 cyc:  244579177 now IPC :2.16102: AVG IPC :2.04847: L2-Pf-HR :0.92119: L2-HR :0.91710: (Sim:2h30m37s) 
CPU  0 inst:  502000001 cyc:  245045775 now IPC :2.14317: AVG IPC :2.04865: L2-Pf-HR :0.92120: L2-HR :0.91713: (Sim:2h30m57s) 
CPU  0 inst:  503000000 cyc:  245506400 now IPC :2.17096: AVG IPC :2.04888: L2-Pf-HR :0.92122: L2-HR :0.91716: (Sim:2h31m17s) 
CPU  0 inst:  504000003 cyc:  245970584 now IPC :2.15432: AVG IPC :2.04908: L2-Pf-HR :0.92125: L2-HR :0.91720: (Sim:2h31m37s) 
CPU  0 inst:  505000004 cyc:  246439718 now IPC :2.13159: AVG IPC :2.04924: L2-Pf-HR :0.92136: L2-HR :0.91731: (Sim:2h31m57s) 
CPU  0 inst:  506000004 cyc:  250741260 now IPC :0.23247: AVG IPC :2.01795: L2-Pf-HR :0.91843: L2-HR :0.91234: (Sim:2h32m49s) 
CPU  0 inst:  507000003 cyc:  255759457 now IPC :0.19927: AVG IPC :1.98213: L2-Pf-HR :0.91499: L2-HR :0.90688: (Sim:2h33m48s) 
CPU  0 inst:  508000002 cyc:  260889079 now IPC :0.19495: AVG IPC :1.94686: L2-Pf-HR :0.91159: L2-HR :0.90155: (Sim:2h34m49s) 
CPU  0 inst:  509000001 cyc:  266006535 now IPC :0.19541: AVG IPC :1.91304: L2-Pf-HR :0.90819: L2-HR :0.89639: (Sim:2h35m49s) 
CPU  0 inst:  510000000 cyc:  271131308 now IPC :0.19513: AVG IPC :1.88045: L2-Pf-HR :0.90483: L2-HR :0.89138: (Sim:2h36m49s) 
CPU  0 inst:  511000002 cyc:  276256348 now IPC :0.19512: AVG IPC :1.84907: L2-Pf-HR :0.90154: L2-HR :0.88649: (Sim:2h37m50s) 
CPU  0 inst:  512000002 cyc:  281382622 now IPC :0.19507: AVG IPC :1.81883: L2-Pf-HR :0.89827: L2-HR :0.88174: (Sim:2h38m51s) 
CPU  0 inst:  513000001 cyc:  286505718 now IPC :0.19519: AVG IPC :1.78970: L2-Pf-HR :0.89503: L2-HR :0.87711: (Sim:2h39m51s) 
CPU  0 inst:  514000005 cyc:  291630451 now IPC :0.19513: AVG IPC :1.76159: L2-Pf-HR :0.89184: L2-HR :0.87261: (Sim:2h40m52s) 
CPU  0 inst:  515000001 cyc:  295918319 now IPC :0.23322: AVG IPC :1.73937: L2-Pf-HR :0.88976: L2-HR :0.86978: (Sim:2h41m42s) 
CPU  0 inst:  516000004 cyc:  299158093 now IPC :0.30866: AVG IPC :1.72382: L2-Pf-HR :0.88920: L2-HR :0.86909: (Sim:2h42m22s) 
CPU  0 inst:  517000004 cyc:  302397780 now IPC :0.30867: AVG IPC :1.70861: L2-Pf-HR :0.88864: L2-HR :0.86840: (Sim:2h43m2s) 
CPU  0 inst:  518000000 cyc:  305644597 now IPC :0.30799: AVG IPC :1.69368: L2-Pf-HR :0.88808: L2-HR :0.86772: (Sim:2h43m43s) 
CPU  0 inst:  519000003 cyc:  308889594 now IPC :0.30817: AVG IPC :1.67908: L2-Pf-HR :0.88753: L2-HR :0.86704: (Sim:2h44m23s) 
CPU  0 inst:  520000002 cyc:  312128582 now IPC :0.30874: AVG IPC :1.66482: L2-Pf-HR :0.88697: L2-HR :0.86637: (Sim:2h45m3s) 
CPU  0 inst:  521000000 cyc:  315375736 now IPC :0.30796: AVG IPC :1.65080: L2-Pf-HR :0.88641: L2-HR :0.86569: (Sim:2h45m43s) 
CPU  0 inst:  522000005 cyc:  318618621 now IPC :0.30837: AVG IPC :1.63710: L2-Pf-HR :0.88586: L2-HR :0.86502: (Sim:2h46m23s) 
CPU  0 inst:  523000005 cyc:  321861873 now IPC :0.30833: AVG IPC :1.62367: L2-Pf-HR :0.88530: L2-HR :0.86434: (Sim:2h47m3s) 
CPU  0 inst:  524000002 cyc:  325102609 now IPC :0.30857: AVG IPC :1.61052: L2-Pf-HR :0.88473: L2-HR :0.86367: (Sim:2h47m43s) 
CPU  0 inst:  525000000 cyc:  328340770 now IPC :0.30882: AVG IPC :1.59764: L2-Pf-HR :0.88417: L2-HR :0.86300: (Sim:2h48m24s) 
CPU  0 inst:  526000000 cyc:  331579342 now IPC :0.30878: AVG IPC :1.58502: L2-Pf-HR :0.88361: L2-HR :0.86233: (Sim:2h49m3s) 
CPU  0 inst:  527000000 cyc:  334817271 now IPC :0.30884: AVG IPC :1.57264: L2-Pf-HR :0.88305: L2-HR :0.86167: (Sim:2h49m43s) 
CPU  0 inst:  528000002 cyc:  338056642 now IPC :0.30870: AVG IPC :1.56049: L2-Pf-HR :0.88250: L2-HR :0.86100: (Sim:2h50m23s) 
CPU  0 inst:  529000000 cyc:  341295803 now IPC :0.30872: AVG IPC :1.54858: L2-Pf-HR :0.88193: L2-HR :0.86034: (Sim:2h51m3s) 
CPU  0 inst:  530000001 cyc:  344534181 now IPC :0.30880: AVG IPC :1.53689: L2-Pf-HR :0.88138: L2-HR :0.85968: (Sim:2h51m43s) 
CPU  0 inst:  531000000 cyc:  347769933 now IPC :0.30905: AVG IPC :1.52543: L2-Pf-HR :0.88082: L2-HR :0.85903: (Sim:2h52m23s) 
CPU  0 inst:  532000002 cyc:  351006603 now IPC :0.30896: AVG IPC :1.51418: L2-Pf-HR :0.88027: L2-HR :0.85838: (Sim:2h53m3s) 
CPU  0 inst:  533000004 cyc:  354241859 now IPC :0.30910: AVG IPC :1.50315: L2-Pf-HR :0.87972: L2-HR :0.85773: (Sim:2h53m43s) 
CPU  0 inst:  534000004 cyc:  357477898 now IPC :0.30902: AVG IPC :1.49231: L2-Pf-HR :0.87917: L2-HR :0.85708: (Sim:2h54m22s) 
CPU  0 inst:  535000000 cyc:  360714142 now IPC :0.30900: AVG IPC :1.48166: L2-Pf-HR :0.87862: L2-HR :0.85644: (Sim:2h55m2s) 
CPU  0 inst:  536000005 cyc:  363952207 now IPC :0.30883: AVG IPC :1.47120: L2-Pf-HR :0.87808: L2-HR :0.85580: (Sim:2h55m42s) 
CPU  0 inst:  537000005 cyc:  367189723 now IPC :0.30888: AVG IPC :1.46092: L2-Pf-HR :0.87754: L2-HR :0.85516: (Sim:2h56m22s) 
CPU  0 inst:  538000004 cyc:  370428736 now IPC :0.30874: AVG IPC :1.45082: L2-Pf-HR :0.87700: L2-HR :0.85452: (Sim:2h57m2s) 
CPU  0 inst:  539000000 cyc:  373664615 now IPC :0.30903: AVG IPC :1.44091: L2-Pf-HR :0.87645: L2-HR :0.85389: (Sim:2h57m42s) 
CPU  0 inst:  540000003 cyc:  376900716 now IPC :0.30901: AVG IPC :1.43116: L2-Pf-HR :0.87592: L2-HR :0.85325: (Sim:2h58m22s) 
CPU  0 inst:  541000002 cyc:  380136506 now IPC :0.30904: AVG IPC :1.42159: L2-Pf-HR :0.87538: L2-HR :0.85262: (Sim:2h59m2s) 
CPU  0 inst:  542000000 cyc:  383373680 now IPC :0.30891: AVG IPC :1.41217: L2-Pf-HR :0.87483: L2-HR :0.85199: (Sim:2h59m42s) 
CPU  0 inst:  543000000 cyc:  386609277 now IPC :0.30906: AVG IPC :1.40291: L2-Pf-HR :0.87429: L2-HR :0.85136: (Sim:3h0m22s) 
CPU  0 inst:  544000002 cyc:  389850645 now IPC :0.30851: AVG IPC :1.39379: L2-Pf-HR :0.87375: L2-HR :0.85073: (Sim:3h1m2s) 
CPU  0 inst:  545000001 cyc:  393088423 now IPC :0.30885: AVG IPC :1.38483: L2-Pf-HR :0.87322: L2-HR :0.85012: (Sim:3h1m41s) 
CPU  0 inst:  546000000 cyc:  396328006 now IPC :0.30868: AVG IPC :1.37601: L2-Pf-HR :0.87269: L2-HR :0.84950: (Sim:3h2m21s) 
CPU  0 inst:  547000000 cyc:  399564748 now IPC :0.30895: AVG IPC :1.36735: L2-Pf-HR :0.87217: L2-HR :0.84888: (Sim:3h3m0s) 
CPU  0 inst:  548000000 cyc:  402800257 now IPC :0.30907: AVG IPC :1.35883: L2-Pf-HR :0.87163: L2-HR :0.84826: (Sim:3h3m38s) 
CPU  0 inst:  549000002 cyc:  406038207 now IPC :0.30884: AVG IPC :1.35043: L2-Pf-HR :0.87110: L2-HR :0.84765: (Sim:3h4m16s) 
CPU  0 inst:  550000004 cyc:  409274855 now IPC :0.30896: AVG IPC :1.34218: L2-Pf-HR :0.87057: L2-HR :0.84703: (Sim:3h4m54s) 
CPU  0 inst:  551000002 cyc:  412511150 now IPC :0.30899: AVG IPC :1.33405: L2-Pf-HR :0.87003: L2-HR :0.84642: (Sim:3h5m33s) 
CPU  0 inst:  552000004 cyc:  415751189 now IPC :0.30864: AVG IPC :1.32604: L2-Pf-HR :0.86950: L2-HR :0.84580: (Sim:3h6m11s) 
CPU  0 inst:  553000000 cyc:  418988933 now IPC :0.30886: AVG IPC :1.31816: L2-Pf-HR :0.86898: L2-HR :0.84519: (Sim:3h6m49s) 
CPU  0 inst:  554000004 cyc:  422223869 now IPC :0.30913: AVG IPC :1.31041: L2-Pf-HR :0.86845: L2-HR :0.84459: (Sim:3h7m27s) 
CPU  0 inst:  555000004 cyc:  425459709 now IPC :0.30904: AVG IPC :1.30278: L2-Pf-HR :0.86792: L2-HR :0.84398: (Sim:3h8m6s) 
CPU  0 inst:  556000000 cyc:  428696499 now IPC :0.30895: AVG IPC :1.29526: L2-Pf-HR :0.86740: L2-HR :0.84338: (Sim:3h8m44s) 
CPU  0 inst:  557000003 cyc:  431932884 now IPC :0.30899: AVG IPC :1.28785: L2-Pf-HR :0.86687: L2-HR :0.84278: (Sim:3h9m4s) 
CPU  0 inst:  558000002 cyc:  435170824 now IPC :0.30884: AVG IPC :1.28055: L2-Pf-HR :0.86634: L2-HR :0.84218: (Sim:3h9m21s) 
CPU  0 inst:  559000001 cyc:  438410690 now IPC :0.30865: AVG IPC :1.27335: L2-Pf-HR :0.86584: L2-HR :0.84159: (Sim:3h9m38s) 
CPU  0 inst:  560000001 cyc:  441649004 now IPC :0.30880: AVG IPC :1.26627: L2-Pf-HR :0.86533: L2-HR :0.84100: (Sim:3h9m55s) 
CPU  0 inst:  561000003 cyc:  444885125 now IPC :0.30901: AVG IPC :1.25929: L2-Pf-HR :0.86481: L2-HR :0.84041: (Sim:3h10m12s) 
CPU  0 inst:  562000002 cyc:  448122626 now IPC :0.30888: AVG IPC :1.25241: L2-Pf-HR :0.86429: L2-HR :0.83981: (Sim:3h10m29s) 
CPU  0 inst:  563000000 cyc:  451358386 now IPC :0.30905: AVG IPC :1.24563: L2-Pf-HR :0.86377: L2-HR :0.83922: (Sim:3h10m46s) 
CPU  0 inst:  564000000 cyc:  454595983 now IPC :0.30887: AVG IPC :1.23894: L2-Pf-HR :0.86325: L2-HR :0.83863: (Sim:3h11m3s) 
CPU  0 inst:  565000000 cyc:  457831711 now IPC :0.30905: AVG IPC :1.23236: L2-Pf-HR :0.86274: L2-HR :0.83805: (Sim:3h11m20s) 
CPU  0 inst:  566000001 cyc:  461069076 now IPC :0.30889: AVG IPC :1.22586: L2-Pf-HR :0.86223: L2-HR :0.83747: (Sim:3h11m37s) 
CPU  0 inst:  567000005 cyc:  464306846 now IPC :0.30886: AVG IPC :1.21945: L2-Pf-HR :0.86173: L2-HR :0.83689: (Sim:3h11m54s) 
CPU  0 inst:  568000000 cyc:  467546631 now IPC :0.30866: AVG IPC :1.21313: L2-Pf-HR :0.86122: L2-HR :0.83631: (Sim:3h12m11s) 
CPU  0 inst:  569000000 cyc:  470788610 now IPC :0.30845: AVG IPC :1.20688: L2-Pf-HR :0.86071: L2-HR :0.83573: (Sim:3h12m28s) 
CPU  0 inst:  570000002 cyc:  474024292 now IPC :0.30905: AVG IPC :1.20074: L2-Pf-HR :0.86019: L2-HR :0.83515: (Sim:3h12m45s) 
CPU  0 inst:  571000004 cyc:  477259709 now IPC :0.30908: AVG IPC :1.19468: L2-Pf-HR :0.85968: L2-HR :0.83457: (Sim:3h13m2s) 
CPU  0 inst:  572000004 cyc:  480494963 now IPC :0.30909: AVG IPC :1.18871: L2-Pf-HR :0.85917: L2-HR :0.83400: (Sim:3h13m19s) 
CPU  0 inst:  573000000 cyc:  483733681 now IPC :0.30876: AVG IPC :1.18281: L2-Pf-HR :0.85866: L2-HR :0.83343: (Sim:3h13m36s) 
CPU  0 inst:  574000000 cyc:  486970981 now IPC :0.30890: AVG IPC :1.17698: L2-Pf-HR :0.85816: L2-HR :0.83286: (Sim:3h13m53s) 
CPU  0 inst:  575000001 cyc:  490208741 now IPC :0.30886: AVG IPC :1.17124: L2-Pf-HR :0.85766: L2-HR :0.83229: (Sim:3h14m10s) 
CPU  0 inst:  576000004 cyc:  493444774 now IPC :0.30902: AVG IPC :1.16557: L2-Pf-HR :0.85716: L2-HR :0.83173: (Sim:3h14m27s) 
CPU  0 inst:  577000000 cyc:  496683820 now IPC :0.30873: AVG IPC :1.15997: L2-Pf-HR :0.85666: L2-HR :0.83116: (Sim:3h14m45s) 
CPU  0 inst:  578000003 cyc:  499923956 now IPC :0.30863: AVG IPC :1.15445: L2-Pf-HR :0.85615: L2-HR :0.83060: (Sim:3h15m2s) 
CPU  0 inst:  579000002 cyc:  503159848 now IPC :0.30903: AVG IPC :1.14900: L2-Pf-HR :0.85566: L2-HR :0.83004: (Sim:3h15m19s) 
CPU  0 inst:  580000000 cyc:  506396655 now IPC :0.30895: AVG IPC :1.14362: L2-Pf-HR :0.85517: L2-HR :0.82949: (Sim:3h15m36s) 
CPU  0 inst:  581000000 cyc:  509633695 now IPC :0.30892: AVG IPC :1.13831: L2-Pf-HR :0.85467: L2-HR :0.82893: (Sim:3h15m54s) 
CPU  0 inst:  582000005 cyc:  512871925 now IPC :0.30881: AVG IPC :1.13306: L2-Pf-HR :0.85417: L2-HR :0.82838: (Sim:3h16m11s) 
CPU  0 inst:  583000002 cyc:  516108291 now IPC :0.30899: AVG IPC :1.12788: L2-Pf-HR :0.85368: L2-HR :0.82782: (Sim:3h16m28s) 
CPU  0 inst:  584000000 cyc:  519343913 now IPC :0.30906: AVG IPC :1.12277: L2-Pf-HR :0.85319: L2-HR :0.82727: (Sim:3h16m45s) 
CPU  0 inst:  585000000 cyc:  522581337 now IPC :0.30889: AVG IPC :1.11772: L2-Pf-HR :0.85270: L2-HR :0.82672: (Sim:3h17m2s) 
CPU  0 inst:  586000000 cyc:  525816053 now IPC :0.30915: AVG IPC :1.11274: L2-Pf-HR :0.85221: L2-HR :0.82617: (Sim:3h17m35s) 
CPU  0 inst:  587000002 cyc:  529051426 now IPC :0.30908: AVG IPC :1.10781: L2-Pf-HR :0.85172: L2-HR :0.82563: (Sim:3h18m14s) 
CPU  0 inst:  588000004 cyc:  532286519 now IPC :0.30911: AVG IPC :1.10295: L2-Pf-HR :0.85122: L2-HR :0.82508: (Sim:3h18m52s) 
CPU  0 inst:  589000002 cyc:  535524234 now IPC :0.30886: AVG IPC :1.09814: L2-Pf-HR :0.85073: L2-HR :0.82453: (Sim:3h19m30s) 
CPU  0 inst:  590000001 cyc:  538763124 now IPC :0.30875: AVG IPC :1.09338: L2-Pf-HR :0.85025: L2-HR :0.82399: (Sim:3h20m9s) 
CPU  0 inst:  591000002 cyc:  542001382 now IPC :0.30881: AVG IPC :1.08869: L2-Pf-HR :0.84976: L2-HR :0.82345: (Sim:3h20m47s) 
CPU  0 inst:  592000004 cyc:  545240373 now IPC :0.30874: AVG IPC :1.08405: L2-Pf-HR :0.84928: L2-HR :0.82291: (Sim:3h21m25s) 
CPU  0 inst:  593000004 cyc:  548476619 now IPC :0.30900: AVG IPC :1.07946: L2-Pf-HR :0.84879: L2-HR :0.82237: (Sim:3h22m4s) 
CPU  0 inst:  594000000 cyc:  551712772 now IPC :0.30901: AVG IPC :1.07494: L2-Pf-HR :0.84832: L2-HR :0.82184: (Sim:3h22m42s) 
CPU  0 inst:  595000003 cyc:  554947484 now IPC :0.30915: AVG IPC :1.07047: L2-Pf-HR :0.84783: L2-HR :0.82130: (Sim:3h23m20s) 
CPU  0 inst:  596000002 cyc:  558183833 now IPC :0.30899: AVG IPC :1.06604: L2-Pf-HR :0.84734: L2-HR :0.82076: (Sim:3h23m58s) 
CPU  0 inst:  597000003 cyc:  561421428 now IPC :0.30887: AVG IPC :1.06167: L2-Pf-HR :0.84685: L2-HR :0.82023: (Sim:3h24m36s) 
CPU  0 inst:  598000000 cyc:  564657677 now IPC :0.30900: AVG IPC :1.05735: L2-Pf-HR :0.84636: L2-HR :0.81970: (Sim:3h25m14s) 
CPU  0 inst:  599000003 cyc:  567894076 now IPC :0.30899: AVG IPC :1.05308: L2-Pf-HR :0.84588: L2-HR :0.81916: (Sim:3h25m53s) 
CPU  0 inst:  600000002 cyc:  571131895 now IPC :0.30885: AVG IPC :1.04885: L2-Pf-HR :0.84540: L2-HR :0.81863: (Sim:3h26m31s) 
CPU  0 inst:  601000000 cyc:  574367012 now IPC :0.30911: AVG IPC :1.04468: L2-Pf-HR :0.84492: L2-HR :0.81810: (Sim:3h27m9s) 
CPU  0 inst:  602000000 cyc:  577603944 now IPC :0.30893: AVG IPC :1.04055: L2-Pf-HR :0.84444: L2-HR :0.81757: (Sim:3h27m48s) 
CPU  0 inst:  603000001 cyc:  580838993 now IPC :0.30911: AVG IPC :1.03646: L2-Pf-HR :0.84396: L2-HR :0.81705: (Sim:3h28m26s) 
CPU  0 inst:  604000005 cyc:  584078127 now IPC :0.30873: AVG IPC :1.03242: L2-Pf-HR :0.84349: L2-HR :0.81653: (Sim:3h29m4s) 
CPU  0 inst:  605000001 cyc:  587318800 now IPC :0.30858: AVG IPC :1.02842: L2-Pf-HR :0.84301: L2-HR :0.81601: (Sim:3h29m42s) 
CPU  0 inst:  606000000 cyc:  590555259 now IPC :0.30898: AVG IPC :1.02447: L2-Pf-HR :0.84253: L2-HR :0.81549: (Sim:3h30m19s) 
CPU  0 inst:  607000000 cyc:  593792985 now IPC :0.30886: AVG IPC :1.02056: L2-Pf-HR :0.84206: L2-HR :0.81497: (Sim:3h30m56s) 
CPU  0 inst:  608000002 cyc:  597029587 now IPC :0.30897: AVG IPC :1.01670: L2-Pf-HR :0.84160: L2-HR :0.81447: (Sim:3h31m33s) 
CPU  0 inst:  609000004 cyc:  600266347 now IPC :0.30895: AVG IPC :1.01288: L2-Pf-HR :0.84113: L2-HR :0.81395: (Sim:3h32m11s) 
CPU  0 inst:  610000004 cyc:  603502052 now IPC :0.30905: AVG IPC :1.00910: L2-Pf-HR :0.84065: L2-HR :0.81343: (Sim:3h32m50s) 
CPU  0 inst:  611000001 cyc:  606740047 now IPC :0.30883: AVG IPC :1.00535: L2-Pf-HR :0.84018: L2-HR :0.81292: (Sim:3h33m28s) 
CPU  0 inst:  612000001 cyc:  609978550 now IPC :0.30878: AVG IPC :1.00165: L2-Pf-HR :0.83971: L2-HR :0.81241: (Sim:3h34m6s) 
CPU  0 inst:  613000004 cyc:  613215785 now IPC :0.30891: AVG IPC :0.99799: L2-Pf-HR :0.83924: L2-HR :0.81190: (Sim:3h34m44s) 
CPU  0 inst:  614000004 cyc:  616454791 now IPC :0.30874: AVG IPC :0.99436: L2-Pf-HR :0.83877: L2-HR :0.81139: (Sim:3h35m23s) 
CPU  0 inst:  615000000 cyc:  619691290 now IPC :0.30897: AVG IPC :0.99077: L2-Pf-HR :0.83829: L2-HR :0.81088: (Sim:3h35m43s) 
CPU  0 inst:  616000003 cyc:  622929402 now IPC :0.30882: AVG IPC :0.98722: L2-Pf-HR :0.83783: L2-HR :0.81038: (Sim:3h36m1s) 
CPU  0 inst:  617000002 cyc:  626166548 now IPC :0.30891: AVG IPC :0.98371: L2-Pf-HR :0.83737: L2-HR :0.80988: (Sim:3h36m18s) 
CPU  0 inst:  618000000 cyc:  629401831 now IPC :0.30909: AVG IPC :0.98024: L2-Pf-HR :0.83691: L2-HR :0.80938: (Sim:3h36m35s) 
CPU  0 inst:  619000005 cyc:  632639954 now IPC :0.30882: AVG IPC :0.97680: L2-Pf-HR :0.83646: L2-HR :0.80888: (Sim:3h36m52s) 
CPU  0 inst:  620000005 cyc:  635881894 now IPC :0.30846: AVG IPC :0.97338: L2-Pf-HR :0.83600: L2-HR :0.80839: (Sim:3h37m10s) 
CPU  0 inst:  621000002 cyc:  639117943 now IPC :0.30902: AVG IPC :0.97001: L2-Pf-HR :0.83554: L2-HR :0.80789: (Sim:3h37m27s) 
CPU  0 inst:  622000000 cyc:  642353928 now IPC :0.30902: AVG IPC :0.96668: L2-Pf-HR :0.83508: L2-HR :0.80739: (Sim:3h37m45s) 
CPU  0 inst:  623000000 cyc:  645590624 now IPC :0.30896: AVG IPC :0.96338: L2-Pf-HR :0.83463: L2-HR :0.80690: (Sim:3h38m3s) 
CPU  0 inst:  624000000 cyc:  648826843 now IPC :0.30900: AVG IPC :0.96011: L2-Pf-HR :0.83417: L2-HR :0.80642: (Sim:3h38m20s) 
CPU  0 inst:  625000002 cyc:  652065121 now IPC :0.30881: AVG IPC :0.95687: L2-Pf-HR :0.83372: L2-HR :0.80592: (Sim:3h38m38s) 
CPU  0 inst:  626000000 cyc:  655300986 now IPC :0.30904: AVG IPC :0.95366: L2-Pf-HR :0.83326: L2-HR :0.80543: (Sim:3h38m55s) 
CPU  0 inst:  627000001 cyc:  658540414 now IPC :0.30870: AVG IPC :0.95049: L2-Pf-HR :0.83280: L2-HR :0.80494: (Sim:3h39m12s) 
[...]
dab-> Hits: 3, Late: 0, Early: 0, Misses: 0
dac-> Hits: 10, Late: 0, Early: 0, Misses: 0
dad-> Hits: 13, Late: 0, Early: 0, Misses: 0
dae-> Hits: 1, Late: 0, Early: 0, Misses: 0
daf-> Hits: 3, Late: 0, Early: 0, Misses: 0
db0-> Hits: 7, Late: 4, Early: 0, Misses: 0
db1-> Hits: 54, Late: 10144, Early: 0, Misses: 0
db3-> Hits: 2, Late: 0, Early: 0, Misses: 0
db4-> Hits: 1, Late: 0, Early: 0, Misses: 0
db5-> Hits: 3, Late: 0, Early: 0, Misses: 0
db7-> Hits: 3, Late: 0, Early: 0, Misses: 0
db8-> Hits: 3, Late: 0, Early: 0, Misses: 0
db9-> Hits: 2, Late: 0, Early: 0, Misses: 0
dba-> Hits: 2, Late: 26, Early: 0, Misses: 0
dbb-> Hits: 2, Late: 0, Early: 0, Misses: 0
dbc-> Hits: 1, Late: 0, Early: 0, Misses: 0
dbd-> Hits: 1, Late: 0, Early: 0, Misses: 0
dbe-> Hits: 5, Late: 0, Early: 0, Misses: 0
dbf-> Hits: 8, Late: 0, Early: 0, Misses: 0
dc0-> Hits: 18, Late: 6, Early: 0, Misses: 0
dc1-> Hits: 34, Late: 4065, Early: 0, Misses: 0
dc2-> Hits: 3, Late: 2, Early: 0, Misses: 0
dc3-> Hits: 4, Late: 0, Early: 0, Misses: 0
dc7-> Hits: 11, Late: 1, Early: 0, Misses: 0
dc8-> Hits: 3, Late: 1, Early: 0, Misses: 0
dca-> Hits: 3, Late: 0, Early: 0, Misses: 0
dcb-> Hits: 6, Late: 0, Early: 0, Misses: 0
dcc-> Hits: 37, Late: 2, Early: 0, Misses: 0
dcd-> Hits: 36, Late: 0, Early: 0, Misses: 0
dcf-> Hits: 31, Late: 0, Early: 0, Misses: 0
dd1-> Hits: 90, Late: 6090, Early: 0, Misses: 0
dd2-> Hits: 1, Late: 3, Early: 0, Misses: 0
dd3-> Hits: 34, Late: 0, Early: 0, Misses: 0
dd5-> Hits: 2, Late: 0, Early: 0, Misses: 0
dd6-> Hits: 4, Late: 0, Early: 0, Misses: 0
dd8-> Hits: 38, Late: 0, Early: 0, Misses: 0
dd9-> Hits: 31, Late: 0, Early: 0, Misses: 0
dda-> Hits: 4, Late: 79, Early: 0, Misses: 0
ddc-> Hits: 5, Late: 0, Early: 0, Misses: 0
dde-> Hits: 4, Late: 0, Early: 0, Misses: 0
ddf-> Hits: 4, Late: 0, Early: 0, Misses: 0
de0-> Hits: 3, Late: 0, Early: 0, Misses: 0
de2-> Hits: 2, Late: 0, Early: 0, Misses: 0
de3-> Hits: 4, Late: 2, Early: 0, Misses: 0
de4-> Hits: 2, Late: 0, Early: 0, Misses: 0
de7-> Hits: 1, Late: 0, Early: 0, Misses: 0
de9-> Hits: 1, Late: 0, Early: 0, Misses: 0
deb-> Hits: 1, Late: 0, Early: 0, Misses: 0
dec-> Hits: 1, Late: 0, Early: 0, Misses: 0
ded-> Hits: 5, Late: 0, Early: 0, Misses: 0
dee-> Hits: 10, Late: 26, Early: 0, Misses: 0
def-> Hits: 5, Late: 0, Early: 0, Misses: 0
df0-> Hits: 1, Late: 0, Early: 0, Misses: 0
df1-> Hits: 17, Late: 0, Early: 0, Misses: 0
df2-> Hits: 3, Late: 0, Early: 0, Misses: 0
df3-> Hits: 6, Late: 0, Early: 0, Misses: 0
df4-> Hits: 1, Late: 0, Early: 0, Misses: 0
df5-> Hits: 6, Late: 0, Early: 0, Misses: 0
df7-> Hits: 7, Late: 0, Early: 0, Misses: 0
df8-> Hits: 0, Late: 1, Early: 0, Misses: 0
df9-> Hits: 2, Late: 0, Early: 0, Misses: 0
dfb-> Hits: 1, Late: 0, Early: 0, Misses: 0
dfd-> Hits: 3, Late: 0, Early: 0, Misses: 0
e00-> Hits: 17, Late: 0, Early: 0, Misses: 0
e01-> Hits: 2, Late: 0, Early: 0, Misses: 0
e02-> Hits: 4, Late: 0, Early: 0, Misses: 0
e03-> Hits: 1, Late: 0, Early: 0, Misses: 0
e05-> Hits: 2, Late: 2, Early: 0, Misses: 0
e06-> Hits: 18, Late: 22, Early: 0, Misses: 0
e07-> Hits: 0, Late: 31, Early: 0, Misses: 0
e0f-> Hits: 2, Late: 31, Early: 0, Misses: 0
e10-> Hits: 2, Late: 0, Early: 0, Misses: 0
e12-> Hits: 6, Late: 0, Early: 0, Misses: 0
e13-> Hits: 7, Late: 0, Early: 0, Misses: 0
e14-> Hits: 2, Late: 0, Early: 0, Misses: 0
e15-> Hits: 2, Late: 0, Early: 0, Misses: 0
e16-> Hits: 2, Late: 0, Early: 0, Misses: 0
e17-> Hits: 1, Late: 0, Early: 0, Misses: 0
e18-> Hits: 4, Late: 0, Early: 0, Misses: 0
e19-> Hits: 114, Late: 221, Early: 0, Misses: 0
e1a-> Hits: 2, Late: 0, Early: 0, Misses: 0
e1b-> Hits: 32, Late: 301, Early: 0, Misses: 0
e1c-> Hits: 5, Late: 0, Early: 0, Misses: 0
e1d-> Hits: 0, Late: 3, Early: 0, Misses: 0
e1e-> Hits: 15, Late: 318, Early: 0, Misses: 0
e20-> Hits: 12, Late: 4, Early: 0, Misses: 0
e22-> Hits: 3, Late: 0, Early: 0, Misses: 0
e23-> Hits: 5, Late: 333, Early: 0, Misses: 0
e25-> Hits: 1, Late: 0, Early: 0, Misses: 0
e26-> Hits: 2, Late: 0, Early: 0, Misses: 0
e27-> Hits: 1, Late: 0, Early: 0, Misses: 0
e28-> Hits: 8, Late: 333, Early: 0, Misses: 0
e29-> Hits: 33, Late: 300, Early: 0, Misses: 0
e2a-> Hits: 2, Late: 1, Early: 0, Misses: 0
e2c-> Hits: 1, Late: 333, Early: 0, Misses: 0
e2d-> Hits: 2, Late: 0, Early: 0, Misses: 0
e2f-> Hits: 2, Late: 0, Early: 0, Misses: 0
e30-> Hits: 16, Late: 0, Early: 0, Misses: 0
e31-> Hits: 0, Late: 333, Early: 0, Misses: 0
e33-> Hits: 3, Late: 0, Early: 0, Misses: 0
e34-> Hits: 1, Late: 0, Early: 0, Misses: 0
e35-> Hits: 16, Late: 0, Early: 0, Misses: 0
e36-> Hits: 2, Late: 0, Early: 0, Misses: 0
e38-> Hits: 1, Late: 0, Early: 0, Misses: 0
e39-> Hits: 5, Late: 329, Early: 0, Misses: 0
e3a-> Hits: 1, Late: 0, Early: 0, Misses: 0
e3b-> Hits: 0, Late: 1, Early: 0, Misses: 0
e3c-> Hits: 6, Late: 1, Early: 0, Misses: 0
e3d-> Hits: 13, Late: 5, Early: 0, Misses: 0
e3e-> Hits: 2, Late: 0, Early: 0, Misses: 0
e3f-> Hits: 1, Late: 0, Early: 0, Misses: 0
e40-> Hits: 6, Late: 1, Early: 0, Misses: 0
e41-> Hits: 7, Late: 552, Early: 0, Misses: 0
e42-> Hits: 2, Late: 0, Early: 0, Misses: 0
e44-> Hits: 3, Late: 0, Early: 0, Misses: 0
e45-> Hits: 1, Late: 1, Early: 0, Misses: 0
e47-> Hits: 2, Late: 0, Early: 0, Misses: 0
e48-> Hits: 3, Late: 0, Early: 0, Misses: 0
e49-> Hits: 3, Late: 330, Early: 0, Misses: 0
e4a-> Hits: 1, Late: 0, Early: 0, Misses: 0
e4c-> Hits: 0, Late: 1, Early: 0, Misses: 0
e4d-> Hits: 2, Late: 0, Early: 0, Misses: 0
e4f-> Hits: 2, Late: 0, Early: 0, Misses: 0
e50-> Hits: 0, Late: 3, Early: 0, Misses: 0
e51-> Hits: 2, Late: 0, Early: 0, Misses: 0
e54-> Hits: 1, Late: 0, Early: 0, Misses: 0
e55-> Hits: 3, Late: 0, Early: 0, Misses: 0
e57-> Hits: 8, Late: 0, Early: 0, Misses: 0
e58-> Hits: 2, Late: 0, Early: 0, Misses: 0
e59-> Hits: 20, Late: 0, Early: 0, Misses: 0
e5a-> Hits: 22, Late: 0, Early: 0, Misses: 0
e5b-> Hits: 22, Late: 0, Early: 0, Misses: 0
e5c-> Hits: 2, Late: 0, Early: 0, Misses: 0
e5d-> Hits: 20, Late: 0, Early: 0, Misses: 0
e5e-> Hits: 7, Late: 0, Early: 0, Misses: 0
e5f-> Hits: 20, Late: 0, Early: 0, Misses: 0
e60-> Hits: 6, Late: 2, Early: 0, Misses: 0
e61-> Hits: 22, Late: 0, Early: 0, Misses: 0
e62-> Hits: 2, Late: 0, Early: 0, Misses: 0
e63-> Hits: 26, Late: 0, Early: 0, Misses: 0
e64-> Hits: 0, Late: 1, Early: 0, Misses: 0
e65-> Hits: 6, Late: 0, Early: 0, Misses: 0
e68-> Hits: 2, Late: 0, Early: 0, Misses: 0
e6b-> Hits: 1, Late: 0, Early: 0, Misses: 0
e6c-> Hits: 1, Late: 0, Early: 0, Misses: 0
e6f-> Hits: 2, Late: 0, Early: 0, Misses: 0
e70-> Hits: 4, Late: 1, Early: 0, Misses: 1
e71-> Hits: 6, Late: 0, Early: 0, Misses: 0
e72-> Hits: 38, Late: 0, Early: 0, Misses: 0
e73-> Hits: 2, Late: 0, Early: 0, Misses: 0
e74-> Hits: 5, Late: 0, Early: 0, Misses: 0
e75-> Hits: 5, Late: 1, Early: 0, Misses: 0
e76-> Hits: 6, Late: 0, Early: 0, Misses: 0
e77-> Hits: 1, Late: 0, Early: 0, Misses: 0
e79-> Hits: 2, Late: 0, Early: 0, Misses: 0
e7a-> Hits: 1, Late: 0, Early: 0, Misses: 0
e7b-> Hits: 1, Late: 0, Early: 0, Misses: 0
e7d-> Hits: 31, Late: 0, Early: 0, Misses: 0
e7e-> Hits: 0, Late: 31, Early: 0, Misses: 0
e7f-> Hits: 34, Late: 0, Early: 0, Misses: 0
e80-> Hits: 1, Late: 0, Early: 0, Misses: 0
e81-> Hits: 37, Late: 0, Early: 0, Misses: 0
e82-> Hits: 3, Late: 0, Early: 0, Misses: 0
e83-> Hits: 33, Late: 0, Early: 0, Misses: 0
e84-> Hits: 105, Late: 219, Early: 0, Misses: 0
e85-> Hits: 31, Late: 0, Early: 0, Misses: 0
e86-> Hits: 2, Late: 0, Early: 0, Misses: 0
e87-> Hits: 31, Late: 0, Early: 0, Misses: 0
e88-> Hits: 335, Late: 0, Early: 0, Misses: 0
e8a-> Hits: 2, Late: 1, Early: 0, Misses: 0
e8b-> Hits: 2, Late: 0, Early: 0, Misses: 0
e8d-> Hits: 1, Late: 0, Early: 0, Misses: 0
e90-> Hits: 2, Late: 0, Early: 0, Misses: 0
e91-> Hits: 2, Late: 0, Early: 0, Misses: 0
e92-> Hits: 4, Late: 0, Early: 0, Misses: 0
e94-> Hits: 4, Late: 0, Early: 0, Misses: 0
e95-> Hits: 1, Late: 0, Early: 0, Misses: 0
e96-> Hits: 1, Late: 0, Early: 0, Misses: 0
e97-> Hits: 2, Late: 0, Early: 0, Misses: 0
e98-> Hits: 2, Late: 0, Early: 0, Misses: 0
e99-> Hits: 33, Late: 301, Early: 0, Misses: 0
e9a-> Hits: 2, Late: 0, Early: 0, Misses: 0
e9b-> Hits: 1, Late: 0, Early: 0, Misses: 0
e9d-> Hits: 1, Late: 0, Early: 0, Misses: 0
e9f-> Hits: 1, Late: 0, Early: 0, Misses: 0
ea0-> Hits: 2, Late: 1, Early: 0, Misses: 0
ea1-> Hits: 3, Late: 0, Early: 0, Misses: 0
ea2-> Hits: 2, Late: 0, Early: 0, Misses: 0
ea5-> Hits: 1, Late: 0, Early: 0, Misses: 0
ea6-> Hits: 0, Late: 1, Early: 0, Misses: 0
ea7-> Hits: 1, Late: 0, Early: 0, Misses: 0
ea8-> Hits: 1, Late: 0, Early: 0, Misses: 0
ea9-> Hits: 3, Late: 0, Early: 0, Misses: 0
eaa-> Hits: 1, Late: 0, Early: 0, Misses: 0
eab-> Hits: 7, Late: 0, Early: 0, Misses: 0
eac-> Hits: 1, Late: 0, Early: 0, Misses: 0
eae-> Hits: 1, Late: 0, Early: 0, Misses: 0
eaf-> Hits: 0, Late: 1, Early: 0, Misses: 0
eb0-> Hits: 448810, Late: 438867, Early: 0, Misses: 0
eb3-> Hits: 1, Late: 0, Early: 0, Misses: 0
eb4-> Hits: 1, Late: 0, Early: 0, Misses: 0
eb5-> Hits: 685243, Late: 152218, Early: 0, Misses: 0
eb6-> Hits: 3, Late: 2, Early: 0, Misses: 0
eb8-> Hits: 1, Late: 0, Early: 0, Misses: 0
eba-> Hits: 443386, Late: 438290, Early: 0, Misses: 0
ebc-> Hits: 3, Late: 0, Early: 0, Misses: 0
ebd-> Hits: 1, Late: 0, Early: 0, Misses: 0
ebe-> Hits: 2, Late: 0, Early: 0, Misses: 0
ebf-> Hits: 2, Late: 1, Early: 0, Misses: 0
ec0-> Hits: 674388, Late: 163741, Early: 0, Misses: 0
ec1-> Hits: 13, Late: 0, Early: 0, Misses: 0
ec2-> Hits: 2, Late: 0, Early: 0, Misses: 0
ec3-> Hits: 2, Late: 0, Early: 0, Misses: 0
ec4-> Hits: 1, Late: 1, Early: 0, Misses: 0
ec5-> Hits: 6, Late: 0, Early: 0, Misses: 0
ec6-> Hits: 423021, Late: 451379, Early: 0, Misses: 0
ec7-> Hits: 1, Late: 1, Early: 0, Misses: 0
ec8-> Hits: 1, Late: 0, Early: 0, Misses: 0
eca-> Hits: 1, Late: 0, Early: 0, Misses: 0
ecb-> Hits: 0, Late: 1, Early: 0, Misses: 0
ecc-> Hits: 661522, Late: 173200, Early: 0, Misses: 0
ecd-> Hits: 1, Late: 0, Early: 0, Misses: 0
ece-> Hits: 0, Late: 1, Early: 0, Misses: 0
ecf-> Hits: 1, Late: 0, Early: 0, Misses: 0
ed0-> Hits: 3, Late: 0, Early: 0, Misses: 0
ed1-> Hits: 336, Late: 0, Early: 0, Misses: 0
ed2-> Hits: 389562, Late: 471568, Early: 0, Misses: 0
ed3-> Hits: 2, Late: 0, Early: 0, Misses: 0
ed5-> Hits: 5, Late: 1, Early: 0, Misses: 0
ed6-> Hits: 1, Late: 0, Early: 0, Misses: 0
ed7-> Hits: 3, Late: 0, Early: 0, Misses: 0
ed8-> Hits: 645215, Late: 183360, Early: 0, Misses: 0
ed9-> Hits: 5, Late: 0, Early: 0, Misses: 0
edb-> Hits: 2, Late: 0, Early: 0, Misses: 0
edc-> Hits: 3, Late: 0, Early: 0, Misses: 0
edf-> Hits: 0, Late: 1, Early: 0, Misses: 0
ee0-> Hits: 6, Late: 334, Early: 0, Misses: 0
ee1-> Hits: 6, Late: 32, Early: 0, Misses: 0
ee2-> Hits: 4, Late: 0, Early: 0, Misses: 0
ee3-> Hits: 5, Late: 0, Early: 0, Misses: 0
ee4-> Hits: 8, Late: 0, Early: 0, Misses: 0
ee5-> Hits: 5, Late: 0, Early: 0, Misses: 0
ee7-> Hits: 5, Late: 0, Early: 0, Misses: 0
ee8-> Hits: 2, Late: 0, Early: 0, Misses: 0
ee9-> Hits: 6, Late: 0, Early: 0, Misses: 0
eea-> Hits: 5, Late: 0, Early: 0, Misses: 0
eeb-> Hits: 2, Late: 0, Early: 0, Misses: 0
eec-> Hits: 2, Late: 0, Early: 0, Misses: 0
eed-> Hits: 2, Late: 0, Early: 0, Misses: 0
eee-> Hits: 2, Late: 0, Early: 0, Misses: 0
eef-> Hits: 16, Late: 0, Early: 0, Misses: 0
ef0-> Hits: 5, Late: 0, Early: 0, Misses: 0
ef1-> Hits: 2, Late: 0, Early: 0, Misses: 0
ef2-> Hits: 3, Late: 0, Early: 0, Misses: 0
ef3-> Hits: 1, Late: 0, Early: 0, Misses: 0
ef4-> Hits: 37, Late: 0, Early: 0, Misses: 0
ef5-> Hits: 1, Late: 0, Early: 0, Misses: 0
ef6-> Hits: 2, Late: 0, Early: 0, Misses: 0
ef7-> Hits: 2, Late: 0, Early: 0, Misses: 0
ef8-> Hits: 3, Late: 2, Early: 0, Misses: 0
ef9-> Hits: 1, Late: 0, Early: 0, Misses: 0
efa-> Hits: 8, Late: 0, Early: 0, Misses: 0
efb-> Hits: 5, Late: 0, Early: 0, Misses: 0
efc-> Hits: 4, Late: 0, Early: 0, Misses: 0
efd-> Hits: 2, Late: 0, Early: 0, Misses: 0
efe-> Hits: 333078, Late: 841428, Early: 0, Misses: 0
eff-> Hits: 6, Late: 0, Early: 0, Misses: 0
f00-> Hits: 4, Late: 0, Early: 0, Misses: 0
f01-> Hits: 4, Late: 0, Early: 0, Misses: 0
f02-> Hits: 4, Late: 0, Early: 0, Misses: 0
f03-> Hits: 2, Late: 0, Early: 0, Misses: 0
f04-> Hits: 6, Late: 0, Early: 0, Misses: 0
f05-> Hits: 3, Late: 0, Early: 0, Misses: 0
f06-> Hits: 8, Late: 0, Early: 0, Misses: 0
f07-> Hits: 2, Late: 0, Early: 0, Misses: 0
f08-> Hits: 4, Late: 0, Early: 0, Misses: 0
f09-> Hits: 9, Late: 0, Early: 0, Misses: 0
f0b-> Hits: 2, Late: 0, Early: 0, Misses: 0
f0c-> Hits: 4, Late: 4, Early: 0, Misses: 0
f0d-> Hits: 2, Late: 0, Early: 0, Misses: 0
f0e-> Hits: 1, Late: 0, Early: 0, Misses: 0
f10-> Hits: 38, Late: 3, Early: 0, Misses: 0
f13-> Hits: 31, Late: 0, Early: 0, Misses: 0
f15-> Hits: 1, Late: 0, Early: 0, Misses: 0
f16-> Hits: 4, Late: 0, Early: 0, Misses: 0
f17-> Hits: 340, Late: 0, Early: 0, Misses: 0
f18-> Hits: 1, Late: 0, Early: 0, Misses: 0
f19-> Hits: 5, Late: 3, Early: 0, Misses: 0
f1c-> Hits: 1, Late: 0, Early: 0, Misses: 0
f1e-> Hits: 3, Late: 0, Early: 0, Misses: 0
f20-> Hits: 385, Late: 105, Early: 0, Misses: 0
f21-> Hits: 15, Late: 0, Early: 0, Misses: 0
f22-> Hits: 8, Late: 0, Early: 0, Misses: 1
f23-> Hits: 23, Late: 0, Early: 0, Misses: 0
f24-> Hits: 35, Late: 0, Early: 0, Misses: 0
f25-> Hits: 463, Late: 18, Early: 0, Misses: 0
f26-> Hits: 1, Late: 0, Early: 0, Misses: 0
f27-> Hits: 9, Late: 0, Early: 0, Misses: 0
f28-> Hits: 2, Late: 0, Early: 0, Misses: 0
f29-> Hits: 9, Late: 1, Early: 0, Misses: 0
f2a-> Hits: 299, Late: 196, Early: 0, Misses: 0
f2b-> Hits: 32, Late: 1, Early: 0, Misses: 0
f2f-> Hits: 5, Late: 0, Early: 0, Misses: 0
f30-> Hits: 434, Late: 62, Early: 0, Misses: 0
f31-> Hits: 1153, Late: 0, Early: 0, Misses: 0
f32-> Hits: 36, Late: 1, Early: 0, Misses: 0
f33-> Hits: 9, Late: 0, Early: 0, Misses: 0
f34-> Hits: 1, Late: 2, Early: 0, Misses: 0
f37-> Hits: 6, Late: 0, Early: 0, Misses: 0
f39-> Hits: 3, Late: 0, Early: 0, Misses: 0
f3b-> Hits: 8, Late: 0, Early: 0, Misses: 0
f3c-> Hits: 8, Late: 0, Early: 0, Misses: 0
f3d-> Hits: 349, Late: 1, Early: 0, Misses: 0
f3e-> Hits: 1, Late: 0, Early: 0, Misses: 0
f3f-> Hits: 15, Late: 0, Early: 0, Misses: 0
f40-> Hits: 302, Late: 172, Early: 0, Misses: 0
f41-> Hits: 8, Late: 0, Early: 0, Misses: 0
f43-> Hits: 9, Late: 0, Early: 0, Misses: 0
f44-> Hits: 5, Late: 0, Early: 0, Misses: 0
f45-> Hits: 425, Late: 50, Early: 0, Misses: 0
f47-> Hits: 14, Late: 0, Early: 0, Misses: 0
f49-> Hits: 2, Late: 0, Early: 0, Misses: 0
f4a-> Hits: 268, Late: 205, Early: 0, Misses: 0
f4c-> Hits: 0, Late: 1, Early: 0, Misses: 0
f50-> Hits: 408, Late: 62, Early: 0, Misses: 0
f53-> Hits: 7, Late: 0, Early: 0, Misses: 0
f54-> Hits: 2, Late: 0, Early: 0, Misses: 0
f59-> Hits: 0, Late: 1258, Early: 0, Misses: 1
f5a-> Hits: 36, Late: 0, Early: 0, Misses: 0
f5b-> Hits: 1, Late: 0, Early: 0, Misses: 0
f5d-> Hits: 0, Late: 0, Early: 0, Misses: 1
f5e-> Hits: 1, Late: 0, Early: 0, Misses: 0
f5f-> Hits: 302, Late: 159, Early: 0, Misses: 0
f60-> Hits: 10, Late: 2, Early: 0, Misses: 0
f61-> Hits: 1, Late: 0, Early: 0, Misses: 0
f63-> Hits: 2, Late: 0, Early: 0, Misses: 0
f64-> Hits: 415, Late: 1300, Early: 0, Misses: 0
f65-> Hits: 4, Late: 1, Early: 0, Misses: 0
f66-> Hits: 12, Late: 0, Early: 0, Misses: 0
f68-> Hits: 2, Late: 0, Early: 0, Misses: 0
f69-> Hits: 222, Late: 236, Early: 0, Misses: 0
f6c-> Hits: 103, Late: 1, Early: 0, Misses: 0
f6d-> Hits: 8, Late: 0, Early: 0, Misses: 0
f6f-> Hits: 396, Late: 73, Early: 0, Misses: 0
f70-> Hits: 0, Late: 34, Early: 0, Misses: 0
f73-> Hits: 1, Late: 1, Early: 0, Misses: 0
f74-> Hits: 1058, Late: 201, Early: 0, Misses: 0
f78-> Hits: 0, Late: 1258, Early: 0, Misses: 0
f7a-> Hits: 4, Late: 0, Early: 0, Misses: 0
f7d-> Hits: 5, Late: 2, Early: 0, Misses: 0
f7e-> Hits: 285, Late: 161, Early: 0, Misses: 0
f7f-> Hits: 3, Late: 1, Early: 0, Misses: 0
f80-> Hits: 4, Late: 1, Early: 0, Misses: 0
f83-> Hits: 404, Late: 42, Early: 0, Misses: 0
f85-> Hits: 3, Late: 0, Early: 0, Misses: 0
f86-> Hits: 3, Late: 1, Early: 0, Misses: 0
f87-> Hits: 14, Late: 0, Early: 0, Misses: 0
f88-> Hits: 219, Late: 226, Early: 0, Misses: 0
f89-> Hits: 1, Late: 0, Early: 0, Misses: 0
f8b-> Hits: 864, Late: 344, Early: 0, Misses: 0
f8c-> Hits: 6, Late: 0, Early: 0, Misses: 0
f8d-> Hits: 4, Late: 0, Early: 0, Misses: 0
f8e-> Hits: 379, Late: 66, Early: 0, Misses: 0
f8f-> Hits: 1, Late: 0, Early: 0, Misses: 0
f90-> Hits: 6, Late: 0, Early: 0, Misses: 0
f91-> Hits: 1, Late: 0, Early: 0, Misses: 0
f92-> Hits: 2, Late: 0, Early: 0, Misses: 0
f93-> Hits: 6, Late: 0, Early: 0, Misses: 0
f94-> Hits: 1, Late: 0, Early: 0, Misses: 0
f95-> Hits: 0, Late: 2, Early: 0, Misses: 0
f96-> Hits: 1, Late: 0, Early: 0, Misses: 0
f98-> Hits: 1, Late: 0, Early: 0, Misses: 0
f9a-> Hits: 16, Late: 0, Early: 0, Misses: 0
f9c-> Hits: 3, Late: 0, Early: 0, Misses: 0
f9d-> Hits: 19, Late: 3, Early: 0, Misses: 0
f9e-> Hits: 1, Late: 0, Early: 0, Misses: 0
f9f-> Hits: 7, Late: 0, Early: 0, Misses: 0
fa0-> Hits: 4, Late: 1, Early: 0, Misses: 0
fa1-> Hits: 1, Late: 0, Early: 0, Misses: 0
fa4-> Hits: 1, Late: 0, Early: 0, Misses: 0
faa-> Hits: 3, Late: 0, Early: 0, Misses: 0
fb0-> Hits: 175, Late: 1106, Early: 0, Misses: 0
fb1-> Hits: 3, Late: 3, Early: 0, Misses: 0
fb3-> Hits: 10, Late: 0, Early: 0, Misses: 0
fb6-> Hits: 1, Late: 0, Early: 0, Misses: 0
fb8-> Hits: 5, Late: 2, Early: 0, Misses: 0
fba-> Hits: 36, Late: 105, Early: 0, Misses: 0
fbb-> Hits: 30, Late: 2, Early: 0, Misses: 0
fbd-> Hits: 1, Late: 0, Early: 0, Misses: 0
fbe-> Hits: 1, Late: 0, Early: 0, Misses: 0
fbf-> Hits: 2, Late: 0, Early: 0, Misses: 0
fc0-> Hits: 5, Late: 0, Early: 0, Misses: 0
fc1-> Hits: 467, Late: 21, Early: 0, Misses: 24
fc4-> Hits: 9, Late: 0, Early: 0, Misses: 0
fc5-> Hits: 2, Late: 0, Early: 0, Misses: 0
fc6-> Hits: 2, Late: 0, Early: 0, Misses: 0
fc7-> Hits: 2, Late: 0, Early: 0, Misses: 0
fc8-> Hits: 11, Late: 0, Early: 0, Misses: 0
fca-> Hits: 2, Late: 0, Early: 0, Misses: 0
fcb-> Hits: 1, Late: 0, Early: 0, Misses: 0
fcd-> Hits: 1, Late: 1, Early: 0, Misses: 0
fce-> Hits: 1, Late: 0, Early: 0, Misses: 0
fd0-> Hits: 4, Late: 0, Early: 0, Misses: 0
fd2-> Hits: 1, Late: 0, Early: 0, Misses: 0
fd5-> Hits: 458, Late: 31, Early: 0, Misses: 23
fd6-> Hits: 6, Late: 0, Early: 0, Misses: 0
fd7-> Hits: 6, Late: 0, Early: 0, Misses: 0
fd8-> Hits: 10, Late: 0, Early: 0, Misses: 0
fda-> Hits: 6, Late: 0, Early: 0, Misses: 0
fdc-> Hits: 7, Late: 1, Early: 0, Misses: 0
fde-> Hits: 8, Late: 0, Early: 0, Misses: 0
fdf-> Hits: 37, Late: 3, Early: 0, Misses: 0
fe0-> Hits: 11, Late: 0, Early: 0, Misses: 0
fe1-> Hits: 4, Late: 0, Early: 0, Misses: 0
fe2-> Hits: 2, Late: 0, Early: 0, Misses: 0
fe3-> Hits: 4, Late: 0, Early: 0, Misses: 0
fe4-> Hits: 31, Late: 2, Early: 0, Misses: 0
fe5-> Hits: 5, Late: 8, Early: 0, Misses: 0
fe6-> Hits: 2, Late: 0, Early: 0, Misses: 0
fe7-> Hits: 1, Late: 1, Early: 0, Misses: 0
fe8-> Hits: 268, Late: 168, Early: 0, Misses: 0
feb-> Hits: 1, Late: 2, Early: 0, Misses: 0
fec-> Hits: 6, Late: 0, Early: 0, Misses: 0
fed-> Hits: 388, Late: 45, Early: 0, Misses: 0
fef-> Hits: 0, Late: 1, Early: 0, Misses: 0
ff0-> Hits: 9, Late: 0, Early: 0, Misses: 0
ff2-> Hits: 211, Late: 1481, Early: 0, Misses: 0
ff3-> Hits: 14, Late: 0, Early: 0, Misses: 0
ff5-> Hits: 1, Late: 0, Early: 0, Misses: 0
ff7-> Hits: 4, Late: 0, Early: 0, Misses: 0
ff8-> Hits: 370, Late: 53, Early: 0, Misses: 0
ff9-> Hits: 11, Late: 33, Early: 0, Misses: 0
ffd-> Hits: 2, Late: 0, Early: 0, Misses: 0
ffe-> Hits: 11, Late: 0, Early: 0, Misses: 0
fff-> Hits: 12, Late: 0, Early: 0, Misses: 0
Total misses (from ip) 6764842
Total accesses (misses) 279492366 6764842
Pref: Addr 0 IP 0 Current 0
CPU 0 L2C berti prefetcher final stats
Channel_0_RQ_row_buffer_hit 3161352
Channel_0_RQ_row_buffer_miss 2623441
Channel_0_WQ_row_buffer_hit 1167971
Channel_0_WQ_row_buffer_miss 2110293
Channel_0_WQ_full 9097
Channel_0_dbus_congested 3932632

avg_congested_cycle 8

EzSearch AVG IPC :1.22053: L2-Pf-HR :0.86056 : L2-HR :0.84303 Uful:0.09357
     > Finished combination: TraceType=770-tot Sim:1178000000 Prefetcher=L2berti L1=berti
