TRACE: [1622000000][GPT-Neo-2_7B]_[h32][s1024][d80] Warmup: 2000000 NumTraces: 1622000000
L1:next_line:L2:029-SecTOP-L2-MultiMarkovDelta_ip_stride_v4-IPStrS256
*************************************************
   ChampSim Multicore Out-of-Order Simulator
   Last compiled: Oct 26 2024 17:22:13
*************************************************

trace_0 770-tot_memTraces_v3/memTraces[1622000000][GPT-Neo-2_7B]_[h32][s1024][d80].champsim.xz
CPU 0 L1D next line prefetcher
MK1: Size: 128 TMAX: 64 TMIN: 32 MKPTHRESH: 40
MK2: Size: 256 TMAX: 32 TMIN: 16 MK2PTHRESH: 30
MK3: Size: 384 TMAX: 16 TMIN: 8 MK3PTHRESH: 25
MK4: Size: 512 TMAX: 8 TMIN: 0 MK4PTHRESH: 20
Stride Size: 256 Prefetch Degree: 15

CPU 0 L2C prefetcher
MAIN.cc ln 751 stats print skipped
CPU 0 L2C prefetcher initialized


Cache Size: 4096
number of cache lines: 65536
CPU  0 inst:    1000005 cyc:     497843 now IPC :2.00868: AVG IPC :2.00868: L2-Pf-HR :0.89190: L2-HR :0.86977: (Sim:0h0m20s) 
CPU  0 inst:    2000001 cyc:     980658 now IPC :2.07118: AVG IPC :2.03945: L2-Pf-HR :0.92722: L2-HR :0.91489: (Sim:0h0m41s) 

Warmup complete CPU  0 instructions:    2000001 cycles:     980658 (Simulation time: 0 hr 0 min 41 sec) 

CPU  0 inst:    3000000 cyc:    1459448 now IPC :2.08860: AVG IPC :2.08860: L2-Pf-HR :0.91397: L2-HR :0.92352: (Sim:0h0m59s) 
CPU  0 inst:    4000005 cyc:    1924542 now IPC :2.15011: AVG IPC :2.11891: L2-Pf-HR :0.92043: L2-HR :0.92983: (Sim:0h1m16s) 
CPU  0 inst:    5000002 cyc:    2389879 now IPC :2.14897: AVG IPC :2.12884: L2-Pf-HR :0.92440: L2-HR :0.93319: (Sim:0h1m33s) 
CPU  0 inst:    6000003 cyc:    2856879 now IPC :2.14133: AVG IPC :2.13195: L2-Pf-HR :0.92737: L2-HR :0.93559: (Sim:0h1m50s) 
CPU  0 inst:    7000002 cyc:    3321049 now IPC :2.15438: AVG IPC :2.13640: L2-Pf-HR :0.93264: L2-HR :0.94006: (Sim:0h2m7s) 
CPU  0 inst:    8000005 cyc:    3882614 now IPC :1.78074: AVG IPC :2.06757: L2-Pf-HR :0.93149: L2-HR :0.93579: (Sim:0h2m25s) 
CPU  0 inst:    9000001 cyc:    4342075 now IPC :2.17645: AVG IPC :2.08246: L2-Pf-HR :0.92988: L2-HR :0.93527: (Sim:0h2m42s) 
CPU  0 inst:   10000000 cyc:    4793104 now IPC :2.21715: AVG IPC :2.09839: L2-Pf-HR :0.93084: L2-HR :0.93684: (Sim:0h2m58s) 
CPU  0 inst:   11000001 cyc:    5243587 now IPC :2.21984: AVG IPC :2.11122: L2-Pf-HR :0.93187: L2-HR :0.93832: (Sim:0h3m15s) 
CPU  0 inst:   12000000 cyc:    5694224 now IPC :2.21908: AVG IPC :2.12154: L2-Pf-HR :0.93279: L2-HR :0.93956: (Sim:0h3m32s) 
CPU  0 inst:   13000003 cyc:    6145416 now IPC :2.21636: AVG IPC :2.12982: L2-Pf-HR :0.93357: L2-HR :0.94061: (Sim:0h3m48s) 
CPU  0 inst:   14000001 cyc:    6596743 now IPC :2.21568: AVG IPC :2.13672: L2-Pf-HR :0.93518: L2-HR :0.94228: (Sim:0h4m5s) 
CPU  0 inst:   15000002 cyc:    7046985 now IPC :2.22103: AVG IPC :2.14298: L2-Pf-HR :0.93885: L2-HR :0.94558: (Sim:0h4m22s) 
CPU  0 inst:   16000002 cyc:    7563862 now IPC :1.93470: AVG IPC :2.12662: L2-Pf-HR :0.93531: L2-HR :0.94192: (Sim:0h4m39s) 
CPU  0 inst:   17000003 cyc:    8008572 now IPC :2.24866: AVG IPC :2.13435: L2-Pf-HR :0.93407: L2-HR :0.94126: (Sim:0h4m56s) 
CPU  0 inst:   18000002 cyc:    8454883 now IPC :2.24059: AVG IPC :2.14069: L2-Pf-HR :0.93301: L2-HR :0.94071: (Sim:0h5m10s) 
CPU  0 inst:   19000001 cyc:    8898544 now IPC :2.25397: AVG IPC :2.14704: L2-Pf-HR :0.93240: L2-HR :0.94053: (Sim:0h5m27s) 
CPU  0 inst:   20000002 cyc:    9342325 now IPC :2.25337: AVG IPC :2.15268: L2-Pf-HR :0.93318: L2-HR :0.94147: (Sim:0h5m44s) 
CPU  0 inst:   21000000 cyc:    9906649 now IPC :1.77203: AVG IPC :2.12862: L2-Pf-HR :0.92984: L2-HR :0.93754: (Sim:0h6m2s) 
CPU  0 inst:   22000005 cyc:   10367013 now IPC :2.17220: AVG IPC :2.13075: L2-Pf-HR :0.93032: L2-HR :0.93794: (Sim:0h6m19s) 
CPU  0 inst:   23000001 cyc:   10827024 now IPC :2.17385: AVG IPC :2.13277: L2-Pf-HR :0.93088: L2-HR :0.93844: (Sim:0h6m36s) 
CPU  0 inst:   24000000 cyc:   11286541 now IPC :2.17620: AVG IPC :2.13470: L2-Pf-HR :0.93148: L2-HR :0.93898: (Sim:0h6m54s) 
CPU  0 inst:   25000002 cyc:   11746646 now IPC :2.17342: AVG IPC :2.13636: L2-Pf-HR :0.93205: L2-HR :0.93947: (Sim:0h7m11s) 
CPU  0 inst:   26000005 cyc:   12207195 now IPC :2.17133: AVG IPC :2.13779: L2-Pf-HR :0.93268: L2-HR :0.94000: (Sim:0h7m28s) 
CPU  0 inst:   27000003 cyc:   12669513 now IPC :2.16301: AVG IPC :2.13879: L2-Pf-HR :0.93422: L2-HR :0.94126: (Sim:0h7m45s) 
CPU  0 inst:   28000003 cyc:   13222157 now IPC :1.80948: AVG IPC :2.12392: L2-Pf-HR :0.93423: L2-HR :0.94058: (Sim:0h8m3s) 
CPU  0 inst:   29000000 cyc:   13685666 now IPC :2.15745: AVG IPC :2.12515: L2-Pf-HR :0.93374: L2-HR :0.94032: (Sim:0h8m20s) 
CPU  0 inst:   30000004 cyc:   14138853 now IPC :2.20660: AVG IPC :2.12795: L2-Pf-HR :0.93382: L2-HR :0.94056: (Sim:0h8m37s) 
CPU  0 inst:   31000003 cyc:   14590196 now IPC :2.21561: AVG IPC :2.13086: L2-Pf-HR :0.93408: L2-HR :0.94093: (Sim:0h8m54s) 
CPU  0 inst:   32000001 cyc:   15040788 now IPC :2.21930: AVG IPC :2.13369: L2-Pf-HR :0.93432: L2-HR :0.94128: (Sim:0h9m12s) 
CPU  0 inst:   33000002 cyc:   15490397 now IPC :2.22416: AVG IPC :2.13650: L2-Pf-HR :0.93455: L2-HR :0.94161: (Sim:0h9m29s) 
CPU  0 inst:   34000005 cyc:   15940186 now IPC :2.22327: AVG IPC :2.13911: L2-Pf-HR :0.93520: L2-HR :0.94228: (Sim:0h9m46s) 
CPU  0 inst:   35000005 cyc:   16391334 now IPC :2.21657: AVG IPC :2.14137: L2-Pf-HR :0.93673: L2-HR :0.94364: (Sim:0h10m3s) 
CPU  0 inst:   36000004 cyc:   16939612 now IPC :1.82389: AVG IPC :2.13047: L2-Pf-HR :0.93525: L2-HR :0.94212: (Sim:0h10m21s) 
CPU  0 inst:   37000001 cyc:   17385951 now IPC :2.24044: AVG IPC :2.13346: L2-Pf-HR :0.93471: L2-HR :0.94182: (Sim:0h10m38s) 
CPU  0 inst:   38000000 cyc:   17830807 now IPC :2.24792: AVG IPC :2.13648: L2-Pf-HR :0.93423: L2-HR :0.94158: (Sim:0h10m50s) 
CPU  0 inst:   39000002 cyc:   18276075 now IPC :2.24584: AVG IPC :2.13930: L2-Pf-HR :0.93389: L2-HR :0.94146: (Sim:0h10m58s) 
CPU  0 inst:   40000000 cyc:   18719319 now IPC :2.25609: AVG IPC :2.14221: L2-Pf-HR :0.93425: L2-HR :0.94190: (Sim:0h11m5s) 
CPU  0 inst:   41000001 cyc:   19327686 now IPC :1.64375: AVG IPC :2.12568: L2-Pf-HR :0.93261: L2-HR :0.93998: (Sim:0h11m14s) 
CPU  0 inst:   42000000 cyc:   19802541 now IPC :2.10590: AVG IPC :2.12519: L2-Pf-HR :0.93281: L2-HR :0.94015: (Sim:0h11m22s) 
CPU  0 inst:   43000002 cyc:   20275170 now IPC :2.11583: AVG IPC :2.12496: L2-Pf-HR :0.93297: L2-HR :0.94028: (Sim:0h11m29s) 
CPU  0 inst:   44000000 cyc:   20746177 now IPC :2.12311: AVG IPC :2.12491: L2-Pf-HR :0.93327: L2-HR :0.94054: (Sim:0h11m37s) 
CPU  0 inst:   45000000 cyc:   21217516 now IPC :2.12162: AVG IPC :2.12484: L2-Pf-HR :0.93350: L2-HR :0.94074: (Sim:0h11m44s) 
CPU  0 inst:   46000002 cyc:   21692249 now IPC :2.10645: AVG IPC :2.12441: L2-Pf-HR :0.93375: L2-HR :0.94095: (Sim:0h11m52s) 
CPU  0 inst:   47000001 cyc:   22165852 now IPC :2.11147: AVG IPC :2.12413: L2-Pf-HR :0.93460: L2-HR :0.94163: (Sim:0h12m0s) 
CPU  0 inst:   48000004 cyc:   22773016 now IPC :1.64701: AVG IPC :2.11083: L2-Pf-HR :0.93452: L2-HR :0.94117: (Sim:0h12m8s) 
CPU  0 inst:   49000003 cyc:   23236411 now IPC :2.15798: AVG IPC :2.11181: L2-Pf-HR :0.93425: L2-HR :0.94103: (Sim:0h12m15s) 
CPU  0 inst:   50000005 cyc:   23688391 now IPC :2.21249: AVG IPC :2.11382: L2-Pf-HR :0.93433: L2-HR :0.94120: (Sim:0h12m23s) 
CPU  0 inst:   51000000 cyc:   24140318 now IPC :2.21274: AVG IPC :2.11575: L2-Pf-HR :0.93445: L2-HR :0.94139: (Sim:0h12m31s) 
CPU  0 inst:   52000005 cyc:   24592248 now IPC :2.21274: AVG IPC :2.11760: L2-Pf-HR :0.93459: L2-HR :0.94160: (Sim:0h12m39s) 
CPU  0 inst:   53000004 cyc:   25045459 now IPC :2.20648: AVG IPC :2.11928: L2-Pf-HR :0.93472: L2-HR :0.94178: (Sim:0h12m46s) 
CPU  0 inst:   54000000 cyc:   25499247 now IPC :2.20366: AVG IPC :2.12084: L2-Pf-HR :0.93515: L2-HR :0.94221: (Sim:0h12m54s) 
CPU  0 inst:   55000002 cyc:   25951256 now IPC :2.21235: AVG IPC :2.12250: L2-Pf-HR :0.93613: L2-HR :0.94308: (Sim:0h13m1s) 
CPU  0 inst:   56000001 cyc:   26496683 now IPC :1.83342: AVG IPC :2.11632: L2-Pf-HR :0.93518: L2-HR :0.94210: (Sim:0h13m9s) 
CPU  0 inst:   57000000 cyc:   26944762 now IPC :2.23175: AVG IPC :2.11831: L2-Pf-HR :0.93488: L2-HR :0.94195: (Sim:0h13m17s) 
CPU  0 inst:   58000004 cyc:   27391952 now IPC :2.23619: AVG IPC :2.12031: L2-Pf-HR :0.93456: L2-HR :0.94178: (Sim:0h13m25s) 
CPU  0 inst:   59000005 cyc:   27836926 now IPC :2.24732: AVG IPC :2.12241: L2-Pf-HR :0.93432: L2-HR :0.94168: (Sim:0h13m32s) 
CPU  0 inst:   60000004 cyc:   28280471 now IPC :2.25456: AVG IPC :2.12456: L2-Pf-HR :0.93457: L2-HR :0.94198: (Sim:0h13m40s) 
CPU  0 inst:   61000001 cyc:   28899385 now IPC :1.61573: AVG IPC :2.11328: L2-Pf-HR :0.93349: L2-HR :0.94074: (Sim:0h13m48s) 
CPU  0 inst:   62000004 cyc:   29368455 now IPC :2.13188: AVG IPC :2.11358: L2-Pf-HR :0.93356: L2-HR :0.94080: (Sim:0h13m56s) 
CPU  0 inst:   63000003 cyc:   29838445 now IPC :2.12770: AVG IPC :2.11381: L2-Pf-HR :0.93367: L2-HR :0.94090: (Sim:0h14m9s) 
CPU  0 inst:   64000000 cyc:   30309620 now IPC :2.12235: AVG IPC :2.11395: L2-Pf-HR :0.93381: L2-HR :0.94102: (Sim:0h14m27s) 
CPU  0 inst:   65000000 cyc:   30776555 now IPC :2.14163: AVG IPC :2.11439: L2-Pf-HR :0.93404: L2-HR :0.94122: (Sim:0h14m45s) 
CPU  0 inst:   66000003 cyc:   31247589 now IPC :2.12300: AVG IPC :2.11452: L2-Pf-HR :0.93420: L2-HR :0.94136: (Sim:0h15m3s) 
CPU  0 inst:   67000005 cyc:   31719032 now IPC :2.12115: AVG IPC :2.11462: L2-Pf-HR :0.93482: L2-HR :0.94186: (Sim:0h15m20s) 
CPU  0 inst:   68000005 cyc:   32326603 now IPC :1.64590: AVG IPC :2.10554: L2-Pf-HR :0.93475: L2-HR :0.94150: (Sim:0h15m39s) 
CPU  0 inst:   69000001 cyc:   32788732 now IPC :2.16389: AVG IPC :2.10638: L2-Pf-HR :0.93459: L2-HR :0.94142: (Sim:0h15m56s) 
CPU  0 inst:   70000003 cyc:   33240936 now IPC :2.21140: AVG IPC :2.10786: L2-Pf-HR :0.93462: L2-HR :0.94151: (Sim:0h16m14s) 
CPU  0 inst:   71000002 cyc:   33692558 now IPC :2.21424: AVG IPC :2.10932: L2-Pf-HR :0.93475: L2-HR :0.94168: (Sim:0h16m31s) 
CPU  0 inst:   72000004 cyc:   34145159 now IPC :2.20946: AVG IPC :2.11069: L2-Pf-HR :0.93481: L2-HR :0.94180: (Sim:0h16m49s) 
CPU  0 inst:   73000005 cyc:   34594731 now IPC :2.22434: AVG IPC :2.11221: L2-Pf-HR :0.93493: L2-HR :0.94196: (Sim:0h17m6s) 
CPU  0 inst:   74000004 cyc:   35043953 now IPC :2.22607: AVG IPC :2.11371: L2-Pf-HR :0.93522: L2-HR :0.94226: (Sim:0h17m23s) 
CPU  0 inst:   75000003 cyc:   35494686 now IPC :2.21861: AVG IPC :2.11508: L2-Pf-HR :0.93594: L2-HR :0.94290: (Sim:0h17m40s) 
CPU  0 inst:   76000002 cyc:   36044651 now IPC :1.81830: AVG IPC :2.11043: L2-Pf-HR :0.93527: L2-HR :0.94221: (Sim:0h17m58s) 
CPU  0 inst:   77000001 cyc:   36492763 now IPC :2.23158: AVG IPC :2.11196: L2-Pf-HR :0.93502: L2-HR :0.94208: (Sim:0h18m15s) 
CPU  0 inst:   78000000 cyc:   36937805 now IPC :2.24698: AVG IPC :2.11363: L2-Pf-HR :0.93476: L2-HR :0.94194: (Sim:0h18m31s) 
CPU  0 inst:   79000000 cyc:   37383658 now IPC :2.24289: AVG IPC :2.11521: L2-Pf-HR :0.93464: L2-HR :0.94190: (Sim:0h18m48s) 
CPU  0 inst:   80000005 cyc:   37829277 now IPC :2.24408: AVG IPC :2.11677: L2-Pf-HR :0.93480: L2-HR :0.94211: (Sim:0h19m5s) 
CPU  0 inst:   81000003 cyc:   38454143 now IPC :1.60034: AVG IPC :2.10816: L2-Pf-HR :0.93404: L2-HR :0.94119: (Sim:0h19m24s) 
CPU  0 inst:   82000002 cyc:   38922488 now IPC :2.13518: AVG IPC :2.10849: L2-Pf-HR :0.93410: L2-HR :0.94125: (Sim:0h19m41s) 
CPU  0 inst:   83000001 cyc:   39396568 now IPC :2.10935: AVG IPC :2.10850: L2-Pf-HR :0.93417: L2-HR :0.94131: (Sim:0h19m59s) 
CPU  0 inst:   84000003 cyc:   39870085 now IPC :2.11186: AVG IPC :2.10854: L2-Pf-HR :0.93432: L2-HR :0.94143: (Sim:0h20m16s) 
CPU  0 inst:   85000002 cyc:   40338505 now IPC :2.13483: AVG IPC :2.10886: L2-Pf-HR :0.93448: L2-HR :0.94157: (Sim:0h20m33s) 
CPU  0 inst:   86000001 cyc:   40809656 now IPC :2.12246: AVG IPC :2.10902: L2-Pf-HR :0.93461: L2-HR :0.94168: (Sim:0h20m51s) 
CPU  0 inst:   87000000 cyc:   41282276 now IPC :2.11586: AVG IPC :2.10910: L2-Pf-HR :0.93507: L2-HR :0.94205: (Sim:0h21m8s) 
CPU  0 inst:   88000000 cyc:   41889851 now IPC :1.64589: AVG IPC :2.10222: L2-Pf-HR :0.93501: L2-HR :0.94177: (Sim:0h21m26s) 
CPU  0 inst:   89000002 cyc:   42352415 now IPC :2.16187: AVG IPC :2.10288: L2-Pf-HR :0.93487: L2-HR :0.94170: (Sim:0h21m43s) 
CPU  0 inst:   90000001 cyc:   42805243 now IPC :2.20834: AVG IPC :2.10403: L2-Pf-HR :0.93493: L2-HR :0.94180: (Sim:0h22m0s) 
CPU  0 inst:   91000001 cyc:   43258938 now IPC :2.20412: AVG IPC :2.10510: L2-Pf-HR :0.93503: L2-HR :0.94193: (Sim:0h22m17s) 
CPU  0 inst:   92000004 cyc:   43711304 now IPC :2.21061: AVG IPC :2.10622: L2-Pf-HR :0.93508: L2-HR :0.94202: (Sim:0h22m35s) 
CPU  0 inst:   93000003 cyc:   44162345 now IPC :2.21709: AVG IPC :2.10737: L2-Pf-HR :0.93515: L2-HR :0.94213: (Sim:0h22m52s) 
CPU  0 inst:   94000000 cyc:   44614922 now IPC :2.20956: AVG IPC :2.10843: L2-Pf-HR :0.93538: L2-HR :0.94236: (Sim:0h23m8s) 
CPU  0 inst:   95000003 cyc:   45066545 now IPC :2.21424: AVG IPC :2.10952: L2-Pf-HR :0.93596: L2-HR :0.94288: (Sim:0h23m25s) 
CPU  0 inst:   96000000 cyc:   45608664 now IPC :1.84461: AVG IPC :2.10630: L2-Pf-HR :0.93545: L2-HR :0.94233: (Sim:0h23m43s) 
CPU  0 inst:   97000000 cyc:   46055602 now IPC :2.23745: AVG IPC :2.10760: L2-Pf-HR :0.93524: L2-HR :0.94222: (Sim:0h24m0s) 
CPU  0 inst:   98000001 cyc:   46502028 now IPC :2.24002: AVG IPC :2.10890: L2-Pf-HR :0.93502: L2-HR :0.94210: (Sim:0h24m17s) 
CPU  0 inst:   99000002 cyc:   46946572 now IPC :2.24950: AVG IPC :2.11026: L2-Pf-HR :0.93493: L2-HR :0.94209: (Sim:0h24m34s) 
CPU  0 inst:  100000000 cyc:   47393084 now IPC :2.23958: AVG IPC :2.11150: L2-Pf-HR :0.93506: L2-HR :0.94225: (Sim:0h24m50s) 
CPU  0 inst:  101000002 cyc:   48010946 now IPC :1.61849: AVG IPC :2.10503: L2-Pf-HR :0.93442: L2-HR :0.94148: (Sim:0h25m9s) 
CPU  0 inst:  102000003 cyc:   48481169 now IPC :2.12665: AVG IPC :2.10524: L2-Pf-HR :0.93447: L2-HR :0.94153: (Sim:0h25m27s) 
CPU  0 inst:  103000002 cyc:   48953630 now IPC :2.11657: AVG IPC :2.10535: L2-Pf-HR :0.93454: L2-HR :0.94159: (Sim:0h25m44s) 
CPU  0 inst:  104000004 cyc:   49427240 now IPC :2.11145: AVG IPC :2.10541: L2-Pf-HR :0.93463: L2-HR :0.94167: (Sim:0h26m2s) 
CPU  0 inst:  105000002 cyc:   49896199 now IPC :2.13238: AVG IPC :2.10567: L2-Pf-HR :0.93471: L2-HR :0.94175: (Sim:0h26m19s) 
CPU  0 inst:  106000002 cyc:   50362914 now IPC :2.14264: AVG IPC :2.10602: L2-Pf-HR :0.93479: L2-HR :0.94183: (Sim:0h26m36s) 
CPU  0 inst:  107000001 cyc:   50833405 now IPC :2.12544: AVG IPC :2.10620: L2-Pf-HR :0.93518: L2-HR :0.94214: (Sim:0h26m54s) 
CPU  0 inst:  108000000 cyc:   51438546 now IPC :1.65251: AVG IPC :2.10076: L2-Pf-HR :0.93511: L2-HR :0.94191: (Sim:0h27m12s) 
CPU  0 inst:  109000000 cyc:   51904022 now IPC :2.14834: AVG IPC :2.10120: L2-Pf-HR :0.93502: L2-HR :0.94186: (Sim:0h27m29s) 
CPU  0 inst:  110000001 cyc:   52357749 now IPC :2.20397: AVG IPC :2.10210: L2-Pf-HR :0.93505: L2-HR :0.94193: (Sim:0h27m46s) 
CPU  0 inst:  111000005 cyc:   52810323 now IPC :2.20959: AVG IPC :2.10304: L2-Pf-HR :0.93511: L2-HR :0.94202: (Sim:0h28m3s) 
CPU  0 inst:  112000003 cyc:   53264236 now IPC :2.20306: AVG IPC :2.10391: L2-Pf-HR :0.93518: L2-HR :0.94211: (Sim:0h28m20s) 
CPU  0 inst:  113000001 cyc:   53716670 now IPC :2.21026: AVG IPC :2.10482: L2-Pf-HR :0.93522: L2-HR :0.94219: (Sim:0h28m37s) 
CPU  0 inst:  114000000 cyc:   54169895 now IPC :2.20641: AVG IPC :2.10569: L2-Pf-HR :0.93542: L2-HR :0.94239: (Sim:0h28m55s) 
CPU  0 inst:  115000001 cyc:   54623303 now IPC :2.20552: AVG IPC :2.10653: L2-Pf-HR :0.93589: L2-HR :0.94281: (Sim:0h29m12s) 
CPU  0 inst:  116000001 cyc:   55168864 now IPC :1.83298: AVG IPC :2.10378: L2-Pf-HR :0.93546: L2-HR :0.94235: (Sim:0h29m30s) 
CPU  0 inst:  117000005 cyc:   55617325 now IPC :2.22986: AVG IPC :2.10481: L2-Pf-HR :0.93530: L2-HR :0.94226: (Sim:0h29m47s) 
CPU  0 inst:  118000003 cyc:   56062993 now IPC :2.24382: AVG IPC :2.10594: L2-Pf-HR :0.93512: L2-HR :0.94217: (Sim:0h30m5s) 
CPU  0 inst:  119000000 cyc:   56509385 now IPC :2.24018: AVG IPC :2.10702: L2-Pf-HR :0.93505: L2-HR :0.94215: (Sim:0h30m22s) 
CPU  0 inst:  120000000 cyc:   56956149 now IPC :2.23832: AVG IPC :2.10807: L2-Pf-HR :0.93516: L2-HR :0.94229: (Sim:0h30m39s) 
CPU  0 inst:  121000002 cyc:   57585647 now IPC :1.58857: AVG IPC :2.10229: L2-Pf-HR :0.93466: L2-HR :0.94168: (Sim:0h30m58s) 
CPU  0 inst:  122000004 cyc:   58055249 now IPC :2.12947: AVG IPC :2.10251: L2-Pf-HR :0.93472: L2-HR :0.94173: (Sim:0h31m16s) 
CPU  0 inst:  123000001 cyc:   58526249 now IPC :2.12314: AVG IPC :2.10268: L2-Pf-HR :0.93476: L2-HR :0.94177: (Sim:0h31m34s) 
CPU  0 inst:  124000002 cyc:   58997694 now IPC :2.12114: AVG IPC :2.10283: L2-Pf-HR :0.93483: L2-HR :0.94182: (Sim:0h31m51s) 
CPU  0 inst:  125000004 cyc:   59466058 now IPC :2.13510: AVG IPC :2.10309: L2-Pf-HR :0.93490: L2-HR :0.94189: (Sim:0h32m9s) 
CPU  0 inst:  126000003 cyc:   59939197 now IPC :2.11354: AVG IPC :2.10317: L2-Pf-HR :0.93496: L2-HR :0.94195: (Sim:0h32m26s) 
CPU  0 inst:  127000005 cyc:   60411105 now IPC :2.11906: AVG IPC :2.10330: L2-Pf-HR :0.93527: L2-HR :0.94220: (Sim:0h32m44s) 
CPU  0 inst:  128000005 cyc:   61015726 now IPC :1.65393: AVG IPC :2.09877: L2-Pf-HR :0.93519: L2-HR :0.94200: (Sim:0h33m3s) 
CPU  0 inst:  129000001 cyc:   61480046 now IPC :2.15368: AVG IPC :2.09919: L2-Pf-HR :0.93511: L2-HR :0.94195: (Sim:0h33m20s) 
CPU  0 inst:  130000003 cyc:   61931822 now IPC :2.21349: AVG IPC :2.10004: L2-Pf-HR :0.93513: L2-HR :0.94201: (Sim:0h33m37s) 
CPU  0 inst:  131000005 cyc:   62385280 now IPC :2.20528: AVG IPC :2.10082: L2-Pf-HR :0.93520: L2-HR :0.94209: (Sim:0h33m55s) 
CPU  0 inst:  132000002 cyc:   62838617 now IPC :2.20586: AVG IPC :2.10159: L2-Pf-HR :0.93525: L2-HR :0.94217: (Sim:0h34m12s) 
CPU  0 inst:  133000002 cyc:   63291282 now IPC :2.20914: AVG IPC :2.10237: L2-Pf-HR :0.93529: L2-HR :0.94224: (Sim:0h34m29s) 
CPU  0 inst:  134000004 cyc:   63743199 now IPC :2.21280: AVG IPC :2.10317: L2-Pf-HR :0.93546: L2-HR :0.94240: (Sim:0h34m47s) 
CPU  0 inst:  135000001 cyc:   64196325 now IPC :2.20689: AVG IPC :2.10391: L2-Pf-HR :0.93586: L2-HR :0.94276: (Sim:0h35m4s) 
CPU  0 inst:  136000005 cyc:   64730960 now IPC :1.87044: AVG IPC :2.10195: L2-Pf-HR :0.93547: L2-HR :0.94237: (Sim:0h35m22s) 
CPU  0 inst:  137000001 cyc:   65179534 now IPC :2.22928: AVG IPC :2.10284: L2-Pf-HR :0.93532: L2-HR :0.94229: (Sim:0h35m39s) 
CPU  0 inst:  138000004 cyc:   65629543 now IPC :2.22218: AVG IPC :2.10367: L2-Pf-HR :0.93517: L2-HR :0.94220: (Sim:0h35m57s) 
CPU  0 inst:  139000004 cyc:   66074933 now IPC :2.24522: AVG IPC :2.10464: L2-Pf-HR :0.93509: L2-HR :0.94217: (Sim:0h36m14s) 
CPU  0 inst:  140000001 cyc:   66520323 now IPC :2.24522: AVG IPC :2.10560: L2-Pf-HR :0.93520: L2-HR :0.94230: (Sim:0h36m31s) 
CPU  0 inst:  141000000 cyc:   67147206 now IPC :1.59519: AVG IPC :2.10076: L2-Pf-HR :0.93472: L2-HR :0.94175: (Sim:0h36m50s) 
CPU  0 inst:  142000002 cyc:   67618333 now IPC :2.12257: AVG IPC :2.10091: L2-Pf-HR :0.93476: L2-HR :0.94179: (Sim:0h37m7s) 
CPU  0 inst:  143000001 cyc:   68086442 now IPC :2.13625: AVG IPC :2.10116: L2-Pf-HR :0.93480: L2-HR :0.94182: (Sim:0h37m24s) 
CPU  0 inst:  144000003 cyc:   68559649 now IPC :2.11324: AVG IPC :2.10124: L2-Pf-HR :0.93486: L2-HR :0.94187: (Sim:0h37m42s) 
CPU  0 inst:  145000005 cyc:   69028445 now IPC :2.13313: AVG IPC :2.10146: L2-Pf-HR :0.93494: L2-HR :0.94194: (Sim:0h37m59s) 
CPU  0 inst:  146000004 cyc:   69499029 now IPC :2.12502: AVG IPC :2.10163: L2-Pf-HR :0.93501: L2-HR :0.94200: (Sim:0h38m16s) 
CPU  0 inst:  147000000 cyc:   69964155 now IPC :2.14995: AVG IPC :2.10195: L2-Pf-HR :0.93529: L2-HR :0.94222: (Sim:0h38m33s) 
CPU  0 inst:  148000000 cyc:   70566794 now IPC :1.65937: AVG IPC :2.09812: L2-Pf-HR :0.93522: L2-HR :0.94204: (Sim:0h38m51s) 
CPU  0 inst:  149000005 cyc:   71032288 now IPC :2.14827: AVG IPC :2.09845: L2-Pf-HR :0.93516: L2-HR :0.94201: (Sim:0h39m8s) 
CPU  0 inst:  150000002 cyc:   71486545 now IPC :2.20139: AVG IPC :2.09912: L2-Pf-HR :0.93517: L2-HR :0.94205: (Sim:0h39m17s) 
CPU  0 inst:  151000003 cyc:   71940858 now IPC :2.20113: AVG IPC :2.09977: L2-Pf-HR :0.93522: L2-HR :0.94211: (Sim:0h39m25s) 
CPU  0 inst:  152000002 cyc:   72393905 now IPC :2.20727: AVG IPC :2.10045: L2-Pf-HR :0.93525: L2-HR :0.94217: (Sim:0h39m33s) 
CPU  0 inst:  153000000 cyc:   72844909 now IPC :2.21727: AVG IPC :2.10118: L2-Pf-HR :0.93529: L2-HR :0.94223: (Sim:0h39m41s) 
CPU  0 inst:  154000005 cyc:   73296402 now IPC :2.21488: AVG IPC :2.10189: L2-Pf-HR :0.93544: L2-HR :0.94238: (Sim:0h39m48s) 
CPU  0 inst:  155000001 cyc:   73750589 now IPC :2.20173: AVG IPC :2.10252: L2-Pf-HR :0.93578: L2-HR :0.94269: (Sim:0h39m56s) 
CPU  0 inst:  156000002 cyc:   74298851 now IPC :1.82395: AVG IPC :2.10043: L2-Pf-HR :0.93545: L2-HR :0.94235: (Sim:0h40m4s) 
CPU  0 inst:  157000002 cyc:   74745239 now IPC :2.24020: AVG IPC :2.10128: L2-Pf-HR :0.93532: L2-HR :0.94228: (Sim:0h40m12s) 
CPU  0 inst:  158000000 cyc:   75191346 now IPC :2.24161: AVG IPC :2.10212: L2-Pf-HR :0.93518: L2-HR :0.94220: (Sim:0h40m19s) 
CPU  0 inst:  159000002 cyc:   75639479 now IPC :2.23148: AVG IPC :2.10290: L2-Pf-HR :0.93510: L2-HR :0.94217: (Sim:0h40m27s) 
CPU  0 inst:  160000002 cyc:   76087395 now IPC :2.23256: AVG IPC :2.10367: L2-Pf-HR :0.93520: L2-HR :0.94228: (Sim:0h40m35s) 
CPU  0 inst:  161000001 cyc:   76703817 now IPC :1.62226: AVG IPC :2.09975: L2-Pf-HR :0.93479: L2-HR :0.94181: (Sim:0h40m53s) 
CPU  0 inst:  162000003 cyc:   77169329 now IPC :2.14818: AVG IPC :2.10005: L2-Pf-HR :0.93482: L2-HR :0.94184: (Sim:0h41m10s) 
CPU  0 inst:  163000005 cyc:   77637679 now IPC :2.13516: AVG IPC :2.10026: L2-Pf-HR :0.93485: L2-HR :0.94186: (Sim:0h41m27s) 
CPU  0 inst:  164000001 cyc:   78110365 now IPC :2.11556: AVG IPC :2.10036: L2-Pf-HR :0.93492: L2-HR :0.94192: (Sim:0h41m45s) 
CPU  0 inst:  165000000 cyc:   78578364 now IPC :2.13675: AVG IPC :2.10058: L2-Pf-HR :0.93498: L2-HR :0.94198: (Sim:0h42m3s) 
CPU  0 inst:  166000003 cyc:   79050956 now IPC :2.11600: AVG IPC :2.10067: L2-Pf-HR :0.93506: L2-HR :0.94204: (Sim:0h42m20s) 
CPU  0 inst:  167000001 cyc:   79525764 now IPC :2.10611: AVG IPC :2.10070: L2-Pf-HR :0.93530: L2-HR :0.94223: (Sim:0h42m37s) 
CPU  0 inst:  168000001 cyc:   80130267 now IPC :1.65425: AVG IPC :2.09729: L2-Pf-HR :0.93523: L2-HR :0.94206: (Sim:0h42m56s) 
CPU  0 inst:  169000000 cyc:   80593665 now IPC :2.15797: AVG IPC :2.09765: L2-Pf-HR :0.93516: L2-HR :0.94203: (Sim:0h43m13s) 
CPU  0 inst:  170000002 cyc:   81047654 now IPC :2.20270: AVG IPC :2.09824: L2-Pf-HR :0.93518: L2-HR :0.94207: (Sim:0h43m29s) 
CPU  0 inst:  171000001 cyc:   81501495 now IPC :2.20341: AVG IPC :2.09884: L2-Pf-HR :0.93521: L2-HR :0.94212: (Sim:0h43m37s) 
CPU  0 inst:  172000000 cyc:   81953378 now IPC :2.21296: AVG IPC :2.09947: L2-Pf-HR :0.93525: L2-HR :0.94218: (Sim:0h43m52s) 
CPU  0 inst:  173000001 cyc:   82405309 now IPC :2.21273: AVG IPC :2.10010: L2-Pf-HR :0.93529: L2-HR :0.94224: (Sim:0h44m9s) 
CPU  0 inst:  174000003 cyc:   82858508 now IPC :2.20654: AVG IPC :2.10069: L2-Pf-HR :0.93541: L2-HR :0.94236: (Sim:0h44m26s) 
CPU  0 inst:  175000003 cyc:   83310576 now IPC :2.21206: AVG IPC :2.10130: L2-Pf-HR :0.93573: L2-HR :0.94264: (Sim:0h44m43s) 
CPU  0 inst:  176000002 cyc:   83861101 now IPC :1.81645: AVG IPC :2.09941: L2-Pf-HR :0.93541: L2-HR :0.94232: (Sim:0h45m1s) 
CPU  0 inst:  177000001 cyc:   84307079 now IPC :2.24226: AVG IPC :2.10017: L2-Pf-HR :0.93531: L2-HR :0.94227: (Sim:0h45m18s) 
CPU  0 inst:  178000002 cyc:   84751872 now IPC :2.24824: AVG IPC :2.10096: L2-Pf-HR :0.93519: L2-HR :0.94221: (Sim:0h45m34s) 
CPU  0 inst:  179000000 cyc:   85197657 now IPC :2.24323: AVG IPC :2.10171: L2-Pf-HR :0.93514: L2-HR :0.94219: (Sim:0h45m42s) 
CPU  0 inst:  180000003 cyc:   85644618 now IPC :2.23734: AVG IPC :2.10243: L2-Pf-HR :0.93522: L2-HR :0.94229: (Sim:0h45m50s) 
CPU  0 inst:  181000002 cyc:   86269490 now IPC :1.60033: AVG IPC :2.09875: L2-Pf-HR :0.93487: L2-HR :0.94187: (Sim:0h45m58s) 
CPU  0 inst:  182000004 cyc:   86734767 now IPC :2.14926: AVG IPC :2.09902: L2-Pf-HR :0.93489: L2-HR :0.94189: (Sim:0h46m6s) 
CPU  0 inst:  183000000 cyc:   87206764 now IPC :2.11865: AVG IPC :2.09913: L2-Pf-HR :0.93492: L2-HR :0.94192: (Sim:0h46m22s) 
CPU  0 inst:  184000002 cyc:   87677348 now IPC :2.12502: AVG IPC :2.09927: L2-Pf-HR :0.93497: L2-HR :0.94197: (Sim:0h46m39s) 
CPU  0 inst:  185000005 cyc:   88147200 now IPC :2.12834: AVG IPC :2.09943: L2-Pf-HR :0.93500: L2-HR :0.94199: (Sim:0h46m56s) 
CPU  0 inst:  186000003 cyc:   88621003 now IPC :2.11058: AVG IPC :2.09949: L2-Pf-HR :0.93508: L2-HR :0.94206: (Sim:0h47m13s) 
CPU  0 inst:  187000005 cyc:   89095306 now IPC :2.10836: AVG IPC :2.09954: L2-Pf-HR :0.93531: L2-HR :0.94224: (Sim:0h47m30s) 
CPU  0 inst:  188000000 cyc:   89705093 now IPC :1.63991: AVG IPC :2.09638: L2-Pf-HR :0.93525: L2-HR :0.94209: (Sim:0h47m47s) 
CPU  0 inst:  189000001 cyc:   90169224 now IPC :2.15457: AVG IPC :2.09668: L2-Pf-HR :0.93518: L2-HR :0.94206: (Sim:0h48m4s) 
CPU  0 inst:  190000000 cyc:   90622000 now IPC :2.20860: AVG IPC :2.09725: L2-Pf-HR :0.93520: L2-HR :0.94210: (Sim:0h48m21s) 
CPU  0 inst:  191000003 cyc:   91073531 now IPC :2.21469: AVG IPC :2.09784: L2-Pf-HR :0.93523: L2-HR :0.94215: (Sim:0h48m37s) 
CPU  0 inst:  192000000 cyc:   91527346 now IPC :2.20353: AVG IPC :2.09837: L2-Pf-HR :0.93528: L2-HR :0.94221: (Sim:0h48m54s) 
CPU  0 inst:  193000005 cyc:   91976160 now IPC :2.22811: AVG IPC :2.09900: L2-Pf-HR :0.93531: L2-HR :0.94226: (Sim:0h49m11s) 
CPU  0 inst:  194000002 cyc:   92428427 now IPC :2.21108: AVG IPC :2.09956: L2-Pf-HR :0.93543: L2-HR :0.94238: (Sim:0h49m28s) 
CPU  0 inst:  195000002 cyc:   92883592 now IPC :2.19701: AVG IPC :2.10004: L2-Pf-HR :0.93572: L2-HR :0.94264: (Sim:0h49m46s) 
CPU  0 inst:  196000002 cyc:   93428110 now IPC :1.83649: AVG IPC :2.09849: L2-Pf-HR :0.93543: L2-HR :0.94235: (Sim:0h50m4s) 
CPU  0 inst:  197000001 cyc:   93874004 now IPC :2.24268: AVG IPC :2.09918: L2-Pf-HR :0.93534: L2-HR :0.94230: (Sim:0h50m21s) 
CPU  0 inst:  198000000 cyc:   94320131 now IPC :2.24151: AVG IPC :2.09986: L2-Pf-HR :0.93523: L2-HR :0.94224: (Sim:0h50m38s) 
CPU  0 inst:  199000001 cyc:   94767253 now IPC :2.23653: AVG IPC :2.10051: L2-Pf-HR :0.93518: L2-HR :0.94222: (Sim:0h50m56s) 
CPU  0 inst:  200000002 cyc:   95214262 now IPC :2.23709: AVG IPC :2.10116: L2-Pf-HR :0.93526: L2-HR :0.94231: (Sim:0h51m13s) 
CPU  0 inst:  201000000 cyc:   95837783 now IPC :1.60379: AVG IPC :2.09789: L2-Pf-HR :0.93493: L2-HR :0.94193: (Sim:0h51m32s) 
CPU  0 inst:  202000001 cyc:   96305177 now IPC :2.13952: AVG IPC :2.09810: L2-Pf-HR :0.93495: L2-HR :0.94196: (Sim:0h51m49s) 
CPU  0 inst:  203000001 cyc:   96773820 now IPC :2.13382: AVG IPC :2.09827: L2-Pf-HR :0.93497: L2-HR :0.94197: (Sim:0h52m4s) 
CPU  0 inst:  204000003 cyc:   97248960 now IPC :2.10465: AVG IPC :2.09830: L2-Pf-HR :0.93502: L2-HR :0.94201: (Sim:0h52m12s) 
CPU  0 inst:  205000002 cyc:   97717413 now IPC :2.13468: AVG IPC :2.09848: L2-Pf-HR :0.93505: L2-HR :0.94204: (Sim:0h52m20s) 
CPU  0 inst:  206000005 cyc:   98187483 now IPC :2.12735: AVG IPC :2.09862: L2-Pf-HR :0.93513: L2-HR :0.94211: (Sim:0h52m28s) 
CPU  0 inst:  207000003 cyc:   98660175 now IPC :2.11554: AVG IPC :2.09870: L2-Pf-HR :0.93533: L2-HR :0.94227: (Sim:0h52m36s) 
CPU  0 inst:  208000004 cyc:   99270375 now IPC :1.63881: AVG IPC :2.09584: L2-Pf-HR :0.93527: L2-HR :0.94213: (Sim:0h52m44s) 
CPU  0 inst:  209000002 cyc:   99733182 now IPC :2.16072: AVG IPC :2.09615: L2-Pf-HR :0.93521: L2-HR :0.94210: (Sim:0h52m52s) 
CPU  0 inst:  210000001 cyc:  100186743 now IPC :2.20477: AVG IPC :2.09665: L2-Pf-HR :0.93523: L2-HR :0.94214: (Sim:0h53m0s) 
CPU  0 inst:  211000000 cyc:  100639223 now IPC :2.21004: AVG IPC :2.09716: L2-Pf-HR :0.93526: L2-HR :0.94218: (Sim:0h53m8s) 
CPU  0 inst:  212000000 cyc:  101088325 now IPC :2.22667: AVG IPC :2.09774: L2-Pf-HR :0.93530: L2-HR :0.94223: (Sim:0h53m16s) 
CPU  0 inst:  213000000 cyc:  101539912 now IPC :2.21441: AVG IPC :2.09827: L2-Pf-HR :0.93533: L2-HR :0.94228: (Sim:0h53m24s) 
CPU  0 inst:  214000005 cyc:  101991613 now IPC :2.21387: AVG IPC :2.09878: L2-Pf-HR :0.93544: L2-HR :0.94239: (Sim:0h53m32s) 
CPU  0 inst:  215000005 cyc:  102445842 now IPC :2.20153: AVG IPC :2.09924: L2-Pf-HR :0.93570: L2-HR :0.94262: (Sim:0h53m40s) 
CPU  0 inst:  216000001 cyc:  102999226 now IPC :1.80706: AVG IPC :2.09766: L2-Pf-HR :0.93543: L2-HR :0.94235: (Sim:0h53m52s) 
CPU  0 inst:  217000002 cyc:  103446501 now IPC :2.23576: AVG IPC :2.09826: L2-Pf-HR :0.93535: L2-HR :0.94232: (Sim:0h54m1s) 
CPU  0 inst:  218000001 cyc:  103892181 now IPC :2.24376: AVG IPC :2.09889: L2-Pf-HR :0.93525: L2-HR :0.94226: (Sim:0h54m9s) 
CPU  0 inst:  219000003 cyc:  104339285 now IPC :2.23662: AVG IPC :2.09949: L2-Pf-HR :0.93520: L2-HR :0.94224: (Sim:0h54m18s) 
CPU  0 inst:  220000002 cyc:  104787276 now IPC :2.23219: AVG IPC :2.10006: L2-Pf-HR :0.93528: L2-HR :0.94233: (Sim:0h54m35s) 
CPU  0 inst:  221000003 cyc:  105410082 now IPC :1.60564: AVG IPC :2.09711: L2-Pf-HR :0.93498: L2-HR :0.94198: (Sim:0h54m51s) 
CPU  0 inst:  222000005 cyc:  105881992 now IPC :2.11905: AVG IPC :2.09721: L2-Pf-HR :0.93501: L2-HR :0.94201: (Sim:0h54m59s) 
CPU  0 inst:  223000001 cyc:  106348681 now IPC :2.14275: AVG IPC :2.09741: L2-Pf-HR :0.93503: L2-HR :0.94203: (Sim:0h55m7s) 
CPU  0 inst:  224000004 cyc:  106818604 now IPC :2.12801: AVG IPC :2.09755: L2-Pf-HR :0.93508: L2-HR :0.94207: (Sim:0h55m15s) 
CPU  0 inst:  225000003 cyc:  107288999 now IPC :2.12587: AVG IPC :2.09767: L2-Pf-HR :0.93513: L2-HR :0.94211: (Sim:0h55m22s) 
CPU  0 inst:  226000005 cyc:  107754627 now IPC :2.14764: AVG IPC :2.09789: L2-Pf-HR :0.93518: L2-HR :0.94216: (Sim:0h55m30s) 
CPU  0 inst:  227000004 cyc:  108228605 now IPC :2.10980: AVG IPC :2.09794: L2-Pf-HR :0.93536: L2-HR :0.94230: (Sim:0h55m38s) 
CPU  0 inst:  228000001 cyc:  108829888 now IPC :1.66311: AVG IPC :2.09552: L2-Pf-HR :0.93530: L2-HR :0.94217: (Sim:0h55m47s) 
CPU  0 inst:  229000004 cyc:  109290654 now IPC :2.17031: AVG IPC :2.09584: L2-Pf-HR :0.93525: L2-HR :0.94214: (Sim:0h55m55s) 
CPU  0 inst:  230000005 cyc:  109744549 now IPC :2.20315: AVG IPC :2.09628: L2-Pf-HR :0.93527: L2-HR :0.94218: (Sim:0h56m2s) 
CPU  0 inst:  231000004 cyc:  110196892 now IPC :2.21071: AVG IPC :2.09676: L2-Pf-HR :0.93530: L2-HR :0.94222: (Sim:0h56m10s) 
CPU  0 inst:  232000000 cyc:  110650038 now IPC :2.20679: AVG IPC :2.09721: L2-Pf-HR :0.93533: L2-HR :0.94226: (Sim:0h56m18s) 
CPU  0 inst:  233000002 cyc:  111100089 now IPC :2.22197: AVG IPC :2.09772: L2-Pf-HR :0.93535: L2-HR :0.94230: (Sim:0h56m26s) 
CPU  0 inst:  234000000 cyc:  111551454 now IPC :2.21550: AVG IPC :2.09820: L2-Pf-HR :0.93545: L2-HR :0.94240: (Sim:0h56m34s) 
CPU  0 inst:  235000003 cyc:  112005586 now IPC :2.20201: AVG IPC :2.09863: L2-Pf-HR :0.93570: L2-HR :0.94262: (Sim:0h56m42s) 
CPU  0 inst:  236000000 cyc:  112557424 now IPC :1.81212: AVG IPC :2.09721: L2-Pf-HR :0.93545: L2-HR :0.94237: (Sim:0h56m50s) 
CPU  0 inst:  237000000 cyc:  113003747 now IPC :2.24053: AVG IPC :2.09778: L2-Pf-HR :0.93537: L2-HR :0.94233: (Sim:0h56m57s) 
CPU  0 inst:  238000005 cyc:  113449464 now IPC :2.24359: AVG IPC :2.09836: L2-Pf-HR :0.93529: L2-HR :0.94229: (Sim:0h57m5s) 
CPU  0 inst:  239000001 cyc:  113896303 now IPC :2.23793: AVG IPC :2.09891: L2-Pf-HR :0.93525: L2-HR :0.94227: (Sim:0h57m13s) 
CPU  0 inst:  240000000 cyc:  114343870 now IPC :2.23430: AVG IPC :2.09945: L2-Pf-HR :0.93531: L2-HR :0.94235: (Sim:0h57m21s) 
CPU  0 inst:  241000005 cyc:  114967908 now IPC :1.60247: AVG IPC :2.09673: L2-Pf-HR :0.93503: L2-HR :0.94203: (Sim:0h57m29s) 
CPU  0 inst:  242000004 cyc:  115442921 now IPC :2.10520: AVG IPC :2.09676: L2-Pf-HR :0.93504: L2-HR :0.94204: (Sim:0h57m37s) 
CPU  0 inst:  243000003 cyc:  115910412 now IPC :2.13908: AVG IPC :2.09693: L2-Pf-HR :0.93506: L2-HR :0.94206: (Sim:0h57m45s) 
CPU  0 inst:  244000002 cyc:  116381886 now IPC :2.12101: AVG IPC :2.09703: L2-Pf-HR :0.93511: L2-HR :0.94210: (Sim:0h57m53s) 
CPU  0 inst:  245000001 cyc:  116853981 now IPC :2.11822: AVG IPC :2.09712: L2-Pf-HR :0.93514: L2-HR :0.94212: (Sim:0h58m2s) 
CPU  0 inst:  246000003 cyc:  117320618 now IPC :2.14300: AVG IPC :2.09730: L2-Pf-HR :0.93519: L2-HR :0.94217: (Sim:0h58m19s) 
CPU  0 inst:  247000005 cyc:  117793903 now IPC :2.11290: AVG IPC :2.09736: L2-Pf-HR :0.93537: L2-HR :0.94231: (Sim:0h58m36s) 
CPU  0 inst:  248000000 cyc:  118404298 now IPC :1.63828: AVG IPC :2.09498: L2-Pf-HR :0.93530: L2-HR :0.94218: (Sim:0h58m55s) 
CPU  0 inst:  249000002 cyc:  118864513 now IPC :2.17290: AVG IPC :2.09528: L2-Pf-HR :0.93526: L2-HR :0.94216: (Sim:0h59m12s) 
CPU  0 inst:  250000003 cyc:  119316340 now IPC :2.21324: AVG IPC :2.09573: L2-Pf-HR :0.93527: L2-HR :0.94219: (Sim:0h59m23s) 
CPU  0 inst:  251000002 cyc:  119768268 now IPC :2.21274: AVG IPC :2.09618: L2-Pf-HR :0.93531: L2-HR :0.94224: (Sim:0h59m30s) 
CPU  0 inst:  252000001 cyc:  120221611 now IPC :2.20583: AVG IPC :2.09660: L2-Pf-HR :0.93532: L2-HR :0.94227: (Sim:0h59m38s) 
CPU  0 inst:  253000003 cyc:  120674670 now IPC :2.20722: AVG IPC :2.09701: L2-Pf-HR :0.93535: L2-HR :0.94231: (Sim:0h59m46s) 
CPU  0 inst:  254000004 cyc:  121128632 now IPC :2.20283: AVG IPC :2.09741: L2-Pf-HR :0.93544: L2-HR :0.94239: (Sim:0h59m54s) 
CPU  0 inst:  255000000 cyc:  121581816 now IPC :2.20660: AVG IPC :2.09782: L2-Pf-HR :0.93566: L2-HR :0.94259: (Sim:1h0m2s) 
CPU  0 inst:  256000001 cyc:  122122273 now IPC :1.85029: AVG IPC :2.09672: L2-Pf-HR :0.93543: L2-HR :0.94236: (Sim:1h0m10s) 
CPU  0 inst:  257000001 cyc:  122568844 now IPC :2.23929: AVG IPC :2.09724: L2-Pf-HR :0.93536: L2-HR :0.94233: (Sim:1h0m18s) 
CPU  0 inst:  258000000 cyc:  123016181 now IPC :2.23545: AVG IPC :2.09775: L2-Pf-HR :0.93528: L2-HR :0.94228: (Sim:1h0m25s) 
CPU  0 inst:  259000001 cyc:  123462003 now IPC :2.24305: AVG IPC :2.09828: L2-Pf-HR :0.93523: L2-HR :0.94227: (Sim:1h0m33s) 
CPU  0 inst:  260000003 cyc:  123919315 now IPC :2.18670: AVG IPC :2.09861: L2-Pf-HR :0.93526: L2-HR :0.94231: (Sim:1h0m41s) 
CPU  0 inst:  261000003 cyc:  124536600 now IPC :1.62000: AVG IPC :2.09622: L2-Pf-HR :0.93504: L2-HR :0.94204: (Sim:1h0m50s) 
CPU  0 inst:  262000005 cyc:  125010460 now IPC :2.11033: AVG IPC :2.09627: L2-Pf-HR :0.93504: L2-HR :0.94205: (Sim:1h0m58s) 
CPU  0 inst:  263000005 cyc:  125480764 now IPC :2.12628: AVG IPC :2.09638: L2-Pf-HR :0.93505: L2-HR :0.94206: (Sim:1h1m5s) 
CPU  0 inst:  264000003 cyc:  125953068 now IPC :2.11728: AVG IPC :2.09646: L2-Pf-HR :0.93507: L2-HR :0.94208: (Sim:1h1m13s) 
CPU  0 inst:  265000002 cyc:  126428340 now IPC :2.10406: AVG IPC :2.09649: L2-Pf-HR :0.93511: L2-HR :0.94211: (Sim:1h1m26s) 
CPU  0 inst:  266000001 cyc:  126896127 now IPC :2.13772: AVG IPC :2.09664: L2-Pf-HR :0.93516: L2-HR :0.94216: (Sim:1h1m43s) 
CPU  0 inst:  267000000 cyc:  127369093 now IPC :2.11431: AVG IPC :2.09671: L2-Pf-HR :0.93531: L2-HR :0.94228: (Sim:1h2m1s) 
CPU  0 inst:  268000005 cyc:  127983626 now IPC :1.62726: AVG IPC :2.09444: L2-Pf-HR :0.93526: L2-HR :0.94217: (Sim:1h2m20s) 
CPU  0 inst:  269000000 cyc:  128445406 now IPC :2.16552: AVG IPC :2.09470: L2-Pf-HR :0.93522: L2-HR :0.94215: (Sim:1h2m38s) 
CPU  0 inst:  270000001 cyc:  128899204 now IPC :2.20363: AVG IPC :2.09508: L2-Pf-HR :0.93523: L2-HR :0.94217: (Sim:1h2m55s) 
CPU  0 inst:  271000003 cyc:  129351988 now IPC :2.20856: AVG IPC :2.09548: L2-Pf-HR :0.93527: L2-HR :0.94222: (Sim:1h3m13s) 
CPU  0 inst:  272000003 cyc:  129805642 now IPC :2.20432: AVG IPC :2.09587: L2-Pf-HR :0.93528: L2-HR :0.94225: (Sim:1h3m30s) 
CPU  0 inst:  273000004 cyc:  130258433 now IPC :2.20853: AVG IPC :2.09626: L2-Pf-HR :0.93531: L2-HR :0.94228: (Sim:1h3m48s) 
CPU  0 inst:  274000000 cyc:  130712501 now IPC :2.20230: AVG IPC :2.09663: L2-Pf-HR :0.93539: L2-HR :0.94237: (Sim:1h4m5s) 
CPU  0 inst:  275000002 cyc:  131167267 now IPC :2.19894: AVG IPC :2.09699: L2-Pf-HR :0.93559: L2-HR :0.94255: (Sim:1h4m22s) 
CPU  0 inst:  276000001 cyc:  131716607 now IPC :1.82036: AVG IPC :2.09583: L2-Pf-HR :0.93538: L2-HR :0.94233: (Sim:1h4m40s) 
CPU  0 inst:  277000000 cyc:  132163979 now IPC :2.23527: AVG IPC :2.09630: L2-Pf-HR :0.93531: L2-HR :0.94230: (Sim:1h4m58s) 
CPU  0 inst:  278000000 cyc:  132609992 now IPC :2.24209: AVG IPC :2.09680: L2-Pf-HR :0.93524: L2-HR :0.94226: (Sim:1h5m15s) 
CPU  0 inst:  279000003 cyc:  133056624 now IPC :2.23899: AVG IPC :2.09728: L2-Pf-HR :0.93520: L2-HR :0.94225: (Sim:1h5m32s) 
CPU  0 inst:  280000001 cyc:  133521846 now IPC :2.14951: AVG IPC :2.09746: L2-Pf-HR :0.93522: L2-HR :0.94227: (Sim:1h5m50s) 
CPU  0 inst:  281000004 cyc:  134126282 now IPC :1.65444: AVG IPC :2.09545: L2-Pf-HR :0.93502: L2-HR :0.94204: (Sim:1h6m8s) 
CPU  0 inst:  282000000 cyc:  134598720 now IPC :2.11667: AVG IPC :2.09553: L2-Pf-HR :0.93504: L2-HR :0.94205: (Sim:1h6m26s) 
CPU  0 inst:  283000002 cyc:  135066926 now IPC :2.13582: AVG IPC :2.09567: L2-Pf-HR :0.93506: L2-HR :0.94207: (Sim:1h6m44s) 
CPU  0 inst:  284000001 cyc:  135538092 now IPC :2.12239: AVG IPC :2.09576: L2-Pf-HR :0.93510: L2-HR :0.94211: (Sim:1h7m1s) 
CPU  0 inst:  285000000 cyc:  136010427 now IPC :2.11714: AVG IPC :2.09583: L2-Pf-HR :0.93512: L2-HR :0.94213: (Sim:1h7m19s) 
CPU  0 inst:  286000002 cyc:  136480332 now IPC :2.12809: AVG IPC :2.09595: L2-Pf-HR :0.93518: L2-HR :0.94217: (Sim:1h7m37s) 
CPU  0 inst:  287000004 cyc:  136952610 now IPC :2.11740: AVG IPC :2.09602: L2-Pf-HR :0.93533: L2-HR :0.94229: (Sim:1h7m54s) 
CPU  0 inst:  288000005 cyc:  137560591 now IPC :1.64479: AVG IPC :2.09401: L2-Pf-HR :0.93527: L2-HR :0.94218: (Sim:1h8m13s) 
CPU  0 inst:  289000003 cyc:  138019505 now IPC :2.17905: AVG IPC :2.09430: L2-Pf-HR :0.93523: L2-HR :0.94216: (Sim:1h8m30s) 
CPU  0 inst:  290000002 cyc:  138472065 now IPC :2.20965: AVG IPC :2.09468: L2-Pf-HR :0.93523: L2-HR :0.94218: (Sim:1h8m48s) 
CPU  0 inst:  291000001 cyc:  138924524 now IPC :2.21014: AVG IPC :2.09506: L2-Pf-HR :0.93525: L2-HR :0.94221: (Sim:1h9m5s) 
CPU  0 inst:  292000000 cyc:  139377298 now IPC :2.20861: AVG IPC :2.09543: L2-Pf-HR :0.93525: L2-HR :0.94223: (Sim:1h9m23s) 
CPU  0 inst:  293000005 cyc:  139828859 now IPC :2.21455: AVG IPC :2.09581: L2-Pf-HR :0.93526: L2-HR :0.94226: (Sim:1h9m40s) 
CPU  0 inst:  294000000 cyc:  140280202 now IPC :2.21560: AVG IPC :2.09620: L2-Pf-HR :0.93534: L2-HR :0.94233: (Sim:1h9m57s) 
CPU  0 inst:  295000000 cyc:  140735466 now IPC :2.19653: AVG IPC :2.09653: L2-Pf-HR :0.93552: L2-HR :0.94250: (Sim:1h10m15s) 
CPU  0 inst:  296000004 cyc:  141278172 now IPC :1.84263: AVG IPC :2.09555: L2-Pf-HR :0.93531: L2-HR :0.94229: (Sim:1h10m33s) 
CPU  0 inst:  297000000 cyc:  141724022 now IPC :2.24290: AVG IPC :2.09601: L2-Pf-HR :0.93524: L2-HR :0.94225: (Sim:1h10m50s) 
CPU  0 inst:  298000002 cyc:  142168690 now IPC :2.24887: AVG IPC :2.09649: L2-Pf-HR :0.93517: L2-HR :0.94221: (Sim:1h11m8s) 
CPU  0 inst:  299000001 cyc:  142615113 now IPC :2.24003: AVG IPC :2.09695: L2-Pf-HR :0.93513: L2-HR :0.94220: (Sim:1h11m26s) 
CPU  0 inst:  300000004 cyc:  143087405 now IPC :2.11734: AVG IPC :2.09702: L2-Pf-HR :0.93514: L2-HR :0.94221: (Sim:1h11m43s) 
CPU  0 inst:  301000005 cyc:  143677082 now IPC :1.69585: AVG IPC :2.09536: L2-Pf-HR :0.93497: L2-HR :0.94201: (Sim:1h12m1s) 
CPU  0 inst:  302000001 cyc:  144149297 now IPC :2.11767: AVG IPC :2.09543: L2-Pf-HR :0.93499: L2-HR :0.94203: (Sim:1h12m17s) 
CPU  0 inst:  303000003 cyc:  144614471 now IPC :2.14974: AVG IPC :2.09561: L2-Pf-HR :0.93501: L2-HR :0.94205: (Sim:1h12m34s) 
CPU  0 inst:  304000002 cyc:  145087603 now IPC :2.11357: AVG IPC :2.09567: L2-Pf-HR :0.93505: L2-HR :0.94208: (Sim:1h12m51s) 
CPU  0 inst:  305000004 cyc:  145560082 now IPC :2.11650: AVG IPC :2.09573: L2-Pf-HR :0.93507: L2-HR :0.94210: (Sim:1h13m7s) 
CPU  0 inst:  306000001 cyc:  146031224 now IPC :2.12250: AVG IPC :2.09582: L2-Pf-HR :0.93511: L2-HR :0.94214: (Sim:1h13m24s) 
CPU  0 inst:  307000001 cyc:  146505213 now IPC :2.10975: AVG IPC :2.09587: L2-Pf-HR :0.93525: L2-HR :0.94225: (Sim:1h13m40s) 
CPU  0 inst:  308000000 cyc:  147113115 now IPC :1.64500: AVG IPC :2.09399: L2-Pf-HR :0.93521: L2-HR :0.94215: (Sim:1h13m57s) 
CPU  0 inst:  309000002 cyc:  147572636 now IPC :2.17618: AVG IPC :2.09425: L2-Pf-HR :0.93518: L2-HR :0.94214: (Sim:1h14m13s) 
CPU  0 inst:  310000000 cyc:  148026164 now IPC :2.20493: AVG IPC :2.09459: L2-Pf-HR :0.93519: L2-HR :0.94216: (Sim:1h14m30s) 
CPU  0 inst:  311000002 cyc:  148478275 now IPC :2.21185: AVG IPC :2.09495: L2-Pf-HR :0.93521: L2-HR :0.94219: (Sim:1h14m46s) 
CPU  0 inst:  312000005 cyc:  148931262 now IPC :2.20758: AVG IPC :2.09529: L2-Pf-HR :0.93523: L2-HR :0.94222: (Sim:1h15m2s) 
CPU  0 inst:  313000002 cyc:  149383392 now IPC :2.21175: AVG IPC :2.09565: L2-Pf-HR :0.93525: L2-HR :0.94225: (Sim:1h15m17s) 
CPU  0 inst:  314000004 cyc:  149835212 now IPC :2.21328: AVG IPC :2.09601: L2-Pf-HR :0.93533: L2-HR :0.94233: (Sim:1h15m32s) 
CPU  0 inst:  315000001 cyc:  150292090 now IPC :2.18876: AVG IPC :2.09629: L2-Pf-HR :0.93551: L2-HR :0.94249: (Sim:1h15m48s) 
CPU  0 inst:  316000000 cyc:  150839520 now IPC :1.82672: AVG IPC :2.09530: L2-Pf-HR :0.93531: L2-HR :0.94229: (Sim:1h16m4s) 
CPU  0 inst:  317000000 cyc:  151286716 now IPC :2.23616: AVG IPC :2.09572: L2-Pf-HR :0.93526: L2-HR :0.94227: (Sim:1h16m21s) 
CPU  0 inst:  318000004 cyc:  151733123 now IPC :2.24012: AVG IPC :2.09615: L2-Pf-HR :0.93520: L2-HR :0.94223: (Sim:1h16m36s) 
CPU  0 inst:  319000005 cyc:  152178017 now IPC :2.24773: AVG IPC :2.09660: L2-Pf-HR :0.93516: L2-HR :0.94222: (Sim:1h16m49s) 
CPU  0 inst:  320000000 cyc:  152660888 now IPC :2.07094: AVG IPC :2.09652: L2-Pf-HR :0.93517: L2-HR :0.94222: (Sim:1h17m6s) 
CPU  0 inst:  321000000 cyc:  153244285 now IPC :1.71410: AVG IPC :2.09505: L2-Pf-HR :0.93500: L2-HR :0.94204: (Sim:1h17m23s) 
CPU  0 inst:  322000003 cyc:  153716688 now IPC :2.11684: AVG IPC :2.09512: L2-Pf-HR :0.93502: L2-HR :0.94206: (Sim:1h17m39s) 
CPU  0 inst:  323000004 cyc:  154185561 now IPC :2.13278: AVG IPC :2.09523: L2-Pf-HR :0.93504: L2-HR :0.94208: (Sim:1h17m56s) 
CPU  0 inst:  324000000 cyc:  154660153 now IPC :2.10706: AVG IPC :2.09527: L2-Pf-HR :0.93508: L2-HR :0.94210: (Sim:1h18m13s) 
CPU  0 inst:  325000005 cyc:  155134589 now IPC :2.10778: AVG IPC :2.09531: L2-Pf-HR :0.93510: L2-HR :0.94212: (Sim:1h18m29s) 
CPU  0 inst:  326000002 cyc:  155606506 now IPC :2.11901: AVG IPC :2.09538: L2-Pf-HR :0.93514: L2-HR :0.94216: (Sim:1h18m46s) 
CPU  0 inst:  327000003 cyc:  156079100 now IPC :2.11598: AVG IPC :2.09544: L2-Pf-HR :0.93527: L2-HR :0.94227: (Sim:1h19m2s) 
CPU  0 inst:  328000004 cyc:  156679505 now IPC :1.66554: AVG IPC :2.09379: L2-Pf-HR :0.93522: L2-HR :0.94216: (Sim:1h19m20s) 
CPU  0 inst:  329000001 cyc:  157139823 now IPC :2.17240: AVG IPC :2.09402: L2-Pf-HR :0.93520: L2-HR :0.94216: (Sim:1h19m37s) 
CPU  0 inst:  330000004 cyc:  157590801 now IPC :2.21741: AVG IPC :2.09437: L2-Pf-HR :0.93521: L2-HR :0.94218: (Sim:1h19m54s) 
CPU  0 inst:  331000003 cyc:  158044604 now IPC :2.20360: AVG IPC :2.09469: L2-Pf-HR :0.93522: L2-HR :0.94220: (Sim:1h20m8s) 
CPU  0 inst:  332000001 cyc:  158495934 now IPC :2.21567: AVG IPC :2.09503: L2-Pf-HR :0.93524: L2-HR :0.94223: (Sim:1h20m24s) 
CPU  0 inst:  333000002 cyc:  158948732 now IPC :2.20849: AVG IPC :2.09536: L2-Pf-HR :0.93526: L2-HR :0.94226: (Sim:1h20m40s) 
CPU  0 inst:  334000004 cyc:  159401928 now IPC :2.20656: AVG IPC :2.09568: L2-Pf-HR :0.93533: L2-HR :0.94234: (Sim:1h20m57s) 
CPU  0 inst:  335000000 cyc:  159867394 now IPC :2.14838: AVG IPC :2.09583: L2-Pf-HR :0.93550: L2-HR :0.94247: (Sim:1h21m12s) 
CPU  0 inst:  336000001 cyc:  160407693 now IPC :1.85083: AVG IPC :2.09500: L2-Pf-HR :0.93531: L2-HR :0.94230: (Sim:1h21m29s) 
CPU  0 inst:  337000003 cyc:  160854878 now IPC :2.23622: AVG IPC :2.09540: L2-Pf-HR :0.93527: L2-HR :0.94228: (Sim:1h21m40s) 
CPU  0 inst:  338000000 cyc:  161299342 now IPC :2.24989: AVG IPC :2.09583: L2-Pf-HR :0.93520: L2-HR :0.94224: (Sim:1h21m47s) 
CPU  0 inst:  339000003 cyc:  161746205 now IPC :2.23783: AVG IPC :2.09622: L2-Pf-HR :0.93518: L2-HR :0.94224: (Sim:1h21m55s) 
CPU  0 inst:  340000005 cyc:  162235317 now IPC :2.04453: AVG IPC :2.09606: L2-Pf-HR :0.93518: L2-HR :0.94223: (Sim:1h22m3s) 
CPU  0 inst:  341000004 cyc:  162814162 now IPC :1.72758: AVG IPC :2.09475: L2-Pf-HR :0.93503: L2-HR :0.94207: (Sim:1h22m11s) 
CPU  0 inst:  342000000 cyc:  163286819 now IPC :2.11569: AVG IPC :2.09481: L2-Pf-HR :0.93505: L2-HR :0.94208: (Sim:1h22m19s) 
CPU  0 inst:  343000002 cyc:  163750928 now IPC :2.15467: AVG IPC :2.09498: L2-Pf-HR :0.93507: L2-HR :0.94210: (Sim:1h22m27s) 
CPU  0 inst:  344000001 cyc:  164221780 now IPC :2.12381: AVG IPC :2.09506: L2-Pf-HR :0.93509: L2-HR :0.94212: (Sim:1h22m35s) 
CPU  0 inst:  345000003 cyc:  164693732 now IPC :2.11886: AVG IPC :2.09513: L2-Pf-HR :0.93512: L2-HR :0.94214: (Sim:1h22m45s) 
CPU  0 inst:  346000000 cyc:  165166663 now IPC :2.11447: AVG IPC :2.09518: L2-Pf-HR :0.93516: L2-HR :0.94218: (Sim:1h23m2s) 
CPU  0 inst:  347000001 cyc:  165636971 now IPC :2.12627: AVG IPC :2.09527: L2-Pf-HR :0.93529: L2-HR :0.94228: (Sim:1h23m18s) 
CPU  0 inst:  348000004 cyc:  166249954 now IPC :1.63137: AVG IPC :2.09355: L2-Pf-HR :0.93524: L2-HR :0.94218: (Sim:1h23m34s) 
CPU  0 inst:  349000001 cyc:  166710006 now IPC :2.17366: AVG IPC :2.09378: L2-Pf-HR :0.93521: L2-HR :0.94217: (Sim:1h23m42s) 
CPU  0 inst:  350000005 cyc:  167164008 now IPC :2.20264: AVG IPC :2.09407: L2-Pf-HR :0.93522: L2-HR :0.94219: (Sim:1h23m50s) 
CPU  0 inst:  351000001 cyc:  167616607 now IPC :2.20945: AVG IPC :2.09439: L2-Pf-HR :0.93524: L2-HR :0.94222: (Sim:1h23m58s) 
CPU  0 inst:  352000000 cyc:  168068839 now IPC :2.21125: AVG IPC :2.09470: L2-Pf-HR :0.93524: L2-HR :0.94224: (Sim:1h24m6s) 
CPU  0 inst:  353000000 cyc:  168519908 now IPC :2.21696: AVG IPC :2.09503: L2-Pf-HR :0.93526: L2-HR :0.94227: (Sim:1h24m13s) 
CPU  0 inst:  354000004 cyc:  168973720 now IPC :2.20356: AVG IPC :2.09532: L2-Pf-HR :0.93534: L2-HR :0.94234: (Sim:1h24m21s) 
CPU  0 inst:  355000003 cyc:  169446261 now IPC :2.11622: AVG IPC :2.09538: L2-Pf-HR :0.93548: L2-HR :0.94246: (Sim:1h24m29s) 
CPU  0 inst:  356000005 cyc:  169979073 now IPC :1.87684: AVG IPC :2.09469: L2-Pf-HR :0.93531: L2-HR :0.94230: (Sim:1h24m37s) 
CPU  0 inst:  357000004 cyc:  170426761 now IPC :2.23370: AVG IPC :2.09506: L2-Pf-HR :0.93527: L2-HR :0.94228: (Sim:1h24m44s) 
CPU  0 inst:  358000005 cyc:  170871718 now IPC :2.24741: AVG IPC :2.09546: L2-Pf-HR :0.93521: L2-HR :0.94225: (Sim:1h24m52s) 
CPU  0 inst:  359000004 cyc:  171318087 now IPC :2.24030: AVG IPC :2.09584: L2-Pf-HR :0.93519: L2-HR :0.94225: (Sim:1h25m0s) 
CPU  0 inst:  360000000 cyc:  171813839 now IPC :2.01713: AVG IPC :2.09561: L2-Pf-HR :0.93518: L2-HR :0.94223: (Sim:1h25m8s) 
CPU  0 inst:  361000002 cyc:  172384114 now IPC :1.75354: AVG IPC :2.09447: L2-Pf-HR :0.93505: L2-HR :0.94209: (Sim:1h25m16s) 
CPU  0 inst:  362000002 cyc:  172853492 now IPC :2.13048: AVG IPC :2.09457: L2-Pf-HR :0.93507: L2-HR :0.94211: (Sim:1h25m24s) 
CPU  0 inst:  363000000 cyc:  173326751 now IPC :2.11300: AVG IPC :2.09462: L2-Pf-HR :0.93509: L2-HR :0.94212: (Sim:1h25m32s) 
CPU  0 inst:  364000005 cyc:  173798827 now IPC :2.11831: AVG IPC :2.09469: L2-Pf-HR :0.93512: L2-HR :0.94215: (Sim:1h25m40s) 
CPU  0 inst:  365000001 cyc:  174271821 now IPC :2.11418: AVG IPC :2.09474: L2-Pf-HR :0.93515: L2-HR :0.94217: (Sim:1h25m48s) 
CPU  0 inst:  366000000 cyc:  174746381 now IPC :2.10721: AVG IPC :2.09477: L2-Pf-HR :0.93519: L2-HR :0.94220: (Sim:1h25m55s) 
CPU  0 inst:  367000002 cyc:  175214042 now IPC :2.13831: AVG IPC :2.09489: L2-Pf-HR :0.93531: L2-HR :0.94230: (Sim:1h26m3s) 
CPU  0 inst:  368000000 cyc:  175823592 now IPC :1.64055: AVG IPC :2.09331: L2-Pf-HR :0.93526: L2-HR :0.94220: (Sim:1h26m12s) 
CPU  0 inst:  369000001 cyc:  176284243 now IPC :2.17084: AVG IPC :2.09351: L2-Pf-HR :0.93524: L2-HR :0.94220: (Sim:1h26m20s) 
CPU  0 inst:  370000002 cyc:  176738201 now IPC :2.20285: AVG IPC :2.09379: L2-Pf-HR :0.93525: L2-HR :0.94222: (Sim:1h26m27s) 
CPU  0 inst:  371000002 cyc:  177189890 now IPC :2.21391: AVG IPC :2.09410: L2-Pf-HR :0.93527: L2-HR :0.94225: (Sim:1h26m35s) 
CPU  0 inst:  372000001 cyc:  177640468 now IPC :2.21937: AVG IPC :2.09442: L2-Pf-HR :0.93528: L2-HR :0.94227: (Sim:1h26m43s) 
CPU  0 inst:  373000000 cyc:  178093425 now IPC :2.20771: AVG IPC :2.09471: L2-Pf-HR :0.93530: L2-HR :0.94230: (Sim:1h26m51s) 
CPU  0 inst:  374000002 cyc:  178543592 now IPC :2.22140: AVG IPC :2.09503: L2-Pf-HR :0.93537: L2-HR :0.94236: (Sim:1h26m59s) 
CPU  0 inst:  375000002 cyc:  179024328 now IPC :2.08014: AVG IPC :2.09499: L2-Pf-HR :0.93551: L2-HR :0.94247: (Sim:1h27m6s) 
CPU  0 inst:  376000004 cyc:  179548153 now IPC :1.90904: AVG IPC :2.09445: L2-Pf-HR :0.93535: L2-HR :0.94233: (Sim:1h27m14s) 
CPU  0 inst:  377000002 cyc:  179994872 now IPC :2.23854: AVG IPC :2.09481: L2-Pf-HR :0.93530: L2-HR :0.94231: (Sim:1h27m22s) 
CPU  0 inst:  378000005 cyc:  180439384 now IPC :2.24966: AVG IPC :2.09519: L2-Pf-HR :0.93525: L2-HR :0.94228: (Sim:1h27m30s) 
CPU  0 inst:  379000003 cyc:  180886064 now IPC :2.23873: AVG IPC :2.09555: L2-Pf-HR :0.93523: L2-HR :0.94228: (Sim:1h27m37s) 
CPU  0 inst:  380000005 cyc:  181383753 now IPC :2.00929: AVG IPC :2.09531: L2-Pf-HR :0.93522: L2-HR :0.94225: (Sim:1h27m45s) 
CPU  0 inst:  381000003 cyc:  181942877 now IPC :1.78851: AVG IPC :2.09436: L2-Pf-HR :0.93509: L2-HR :0.94212: (Sim:1h27m53s) 
CPU  0 inst:  382000004 cyc:  182413307 now IPC :2.12572: AVG IPC :2.09444: L2-Pf-HR :0.93511: L2-HR :0.94214: (Sim:1h28m1s) 
CPU  0 inst:  383000004 cyc:  182886646 now IPC :2.11265: AVG IPC :2.09449: L2-Pf-HR :0.93512: L2-HR :0.94215: (Sim:1h28m9s) 
CPU  0 inst:  384000000 cyc:  183355527 now IPC :2.13273: AVG IPC :2.09459: L2-Pf-HR :0.93514: L2-HR :0.94216: (Sim:1h28m17s) 
CPU  0 inst:  385000002 cyc:  183826566 now IPC :2.12297: AVG IPC :2.09466: L2-Pf-HR :0.93517: L2-HR :0.94219: (Sim:1h28m25s) 
CPU  0 inst:  386000003 cyc:  184299710 now IPC :2.11352: AVG IPC :2.09471: L2-Pf-HR :0.93522: L2-HR :0.94222: (Sim:1h28m33s) 
CPU  0 inst:  387000000 cyc:  184768375 now IPC :2.13371: AVG IPC :2.09481: L2-Pf-HR :0.93533: L2-HR :0.94231: (Sim:1h28m41s) 
CPU  0 inst:  388000001 cyc:  185377974 now IPC :1.64042: AVG IPC :2.09331: L2-Pf-HR :0.93528: L2-HR :0.94223: (Sim:1h28m49s) 
CPU  0 inst:  389000000 cyc:  185838229 now IPC :2.17271: AVG IPC :2.09350: L2-Pf-HR :0.93526: L2-HR :0.94222: (Sim:1h28m57s) 
CPU  0 inst:  390000002 cyc:  186292571 now IPC :2.20099: AVG IPC :2.09377: L2-Pf-HR :0.93527: L2-HR :0.94224: (Sim:1h29m5s) 
CPU  0 inst:  391000000 cyc:  186744103 now IPC :2.21468: AVG IPC :2.09406: L2-Pf-HR :0.93528: L2-HR :0.94226: (Sim:1h29m13s) 
CPU  0 inst:  392000003 cyc:  187196966 now IPC :2.20818: AVG IPC :2.09434: L2-Pf-HR :0.93530: L2-HR :0.94228: (Sim:1h29m21s) 
CPU  0 inst:  393000001 cyc:  187650206 now IPC :2.20633: AVG IPC :2.09461: L2-Pf-HR :0.93531: L2-HR :0.94231: (Sim:1h29m29s) 
CPU  0 inst:  394000000 cyc:  188103816 now IPC :2.20453: AVG IPC :2.09488: L2-Pf-HR :0.93538: L2-HR :0.94237: (Sim:1h29m37s) 
CPU  0 inst:  395000000 cyc:  188583149 now IPC :2.08623: AVG IPC :2.09485: L2-Pf-HR :0.93550: L2-HR :0.94246: (Sim:1h29m44s) 
CPU  0 inst:  396000001 cyc:  189094921 now IPC :1.95400: AVG IPC :2.09447: L2-Pf-HR :0.93536: L2-HR :0.94234: (Sim:1h29m52s) 
CPU  0 inst:  397000000 cyc:  189540916 now IPC :2.24218: AVG IPC :2.09482: L2-Pf-HR :0.93532: L2-HR :0.94232: (Sim:1h30m0s) 
CPU  0 inst:  398000004 cyc:  189985054 now IPC :2.25156: AVG IPC :2.09519: L2-Pf-HR :0.93527: L2-HR :0.94229: (Sim:1h30m8s) 
CPU  0 inst:  399000003 cyc:  190431680 now IPC :2.23901: AVG IPC :2.09553: L2-Pf-HR :0.93524: L2-HR :0.94228: (Sim:1h30m15s) 
CPU  0 inst:  400000004 cyc:  190943570 now IPC :1.95355: AVG IPC :2.09515: L2-Pf-HR :0.93523: L2-HR :0.94226: (Sim:1h30m30s) 
CPU  0 inst:  401000001 cyc:  191500120 now IPC :1.79678: AVG IPC :2.09427: L2-Pf-HR :0.93512: L2-HR :0.94214: (Sim:1h30m48s) 
CPU  0 inst:  402000003 cyc:  191970782 now IPC :2.12467: AVG IPC :2.09435: L2-Pf-HR :0.93514: L2-HR :0.94215: (Sim:1h31m5s) 
CPU  0 inst:  403000001 cyc:  192439367 now IPC :2.13408: AVG IPC :2.09445: L2-Pf-HR :0.93515: L2-HR :0.94216: (Sim:1h31m22s) 
CPU  0 inst:  404000001 cyc:  192906066 now IPC :2.14271: AVG IPC :2.09456: L2-Pf-HR :0.93517: L2-HR :0.94218: (Sim:1h31m40s) 
CPU  0 inst:  405000004 cyc:  193377549 now IPC :2.12097: AVG IPC :2.09463: L2-Pf-HR :0.93519: L2-HR :0.94220: (Sim:1h31m57s) 
CPU  0 inst:  406000005 cyc:  193849028 now IPC :2.12099: AVG IPC :2.09469: L2-Pf-HR :0.93523: L2-HR :0.94223: (Sim:1h32m14s) 
CPU  0 inst:  407000001 cyc:  194318886 now IPC :2.12829: AVG IPC :2.09477: L2-Pf-HR :0.93534: L2-HR :0.94232: (Sim:1h32m31s) 
CPU  0 inst:  408000001 cyc:  194935993 now IPC :1.62046: AVG IPC :2.09327: L2-Pf-HR :0.93529: L2-HR :0.94223: (Sim:1h32m50s) 
CPU  0 inst:  409000001 cyc:  195395661 now IPC :2.17548: AVG IPC :2.09346: L2-Pf-HR :0.93528: L2-HR :0.94223: (Sim:1h33m7s) 
CPU  0 inst:  410000000 cyc:  195850013 now IPC :2.20093: AVG IPC :2.09371: L2-Pf-HR :0.93529: L2-HR :0.94225: (Sim:1h33m24s) 
CPU  0 inst:  411000004 cyc:  196302065 now IPC :2.21214: AVG IPC :2.09398: L2-Pf-HR :0.93529: L2-HR :0.94227: (Sim:1h33m41s) 
CPU  0 inst:  412000000 cyc:  196755362 now IPC :2.20605: AVG IPC :2.09424: L2-Pf-HR :0.93531: L2-HR :0.94229: (Sim:1h33m58s) 
CPU  0 inst:  413000000 cyc:  197206836 now IPC :2.21497: AVG IPC :2.09452: L2-Pf-HR :0.93533: L2-HR :0.94232: (Sim:1h34m15s) 
CPU  0 inst:  414000003 cyc:  197659063 now IPC :2.21129: AVG IPC :2.09479: L2-Pf-HR :0.93539: L2-HR :0.94237: (Sim:1h34m32s) 
CPU  0 inst:  415000000 cyc:  198149859 now IPC :2.03750: AVG IPC :2.09465: L2-Pf-HR :0.93550: L2-HR :0.94246: (Sim:1h34m49s) 
CPU  0 inst:  416000002 cyc:  198659209 now IPC :1.96329: AVG IPC :2.09431: L2-Pf-HR :0.93538: L2-HR :0.94235: (Sim:1h35m6s) 
CPU  0 inst:  417000001 cyc:  199105762 now IPC :2.23937: AVG IPC :2.09464: L2-Pf-HR :0.93533: L2-HR :0.94232: (Sim:1h35m23s) 
CPU  0 inst:  418000000 cyc:  199549811 now IPC :2.25200: AVG IPC :2.09499: L2-Pf-HR :0.93528: L2-HR :0.94230: (Sim:1h35m40s) 
CPU  0 inst:  419000002 cyc:  199997058 now IPC :2.23591: AVG IPC :2.09530: L2-Pf-HR :0.93526: L2-HR :0.94229: (Sim:1h35m57s) 
CPU  0 inst:  420000003 cyc:  200504808 now IPC :1.96948: AVG IPC :2.09498: L2-Pf-HR :0.93525: L2-HR :0.94227: (Sim:1h36m14s) 
CPU  0 inst:  421000004 cyc:  201057861 now IPC :1.80815: AVG IPC :2.09419: L2-Pf-HR :0.93515: L2-HR :0.94216: (Sim:1h36m32s) 
CPU  0 inst:  422000003 cyc:  201535357 now IPC :2.09426: AVG IPC :2.09419: L2-Pf-HR :0.93516: L2-HR :0.94217: (Sim:1h36m49s) 
CPU  0 inst:  423000004 cyc:  202012130 now IPC :2.09744: AVG IPC :2.09420: L2-Pf-HR :0.93518: L2-HR :0.94218: (Sim:1h37m6s) 
CPU  0 inst:  424000005 cyc:  202483867 now IPC :2.11983: AVG IPC :2.09426: L2-Pf-HR :0.93520: L2-HR :0.94221: (Sim:1h37m24s) 
CPU  0 inst:  425000004 cyc:  202956880 now IPC :2.11410: AVG IPC :2.09431: L2-Pf-HR :0.93523: L2-HR :0.94222: (Sim:1h37m41s) 
CPU  0 inst:  426000001 cyc:  203431989 now IPC :2.10477: AVG IPC :2.09433: L2-Pf-HR :0.93526: L2-HR :0.94225: (Sim:1h37m58s) 
CPU  0 inst:  427000005 cyc:  203902890 now IPC :2.12360: AVG IPC :2.09440: L2-Pf-HR :0.93536: L2-HR :0.94233: (Sim:1h38m15s) 
CPU  0 inst:  428000003 cyc:  204506417 now IPC :1.65692: AVG IPC :2.09310: L2-Pf-HR :0.93531: L2-HR :0.94225: (Sim:1h38m34s) 
CPU  0 inst:  429000003 cyc:  204964050 now IPC :2.18516: AVG IPC :2.09331: L2-Pf-HR :0.93530: L2-HR :0.94225: (Sim:1h38m51s) 
CPU  0 inst:  430000004 cyc:  205416792 now IPC :2.20877: AVG IPC :2.09356: L2-Pf-HR :0.93531: L2-HR :0.94227: (Sim:1h39m8s) 
CPU  0 inst:  431000000 cyc:  205868821 now IPC :2.21224: AVG IPC :2.09383: L2-Pf-HR :0.93532: L2-HR :0.94229: (Sim:1h39m25s) 
CPU  0 inst:  432000004 cyc:  206319977 now IPC :2.21654: AVG IPC :2.09409: L2-Pf-HR :0.93533: L2-HR :0.94231: (Sim:1h39m42s) 
CPU  0 inst:  433000003 cyc:  206773610 now IPC :2.20442: AVG IPC :2.09434: L2-Pf-HR :0.93535: L2-HR :0.94233: (Sim:1h39m59s) 
CPU  0 inst:  434000002 cyc:  207227610 now IPC :2.20264: AVG IPC :2.09458: L2-Pf-HR :0.93541: L2-HR :0.94239: (Sim:1h40m16s) 
CPU  0 inst:  435000002 cyc:  207712153 now IPC :2.06380: AVG IPC :2.09450: L2-Pf-HR :0.93551: L2-HR :0.94246: (Sim:1h40m33s) 
CPU  0 inst:  436000000 cyc:  208214407 now IPC :1.99102: AVG IPC :2.09425: L2-Pf-HR :0.93539: L2-HR :0.94236: (Sim:1h40m51s) 
CPU  0 inst:  437000002 cyc:  208661011 now IPC :2.23912: AVG IPC :2.09456: L2-Pf-HR :0.93535: L2-HR :0.94234: (Sim:1h41m8s) 
CPU  0 inst:  438000004 cyc:  209105437 now IPC :2.25010: AVG IPC :2.09490: L2-Pf-HR :0.93529: L2-HR :0.94231: (Sim:1h41m25s) 
CPU  0 inst:  439000005 cyc:  209551962 now IPC :2.23952: AVG IPC :2.09521: L2-Pf-HR :0.93528: L2-HR :0.94231: (Sim:1h41m41s) 
CPU  0 inst:  440000003 cyc:  210079838 now IPC :1.89438: AVG IPC :2.09470: L2-Pf-HR :0.93526: L2-HR :0.94228: (Sim:1h41m59s) 
CPU  0 inst:  441000000 cyc:  210633015 now IPC :1.80773: AVG IPC :2.09394: L2-Pf-HR :0.93516: L2-HR :0.94218: (Sim:1h42m17s) 
CPU  0 inst:  442000002 cyc:  211103094 now IPC :2.12731: AVG IPC :2.09402: L2-Pf-HR :0.93518: L2-HR :0.94219: (Sim:1h42m34s) 
CPU  0 inst:  443000000 cyc:  211574717 now IPC :2.12033: AVG IPC :2.09408: L2-Pf-HR :0.93519: L2-HR :0.94220: (Sim:1h42m51s) 
CPU  0 inst:  444000000 cyc:  212041597 now IPC :2.14188: AVG IPC :2.09418: L2-Pf-HR :0.93521: L2-HR :0.94222: (Sim:1h43m8s) 
CPU  0 inst:  445000005 cyc:  212512066 now IPC :2.12555: AVG IPC :2.09425: L2-Pf-HR :0.93523: L2-HR :0.94224: (Sim:1h43m26s) 
CPU  0 inst:  446000001 cyc:  212982783 now IPC :2.12441: AVG IPC :2.09432: L2-Pf-HR :0.93527: L2-HR :0.94226: (Sim:1h43m43s) 
CPU  0 inst:  447000003 cyc:  213452013 now IPC :2.13116: AVG IPC :2.09440: L2-Pf-HR :0.93537: L2-HR :0.94235: (Sim:1h43m59s) 
CPU  0 inst:  448000001 cyc:  214065064 now IPC :1.63118: AVG IPC :2.09307: L2-Pf-HR :0.93532: L2-HR :0.94226: (Sim:1h44m9s) 
CPU  0 inst:  449000003 cyc:  214523695 now IPC :2.18041: AVG IPC :2.09325: L2-Pf-HR :0.93530: L2-HR :0.94225: (Sim:1h44m17s) 
CPU  0 inst:  450000002 cyc:  214977561 now IPC :2.20329: AVG IPC :2.09349: L2-Pf-HR :0.93530: L2-HR :0.94227: (Sim:1h44m29s) 
CPU  0 inst:  451000003 cyc:  215430323 now IPC :2.20867: AVG IPC :2.09373: L2-Pf-HR :0.93531: L2-HR :0.94228: (Sim:1h44m45s) 
CPU  0 inst:  452000003 cyc:  215883403 now IPC :2.20712: AVG IPC :2.09397: L2-Pf-HR :0.93531: L2-HR :0.94230: (Sim:1h45m2s) 
CPU  0 inst:  453000003 cyc:  216334882 now IPC :2.21494: AVG IPC :2.09422: L2-Pf-HR :0.93532: L2-HR :0.94232: (Sim:1h45m18s) 
CPU  0 inst:  454000003 cyc:  216788421 now IPC :2.20488: AVG IPC :2.09446: L2-Pf-HR :0.93537: L2-HR :0.94236: (Sim:1h45m34s) 
CPU  0 inst:  455000005 cyc:  217292173 now IPC :1.98511: AVG IPC :2.09420: L2-Pf-HR :0.93546: L2-HR :0.94243: (Sim:1h45m50s) 
CPU  0 inst:  456000004 cyc:  217794771 now IPC :1.98966: AVG IPC :2.09396: L2-Pf-HR :0.93535: L2-HR :0.94233: (Sim:1h46m8s) 
CPU  0 inst:  457000003 cyc:  218241653 now IPC :2.23773: AVG IPC :2.09426: L2-Pf-HR :0.93531: L2-HR :0.94231: (Sim:1h46m23s) 
CPU  0 inst:  458000004 cyc:  218686812 now IPC :2.24639: AVG IPC :2.09457: L2-Pf-HR :0.93525: L2-HR :0.94228: (Sim:1h46m40s) 
CPU  0 inst:  459000000 cyc:  219133966 now IPC :2.23636: AVG IPC :2.09486: L2-Pf-HR :0.93524: L2-HR :0.94228: (Sim:1h46m56s) 
CPU  0 inst:  460000002 cyc:  219659480 now IPC :1.90290: AVG IPC :2.09440: L2-Pf-HR :0.93522: L2-HR :0.94225: (Sim:1h47m12s) 
CPU  0 inst:  461000004 cyc:  220206845 now IPC :1.82694: AVG IPC :2.09373: L2-Pf-HR :0.93514: L2-HR :0.94216: (Sim:1h47m29s) 
CPU  0 inst:  462000000 cyc:  220683348 now IPC :2.09861: AVG IPC :2.09374: L2-Pf-HR :0.93515: L2-HR :0.94216: (Sim:1h47m47s) 
CPU  0 inst:  463000005 cyc:  221157437 now IPC :2.10932: AVG IPC :2.09377: L2-Pf-HR :0.93516: L2-HR :0.94218: (Sim:1h48m4s) 
CPU  0 inst:  464000000 cyc:  221629103 now IPC :2.12013: AVG IPC :2.09383: L2-Pf-HR :0.93518: L2-HR :0.94219: (Sim:1h48m20s) 
CPU  0 inst:  465000003 cyc:  222100903 now IPC :2.11955: AVG IPC :2.09388: L2-Pf-HR :0.93520: L2-HR :0.94221: (Sim:1h48m37s) 
CPU  0 inst:  466000005 cyc:  222573122 now IPC :2.11767: AVG IPC :2.09393: L2-Pf-HR :0.93523: L2-HR :0.94223: (Sim:1h48m45s) 
CPU  0 inst:  467000000 cyc:  223042987 now IPC :2.12826: AVG IPC :2.09401: L2-Pf-HR :0.93532: L2-HR :0.94231: (Sim:1h48m53s) 
CPU  0 inst:  468000000 cyc:  223656242 now IPC :1.63064: AVG IPC :2.09273: L2-Pf-HR :0.93528: L2-HR :0.94223: (Sim:1h49m2s) 
CPU  0 inst:  469000005 cyc:  224113968 now IPC :2.18472: AVG IPC :2.09292: L2-Pf-HR :0.93527: L2-HR :0.94223: (Sim:1h49m10s) 
CPU  0 inst:  470000000 cyc:  224565871 now IPC :2.21285: AVG IPC :2.09316: L2-Pf-HR :0.93528: L2-HR :0.94225: (Sim:1h49m18s) 
CPU  0 inst:  471000001 cyc:  225018011 now IPC :2.21171: AVG IPC :2.09340: L2-Pf-HR :0.93529: L2-HR :0.94227: (Sim:1h49m26s) 
CPU  0 inst:  472000003 cyc:  225470615 now IPC :2.20944: AVG IPC :2.09363: L2-Pf-HR :0.93531: L2-HR :0.94229: (Sim:1h49m34s) 
CPU  0 inst:  473000002 cyc:  225922980 now IPC :2.21060: AVG IPC :2.09387: L2-Pf-HR :0.93532: L2-HR :0.94231: (Sim:1h49m42s) 
CPU  0 inst:  474000000 cyc:  226375627 now IPC :2.20922: AVG IPC :2.09410: L2-Pf-HR :0.93538: L2-HR :0.94236: (Sim:1h49m49s) 
CPU  0 inst:  475000001 cyc:  226878390 now IPC :1.98901: AVG IPC :2.09387: L2-Pf-HR :0.93547: L2-HR :0.94243: (Sim:1h49m58s) 
CPU  0 inst:  476000005 cyc:  227375682 now IPC :2.01090: AVG IPC :2.09369: L2-Pf-HR :0.93537: L2-HR :0.94234: (Sim:1h50m6s) 
CPU  0 inst:  477000002 cyc:  227821583 now IPC :2.24264: AVG IPC :2.09398: L2-Pf-HR :0.93533: L2-HR :0.94232: (Sim:1h50m14s) 
CPU  0 inst:  478000004 cyc:  228266569 now IPC :2.24727: AVG IPC :2.09428: L2-Pf-HR :0.93528: L2-HR :0.94229: (Sim:1h50m21s) 
CPU  0 inst:  479000003 cyc:  228713823 now IPC :2.23586: AVG IPC :2.09456: L2-Pf-HR :0.93527: L2-HR :0.94229: (Sim:1h50m31s) 
CPU  0 inst:  480000000 cyc:  229237355 now IPC :1.91010: AVG IPC :2.09413: L2-Pf-HR :0.93526: L2-HR :0.94226: (Sim:1h50m48s) 
CPU  0 inst:  481000005 cyc:  229784306 now IPC :1.82833: AVG IPC :2.09350: L2-Pf-HR :0.93517: L2-HR :0.94217: (Sim:1h51m6s) 
CPU  0 inst:  482000001 cyc:  230258270 now IPC :2.10986: AVG IPC :2.09353: L2-Pf-HR :0.93518: L2-HR :0.94218: (Sim:1h51m24s) 
CPU  0 inst:  483000003 cyc:  230733130 now IPC :2.10589: AVG IPC :2.09356: L2-Pf-HR :0.93519: L2-HR :0.94219: (Sim:1h51m41s) 
CPU  0 inst:  484000002 cyc:  231199685 now IPC :2.14337: AVG IPC :2.09366: L2-Pf-HR :0.93521: L2-HR :0.94221: (Sim:1h51m59s) 
CPU  0 inst:  485000001 cyc:  231665231 now IPC :2.14801: AVG IPC :2.09377: L2-Pf-HR :0.93522: L2-HR :0.94222: (Sim:1h52m16s) 
CPU  0 inst:  486000000 cyc:  232134126 now IPC :2.13267: AVG IPC :2.09385: L2-Pf-HR :0.93524: L2-HR :0.94224: (Sim:1h52m35s) 
CPU  0 inst:  487000005 cyc:  232607101 now IPC :2.11429: AVG IPC :2.09389: L2-Pf-HR :0.93533: L2-HR :0.94231: (Sim:1h52m54s) 
CPU  0 inst:  488000000 cyc:  233218917 now IPC :1.63447: AVG IPC :2.09268: L2-Pf-HR :0.93528: L2-HR :0.94223: (Sim:1h53m13s) 
CPU  0 inst:  489000001 cyc:  233677606 now IPC :2.18013: AVG IPC :2.09285: L2-Pf-HR :0.93527: L2-HR :0.94223: (Sim:1h53m30s) 
CPU  0 inst:  490000002 cyc:  234130195 now IPC :2.20951: AVG IPC :2.09308: L2-Pf-HR :0.93528: L2-HR :0.94225: (Sim:1h53m47s) 
CPU  0 inst:  491000004 cyc:  234583074 now IPC :2.20810: AVG IPC :2.09330: L2-Pf-HR :0.93529: L2-HR :0.94226: (Sim:1h54m4s) 
CPU  0 inst:  492000004 cyc:  235035799 now IPC :2.20885: AVG IPC :2.09352: L2-Pf-HR :0.93531: L2-HR :0.94229: (Sim:1h54m22s) 
CPU  0 inst:  493000001 cyc:  235488483 now IPC :2.20904: AVG IPC :2.09375: L2-Pf-HR :0.93532: L2-HR :0.94231: (Sim:1h54m39s) 
CPU  0 inst:  494000005 cyc:  235941704 now IPC :2.20644: AVG IPC :2.09396: L2-Pf-HR :0.93538: L2-HR :0.94236: (Sim:1h54m56s) 
CPU  0 inst:  495000005 cyc:  236434163 now IPC :2.03063: AVG IPC :2.09383: L2-Pf-HR :0.93546: L2-HR :0.94242: (Sim:1h55m13s) 
CPU  0 inst:  496000003 cyc:  236928056 now IPC :2.02473: AVG IPC :2.09369: L2-Pf-HR :0.93536: L2-HR :0.94233: (Sim:1h55m31s) 
CPU  0 inst:  497000002 cyc:  237375777 now IPC :2.23353: AVG IPC :2.09395: L2-Pf-HR :0.93533: L2-HR :0.94232: (Sim:1h55m47s) 
CPU  0 inst:  498000001 cyc:  237821041 now IPC :2.24586: AVG IPC :2.09424: L2-Pf-HR :0.93528: L2-HR :0.94229: (Sim:1h56m4s) 
CPU  0 inst:  499000002 cyc:  238266707 now IPC :2.24383: AVG IPC :2.09452: L2-Pf-HR :0.93526: L2-HR :0.94229: (Sim:1h56m21s) 
CPU  0 inst:  500000000 cyc:  238803483 now IPC :1.86297: AVG IPC :2.09400: L2-Pf-HR :0.93525: L2-HR :0.94226: (Sim:1h56m39s) 
CPU  0 inst:  501000003 cyc:  239347848 now IPC :1.83701: AVG IPC :2.09341: L2-Pf-HR :0.93516: L2-HR :0.94217: (Sim:1h56m57s) 
CPU  0 inst:  502000000 cyc:  239821278 now IPC :2.11224: AVG IPC :2.09345: L2-Pf-HR :0.93517: L2-HR :0.94218: (Sim:1h57m14s) 
CPU  0 inst:  503000004 cyc:  240298403 now IPC :2.09590: AVG IPC :2.09345: L2-Pf-HR :0.93518: L2-HR :0.94219: (Sim:1h57m32s) 
CPU  0 inst:  504000000 cyc:  240773262 now IPC :2.10588: AVG IPC :2.09348: L2-Pf-HR :0.93520: L2-HR :0.94220: (Sim:1h57m49s) 
CPU  0 inst:  505000005 cyc:  241243324 now IPC :2.12739: AVG IPC :2.09354: L2-Pf-HR :0.93522: L2-HR :0.94222: (Sim:1h58m6s) 
CPU  0 inst:  506000001 cyc:  241713540 now IPC :2.12667: AVG IPC :2.09361: L2-Pf-HR :0.93525: L2-HR :0.94224: (Sim:1h58m24s) 
CPU  0 inst:  507000003 cyc:  242180474 now IPC :2.14163: AVG IPC :2.09370: L2-Pf-HR :0.93534: L2-HR :0.94231: (Sim:1h58m41s) 
CPU  0 inst:  508000003 cyc:  242790830 now IPC :1.63839: AVG IPC :2.09255: L2-Pf-HR :0.93529: L2-HR :0.94224: (Sim:1h58m59s) 
CPU  0 inst:  509000000 cyc:  243249058 now IPC :2.18231: AVG IPC :2.09272: L2-Pf-HR :0.93528: L2-HR :0.94224: (Sim:1h59m16s) 
CPU  0 inst:  510000005 cyc:  243703011 now IPC :2.20288: AVG IPC :2.09293: L2-Pf-HR :0.93528: L2-HR :0.94225: (Sim:1h59m33s) 
CPU  0 inst:  511000001 cyc:  244155983 now IPC :2.20763: AVG IPC :2.09314: L2-Pf-HR :0.93530: L2-HR :0.94227: (Sim:1h59m51s) 
CPU  0 inst:  512000002 cyc:  244608100 now IPC :2.21182: AVG IPC :2.09336: L2-Pf-HR :0.93531: L2-HR :0.94229: (Sim:2h0m8s) 
CPU  0 inst:  513000004 cyc:  245060902 now IPC :2.20848: AVG IPC :2.09357: L2-Pf-HR :0.93532: L2-HR :0.94231: (Sim:2h0m25s) 
CPU  0 inst:  514000000 cyc:  245513503 now IPC :2.20944: AVG IPC :2.09379: L2-Pf-HR :0.93538: L2-HR :0.94236: (Sim:2h0m42s) 
CPU  0 inst:  515000000 cyc:  246024994 now IPC :1.95507: AVG IPC :2.09350: L2-Pf-HR :0.93545: L2-HR :0.94241: (Sim:2h0m59s) 
CPU  0 inst:  516000002 cyc:  246517186 now IPC :2.03173: AVG IPC :2.09337: L2-Pf-HR :0.93536: L2-HR :0.94233: (Sim:2h1m17s) 
CPU  0 inst:  517000000 cyc:  246963024 now IPC :2.24296: AVG IPC :2.09365: L2-Pf-HR :0.93533: L2-HR :0.94232: (Sim:2h1m34s) 
CPU  0 inst:  518000005 cyc:  247408697 now IPC :2.24381: AVG IPC :2.09392: L2-Pf-HR :0.93528: L2-HR :0.94229: (Sim:2h1m50s) 
CPU  0 inst:  519000005 cyc:  247854371 now IPC :2.24379: AVG IPC :2.09419: L2-Pf-HR :0.93527: L2-HR :0.94229: (Sim:2h2m7s) 
CPU  0 inst:  520000005 cyc:  248389239 now IPC :1.86962: AVG IPC :2.09370: L2-Pf-HR :0.93525: L2-HR :0.94225: (Sim:2h2m25s) 
CPU  0 inst:  521000003 cyc:  248932305 now IPC :1.84139: AVG IPC :2.09315: L2-Pf-HR :0.93517: L2-HR :0.94217: (Sim:2h2m43s) 
CPU  0 inst:  522000000 cyc:  249401477 now IPC :2.13141: AVG IPC :2.09322: L2-Pf-HR :0.93519: L2-HR :0.94219: (Sim:2h3m0s) 
CPU  0 inst:  523000002 cyc:  249873059 now IPC :2.12053: AVG IPC :2.09327: L2-Pf-HR :0.93520: L2-HR :0.94220: (Sim:2h3m17s) 
CPU  0 inst:  524000004 cyc:  250343652 now IPC :2.12498: AVG IPC :2.09333: L2-Pf-HR :0.93522: L2-HR :0.94221: (Sim:2h3m35s) 
CPU  0 inst:  525000003 cyc:  250809906 now IPC :2.14475: AVG IPC :2.09343: L2-Pf-HR :0.93524: L2-HR :0.94223: (Sim:2h3m52s) 
CPU  0 inst:  526000002 cyc:  251282283 now IPC :2.11695: AVG IPC :2.09347: L2-Pf-HR :0.93527: L2-HR :0.94225: (Sim:2h4m9s) 
CPU  0 inst:  527000004 cyc:  251753445 now IPC :2.12242: AVG IPC :2.09353: L2-Pf-HR :0.93535: L2-HR :0.94232: (Sim:2h4m26s) 
CPU  0 inst:  528000002 cyc:  252365596 now IPC :1.63358: AVG IPC :2.09241: L2-Pf-HR :0.93530: L2-HR :0.94225: (Sim:2h4m45s) 
CPU  0 inst:  529000005 cyc:  252822797 now IPC :2.18723: AVG IPC :2.09258: L2-Pf-HR :0.93529: L2-HR :0.94224: (Sim:2h5m2s) 
CPU  0 inst:  530000000 cyc:  253274077 now IPC :2.21591: AVG IPC :2.09280: L2-Pf-HR :0.93529: L2-HR :0.94225: (Sim:2h5m19s) 
CPU  0 inst:  531000002 cyc:  253726231 now IPC :2.21164: AVG IPC :2.09301: L2-Pf-HR :0.93530: L2-HR :0.94227: (Sim:2h5m36s) 
CPU  0 inst:  532000000 cyc:  254178466 now IPC :2.21124: AVG IPC :2.09323: L2-Pf-HR :0.93531: L2-HR :0.94228: (Sim:2h5m53s) 
CPU  0 inst:  533000002 cyc:  254629595 now IPC :2.21667: AVG IPC :2.09344: L2-Pf-HR :0.93531: L2-HR :0.94230: (Sim:2h6m10s) 
CPU  0 inst:  534000002 cyc:  255081630 now IPC :2.21222: AVG IPC :2.09366: L2-Pf-HR :0.93536: L2-HR :0.94234: (Sim:2h6m27s) 
CPU  0 inst:  535000004 cyc:  255599557 now IPC :1.93078: AVG IPC :2.09332: L2-Pf-HR :0.93543: L2-HR :0.94239: (Sim:2h6m44s) 
CPU  0 inst:  536000004 cyc:  256087991 now IPC :2.04736: AVG IPC :2.09324: L2-Pf-HR :0.93534: L2-HR :0.94232: (Sim:2h7m1s) 
CPU  0 inst:  537000004 cyc:  256533309 now IPC :2.24559: AVG IPC :2.09350: L2-Pf-HR :0.93530: L2-HR :0.94230: (Sim:2h7m18s) 
CPU  0 inst:  538000003 cyc:  256978766 now IPC :2.24488: AVG IPC :2.09377: L2-Pf-HR :0.93525: L2-HR :0.94227: (Sim:2h7m35s) 
CPU  0 inst:  539000001 cyc:  257424925 now IPC :2.24135: AVG IPC :2.09402: L2-Pf-HR :0.93524: L2-HR :0.94227: (Sim:2h7m51s) 
CPU  0 inst:  540000003 cyc:  257961342 now IPC :1.86423: AVG IPC :2.09354: L2-Pf-HR :0.93522: L2-HR :0.94223: (Sim:2h8m9s) 
CPU  0 inst:  541000005 cyc:  258494792 now IPC :1.87459: AVG IPC :2.09309: L2-Pf-HR :0.93515: L2-HR :0.94216: (Sim:2h8m26s) 
CPU  0 inst:  542000004 cyc:  258964348 now IPC :2.12967: AVG IPC :2.09316: L2-Pf-HR :0.93516: L2-HR :0.94217: (Sim:2h8m44s) 
CPU  0 inst:  543000003 cyc:  259438460 now IPC :2.10920: AVG IPC :2.09318: L2-Pf-HR :0.93517: L2-HR :0.94218: (Sim:2h9m1s) 
CPU  0 inst:  544000005 cyc:  259910867 now IPC :2.11682: AVG IPC :2.09323: L2-Pf-HR :0.93519: L2-HR :0.94219: (Sim:2h9m18s) 
CPU  0 inst:  545000002 cyc:  260383140 now IPC :2.11741: AVG IPC :2.09327: L2-Pf-HR :0.93520: L2-HR :0.94221: (Sim:2h9m35s) 
CPU  0 inst:  546000000 cyc:  260857258 now IPC :2.10918: AVG IPC :2.09330: L2-Pf-HR :0.93524: L2-HR :0.94223: (Sim:2h9m52s) 
CPU  0 inst:  547000002 cyc:  261328539 now IPC :2.12188: AVG IPC :2.09335: L2-Pf-HR :0.93532: L2-HR :0.94230: (Sim:2h10m9s) 
CPU  0 inst:  548000001 cyc:  261939627 now IPC :1.63642: AVG IPC :2.09228: L2-Pf-HR :0.93527: L2-HR :0.94222: (Sim:2h10m28s) 
CPU  0 inst:  549000005 cyc:  262394812 now IPC :2.19692: AVG IPC :2.09247: L2-Pf-HR :0.93526: L2-HR :0.94223: (Sim:2h10m45s) 
CPU  0 inst:  550000001 cyc:  262847540 now IPC :2.20882: AVG IPC :2.09267: L2-Pf-HR :0.93527: L2-HR :0.94224: (Sim:2h11m2s) 
CPU  0 inst:  551000005 cyc:  263299790 now IPC :2.21118: AVG IPC :2.09287: L2-Pf-HR :0.93528: L2-HR :0.94226: (Sim:2h11m14s) 
CPU  0 inst:  552000001 cyc:  263750463 now IPC :2.21889: AVG IPC :2.09309: L2-Pf-HR :0.93530: L2-HR :0.94228: (Sim:2h11m22s) 
CPU  0 inst:  553000000 cyc:  264202706 now IPC :2.21120: AVG IPC :2.09329: L2-Pf-HR :0.93531: L2-HR :0.94229: (Sim:2h11m30s) 
CPU  0 inst:  554000001 cyc:  264654885 now IPC :2.21152: AVG IPC :2.09349: L2-Pf-HR :0.93536: L2-HR :0.94234: (Sim:2h11m38s) 
CPU  0 inst:  555000002 cyc:  265170964 now IPC :1.93769: AVG IPC :2.09319: L2-Pf-HR :0.93542: L2-HR :0.94238: (Sim:2h11m46s) 
CPU  0 inst:  556000001 cyc:  265653659 now IPC :2.07170: AVG IPC :2.09315: L2-Pf-HR :0.93534: L2-HR :0.94232: (Sim:2h11m54s) 
CPU  0 inst:  557000002 cyc:  266101156 now IPC :2.23465: AVG IPC :2.09339: L2-Pf-HR :0.93531: L2-HR :0.94230: (Sim:2h12m2s) 
CPU  0 inst:  558000001 cyc:  266546597 now IPC :2.24496: AVG IPC :2.09364: L2-Pf-HR :0.93527: L2-HR :0.94228: (Sim:2h12m10s) 
CPU  0 inst:  559000000 cyc:  266994825 now IPC :2.23101: AVG IPC :2.09387: L2-Pf-HR :0.93525: L2-HR :0.94228: (Sim:2h12m19s) 
CPU  0 inst:  560000003 cyc:  267540910 now IPC :1.83122: AVG IPC :2.09334: L2-Pf-HR :0.93523: L2-HR :0.94224: (Sim:2h12m27s) 
CPU  0 inst:  561000003 cyc:  268074163 now IPC :1.87528: AVG IPC :2.09290: L2-Pf-HR :0.93517: L2-HR :0.94217: (Sim:2h12m36s) 
CPU  0 inst:  562000002 cyc:  268543255 now IPC :2.13178: AVG IPC :2.09297: L2-Pf-HR :0.93518: L2-HR :0.94218: (Sim:2h12m44s) 
CPU  0 inst:  563000004 cyc:  269014188 now IPC :2.12345: AVG IPC :2.09302: L2-Pf-HR :0.93519: L2-HR :0.94219: (Sim:2h12m52s) 
CPU  0 inst:  564000005 cyc:  269485486 now IPC :2.12180: AVG IPC :2.09307: L2-Pf-HR :0.93520: L2-HR :0.94221: (Sim:2h13m0s) 
CPU  0 inst:  565000004 cyc:  269954524 now IPC :2.13202: AVG IPC :2.09314: L2-Pf-HR :0.93521: L2-HR :0.94222: (Sim:2h13m8s) 
CPU  0 inst:  566000004 cyc:  270426922 now IPC :2.11686: AVG IPC :2.09318: L2-Pf-HR :0.93524: L2-HR :0.94224: (Sim:2h13m19s) 
CPU  0 inst:  567000003 cyc:  270900701 now IPC :2.11069: AVG IPC :2.09321: L2-Pf-HR :0.93532: L2-HR :0.94230: (Sim:2h13m33s) 
CPU  0 inst:  568000002 cyc:  271512131 now IPC :1.63551: AVG IPC :2.09218: L2-Pf-HR :0.93528: L2-HR :0.94223: (Sim:2h13m42s) 
CPU  0 inst:  569000000 cyc:  271972199 now IPC :2.17359: AVG IPC :2.09232: L2-Pf-HR :0.93527: L2-HR :0.94224: (Sim:2h13m49s) 
CPU  0 inst:  570000000 cyc:  272425024 now IPC :2.20836: AVG IPC :2.09251: L2-Pf-HR :0.93528: L2-HR :0.94225: (Sim:2h13m57s) 
CPU  0 inst:  571000001 cyc:  272877820 now IPC :2.20850: AVG IPC :2.09270: L2-Pf-HR :0.93529: L2-HR :0.94227: (Sim:2h14m5s) 
CPU  0 inst:  572000000 cyc:  273329339 now IPC :2.21474: AVG IPC :2.09291: L2-Pf-HR :0.93530: L2-HR :0.94229: (Sim:2h14m15s) 
CPU  0 inst:  573000001 cyc:  273779452 now IPC :2.22167: AVG IPC :2.09312: L2-Pf-HR :0.93532: L2-HR :0.94230: (Sim:2h14m24s) 
CPU  0 inst:  574000001 cyc:  274231353 now IPC :2.21287: AVG IPC :2.09332: L2-Pf-HR :0.93537: L2-HR :0.94235: (Sim:2h14m32s) 
CPU  0 inst:  575000000 cyc:  274755368 now IPC :1.90834: AVG IPC :2.09296: L2-Pf-HR :0.93542: L2-HR :0.94238: (Sim:2h14m40s) 
CPU  0 inst:  576000001 cyc:  275235353 now IPC :2.08340: AVG IPC :2.09295: L2-Pf-HR :0.93535: L2-HR :0.94232: (Sim:2h14m48s) 
CPU  0 inst:  577000003 cyc:  275682243 now IPC :2.23769: AVG IPC :2.09318: L2-Pf-HR :0.93532: L2-HR :0.94231: (Sim:2h14m55s) 
CPU  0 inst:  578000000 cyc:  276127453 now IPC :2.24612: AVG IPC :2.09343: L2-Pf-HR :0.93529: L2-HR :0.94229: (Sim:2h15m3s) 
CPU  0 inst:  579000000 cyc:  276574857 now IPC :2.23512: AVG IPC :2.09366: L2-Pf-HR :0.93527: L2-HR :0.94229: (Sim:2h15m11s) 
CPU  0 inst:  580000000 cyc:  277124630 now IPC :1.81893: AVG IPC :2.09311: L2-Pf-HR :0.93525: L2-HR :0.94225: (Sim:2h15m19s) 
CPU  0 inst:  581000004 cyc:  277660732 now IPC :1.86532: AVG IPC :2.09267: L2-Pf-HR :0.93519: L2-HR :0.94219: (Sim:2h15m27s) 
CPU  0 inst:  582000000 cyc:  278129548 now IPC :2.13302: AVG IPC :2.09274: L2-Pf-HR :0.93520: L2-HR :0.94220: (Sim:2h15m35s) 
CPU  0 inst:  583000004 cyc:  278598275 now IPC :2.13345: AVG IPC :2.09281: L2-Pf-HR :0.93521: L2-HR :0.94221: (Sim:2h15m43s) 
CPU  0 inst:  584000004 cyc:  279067473 now IPC :2.13130: AVG IPC :2.09287: L2-Pf-HR :0.93522: L2-HR :0.94222: (Sim:2h15m51s) 
CPU  0 inst:  585000000 cyc:  279537673 now IPC :2.12675: AVG IPC :2.09293: L2-Pf-HR :0.93523: L2-HR :0.94223: (Sim:2h15m59s) 
CPU  0 inst:  586000005 cyc:  280012109 now IPC :2.10778: AVG IPC :2.09295: L2-Pf-HR :0.93526: L2-HR :0.94225: (Sim:2h16m7s) 
CPU  0 inst:  587000001 cyc:  280483487 now IPC :2.12143: AVG IPC :2.09300: L2-Pf-HR :0.93534: L2-HR :0.94231: (Sim:2h16m15s) 
CPU  0 inst:  588000000 cyc:  281080958 now IPC :1.67372: AVG IPC :2.09211: L2-Pf-HR :0.93529: L2-HR :0.94224: (Sim:2h16m23s) 
CPU  0 inst:  589000003 cyc:  281534761 now IPC :2.20361: AVG IPC :2.09229: L2-Pf-HR :0.93528: L2-HR :0.94224: (Sim:2h16m31s) 
CPU  0 inst:  590000002 cyc:  281985783 now IPC :2.21718: AVG IPC :2.09249: L2-Pf-HR :0.93529: L2-HR :0.94226: (Sim:2h16m39s) 
CPU  0 inst:  591000004 cyc:  282439314 now IPC :2.20493: AVG IPC :2.09267: L2-Pf-HR :0.93530: L2-HR :0.94227: (Sim:2h16m46s) 
CPU  0 inst:  592000004 cyc:  282889091 now IPC :2.22332: AVG IPC :2.09288: L2-Pf-HR :0.93532: L2-HR :0.94229: (Sim:2h16m54s) 
CPU  0 inst:  593000005 cyc:  283340961 now IPC :2.21303: AVG IPC :2.09307: L2-Pf-HR :0.93533: L2-HR :0.94231: (Sim:2h17m2s) 
CPU  0 inst:  594000001 cyc:  283794859 now IPC :2.20313: AVG IPC :2.09325: L2-Pf-HR :0.93537: L2-HR :0.94236: (Sim:2h17m9s) 
CPU  0 inst:  595000001 cyc:  284319759 now IPC :1.90512: AVG IPC :2.09290: L2-Pf-HR :0.93543: L2-HR :0.94239: (Sim:2h17m17s) 
CPU  0 inst:  596000003 cyc:  284795837 now IPC :2.10050: AVG IPC :2.09291: L2-Pf-HR :0.93535: L2-HR :0.94233: (Sim:2h17m25s) 
CPU  0 inst:  597000001 cyc:  285241619 now IPC :2.24324: AVG IPC :2.09315: L2-Pf-HR :0.93533: L2-HR :0.94232: (Sim:2h17m33s) 
CPU  0 inst:  598000005 cyc:  285687190 now IPC :2.24432: AVG IPC :2.09338: L2-Pf-HR :0.93529: L2-HR :0.94230: (Sim:2h17m41s) 
CPU  0 inst:  599000005 cyc:  286133615 now IPC :2.24002: AVG IPC :2.09361: L2-Pf-HR :0.93528: L2-HR :0.94229: (Sim:2h17m49s) 
CPU  0 inst:  600000002 cyc:  286681761 now IPC :1.82433: AVG IPC :2.09310: L2-Pf-HR :0.93526: L2-HR :0.94226: (Sim:2h17m57s) 
CPU  0 inst:  601000002 cyc:  287211261 now IPC :1.88857: AVG IPC :2.09272: L2-Pf-HR :0.93519: L2-HR :0.94219: (Sim:2h18m4s) 
CPU  0 inst:  602000001 cyc:  287677533 now IPC :2.14467: AVG IPC :2.09280: L2-Pf-HR :0.93521: L2-HR :0.94220: (Sim:2h18m18s) 
CPU  0 inst:  603000003 cyc:  288146715 now IPC :2.13137: AVG IPC :2.09287: L2-Pf-HR :0.93521: L2-HR :0.94221: (Sim:2h18m31s) 
CPU  0 inst:  604000001 cyc:  288618758 now IPC :2.11845: AVG IPC :2.09291: L2-Pf-HR :0.93522: L2-HR :0.94222: (Sim:2h18m38s) 
CPU  0 inst:  605000004 cyc:  289085908 now IPC :2.14065: AVG IPC :2.09299: L2-Pf-HR :0.93524: L2-HR :0.94223: (Sim:2h18m46s) 
CPU  0 inst:  606000003 cyc:  289557677 now IPC :2.11968: AVG IPC :2.09303: L2-Pf-HR :0.93527: L2-HR :0.94226: (Sim:2h18m54s) 
CPU  0 inst:  607000002 cyc:  290027554 now IPC :2.12821: AVG IPC :2.09309: L2-Pf-HR :0.93535: L2-HR :0.94232: (Sim:2h19m2s) 
CPU  0 inst:  608000000 cyc:  290640268 now IPC :1.63208: AVG IPC :2.09211: L2-Pf-HR :0.93530: L2-HR :0.94225: (Sim:2h19m10s) 
CPU  0 inst:  609000003 cyc:  291096987 now IPC :2.18954: AVG IPC :2.09226: L2-Pf-HR :0.93529: L2-HR :0.94225: (Sim:2h19m18s) 
CPU  0 inst:  610000001 cyc:  291549326 now IPC :2.21073: AVG IPC :2.09245: L2-Pf-HR :0.93530: L2-HR :0.94226: (Sim:2h19m25s) 
CPU  0 inst:  611000002 cyc:  291999530 now IPC :2.22122: AVG IPC :2.09265: L2-Pf-HR :0.93531: L2-HR :0.94228: (Sim:2h19m33s) 
CPU  0 inst:  612000005 cyc:  292452615 now IPC :2.20710: AVG IPC :2.09283: L2-Pf-HR :0.93532: L2-HR :0.94230: (Sim:2h19m41s) 
CPU  0 inst:  613000000 cyc:  292903786 now IPC :2.21644: AVG IPC :2.09302: L2-Pf-HR :0.93533: L2-HR :0.94231: (Sim:2h19m48s) 
CPU  0 inst:  614000002 cyc:  293356370 now IPC :2.20954: AVG IPC :2.09320: L2-Pf-HR :0.93538: L2-HR :0.94236: (Sim:2h19m56s) 
CPU  0 inst:  615000002 cyc:  293888534 now IPC :1.87912: AVG IPC :2.09281: L2-Pf-HR :0.93542: L2-HR :0.94238: (Sim:2h20m4s) 
CPU  0 inst:  616000005 cyc:  294359631 now IPC :2.12271: AVG IPC :2.09286: L2-Pf-HR :0.93536: L2-HR :0.94233: (Sim:2h20m11s) 
CPU  0 inst:  617000000 cyc:  294807101 now IPC :2.23478: AVG IPC :2.09307: L2-Pf-HR :0.93533: L2-HR :0.94232: (Sim:2h20m19s) 
CPU  0 inst:  618000005 cyc:  295252489 now IPC :2.24524: AVG IPC :2.09330: L2-Pf-HR :0.93529: L2-HR :0.94229: (Sim:2h20m27s) 
CPU  0 inst:  619000001 cyc:  295698099 now IPC :2.24411: AVG IPC :2.09353: L2-Pf-HR :0.93528: L2-HR :0.94229: (Sim:2h20m34s) 
CPU  0 inst:  620000005 cyc:  296251381 now IPC :1.80740: AVG IPC :2.09299: L2-Pf-HR :0.93526: L2-HR :0.94226: (Sim:2h20m42s) 
CPU  0 inst:  621000003 cyc:  296778749 now IPC :1.89621: AVG IPC :2.09264: L2-Pf-HR :0.93521: L2-HR :0.94220: (Sim:2h20m50s) 
CPU  0 inst:  622000004 cyc:  297248663 now IPC :2.12805: AVG IPC :2.09270: L2-Pf-HR :0.93521: L2-HR :0.94221: (Sim:2h20m58s) 
CPU  0 inst:  623000003 cyc:  297718037 now IPC :2.13050: AVG IPC :2.09276: L2-Pf-HR :0.93522: L2-HR :0.94222: (Sim:2h21m6s) 
CPU  0 inst:  624000003 cyc:  298191466 now IPC :2.11225: AVG IPC :2.09279: L2-Pf-HR :0.93524: L2-HR :0.94223: (Sim:2h21m14s) 
[...]
CPU  0 inst: 1502000001 cyc: 1525593554 now IPC :1.92261: AVG IPC :0.98386: L2-Pf-HR :0.92332: L2-HR :0.90218: (Sim:6h35m7s) 
CPU  0 inst: 1503000003 cyc: 1526042150 now IPC :2.22918: AVG IPC :0.98422: L2-Pf-HR :0.92338: L2-HR :0.90224: (Sim:6h35m24s) 
CPU  0 inst: 1504000001 cyc: 1526565611 now IPC :1.91036: AVG IPC :0.98454: L2-Pf-HR :0.92340: L2-HR :0.90228: (Sim:6h35m41s) 
CPU  0 inst: 1505000003 cyc: 1527069897 now IPC :1.98301: AVG IPC :0.98487: L2-Pf-HR :0.92344: L2-HR :0.90233: (Sim:6h35m58s) 
CPU  0 inst: 1506000003 cyc: 1527575639 now IPC :1.97729: AVG IPC :0.98520: L2-Pf-HR :0.92348: L2-HR :0.90237: (Sim:6h36m15s) 
CPU  0 inst: 1507000003 cyc: 1528024794 now IPC :2.22640: AVG IPC :0.98556: L2-Pf-HR :0.92353: L2-HR :0.90244: (Sim:6h36m32s) 
CPU  0 inst: 1508000005 cyc: 1528537739 now IPC :1.94953: AVG IPC :0.98589: L2-Pf-HR :0.92357: L2-HR :0.90249: (Sim:6h36m49s) 
CPU  0 inst: 1509000002 cyc: 1529030365 now IPC :2.02993: AVG IPC :0.98622: L2-Pf-HR :0.92362: L2-HR :0.90254: (Sim:6h37m7s) 
CPU  0 inst: 1510000005 cyc: 1529511287 now IPC :2.07935: AVG IPC :0.98657: L2-Pf-HR :0.92366: L2-HR :0.90260: (Sim:6h37m24s) 
CPU  0 inst: 1511000001 cyc: 1530000356 now IPC :2.04469: AVG IPC :0.98691: L2-Pf-HR :0.92371: L2-HR :0.90265: (Sim:6h37m40s) 
CPU  0 inst: 1512000005 cyc: 1530609001 now IPC :1.64300: AVG IPC :0.98717: L2-Pf-HR :0.92369: L2-HR :0.90263: (Sim:6h37m54s) 
CPU  0 inst: 1513000000 cyc: 1531117528 now IPC :1.96645: AVG IPC :0.98749: L2-Pf-HR :0.92373: L2-HR :0.90268: (Sim:6h38m2s) 
CPU  0 inst: 1514000001 cyc: 1531653489 now IPC :1.86581: AVG IPC :0.98780: L2-Pf-HR :0.92374: L2-HR :0.90270: (Sim:6h38m10s) 
CPU  0 inst: 1515000004 cyc: 1532213073 now IPC :1.78705: AVG IPC :0.98809: L2-Pf-HR :0.92376: L2-HR :0.90273: (Sim:6h38m18s) 
CPU  0 inst: 1516000002 cyc: 1532740512 now IPC :1.89595: AVG IPC :0.98841: L2-Pf-HR :0.92378: L2-HR :0.90276: (Sim:6h38m27s) 
CPU  0 inst: 1517000004 cyc: 1533204122 now IPC :2.15699: AVG IPC :0.98876: L2-Pf-HR :0.92384: L2-HR :0.90283: (Sim:6h38m34s) 
CPU  0 inst: 1518000000 cyc: 1533725619 now IPC :1.91755: AVG IPC :0.98908: L2-Pf-HR :0.92387: L2-HR :0.90287: (Sim:6h38m43s) 
CPU  0 inst: 1519000001 cyc: 1534235327 now IPC :1.96191: AVG IPC :0.98940: L2-Pf-HR :0.92390: L2-HR :0.90291: (Sim:6h38m51s) 
CPU  0 inst: 1520000001 cyc: 1534756486 now IPC :1.91880: AVG IPC :0.98971: L2-Pf-HR :0.92393: L2-HR :0.90294: (Sim:6h38m59s) 
CPU  0 inst: 1521000002 cyc: 1535207627 now IPC :2.21660: AVG IPC :0.99008: L2-Pf-HR :0.92398: L2-HR :0.90300: (Sim:6h39m7s) 
CPU  0 inst: 1522000001 cyc: 1535730494 now IPC :1.91253: AVG IPC :0.99039: L2-Pf-HR :0.92401: L2-HR :0.90305: (Sim:6h39m15s) 
CPU  0 inst: 1523000001 cyc: 1536231879 now IPC :1.99448: AVG IPC :0.99072: L2-Pf-HR :0.92406: L2-HR :0.90310: (Sim:6h39m23s) 
CPU  0 inst: 1524000003 cyc: 1536746381 now IPC :1.94363: AVG IPC :0.99104: L2-Pf-HR :0.92408: L2-HR :0.90314: (Sim:6h39m31s) 
CPU  0 inst: 1525000000 cyc: 1537196349 now IPC :2.22237: AVG IPC :0.99140: L2-Pf-HR :0.92414: L2-HR :0.90320: (Sim:6h39m39s) 
CPU  0 inst: 1526000001 cyc: 1537724519 now IPC :1.89333: AVG IPC :0.99171: L2-Pf-HR :0.92417: L2-HR :0.90324: (Sim:6h39m48s) 
CPU  0 inst: 1527000000 cyc: 1538216879 now IPC :2.03103: AVG IPC :0.99204: L2-Pf-HR :0.92422: L2-HR :0.90329: (Sim:6h39m56s) 
CPU  0 inst: 1528000001 cyc: 1538697113 now IPC :2.08232: AVG IPC :0.99238: L2-Pf-HR :0.92426: L2-HR :0.90335: (Sim:6h40m4s) 
CPU  0 inst: 1529000002 cyc: 1539190757 now IPC :2.02575: AVG IPC :0.99271: L2-Pf-HR :0.92429: L2-HR :0.90338: (Sim:6h40m12s) 
CPU  0 inst: 1530000003 cyc: 1539705308 now IPC :1.94344: AVG IPC :0.99303: L2-Pf-HR :0.92432: L2-HR :0.90343: (Sim:6h40m20s) 
CPU  0 inst: 1531000005 cyc: 1540162918 now IPC :2.18527: AVG IPC :0.99338: L2-Pf-HR :0.92438: L2-HR :0.90349: (Sim:6h40m28s) 
CPU  0 inst: 1532000000 cyc: 1540647747 now IPC :2.06257: AVG IPC :0.99372: L2-Pf-HR :0.92442: L2-HR :0.90354: (Sim:6h40m36s) 
CPU  0 inst: 1533000003 cyc: 1541162211 now IPC :1.94378: AVG IPC :0.99404: L2-Pf-HR :0.92445: L2-HR :0.90357: (Sim:6h40m45s) 
CPU  0 inst: 1534000002 cyc: 1541755904 now IPC :1.68437: AVG IPC :0.99430: L2-Pf-HR :0.92444: L2-HR :0.90356: (Sim:6h41m4s) 
CPU  0 inst: 1535000001 cyc: 1542222940 now IPC :2.14116: AVG IPC :0.99465: L2-Pf-HR :0.92448: L2-HR :0.90361: (Sim:6h41m20s) 
CPU  0 inst: 1536000005 cyc: 1542809258 now IPC :1.70557: AVG IPC :0.99492: L2-Pf-HR :0.92448: L2-HR :0.90362: (Sim:6h41m36s) 
CPU  0 inst: 1537000002 cyc: 1543371091 now IPC :1.77988: AVG IPC :0.99521: L2-Pf-HR :0.92450: L2-HR :0.90365: (Sim:6h41m54s) 
CPU  0 inst: 1538000005 cyc: 1543908176 now IPC :1.86191: AVG IPC :0.99551: L2-Pf-HR :0.92451: L2-HR :0.90367: (Sim:6h42m12s) 
CPU  0 inst: 1539000005 cyc: 1544357174 now IPC :2.22718: AVG IPC :0.99587: L2-Pf-HR :0.92456: L2-HR :0.90372: (Sim:6h42m29s) 
CPU  0 inst: 1540000003 cyc: 1544889952 now IPC :1.87695: AVG IPC :0.99617: L2-Pf-HR :0.92458: L2-HR :0.90376: (Sim:6h42m47s) 
CPU  0 inst: 1541000004 cyc: 1545401110 now IPC :1.95634: AVG IPC :0.99649: L2-Pf-HR :0.92461: L2-HR :0.90380: (Sim:6h43m4s) 
CPU  0 inst: 1542000003 cyc: 1545914974 now IPC :1.94604: AVG IPC :0.99681: L2-Pf-HR :0.92464: L2-HR :0.90384: (Sim:6h43m22s) 
CPU  0 inst: 1543000004 cyc: 1546363288 now IPC :2.23058: AVG IPC :0.99716: L2-Pf-HR :0.92469: L2-HR :0.90390: (Sim:6h43m38s) 
CPU  0 inst: 1544000005 cyc: 1546888205 now IPC :1.90506: AVG IPC :0.99747: L2-Pf-HR :0.92472: L2-HR :0.90394: (Sim:6h43m55s) 
CPU  0 inst: 1545000000 cyc: 1547377151 now IPC :2.04521: AVG IPC :0.99780: L2-Pf-HR :0.92478: L2-HR :0.90400: (Sim:6h44m11s) 
CPU  0 inst: 1546000004 cyc: 1547856757 now IPC :2.08505: AVG IPC :0.99814: L2-Pf-HR :0.92482: L2-HR :0.90405: (Sim:6h44m28s) 
CPU  0 inst: 1547000005 cyc: 1548352625 now IPC :2.01667: AVG IPC :0.99847: L2-Pf-HR :0.92485: L2-HR :0.90408: (Sim:6h44m46s) 
CPU  0 inst: 1548000000 cyc: 1548884207 now IPC :1.88117: AVG IPC :0.99877: L2-Pf-HR :0.92487: L2-HR :0.90412: (Sim:6h45m4s) 
CPU  0 inst: 1549000000 cyc: 1549341663 now IPC :2.18600: AVG IPC :0.99912: L2-Pf-HR :0.92493: L2-HR :0.90418: (Sim:6h45m20s) 
CPU  0 inst: 1550000002 cyc: 1549838568 now IPC :2.01246: AVG IPC :0.99945: L2-Pf-HR :0.92496: L2-HR :0.90422: (Sim:6h45m36s) 
CPU  0 inst: 1551000003 cyc: 1550349876 now IPC :1.95577: AVG IPC :0.99976: L2-Pf-HR :0.92500: L2-HR :0.90427: (Sim:6h45m53s) 
CPU  0 inst: 1552000003 cyc: 1550862213 now IPC :1.95184: AVG IPC :1.00008: L2-Pf-HR :0.92504: L2-HR :0.90431: (Sim:6h46m11s) 
CPU  0 inst: 1553000000 cyc: 1551307598 now IPC :2.24524: AVG IPC :1.00043: L2-Pf-HR :0.92509: L2-HR :0.90438: (Sim:6h46m27s) 
CPU  0 inst: 1554000005 cyc: 1551807105 now IPC :2.00198: AVG IPC :1.00076: L2-Pf-HR :0.92514: L2-HR :0.90443: (Sim:6h46m44s) 
CPU  0 inst: 1555000001 cyc: 1552311503 now IPC :1.98255: AVG IPC :1.00108: L2-Pf-HR :0.92518: L2-HR :0.90447: (Sim:6h47m2s) 
CPU  0 inst: 1556000002 cyc: 1552914428 now IPC :1.65858: AVG IPC :1.00133: L2-Pf-HR :0.92517: L2-HR :0.90446: (Sim:6h47m20s) 
CPU  0 inst: 1557000003 cyc: 1553377165 now IPC :2.16106: AVG IPC :1.00168: L2-Pf-HR :0.92521: L2-HR :0.90451: (Sim:6h47m36s) 
CPU  0 inst: 1558000003 cyc: 1553972910 now IPC :1.67857: AVG IPC :1.00194: L2-Pf-HR :0.92520: L2-HR :0.90451: (Sim:6h47m54s) 
CPU  0 inst: 1559000003 cyc: 1554522964 now IPC :1.81800: AVG IPC :1.00223: L2-Pf-HR :0.92522: L2-HR :0.90454: (Sim:6h48m11s) 
CPU  0 inst: 1560000000 cyc: 1555061201 now IPC :1.85791: AVG IPC :1.00252: L2-Pf-HR :0.92523: L2-HR :0.90456: (Sim:6h48m29s) 
CPU  0 inst: 1561000001 cyc: 1555510823 now IPC :2.22409: AVG IPC :1.00288: L2-Pf-HR :0.92529: L2-HR :0.90462: (Sim:6h48m45s) 
CPU  0 inst: 1562000002 cyc: 1556039474 now IPC :1.89161: AVG IPC :1.00318: L2-Pf-HR :0.92532: L2-HR :0.90465: (Sim:6h49m3s) 
CPU  0 inst: 1563000004 cyc: 1556520134 now IPC :2.08048: AVG IPC :1.00351: L2-Pf-HR :0.92537: L2-HR :0.90472: (Sim:6h49m19s) 
CPU  0 inst: 1564000000 cyc: 1557001755 now IPC :2.07631: AVG IPC :1.00384: L2-Pf-HR :0.92541: L2-HR :0.90476: (Sim:6h49m35s) 
CPU  0 inst: 1565000001 cyc: 1557522539 now IPC :1.92018: AVG IPC :1.00415: L2-Pf-HR :0.92544: L2-HR :0.90479: (Sim:6h49m53s) 
CPU  0 inst: 1566000002 cyc: 1558039772 now IPC :1.93337: AVG IPC :1.00446: L2-Pf-HR :0.92546: L2-HR :0.90482: (Sim:6h50m11s) 
CPU  0 inst: 1567000001 cyc: 1558494521 now IPC :2.19901: AVG IPC :1.00481: L2-Pf-HR :0.92551: L2-HR :0.90488: (Sim:6h50m27s) 
CPU  0 inst: 1568000003 cyc: 1558994284 now IPC :2.00095: AVG IPC :1.00513: L2-Pf-HR :0.92554: L2-HR :0.90492: (Sim:6h50m44s) 
CPU  0 inst: 1569000000 cyc: 1559525900 now IPC :1.88105: AVG IPC :1.00542: L2-Pf-HR :0.92557: L2-HR :0.90495: (Sim:6h51m2s) 
CPU  0 inst: 1570000001 cyc: 1560051597 now IPC :1.90224: AVG IPC :1.00573: L2-Pf-HR :0.92559: L2-HR :0.90498: (Sim:6h51m20s) 
CPU  0 inst: 1571000002 cyc: 1560496788 now IPC :2.24623: AVG IPC :1.00608: L2-Pf-HR :0.92564: L2-HR :0.90504: (Sim:6h51m36s) 
CPU  0 inst: 1572000000 cyc: 1561005104 now IPC :1.96728: AVG IPC :1.00639: L2-Pf-HR :0.92567: L2-HR :0.90508: (Sim:6h51m53s) 
CPU  0 inst: 1573000002 cyc: 1561515305 now IPC :1.96002: AVG IPC :1.00671: L2-Pf-HR :0.92571: L2-HR :0.90512: (Sim:6h52m10s) 
CPU  0 inst: 1574000000 cyc: 1562021300 now IPC :1.97630: AVG IPC :1.00702: L2-Pf-HR :0.92575: L2-HR :0.90517: (Sim:6h52m26s) 
CPU  0 inst: 1575000005 cyc: 1562465969 now IPC :2.24887: AVG IPC :1.00737: L2-Pf-HR :0.92581: L2-HR :0.90523: (Sim:6h52m38s) 
CPU  0 inst: 1576000004 cyc: 1562962568 now IPC :2.01370: AVG IPC :1.00769: L2-Pf-HR :0.92585: L2-HR :0.90528: (Sim:6h52m45s) 
CPU  0 inst: 1577000002 cyc: 1563457350 now IPC :2.02109: AVG IPC :1.00802: L2-Pf-HR :0.92590: L2-HR :0.90533: (Sim:6h52m53s) 
CPU  0 inst: 1578000000 cyc: 1564045593 now IPC :1.69997: AVG IPC :1.00828: L2-Pf-HR :0.92590: L2-HR :0.90533: (Sim:6h53m2s) 
CPU  0 inst: 1579000003 cyc: 1564543052 now IPC :2.01022: AVG IPC :1.00859: L2-Pf-HR :0.92593: L2-HR :0.90536: (Sim:6h53m10s) 
CPU  0 inst: 1580000000 cyc: 1565149251 now IPC :1.64962: AVG IPC :1.00884: L2-Pf-HR :0.92592: L2-HR :0.90537: (Sim:6h53m19s) 
CPU  0 inst: 1581000003 cyc: 1565635075 now IPC :2.05836: AVG IPC :1.00917: L2-Pf-HR :0.92597: L2-HR :0.90542: (Sim:6h53m26s) 
CPU  0 inst: 1582000002 cyc: 1566173497 now IPC :1.85728: AVG IPC :1.00946: L2-Pf-HR :0.92598: L2-HR :0.90544: (Sim:6h53m34s) 
CPU  0 inst: 1583000005 cyc: 1566697150 now IPC :1.90967: AVG IPC :1.00976: L2-Pf-HR :0.92600: L2-HR :0.90546: (Sim:6h53m43s) 
CPU  0 inst: 1584000000 cyc: 1567236178 now IPC :1.85518: AVG IPC :1.01005: L2-Pf-HR :0.92602: L2-HR :0.90549: (Sim:6h53m51s) 
CPU  0 inst: 1585000001 cyc: 1567690584 now IPC :2.20068: AVG IPC :1.01040: L2-Pf-HR :0.92607: L2-HR :0.90555: (Sim:6h53m58s) 
CPU  0 inst: 1586000003 cyc: 1568187582 now IPC :2.01208: AVG IPC :1.01072: L2-Pf-HR :0.92610: L2-HR :0.90559: (Sim:6h54m6s) 
CPU  0 inst: 1587000005 cyc: 1568708572 now IPC :1.91943: AVG IPC :1.01102: L2-Pf-HR :0.92613: L2-HR :0.90562: (Sim:6h54m14s) 
CPU  0 inst: 1588000004 cyc: 1569232479 now IPC :1.90873: AVG IPC :1.01132: L2-Pf-HR :0.92615: L2-HR :0.90564: (Sim:6h54m23s) 
CPU  0 inst: 1589000004 cyc: 1569677934 now IPC :2.24490: AVG IPC :1.01167: L2-Pf-HR :0.92620: L2-HR :0.90570: (Sim:6h54m30s) 
CPU  0 inst: 1590000003 cyc: 1570181597 now IPC :1.98545: AVG IPC :1.01198: L2-Pf-HR :0.92623: L2-HR :0.90574: (Sim:6h54m38s) 
CPU  0 inst: 1591000001 cyc: 1570713858 now IPC :1.87877: AVG IPC :1.01227: L2-Pf-HR :0.92625: L2-HR :0.90576: (Sim:6h54m46s) 
CPU  0 inst: 1592000003 cyc: 1571229256 now IPC :1.94025: AVG IPC :1.01258: L2-Pf-HR :0.92629: L2-HR :0.90580: (Sim:6h54m54s) 
CPU  0 inst: 1593000000 cyc: 1571675611 now IPC :2.24036: AVG IPC :1.01293: L2-Pf-HR :0.92634: L2-HR :0.90586: (Sim:6h55m2s) 
CPU  0 inst: 1594000005 cyc: 1572176239 now IPC :1.99750: AVG IPC :1.01324: L2-Pf-HR :0.92637: L2-HR :0.90590: (Sim:6h55m10s) 
CPU  0 inst: 1595000005 cyc: 1572688882 now IPC :1.95068: AVG IPC :1.01355: L2-Pf-HR :0.92640: L2-HR :0.90594: (Sim:6h55m18s) 
CPU  0 inst: 1596000005 cyc: 1573157517 now IPC :2.13386: AVG IPC :1.01388: L2-Pf-HR :0.92646: L2-HR :0.90600: (Sim:6h55m26s) 
CPU  0 inst: 1597000002 cyc: 1573651742 now IPC :2.02336: AVG IPC :1.01420: L2-Pf-HR :0.92648: L2-HR :0.90603: (Sim:6h55m34s) 
CPU  0 inst: 1598000003 cyc: 1574147670 now IPC :2.01642: AVG IPC :1.01451: L2-Pf-HR :0.92652: L2-HR :0.90607: (Sim:6h55m43s) 
CPU  0 inst: 1599000002 cyc: 1574630746 now IPC :2.07007: AVG IPC :1.01484: L2-Pf-HR :0.92656: L2-HR :0.90612: (Sim:6h56m0s) 
CPU  0 inst: 1600000000 cyc: 1575121571 now IPC :2.03738: AVG IPC :1.01516: L2-Pf-HR :0.92660: L2-HR :0.90615: (Sim:6h56m17s) 
CPU  0 inst: 1601000003 cyc: 1575721879 now IPC :1.66582: AVG IPC :1.01540: L2-Pf-HR :0.92658: L2-HR :0.90614: (Sim:6h56m34s) 
CPU  0 inst: 1602000002 cyc: 1576313825 now IPC :1.68934: AVG IPC :1.01566: L2-Pf-HR :0.92659: L2-HR :0.90615: (Sim:6h56m50s) 
CPU  0 inst: 1603000003 cyc: 1576773802 now IPC :2.17402: AVG IPC :1.01600: L2-Pf-HR :0.92663: L2-HR :0.90620: (Sim:6h57m7s) 
CPU  0 inst: 1604000000 cyc: 1577328177 now IPC :1.80383: AVG IPC :1.01627: L2-Pf-HR :0.92664: L2-HR :0.90622: (Sim:6h57m24s) 
CPU  0 inst: 1605000000 cyc: 1577836902 now IPC :1.96570: AVG IPC :1.01658: L2-Pf-HR :0.92667: L2-HR :0.90625: (Sim:6h57m42s) 
CPU  0 inst: 1606000003 cyc: 1578378110 now IPC :1.84772: AVG IPC :1.01686: L2-Pf-HR :0.92669: L2-HR :0.90627: (Sim:6h57m59s) 
CPU  0 inst: 1607000003 cyc: 1578822247 now IPC :2.25156: AVG IPC :1.01721: L2-Pf-HR :0.92674: L2-HR :0.90633: (Sim:6h58m14s) 
CPU  0 inst: 1608000004 cyc: 1579332654 now IPC :1.95922: AVG IPC :1.01752: L2-Pf-HR :0.92677: L2-HR :0.90637: (Sim:6h58m30s) 
CPU  0 inst: 1609000001 cyc: 1579856408 now IPC :1.90929: AVG IPC :1.01781: L2-Pf-HR :0.92678: L2-HR :0.90639: (Sim:6h58m48s) 
CPU  0 inst: 1610000004 cyc: 1580385473 now IPC :1.89013: AVG IPC :1.01811: L2-Pf-HR :0.92681: L2-HR :0.90643: (Sim:6h59m5s) 
CPU  0 inst: 1611000004 cyc: 1580833815 now IPC :2.23044: AVG IPC :1.01845: L2-Pf-HR :0.92686: L2-HR :0.90648: (Sim:6h59m22s) 
CPU  0 inst: 1612000002 cyc: 1581343926 now IPC :1.96035: AVG IPC :1.01875: L2-Pf-HR :0.92689: L2-HR :0.90652: (Sim:6h59m39s) 
CPU  0 inst: 1613000002 cyc: 1581863600 now IPC :1.92428: AVG IPC :1.01905: L2-Pf-HR :0.92691: L2-HR :0.90655: (Sim:6h59m56s) 
CPU  0 inst: 1614000000 cyc: 1582334416 now IPC :2.12397: AVG IPC :1.01938: L2-Pf-HR :0.92697: L2-HR :0.90661: (Sim:7h0m12s) 
CPU  0 inst: 1615000003 cyc: 1582844965 now IPC :1.95868: AVG IPC :1.01968: L2-Pf-HR :0.92699: L2-HR :0.90664: (Sim:7h0m28s) 
CPU  0 inst: 1616000005 cyc: 1583346963 now IPC :1.99204: AVG IPC :1.01999: L2-Pf-HR :0.92702: L2-HR :0.90667: (Sim:7h0m45s) 
CPU  0 inst: 1617000000 cyc: 1583869148 now IPC :1.91502: AVG IPC :1.02029: L2-Pf-HR :0.92705: L2-HR :0.90671: (Sim:7h1m3s) 
CPU  0 inst: 1618000001 cyc: 1584322051 now IPC :2.20798: AVG IPC :1.02063: L2-Pf-HR :0.92710: L2-HR :0.90676: (Sim:7h1m19s) 
CPU  0 inst: 1619000003 cyc: 1584832663 now IPC :1.95844: AVG IPC :1.02093: L2-Pf-HR :0.92713: L2-HR :0.90680: (Sim:7h1m36s) 
Finished CPU 0 instr: 1617000002 cyc: 1583852005 AVG IPC: 1.02093 (Sim time: 7h1m36s)

ChampSim completed all CPUs

[ROI Statistics]
Core_0_instructions 1617000002
Core_0_cycles 1583852005
Core_0_IPC 1.02093

Core_0_branch_prediction_accuracy 99.26547
Core_0_branch_MPKI 0.21633
Core_0_average_ROB_occupancy_at_mispredict 611.37180

Core_0_L1D_total_access 1025294387
Core_0_L1D_total_hit 990818128 L1D_total_Hit Ratio: 0.96637
Core_0_L1D_total_miss 34476259
Core_0_L1D_loads 386252746
Core_0_L1D_load_hit 368439718 L1D_load_Hit Ratio: 0.95388
Core_0_L1D_load_miss 17813028
Core_0_L1D_RFOs 44004425
Core_0_L1D_RFO_hit 41863084 L1D_RFO_Hit Ratio: 0.95134
Core_0_L1D_RFO_miss 2141341
Core_0_L1D_prefetches 595037216
Core_0_L1D_prefetch_hit 580515326 L1D_prefetch_Hit Ratio: 0.97559
Core_0_L1D_prefetch_miss 14521890
Core_0_L1D_writebacks 0
Core_0_L1D_writeback_hit 0 L1D_writeback_Hit Ratio: -nan
Core_0_L1D_writeback_miss 0
Core_0_L1D_prefetch_requested 1174477779
Core_0_L1D_prefetch_issued 722561872
Core_0_L1D_prefetch_useful 10229375 L1D_Useful Ratio: 0.01416
Core_0_L1D_prefetch_useless 4310596
Core_0_L1D_prefetch_late 2666093
Core_0_L1D_average_miss_latency 74810191.01277

Core_0_L1I_total_access 250652980
Core_0_L1I_total_hit 250651069 L1I_total_Hit Ratio: 0.99999
Core_0_L1I_total_miss 1911
Core_0_L1I_loads 250652980
Core_0_L1I_load_hit 250651069 L1I_load_Hit Ratio: 0.99999
Core_0_L1I_load_miss 1911
Core_0_L1I_RFOs 0
Core_0_L1I_RFO_hit 0 L1I_RFO_Hit Ratio: -nan
Core_0_L1I_RFO_miss 0
Core_0_L1I_prefetches 0
Core_0_L1I_prefetch_hit 0 L1I_prefetch_Hit Ratio: -nan
Core_0_L1I_prefetch_miss 0
Core_0_L1I_writebacks 0
Core_0_L1I_writeback_hit 0 L1I_writeback_Hit Ratio: -nan
Core_0_L1I_writeback_miss 0
Core_0_L1I_prefetch_requested 0
Core_0_L1I_prefetch_issued 0
Core_0_L1I_prefetch_useful 0 L1I_Useful Ratio: -nan
Core_0_L1I_prefetch_useless 0
Core_0_L1I_prefetch_late 0
Core_0_L1I_average_miss_latency 316.95918

Core_0_L2C_total_access 128509424
Core_0_L2C_total_hit 116531905 L2C_total_Hit Ratio: 0.90680
Core_0_L2C_total_miss 11977519
Core_0_L2C_loads 15150183
Core_0_L2C_load_hit 12479792 L2C_load_Hit Ratio: 0.82374
Core_0_L2C_load_miss 2670391
Core_0_L2C_RFOs 2141285
Core_0_L2C_RFO_hit 141885 L2C_RFO_Hit Ratio: 0.06626
Core_0_L2C_RFO_miss 1999400
Core_0_L2C_prefetches 100288850
Core_0_L2C_prefetch_hit 92981133 L2C_prefetch_Hit Ratio: 0.92713
Core_0_L2C_prefetch_miss 7307717
Core_0_L2C_writebacks 10929106
Core_0_L2C_writeback_hit 10929095 L2C_writeback_Hit Ratio: 1.00000
Core_0_L2C_writeback_miss 11
Core_0_L2C_prefetch_requested 255332722
Core_0_L2C_prefetch_issued 134277327
Core_0_L2C_prefetch_useful 2652845 L2C_Useful Ratio: 0.01976
Core_0_L2C_prefetch_useless 4647253
Core_0_L2C_prefetch_late 1406039
Core_0_L2C_average_miss_latency 290.46043

Core_0_LLC_total_access 18723967
Core_0_LLC_total_hit 7544238 LLC_total_Hit Ratio: 0.40292
Core_0_LLC_total_miss 11179729
Core_0_LLC_loads 1264354
Core_0_LLC_load_hit 475579 LLC_load_Hit Ratio: 0.37614
Core_0_LLC_load_miss 788775
Core_0_LLC_RFOs 1999400
Core_0_LLC_RFO_hit 165 LLC_RFO_Hit Ratio: 0.00008
Core_0_LLC_RFO_miss 1999235
Core_0_LLC_prefetches 8897840
Core_0_LLC_prefetch_hit 538504 LLC_prefetch_Hit Ratio: 0.06052
Core_0_LLC_prefetch_miss 8359336
Core_0_LLC_writebacks 6562373
Core_0_LLC_writeback_hit 6529990 LLC_writeback_Hit Ratio: 0.99507
Core_0_LLC_writeback_miss 32383
Core_0_LLC_prefetch_requested 0
Core_0_LLC_prefetch_issued 0
Core_0_LLC_prefetch_useful 419052 LLC_Useful Ratio: inf
Core_0_LLC_prefetch_useless 7873145
Core_0_LLC_prefetch_late 26231
Core_0_LLC_average_miss_latency 320.70760

Core_0_major_page_fault 0
Core_0_minor_page_fault 76848

CPU 0 L1D next line prefetcher final stats
CPU 0 L2C PC-based stride prefetcher final stats
Stride Degree: 15
MK1  MARKOV_LRU_SIZE: 128
MK1  MARKOV_PREDICTION_PERCENTTHRESHOLD: 40.00000
MK1  OUTLIERS_THRESHOLD_Max: 64
MK1  OUTLIERS_THRESHOLD_Min: 32
MK2  MARKOV_LRU_SIZE: 256
MK2  MARKOV_PREDICTION_PERCENTTHRESHOLD: 30.00000
MK2  OUTLIERS_THRESHOLD_Max: 32
MK2  OUTLIERS_THRESHOLD_Min: 16
MK3  MARKOV_LRU_SIZE: 384
MK3  MARKOV_PREDICTION_PERCENTTHRESHOLD: 25.00000
MK3  OUTLIERS_THRESHOLD_Max: 16
MK3  OUTLIERS_THRESHOLD_Min: 8
MK4  MARKOV_LRU_SIZE: 512
MK4  MARKOV_PREDICTION_PERCENTTHRESHOLD: 20.00000
MK4  OUTLIERS_THRESHOLD_Max: 8
MK4  OUTLIERS_THRESHOLD_Min: 0
IPStride Degree/Access Ratio: 6.26363
MK1 IPDEltaMarkov  Degree/Access Ratio: 0.23068
MK2 IPDEltaMarkov  Degree/Access Ratio: 0.30826
MK3 IPDEltaMarkov  Degree/Access Ratio: 0.58719
MK4 IPDEltaMarkov  Degree/Access Ratio: 1.10412
Channel_0_RQ_row_buffer_hit 5763738
Channel_0_RQ_row_buffer_miss 5383607
Channel_0_WQ_row_buffer_hit 1863155
Channel_0_WQ_row_buffer_miss 4593383
Channel_0_WQ_full 4437
Channel_0_dbus_congested 10705897

avg_congested_cycle 8

EzSearch AVG IPC :1.02093: L2-Pf-HR :0.92713 : L2-HR :0.90680 Uful:0.01976
     > Finished combination: TraceType=770-tot Sim:1617000000 Prefetcher=L2029-SecTOP-L2-MultiMarkovDelta_ip_stride_v4-IPStrS256 L1=next_line
