TRACE: [298000000][GPT-Neo_1_3B]_[h16][s512][d128] Warmup: 2000000 NumTraces: 298000000
L1:ipcp:L2:ipcp
*************************************************
   ChampSim Multicore Out-of-Order Simulator
   Last compiled: Oct 26 2024 20:30:13
*************************************************

trace_0 770-tot_memTraces_v3/memTraces[298000000][GPT-Neo_1_3B]_[h16][s512][d128].champsim.xz
MAIN.cc ln 751 stats print skipped
CPU  0 inst:    1000003 cyc:     498314 now IPC :2.00677: AVG IPC :2.00677: L2-Pf-HR :0.84077: L2-HR :0.80303: (Sim:0h0m19s) 
CPU  0 inst:    2000001 cyc:     983109 now IPC :2.06272: AVG IPC :2.03436: L2-Pf-HR :0.90178: L2-HR :0.86265: (Sim:0h0m39s) 

Warmup complete CPU  0 instructions:    2000001 cycles:     983109 (Simulation time: 0 hr 0 min 39 sec) 

CPU  0 inst:    3000003 cyc:    1539643 now IPC :1.79684: AVG IPC :1.79684: L2-Pf-HR :0.95029: L2-HR :0.90985: (Sim:0h0m56s) 
CPU  0 inst:    4000002 cyc:    2088851 now IPC :1.82080: AVG IPC :1.80874: L2-Pf-HR :0.95160: L2-HR :0.91187: (Sim:0h1m13s) 
CPU  0 inst:    5000004 cyc:    2644934 now IPC :1.79830: AVG IPC :1.80525: L2-Pf-HR :0.95171: L2-HR :0.91090: (Sim:0h1m30s) 
CPU  0 inst:    6000003 cyc:    3194200 now IPC :1.82061: AVG IPC :1.80906: L2-Pf-HR :0.95313: L2-HR :0.91247: (Sim:0h1m46s) 
CPU  0 inst:    7000000 cyc:    3750730 now IPC :1.79684: AVG IPC :1.80661: L2-Pf-HR :0.95900: L2-HR :0.91764: (Sim:0h2m3s) 
CPU  0 inst:    8000001 cyc:    4282179 now IPC :1.88165: AVG IPC :1.81869: L2-Pf-HR :0.96515: L2-HR :0.92282: (Sim:0h2m20s) 
CPU  0 inst:    9000005 cyc:    4881191 now IPC :1.66942: AVG IPC :1.79576: L2-Pf-HR :0.96151: L2-HR :0.91702: (Sim:0h2m37s) 
CPU  0 inst:   10000001 cyc:    5425796 now IPC :1.83619: AVG IPC :1.80071: L2-Pf-HR :0.96340: L2-HR :0.91852: (Sim:0h2m53s) 
CPU  0 inst:   11000000 cyc:    5965270 now IPC :1.85366: AVG IPC :1.80644: L2-Pf-HR :0.96472: L2-HR :0.91994: (Sim:0h3m10s) 
CPU  0 inst:   12000000 cyc:    6498252 now IPC :1.87624: AVG IPC :1.81319: L2-Pf-HR :0.96562: L2-HR :0.92096: (Sim:0h3m27s) 
CPU  0 inst:   13000004 cyc:    7038546 now IPC :1.85085: AVG IPC :1.81655: L2-Pf-HR :0.96646: L2-HR :0.92146: (Sim:0h3m43s) 
CPU  0 inst:   14000001 cyc:    7582133 now IPC :1.83963: AVG IPC :1.81845: L2-Pf-HR :0.96797: L2-HR :0.92246: (Sim:0h4m0s) 
CPU  0 inst:   15000000 cyc:    8139417 now IPC :1.79442: AVG IPC :1.81658: L2-Pf-HR :0.96909: L2-HR :0.92366: (Sim:0h4m17s) 
CPU  0 inst:   16000005 cyc:    8673923 now IPC :1.87090: AVG IPC :1.82035: L2-Pf-HR :0.97096: L2-HR :0.92539: (Sim:0h4m33s) 
CPU  0 inst:   17000005 cyc:    9275636 now IPC :1.66192: AVG IPC :1.80886: L2-Pf-HR :0.96904: L2-HR :0.92252: (Sim:0h4m50s) 
CPU  0 inst:   18000005 cyc:    9815642 now IPC :1.85183: AVG IPC :1.81149: L2-Pf-HR :0.96935: L2-HR :0.92301: (Sim:0h5m7s) 
CPU  0 inst:   19000004 cyc:   10356692 now IPC :1.84826: AVG IPC :1.81361: L2-Pf-HR :0.96991: L2-HR :0.92352: (Sim:0h5m24s) 
CPU  0 inst:   20000004 cyc:   10903602 now IPC :1.82845: AVG IPC :1.81443: L2-Pf-HR :0.97024: L2-HR :0.92375: (Sim:0h5m41s) 
CPU  0 inst:   21000004 cyc:   11453432 now IPC :1.81874: AVG IPC :1.81465: L2-Pf-HR :0.97069: L2-HR :0.92392: (Sim:0h5m57s) 
CPU  0 inst:   22000005 cyc:   11995706 now IPC :1.84409: AVG IPC :1.81610: L2-Pf-HR :0.97126: L2-HR :0.92447: (Sim:0h6m14s) 
CPU  0 inst:   23000005 cyc:   12548311 now IPC :1.80961: AVG IPC :1.81579: L2-Pf-HR :0.97160: L2-HR :0.92509: (Sim:0h6m31s) 
CPU  0 inst:   24000000 cyc:   13078575 now IPC :1.88584: AVG IPC :1.81886: L2-Pf-HR :0.97264: L2-HR :0.92606: (Sim:0h6m47s) 
CPU  0 inst:   25000005 cyc:   13672639 now IPC :1.68333: AVG IPC :1.81252: L2-Pf-HR :0.97112: L2-HR :0.92419: (Sim:0h7m5s) 
CPU  0 inst:   26000001 cyc:   14220476 now IPC :1.82535: AVG IPC :1.81305: L2-Pf-HR :0.97131: L2-HR :0.92434: (Sim:0h7m21s) 
CPU  0 inst:   27000004 cyc:   14758412 now IPC :1.85896: AVG IPC :1.81484: L2-Pf-HR :0.97155: L2-HR :0.92465: (Sim:0h7m38s) 
CPU  0 inst:   28000002 cyc:   15301881 now IPC :1.84003: AVG IPC :1.81580: L2-Pf-HR :0.97171: L2-HR :0.92480: (Sim:0h7m55s) 
CPU  0 inst:   29000001 cyc:   15847077 now IPC :1.83420: AVG IPC :1.81647: L2-Pf-HR :0.97177: L2-HR :0.92490: (Sim:0h8m11s) 
CPU  0 inst:   30000000 cyc:   16385152 now IPC :1.85848: AVG IPC :1.81794: L2-Pf-HR :0.97207: L2-HR :0.92528: (Sim:0h8m28s) 
CPU  0 inst:   31000003 cyc:   16939914 now IPC :1.80258: AVG IPC :1.81741: L2-Pf-HR :0.97237: L2-HR :0.92568: (Sim:0h8m45s) 
CPU  0 inst:   32000002 cyc:   17472185 now IPC :1.87874: AVG IPC :1.81939: L2-Pf-HR :0.97316: L2-HR :0.92634: (Sim:0h9m1s) 
CPU  0 inst:   33000004 cyc:   18070447 now IPC :1.67151: AVG IPC :1.81421: L2-Pf-HR :0.97205: L2-HR :0.92500: (Sim:0h9m18s) 
CPU  0 inst:   34000001 cyc:   18624269 now IPC :1.80563: AVG IPC :1.81394: L2-Pf-HR :0.97223: L2-HR :0.92514: (Sim:0h9m35s) 
CPU  0 inst:   35000004 cyc:   19166921 now IPC :1.84281: AVG IPC :1.81480: L2-Pf-HR :0.97237: L2-HR :0.92540: (Sim:0h9m52s) 
CPU  0 inst:   36000000 cyc:   19714195 now IPC :1.82723: AVG IPC :1.81516: L2-Pf-HR :0.97240: L2-HR :0.92539: (Sim:0h10m9s) 
CPU  0 inst:   37000001 cyc:   20256375 now IPC :1.84441: AVG IPC :1.81599: L2-Pf-HR :0.97259: L2-HR :0.92559: (Sim:0h10m25s) 
CPU  0 inst:   38000003 cyc:   20805641 now IPC :1.82062: AVG IPC :1.81612: L2-Pf-HR :0.97274: L2-HR :0.92574: (Sim:0h10m42s) 
CPU  0 inst:   39000001 cyc:   21373116 now IPC :1.76219: AVG IPC :1.81461: L2-Pf-HR :0.97291: L2-HR :0.92602: (Sim:0h10m59s) 
CPU  0 inst:   40000002 cyc:   21919394 now IPC :1.83057: AVG IPC :1.81503: L2-Pf-HR :0.97347: L2-HR :0.92656: (Sim:0h11m16s) 
CPU  0 inst:   41000004 cyc:   22528610 now IPC :1.64146: AVG IPC :1.81012: L2-Pf-HR :0.97259: L2-HR :0.92550: (Sim:0h11m33s) 
CPU  0 inst:   42000000 cyc:   23084845 now IPC :1.79779: AVG IPC :1.80981: L2-Pf-HR :0.97281: L2-HR :0.92567: (Sim:0h11m50s) 
CPU  0 inst:   43000003 cyc:   23652754 now IPC :1.76085: AVG IPC :1.80859: L2-Pf-HR :0.97295: L2-HR :0.92567: (Sim:0h12m7s) 
CPU  0 inst:   44000005 cyc:   24216860 now IPC :1.77272: AVG IPC :1.80772: L2-Pf-HR :0.97302: L2-HR :0.92573: (Sim:0h12m24s) 
CPU  0 inst:   45000000 cyc:   24781140 now IPC :1.77216: AVG IPC :1.80687: L2-Pf-HR :0.97318: L2-HR :0.92588: (Sim:0h12m40s) 
CPU  0 inst:   46000002 cyc:   25349517 now IPC :1.75940: AVG IPC :1.80576: L2-Pf-HR :0.97314: L2-HR :0.92603: (Sim:0h12m57s) 
CPU  0 inst:   47000004 cyc:   25937108 now IPC :1.70187: AVG IPC :1.80332: L2-Pf-HR :0.97330: L2-HR :0.92624: (Sim:0h13m15s) 
CPU  0 inst:   48000002 cyc:   26493305 now IPC :1.79792: AVG IPC :1.80320: L2-Pf-HR :0.97375: L2-HR :0.92671: (Sim:0h13m31s) 
CPU  0 inst:   49000002 cyc:   27145692 now IPC :1.53283: AVG IPC :1.79646: L2-Pf-HR :0.97298: L2-HR :0.92579: (Sim:0h13m49s) 
CPU  0 inst:   50000003 cyc:   27712612 now IPC :1.76392: AVG IPC :1.79577: L2-Pf-HR :0.97315: L2-HR :0.92594: (Sim:0h14m5s) 
CPU  0 inst:   51000003 cyc:   28286980 now IPC :1.74104: AVG IPC :1.79462: L2-Pf-HR :0.97320: L2-HR :0.92594: (Sim:0h14m22s) 
CPU  0 inst:   52000002 cyc:   28863454 now IPC :1.73468: AVG IPC :1.79338: L2-Pf-HR :0.97324: L2-HR :0.92598: (Sim:0h14m39s) 
CPU  0 inst:   53000004 cyc:   29438132 now IPC :1.74011: AVG IPC :1.79230: L2-Pf-HR :0.97338: L2-HR :0.92611: (Sim:0h14m56s) 
CPU  0 inst:   54000003 cyc:   30021481 now IPC :1.71424: AVG IPC :1.79073: L2-Pf-HR :0.97348: L2-HR :0.92624: (Sim:0h15m13s) 
CPU  0 inst:   55000000 cyc:   30613256 now IPC :1.68983: AVG IPC :1.78872: L2-Pf-HR :0.97360: L2-HR :0.92640: (Sim:0h15m30s) 
CPU  0 inst:   56000004 cyc:   31169925 now IPC :1.79641: AVG IPC :1.78886: L2-Pf-HR :0.97396: L2-HR :0.92679: (Sim:0h15m47s) 
CPU  0 inst:   57000002 cyc:   31842634 now IPC :1.48652: AVG IPC :1.78227: L2-Pf-HR :0.97333: L2-HR :0.92603: (Sim:0h16m5s) 
CPU  0 inst:   58000003 cyc:   32408971 now IPC :1.76573: AVG IPC :1.78197: L2-Pf-HR :0.97337: L2-HR :0.92611: (Sim:0h16m22s) 
CPU  0 inst:   59000003 cyc:   32975041 now IPC :1.76657: AVG IPC :1.78170: L2-Pf-HR :0.97335: L2-HR :0.92615: (Sim:0h16m39s) 
CPU  0 inst:   60000002 cyc:   33544615 now IPC :1.75570: AVG IPC :1.78124: L2-Pf-HR :0.97349: L2-HR :0.92623: (Sim:0h16m56s) 
CPU  0 inst:   61000004 cyc:   34116529 now IPC :1.74852: AVG IPC :1.78068: L2-Pf-HR :0.97351: L2-HR :0.92630: (Sim:0h17m13s) 
CPU  0 inst:   62000003 cyc:   34685426 now IPC :1.75779: AVG IPC :1.78029: L2-Pf-HR :0.97352: L2-HR :0.92638: (Sim:0h17m29s) 
CPU  0 inst:   63000003 cyc:   35282043 now IPC :1.67612: AVG IPC :1.77848: L2-Pf-HR :0.97364: L2-HR :0.92652: (Sim:0h17m47s) 
CPU  0 inst:   64000004 cyc:   35844247 now IPC :1.77872: AVG IPC :1.77848: L2-Pf-HR :0.97399: L2-HR :0.92686: (Sim:0h18m3s) 
CPU  0 inst:   65000005 cyc:   36506543 now IPC :1.50990: AVG IPC :1.77348: L2-Pf-HR :0.97349: L2-HR :0.92627: (Sim:0h18m21s) 
CPU  0 inst:   66000003 cyc:   37075151 now IPC :1.75868: AVG IPC :1.77324: L2-Pf-HR :0.97350: L2-HR :0.92624: (Sim:0h18m38s) 
CPU  0 inst:   67000003 cyc:   37646349 now IPC :1.75071: AVG IPC :1.77289: L2-Pf-HR :0.97356: L2-HR :0.92627: (Sim:0h18m55s) 
CPU  0 inst:   68000005 cyc:   38212803 now IPC :1.76537: AVG IPC :1.77278: L2-Pf-HR :0.97361: L2-HR :0.92637: (Sim:0h19m11s) 
CPU  0 inst:   69000001 cyc:   38793570 now IPC :1.72185: AVG IPC :1.77200: L2-Pf-HR :0.97364: L2-HR :0.92642: (Sim:0h19m28s) 
CPU  0 inst:   70000002 cyc:   39366254 now IPC :1.74617: AVG IPC :1.77161: L2-Pf-HR :0.97370: L2-HR :0.92653: (Sim:0h19m45s) 
CPU  0 inst:   71000000 cyc:   39953715 now IPC :1.70224: AVG IPC :1.77057: L2-Pf-HR :0.97380: L2-HR :0.92664: (Sim:0h20m2s) 
CPU  0 inst:   72000004 cyc:   40501149 now IPC :1.82671: AVG IPC :1.77134: L2-Pf-HR :0.97406: L2-HR :0.92692: (Sim:0h20m19s) 
CPU  0 inst:   73000003 cyc:   41171329 now IPC :1.49213: AVG IPC :1.76669: L2-Pf-HR :0.97363: L2-HR :0.92639: (Sim:0h20m36s) 
CPU  0 inst:   74000005 cyc:   41752482 now IPC :1.72072: AVG IPC :1.76603: L2-Pf-HR :0.97368: L2-HR :0.92639: (Sim:0h20m53s) 
CPU  0 inst:   75000000 cyc:   42328783 now IPC :1.73520: AVG IPC :1.76560: L2-Pf-HR :0.97370: L2-HR :0.92639: (Sim:0h21m10s) 
CPU  0 inst:   76000005 cyc:   42897277 now IPC :1.75904: AVG IPC :1.76551: L2-Pf-HR :0.97380: L2-HR :0.92650: (Sim:0h21m27s) 
CPU  0 inst:   77000001 cyc:   43476626 now IPC :1.72607: AVG IPC :1.76498: L2-Pf-HR :0.97381: L2-HR :0.92654: (Sim:0h21m44s) 
CPU  0 inst:   78000003 cyc:   44050012 now IPC :1.74403: AVG IPC :1.76470: L2-Pf-HR :0.97388: L2-HR :0.92663: (Sim:0h22m1s) 
CPU  0 inst:   79000000 cyc:   44639248 now IPC :1.69711: AVG IPC :1.76378: L2-Pf-HR :0.97392: L2-HR :0.92668: (Sim:0h22m18s) 
CPU  0 inst:   80000004 cyc:   45191283 now IPC :1.81149: AVG IPC :1.76438: L2-Pf-HR :0.97414: L2-HR :0.92694: (Sim:0h22m34s) 
CPU  0 inst:   81000005 cyc:   45848104 now IPC :1.52249: AVG IPC :1.76084: L2-Pf-HR :0.97376: L2-HR :0.92646: (Sim:0h22m52s) 
CPU  0 inst:   82000002 cyc:   46423197 now IPC :1.73884: AVG IPC :1.76056: L2-Pf-HR :0.97380: L2-HR :0.92645: (Sim:0h23m9s) 
CPU  0 inst:   83000005 cyc:   46992254 now IPC :1.75730: AVG IPC :1.76052: L2-Pf-HR :0.97389: L2-HR :0.92652: (Sim:0h23m26s) 
CPU  0 inst:   84000002 cyc:   47559370 now IPC :1.76330: AVG IPC :1.76055: L2-Pf-HR :0.97391: L2-HR :0.92656: (Sim:0h23m42s) 
CPU  0 inst:   85000002 cyc:   48127417 now IPC :1.76042: AVG IPC :1.76055: L2-Pf-HR :0.97394: L2-HR :0.92662: (Sim:0h23m59s) 
CPU  0 inst:   86000003 cyc:   48699260 now IPC :1.74873: AVG IPC :1.76041: L2-Pf-HR :0.97400: L2-HR :0.92668: (Sim:0h24m16s) 
CPU  0 inst:   87000005 cyc:   49288472 now IPC :1.69719: AVG IPC :1.75964: L2-Pf-HR :0.97405: L2-HR :0.92674: (Sim:0h24m33s) 
CPU  0 inst:   88000005 cyc:   49845322 now IPC :1.79582: AVG IPC :1.76005: L2-Pf-HR :0.97427: L2-HR :0.92698: (Sim:0h24m50s) 
CPU  0 inst:   89000002 cyc:   50474684 now IPC :1.58891: AVG IPC :1.75787: L2-Pf-HR :0.97394: L2-HR :0.92654: (Sim:0h25m7s) 
CPU  0 inst:   90000001 cyc:   51057093 now IPC :1.71700: AVG IPC :1.75740: L2-Pf-HR :0.97398: L2-HR :0.92655: (Sim:0h25m24s) 
CPU  0 inst:   91000003 cyc:   51629599 now IPC :1.74671: AVG IPC :1.75728: L2-Pf-HR :0.97405: L2-HR :0.92661: (Sim:0h25m41s) 
CPU  0 inst:   92000002 cyc:   52205097 now IPC :1.73762: AVG IPC :1.75706: L2-Pf-HR :0.97408: L2-HR :0.92666: (Sim:0h25m58s) 
CPU  0 inst:   93000004 cyc:   52781534 now IPC :1.73480: AVG IPC :1.75681: L2-Pf-HR :0.97411: L2-HR :0.92669: (Sim:0h26m15s) 
CPU  0 inst:   94000000 cyc:   53356679 now IPC :1.73869: AVG IPC :1.75661: L2-Pf-HR :0.97418: L2-HR :0.92674: (Sim:0h26m32s) 
CPU  0 inst:   95000005 cyc:   53946129 now IPC :1.69651: AVG IPC :1.75594: L2-Pf-HR :0.97420: L2-HR :0.92679: (Sim:0h26m49s) 
CPU  0 inst:   96000005 cyc:   54504793 now IPC :1.78998: AVG IPC :1.75630: L2-Pf-HR :0.97440: L2-HR :0.92702: (Sim:0h27m6s) 
CPU  0 inst:   97000005 cyc:   55160143 now IPC :1.52590: AVG IPC :1.75351: L2-Pf-HR :0.97407: L2-HR :0.92661: (Sim:0h27m23s) 
CPU  0 inst:   98000004 cyc:   55738623 now IPC :1.72867: AVG IPC :1.75325: L2-Pf-HR :0.97406: L2-HR :0.92660: (Sim:0h27m40s) 
CPU  0 inst:   99000000 cyc:   56309387 now IPC :1.75203: AVG IPC :1.75324: L2-Pf-HR :0.97408: L2-HR :0.92667: (Sim:0h27m57s) 
CPU  0 inst:  100000005 cyc:   56883531 now IPC :1.74173: AVG IPC :1.75312: L2-Pf-HR :0.97411: L2-HR :0.92671: (Sim:0h28m14s) 
CPU  0 inst:  101000001 cyc:   57455282 now IPC :1.74901: AVG IPC :1.75308: L2-Pf-HR :0.97417: L2-HR :0.92678: (Sim:0h28m31s) 
CPU  0 inst:  102000000 cyc:   58037682 now IPC :1.71703: AVG IPC :1.75271: L2-Pf-HR :0.97420: L2-HR :0.92678: (Sim:0h28m48s) 
CPU  0 inst:  103000003 cyc:   58623887 now IPC :1.70589: AVG IPC :1.75223: L2-Pf-HR :0.97423: L2-HR :0.92685: (Sim:0h29m5s) 
CPU  0 inst:  104000002 cyc:   59184082 now IPC :1.78509: AVG IPC :1.75255: L2-Pf-HR :0.97443: L2-HR :0.92705: (Sim:0h29m21s) 
CPU  0 inst:  105000002 cyc:   59834911 now IPC :1.53650: AVG IPC :1.75016: L2-Pf-HR :0.97416: L2-HR :0.92667: (Sim:0h29m39s) 
CPU  0 inst:  106000001 cyc:   60411970 now IPC :1.73292: AVG IPC :1.74999: L2-Pf-HR :0.97424: L2-HR :0.92670: (Sim:0h29m55s) 
CPU  0 inst:  107000003 cyc:   60998527 now IPC :1.70487: AVG IPC :1.74955: L2-Pf-HR :0.97425: L2-HR :0.92672: (Sim:0h30m12s) 
CPU  0 inst:  108000000 cyc:   61577554 now IPC :1.72703: AVG IPC :1.74934: L2-Pf-HR :0.97427: L2-HR :0.92676: (Sim:0h30m29s) 
CPU  0 inst:  109000003 cyc:   62150079 now IPC :1.74665: AVG IPC :1.74931: L2-Pf-HR :0.97431: L2-HR :0.92683: (Sim:0h30m46s) 
CPU  0 inst:  110000000 cyc:   62730487 now IPC :1.72292: AVG IPC :1.74906: L2-Pf-HR :0.97432: L2-HR :0.92683: (Sim:0h31m3s) 
CPU  0 inst:  111000000 cyc:   63317117 now IPC :1.70465: AVG IPC :1.74864: L2-Pf-HR :0.97436: L2-HR :0.92689: (Sim:0h31m20s) 
CPU  0 inst:  112000002 cyc:   63874039 now IPC :1.79559: AVG IPC :1.74906: L2-Pf-HR :0.97452: L2-HR :0.92706: (Sim:0h31m37s) 
CPU  0 inst:  113000001 cyc:   64511219 now IPC :1.56941: AVG IPC :1.74726: L2-Pf-HR :0.97427: L2-HR :0.92671: (Sim:0h31m54s) 
CPU  0 inst:  114000001 cyc:   65085747 now IPC :1.74056: AVG IPC :1.74720: L2-Pf-HR :0.97432: L2-HR :0.92676: (Sim:0h32m11s) 
CPU  0 inst:  115000000 cyc:   65660163 now IPC :1.74090: AVG IPC :1.74714: L2-Pf-HR :0.97430: L2-HR :0.92678: (Sim:0h32m28s) 
CPU  0 inst:  116000005 cyc:   66230942 now IPC :1.75200: AVG IPC :1.74718: L2-Pf-HR :0.97429: L2-HR :0.92682: (Sim:0h32m45s) 
CPU  0 inst:  117000000 cyc:   66806058 now IPC :1.73877: AVG IPC :1.74711: L2-Pf-HR :0.97434: L2-HR :0.92686: (Sim:0h33m2s) 
CPU  0 inst:  118000000 cyc:   67387446 now IPC :1.72002: AVG IPC :1.74687: L2-Pf-HR :0.97433: L2-HR :0.92686: (Sim:0h33m19s) 
CPU  0 inst:  119000001 cyc:   67985009 now IPC :1.67347: AVG IPC :1.74622: L2-Pf-HR :0.97434: L2-HR :0.92692: (Sim:0h33m36s) 
CPU  0 inst:  120000001 cyc:   68543019 now IPC :1.79208: AVG IPC :1.74660: L2-Pf-HR :0.97449: L2-HR :0.92708: (Sim:0h33m52s) 
CPU  0 inst:  121000002 cyc:   69180196 now IPC :1.56942: AVG IPC :1.74494: L2-Pf-HR :0.97426: L2-HR :0.92676: (Sim:0h34m10s) 
CPU  0 inst:  122000005 cyc:   69751353 now IPC :1.75084: AVG IPC :1.74499: L2-Pf-HR :0.97430: L2-HR :0.92679: (Sim:0h34m26s) 
CPU  0 inst:  123000000 cyc:   70324652 now IPC :1.74428: AVG IPC :1.74499: L2-Pf-HR :0.97427: L2-HR :0.92682: (Sim:0h34m43s) 
CPU  0 inst:  124000000 cyc:   70895410 now IPC :1.75206: AVG IPC :1.74504: L2-Pf-HR :0.97433: L2-HR :0.92687: (Sim:0h35m0s) 
CPU  0 inst:  125000004 cyc:   71468957 now IPC :1.74354: AVG IPC :1.74503: L2-Pf-HR :0.97433: L2-HR :0.92688: (Sim:0h35m17s) 
CPU  0 inst:  126000003 cyc:   72049806 now IPC :1.72162: AVG IPC :1.74484: L2-Pf-HR :0.97433: L2-HR :0.92689: (Sim:0h35m34s) 
CPU  0 inst:  127000002 cyc:   72636791 now IPC :1.70362: AVG IPC :1.74450: L2-Pf-HR :0.97437: L2-HR :0.92695: (Sim:0h35m51s) 
CPU  0 inst:  128000001 cyc:   73190433 now IPC :1.80622: AVG IPC :1.74498: L2-Pf-HR :0.97451: L2-HR :0.92711: (Sim:0h36m8s) 
CPU  0 inst:  129000004 cyc:   74982621 now IPC :0.55798: AVG IPC :1.71623: L2-Pf-HR :0.97182: L2-HR :0.92143: (Sim:0h36m32s) 
CPU  0 inst:  130000000 cyc:   79222519 now IPC :0.23585: AVG IPC :1.63600: L2-Pf-HR :0.96374: L2-HR :0.90481: (Sim:0h37m16s) 
CPU  0 inst:  131000000 cyc:   84314443 now IPC :0.19639: AVG IPC :1.54804: L2-Pf-HR :0.95605: L2-HR :0.88944: (Sim:0h38m5s) 
CPU  0 inst:  132000004 cyc:   87537390 now IPC :0.31028: AVG IPC :1.50195: L2-Pf-HR :0.95337: L2-HR :0.88651: (Sim:0h38m36s) 
CPU  0 inst:  133000000 cyc:   90709467 now IPC :0.31525: AVG IPC :1.45999: L2-Pf-HR :0.95098: L2-HR :0.88427: (Sim:0h39m7s) 
CPU  0 inst:  134000000 cyc:   93881253 now IPC :0.31528: AVG IPC :1.42091: L2-Pf-HR :0.94859: L2-HR :0.88204: (Sim:0h39m39s) 
CPU  0 inst:  135000004 cyc:   97052812 now IPC :0.31530: AVG IPC :1.38441: L2-Pf-HR :0.94623: L2-HR :0.87983: (Sim:0h40m10s) 
CPU  0 inst:  136000000 cyc:  100224959 now IPC :0.31524: AVG IPC :1.35024: L2-Pf-HR :0.94388: L2-HR :0.87764: (Sim:0h40m41s) 
CPU  0 inst:  137000000 cyc:  103396802 now IPC :0.31527: AVG IPC :1.31818: L2-Pf-HR :0.94154: L2-HR :0.87547: (Sim:0h41m13s) 
CPU  0 inst:  138000000 cyc:  106567537 now IPC :0.31538: AVG IPC :1.28807: L2-Pf-HR :0.93922: L2-HR :0.87332: (Sim:0h41m44s) 
CPU  0 inst:  139000000 cyc:  109739416 now IPC :0.31527: AVG IPC :1.25970: L2-Pf-HR :0.93691: L2-HR :0.87119: (Sim:0h42m15s) 
CPU  0 inst:  140000000 cyc:  112907718 now IPC :0.31563: AVG IPC :1.23297: L2-Pf-HR :0.93461: L2-HR :0.86908: (Sim:0h42m46s) 
CPU  0 inst:  141000002 cyc:  116077250 now IPC :0.31550: AVG IPC :1.20771: L2-Pf-HR :0.93233: L2-HR :0.86698: (Sim:0h43m17s) 
CPU  0 inst:  142000001 cyc:  119242773 now IPC :0.31590: AVG IPC :1.18384: L2-Pf-HR :0.93005: L2-HR :0.86491: (Sim:0h43m49s) 
CPU  0 inst:  143000001 cyc:  122406588 now IPC :0.31607: AVG IPC :1.16123: L2-Pf-HR :0.92779: L2-HR :0.86284: (Sim:0h44m20s) 
CPU  0 inst:  144000000 cyc:  125573998 now IPC :0.31572: AVG IPC :1.13973: L2-Pf-HR :0.92554: L2-HR :0.86080: (Sim:0h44m52s) 
CPU  0 inst:  145000000 cyc:  128741524 now IPC :0.31570: AVG IPC :1.11930: L2-Pf-HR :0.92330: L2-HR :0.85878: (Sim:0h45m23s) 
CPU  0 inst:  146000000 cyc:  131908392 now IPC :0.31577: AVG IPC :1.09986: L2-Pf-HR :0.92108: L2-HR :0.85677: (Sim:0h45m55s) 
CPU  0 inst:  147000000 cyc:  135075192 now IPC :0.31578: AVG IPC :1.08135: L2-Pf-HR :0.91887: L2-HR :0.85478: (Sim:0h46m26s) 
CPU  0 inst:  148000000 cyc:  138242173 now IPC :0.31576: AVG IPC :1.06368: L2-Pf-HR :0.91667: L2-HR :0.85281: (Sim:0h46m58s) 
CPU  0 inst:  149000000 cyc:  141406985 now IPC :0.31597: AVG IPC :1.04683: L2-Pf-HR :0.91449: L2-HR :0.85085: (Sim:0h47m29s) 
CPU  0 inst:  150000000 cyc:  144574169 now IPC :0.31574: AVG IPC :1.03070: L2-Pf-HR :0.91232: L2-HR :0.84891: (Sim:0h48m1s) 
CPU  0 inst:  151000002 cyc:  147742309 now IPC :0.31564: AVG IPC :1.01527: L2-Pf-HR :0.91016: L2-HR :0.84699: (Sim:0h48m33s) 
CPU  0 inst:  152000000 cyc:  150907842 now IPC :0.31590: AVG IPC :1.00050: L2-Pf-HR :0.90802: L2-HR :0.84508: (Sim:0h49m4s) 
CPU  0 inst:  153000002 cyc:  154073932 now IPC :0.31585: AVG IPC :0.98634: L2-Pf-HR :0.90587: L2-HR :0.84319: (Sim:0h49m36s) 
CPU  0 inst:  154000000 cyc:  157242016 now IPC :0.31565: AVG IPC :0.97274: L2-Pf-HR :0.90375: L2-HR :0.84131: (Sim:0h50m7s) 
CPU  0 inst:  155000000 cyc:  160408027 now IPC :0.31585: AVG IPC :0.95970: L2-Pf-HR :0.90163: L2-HR :0.83945: (Sim:0h50m39s) 
CPU  0 inst:  156000000 cyc:  163573301 now IPC :0.31593: AVG IPC :0.94717: L2-Pf-HR :0.89953: L2-HR :0.83760: (Sim:0h51m10s) 
CPU  0 inst:  157000000 cyc:  166742147 now IPC :0.31557: AVG IPC :0.93509: L2-Pf-HR :0.89745: L2-HR :0.83577: (Sim:0h51m42s) 
CPU  0 inst:  158000000 cyc:  169907004 now IPC :0.31597: AVG IPC :0.92349: L2-Pf-HR :0.89538: L2-HR :0.83395: (Sim:0h52m13s) 
CPU  0 inst:  159000000 cyc:  173073731 now IPC :0.31578: AVG IPC :0.91231: L2-Pf-HR :0.89331: L2-HR :0.83215: (Sim:0h52m45s) 
CPU  0 inst:  160000004 cyc:  176243004 now IPC :0.31553: AVG IPC :0.90152: L2-Pf-HR :0.89126: L2-HR :0.83036: (Sim:0h53m16s) 
CPU  0 inst:  161000002 cyc:  179408397 now IPC :0.31592: AVG IPC :0.89113: L2-Pf-HR :0.88922: L2-HR :0.82859: (Sim:0h53m48s) 
CPU  0 inst:  162000001 cyc:  182572232 now IPC :0.31607: AVG IPC :0.88111: L2-Pf-HR :0.88718: L2-HR :0.82683: (Sim:0h54m19s) 
CPU  0 inst:  163000002 cyc:  185740563 now IPC :0.31562: AVG IPC :0.87141: L2-Pf-HR :0.88517: L2-HR :0.82508: (Sim:0h54m51s) 
CPU  0 inst:  164000001 cyc:  187228482 now IPC :0.67208: AVG IPC :0.86982: L2-Pf-HR :0.88369: L2-HR :0.82372: (Sim:0h55m15s) 
CPU  0 inst:  165000005 cyc:  187741410 now IPC :1.94960: AVG IPC :0.87279: L2-Pf-HR :0.88404: L2-HR :0.82430: (Sim:0h55m35s) 
CPU  0 inst:  166000000 cyc:  188296479 now IPC :1.80157: AVG IPC :0.87554: L2-Pf-HR :0.88451: L2-HR :0.82502: (Sim:0h55m53s) 
CPU  0 inst:  167000001 cyc:  188896335 now IPC :1.66707: AVG IPC :0.87806: L2-Pf-HR :0.88467: L2-HR :0.82562: (Sim:0h56m12s) 
CPU  0 inst:  168000000 cyc:  189363323 now IPC :2.14138: AVG IPC :0.88120: L2-Pf-HR :0.88537: L2-HR :0.82645: (Sim:0h56m30s) 
CPU  0 inst:  169000002 cyc:  189879722 now IPC :1.93649: AVG IPC :0.88408: L2-Pf-HR :0.88597: L2-HR :0.82730: (Sim:0h56m48s) 
CPU  0 inst:  170000003 cyc:  190384659 now IPC :1.98045: AVG IPC :0.88700: L2-Pf-HR :0.88683: L2-HR :0.82842: (Sim:0h57m6s) 
CPU  0 inst:  171000001 cyc:  190862244 now IPC :2.09386: AVG IPC :0.89004: L2-Pf-HR :0.88758: L2-HR :0.82931: (Sim:0h57m25s) 
CPU  0 inst:  172000003 cyc:  191494799 now IPC :1.58089: AVG IPC :0.89233: L2-Pf-HR :0.88786: L2-HR :0.82988: (Sim:0h57m44s) 
CPU  0 inst:  173000000 cyc:  192008023 now IPC :1.94846: AVG IPC :0.89517: L2-Pf-HR :0.88826: L2-HR :0.83046: (Sim:0h58m4s) 
CPU  0 inst:  174000000 cyc:  192520504 now IPC :1.95129: AVG IPC :0.89800: L2-Pf-HR :0.88888: L2-HR :0.83122: (Sim:0h58m24s) 
CPU  0 inst:  175000000 cyc:  193206593 now IPC :1.45754: AVG IPC :0.89999: L2-Pf-HR :0.88868: L2-HR :0.83158: (Sim:0h58m44s) 
CPU  0 inst:  176000003 cyc:  193681809 now IPC :2.10431: AVG IPC :0.90296: L2-Pf-HR :0.88933: L2-HR :0.83237: (Sim:0h59m4s) 
CPU  0 inst:  177000002 cyc:  194152976 now IPC :2.12239: AVG IPC :0.90594: L2-Pf-HR :0.88996: L2-HR :0.83312: (Sim:0h59m24s) 
CPU  0 inst:  178000002 cyc:  194661368 now IPC :1.96699: AVG IPC :0.90872: L2-Pf-HR :0.89058: L2-HR :0.83398: (Sim:0h59m42s) 
CPU  0 inst:  179000005 cyc:  195179794 now IPC :1.92892: AVG IPC :0.91145: L2-Pf-HR :0.89130: L2-HR :0.83494: (Sim:1h0m2s) 
CPU  0 inst:  180000002 cyc:  195661552 now IPC :2.07572: AVG IPC :0.91433: L2-Pf-HR :0.89204: L2-HR :0.83589: (Sim:1h0m20s) 
CPU  0 inst:  181000001 cyc:  196298166 now IPC :1.57081: AVG IPC :0.91647: L2-Pf-HR :0.89193: L2-HR :0.83607: (Sim:1h0m42s) 
CPU  0 inst:  182000003 cyc:  196817726 now IPC :1.92471: AVG IPC :0.91914: L2-Pf-HR :0.89233: L2-HR :0.83661: (Sim:1h1m4s) 
CPU  0 inst:  183000003 cyc:  197370239 now IPC :1.80991: AVG IPC :0.92165: L2-Pf-HR :0.89272: L2-HR :0.83720: (Sim:1h1m22s) 
CPU  0 inst:  184000004 cyc:  197948622 now IPC :1.72896: AVG IPC :0.92402: L2-Pf-HR :0.89299: L2-HR :0.83770: (Sim:1h1m42s) 
CPU  0 inst:  185000002 cyc:  198420219 now IPC :2.12045: AVG IPC :0.92688: L2-Pf-HR :0.89355: L2-HR :0.83839: (Sim:1h2m2s) 
CPU  0 inst:  186000005 cyc:  198938078 now IPC :1.93103: AVG IPC :0.92950: L2-Pf-HR :0.89406: L2-HR :0.83911: (Sim:1h2m22s) 
CPU  0 inst:  187000002 cyc:  199439637 now IPC :1.99378: AVG IPC :0.93219: L2-Pf-HR :0.89469: L2-HR :0.83996: (Sim:1h2m40s) 
CPU  0 inst:  188000004 cyc:  199911280 now IPC :2.12025: AVG IPC :0.93501: L2-Pf-HR :0.89532: L2-HR :0.84073: (Sim:1h2m59s) 
CPU  0 inst:  189000001 cyc:  200567836 now IPC :1.52309: AVG IPC :0.93695: L2-Pf-HR :0.89523: L2-HR :0.84103: (Sim:1h3m19s) 
CPU  0 inst:  190000004 cyc:  201086367 now IPC :1.92853: AVG IPC :0.93951: L2-Pf-HR :0.89555: L2-HR :0.84151: (Sim:1h3m41s) 
CPU  0 inst:  191000005 cyc:  201603739 now IPC :1.93285: AVG IPC :0.94208: L2-Pf-HR :0.89604: L2-HR :0.84213: (Sim:1h4m0s) 
CPU  0 inst:  192000001 cyc:  202232763 now IPC :1.58976: AVG IPC :0.94410: L2-Pf-HR :0.89590: L2-HR :0.84244: (Sim:1h4m21s) 
CPU  0 inst:  193000005 cyc:  202710336 now IPC :2.09393: AVG IPC :0.94682: L2-Pf-HR :0.89643: L2-HR :0.84307: (Sim:1h4m41s) 
CPU  0 inst:  194000002 cyc:  203187097 now IPC :2.09748: AVG IPC :0.94954: L2-Pf-HR :0.89694: L2-HR :0.84370: (Sim:1h5m1s) 
CPU  0 inst:  195000002 cyc:  203706087 now IPC :1.92682: AVG IPC :0.95204: L2-Pf-HR :0.89748: L2-HR :0.84447: (Sim:1h5m19s) 
CPU  0 inst:  196000003 cyc:  204195426 now IPC :2.04358: AVG IPC :0.95467: L2-Pf-HR :0.89804: L2-HR :0.84518: (Sim:1h5m38s) 
CPU  0 inst:  197000005 cyc:  204672498 now IPC :2.09612: AVG IPC :0.95734: L2-Pf-HR :0.89862: L2-HR :0.84593: (Sim:1h5m57s) 
CPU  0 inst:  198000000 cyc:  205287213 now IPC :1.62676: AVG IPC :0.95935: L2-Pf-HR :0.89841: L2-HR :0.84597: (Sim:1h6m17s) 
CPU  0 inst:  199000000 cyc:  205787646 now IPC :1.99827: AVG IPC :0.96189: L2-Pf-HR :0.89873: L2-HR :0.84640: (Sim:1h6m37s) 
CPU  0 inst:  200000003 cyc:  206325039 now IPC :1.86084: AVG IPC :0.96425: L2-Pf-HR :0.89903: L2-HR :0.84689: (Sim:1h6m55s) 
CPU  0 inst:  201000000 cyc:  206895425 now IPC :1.75319: AVG IPC :0.96643: L2-Pf-HR :0.89904: L2-HR :0.84729: (Sim:1h7m16s) 
CPU  0 inst:  202000000 cyc:  207367703 now IPC :2.11740: AVG IPC :0.96906: L2-Pf-HR :0.89948: L2-HR :0.84782: (Sim:1h7m36s) 
CPU  0 inst:  203000005 cyc:  207874961 now IPC :1.97139: AVG IPC :0.97152: L2-Pf-HR :0.89988: L2-HR :0.84840: (Sim:1h7m56s) 
CPU  0 inst:  204000005 cyc:  208371646 now IPC :2.01335: AVG IPC :0.97402: L2-Pf-HR :0.90035: L2-HR :0.84907: (Sim:1h8m14s) 
CPU  0 inst:  205000005 cyc:  208846169 now IPC :2.10738: AVG IPC :0.97660: L2-Pf-HR :0.90088: L2-HR :0.84971: (Sim:1h8m33s) 
CPU  0 inst:  206000001 cyc:  209462440 now IPC :1.62266: AVG IPC :0.97851: L2-Pf-HR :0.90061: L2-HR :0.84981: (Sim:1h8m52s) 
CPU  0 inst:  207000004 cyc:  209961722 now IPC :2.00288: AVG IPC :0.98096: L2-Pf-HR :0.90089: L2-HR :0.85021: (Sim:1h9m12s) 
CPU  0 inst:  208000000 cyc:  210508552 now IPC :1.82871: AVG IPC :0.98317: L2-Pf-HR :0.90119: L2-HR :0.85063: (Sim:1h9m31s) 
CPU  0 inst:  209000002 cyc:  211073702 now IPC :1.76945: AVG IPC :0.98529: L2-Pf-HR :0.90119: L2-HR :0.85098: (Sim:1h9m50s) 
CPU  0 inst:  210000000 cyc:  211536427 now IPC :2.16111: AVG IPC :0.98787: L2-Pf-HR :0.90161: L2-HR :0.85148: (Sim:1h10m9s) 
CPU  0 inst:  211000003 cyc:  212014383 now IPC :2.09225: AVG IPC :0.99037: L2-Pf-HR :0.90207: L2-HR :0.85203: (Sim:1h10m29s) 
CPU  0 inst:  212000000 cyc:  212523180 now IPC :1.96541: AVG IPC :0.99272: L2-Pf-HR :0.90244: L2-HR :0.85265: (Sim:1h10m47s) 
CPU  0 inst:  213000002 cyc:  212980980 now IPC :2.18436: AVG IPC :0.99529: L2-Pf-HR :0.90289: L2-HR :0.85321: (Sim:1h11m5s) 
CPU  0 inst:  214000002 cyc:  213456587 now IPC :2.10258: AVG IPC :0.99777: L2-Pf-HR :0.90339: L2-HR :0.85386: (Sim:1h11m23s) 
CPU  0 inst:  215000002 cyc:  214067172 now IPC :1.63777: AVG IPC :0.99961: L2-Pf-HR :0.90305: L2-HR :0.85379: (Sim:1h11m43s) 
CPU  0 inst:  216000000 cyc:  214554293 now IPC :2.05287: AVG IPC :1.00201: L2-Pf-HR :0.90334: L2-HR :0.85419: (Sim:1h12m2s) 
CPU  0 inst:  217000005 cyc:  215073601 now IPC :1.92565: AVG IPC :1.00425: L2-Pf-HR :0.90361: L2-HR :0.85461: (Sim:1h12m20s) 
CPU  0 inst:  218000003 cyc:  215589279 now IPC :1.93919: AVG IPC :1.00649: L2-Pf-HR :0.90359: L2-HR :0.85490: (Sim:1h12m39s) 
CPU  0 inst:  219000005 cyc:  216056644 now IPC :2.13966: AVG IPC :1.00896: L2-Pf-HR :0.90396: L2-HR :0.85533: (Sim:1h12m59s) 
CPU  0 inst:  220000004 cyc:  216538634 now IPC :2.07473: AVG IPC :1.01134: L2-Pf-HR :0.90430: L2-HR :0.85584: (Sim:1h13m16s) 
CPU  0 inst:  221000001 cyc:  217032167 now IPC :2.02620: AVG IPC :1.01366: L2-Pf-HR :0.90475: L2-HR :0.85645: (Sim:1h13m35s) 
CPU  0 inst:  222000004 cyc:  217508072 now IPC :2.10127: AVG IPC :1.01605: L2-Pf-HR :0.90522: L2-HR :0.85705: (Sim:1h13m53s) 
CPU  0 inst:  223000004 cyc:  218096593 now IPC :1.69917: AVG IPC :1.01790: L2-Pf-HR :0.90502: L2-HR :0.85703: (Sim:1h14m12s) 
CPU  0 inst:  224000004 cyc:  218590006 now IPC :2.02670: AVG IPC :1.02019: L2-Pf-HR :0.90526: L2-HR :0.85739: (Sim:1h14m31s) 
CPU  0 inst:  225000000 cyc:  219125095 now IPC :1.86884: AVG IPC :1.02227: L2-Pf-HR :0.90546: L2-HR :0.85772: (Sim:1h14m50s) 
CPU  0 inst:  226000004 cyc:  219640049 now IPC :1.94193: AVG IPC :1.02444: L2-Pf-HR :0.90548: L2-HR :0.85802: (Sim:1h15m9s) 
CPU  0 inst:  227000002 cyc:  220108796 now IPC :2.13334: AVG IPC :1.02681: L2-Pf-HR :0.90583: L2-HR :0.85845: (Sim:1h15m28s) 
CPU  0 inst:  228000001 cyc:  220582060 now IPC :2.11298: AVG IPC :1.02915: L2-Pf-HR :0.90626: L2-HR :0.85895: (Sim:1h15m47s) 
CPU  0 inst:  229000000 cyc:  221075424 now IPC :2.02690: AVG IPC :1.03139: L2-Pf-HR :0.90659: L2-HR :0.85952: (Sim:1h16m5s) 
CPU  0 inst:  230000004 cyc:  221542089 now IPC :2.14287: AVG IPC :1.03374: L2-Pf-HR :0.90699: L2-HR :0.85999: (Sim:1h16m23s) 
CPU  0 inst:  231000000 cyc:  222058552 now IPC :1.93624: AVG IPC :1.03585: L2-Pf-HR :0.90720: L2-HR :0.86041: (Sim:1h16m41s) 
CPU  0 inst:  232000003 cyc:  222629086 now IPC :1.75275: AVG IPC :1.03769: L2-Pf-HR :0.90714: L2-HR :0.86051: (Sim:1h17m1s) 
CPU  0 inst:  233000003 cyc:  223112492 now IPC :2.06865: AVG IPC :1.03993: L2-Pf-HR :0.90740: L2-HR :0.86085: (Sim:1h17m20s) 
CPU  0 inst:  234000001 cyc:  223636740 now IPC :1.90749: AVG IPC :1.04198: L2-Pf-HR :0.90765: L2-HR :0.86121: (Sim:1h17m38s) 
CPU  0 inst:  235000002 cyc:  224170982 now IPC :1.87181: AVG IPC :1.04396: L2-Pf-HR :0.90764: L2-HR :0.86146: (Sim:1h17m57s) 
CPU  0 inst:  236000005 cyc:  224642416 now IPC :2.12119: AVG IPC :1.04623: L2-Pf-HR :0.90797: L2-HR :0.86184: (Sim:1h18m17s) 
CPU  0 inst:  237000000 cyc:  225122138 now IPC :2.08453: AVG IPC :1.04846: L2-Pf-HR :0.90824: L2-HR :0.86228: (Sim:1h18m35s) 
CPU  0 inst:  238000003 cyc:  225617172 now IPC :2.02007: AVG IPC :1.05060: L2-Pf-HR :0.90860: L2-HR :0.86279: (Sim:1h18m54s) 
CPU  0 inst:  239000001 cyc:  226094149 now IPC :2.09653: AVG IPC :1.05281: L2-Pf-HR :0.90901: L2-HR :0.86332: (Sim:1h19m12s) 
CPU  0 inst:  240000004 cyc:  226724596 now IPC :1.58618: AVG IPC :1.05430: L2-Pf-HR :0.90880: L2-HR :0.86330: (Sim:1h19m32s) 
CPU  0 inst:  241000001 cyc:  227212985 now IPC :2.04754: AVG IPC :1.05645: L2-Pf-HR :0.90903: L2-HR :0.86362: (Sim:1h19m52s) 
CPU  0 inst:  242000005 cyc:  227776259 now IPC :1.77534: AVG IPC :1.05823: L2-Pf-HR :0.90919: L2-HR :0.86391: (Sim:1h20m11s) 
CPU  0 inst:  243000003 cyc:  228334128 now IPC :1.79253: AVG IPC :1.06003: L2-Pf-HR :0.90916: L2-HR :0.86411: (Sim:1h20m29s) 
CPU  0 inst:  244000001 cyc:  228802061 now IPC :2.13705: AVG IPC :1.06225: L2-Pf-HR :0.90947: L2-HR :0.86449: (Sim:1h20m49s) 
CPU  0 inst:  245000002 cyc:  229292447 now IPC :2.03921: AVG IPC :1.06435: L2-Pf-HR :0.90973: L2-HR :0.86487: (Sim:1h21m7s) 
CPU  0 inst:  246000000 cyc:  229774578 now IPC :2.07412: AVG IPC :1.06647: L2-Pf-HR :0.91012: L2-HR :0.86540: (Sim:1h21m25s) 
CPU  0 inst:  247000001 cyc:  230238593 now IPC :2.15510: AVG IPC :1.06868: L2-Pf-HR :0.91046: L2-HR :0.86581: (Sim:1h21m44s) 
CPU  0 inst:  248000004 cyc:  230805653 now IPC :1.76349: AVG IPC :1.07039: L2-Pf-HR :0.91050: L2-HR :0.86598: (Sim:1h22m3s) 
CPU  0 inst:  249000002 cyc:  231303928 now IPC :2.00692: AVG IPC :1.07242: L2-Pf-HR :0.91066: L2-HR :0.86623: (Sim:1h22m22s) 
CPU  0 inst:  250000000 cyc:  231782274 now IPC :2.09053: AVG IPC :1.07453: L2-Pf-HR :0.91089: L2-HR :0.86655: (Sim:1h22m40s) 
CPU  0 inst:  251000001 cyc:  232298199 now IPC :1.93827: AVG IPC :1.07645: L2-Pf-HR :0.91108: L2-HR :0.86687: (Sim:1h22m58s) 
CPU  0 inst:  252000003 cyc:  232828090 now IPC :1.88718: AVG IPC :1.07831: L2-Pf-HR :0.91110: L2-HR :0.86700: (Sim:1h23m19s) 
CPU  0 inst:  253000000 cyc:  233286203 now IPC :2.18286: AVG IPC :1.08048: L2-Pf-HR :0.91140: L2-HR :0.86736: (Sim:1h23m37s) 
CPU  0 inst:  254000002 cyc:  233768385 now IPC :2.07391: AVG IPC :1.08254: L2-Pf-HR :0.91167: L2-HR :0.86776: (Sim:1h23m55s) 
CPU  0 inst:  255000003 cyc:  234262841 now IPC :2.02243: AVG IPC :1.08453: L2-Pf-HR :0.91199: L2-HR :0.86818: (Sim:1h24m14s) 
CPU  0 inst:  256000003 cyc:  234739441 now IPC :2.09820: AVG IPC :1.08660: L2-Pf-HR :0.91235: L2-HR :0.86865: (Sim:1h24m32s) 
CPU  0 inst:  257000000 cyc:  235361893 now IPC :1.60654: AVG IPC :1.08798: L2-Pf-HR :0.91209: L2-HR :0.86859: (Sim:1h24m54s) 
CPU  0 inst:  258000004 cyc:  235857685 now IPC :2.01698: AVG IPC :1.08994: L2-Pf-HR :0.91228: L2-HR :0.86887: (Sim:1h25m14s) 
CPU  0 inst:  259000000 cyc:  236402161 now IPC :1.83662: AVG IPC :1.09167: L2-Pf-HR :0.91242: L2-HR :0.86911: (Sim:1h25m33s) 
CPU  0 inst:  260000002 cyc:  236933897 now IPC :1.88064: AVG IPC :1.09345: L2-Pf-HR :0.91241: L2-HR :0.86930: (Sim:1h25m52s) 
CPU  0 inst:  261000005 cyc:  237408898 now IPC :2.10527: AVG IPC :1.09548: L2-Pf-HR :0.91270: L2-HR :0.86963: (Sim:1h26m12s) 
CPU  0 inst:  262000004 cyc:  237912756 now IPC :1.98468: AVG IPC :1.09737: L2-Pf-HR :0.91291: L2-HR :0.86996: (Sim:1h26m31s) 
CPU  0 inst:  263000000 cyc:  238398143 now IPC :2.06020: AVG IPC :1.09934: L2-Pf-HR :0.91321: L2-HR :0.87038: (Sim:1h26m49s) 
CPU  0 inst:  264000000 cyc:  238868039 now IPC :2.12813: AVG IPC :1.10137: L2-Pf-HR :0.91351: L2-HR :0.87075: (Sim:1h27m8s) 
CPU  0 inst:  265000003 cyc:  239457261 now IPC :1.69716: AVG IPC :1.10284: L2-Pf-HR :0.91333: L2-HR :0.87084: (Sim:1h27m27s) 
CPU  0 inst:  266000001 cyc:  239953381 now IPC :2.01564: AVG IPC :1.10474: L2-Pf-HR :0.91347: L2-HR :0.87106: (Sim:1h27m47s) 
CPU  0 inst:  267000000 cyc:  240442675 now IPC :2.04376: AVG IPC :1.10666: L2-Pf-HR :0.91369: L2-HR :0.87135: (Sim:1h28m5s) 
CPU  0 inst:  268000000 cyc:  240989057 now IPC :1.83022: AVG IPC :1.10831: L2-Pf-HR :0.91372: L2-HR :0.87154: (Sim:1h28m23s) 
CPU  0 inst:  269000002 cyc:  241497356 now IPC :1.96735: AVG IPC :1.11012: L2-Pf-HR :0.91379: L2-HR :0.87175: (Sim:1h28m44s) 
CPU  0 inst:  270000004 cyc:  241957786 now IPC :2.17189: AVG IPC :1.11215: L2-Pf-HR :0.91406: L2-HR :0.87206: (Sim:1h29m2s) 
CPU  0 inst:  271000000 cyc:  242438698 now IPC :2.07937: AVG IPC :1.11408: L2-Pf-HR :0.91431: L2-HR :0.87243: (Sim:1h29m20s) 
CPU  0 inst:  272000001 cyc:  242936462 now IPC :2.00899: AVG IPC :1.11592: L2-Pf-HR :0.91460: L2-HR :0.87282: (Sim:1h29m39s) 
CPU  0 inst:  273000000 cyc:  243412398 now IPC :2.10112: AVG IPC :1.11785: L2-Pf-HR :0.91492: L2-HR :0.87324: (Sim:1h29m57s) 
CPU  0 inst:  274000005 cyc:  243995129 now IPC :1.71607: AVG IPC :1.11929: L2-Pf-HR :0.91466: L2-HR :0.87314: (Sim:1h30m17s) 
CPU  0 inst:  275000003 cyc:  244471938 now IPC :2.09727: AVG IPC :1.12120: L2-Pf-HR :0.91482: L2-HR :0.87338: (Sim:1h30m36s) 
CPU  0 inst:  276000000 cyc:  245011849 now IPC :1.85215: AVG IPC :1.12282: L2-Pf-HR :0.91496: L2-HR :0.87359: (Sim:1h30m54s) 
CPU  0 inst:  277000002 cyc:  245553485 now IPC :1.84626: AVG IPC :1.12442: L2-Pf-HR :0.91491: L2-HR :0.87374: (Sim:1h31m14s) 
CPU  0 inst:  278000000 cyc:  246011580 now IPC :2.18295: AVG IPC :1.12640: L2-Pf-HR :0.91516: L2-HR :0.87404: (Sim:1h31m33s) 
CPU  0 inst:  279000000 cyc:  246499426 now IPC :2.04983: AVG IPC :1.12823: L2-Pf-HR :0.91538: L2-HR :0.87434: (Sim:1h31m52s) 
CPU  0 inst:  280000001 cyc:  246987532 now IPC :2.04874: AVG IPC :1.13006: L2-Pf-HR :0.91565: L2-HR :0.87472: (Sim:1h32m10s) 
CPU  0 inst:  281000003 cyc:  247445306 now IPC :2.18449: AVG IPC :1.13202: L2-Pf-HR :0.91594: L2-HR :0.87506: (Sim:1h32m28s) 
CPU  0 inst:  282000000 cyc:  248055870 now IPC :1.63783: AVG IPC :1.13327: L2-Pf-HR :0.91582: L2-HR :0.87508: (Sim:1h32m48s) 
CPU  0 inst:  283000004 cyc:  248561940 now IPC :1.97602: AVG IPC :1.13499: L2-Pf-HR :0.91595: L2-HR :0.87528: (Sim:1h33m8s) 
CPU  0 inst:  284000001 cyc:  249062741 now IPC :1.99680: AVG IPC :1.13673: L2-Pf-HR :0.91618: L2-HR :0.87557: (Sim:1h33m28s) 
CPU  0 inst:  285000005 cyc:  249647968 now IPC :1.70875: AVG IPC :1.13808: L2-Pf-HR :0.91600: L2-HR :0.87561: (Sim:1h33m47s) 
CPU  0 inst:  286000005 cyc:  250124012 now IPC :2.10065: AVG IPC :1.13992: L2-Pf-HR :0.91624: L2-HR :0.87589: (Sim:1h34m6s) 
CPU  0 inst:  287000005 cyc:  250583098 now IPC :2.17824: AVG IPC :1.14183: L2-Pf-HR :0.91649: L2-HR :0.87618: (Sim:1h34m25s) 
CPU  0 inst:  288000004 cyc:  251067983 now IPC :2.06234: AVG IPC :1.14361: L2-Pf-HR :0.91672: L2-HR :0.87653: (Sim:1h34m43s) 
CPU  0 inst:  289000004 cyc:  251570205 now IPC :1.99115: AVG IPC :1.14531: L2-Pf-HR :0.91697: L2-HR :0.87687: (Sim:1h35m2s) 
CPU  0 inst:  290000001 cyc:  252042535 now IPC :2.11716: AVG IPC :1.14714: L2-Pf-HR :0.91726: L2-HR :0.87724: (Sim:1h35m19s) 
CPU  0 inst:  291000000 cyc:  252653472 now IPC :1.63683: AVG IPC :1.14833: L2-Pf-HR :0.91703: L2-HR :0.87711: (Sim:1h35m39s) 
CPU  0 inst:  292000002 cyc:  253152355 now IPC :2.00448: AVG IPC :1.15002: L2-Pf-HR :0.91718: L2-HR :0.87730: (Sim:1h35m59s) 
CPU  0 inst:  293000002 cyc:  253683642 now IPC :1.88222: AVG IPC :1.15156: L2-Pf-HR :0.91730: L2-HR :0.87751: (Sim:1h36m16s) 
CPU  0 inst:  294000002 cyc:  254207632 now IPC :1.90843: AVG IPC :1.15313: L2-Pf-HR :0.91720: L2-HR :0.87764: (Sim:1h36m36s) 
CPU  0 inst:  295000003 cyc:  254667334 now IPC :2.17532: AVG IPC :1.15498: L2-Pf-HR :0.91743: L2-HR :0.87792: (Sim:1h36m54s) 
Finished CPU 0 instr: 293000002 cyc: 253684225 AVG IPC: 1.15498 (Sim time: 1h36m54s)

ChampSim completed all CPUs

[ROI Statistics]
Core_0_instructions 293000002
Core_0_cycles 253684225
Core_0_IPC 1.15498

Core_0_branch_prediction_accuracy 98.23791
Core_0_branch_MPKI 0.42863
Core_0_average_ROB_occupancy_at_mispredict 572.04350

Core_0_L1D_total_access 149574152
Core_0_L1D_total_hit 144017185 L1D_total_Hit Ratio: 0.96285
Core_0_L1D_total_miss 5556967
Core_0_L1D_loads 69071865
Core_0_L1D_load_hit 66449547 L1D_load_Hit Ratio: 0.96203
Core_0_L1D_load_miss 2622318
Core_0_L1D_RFOs 5958199
Core_0_L1D_RFO_hit 5697926 L1D_RFO_Hit Ratio: 0.95632
Core_0_L1D_RFO_miss 260273
Core_0_L1D_prefetches 74544088
Core_0_L1D_prefetch_hit 71869712 L1D_prefetch_Hit Ratio: 0.96412
Core_0_L1D_prefetch_miss 2674376
Core_0_L1D_writebacks 0
Core_0_L1D_writeback_hit 0 L1D_writeback_Hit Ratio: -nan
Core_0_L1D_writeback_miss 0
Core_0_L1D_prefetch_requested 203556177
Core_0_L1D_prefetch_issued 103741939
Core_0_L1D_prefetch_useful 2624242 L1D_Useful Ratio: 0.02530
Core_0_L1D_prefetch_useless 65992
Core_0_L1D_prefetch_late 405482
Core_0_L1D_average_miss_latency 9996018.92597

Core_0_L1I_total_access 40848458
Core_0_L1I_total_hit 40846481 L1I_total_Hit Ratio: 0.99995
Core_0_L1I_total_miss 1977
Core_0_L1I_loads 40848458
Core_0_L1I_load_hit 40846481 L1I_load_Hit Ratio: 0.99995
Core_0_L1I_load_miss 1977
Core_0_L1I_RFOs 0
Core_0_L1I_RFO_hit 0 L1I_RFO_Hit Ratio: -nan
Core_0_L1I_RFO_miss 0
Core_0_L1I_prefetches 0
Core_0_L1I_prefetch_hit 0 L1I_prefetch_Hit Ratio: -nan
Core_0_L1I_prefetch_miss 0
Core_0_L1I_writebacks 0
Core_0_L1I_writeback_hit 0 L1I_writeback_Hit Ratio: -nan
Core_0_L1I_writeback_miss 0
Core_0_L1I_prefetch_requested 0
Core_0_L1I_prefetch_issued 0
Core_0_L1I_prefetch_useful 0 L1I_Useful Ratio: -nan
Core_0_L1I_prefetch_useless 0
Core_0_L1I_prefetch_late 0
Core_0_L1I_average_miss_latency 246.88670

Core_0_L2C_total_access 12898735
Core_0_L2C_total_hit 11324073 L2C_total_Hit Ratio: 0.87792
Core_0_L2C_total_miss 1574662
Core_0_L2C_loads 2218872
Core_0_L2C_load_hit 1572342 L2C_load_Hit Ratio: 0.70862
Core_0_L2C_load_miss 646530
Core_0_L2C_RFOs 260265
Core_0_L2C_RFO_hit 62342 L2C_RFO_Hit Ratio: 0.23953
Core_0_L2C_RFO_miss 197923
Core_0_L2C_prefetches 8843585
Core_0_L2C_prefetch_hit 8113382 L2C_prefetch_Hit Ratio: 0.91743
Core_0_L2C_prefetch_miss 730203
Core_0_L2C_writebacks 1576013
Core_0_L2C_writeback_hit 1576007 L2C_writeback_Hit Ratio: 1.00000
Core_0_L2C_writeback_miss 6
Core_0_L2C_prefetch_requested 13157606
Core_0_L2C_prefetch_issued 12723787
Core_0_L2C_prefetch_useful 193677 L2C_Useful Ratio: 0.01522
Core_0_L2C_prefetch_useless 527754
Core_0_L2C_prefetch_late 250228
Core_0_L2C_average_miss_latency 318.83947

Core_0_LLC_total_access 2422334
Core_0_LLC_total_hit 840567 LLC_total_Hit Ratio: 0.34701
Core_0_LLC_total_miss 1581767
Core_0_LLC_loads 396382
Core_0_LLC_load_hit 0 LLC_load_Hit Ratio: 0.00000
Core_0_LLC_load_miss 396382
Core_0_LLC_RFOs 197922
Core_0_LLC_RFO_hit 0 LLC_RFO_Hit Ratio: 0.00000
Core_0_LLC_RFO_miss 197922
Core_0_LLC_prefetches 980352
Core_0_LLC_prefetch_hit 138 LLC_prefetch_Hit Ratio: 0.00014
Core_0_LLC_prefetch_miss 980214
Core_0_LLC_writebacks 847678
Core_0_LLC_writeback_hit 840429 LLC_writeback_Hit Ratio: 0.99145
Core_0_LLC_writeback_miss 7249
Core_0_LLC_prefetch_requested 0
Core_0_LLC_prefetch_issued 0
Core_0_LLC_prefetch_useful 0 LLC_Useful Ratio: -nan
Core_0_LLC_prefetch_useless 896022
Core_0_LLC_prefetch_late 0
Core_0_LLC_average_miss_latency 296.72309

Core_0_major_page_fault 0
Core_0_minor_page_fault 13331


Channel_0_RQ_row_buffer_hit 891546
Channel_0_RQ_row_buffer_miss 682972
Channel_0_WQ_row_buffer_hit 307168
Channel_0_WQ_row_buffer_miss 532441
Channel_0_WQ_full 5278
Channel_0_dbus_congested 1229146

avg_congested_cycle 8

EzSearch AVG IPC :1.15498: L2-Pf-HR :0.91743 : L2-HR :0.87792 Uful:0.01522
     > Finished combination: TraceType=770-tot Sim:293000000 Prefetcher=L2ipcp L1=ipcp
