TRACE: [42000000]_FE_[OPT-350M]_[h16]_[s256]_[d64] Warmup: 2000000 NumTraces: 42000000
L1:bingo_dpc3_PHT1k:L2:bingo_dpc3_PHT1k
*************************************************
   ChampSim Multicore Out-of-Order Simulator
   Last compiled: Oct 27 2024 02:15:07
*************************************************

trace_0 770-tot_memTraces_v3/memTraces[42000000]_FE_[OPT-350M]_[h16]_[s256]_[d64].champsim.xz
Bingo PHT WAYS: 16 and PHT_SIZE: 1024
Bingo2 PHT WAYS: 16 and PHT_SIZE: 1024
MAIN.cc ln 751 stats print skipped
CPU  0 inst:    1000002 cyc:     499416 now IPC :2.00234: AVG IPC :2.00234: L2-Pf-HR :0.71482: L2-HR :0.54889: (Sim:0h0m20s) 
CPU  0 inst:    2000000 cyc:     986761 now IPC :2.05193: AVG IPC :2.02683: L2-Pf-HR :0.70618: L2-HR :0.66158: (Sim:0h0m41s) 

Warmup complete CPU  0 instructions:    2000002 cycles:     986762 (Simulation time: 0 hr 0 min 41 sec) 

CPU  0 inst:    3000004 cyc:    1551328 now IPC :1.77128: AVG IPC :1.77128: L2-Pf-HR :0.66536: L2-HR :0.74036: (Sim:0h0m59s) 
CPU  0 inst:    4000003 cyc:    2087930 now IPC :1.86358: AVG IPC :1.81625: L2-Pf-HR :0.68368: L2-HR :0.75472: (Sim:0h1m15s) 
CPU  0 inst:    5000005 cyc:    2629684 now IPC :1.84586: AVG IPC :1.82602: L2-Pf-HR :0.68344: L2-HR :0.75660: (Sim:0h1m32s) 
CPU  0 inst:    6000000 cyc:    3179234 now IPC :1.81966: AVG IPC :1.82442: L2-Pf-HR :0.67810: L2-HR :0.75418: (Sim:0h1m50s) 
CPU  0 inst:    7000002 cyc:    3716666 now IPC :1.86070: AVG IPC :1.83157: L2-Pf-HR :0.68479: L2-HR :0.75988: (Sim:0h2m7s) 
CPU  0 inst:    8000003 cyc:    4260081 now IPC :1.84022: AVG IPC :1.83300: L2-Pf-HR :0.68377: L2-HR :0.75976: (Sim:0h2m25s) 
CPU  0 inst:    9000005 cyc:    4798787 now IPC :1.85630: AVG IPC :1.83630: L2-Pf-HR :0.67809: L2-HR :0.75656: (Sim:0h2m43s) 
CPU  0 inst:   10000005 cyc:    5338050 now IPC :1.85438: AVG IPC :1.83854: L2-Pf-HR :0.68160: L2-HR :0.75946: (Sim:0h3m0s) 
CPU  0 inst:   11000002 cyc:    5877475 now IPC :1.85382: AVG IPC :1.84022: L2-Pf-HR :0.68288: L2-HR :0.75991: (Sim:0h3m18s) 
CPU  0 inst:   12000002 cyc:    6410889 now IPC :1.87472: AVG IPC :1.84361: L2-Pf-HR :0.68855: L2-HR :0.76337: (Sim:0h3m35s) 
CPU  0 inst:   13000005 cyc:    6963953 now IPC :1.80811: AVG IPC :1.84033: L2-Pf-HR :0.68707: L2-HR :0.76146: (Sim:0h3m52s) 
CPU  0 inst:   14000001 cyc:    7492801 now IPC :1.89089: AVG IPC :1.84444: L2-Pf-HR :0.68891: L2-HR :0.76304: (Sim:0h4m10s) 
CPU  0 inst:   15000000 cyc:    8028847 now IPC :1.86551: AVG IPC :1.84604: L2-Pf-HR :0.68972: L2-HR :0.76338: (Sim:0h4m28s) 
CPU  0 inst:   16000002 cyc:    8571971 now IPC :1.84120: AVG IPC :1.84570: L2-Pf-HR :0.68911: L2-HR :0.76310: (Sim:0h4m45s) 
CPU  0 inst:   17000002 cyc:    9131204 now IPC :1.78816: AVG IPC :1.84175: L2-Pf-HR :0.69088: L2-HR :0.76406: (Sim:0h5m3s) 
CPU  0 inst:   18000000 cyc:   10616535 now IPC :0.67325: AVG IPC :1.66151: L2-Pf-HR :0.63988: L2-HR :0.70850: (Sim:0h5m23s) 
CPU  0 inst:   19000000 cyc:   13584301 now IPC :0.33695: AVG IPC :1.34947: L2-Pf-HR :0.60401: L2-HR :0.69410: (Sim:0h5m47s) 
CPU  0 inst:   20000000 cyc:   16552160 now IPC :0.33694: AVG IPC :1.15641: L2-Pf-HR :0.56918: L2-HR :0.67939: (Sim:0h6m14s) 
CPU  0 inst:   21000000 cyc:   19520214 now IPC :0.33692: AVG IPC :1.02517: L2-Pf-HR :0.53729: L2-HR :0.66539: (Sim:0h6m40s) 
CPU  0 inst:   22000000 cyc:   22488462 now IPC :0.33690: AVG IPC :0.93016: L2-Pf-HR :0.51065: L2-HR :0.65316: (Sim:0h7m7s) 
CPU  0 inst:   23000000 cyc:   25456544 now IPC :0.33692: AVG IPC :0.85820: L2-Pf-HR :0.48835: L2-HR :0.64229: (Sim:0h7m32s) 
CPU  0 inst:   24000000 cyc:   28424269 now IPC :0.33696: AVG IPC :0.80182: L2-Pf-HR :0.46839: L2-HR :0.63228: (Sim:0h7m58s) 
CPU  0 inst:   25000000 cyc:   31393469 now IPC :0.33679: AVG IPC :0.75641: L2-Pf-HR :0.45025: L2-HR :0.62295: (Sim:0h8m25s) 
CPU  0 inst:   26000001 cyc:   34149310 now IPC :0.36287: AVG IPC :0.72371: L2-Pf-HR :0.43559: L2-HR :0.61363: (Sim:0h8m46s) 
CPU  0 inst:   27000003 cyc:   34732493 now IPC :1.71473: AVG IPC :0.74083: L2-Pf-HR :0.43668: L2-HR :0.61237: (Sim:0h8m55s) 
CPU  0 inst:   28000004 cyc:   35287100 now IPC :1.80308: AVG IPC :0.75801: L2-Pf-HR :0.43710: L2-HR :0.61122: (Sim:0h9m4s) 
CPU  0 inst:   29000004 cyc:   35848449 now IPC :1.78142: AVG IPC :0.77449: L2-Pf-HR :0.43921: L2-HR :0.61127: (Sim:0h9m14s) 
CPU  0 inst:   30000003 cyc:   36377187 now IPC :1.89129: AVG IPC :0.79117: L2-Pf-HR :0.44096: L2-HR :0.61109: (Sim:0h9m23s) 
CPU  0 inst:   31000003 cyc:   36936697 now IPC :1.78728: AVG IPC :0.80668: L2-Pf-HR :0.44252: L2-HR :0.61060: (Sim:0h9m32s) 
CPU  0 inst:   32000001 cyc:   37467838 now IPC :1.88274: AVG IPC :0.82234: L2-Pf-HR :0.44407: L2-HR :0.61023: (Sim:0h9m41s) 
CPU  0 inst:   33000002 cyc:   38014959 now IPC :1.82775: AVG IPC :0.83720: L2-Pf-HR :0.44522: L2-HR :0.60971: (Sim:0h10m0s) 
CPU  0 inst:   34000001 cyc:   38546309 now IPC :1.88200: AVG IPC :0.85198: L2-Pf-HR :0.44650: L2-HR :0.60940: (Sim:0h10m22s) 
CPU  0 inst:   35000005 cyc:   39080363 now IPC :1.87248: AVG IPC :0.86629: L2-Pf-HR :0.44864: L2-HR :0.60968: (Sim:0h10m43s) 
CPU  0 inst:   36000000 cyc:   39620266 now IPC :1.85218: AVG IPC :0.88007: L2-Pf-HR :0.45066: L2-HR :0.60982: (Sim:0h11m4s) 
CPU  0 inst:   37000000 cyc:   40161994 now IPC :1.84594: AVG IPC :0.89342: L2-Pf-HR :0.45156: L2-HR :0.60927: (Sim:0h11m25s) 
CPU  0 inst:   38000001 cyc:   40703891 now IPC :1.84537: AVG IPC :0.90641: L2-Pf-HR :0.45271: L2-HR :0.60902: (Sim:0h11m46s) 
CPU  0 inst:   39000004 cyc:   41244560 now IPC :1.84957: AVG IPC :0.91908: L2-Pf-HR :0.45364: L2-HR :0.60883: (Sim:0h12m7s) 
Finished CPU 0 instr: 37000002 cyc: 40257798 AVG IPC: 0.91908 (Sim time: 0h12m7s)

ChampSim completed all CPUs

[ROI Statistics]
Core_0_instructions 37000002
Core_0_cycles 40257798
Core_0_IPC 0.91908

Core_0_branch_prediction_accuracy 98.43855
Core_0_branch_MPKI 0.50535
Core_0_average_ROB_occupancy_at_mispredict 336.04257

Core_0_L1D_total_access 12307992
Core_0_L1D_total_hit 11769963 L1D_total_Hit Ratio: 0.95629
Core_0_L1D_total_miss 538029
Core_0_L1D_loads 10620505
Core_0_L1D_load_hit 10393831 L1D_load_Hit Ratio: 0.97866
Core_0_L1D_load_miss 226674
Core_0_L1D_RFOs 1167305
Core_0_L1D_RFO_hit 1162819 L1D_RFO_Hit Ratio: 0.99616
Core_0_L1D_RFO_miss 4486
Core_0_L1D_prefetches 520182
Core_0_L1D_prefetch_hit 213313 L1D_prefetch_Hit Ratio: 0.41007
Core_0_L1D_prefetch_miss 306869
Core_0_L1D_writebacks 0
Core_0_L1D_writeback_hit 0 L1D_writeback_Hit Ratio: -nan
Core_0_L1D_writeback_miss 0
Core_0_L1D_prefetch_requested 668491
Core_0_L1D_prefetch_issued 668491
Core_0_L1D_prefetch_useful 312627 L1D_Useful Ratio: 0.46766
Core_0_L1D_prefetch_useless 7791
Core_0_L1D_prefetch_late 54897
Core_0_L1D_average_miss_latency 853796.01674

Core_0_L1I_total_access 5439038
Core_0_L1I_total_hit 5437207 L1I_total_Hit Ratio: 0.99966
Core_0_L1I_total_miss 1831
Core_0_L1I_loads 5439038
Core_0_L1I_load_hit 5437207 L1I_load_Hit Ratio: 0.99966
Core_0_L1I_load_miss 1831
Core_0_L1I_RFOs 0
Core_0_L1I_RFO_hit 0 L1I_RFO_Hit Ratio: -nan
Core_0_L1I_RFO_miss 0
Core_0_L1I_prefetches 0
Core_0_L1I_prefetch_hit 0 L1I_prefetch_Hit Ratio: -nan
Core_0_L1I_prefetch_miss 0
Core_0_L1I_writebacks 0
Core_0_L1I_writeback_hit 0 L1I_writeback_Hit Ratio: -nan
Core_0_L1I_writeback_miss 0
Core_0_L1I_prefetch_requested 0
Core_0_L1I_prefetch_issued 0
Core_0_L1I_prefetch_useful 0 L1I_Useful Ratio: -nan
Core_0_L1I_prefetch_useless 0
Core_0_L1I_prefetch_late 0
Core_0_L1I_average_miss_latency 223.78045

Core_0_L2C_total_access 909102
Core_0_L2C_total_hit 553492 L2C_total_Hit Ratio: 0.60883
Core_0_L2C_total_miss 355610
Core_0_L2C_loads 174540
Core_0_L2C_load_hit 91798 L2C_load_Hit Ratio: 0.52594
Core_0_L2C_load_miss 82742
Core_0_L2C_RFOs 4486
Core_0_L2C_RFO_hit 383 L2C_RFO_Hit Ratio: 0.08538
Core_0_L2C_RFO_miss 4103
Core_0_L2C_prefetches 491911
Core_0_L2C_prefetch_hit 223151 L2C_prefetch_Hit Ratio: 0.45364
Core_0_L2C_prefetch_miss 268760
Core_0_L2C_writebacks 238165
Core_0_L2C_writeback_hit 238160 L2C_writeback_Hit Ratio: 0.99998
Core_0_L2C_writeback_miss 5
Core_0_L2C_prefetch_requested 206799
Core_0_L2C_prefetch_issued 206799
Core_0_L2C_prefetch_useful 58801 L2C_Useful Ratio: 0.28434
Core_0_L2C_prefetch_useless 173135
Core_0_L2C_prefetch_late 30517
Core_0_L2C_average_miss_latency 143.94761

Core_0_LLC_total_access 549779
Core_0_LLC_total_hit 357626 LLC_total_Hit Ratio: 0.65049
Core_0_LLC_total_miss 192153
Core_0_LLC_loads 52236
Core_0_LLC_load_hit 19950 LLC_load_Hit Ratio: 0.38192
Core_0_LLC_load_miss 32286
Core_0_LLC_RFOs 4103
Core_0_LLC_RFO_hit 59 LLC_RFO_Hit Ratio: 0.01438
Core_0_LLC_RFO_miss 4044
Core_0_LLC_prefetches 299266
Core_0_LLC_prefetch_hit 143448 LLC_prefetch_Hit Ratio: 0.47933
Core_0_LLC_prefetch_miss 155818
Core_0_LLC_writebacks 194174
Core_0_LLC_writeback_hit 194169 LLC_writeback_Hit Ratio: 0.99997
Core_0_LLC_writeback_miss 5
Core_0_LLC_prefetch_requested 0
Core_0_LLC_prefetch_issued 0
Core_0_LLC_prefetch_useful 12576 LLC_Useful Ratio: inf
Core_0_LLC_prefetch_useless 42643
Core_0_LLC_prefetch_late 0
Core_0_LLC_average_miss_latency 195.35872

Core_0_major_page_fault 0
Core_0_minor_page_fault 3913

[Bingo] PHT Access: 48720
[Bingo] PHT Hit PC+Addr: 8673
[Bingo] PHT Hit PC+Offs: 36500
[Bingo] PHT Miss: 3547
[Bingo] Prefetch PC+Addr: 0
[Bingo] Prefetch PC+Offs: 0
[Bingo] Useful PC+Addr: 0
[Bingo] Useful PC+Offs: 0
[Bingo] Useless PC+Addr: 0
[Bingo] Useless PC+Offs: 0
[Bingo] L1 Prefetch per Region: 16.07248
[Bingo] L2 Prefetch per Region: 1.07066
[Bingo] L3 Prefetch per Region: 0.00000
[Bingo] No Prefetch per Region: 14.85686
[Bingo] Number of Voters Mean: 13.65099
[Bingo] Number of Voters SD: 5.63770
PHT read accesses: 704425
PHT write accesses: 47086
AT read accesses: 10004436
AT write accesses: 10004531
FT read accesses: 1505373
FT write accesses: 48720
PS read accesses: 401430
PS write accesses: 45173
PHT tag read accesses: 2097105
PHT tag write accesses: 55759
AT tag read accesses: 181375487
AT tag write accesses: 10051502
FT tag read accesses: 22653554
FT tag write accesses: 825700
PS tag read accesses: 172484590
PS tag write accesses: 444956
[Bingo2] PHT Access: 21019
[Bingo2] PHT Hit PC+Addr: 690
[Bingo2] PHT Hit PC+Offs: 16401
[Bingo2] PHT Miss: 3928
[Bingo2] Prefetch PC+Addr: 0
[Bingo2] Prefetch PC+Offs: 0
[Bingo2] Useful PC+Addr: 0
[Bingo2] Useful PC+Offs: 0
[Bingo2] Useless PC+Addr: 0
[Bingo2] Useless PC+Offs: 0
[Bingo2] L1 Prefetch per Region: 0.00000
[Bingo2] L2 Prefetch per Region: 15.20970
[Bingo2] L3 Prefetch per Region: 0.00000
[Bingo2] No Prefetch per Region: 16.79030
[Bingo2] Number of Voters Mean: 14.86507
[Bingo2] Number of Voters SD: 4.21751
PHT read accesses: 322151
PHT write accesses: 17342
AT read accesses: 151435
AT write accesses: 168644
FT read accesses: 56516
FT write accesses: 21019
PS read accesses: 62528
PS write accesses: 17091
PHT tag read accesses: 877374
PHT tag write accesses: 18032
AT tag read accesses: 8520728
AT tag write accesses: 168777
FT tag read accesses: 6356656
FT tag write accesses: 57974
PS tag read accesses: 3378773
PS tag write accesses: 78574
Channel_0_RQ_row_buffer_hit 162061
Channel_0_RQ_row_buffer_miss 30087
Channel_0_WQ_row_buffer_hit 18054
Channel_0_WQ_row_buffer_miss 21716
Channel_0_WQ_full 0
Channel_0_dbus_congested 159165

avg_congested_cycle 8

EzSearch AVG IPC :0.91908: L2-Pf-HR :0.45364 : L2-HR :0.60883 Uful:0.28434
     > Finished combination: TraceType=770-tot Sim:37000000 Prefetcher=L2bingo_dpc3_PHT1k L1=bingo_dpc3_PHT1k
