TRACE: [331000000][Pythia-70M]_[h8][s1024][d64] Warmup: 2000000 NumTraces: 331000000
L1:isb_ideal:L2:isb_ideal
*************************************************
   ChampSim Multicore Out-of-Order Simulator
   Last compiled: Oct 26 2024 20:50:35
*************************************************

trace_0 770-tot_memTraces_v3/memTraces[331000000][Pythia-70M]_[h8][s1024][d64].champsim.xz
L1D: Ideal ISB Prefetching
Ideal ISB Prefetching
MAIN.cc ln 751 stats print skipped
CPU  0 inst:    1000000 cyc:     498013 now IPC :2.00798: AVG IPC :2.00798: L2-Pf-HR :1.00000: L2-HR :0.87791: (Sim:0h0m20s) 
CPU  0 inst:    2000003 cyc:     980851 now IPC :2.07109: AVG IPC :2.03905: L2-Pf-HR :1.00000: L2-HR :0.91178: (Sim:0h0m41s) 

Warmup complete CPU  0 instructions:    2000003 cycles:     980851 (Simulation time: 0 hr 0 min 41 sec) 

CPU  0 inst:    3000004 cyc:    1618909 now IPC :1.56726: AVG IPC :1.56726: L2-Pf-HR :1.00000: L2-HR :0.94127: (Sim:0h0m59s) 
CPU  0 inst:    4000001 cyc:    2259571 now IPC :1.56088: AVG IPC :1.56406: L2-Pf-HR :1.00000: L2-HR :0.93984: (Sim:0h1m18s) 
CPU  0 inst:    5000000 cyc:    2897580 now IPC :1.56737: AVG IPC :1.56516: L2-Pf-HR :1.00000: L2-HR :0.94013: (Sim:0h1m36s) 
CPU  0 inst:    6000000 cyc:    3537845 now IPC :1.56185: AVG IPC :1.56434: L2-Pf-HR :1.00000: L2-HR :0.93963: (Sim:0h1m55s) 
CPU  0 inst:    7000004 cyc:    4209253 now IPC :1.48941: AVG IPC :1.54875: L2-Pf-HR :1.00000: L2-HR :0.93971: (Sim:0h2m13s) 
CPU  0 inst:    8000001 cyc:    4814127 now IPC :1.65323: AVG IPC :1.56524: L2-Pf-HR :1.00000: L2-HR :0.94215: (Sim:0h2m31s) 
CPU  0 inst:    9000001 cyc:    5419506 now IPC :1.65186: AVG IPC :1.57705: L2-Pf-HR :1.00000: L2-HR :0.94400: (Sim:0h2m49s) 
CPU  0 inst:   10000001 cyc:    6025303 now IPC :1.65072: AVG IPC :1.58590: L2-Pf-HR :1.00000: L2-HR :0.94513: (Sim:0h3m7s) 
CPU  0 inst:   11000001 cyc:    6630564 now IPC :1.65218: AVG IPC :1.59300: L2-Pf-HR :1.00000: L2-HR :0.94638: (Sim:0h3m25s) 
CPU  0 inst:   12000005 cyc:    7236402 now IPC :1.65061: AVG IPC :1.59858: L2-Pf-HR :1.00000: L2-HR :0.94697: (Sim:0h3m43s) 
CPU  0 inst:   13000000 cyc:    7881541 now IPC :1.55005: AVG IPC :1.59404: L2-Pf-HR :1.00000: L2-HR :0.94653: (Sim:0h4m2s) 
CPU  0 inst:   14000003 cyc:    8486190 now IPC :1.65386: AVG IPC :1.59886: L2-Pf-HR :1.00000: L2-HR :0.94701: (Sim:0h4m20s) 
CPU  0 inst:   15000005 cyc:    9091306 now IPC :1.65258: AVG IPC :1.60287: L2-Pf-HR :1.00000: L2-HR :0.94752: (Sim:0h4m38s) 
CPU  0 inst:   16000000 cyc:    9695584 now IPC :1.65486: AVG IPC :1.60647: L2-Pf-HR :1.00000: L2-HR :0.94786: (Sim:0h4m56s) 
CPU  0 inst:   17000002 cyc:   10374788 now IPC :1.47231: AVG IPC :1.59677: L2-Pf-HR :1.00000: L2-HR :0.94674: (Sim:0h5m15s) 
CPU  0 inst:   18000000 cyc:   10992712 now IPC :1.61832: AVG IPC :1.59810: L2-Pf-HR :1.00000: L2-HR :0.94687: (Sim:0h5m33s) 
CPU  0 inst:   19000001 cyc:   11611045 now IPC :1.61725: AVG IPC :1.59922: L2-Pf-HR :1.00000: L2-HR :0.94683: (Sim:0h5m51s) 
CPU  0 inst:   20000005 cyc:   12230164 now IPC :1.61520: AVG IPC :1.60010: L2-Pf-HR :1.00000: L2-HR :0.94694: (Sim:0h6m9s) 
CPU  0 inst:   21000003 cyc:   12849511 now IPC :1.61460: AVG IPC :1.60085: L2-Pf-HR :1.00000: L2-HR :0.94693: (Sim:0h6m27s) 
CPU  0 inst:   22000004 cyc:   13467386 now IPC :1.61845: AVG IPC :1.60173: L2-Pf-HR :1.00000: L2-HR :0.94697: (Sim:0h6m46s) 
CPU  0 inst:   23000005 cyc:   14149572 now IPC :1.46588: AVG IPC :1.59469: L2-Pf-HR :1.00000: L2-HR :0.94665: (Sim:0h7m5s) 
CPU  0 inst:   24000005 cyc:   14775134 now IPC :1.59856: AVG IPC :1.59486: L2-Pf-HR :1.00000: L2-HR :0.94700: (Sim:0h7m23s) 
CPU  0 inst:   25000001 cyc:   15398876 now IPC :1.60322: AVG IPC :1.59523: L2-Pf-HR :1.00000: L2-HR :0.94728: (Sim:0h7m41s) 
CPU  0 inst:   26000004 cyc:   16021821 now IPC :1.60528: AVG IPC :1.59564: L2-Pf-HR :1.00000: L2-HR :0.94764: (Sim:0h7m59s) 
CPU  0 inst:   27000003 cyc:   16645450 now IPC :1.60352: AVG IPC :1.59596: L2-Pf-HR :1.00000: L2-HR :0.94783: (Sim:0h8m16s) 
CPU  0 inst:   28000003 cyc:   17264827 now IPC :1.61453: AVG IPC :1.59666: L2-Pf-HR :1.00000: L2-HR :0.94812: (Sim:0h8m33s) 
CPU  0 inst:   29000002 cyc:   17966018 now IPC :1.42614: AVG IPC :1.58962: L2-Pf-HR :1.00000: L2-HR :0.94783: (Sim:0h8m50s) 
CPU  0 inst:   30000004 cyc:   18626760 now IPC :1.51345: AVG IPC :1.58677: L2-Pf-HR :1.00000: L2-HR :0.94802: (Sim:0h9m6s) 
CPU  0 inst:   31000005 cyc:   19283626 now IPC :1.52238: AVG IPC :1.58446: L2-Pf-HR :1.00000: L2-HR :0.94822: (Sim:0h9m25s) 
CPU  0 inst:   32000002 cyc:   19933616 now IPC :1.53848: AVG IPC :1.58288: L2-Pf-HR :1.00000: L2-HR :0.94835: (Sim:0h9m41s) 
CPU  0 inst:   33000001 cyc:   20676759 now IPC :1.34563: AVG IPC :1.57393: L2-Pf-HR :1.00000: L2-HR :0.94785: (Sim:0h9m58s) 
CPU  0 inst:   34000003 cyc:   21353482 now IPC :1.47771: AVG IPC :1.57073: L2-Pf-HR :1.00000: L2-HR :0.94780: (Sim:0h10m17s) 
CPU  0 inst:   35000000 cyc:   22031596 now IPC :1.47467: AVG IPC :1.56764: L2-Pf-HR :1.00000: L2-HR :0.94782: (Sim:0h10m34s) 
CPU  0 inst:   36000004 cyc:   22711730 now IPC :1.47030: AVG IPC :1.56459: L2-Pf-HR :1.00000: L2-HR :0.94778: (Sim:0h10m51s) 
CPU  0 inst:   37000000 cyc:   23392927 now IPC :1.46800: AVG IPC :1.56166: L2-Pf-HR :1.00000: L2-HR :0.94780: (Sim:0h11m4s) 
CPU  0 inst:   38000001 cyc:   24076089 now IPC :1.46378: AVG IPC :1.55876: L2-Pf-HR :1.00000: L2-HR :0.94777: (Sim:0h11m13s) 
CPU  0 inst:   39000003 cyc:   24837011 now IPC :1.31420: AVG IPC :1.55096: L2-Pf-HR :1.00000: L2-HR :0.94754: (Sim:0h11m21s) 
CPU  0 inst:   40000002 cyc:   25503180 now IPC :1.50112: AVG IPC :1.54961: L2-Pf-HR :1.00000: L2-HR :0.94771: (Sim:0h11m30s) 
CPU  0 inst:   41000003 cyc:   26168285 now IPC :1.50352: AVG IPC :1.54839: L2-Pf-HR :1.00000: L2-HR :0.94790: (Sim:0h11m41s) 
CPU  0 inst:   42000005 cyc:   26835414 now IPC :1.49896: AVG IPC :1.54712: L2-Pf-HR :1.00000: L2-HR :0.94801: (Sim:0h11m49s) 
CPU  0 inst:   43000000 cyc:   27501218 now IPC :1.50194: AVG IPC :1.54598: L2-Pf-HR :1.00000: L2-HR :0.94820: (Sim:0h11m57s) 
CPU  0 inst:   44000000 cyc:   28166390 now IPC :1.50337: AVG IPC :1.54494: L2-Pf-HR :1.00000: L2-HR :0.94831: (Sim:0h12m5s) 
CPU  0 inst:   45000005 cyc:   28888172 now IPC :1.38547: AVG IPC :1.54081: L2-Pf-HR :1.00000: L2-HR :0.94813: (Sim:0h12m14s) 
CPU  0 inst:   46000005 cyc:   29558362 now IPC :1.49211: AVG IPC :1.53967: L2-Pf-HR :1.00000: L2-HR :0.94827: (Sim:0h12m22s) 
CPU  0 inst:   47000002 cyc:   30230420 now IPC :1.48796: AVG IPC :1.53848: L2-Pf-HR :1.00000: L2-HR :0.94835: (Sim:0h12m30s) 
CPU  0 inst:   48000004 cyc:   30902171 now IPC :1.48865: AVG IPC :1.53737: L2-Pf-HR :1.00000: L2-HR :0.94845: (Sim:0h12m38s) 
CPU  0 inst:   49000002 cyc:   31665782 now IPC :1.30956: AVG IPC :1.53170: L2-Pf-HR :1.00000: L2-HR :0.94810: (Sim:0h12m47s) 
CPU  0 inst:   50000003 cyc:   32342806 now IPC :1.47705: AVG IPC :1.53052: L2-Pf-HR :1.00000: L2-HR :0.94810: (Sim:0h12m55s) 
CPU  0 inst:   51000004 cyc:   33022550 now IPC :1.47114: AVG IPC :1.52926: L2-Pf-HR :1.00000: L2-HR :0.94806: (Sim:0h13m4s) 
CPU  0 inst:   52000001 cyc:   33700516 now IPC :1.47500: AVG IPC :1.52813: L2-Pf-HR :1.00000: L2-HR :0.94806: (Sim:0h13m12s) 
CPU  0 inst:   53000003 cyc:   34378561 now IPC :1.47483: AVG IPC :1.52705: L2-Pf-HR :1.00000: L2-HR :0.94804: (Sim:0h13m20s) 
CPU  0 inst:   54000004 cyc:   35061579 now IPC :1.46409: AVG IPC :1.52579: L2-Pf-HR :1.00000: L2-HR :0.94803: (Sim:0h13m29s) 
CPU  0 inst:   55000001 cyc:   35826499 now IPC :1.30732: AVG IPC :1.52099: L2-Pf-HR :1.00000: L2-HR :0.94783: (Sim:0h13m38s) 
CPU  0 inst:   56000001 cyc:   36500256 now IPC :1.48421: AVG IPC :1.52030: L2-Pf-HR :1.00000: L2-HR :0.94795: (Sim:0h13m46s) 
CPU  0 inst:   57000001 cyc:   37171591 now IPC :1.48957: AVG IPC :1.51973: L2-Pf-HR :1.00000: L2-HR :0.94804: (Sim:0h13m55s) 
CPU  0 inst:   58000001 cyc:   37842128 now IPC :1.49134: AVG IPC :1.51921: L2-Pf-HR :1.00000: L2-HR :0.94818: (Sim:0h14m3s) 
CPU  0 inst:   59000001 cyc:   38513962 now IPC :1.48846: AVG IPC :1.51866: L2-Pf-HR :1.00000: L2-HR :0.94824: (Sim:0h14m11s) 
CPU  0 inst:   60000004 cyc:   39183353 now IPC :1.49390: AVG IPC :1.51823: L2-Pf-HR :1.00000: L2-HR :0.94836: (Sim:0h14m20s) 
CPU  0 inst:   61000005 cyc:   39902242 now IPC :1.39104: AVG IPC :1.51588: L2-Pf-HR :1.00000: L2-HR :0.94823: (Sim:0h14m28s) 
CPU  0 inst:   62000000 cyc:   40560395 now IPC :1.51940: AVG IPC :1.51593: L2-Pf-HR :1.00000: L2-HR :0.94830: (Sim:0h14m36s) 
CPU  0 inst:   63000001 cyc:   41219470 now IPC :1.51728: AVG IPC :1.51596: L2-Pf-HR :1.00000: L2-HR :0.94836: (Sim:0h14m45s) 
CPU  0 inst:   64000000 cyc:   41879775 now IPC :1.51445: AVG IPC :1.51593: L2-Pf-HR :1.00000: L2-HR :0.94845: (Sim:0h14m53s) 
CPU  0 inst:   65000002 cyc:   42626411 now IPC :1.33934: AVG IPC :1.51277: L2-Pf-HR :1.00000: L2-HR :0.94820: (Sim:0h15m2s) 
CPU  0 inst:   66000003 cyc:   43299692 now IPC :1.48527: AVG IPC :1.51233: L2-Pf-HR :1.00000: L2-HR :0.94817: (Sim:0h15m10s) 
CPU  0 inst:   67000001 cyc:   43973322 now IPC :1.48449: AVG IPC :1.51189: L2-Pf-HR :1.00000: L2-HR :0.94816: (Sim:0h15m18s) 
CPU  0 inst:   68000002 cyc:   44647891 now IPC :1.48243: AVG IPC :1.51144: L2-Pf-HR :1.00000: L2-HR :0.94814: (Sim:0h15m27s) 
CPU  0 inst:   69000000 cyc:   45322670 now IPC :1.48196: AVG IPC :1.51099: L2-Pf-HR :1.00000: L2-HR :0.94812: (Sim:0h15m35s) 
CPU  0 inst:   70000004 cyc:   45997301 now IPC :1.48230: AVG IPC :1.51056: L2-Pf-HR :1.00000: L2-HR :0.94811: (Sim:0h15m44s) 
CPU  0 inst:   71000001 cyc:   46755963 now IPC :1.31811: AVG IPC :1.50737: L2-Pf-HR :1.00000: L2-HR :0.94795: (Sim:0h15m52s) 
CPU  0 inst:   72000005 cyc:   47421814 now IPC :1.50184: AVG IPC :1.50729: L2-Pf-HR :1.00000: L2-HR :0.94802: (Sim:0h16m1s) 
CPU  0 inst:   73000001 cyc:   48087565 now IPC :1.50206: AVG IPC :1.50722: L2-Pf-HR :1.00000: L2-HR :0.94812: (Sim:0h16m9s) 
CPU  0 inst:   74000005 cyc:   48753133 now IPC :1.50248: AVG IPC :1.50715: L2-Pf-HR :1.00000: L2-HR :0.94817: (Sim:0h16m18s) 
CPU  0 inst:   75000003 cyc:   49418035 now IPC :1.50398: AVG IPC :1.50711: L2-Pf-HR :1.00000: L2-HR :0.94827: (Sim:0h16m26s) 
CPU  0 inst:   76000003 cyc:   50085027 now IPC :1.49927: AVG IPC :1.50700: L2-Pf-HR :1.00000: L2-HR :0.94833: (Sim:0h16m35s) 
CPU  0 inst:   77000003 cyc:   50797977 now IPC :1.40262: AVG IPC :1.50551: L2-Pf-HR :1.00000: L2-HR :0.94826: (Sim:0h16m44s) 
CPU  0 inst:   78000004 cyc:   51462867 now IPC :1.50401: AVG IPC :1.50549: L2-Pf-HR :1.00000: L2-HR :0.94828: (Sim:0h16m52s) 
CPU  0 inst:   79000000 cyc:   52124594 now IPC :1.51119: AVG IPC :1.50556: L2-Pf-HR :1.00000: L2-HR :0.94834: (Sim:0h17m0s) 
CPU  0 inst:   80000002 cyc:   52785425 now IPC :1.51325: AVG IPC :1.50566: L2-Pf-HR :1.00000: L2-HR :0.94839: (Sim:0h17m9s) 
CPU  0 inst:   81000001 cyc:   53525168 now IPC :1.35182: AVG IPC :1.50349: L2-Pf-HR :1.00000: L2-HR :0.94820: (Sim:0h17m17s) 
CPU  0 inst:   82000000 cyc:   54212974 now IPC :1.45390: AVG IPC :1.50285: L2-Pf-HR :1.00000: L2-HR :0.94819: (Sim:0h17m26s) 
CPU  0 inst:   83000004 cyc:   54903940 now IPC :1.44726: AVG IPC :1.50214: L2-Pf-HR :1.00000: L2-HR :0.94817: (Sim:0h17m34s) 
CPU  0 inst:   84000002 cyc:   55596219 now IPC :1.44450: AVG IPC :1.50141: L2-Pf-HR :1.00000: L2-HR :0.94816: (Sim:0h17m43s) 
CPU  0 inst:   85000003 cyc:   56289763 now IPC :1.44187: AVG IPC :1.50066: L2-Pf-HR :1.00000: L2-HR :0.94814: (Sim:0h17m51s) 
CPU  0 inst:   86000001 cyc:   56982432 now IPC :1.44369: AVG IPC :1.49996: L2-Pf-HR :1.00000: L2-HR :0.94813: (Sim:0h18m0s) 
CPU  0 inst:   87000002 cyc:   57737591 now IPC :1.32423: AVG IPC :1.49762: L2-Pf-HR :1.00000: L2-HR :0.94798: (Sim:0h18m9s) 
CPU  0 inst:   88000003 cyc:   58424510 now IPC :1.45578: AVG IPC :1.49712: L2-Pf-HR :1.00000: L2-HR :0.94805: (Sim:0h18m17s) 
CPU  0 inst:   89000003 cyc:   59096703 now IPC :1.48767: AVG IPC :1.49701: L2-Pf-HR :1.00000: L2-HR :0.94810: (Sim:0h18m26s) 
CPU  0 inst:   90000004 cyc:   59767192 now IPC :1.49145: AVG IPC :1.49695: L2-Pf-HR :1.00000: L2-HR :0.94818: (Sim:0h18m34s) 
CPU  0 inst:   91000001 cyc:   60437729 now IPC :1.49134: AVG IPC :1.49688: L2-Pf-HR :1.00000: L2-HR :0.94822: (Sim:0h18m42s) 
CPU  0 inst:   92000001 cyc:   61108669 now IPC :1.49045: AVG IPC :1.49681: L2-Pf-HR :1.00000: L2-HR :0.94829: (Sim:0h18m51s) 
CPU  0 inst:   93000002 cyc:   61833063 now IPC :1.38047: AVG IPC :1.49543: L2-Pf-HR :1.00000: L2-HR :0.94825: (Sim:0h18m59s) 
CPU  0 inst:   94000001 cyc:   62505825 now IPC :1.48641: AVG IPC :1.49533: L2-Pf-HR :1.00000: L2-HR :0.94824: (Sim:0h19m8s) 
CPU  0 inst:   95000002 cyc:   63175169 now IPC :1.49400: AVG IPC :1.49531: L2-Pf-HR :1.00000: L2-HR :0.94829: (Sim:0h19m16s) 
CPU  0 inst:   96000003 cyc:   63842764 now IPC :1.49792: AVG IPC :1.49534: L2-Pf-HR :1.00000: L2-HR :0.94832: (Sim:0h19m24s) 
CPU  0 inst:   97000000 cyc:   64564829 now IPC :1.38491: AVG IPC :1.49409: L2-Pf-HR :1.00000: L2-HR :0.94819: (Sim:0h19m33s) 
CPU  0 inst:   98000002 cyc:   65273735 now IPC :1.41063: AVG IPC :1.49317: L2-Pf-HR :1.00000: L2-HR :0.94816: (Sim:0h19m41s) 
CPU  0 inst:   99000001 cyc:   65958856 now IPC :1.45959: AVG IPC :1.49281: L2-Pf-HR :1.00000: L2-HR :0.94815: (Sim:0h19m51s) 
CPU  0 inst:  100000001 cyc:   66647729 now IPC :1.45165: AVG IPC :1.49238: L2-Pf-HR :1.00000: L2-HR :0.94814: (Sim:0h20m8s) 
CPU  0 inst:  101000000 cyc:   67336153 now IPC :1.45259: AVG IPC :1.49197: L2-Pf-HR :1.00000: L2-HR :0.94812: (Sim:0h20m23s) 
CPU  0 inst:  102000004 cyc:   68021288 now IPC :1.45957: AVG IPC :1.49164: L2-Pf-HR :1.00000: L2-HR :0.94811: (Sim:0h20m39s) 
CPU  0 inst:  103000003 cyc:   68717195 now IPC :1.43697: AVG IPC :1.49108: L2-Pf-HR :1.00000: L2-HR :0.94812: (Sim:0h20m59s) 
CPU  0 inst:  104000000 cyc:   69448770 now IPC :1.36691: AVG IPC :1.48975: L2-Pf-HR :1.00000: L2-HR :0.94802: (Sim:0h21m19s) 
CPU  0 inst:  105000004 cyc:   70101840 now IPC :1.53124: AVG IPC :1.49014: L2-Pf-HR :1.00000: L2-HR :0.94809: (Sim:0h21m38s) 
CPU  0 inst:  106000005 cyc:   70757673 now IPC :1.52478: AVG IPC :1.49047: L2-Pf-HR :1.00000: L2-HR :0.94812: (Sim:0h21m57s) 
CPU  0 inst:  107000005 cyc:   71410583 now IPC :1.53160: AVG IPC :1.49085: L2-Pf-HR :1.00000: L2-HR :0.94818: (Sim:0h22m16s) 
CPU  0 inst:  108000002 cyc:   72064219 now IPC :1.52990: AVG IPC :1.49121: L2-Pf-HR :1.00000: L2-HR :0.94822: (Sim:0h22m33s) 
CPU  0 inst:  109000003 cyc:   72726170 now IPC :1.51069: AVG IPC :1.49139: L2-Pf-HR :1.00000: L2-HR :0.94829: (Sim:0h22m50s) 
CPU  0 inst:  110000004 cyc:   73433268 now IPC :1.41423: AVG IPC :1.49063: L2-Pf-HR :1.00000: L2-HR :0.94819: (Sim:0h23m9s) 
CPU  0 inst:  111000001 cyc:   74091945 now IPC :1.51819: AVG IPC :1.49088: L2-Pf-HR :1.00000: L2-HR :0.94822: (Sim:0h23m26s) 
CPU  0 inst:  112000003 cyc:   74750057 now IPC :1.51950: AVG IPC :1.49114: L2-Pf-HR :1.00000: L2-HR :0.94826: (Sim:0h23m43s) 
CPU  0 inst:  113000003 cyc:   75407954 now IPC :1.51999: AVG IPC :1.49139: L2-Pf-HR :1.00000: L2-HR :0.94828: (Sim:0h24m0s) 
CPU  0 inst:  114000003 cyc:   76172684 now IPC :1.30765: AVG IPC :1.48952: L2-Pf-HR :1.00000: L2-HR :0.94812: (Sim:0h24m19s) 
CPU  0 inst:  115000000 cyc:   76849189 now IPC :1.47818: AVG IPC :1.48942: L2-Pf-HR :1.00000: L2-HR :0.94811: (Sim:0h24m37s) 
CPU  0 inst:  116000002 cyc:   77526302 now IPC :1.47686: AVG IPC :1.48931: L2-Pf-HR :1.00000: L2-HR :0.94809: (Sim:0h24m54s) 
CPU  0 inst:  117000002 cyc:   78204746 now IPC :1.47396: AVG IPC :1.48918: L2-Pf-HR :1.00000: L2-HR :0.94809: (Sim:0h25m12s) 
CPU  0 inst:  118000001 cyc:   78883736 now IPC :1.47277: AVG IPC :1.48903: L2-Pf-HR :1.00000: L2-HR :0.94807: (Sim:0h25m29s) 
CPU  0 inst:  119000005 cyc:   79562902 now IPC :1.47240: AVG IPC :1.48889: L2-Pf-HR :1.00000: L2-HR :0.94806: (Sim:0h25m46s) 
CPU  0 inst:  120000005 cyc:   80323528 now IPC :1.31471: AVG IPC :1.48722: L2-Pf-HR :1.00000: L2-HR :0.94799: (Sim:0h26m4s) 
CPU  0 inst:  121000004 cyc:   80999320 now IPC :1.47974: AVG IPC :1.48716: L2-Pf-HR :1.00000: L2-HR :0.94803: (Sim:0h26m22s) 
CPU  0 inst:  122000005 cyc:   81676291 now IPC :1.47717: AVG IPC :1.48707: L2-Pf-HR :1.00000: L2-HR :0.94808: (Sim:0h26m39s) 
CPU  0 inst:  123000004 cyc:   82353269 now IPC :1.47715: AVG IPC :1.48699: L2-Pf-HR :1.00000: L2-HR :0.94811: (Sim:0h26m56s) 
CPU  0 inst:  124000003 cyc:   83028136 now IPC :1.48177: AVG IPC :1.48695: L2-Pf-HR :1.00000: L2-HR :0.94816: (Sim:0h27m14s) 
CPU  0 inst:  125000003 cyc:   83704705 now IPC :1.47805: AVG IPC :1.48687: L2-Pf-HR :1.00000: L2-HR :0.94819: (Sim:0h27m32s) 
CPU  0 inst:  126000005 cyc:   84422001 now IPC :1.39413: AVG IPC :1.48608: L2-Pf-HR :1.00000: L2-HR :0.94812: (Sim:0h27m50s) 
CPU  0 inst:  127000000 cyc:   85094847 now IPC :1.48622: AVG IPC :1.48608: L2-Pf-HR :1.00000: L2-HR :0.94815: (Sim:0h28m7s) 
CPU  0 inst:  128000001 cyc:   85767580 now IPC :1.48648: AVG IPC :1.48608: L2-Pf-HR :1.00000: L2-HR :0.94818: (Sim:0h28m25s) 
CPU  0 inst:  129000004 cyc:   86440133 now IPC :1.48688: AVG IPC :1.48609: L2-Pf-HR :1.00000: L2-HR :0.94819: (Sim:0h28m41s) 
CPU  0 inst:  130000005 cyc:   90539169 now IPC :0.24396: AVG IPC :1.42924: L2-Pf-HR :1.00000: L2-HR :0.94137: (Sim:0h29m26s) 
CPU  0 inst:  131000004 cyc:   95622464 now IPC :0.19672: AVG IPC :1.36304: L2-Pf-HR :1.00000: L2-HR :0.93294: (Sim:0h30m21s) 
CPU  0 inst:  132000003 cyc:  100769049 now IPC :0.19430: AVG IPC :1.30276: L2-Pf-HR :1.00000: L2-HR :0.92483: (Sim:0h31m17s) 
CPU  0 inst:  133000002 cyc:  105919821 now IPC :0.19415: AVG IPC :1.24834: L2-Pf-HR :1.00000: L2-HR :0.91702: (Sim:0h32m13s) 
CPU  0 inst:  134000000 cyc:  110954830 now IPC :0.19861: AVG IPC :1.20028: L2-Pf-HR :1.00000: L2-HR :0.90982: (Sim:0h33m6s) 
CPU  0 inst:  135000000 cyc:  116029216 now IPC :0.19707: AVG IPC :1.15604: L2-Pf-HR :1.00000: L2-HR :0.90867: (Sim:0h33m45s) 
CPU  0 inst:  136000002 cyc:  121115031 now IPC :0.19663: AVG IPC :1.11542: L2-Pf-HR :1.00000: L2-HR :0.90751: (Sim:0h34m24s) 
CPU  0 inst:  137000000 cyc:  126201954 now IPC :0.19658: AVG IPC :1.07809: L2-Pf-HR :1.00000: L2-HR :0.90636: (Sim:0h35m3s) 
CPU  0 inst:  138000000 cyc:  131275161 now IPC :0.19711: AVG IPC :1.04379: L2-Pf-HR :1.00000: L2-HR :0.90522: (Sim:0h35m41s) 
CPU  0 inst:  139000000 cyc:  136361935 now IPC :0.19659: AVG IPC :1.01196: L2-Pf-HR :1.00000: L2-HR :0.90408: (Sim:0h36m19s) 
CPU  0 inst:  140000002 cyc:  141424369 now IPC :0.19753: AVG IPC :0.98260: L2-Pf-HR :1.00000: L2-HR :0.90295: (Sim:0h36m58s) 
CPU  0 inst:  141000004 cyc:  146459252 now IPC :0.19861: AVG IPC :0.95547: L2-Pf-HR :1.00000: L2-HR :0.90182: (Sim:0h37m37s) 
CPU  0 inst:  142000004 cyc:  151321609 now IPC :0.20566: AVG IPC :0.93122: L2-Pf-HR :1.00000: L2-HR :0.90069: (Sim:0h38m16s) 
CPU  0 inst:  143000000 cyc:  156173297 now IPC :0.20611: AVG IPC :0.90855: L2-Pf-HR :1.00000: L2-HR :0.89957: (Sim:0h38m53s) 
CPU  0 inst:  144000003 cyc:  160832308 now IPC :0.21464: AVG IPC :0.88832: L2-Pf-HR :1.00000: L2-HR :0.89845: (Sim:0h39m31s) 
CPU  0 inst:  145000002 cyc:  165682984 now IPC :0.20616: AVG IPC :0.86823: L2-Pf-HR :1.00000: L2-HR :0.89734: (Sim:0h40m9s) 
CPU  0 inst:  146000000 cyc:  170353988 now IPC :0.21409: AVG IPC :0.85019: L2-Pf-HR :1.00000: L2-HR :0.89623: (Sim:0h40m46s) 
CPU  0 inst:  147000000 cyc:  175213358 now IPC :0.20579: AVG IPC :0.83222: L2-Pf-HR :1.00000: L2-HR :0.89513: (Sim:0h41m24s) 
CPU  0 inst:  148000003 cyc:  179918741 now IPC :0.21252: AVG IPC :0.81593: L2-Pf-HR :1.00000: L2-HR :0.89403: (Sim:0h42m3s) 
CPU  0 inst:  149000002 cyc:  184616474 now IPC :0.21287: AVG IPC :0.80050: L2-Pf-HR :1.00000: L2-HR :0.89293: (Sim:0h42m41s) 
CPU  0 inst:  150000000 cyc:  189442440 now IPC :0.20721: AVG IPC :0.78531: L2-Pf-HR :1.00000: L2-HR :0.89184: (Sim:0h43m18s) 
CPU  0 inst:  151000000 cyc:  194147250 now IPC :0.21255: AVG IPC :0.77136: L2-Pf-HR :1.00000: L2-HR :0.89076: (Sim:0h43m56s) 
CPU  0 inst:  152000002 cyc:  198906734 now IPC :0.21011: AVG IPC :0.75786: L2-Pf-HR :1.00000: L2-HR :0.88967: (Sim:0h44m38s) 
CPU  0 inst:  153000000 cyc:  203573000 now IPC :0.21430: AVG IPC :0.74534: L2-Pf-HR :1.00000: L2-HR :0.88860: (Sim:0h45m21s) 
CPU  0 inst:  154000000 cyc:  208340387 now IPC :0.20976: AVG IPC :0.73303: L2-Pf-HR :1.00000: L2-HR :0.88752: (Sim:0h46m3s) 
CPU  0 inst:  155000000 cyc:  213072099 now IPC :0.21134: AVG IPC :0.72139: L2-Pf-HR :1.00000: L2-HR :0.88645: (Sim:0h46m46s) 
CPU  0 inst:  156000000 cyc:  217909396 now IPC :0.20673: AVG IPC :0.70991: L2-Pf-HR :1.00000: L2-HR :0.88539: (Sim:0h47m30s) 
CPU  0 inst:  157000002 cyc:  222630067 now IPC :0.21183: AVG IPC :0.69930: L2-Pf-HR :1.00000: L2-HR :0.88432: (Sim:0h48m12s) 
CPU  0 inst:  158000000 cyc:  227307364 now IPC :0.21380: AVG IPC :0.68927: L2-Pf-HR :1.00000: L2-HR :0.88327: (Sim:0h48m55s) 
CPU  0 inst:  159000004 cyc:  232078974 now IPC :0.20957: AVG IPC :0.67937: L2-Pf-HR :1.00000: L2-HR :0.88221: (Sim:0h49m38s) 
CPU  0 inst:  160000001 cyc:  236921200 now IPC :0.20652: AVG IPC :0.66966: L2-Pf-HR :1.00000: L2-HR :0.88116: (Sim:0h50m21s) 
CPU  0 inst:  161000000 cyc:  241632383 now IPC :0.21226: AVG IPC :0.66071: L2-Pf-HR :1.00000: L2-HR :0.88012: (Sim:0h51m4s) 
CPU  0 inst:  162000004 cyc:  246305757 now IPC :0.21398: AVG IPC :0.65220: L2-Pf-HR :1.00000: L2-HR :0.87908: (Sim:0h51m46s) 
CPU  0 inst:  163000004 cyc:  251149746 now IPC :0.20644: AVG IPC :0.64357: L2-Pf-HR :1.00000: L2-HR :0.87804: (Sim:0h52m29s) 
CPU  0 inst:  164000000 cyc:  255876964 now IPC :0.21154: AVG IPC :0.63555: L2-Pf-HR :1.00000: L2-HR :0.87700: (Sim:0h53m12s) 
CPU  0 inst:  165000003 cyc:  260659367 now IPC :0.20910: AVG IPC :0.62770: L2-Pf-HR :1.00000: L2-HR :0.87597: (Sim:0h53m55s) 
CPU  0 inst:  166000002 cyc:  265353137 now IPC :0.21305: AVG IPC :0.62034: L2-Pf-HR :1.00000: L2-HR :0.87495: (Sim:0h54m38s) 
CPU  0 inst:  167000001 cyc:  270088082 now IPC :0.21120: AVG IPC :0.61314: L2-Pf-HR :1.00000: L2-HR :0.87393: (Sim:0h55m20s) 
CPU  0 inst:  168000002 cyc:  274882626 now IPC :0.20857: AVG IPC :0.60606: L2-Pf-HR :1.00000: L2-HR :0.87291: (Sim:0h56m3s) 
CPU  0 inst:  169000003 cyc:  279567605 now IPC :0.21345: AVG IPC :0.59945: L2-Pf-HR :1.00000: L2-HR :0.87190: (Sim:0h56m46s) 
CPU  0 inst:  170000002 cyc:  284367073 now IPC :0.20836: AVG IPC :0.59283: L2-Pf-HR :1.00000: L2-HR :0.87089: (Sim:0h57m29s) 
CPU  0 inst:  171000000 cyc:  289017200 now IPC :0.21505: AVG IPC :0.58673: L2-Pf-HR :1.00000: L2-HR :0.86988: (Sim:0h58m12s) 
CPU  0 inst:  172000000 cyc:  293689961 now IPC :0.21401: AVG IPC :0.58078: L2-Pf-HR :1.00000: L2-HR :0.86887: (Sim:0h58m54s) 
CPU  0 inst:  173000000 cyc:  298449289 now IPC :0.21011: AVG IPC :0.57485: L2-Pf-HR :1.00000: L2-HR :0.86788: (Sim:0h59m37s) 
CPU  0 inst:  174000002 cyc:  303220620 now IPC :0.20959: AVG IPC :0.56908: L2-Pf-HR :1.00000: L2-HR :0.86688: (Sim:1h0m18s) 
CPU  0 inst:  175000000 cyc:  307945751 now IPC :0.21163: AVG IPC :0.56358: L2-Pf-HR :1.00000: L2-HR :0.86589: (Sim:1h0m59s) 
CPU  0 inst:  176000000 cyc:  312801655 now IPC :0.20593: AVG IPC :0.55801: L2-Pf-HR :1.00000: L2-HR :0.86490: (Sim:1h1m40s) 
CPU  0 inst:  177000000 cyc:  317505933 now IPC :0.21257: AVG IPC :0.55288: L2-Pf-HR :1.00000: L2-HR :0.86392: (Sim:1h2m21s) 
CPU  0 inst:  178000002 cyc:  322211722 now IPC :0.21250: AVG IPC :0.54789: L2-Pf-HR :1.00000: L2-HR :0.86294: (Sim:1h3m1s) 
CPU  0 inst:  179000004 cyc:  326949269 now IPC :0.21108: AVG IPC :0.54300: L2-Pf-HR :1.00000: L2-HR :0.86196: (Sim:1h3m42s) 
CPU  0 inst:  180000004 cyc:  331654394 now IPC :0.21253: AVG IPC :0.53830: L2-Pf-HR :1.00000: L2-HR :0.86098: (Sim:1h4m23s) 
CPU  0 inst:  181000000 cyc:  336415707 now IPC :0.21003: AVG IPC :0.53364: L2-Pf-HR :1.00000: L2-HR :0.86001: (Sim:1h5m3s) 
CPU  0 inst:  182000000 cyc:  341227614 now IPC :0.20782: AVG IPC :0.52903: L2-Pf-HR :1.00000: L2-HR :0.85905: (Sim:1h5m44s) 
CPU  0 inst:  183000000 cyc:  346013010 now IPC :0.20897: AVG IPC :0.52459: L2-Pf-HR :1.00000: L2-HR :0.85809: (Sim:1h6m25s) 
CPU  0 inst:  184000004 cyc:  350701741 now IPC :0.21328: AVG IPC :0.52042: L2-Pf-HR :1.00000: L2-HR :0.85713: (Sim:1h7m6s) 
CPU  0 inst:  185000000 cyc:  355428327 now IPC :0.21157: AVG IPC :0.51630: L2-Pf-HR :1.00000: L2-HR :0.85617: (Sim:1h7m47s) 
CPU  0 inst:  186000003 cyc:  360044936 now IPC :0.21661: AVG IPC :0.51244: L2-Pf-HR :1.00000: L2-HR :0.85522: (Sim:1h8m27s) 
CPU  0 inst:  187000002 cyc:  364662201 now IPC :0.21658: AVG IPC :0.50869: L2-Pf-HR :1.00000: L2-HR :0.85427: (Sim:1h9m7s) 
CPU  0 inst:  188000000 cyc:  369366742 now IPC :0.21256: AVG IPC :0.50491: L2-Pf-HR :1.00000: L2-HR :0.85332: (Sim:1h9m48s) 
CPU  0 inst:  189000002 cyc:  374051030 now IPC :0.21348: AVG IPC :0.50125: L2-Pf-HR :1.00000: L2-HR :0.85238: (Sim:1h10m29s) 
CPU  0 inst:  190000000 cyc:  378715869 now IPC :0.21437: AVG IPC :0.49770: L2-Pf-HR :1.00000: L2-HR :0.85144: (Sim:1h11m10s) 
CPU  0 inst:  191000000 cyc:  383570920 now IPC :0.20597: AVG IPC :0.49400: L2-Pf-HR :1.00000: L2-HR :0.85051: (Sim:1h11m52s) 
CPU  0 inst:  192000000 cyc:  388225240 now IPC :0.21485: AVG IPC :0.49065: L2-Pf-HR :1.00000: L2-HR :0.84958: (Sim:1h12m34s) 
CPU  0 inst:  193000000 cyc:  392924971 now IPC :0.21278: AVG IPC :0.48731: L2-Pf-HR :1.00000: L2-HR :0.84865: (Sim:1h13m15s) 
CPU  0 inst:  194000000 cyc:  397675464 now IPC :0.21050: AVG IPC :0.48400: L2-Pf-HR :1.00000: L2-HR :0.84772: (Sim:1h13m56s) 
CPU  0 inst:  195000002 cyc:  402458390 now IPC :0.20908: AVG IPC :0.48072: L2-Pf-HR :1.00000: L2-HR :0.84680: (Sim:1h14m39s) 
CPU  0 inst:  196000004 cyc:  407108450 now IPC :0.21505: AVG IPC :0.47768: L2-Pf-HR :1.00000: L2-HR :0.84588: (Sim:1h15m21s) 
CPU  0 inst:  197000002 cyc:  411785662 now IPC :0.21380: AVG IPC :0.47468: L2-Pf-HR :1.00000: L2-HR :0.84497: (Sim:1h16m3s) 
CPU  0 inst:  198000004 cyc:  414947666 now IPC :0.31626: AVG IPC :0.47347: L2-Pf-HR :1.00000: L2-HR :0.84435: (Sim:1h16m39s) 
CPU  0 inst:  199000003 cyc:  415674340 now IPC :1.37613: AVG IPC :0.47505: L2-Pf-HR :1.00000: L2-HR :0.84441: (Sim:1h17m6s) 
CPU  0 inst:  200000001 cyc:  416384774 now IPC :1.40759: AVG IPC :0.47664: L2-Pf-HR :1.00000: L2-HR :0.84450: (Sim:1h17m32s) 
CPU  0 inst:  201000005 cyc:  417099864 now IPC :1.39843: AVG IPC :0.47823: L2-Pf-HR :1.00000: L2-HR :0.84459: (Sim:1h17m59s) 
CPU  0 inst:  202000001 cyc:  417842678 now IPC :1.34623: AVG IPC :0.47978: L2-Pf-HR :0.99999: L2-HR :0.84462: (Sim:1h18m25s) 
CPU  0 inst:  203000000 cyc:  418509863 now IPC :1.49883: AVG IPC :0.48140: L2-Pf-HR :0.99999: L2-HR :0.84479: (Sim:1h18m51s) 
CPU  0 inst:  204000003 cyc:  419174283 now IPC :1.50508: AVG IPC :0.48303: L2-Pf-HR :0.99999: L2-HR :0.84497: (Sim:1h19m17s) 
CPU  0 inst:  205000003 cyc:  419846166 now IPC :1.48835: AVG IPC :0.48464: L2-Pf-HR :0.99999: L2-HR :0.84515: (Sim:1h19m44s) 
CPU  0 inst:  206000002 cyc:  420548037 now IPC :1.42476: AVG IPC :0.48622: L2-Pf-HR :0.99998: L2-HR :0.84526: (Sim:1h20m10s) 
CPU  0 inst:  207000005 cyc:  421227193 now IPC :1.47242: AVG IPC :0.48781: L2-Pf-HR :0.99997: L2-HR :0.84540: (Sim:1h20m36s) 
CPU  0 inst:  208000001 cyc:  421887367 now IPC :1.51475: AVG IPC :0.48942: L2-Pf-HR :0.99997: L2-HR :0.84558: (Sim:1h21m3s) 
CPU  0 inst:  209000001 cyc:  422557743 now IPC :1.49170: AVG IPC :0.49101: L2-Pf-HR :0.99996: L2-HR :0.84575: (Sim:1h21m29s) 
CPU  0 inst:  210000001 cyc:  423239425 now IPC :1.46696: AVG IPC :0.49259: L2-Pf-HR :0.99995: L2-HR :0.84588: (Sim:1h21m55s) 
CPU  0 inst:  211000000 cyc:  423928872 now IPC :1.45044: AVG IPC :0.49415: L2-Pf-HR :0.99994: L2-HR :0.84596: (Sim:1h22m22s) 
CPU  0 inst:  212000005 cyc:  424584769 now IPC :1.52464: AVG IPC :0.49575: L2-Pf-HR :0.99994: L2-HR :0.84609: (Sim:1h22m48s) 
CPU  0 inst:  213000004 cyc:  425249778 now IPC :1.50374: AVG IPC :0.49733: L2-Pf-HR :0.99993: L2-HR :0.84621: (Sim:1h23m14s) 
CPU  0 inst:  214000003 cyc:  425907384 now IPC :1.52067: AVG IPC :0.49891: L2-Pf-HR :0.99993: L2-HR :0.84633: (Sim:1h23m40s) 
CPU  0 inst:  215000002 cyc:  426649663 now IPC :1.34720: AVG IPC :0.50039: L2-Pf-HR :0.99992: L2-HR :0.84634: (Sim:1h24m7s) 
CPU  0 inst:  216000005 cyc:  427365578 now IPC :1.39682: AVG IPC :0.50189: L2-Pf-HR :0.99992: L2-HR :0.84642: (Sim:1h24m33s) 
CPU  0 inst:  217000000 cyc:  428081200 now IPC :1.39738: AVG IPC :0.50339: L2-Pf-HR :0.99992: L2-HR :0.84650: (Sim:1h25m0s) 
CPU  0 inst:  218000001 cyc:  428792000 now IPC :1.40687: AVG IPC :0.50490: L2-Pf-HR :0.99992: L2-HR :0.84658: (Sim:1h25m26s) 
CPU  0 inst:  219000002 cyc:  429509544 now IPC :1.39364: AVG IPC :0.50638: L2-Pf-HR :0.99992: L2-HR :0.84664: (Sim:1h25m52s) 
CPU  0 inst:  220000003 cyc:  430176580 now IPC :1.49917: AVG IPC :0.50793: L2-Pf-HR :0.99992: L2-HR :0.84680: (Sim:1h26m19s) 
CPU  0 inst:  221000000 cyc:  430853890 now IPC :1.47642: AVG IPC :0.50945: L2-Pf-HR :0.99992: L2-HR :0.84696: (Sim:1h26m35s) 
CPU  0 inst:  222000005 cyc:  431522389 now IPC :1.49590: AVG IPC :0.51098: L2-Pf-HR :0.99992: L2-HR :0.84711: (Sim:1h26m46s) 
CPU  0 inst:  223000002 cyc:  432200726 now IPC :1.47419: AVG IPC :0.51250: L2-Pf-HR :0.99992: L2-HR :0.84723: (Sim:1h26m58s) 
CPU  0 inst:  224000001 cyc:  432869880 now IPC :1.49442: AVG IPC :0.51402: L2-Pf-HR :0.99992: L2-HR :0.84739: (Sim:1h27m9s) 
CPU  0 inst:  225000000 cyc:  433554179 now IPC :1.46135: AVG IPC :0.51552: L2-Pf-HR :0.99992: L2-HR :0.84752: (Sim:1h27m20s) 
CPU  0 inst:  226000001 cyc:  434223189 now IPC :1.49475: AVG IPC :0.51703: L2-Pf-HR :0.99992: L2-HR :0.84766: (Sim:1h27m31s) 
CPU  0 inst:  227000005 cyc:  434889978 now IPC :1.49973: AVG IPC :0.51854: L2-Pf-HR :0.99992: L2-HR :0.84780: (Sim:1h27m55s) 
CPU  0 inst:  228000001 cyc:  435558365 now IPC :1.49613: AVG IPC :0.52005: L2-Pf-HR :0.99992: L2-HR :0.84790: (Sim:1h28m21s) 
CPU  0 inst:  229000000 cyc:  436235375 now IPC :1.47708: AVG IPC :0.52153: L2-Pf-HR :0.99992: L2-HR :0.84800: (Sim:1h28m46s) 
CPU  0 inst:  230000002 cyc:  436906455 now IPC :1.49014: AVG IPC :0.52303: L2-Pf-HR :0.99991: L2-HR :0.84809: (Sim:1h29m12s) 
CPU  0 inst:  231000002 cyc:  437548547 now IPC :1.55741: AVG IPC :0.52455: L2-Pf-HR :0.99991: L2-HR :0.84822: (Sim:1h29m37s) 
CPU  0 inst:  232000000 cyc:  438273222 now IPC :1.37993: AVG IPC :0.52596: L2-Pf-HR :0.99991: L2-HR :0.84824: (Sim:1h30m2s) 
CPU  0 inst:  233000002 cyc:  438968486 now IPC :1.43831: AVG IPC :0.52741: L2-Pf-HR :0.99991: L2-HR :0.84829: (Sim:1h30m28s) 
CPU  0 inst:  234000000 cyc:  439655669 now IPC :1.45521: AVG IPC :0.52887: L2-Pf-HR :0.99991: L2-HR :0.84837: (Sim:1h30m54s) 
CPU  0 inst:  235000001 cyc:  440351404 now IPC :1.43733: AVG IPC :0.53030: L2-Pf-HR :0.99991: L2-HR :0.84843: (Sim:1h31m19s) 
CPU  0 inst:  236000001 cyc:  441026457 now IPC :1.48137: AVG IPC :0.53176: L2-Pf-HR :0.99990: L2-HR :0.84852: (Sim:1h31m45s) 
CPU  0 inst:  237000000 cyc:  441665888 now IPC :1.56389: AVG IPC :0.53326: L2-Pf-HR :0.99990: L2-HR :0.84868: (Sim:1h32m10s) 
CPU  0 inst:  238000004 cyc:  442303233 now IPC :1.56902: AVG IPC :0.53476: L2-Pf-HR :0.99990: L2-HR :0.84884: (Sim:1h32m35s) 
CPU  0 inst:  239000002 cyc:  442943630 now IPC :1.56153: AVG IPC :0.53624: L2-Pf-HR :0.99990: L2-HR :0.84901: (Sim:1h33m0s) 
CPU  0 inst:  240000003 cyc:  443621297 now IPC :1.47565: AVG IPC :0.53768: L2-Pf-HR :0.99988: L2-HR :0.84909: (Sim:1h33m25s) 
CPU  0 inst:  241000005 cyc:  444262508 now IPC :1.55955: AVG IPC :0.53916: L2-Pf-HR :0.99988: L2-HR :0.84924: (Sim:1h33m50s) 
CPU  0 inst:  242000002 cyc:  444901218 now IPC :1.56565: AVG IPC :0.54064: L2-Pf-HR :0.99988: L2-HR :0.84940: (Sim:1h34m15s) 
CPU  0 inst:  243000003 cyc:  445540173 now IPC :1.56506: AVG IPC :0.54211: L2-Pf-HR :0.99988: L2-HR :0.84956: (Sim:1h34m39s) 
CPU  0 inst:  244000001 cyc:  446213110 now IPC :1.48602: AVG IPC :0.54354: L2-Pf-HR :0.99987: L2-HR :0.84962: (Sim:1h35m4s) 
CPU  0 inst:  245000000 cyc:  446850111 now IPC :1.56985: AVG IPC :0.54500: L2-Pf-HR :0.99986: L2-HR :0.84973: (Sim:1h35m29s) 
CPU  0 inst:  246000002 cyc:  447485781 now IPC :1.57315: AVG IPC :0.54647: L2-Pf-HR :0.99986: L2-HR :0.84985: (Sim:1h35m54s) 
CPU  0 inst:  247000003 cyc:  448123401 now IPC :1.56833: AVG IPC :0.54792: L2-Pf-HR :0.99986: L2-HR :0.84996: (Sim:1h36m19s) 
CPU  0 inst:  248000001 cyc:  448811207 now IPC :1.45390: AVG IPC :0.54932: L2-Pf-HR :0.99986: L2-HR :0.84998: (Sim:1h36m44s) 
CPU  0 inst:  249000005 cyc:  449499106 now IPC :1.45371: AVG IPC :0.55070: L2-Pf-HR :0.99986: L2-HR :0.85005: (Sim:1h37m9s) 
CPU  0 inst:  250000003 cyc:  450183909 now IPC :1.46027: AVG IPC :0.55209: L2-Pf-HR :0.99986: L2-HR :0.85012: (Sim:1h37m34s) 
CPU  0 inst:  251000004 cyc:  450867825 now IPC :1.46217: AVG IPC :0.55347: L2-Pf-HR :0.99986: L2-HR :0.85020: (Sim:1h37m59s) 
CPU  0 inst:  252000005 cyc:  451575450 now IPC :1.41318: AVG IPC :0.55482: L2-Pf-HR :0.99985: L2-HR :0.85021: (Sim:1h38m24s) 
CPU  0 inst:  253000005 cyc:  452219383 now IPC :1.55296: AVG IPC :0.55625: L2-Pf-HR :0.99985: L2-HR :0.85035: (Sim:1h38m48s) 
CPU  0 inst:  254000000 cyc:  452863722 now IPC :1.55197: AVG IPC :0.55767: L2-Pf-HR :0.99985: L2-HR :0.85049: (Sim:1h39m13s) 
CPU  0 inst:  255000000 cyc:  453509276 now IPC :1.54906: AVG IPC :0.55908: L2-Pf-HR :0.99985: L2-HR :0.85064: (Sim:1h39m38s) 
CPU  0 inst:  256000002 cyc:  454167096 now IPC :1.52018: AVG IPC :0.56048: L2-Pf-HR :0.99985: L2-HR :0.85075: (Sim:1h40m2s) 
CPU  0 inst:  257000003 cyc:  454822021 now IPC :1.52689: AVG IPC :0.56187: L2-Pf-HR :0.99984: L2-HR :0.85085: (Sim:1h40m27s) 
CPU  0 inst:  258000004 cyc:  455470104 now IPC :1.54301: AVG IPC :0.56327: L2-Pf-HR :0.99984: L2-HR :0.85100: (Sim:1h40m52s) 
CPU  0 inst:  259000001 cyc:  456123327 now IPC :1.53087: AVG IPC :0.56466: L2-Pf-HR :0.99984: L2-HR :0.85112: (Sim:1h41m17s) 
CPU  0 inst:  260000000 cyc:  456776775 now IPC :1.53034: AVG IPC :0.56604: L2-Pf-HR :0.99984: L2-HR :0.85124: (Sim:1h41m41s) 
CPU  0 inst:  261000000 cyc:  457421012 now IPC :1.55222: AVG IPC :0.56743: L2-Pf-HR :0.99983: L2-HR :0.85133: (Sim:1h42m6s) 
CPU  0 inst:  262000000 cyc:  458067356 now IPC :1.54716: AVG IPC :0.56882: L2-Pf-HR :0.99983: L2-HR :0.85142: (Sim:1h42m31s) 
CPU  0 inst:  263000003 cyc:  458712677 now IPC :1.54962: AVG IPC :0.57020: L2-Pf-HR :0.99983: L2-HR :0.85150: (Sim:1h42m56s) 
CPU  0 inst:  264000005 cyc:  459361715 now IPC :1.54074: AVG IPC :0.57158: L2-Pf-HR :0.99983: L2-HR :0.85158: (Sim:1h43m21s) 
CPU  0 inst:  265000004 cyc:  460037596 now IPC :1.47955: AVG IPC :0.57291: L2-Pf-HR :0.99982: L2-HR :0.85163: (Sim:1h43m46s) 
CPU  0 inst:  266000000 cyc:  460746718 now IPC :1.41019: AVG IPC :0.57421: L2-Pf-HR :0.99982: L2-HR :0.85166: (Sim:1h44m11s) 
CPU  0 inst:  267000000 cyc:  461445162 now IPC :1.43175: AVG IPC :0.57551: L2-Pf-HR :0.99982: L2-HR :0.85171: (Sim:1h44m36s) 
CPU  0 inst:  268000004 cyc:  462129653 now IPC :1.46095: AVG IPC :0.57682: L2-Pf-HR :0.99982: L2-HR :0.85177: (Sim:1h45m1s) 
CPU  0 inst:  269000000 cyc:  462814841 now IPC :1.45945: AVG IPC :0.57813: L2-Pf-HR :0.99981: L2-HR :0.85181: (Sim:1h45m25s) 
CPU  0 inst:  270000003 cyc:  463470377 now IPC :1.52547: AVG IPC :0.57947: L2-Pf-HR :0.99981: L2-HR :0.85193: (Sim:1h45m50s) 
CPU  0 inst:  271000004 cyc:  464119368 now IPC :1.54085: AVG IPC :0.58082: L2-Pf-HR :0.99981: L2-HR :0.85206: (Sim:1h46m15s) 
CPU  0 inst:  272000001 cyc:  464766899 now IPC :1.54432: AVG IPC :0.58217: L2-Pf-HR :0.99981: L2-HR :0.85220: (Sim:1h46m39s) 
CPU  0 inst:  273000000 cyc:  465434911 now IPC :1.49698: AVG IPC :0.58348: L2-Pf-HR :0.99981: L2-HR :0.85227: (Sim:1h47m3s) 
CPU  0 inst:  274000001 cyc:  466082242 now IPC :1.54481: AVG IPC :0.58482: L2-Pf-HR :0.99980: L2-HR :0.85240: (Sim:1h47m27s) 
CPU  0 inst:  275000000 cyc:  466727891 now IPC :1.54883: AVG IPC :0.58616: L2-Pf-HR :0.99980: L2-HR :0.85254: (Sim:1h47m52s) 
CPU  0 inst:  276000005 cyc:  467377528 now IPC :1.53933: AVG IPC :0.58748: L2-Pf-HR :0.99980: L2-HR :0.85268: (Sim:1h48m16s) 
CPU  0 inst:  277000000 cyc:  468036838 now IPC :1.51673: AVG IPC :0.58879: L2-Pf-HR :0.99980: L2-HR :0.85277: (Sim:1h48m40s) 
CPU  0 inst:  278000005 cyc:  468675311 now IPC :1.56624: AVG IPC :0.59013: L2-Pf-HR :0.99979: L2-HR :0.85285: (Sim:1h49m5s) 
CPU  0 inst:  279000001 cyc:  469319522 now IPC :1.55228: AVG IPC :0.59145: L2-Pf-HR :0.99979: L2-HR :0.85294: (Sim:1h49m29s) 
CPU  0 inst:  280000001 cyc:  469962038 now IPC :1.55638: AVG IPC :0.59277: L2-Pf-HR :0.99979: L2-HR :0.85304: (Sim:1h49m53s) 
CPU  0 inst:  281000002 cyc:  470612724 now IPC :1.53684: AVG IPC :0.59408: L2-Pf-HR :0.99978: L2-HR :0.85311: (Sim:1h50m18s) 
CPU  0 inst:  282000001 cyc:  471317354 now IPC :1.41918: AVG IPC :0.59532: L2-Pf-HR :0.99978: L2-HR :0.85312: (Sim:1h50m42s) 
CPU  0 inst:  283000000 cyc:  472003018 now IPC :1.45844: AVG IPC :0.59657: L2-Pf-HR :0.99978: L2-HR :0.85318: (Sim:1h51m7s) 
CPU  0 inst:  284000002 cyc:  472689568 now IPC :1.45656: AVG IPC :0.59783: L2-Pf-HR :0.99978: L2-HR :0.85324: (Sim:1h51m32s) 
CPU  0 inst:  285000003 cyc:  473372734 now IPC :1.46377: AVG IPC :0.59908: L2-Pf-HR :0.99978: L2-HR :0.85330: (Sim:1h51m56s) 
CPU  0 inst:  286000001 cyc:  474056070 now IPC :1.46341: AVG IPC :0.60033: L2-Pf-HR :0.99977: L2-HR :0.85334: (Sim:1h52m21s) 
CPU  0 inst:  287000002 cyc:  474701436 now IPC :1.54951: AVG IPC :0.60162: L2-Pf-HR :0.99978: L2-HR :0.85347: (Sim:1h52m45s) 
CPU  0 inst:  288000002 cyc:  475347390 now IPC :1.54810: AVG IPC :0.60291: L2-Pf-HR :0.99978: L2-HR :0.85360: (Sim:1h53m9s) 
CPU  0 inst:  289000004 cyc:  475992823 now IPC :1.54935: AVG IPC :0.60420: L2-Pf-HR :0.99978: L2-HR :0.85372: (Sim:1h53m34s) 
CPU  0 inst:  290000002 cyc:  476658796 now IPC :1.50156: AVG IPC :0.60545: L2-Pf-HR :0.99976: L2-HR :0.85378: (Sim:1h53m58s) 
CPU  0 inst:  291000001 cyc:  477302548 now IPC :1.55339: AVG IPC :0.60673: L2-Pf-HR :0.99976: L2-HR :0.85390: (Sim:1h54m23s) 
CPU  0 inst:  292000002 cyc:  477947080 now IPC :1.55151: AVG IPC :0.60801: L2-Pf-HR :0.99976: L2-HR :0.85403: (Sim:1h54m47s) 
CPU  0 inst:  293000000 cyc:  478597282 now IPC :1.53798: AVG IPC :0.60928: L2-Pf-HR :0.99976: L2-HR :0.85413: (Sim:1h55m11s) 
CPU  0 inst:  294000005 cyc:  479255961 now IPC :1.51820: AVG IPC :0.61053: L2-Pf-HR :0.99975: L2-HR :0.85420: (Sim:1h55m36s) 
CPU  0 inst:  295000001 cyc:  479891693 now IPC :1.57298: AVG IPC :0.61180: L2-Pf-HR :0.99975: L2-HR :0.85428: (Sim:1h56m1s) 
CPU  0 inst:  296000005 cyc:  480530556 now IPC :1.56529: AVG IPC :0.61308: L2-Pf-HR :0.99975: L2-HR :0.85436: (Sim:1h56m26s) 
CPU  0 inst:  297000002 cyc:  481176247 now IPC :1.54872: AVG IPC :0.61433: L2-Pf-HR :0.99975: L2-HR :0.85442: (Sim:1h56m51s) 
CPU  0 inst:  298000005 cyc:  481840380 now IPC :1.50573: AVG IPC :0.61556: L2-Pf-HR :0.99974: L2-HR :0.85447: (Sim:1h57m17s) 
CPU  0 inst:  299000005 cyc:  482536311 now IPC :1.43692: AVG IPC :0.61675: L2-Pf-HR :0.99974: L2-HR :0.85451: (Sim:1h57m42s) 
CPU  0 inst:  300000000 cyc:  483243528 now IPC :1.41399: AVG IPC :0.61792: L2-Pf-HR :0.99974: L2-HR :0.85453: (Sim:1h58m8s) 
CPU  0 inst:  301000003 cyc:  483944377 now IPC :1.42685: AVG IPC :0.61909: L2-Pf-HR :0.99974: L2-HR :0.85457: (Sim:1h58m33s) 
CPU  0 inst:  302000000 cyc:  484630198 now IPC :1.45810: AVG IPC :0.62028: L2-Pf-HR :0.99974: L2-HR :0.85462: (Sim:1h58m58s) 
CPU  0 inst:  303000003 cyc:  485290747 now IPC :1.51390: AVG IPC :0.62150: L2-Pf-HR :0.99974: L2-HR :0.85469: (Sim:1h59m23s) 
CPU  0 inst:  304000000 cyc:  485948530 now IPC :1.52025: AVG IPC :0.62272: L2-Pf-HR :0.99974: L2-HR :0.85480: (Sim:1h59m48s) 
CPU  0 inst:  305000001 cyc:  486597023 now IPC :1.54204: AVG IPC :0.62395: L2-Pf-HR :0.99974: L2-HR :0.85492: (Sim:2h0m13s) 
CPU  0 inst:  306000002 cyc:  487256668 now IPC :1.51597: AVG IPC :0.62516: L2-Pf-HR :0.99974: L2-HR :0.85501: (Sim:2h0m38s) 
CPU  0 inst:  307000004 cyc:  487917357 now IPC :1.51357: AVG IPC :0.62637: L2-Pf-HR :0.99973: L2-HR :0.85509: (Sim:2h1m4s) 
CPU  0 inst:  308000001 cyc:  488567266 now IPC :1.53867: AVG IPC :0.62758: L2-Pf-HR :0.99973: L2-HR :0.85521: (Sim:2h1m29s) 
CPU  0 inst:  309000002 cyc:  489219263 now IPC :1.53375: AVG IPC :0.62879: L2-Pf-HR :0.99973: L2-HR :0.85533: (Sim:2h1m54s) 
CPU  0 inst:  310000005 cyc:  489869385 now IPC :1.53818: AVG IPC :0.63000: L2-Pf-HR :0.99973: L2-HR :0.85545: (Sim:2h2m19s) 
CPU  0 inst:  311000002 cyc:  490536408 now IPC :1.49919: AVG IPC :0.63118: L2-Pf-HR :0.99972: L2-HR :0.85548: (Sim:2h2m44s) 
CPU  0 inst:  312000001 cyc:  491173753 now IPC :1.56901: AVG IPC :0.63240: L2-Pf-HR :0.99972: L2-HR :0.85556: (Sim:2h3m9s) 
CPU  0 inst:  313000005 cyc:  491812267 now IPC :1.56614: AVG IPC :0.63362: L2-Pf-HR :0.99972: L2-HR :0.85564: (Sim:2h3m33s) 
CPU  0 inst:  314000000 cyc:  492451767 now IPC :1.56371: AVG IPC :0.63483: L2-Pf-HR :0.99971: L2-HR :0.85573: (Sim:2h3m58s) 
CPU  0 inst:  315000005 cyc:  493155049 now IPC :1.42191: AVG IPC :0.63595: L2-Pf-HR :0.99971: L2-HR :0.85572: (Sim:2h4m23s) 
CPU  0 inst:  316000000 cyc:  493846087 now IPC :1.44709: AVG IPC :0.63709: L2-Pf-HR :0.99971: L2-HR :0.85577: (Sim:2h4m48s) 
CPU  0 inst:  317000005 cyc:  494538210 now IPC :1.44484: AVG IPC :0.63822: L2-Pf-HR :0.99971: L2-HR :0.85582: (Sim:2h5m13s) 
CPU  0 inst:  318000003 cyc:  495219407 now IPC :1.46800: AVG IPC :0.63937: L2-Pf-HR :0.99971: L2-HR :0.85587: (Sim:2h5m38s) 
CPU  0 inst:  319000000 cyc:  495919557 now IPC :1.42826: AVG IPC :0.64048: L2-Pf-HR :0.99971: L2-HR :0.85588: (Sim:2h6m3s) 
CPU  0 inst:  320000004 cyc:  496561750 now IPC :1.55717: AVG IPC :0.64167: L2-Pf-HR :0.99971: L2-HR :0.85599: (Sim:2h6m27s) 
CPU  0 inst:  321000003 cyc:  497213771 now IPC :1.53369: AVG IPC :0.64284: L2-Pf-HR :0.99971: L2-HR :0.85610: (Sim:2h6m52s) 
CPU  0 inst:  322000004 cyc:  497855986 now IPC :1.55711: AVG IPC :0.64402: L2-Pf-HR :0.99971: L2-HR :0.85621: (Sim:2h7m16s) 
CPU  0 inst:  323000004 cyc:  498526729 now IPC :1.49088: AVG IPC :0.64517: L2-Pf-HR :0.99970: L2-HR :0.85627: (Sim:2h7m41s) 
CPU  0 inst:  324000005 cyc:  499173273 now IPC :1.54669: AVG IPC :0.64634: L2-Pf-HR :0.99970: L2-HR :0.85637: (Sim:2h8m5s) 
CPU  0 inst:  325000000 cyc:  499819354 now IPC :1.54779: AVG IPC :0.64750: L2-Pf-HR :0.99970: L2-HR :0.85648: (Sim:2h8m30s) 
CPU  0 inst:  326000005 cyc:  500460105 now IPC :1.56068: AVG IPC :0.64868: L2-Pf-HR :0.99970: L2-HR :0.85659: (Sim:2h8m54s) 
CPU  0 inst:  327000003 cyc:  501118546 now IPC :1.51874: AVG IPC :0.64982: L2-Pf-HR :0.99969: L2-HR :0.85666: (Sim:2h9m19s) 
CPU  0 inst:  328000005 cyc:  501773279 now IPC :1.52734: AVG IPC :0.65097: L2-Pf-HR :0.99969: L2-HR :0.85671: (Sim:2h9m44s) 
Finished CPU 0 instr: 326000002 cyc: 500792428 AVG IPC: 0.65097 (Sim time: 2h9m44s)

ChampSim completed all CPUs

[ROI Statistics]
Core_0_instructions 326000002
Core_0_cycles 500792428
Core_0_IPC 0.65097

Core_0_branch_prediction_accuracy 99.57883
Core_0_branch_MPKI 0.12289
Core_0_average_ROB_occupancy_at_mispredict 562.26322

Core_0_L1D_total_access 102040141
Core_0_L1D_total_hit 95425367 L1D_total_Hit Ratio: 0.93517
Core_0_L1D_total_miss 6614774
Core_0_L1D_loads 93274515
Core_0_L1D_load_hit 87184949 L1D_load_Hit Ratio: 0.93471
Core_0_L1D_load_miss 6089566
Core_0_L1D_RFOs 8562954
Core_0_L1D_RFO_hit 8037746 L1D_RFO_Hit Ratio: 0.93867
Core_0_L1D_RFO_miss 525208
Core_0_L1D_prefetches 202672
Core_0_L1D_prefetch_hit 202672 L1D_prefetch_Hit Ratio: 1.00000
Core_0_L1D_prefetch_miss 0
Core_0_L1D_writebacks 0
Core_0_L1D_writeback_hit 0 L1D_writeback_Hit Ratio: -nan
Core_0_L1D_writeback_miss 0
Core_0_L1D_prefetch_requested 33409116
Core_0_L1D_prefetch_issued 13669548
Core_0_L1D_prefetch_useful 0 L1D_Useful Ratio: 0.00000
Core_0_L1D_prefetch_useless 0
Core_0_L1D_prefetch_late 0
Core_0_L1D_average_miss_latency 143.51470

Core_0_L1I_total_access 50967417
Core_0_L1I_total_hit 50965452 L1I_total_Hit Ratio: 0.99996
Core_0_L1I_total_miss 1965
Core_0_L1I_loads 50967417
Core_0_L1I_load_hit 50965452 L1I_load_Hit Ratio: 0.99996
Core_0_L1I_load_miss 1965
Core_0_L1I_RFOs 0
Core_0_L1I_RFO_hit 0 L1I_RFO_Hit Ratio: -nan
Core_0_L1I_RFO_miss 0
Core_0_L1I_prefetches 0
Core_0_L1I_prefetch_hit 0 L1I_prefetch_Hit Ratio: -nan
Core_0_L1I_prefetch_miss 0
Core_0_L1I_writebacks 0
Core_0_L1I_writeback_hit 0 L1I_writeback_Hit Ratio: -nan
Core_0_L1I_writeback_miss 0
Core_0_L1I_prefetch_requested 0
Core_0_L1I_prefetch_issued 0
Core_0_L1I_prefetch_useful 0 L1I_Useful Ratio: -nan
Core_0_L1I_prefetch_useless 0
Core_0_L1I_prefetch_late 0
Core_0_L1I_average_miss_latency 280.24784

Core_0_L2C_total_access 19312866
Core_0_L2C_total_hit 16545529 L2C_total_Hit Ratio: 0.85671
Core_0_L2C_total_miss 2767337
Core_0_L2C_loads 6091531
Core_0_L2C_load_hit 3852210 L2C_load_Hit Ratio: 0.63239
Core_0_L2C_load_miss 2239321
Core_0_L2C_RFOs 525208
Core_0_L2C_RFO_hit 532 L2C_RFO_Hit Ratio: 0.00101
Core_0_L2C_RFO_miss 524676
Core_0_L2C_prefetches 10768787
Core_0_L2C_prefetch_hit 10765453 L2C_prefetch_Hit Ratio: 0.99969
Core_0_L2C_prefetch_miss 3334
Core_0_L2C_writebacks 1927340
Core_0_L2C_writeback_hit 1927334 L2C_writeback_Hit Ratio: 1.00000
Core_0_L2C_writeback_miss 6
Core_0_L2C_prefetch_requested 8567680
Core_0_L2C_prefetch_issued 2845
Core_0_L2C_prefetch_useful 3292 L2C_Useful Ratio: 1.15712
Core_0_L2C_prefetch_useless 40
Core_0_L2C_prefetch_late 0
Core_0_L2C_average_miss_latency 297.10114

Core_0_LLC_total_access 4379663
Core_0_LLC_total_hit 1626632 LLC_total_Hit Ratio: 0.37141
Core_0_LLC_total_miss 2753031
Core_0_LLC_loads 2239321
Core_0_LLC_load_hit 27971 LLC_load_Hit Ratio: 0.01249
Core_0_LLC_load_miss 2211350
Core_0_LLC_RFOs 524676
Core_0_LLC_RFO_hit 193 LLC_RFO_Hit Ratio: 0.00037
Core_0_LLC_RFO_miss 524483
Core_0_LLC_prefetches 3665
Core_0_LLC_prefetch_hit 3649 LLC_prefetch_Hit Ratio: 0.99563
Core_0_LLC_prefetch_miss 16
Core_0_LLC_writebacks 1612001
Core_0_LLC_writeback_hit 1594819 LLC_writeback_Hit Ratio: 0.98934
Core_0_LLC_writeback_miss 17182
Core_0_LLC_prefetch_requested 0
Core_0_LLC_prefetch_issued 0
Core_0_LLC_prefetch_useful 0 LLC_Useful Ratio: -nan
Core_0_LLC_prefetch_useless 15
Core_0_LLC_prefetch_late 0
Core_0_LLC_average_miss_latency 258.32756

Core_0_major_page_fault 0
Core_0_minor_page_fault 19454

CPU 0 L1D next line prefetcher final stats
Prefetcher final stats
Training Unit Size: 4733
Addr table size: 1174464 1174468


Triggers: 2255837
No Prediction: 1179462 52.28489
Stream end: 9289
No translation: 736491 32.64824
Predictions: 2845 0.12612


Stream divergence: 13390 0.59357
Stream divergence -- new stream: 0
Channel_0_RQ_row_buffer_hit 1491598
Channel_0_RQ_row_buffer_miss 1244251
Channel_0_WQ_row_buffer_hit 729146
Channel_0_WQ_row_buffer_miss 873094
Channel_0_WQ_full 9919
Channel_0_dbus_congested 1167297

avg_congested_cycle 8

EzSearch AVG IPC :0.65097: L2-Pf-HR :0.99969 : L2-HR :0.85671 Uful:1.15712
     > Finished combination: TraceType=770-tot Sim:326000000 Prefetcher=L2isb_ideal L1=isb_ideal
