TRACE: [83000000][Pythia-70M]_[h8][s512][d64] Warmup: 2000000 NumTraces: 83000000
L1:next_line:L2:no
*************************************************
   ChampSim Multicore Out-of-Order Simulator
   Last compiled: Oct 22 2024 11:25:28
*************************************************

trace_0 770-tot_memTraces_v3/memTraces[83000000][Pythia-70M]_[h8][s512][d64].champsim.xz
CPU 0 L1D next line prefetcher
MAIN.cc ln 751 stats print skipped
CPU  0 inst:    1000003 cyc:     505889 now IPC :1.97672: AVG IPC :1.97672: L2-Pf-HR :0.53768: L2-HR :0.64596: (Sim:0h0m7s) 
CPU  0 inst:    2000001 cyc:     993791 now IPC :2.04959: AVG IPC :2.01250: L2-Pf-HR :0.60159: L2-HR :0.72120: (Sim:0h0m15s) 

Warmup complete CPU  0 instructions:    2000001 cycles:     993791 (Simulation time: 0 hr 0 min 15 sec) 

CPU  0 inst:    3000004 cyc:    1551549 now IPC :1.79290: AVG IPC :1.79290: L2-Pf-HR :0.68963: L2-HR :0.83453: (Sim:0h0m22s) 
CPU  0 inst:    4000001 cyc:    2110446 now IPC :1.78923: AVG IPC :1.79106: L2-Pf-HR :0.69256: L2-HR :0.82758: (Sim:0h0m30s) 
CPU  0 inst:    5000003 cyc:    2713537 now IPC :1.65813: AVG IPC :1.74444: L2-Pf-HR :0.68000: L2-HR :0.81470: (Sim:0h0m37s) 
CPU  0 inst:    6000003 cyc:    3249898 now IPC :1.86442: AVG IPC :1.77297: L2-Pf-HR :0.68763: L2-HR :0.82363: (Sim:0h0m44s) 
CPU  0 inst:    7000002 cyc:    3786711 now IPC :1.86284: AVG IPC :1.79024: L2-Pf-HR :0.69541: L2-HR :0.83014: (Sim:0h0m51s) 
CPU  0 inst:    8000000 cyc:    4344412 now IPC :1.79307: AVG IPC :1.79071: L2-Pf-HR :0.69886: L2-HR :0.83011: (Sim:0h0m59s) 
CPU  0 inst:    9000004 cyc:    4961280 now IPC :1.62110: AVG IPC :1.76434: L2-Pf-HR :0.69102: L2-HR :0.82394: (Sim:0h1m6s) 
CPU  0 inst:   10000001 cyc:    5521500 now IPC :1.78501: AVG IPC :1.76690: L2-Pf-HR :0.69363: L2-HR :0.82712: (Sim:0h1m13s) 
CPU  0 inst:   11000003 cyc:    6085624 now IPC :1.77266: AVG IPC :1.76754: L2-Pf-HR :0.69573: L2-HR :0.82965: (Sim:0h1m21s) 
CPU  0 inst:   12000002 cyc:    6676005 now IPC :1.69382: AVG IPC :1.75988: L2-Pf-HR :0.70096: L2-HR :0.83106: (Sim:0h1m28s) 
CPU  0 inst:   13000002 cyc:    7324666 now IPC :1.54164: AVG IPC :1.73752: L2-Pf-HR :0.69455: L2-HR :0.82676: (Sim:0h1m36s) 
CPU  0 inst:   14000003 cyc:    7898523 now IPC :1.74260: AVG IPC :1.73794: L2-Pf-HR :0.69578: L2-HR :0.82851: (Sim:0h1m43s) 
CPU  0 inst:   15000004 cyc:    8466572 now IPC :1.76041: AVG IPC :1.73965: L2-Pf-HR :0.69663: L2-HR :0.83002: (Sim:0h1m50s) 
CPU  0 inst:   16000000 cyc:    9069401 now IPC :1.65884: AVG IPC :1.73362: L2-Pf-HR :0.70132: L2-HR :0.83121: (Sim:0h1m58s) 
CPU  0 inst:   17000000 cyc:    9726483 now IPC :1.52188: AVG IPC :1.71768: L2-Pf-HR :0.69618: L2-HR :0.82759: (Sim:0h2m5s) 
CPU  0 inst:   18000000 cyc:   10287536 now IPC :1.78236: AVG IPC :1.72159: L2-Pf-HR :0.69690: L2-HR :0.82898: (Sim:0h2m13s) 
CPU  0 inst:   19000000 cyc:   10862752 now IPC :1.73848: AVG IPC :1.72257: L2-Pf-HR :0.69730: L2-HR :0.82997: (Sim:0h2m20s) 
CPU  0 inst:   20000000 cyc:   11462982 now IPC :1.66603: AVG IPC :1.71933: L2-Pf-HR :0.70121: L2-HR :0.83115: (Sim:0h2m28s) 
CPU  0 inst:   21000003 cyc:   12114561 now IPC :1.53474: AVG IPC :1.70851: L2-Pf-HR :0.69666: L2-HR :0.82812: (Sim:0h2m35s) 
CPU  0 inst:   22000001 cyc:   12687300 now IPC :1.74599: AVG IPC :1.71035: L2-Pf-HR :0.69715: L2-HR :0.82909: (Sim:0h2m43s) 
CPU  0 inst:   23000002 cyc:   13256325 now IPC :1.75739: AVG IPC :1.71253: L2-Pf-HR :0.69765: L2-HR :0.83005: (Sim:0h2m50s) 
CPU  0 inst:   24000000 cyc:   13861460 now IPC :1.65252: AVG IPC :1.70971: L2-Pf-HR :0.70134: L2-HR :0.83111: (Sim:0h2m58s) 
CPU  0 inst:   25000004 cyc:   14525779 now IPC :1.50531: AVG IPC :1.69968: L2-Pf-HR :0.69715: L2-HR :0.82844: (Sim:0h3m5s) 
CPU  0 inst:   26000002 cyc:   15103047 now IPC :1.73229: AVG IPC :1.70101: L2-Pf-HR :0.69769: L2-HR :0.82928: (Sim:0h3m13s) 
CPU  0 inst:   27000000 cyc:   15671469 now IPC :1.75925: AVG IPC :1.70327: L2-Pf-HR :0.69797: L2-HR :0.83005: (Sim:0h3m20s) 
CPU  0 inst:   28000001 cyc:   16277114 now IPC :1.65113: AVG IPC :1.70120: L2-Pf-HR :0.70148: L2-HR :0.83116: (Sim:0h3m28s) 
CPU  0 inst:   29000004 cyc:   16921754 now IPC :1.55126: AVG IPC :1.69513: L2-Pf-HR :0.69775: L2-HR :0.82912: (Sim:0h3m35s) 
CPU  0 inst:   30000003 cyc:   17496596 now IPC :1.73961: AVG IPC :1.69668: L2-Pf-HR :0.69773: L2-HR :0.82953: (Sim:0h3m43s) 
CPU  0 inst:   31000004 cyc:   18066948 now IPC :1.75330: AVG IPC :1.69857: L2-Pf-HR :0.69800: L2-HR :0.83013: (Sim:0h3m50s) 
CPU  0 inst:   32000000 cyc:   18670913 now IPC :1.65572: AVG IPC :1.69711: L2-Pf-HR :0.70154: L2-HR :0.83140: (Sim:0h3m58s) 
CPU  0 inst:   33000002 cyc:   19322139 now IPC :1.53557: AVG IPC :1.69137: L2-Pf-HR :0.69903: L2-HR :0.82987: (Sim:0h4m5s) 
CPU  0 inst:   34000000 cyc:   24558520 now IPC :0.19097: AVG IPC :1.35796: L2-Pf-HR :0.63739: L2-HR :0.76706: (Sim:0h4m29s) 
CPU  0 inst:   35000002 cyc:   28666360 now IPC :0.24344: AVG IPC :1.19252: L2-Pf-HR :0.61487: L2-HR :0.74980: (Sim:0h4m47s) 
CPU  0 inst:   36000001 cyc:   32478791 now IPC :0.26230: AVG IPC :1.07988: L2-Pf-HR :0.60150: L2-HR :0.74164: (Sim:0h5m4s) 
CPU  0 inst:   37000001 cyc:   36289412 now IPC :0.26242: AVG IPC :0.99162: L2-Pf-HR :0.58871: L2-HR :0.73379: (Sim:0h5m21s) 
CPU  0 inst:   38000000 cyc:   40079136 now IPC :0.26387: AVG IPC :0.92106: L2-Pf-HR :0.57644: L2-HR :0.72624: (Sim:0h5m37s) 
CPU  0 inst:   39000000 cyc:   43861747 now IPC :0.26437: AVG IPC :0.86312: L2-Pf-HR :0.56468: L2-HR :0.71896: (Sim:0h5m53s) 
CPU  0 inst:   40000000 cyc:   47638443 now IPC :0.26478: AVG IPC :0.81467: L2-Pf-HR :0.55339: L2-HR :0.71196: (Sim:0h6m10s) 
CPU  0 inst:   41000001 cyc:   51424330 now IPC :0.26414: AVG IPC :0.77334: L2-Pf-HR :0.54254: L2-HR :0.70520: (Sim:0h6m26s) 
CPU  0 inst:   42000001 cyc:   55214833 now IPC :0.26382: AVG IPC :0.73772: L2-Pf-HR :0.53208: L2-HR :0.69867: (Sim:0h6m42s) 
CPU  0 inst:   43000002 cyc:   58994702 now IPC :0.26456: AVG IPC :0.70689: L2-Pf-HR :0.52203: L2-HR :0.69237: (Sim:0h6m59s) 
CPU  0 inst:   44000001 cyc:   62772111 now IPC :0.26473: AVG IPC :0.67985: L2-Pf-HR :0.51237: L2-HR :0.68629: (Sim:0h7m15s) 
CPU  0 inst:   45000001 cyc:   66559268 now IPC :0.26405: AVG IPC :0.65583: L2-Pf-HR :0.50306: L2-HR :0.68040: (Sim:0h7m31s) 
CPU  0 inst:   46000000 cyc:   70346471 now IPC :0.26405: AVG IPC :0.63444: L2-Pf-HR :0.49407: L2-HR :0.67472: (Sim:0h7m48s) 
CPU  0 inst:   47000000 cyc:   74118891 now IPC :0.26508: AVG IPC :0.61538: L2-Pf-HR :0.48541: L2-HR :0.66921: (Sim:0h8m4s) 
CPU  0 inst:   48000000 cyc:   77905096 now IPC :0.26412: AVG IPC :0.59809: L2-Pf-HR :0.47704: L2-HR :0.66388: (Sim:0h8m20s) 
CPU  0 inst:   49000000 cyc:   81682693 now IPC :0.26472: AVG IPC :0.58248: L2-Pf-HR :0.46896: L2-HR :0.65872: (Sim:0h8m37s) 
CPU  0 inst:   50000003 cyc:   85471808 now IPC :0.26391: AVG IPC :0.56820: L2-Pf-HR :0.46114: L2-HR :0.65372: (Sim:0h8m53s) 
CPU  0 inst:   51000004 cyc:   87247690 now IPC :0.56310: AVG IPC :0.56809: L2-Pf-HR :0.48042: L2-HR :0.66139: (Sim:0h9m5s) 
CPU  0 inst:   52000005 cyc:   87872287 now IPC :1.60103: AVG IPC :0.57552: L2-Pf-HR :0.51249: L2-HR :0.67618: (Sim:0h9m14s) 
CPU  0 inst:   53000000 cyc:   88485681 now IPC :1.63027: AVG IPC :0.58291: L2-Pf-HR :0.54218: L2-HR :0.69027: (Sim:0h9m23s) 
CPU  0 inst:   54000004 cyc:   89025899 now IPC :1.85111: AVG IPC :0.59069: L2-Pf-HR :0.56949: L2-HR :0.70381: (Sim:0h9m32s) 
CPU  0 inst:   55000004 cyc:   89664305 now IPC :1.56640: AVG IPC :0.59772: L2-Pf-HR :0.59018: L2-HR :0.71470: (Sim:0h9m41s) 
CPU  0 inst:   56000000 cyc:   90302029 now IPC :1.56807: AVG IPC :0.60465: L2-Pf-HR :0.60813: L2-HR :0.72448: (Sim:0h9m50s) 
CPU  0 inst:   57000000 cyc:   90925958 now IPC :1.60275: AVG IPC :0.61157: L2-Pf-HR :0.62445: L2-HR :0.73359: (Sim:0h10m0s) 
CPU  0 inst:   58000001 cyc:   91466618 now IPC :1.84959: AVG IPC :0.61897: L2-Pf-HR :0.64125: L2-HR :0.74303: (Sim:0h10m8s) 
CPU  0 inst:   59000003 cyc:   92083594 now IPC :1.62081: AVG IPC :0.62576: L2-Pf-HR :0.65511: L2-HR :0.75107: (Sim:0h10m18s) 
CPU  0 inst:   60000001 cyc:   92697121 now IPC :1.62992: AVG IPC :0.63247: L2-Pf-HR :0.66655: L2-HR :0.75801: (Sim:0h10m27s) 
CPU  0 inst:   61000005 cyc:   93312548 now IPC :1.62489: AVG IPC :0.63909: L2-Pf-HR :0.67644: L2-HR :0.76423: (Sim:0h10m34s) 
CPU  0 inst:   62000001 cyc:   93851401 now IPC :1.85579: AVG IPC :0.64615: L2-Pf-HR :0.68802: L2-HR :0.77126: (Sim:0h10m40s) 
CPU  0 inst:   63000002 cyc:   94427636 now IPC :1.73540: AVG IPC :0.65287: L2-Pf-HR :0.69798: L2-HR :0.77744: (Sim:0h10m46s) 
CPU  0 inst:   64000000 cyc:   95026431 now IPC :1.67002: AVG IPC :0.65935: L2-Pf-HR :0.70597: L2-HR :0.78263: (Sim:0h10m52s) 
CPU  0 inst:   65000001 cyc:   95652261 now IPC :1.59788: AVG IPC :0.66555: L2-Pf-HR :0.71260: L2-HR :0.78713: (Sim:0h10m58s) 
CPU  0 inst:   66000002 cyc:   96187876 now IPC :1.86701: AVG IPC :0.67231: L2-Pf-HR :0.72128: L2-HR :0.79270: (Sim:0h11m4s) 
CPU  0 inst:   67000001 cyc:   96723751 now IPC :1.86610: AVG IPC :0.67899: L2-Pf-HR :0.72959: L2-HR :0.79806: (Sim:0h11m13s) 
CPU  0 inst:   68000004 cyc:   97346860 now IPC :1.60486: AVG IPC :0.68498: L2-Pf-HR :0.73479: L2-HR :0.80172: (Sim:0h11m22s) 
CPU  0 inst:   69000001 cyc:   97955369 now IPC :1.64336: AVG IPC :0.69100: L2-Pf-HR :0.73973: L2-HR :0.80529: (Sim:0h11m31s) 
CPU  0 inst:   70000002 cyc:   98514290 now IPC :1.78916: AVG IPC :0.69729: L2-Pf-HR :0.74611: L2-HR :0.80956: (Sim:0h11m37s) 
CPU  0 inst:   71000004 cyc:   99049530 now IPC :1.86832: AVG IPC :0.70368: L2-Pf-HR :0.75277: L2-HR :0.81400: (Sim:0h11m43s) 
CPU  0 inst:   72000000 cyc:   99663180 now IPC :1.62959: AVG IPC :0.70944: L2-Pf-HR :0.75703: L2-HR :0.81708: (Sim:0h11m49s) 
CPU  0 inst:   73000004 cyc:  100271662 now IPC :1.64344: AVG IPC :0.71516: L2-Pf-HR :0.76081: L2-HR :0.81993: (Sim:0h11m58s) 
CPU  0 inst:   74000002 cyc:  100840062 now IPC :1.75932: AVG IPC :0.72111: L2-Pf-HR :0.76537: L2-HR :0.82316: (Sim:0h12m7s) 
CPU  0 inst:   75000000 cyc:  101377107 now IPC :1.86204: AVG IPC :0.72721: L2-Pf-HR :0.77039: L2-HR :0.82665: (Sim:0h12m16s) 
CPU  0 inst:   76000004 cyc:  101978329 now IPC :1.66329: AVG IPC :0.73279: L2-Pf-HR :0.77379: L2-HR :0.82921: (Sim:0h12m25s) 
CPU  0 inst:   77000001 cyc:  102590635 now IPC :1.63317: AVG IPC :0.73821: L2-Pf-HR :0.77678: L2-HR :0.83153: (Sim:0h12m34s) 
CPU  0 inst:   78000002 cyc:  103164982 now IPC :1.74111: AVG IPC :0.74385: L2-Pf-HR :0.78048: L2-HR :0.83421: (Sim:0h12m43s) 
CPU  0 inst:   79000002 cyc:  103703514 now IPC :1.85690: AVG IPC :0.74969: L2-Pf-HR :0.78477: L2-HR :0.83725: (Sim:0h12m52s) 
CPU  0 inst:   80000000 cyc:  104300086 now IPC :1.67624: AVG IPC :0.75504: L2-Pf-HR :0.78764: L2-HR :0.83946: (Sim:0h13m1s) 
Finished CPU 0 instr: 78000000 cyc: 103306371 AVG IPC: 0.75504 (Sim time: 0h13m1s)

ChampSim completed all CPUs

[ROI Statistics]
Core_0_instructions 78000000
Core_0_cycles 103306371
Core_0_IPC 0.75504

Core_0_branch_prediction_accuracy 99.16542
Core_0_branch_MPKI 0.25491
Core_0_average_ROB_occupancy_at_mispredict 386.92104

Core_0_L1D_total_access 48152853
Core_0_L1D_total_hit 44197046 L1D_total_Hit Ratio: 0.91785
Core_0_L1D_total_miss 3955807
Core_0_L1D_loads 19417686
Core_0_L1D_load_hit 17445519 L1D_load_Hit Ratio: 0.89843
Core_0_L1D_load_miss 1972167
Core_0_L1D_RFOs 2174461
Core_0_L1D_RFO_hit 2057176 L1D_RFO_Hit Ratio: 0.94606
Core_0_L1D_RFO_miss 117285
Core_0_L1D_prefetches 26560706
Core_0_L1D_prefetch_hit 24694351 L1D_prefetch_Hit Ratio: 0.92973
Core_0_L1D_prefetch_miss 1866355
Core_0_L1D_writebacks 0
Core_0_L1D_writeback_hit 0 L1D_writeback_Hit Ratio: -nan
Core_0_L1D_writeback_miss 0
Core_0_L1D_prefetch_requested 61529913
Core_0_L1D_prefetch_issued 31839520
Core_0_L1D_prefetch_useful 866995 L1D_Useful Ratio: 0.02723
Core_0_L1D_prefetch_useless 1020133
Core_0_L1D_prefetch_late 118482
Core_0_L1D_average_miss_latency 1123004.44289

Core_0_L1I_total_access 11352909
Core_0_L1I_total_hit 11348006 L1I_total_Hit Ratio: 0.99957
Core_0_L1I_total_miss 4903
Core_0_L1I_loads 11352909
Core_0_L1I_load_hit 11348006 L1I_load_Hit Ratio: 0.99957
Core_0_L1I_load_miss 4903
Core_0_L1I_RFOs 0
Core_0_L1I_RFO_hit 0 L1I_RFO_Hit Ratio: -nan
Core_0_L1I_RFO_miss 0
Core_0_L1I_prefetches 0
Core_0_L1I_prefetch_hit 0 L1I_prefetch_Hit Ratio: -nan
Core_0_L1I_prefetch_miss 0
Core_0_L1I_writebacks 0
Core_0_L1I_writeback_hit 0 L1I_writeback_Hit Ratio: -nan
Core_0_L1I_writeback_miss 0
Core_0_L1I_prefetch_requested 0
Core_0_L1I_prefetch_issued 0
Core_0_L1I_prefetch_useful 0 L1I_Useful Ratio: -nan
Core_0_L1I_prefetch_useless 0
Core_0_L1I_prefetch_late 0
Core_0_L1I_average_miss_latency 291.14766

Core_0_L2C_total_access 4452324
Core_0_L2C_total_hit 3737533 L2C_total_Hit Ratio: 0.83946
Core_0_L2C_total_miss 714791
Core_0_L2C_loads 1859363
Core_0_L2C_load_hit 1682865 L2C_load_Hit Ratio: 0.90508
Core_0_L2C_load_miss 176498
Core_0_L2C_RFOs 117270
Core_0_L2C_RFO_hit 331 L2C_RFO_Hit Ratio: 0.00282
Core_0_L2C_RFO_miss 116939
Core_0_L2C_prefetches 1984074
Core_0_L2C_prefetch_hit 1562732 L2C_prefetch_Hit Ratio: 0.78764
Core_0_L2C_prefetch_miss 421342
Core_0_L2C_writebacks 491617
Core_0_L2C_writeback_hit 491605 L2C_writeback_Hit Ratio: 0.99998
Core_0_L2C_writeback_miss 12
Core_0_L2C_prefetch_requested 0
Core_0_L2C_prefetch_issued 0
Core_0_L2C_prefetch_useful 118757 L2C_Useful Ratio: inf
Core_0_L2C_prefetch_useless 297689
Core_0_L2C_prefetch_late 0
Core_0_L2C_average_miss_latency 311.75693

Core_0_LLC_total_access 1127704
Core_0_LLC_total_hit 423275 LLC_total_Hit Ratio: 0.37534
Core_0_LLC_total_miss 704429
Core_0_LLC_loads 176498
Core_0_LLC_load_hit 4055 LLC_load_Hit Ratio: 0.02297
Core_0_LLC_load_miss 172443
Core_0_LLC_RFOs 116939
Core_0_LLC_RFO_hit 92 LLC_RFO_Hit Ratio: 0.00079
Core_0_LLC_RFO_miss 116847
Core_0_LLC_prefetches 421342
Core_0_LLC_prefetch_hit 9809 LLC_prefetch_Hit Ratio: 0.02328
Core_0_LLC_prefetch_miss 411533
Core_0_LLC_writebacks 412925
Core_0_LLC_writeback_hit 409319 LLC_writeback_Hit Ratio: 0.99127
Core_0_LLC_writeback_miss 3606
Core_0_LLC_prefetch_requested 0
Core_0_LLC_prefetch_issued 0
Core_0_LLC_prefetch_useful 2093 LLC_Useful Ratio: inf
Core_0_LLC_prefetch_useless 377603
Core_0_LLC_prefetch_late 0
Core_0_LLC_average_miss_latency 264.82099

Core_0_major_page_fault 0
Core_0_minor_page_fault 6067

CPU 0 L1D next line prefetcher final stats
Channel_0_RQ_row_buffer_hit 326686
Channel_0_RQ_row_buffer_miss 374139
Channel_0_WQ_row_buffer_hit 139488
Channel_0_WQ_row_buffer_miss 268296
Channel_0_WQ_full 237
Channel_0_dbus_congested 526720

avg_congested_cycle 10

EzSearch AVG IPC :0.75504: L2-Pf-HR :0.78764 : L2-HR :0.83946 Uful:inf
     > Finished combination: TraceType=770-tot Sim:78000000 Prefetcher=L2no L1=next_line
