TRACE: [1183000000][GPT-Neo-1_3B]_[h16][s1024][d128] Warmup: 2000000 NumTraces: 1183000000
L1:next_line:L2:029-SecTOP-L2-MultiMarkovDelta_ip_stride_v4
*************************************************
   ChampSim Multicore Out-of-Order Simulator
   Last compiled: Oct 26 2024 22:28:10
*************************************************

trace_0 770-tot_memTraces_v3/memTraces[1183000000][GPT-Neo-1_3B]_[h16][s1024][d128].champsim.xz
CPU 0 L1D next line prefetcher
MK1: Size: 128 TMAX: 64 TMIN: 32 MKPTHRESH: 40
MK2: Size: 256 TMAX: 32 TMIN: 16 MK2PTHRESH: 20
MK3: Size: 384 TMAX: 16 TMIN: 8 MK3PTHRESH: 25
MK4: Size: 512 TMAX: 8 TMIN: 0 MK4PTHRESH: 20
Stride Size: 512 Prefetch Degree: 15

CPU 0 L2C prefetcher
MAIN.cc ln 751 stats print skipped
CPU 0 L2C prefetcher initialized


Cache Size: 4096
number of cache lines: 65536
CPU  0 inst:    1000001 cyc:     498116 now IPC :2.00757: AVG IPC :2.00757: L2-Pf-HR :0.91675: L2-HR :0.88982: (Sim:0h0m20s) 
CPU  0 inst:    2000002 cyc:     982805 now IPC :2.06318: AVG IPC :2.03499: L2-Pf-HR :0.95234: L2-HR :0.93387: (Sim:0h0m42s) 

Warmup complete CPU  0 instructions:    2000002 cycles:     982805 (Simulation time: 0 hr 0 min 42 sec) 

CPU  0 inst:    3000004 cyc:    1512127 now IPC :1.88921: AVG IPC :1.88921: L2-Pf-HR :0.95650: L2-HR :0.94835: (Sim:0h1m0s) 
CPU  0 inst:    4000000 cyc:    2029166 now IPC :1.93408: AVG IPC :1.91138: L2-Pf-HR :0.95801: L2-HR :0.95113: (Sim:0h1m16s) 
CPU  0 inst:    5000003 cyc:    2545906 now IPC :1.93521: AVG IPC :1.91926: L2-Pf-HR :0.95831: L2-HR :0.95211: (Sim:0h1m33s) 
CPU  0 inst:    6000004 cyc:    3059763 now IPC :1.94607: AVG IPC :1.92589: L2-Pf-HR :0.95896: L2-HR :0.95300: (Sim:0h1m49s) 
CPU  0 inst:    7000000 cyc:    3574660 now IPC :1.94213: AVG IPC :1.92912: L2-Pf-HR :0.95908: L2-HR :0.95325: (Sim:0h2m6s) 
CPU  0 inst:    8000005 cyc:    4093385 now IPC :1.92781: AVG IPC :1.92890: L2-Pf-HR :0.95954: L2-HR :0.95369: (Sim:0h2m23s) 
CPU  0 inst:    9000001 cyc:    4604927 now IPC :1.95487: AVG IPC :1.93257: L2-Pf-HR :0.96001: L2-HR :0.95428: (Sim:0h2m40s) 
CPU  0 inst:   10000003 cyc:    5123655 now IPC :1.92780: AVG IPC :1.93197: L2-Pf-HR :0.96013: L2-HR :0.95436: (Sim:0h2m57s) 
CPU  0 inst:   11000005 cyc:    5638778 now IPC :1.94129: AVG IPC :1.93300: L2-Pf-HR :0.96091: L2-HR :0.95505: (Sim:0h3m14s) 
CPU  0 inst:   12000000 cyc:    6155509 now IPC :1.93523: AVG IPC :1.93322: L2-Pf-HR :0.96269: L2-HR :0.95659: (Sim:0h3m31s) 
CPU  0 inst:   13000003 cyc:    6745551 now IPC :1.69480: AVG IPC :1.90881: L2-Pf-HR :0.96058: L2-HR :0.95304: (Sim:0h3m49s) 
CPU  0 inst:   14000002 cyc:    7236876 now IPC :2.03531: AVG IPC :1.91875: L2-Pf-HR :0.96141: L2-HR :0.95422: (Sim:0h4m6s) 
CPU  0 inst:   15000001 cyc:    7724056 now IPC :2.05263: AVG IPC :1.92843: L2-Pf-HR :0.96235: L2-HR :0.95551: (Sim:0h4m23s) 
CPU  0 inst:   16000001 cyc:    8210374 now IPC :2.05627: AVG IPC :1.93703: L2-Pf-HR :0.96306: L2-HR :0.95657: (Sim:0h4m40s) 
CPU  0 inst:   17000004 cyc:    8695771 now IPC :2.06018: AVG IPC :1.94478: L2-Pf-HR :0.96376: L2-HR :0.95755: (Sim:0h4m57s) 
CPU  0 inst:   18000001 cyc:    9180769 now IPC :2.06186: AVG IPC :1.95170: L2-Pf-HR :0.96440: L2-HR :0.95842: (Sim:0h5m12s) 
CPU  0 inst:   19000001 cyc:    9666653 now IPC :2.05810: AVG IPC :1.95766: L2-Pf-HR :0.96505: L2-HR :0.95925: (Sim:0h5m29s) 
CPU  0 inst:   20000005 cyc:   10151836 now IPC :2.06109: AVG IPC :1.96313: L2-Pf-HR :0.96551: L2-HR :0.95993: (Sim:0h5m46s) 
CPU  0 inst:   21000005 cyc:   10636192 now IPC :2.06460: AVG IPC :1.96822: L2-Pf-HR :0.96590: L2-HR :0.96053: (Sim:0h6m3s) 
CPU  0 inst:   22000000 cyc:   11119858 now IPC :2.06753: AVG IPC :1.97296: L2-Pf-HR :0.96650: L2-HR :0.96127: (Sim:0h6m19s) 
CPU  0 inst:   23000002 cyc:   11600728 now IPC :2.07957: AVG IPC :1.97779: L2-Pf-HR :0.96742: L2-HR :0.96228: (Sim:0h6m36s) 
CPU  0 inst:   24000000 cyc:   12142321 now IPC :1.84640: AVG IPC :1.97141: L2-Pf-HR :0.96781: L2-HR :0.96215: (Sim:0h6m54s) 
CPU  0 inst:   25000000 cyc:   12644523 now IPC :1.99123: AVG IPC :1.97227: L2-Pf-HR :0.96766: L2-HR :0.96208: (Sim:0h7m11s) 
CPU  0 inst:   26000003 cyc:   13126623 now IPC :2.07426: AVG IPC :1.97631: L2-Pf-HR :0.96788: L2-HR :0.96248: (Sim:0h7m27s) 
CPU  0 inst:   27000005 cyc:   13607267 now IPC :2.08055: AVG IPC :1.98028: L2-Pf-HR :0.96807: L2-HR :0.96285: (Sim:0h7m44s) 
CPU  0 inst:   28000000 cyc:   14085856 now IPC :2.08947: AVG IPC :1.98427: L2-Pf-HR :0.96821: L2-HR :0.96319: (Sim:0h8m1s) 
CPU  0 inst:   29000004 cyc:   14565016 now IPC :2.08699: AVG IPC :1.98789: L2-Pf-HR :0.96838: L2-HR :0.96352: (Sim:0h8m18s) 
CPU  0 inst:   30000001 cyc:   15046301 now IPC :2.07776: AVG IPC :1.99097: L2-Pf-HR :0.96859: L2-HR :0.96387: (Sim:0h8m35s) 
CPU  0 inst:   31000005 cyc:   15524148 now IPC :2.09273: AVG IPC :1.99431: L2-Pf-HR :0.96911: L2-HR :0.96449: (Sim:0h8m52s) 
CPU  0 inst:   32000002 cyc:   16105337 now IPC :1.72061: AVG IPC :1.98379: L2-Pf-HR :0.96851: L2-HR :0.96333: (Sim:0h9m9s) 
CPU  0 inst:   33000001 cyc:   16612804 now IPC :1.97057: AVG IPC :1.98337: L2-Pf-HR :0.96826: L2-HR :0.96314: (Sim:0h9m27s) 
CPU  0 inst:   34000003 cyc:   17105714 now IPC :2.02877: AVG IPC :1.98475: L2-Pf-HR :0.96813: L2-HR :0.96312: (Sim:0h9m44s) 
CPU  0 inst:   35000005 cyc:   17592798 now IPC :2.05304: AVG IPC :1.98676: L2-Pf-HR :0.96815: L2-HR :0.96326: (Sim:0h10m1s) 
CPU  0 inst:   36000003 cyc:   18084003 now IPC :2.03581: AVG IPC :1.98816: L2-Pf-HR :0.96815: L2-HR :0.96333: (Sim:0h10m18s) 
CPU  0 inst:   37000003 cyc:   18573372 now IPC :2.04345: AVG IPC :1.98970: L2-Pf-HR :0.96818: L2-HR :0.96345: (Sim:0h10m35s) 
CPU  0 inst:   38000003 cyc:   19061961 now IPC :2.04671: AVG IPC :1.99124: L2-Pf-HR :0.96816: L2-HR :0.96352: (Sim:0h10m52s) 
CPU  0 inst:   39000001 cyc:   19552380 now IPC :2.03907: AVG IPC :1.99251: L2-Pf-HR :0.96816: L2-HR :0.96361: (Sim:0h11m9s) 
CPU  0 inst:   40000003 cyc:   20038188 now IPC :2.05843: AVG IPC :1.99419: L2-Pf-HR :0.96817: L2-HR :0.96369: (Sim:0h11m26s) 
CPU  0 inst:   41000002 cyc:   20530922 now IPC :2.02949: AVG IPC :1.99508: L2-Pf-HR :0.96815: L2-HR :0.96373: (Sim:0h11m43s) 
CPU  0 inst:   42000001 cyc:   21018048 now IPC :2.05286: AVG IPC :1.99648: L2-Pf-HR :0.96835: L2-HR :0.96398: (Sim:0h12m0s) 
CPU  0 inst:   43000000 cyc:   21508179 now IPC :2.04027: AVG IPC :1.99753: L2-Pf-HR :0.96870: L2-HR :0.96433: (Sim:0h12m17s) 
CPU  0 inst:   44000003 cyc:   22116222 now IPC :1.64463: AVG IPC :1.98737: L2-Pf-HR :0.96837: L2-HR :0.96356: (Sim:0h12m35s) 
CPU  0 inst:   45000005 cyc:   22617212 now IPC :1.99605: AVG IPC :1.98757: L2-Pf-HR :0.96833: L2-HR :0.96359: (Sim:0h12m52s) 
CPU  0 inst:   46000005 cyc:   23104907 now IPC :2.05046: AVG IPC :1.98896: L2-Pf-HR :0.96844: L2-HR :0.96380: (Sim:0h13m9s) 
CPU  0 inst:   47000005 cyc:   23589403 now IPC :2.06400: AVG IPC :1.99057: L2-Pf-HR :0.96854: L2-HR :0.96400: (Sim:0h13m26s) 
CPU  0 inst:   48000004 cyc:   24073936 now IPC :2.06384: AVG IPC :1.99211: L2-Pf-HR :0.96865: L2-HR :0.96420: (Sim:0h13m43s) 
CPU  0 inst:   49000001 cyc:   24554730 now IPC :2.07989: AVG IPC :1.99390: L2-Pf-HR :0.96878: L2-HR :0.96442: (Sim:0h14m0s) 
CPU  0 inst:   50000004 cyc:   25037087 now IPC :2.07316: AVG IPC :1.99549: L2-Pf-HR :0.96890: L2-HR :0.96462: (Sim:0h14m17s) 
CPU  0 inst:   51000002 cyc:   25517976 now IPC :2.07948: AVG IPC :1.99713: L2-Pf-HR :0.96900: L2-HR :0.96481: (Sim:0h14m34s) 
CPU  0 inst:   52000002 cyc:   25998189 now IPC :2.08241: AVG IPC :1.99877: L2-Pf-HR :0.96910: L2-HR :0.96500: (Sim:0h14m51s) 
CPU  0 inst:   53000004 cyc:   26478963 now IPC :2.07998: AVG IPC :2.00030: L2-Pf-HR :0.96925: L2-HR :0.96522: (Sim:0h15m8s) 
CPU  0 inst:   54000005 cyc:   26958595 now IPC :2.08493: AVG IPC :2.00186: L2-Pf-HR :0.96949: L2-HR :0.96551: (Sim:0h15m25s) 
CPU  0 inst:   55000005 cyc:   27436950 now IPC :2.09050: AVG IPC :2.00347: L2-Pf-HR :0.96992: L2-HR :0.96595: (Sim:0h15m36s) 
CPU  0 inst:   56000001 cyc:   28046447 now IPC :1.64069: AVG IPC :1.99530: L2-Pf-HR :0.96972: L2-HR :0.96552: (Sim:0h15m44s) 
CPU  0 inst:   57000000 cyc:   28531478 now IPC :2.06172: AVG IPC :1.99647: L2-Pf-HR :0.96972: L2-HR :0.96562: (Sim:0h15m51s) 
CPU  0 inst:   58000003 cyc:   29003718 now IPC :2.11757: AVG IPC :1.99851: L2-Pf-HR :0.96977: L2-HR :0.96577: (Sim:0h15m59s) 
CPU  0 inst:   59000000 cyc:   29477589 now IPC :2.11027: AVG IPC :2.00037: L2-Pf-HR :0.96986: L2-HR :0.96594: (Sim:0h16m6s) 
CPU  0 inst:   60000001 cyc:   29956477 now IPC :2.08817: AVG IPC :2.00182: L2-Pf-HR :0.96991: L2-HR :0.96608: (Sim:0h16m14s) 
CPU  0 inst:   61000002 cyc:   30428522 now IPC :2.11844: AVG IPC :2.00369: L2-Pf-HR :0.96997: L2-HR :0.96623: (Sim:0h16m21s) 
CPU  0 inst:   62000002 cyc:   30900664 now IPC :2.11801: AVG IPC :2.00549: L2-Pf-HR :0.97006: L2-HR :0.96640: (Sim:0h16m29s) 
CPU  0 inst:   63000002 cyc:   31376661 now IPC :2.10085: AVG IPC :2.00698: L2-Pf-HR :0.97038: L2-HR :0.96676: (Sim:0h16m36s) 
CPU  0 inst:   64000003 cyc:   32036894 now IPC :1.51462: AVG IPC :1.99652: L2-Pf-HR :0.96980: L2-HR :0.96587: (Sim:0h16m45s) 
CPU  0 inst:   65000002 cyc:   32540767 now IPC :1.98463: AVG IPC :1.99633: L2-Pf-HR :0.96969: L2-HR :0.96580: (Sim:0h16m52s) 
CPU  0 inst:   66000001 cyc:   33036825 now IPC :2.01589: AVG IPC :1.99663: L2-Pf-HR :0.96963: L2-HR :0.96581: (Sim:0h17m0s) 
CPU  0 inst:   67000000 cyc:   33536887 now IPC :1.99975: AVG IPC :1.99668: L2-Pf-HR :0.96957: L2-HR :0.96580: (Sim:0h17m8s) 
CPU  0 inst:   68000001 cyc:   34030711 now IPC :2.02501: AVG IPC :1.99710: L2-Pf-HR :0.96952: L2-HR :0.96580: (Sim:0h17m15s) 
CPU  0 inst:   69000004 cyc:   34528699 now IPC :2.00809: AVG IPC :1.99726: L2-Pf-HR :0.96946: L2-HR :0.96580: (Sim:0h17m23s) 
CPU  0 inst:   70000000 cyc:   35026088 now IPC :2.01049: AVG IPC :1.99746: L2-Pf-HR :0.96944: L2-HR :0.96583: (Sim:0h17m31s) 
CPU  0 inst:   71000002 cyc:   35519988 now IPC :2.02471: AVG IPC :1.99785: L2-Pf-HR :0.96941: L2-HR :0.96585: (Sim:0h17m39s) 
CPU  0 inst:   72000004 cyc:   36022213 now IPC :1.99114: AVG IPC :1.99775: L2-Pf-HR :0.96935: L2-HR :0.96584: (Sim:0h17m46s) 
CPU  0 inst:   73000000 cyc:   36516960 now IPC :2.02123: AVG IPC :1.99808: L2-Pf-HR :0.96935: L2-HR :0.96588: (Sim:0h17m54s) 
CPU  0 inst:   74000000 cyc:   37015961 now IPC :2.00400: AVG IPC :1.99816: L2-Pf-HR :0.96940: L2-HR :0.96596: (Sim:0h18m2s) 
CPU  0 inst:   75000002 cyc:   37513916 now IPC :2.00822: AVG IPC :1.99830: L2-Pf-HR :0.96968: L2-HR :0.96623: (Sim:0h18m10s) 
CPU  0 inst:   76000005 cyc:   38176598 now IPC :1.50902: AVG IPC :1.98958: L2-Pf-HR :0.96925: L2-HR :0.96558: (Sim:0h18m18s) 
CPU  0 inst:   77000002 cyc:   38649543 now IPC :2.11440: AVG IPC :1.99115: L2-Pf-HR :0.96925: L2-HR :0.96565: (Sim:0h18m26s) 
CPU  0 inst:   78000005 cyc:   39122113 now IPC :2.11610: AVG IPC :1.99269: L2-Pf-HR :0.96928: L2-HR :0.96575: (Sim:0h18m33s) 
CPU  0 inst:   79000000 cyc:   39595820 now IPC :2.11100: AVG IPC :1.99415: L2-Pf-HR :0.96932: L2-HR :0.96585: (Sim:0h18m41s) 
CPU  0 inst:   80000000 cyc:   40070556 now IPC :2.10643: AVG IPC :1.99551: L2-Pf-HR :0.96937: L2-HR :0.96596: (Sim:0h18m49s) 
CPU  0 inst:   81000005 cyc:   40546606 now IPC :2.10063: AVG IPC :1.99677: L2-Pf-HR :0.96940: L2-HR :0.96604: (Sim:0h18m57s) 
CPU  0 inst:   82000000 cyc:   41018289 now IPC :2.12006: AVG IPC :1.99823: L2-Pf-HR :0.96942: L2-HR :0.96612: (Sim:0h19m4s) 
CPU  0 inst:   83000005 cyc:   41488206 now IPC :2.12805: AVG IPC :1.99973: L2-Pf-HR :0.96947: L2-HR :0.96623: (Sim:0h19m12s) 
CPU  0 inst:   84000000 cyc:   41960142 now IPC :2.11892: AVG IPC :2.00111: L2-Pf-HR :0.96953: L2-HR :0.96634: (Sim:0h19m20s) 
CPU  0 inst:   85000005 cyc:   42435861 now IPC :2.10209: AVG IPC :2.00226: L2-Pf-HR :0.96960: L2-HR :0.96646: (Sim:0h19m28s) 
CPU  0 inst:   86000005 cyc:   42908771 now IPC :2.11457: AVG IPC :2.00353: L2-Pf-HR :0.96976: L2-HR :0.96665: (Sim:0h19m35s) 
CPU  0 inst:   87000001 cyc:   43442844 now IPC :1.87240: AVG IPC :2.00188: L2-Pf-HR :0.96993: L2-HR :0.96672: (Sim:0h19m43s) 
CPU  0 inst:   88000005 cyc:   43971171 now IPC :1.89277: AVG IPC :2.00054: L2-Pf-HR :0.96979: L2-HR :0.96658: (Sim:0h19m51s) 
CPU  0 inst:   89000003 cyc:   44446960 now IPC :2.10177: AVG IPC :2.00165: L2-Pf-HR :0.96983: L2-HR :0.96667: (Sim:0h19m59s) 
CPU  0 inst:   90000004 cyc:   44923040 now IPC :2.10049: AVG IPC :2.00272: L2-Pf-HR :0.96985: L2-HR :0.96674: (Sim:0h20m7s) 
CPU  0 inst:   91000000 cyc:   45395737 now IPC :2.11551: AVG IPC :2.00392: L2-Pf-HR :0.96989: L2-HR :0.96683: (Sim:0h20m15s) 
CPU  0 inst:   92000002 cyc:   45870395 now IPC :2.10678: AVG IPC :2.00501: L2-Pf-HR :0.96992: L2-HR :0.96691: (Sim:0h20m22s) 
CPU  0 inst:   93000002 cyc:   46350156 now IPC :2.08437: AVG IPC :2.00585: L2-Pf-HR :0.96997: L2-HR :0.96700: (Sim:0h20m30s) 
CPU  0 inst:   94000004 cyc:   46823897 now IPC :2.11086: AVG IPC :2.00693: L2-Pf-HR :0.97007: L2-HR :0.96714: (Sim:0h20m38s) 
CPU  0 inst:   95000002 cyc:   47443696 now IPC :1.61342: AVG IPC :2.00168: L2-Pf-HR :0.96996: L2-HR :0.96686: (Sim:0h20m46s) 
CPU  0 inst:   96000004 cyc:   47997165 now IPC :1.80679: AVG IPC :1.99939: L2-Pf-HR :0.96977: L2-HR :0.96665: (Sim:0h20m54s) 
CPU  0 inst:   97000000 cyc:   48490194 now IPC :2.02827: AVG IPC :1.99969: L2-Pf-HR :0.96972: L2-HR :0.96663: (Sim:0h21m1s) 
CPU  0 inst:   98000000 cyc:   48994329 now IPC :1.98360: AVG IPC :1.99952: L2-Pf-HR :0.96970: L2-HR :0.96663: (Sim:0h21m9s) 
CPU  0 inst:   99000001 cyc:   49487635 now IPC :2.02714: AVG IPC :1.99980: L2-Pf-HR :0.96966: L2-HR :0.96663: (Sim:0h21m17s) 
CPU  0 inst:  100000001 cyc:   49980011 now IPC :2.03097: AVG IPC :2.00011: L2-Pf-HR :0.96963: L2-HR :0.96663: (Sim:0h21m24s) 
CPU  0 inst:  101000005 cyc:   50474323 now IPC :2.02302: AVG IPC :2.00034: L2-Pf-HR :0.96960: L2-HR :0.96663: (Sim:0h21m32s) 
CPU  0 inst:  102000004 cyc:   50966661 now IPC :2.03112: AVG IPC :2.00065: L2-Pf-HR :0.96956: L2-HR :0.96662: (Sim:0h21m40s) 
CPU  0 inst:  103000000 cyc:   51461519 now IPC :2.02077: AVG IPC :2.00084: L2-Pf-HR :0.96953: L2-HR :0.96661: (Sim:0h21m48s) 
CPU  0 inst:  104000005 cyc:   51959966 now IPC :2.00624: AVG IPC :2.00090: L2-Pf-HR :0.96952: L2-HR :0.96663: (Sim:0h21m55s) 
CPU  0 inst:  105000001 cyc:   52460208 now IPC :1.99902: AVG IPC :2.00088: L2-Pf-HR :0.96952: L2-HR :0.96665: (Sim:0h22m3s) 
CPU  0 inst:  106000005 cyc:   52960460 now IPC :1.99900: AVG IPC :2.00086: L2-Pf-HR :0.96961: L2-HR :0.96675: (Sim:0h22m11s) 
CPU  0 inst:  107000002 cyc:   53599809 now IPC :1.56409: AVG IPC :1.99555: L2-Pf-HR :0.96953: L2-HR :0.96651: (Sim:0h22m19s) 
CPU  0 inst:  108000001 cyc:   54115648 now IPC :1.93859: AVG IPC :1.99500: L2-Pf-HR :0.96946: L2-HR :0.96644: (Sim:0h22m32s) 
CPU  0 inst:  109000000 cyc:   54594488 now IPC :2.08838: AVG IPC :1.99583: L2-Pf-HR :0.96948: L2-HR :0.96650: (Sim:0h22m48s) 
CPU  0 inst:  110000005 cyc:   55077316 now IPC :2.07114: AVG IPC :1.99651: L2-Pf-HR :0.96949: L2-HR :0.96655: (Sim:0h23m5s) 
CPU  0 inst:  111000004 cyc:   55554101 now IPC :2.09738: AVG IPC :1.99739: L2-Pf-HR :0.96951: L2-HR :0.96660: (Sim:0h23m21s) 
CPU  0 inst:  112000000 cyc:   56030294 now IPC :2.09998: AVG IPC :1.99827: L2-Pf-HR :0.96954: L2-HR :0.96667: (Sim:0h23m38s) 
CPU  0 inst:  113000001 cyc:   56504256 now IPC :2.10988: AVG IPC :1.99923: L2-Pf-HR :0.96957: L2-HR :0.96674: (Sim:0h23m54s) 
CPU  0 inst:  114000000 cyc:   56977816 now IPC :2.11166: AVG IPC :2.00018: L2-Pf-HR :0.96961: L2-HR :0.96681: (Sim:0h24m11s) 
CPU  0 inst:  115000001 cyc:   57453411 now IPC :2.10263: AVG IPC :2.00104: L2-Pf-HR :0.96963: L2-HR :0.96687: (Sim:0h24m27s) 
CPU  0 inst:  116000002 cyc:   57932675 now IPC :2.08653: AVG IPC :2.00176: L2-Pf-HR :0.96966: L2-HR :0.96693: (Sim:0h24m44s) 
CPU  0 inst:  117000005 cyc:   58406586 now IPC :2.11011: AVG IPC :2.00265: L2-Pf-HR :0.96973: L2-HR :0.96702: (Sim:0h25m0s) 
CPU  0 inst:  118000004 cyc:   58876207 now IPC :2.12937: AVG IPC :2.00368: L2-Pf-HR :0.96991: L2-HR :0.96722: (Sim:0h25m17s) 
CPU  0 inst:  119000000 cyc:   59471990 now IPC :1.67846: AVG IPC :2.00037: L2-Pf-HR :0.96986: L2-HR :0.96705: (Sim:0h25m34s) 
CPU  0 inst:  120000001 cyc:   59951997 now IPC :2.08331: AVG IPC :2.00104: L2-Pf-HR :0.96985: L2-HR :0.96708: (Sim:0h25m51s) 
CPU  0 inst:  121000000 cyc:   60428371 now IPC :2.09919: AVG IPC :2.00183: L2-Pf-HR :0.96988: L2-HR :0.96714: (Sim:0h26m7s) 
CPU  0 inst:  122000001 cyc:   60904528 now IPC :2.10015: AVG IPC :2.00261: L2-Pf-HR :0.96991: L2-HR :0.96720: (Sim:0h26m23s) 
CPU  0 inst:  123000002 cyc:   61380163 now IPC :2.10245: AVG IPC :2.00340: L2-Pf-HR :0.96993: L2-HR :0.96726: (Sim:0h26m40s) 
CPU  0 inst:  124000001 cyc:   61853227 now IPC :2.11388: AVG IPC :2.00426: L2-Pf-HR :0.96995: L2-HR :0.96731: (Sim:0h26m56s) 
CPU  0 inst:  125000003 cyc:   62329868 now IPC :2.09802: AVG IPC :2.00499: L2-Pf-HR :0.96999: L2-HR :0.96737: (Sim:0h27m13s) 
CPU  0 inst:  126000001 cyc:   62803727 now IPC :2.11033: AVG IPC :2.00579: L2-Pf-HR :0.97012: L2-HR :0.96753: (Sim:0h27m29s) 
CPU  0 inst:  127000004 cyc:   63461509 now IPC :1.52027: AVG IPC :2.00068: L2-Pf-HR :0.96988: L2-HR :0.96712: (Sim:0h27m47s) 
CPU  0 inst:  128000002 cyc:   63964868 now IPC :1.98665: AVG IPC :2.00057: L2-Pf-HR :0.96982: L2-HR :0.96708: (Sim:0h28m4s) 
CPU  0 inst:  129000004 cyc:   64467780 now IPC :1.98842: AVG IPC :2.00047: L2-Pf-HR :0.96978: L2-HR :0.96707: (Sim:0h28m21s) 
CPU  0 inst:  130000003 cyc:   64962635 now IPC :2.02079: AVG IPC :2.00063: L2-Pf-HR :0.96975: L2-HR :0.96706: (Sim:0h28m38s) 
CPU  0 inst:  131000005 cyc:   65462047 now IPC :2.00236: AVG IPC :2.00064: L2-Pf-HR :0.96972: L2-HR :0.96704: (Sim:0h28m54s) 
CPU  0 inst:  132000003 cyc:   65954720 now IPC :2.02974: AVG IPC :2.00086: L2-Pf-HR :0.96971: L2-HR :0.96704: (Sim:0h29m11s) 
CPU  0 inst:  133000002 cyc:   66444584 now IPC :2.04138: AVG IPC :2.00117: L2-Pf-HR :0.96969: L2-HR :0.96705: (Sim:0h29m28s) 
CPU  0 inst:  134000002 cyc:   66941258 now IPC :2.01339: AVG IPC :2.00126: L2-Pf-HR :0.96967: L2-HR :0.96704: (Sim:0h29m44s) 
CPU  0 inst:  135000003 cyc:   67436970 now IPC :2.01730: AVG IPC :2.00138: L2-Pf-HR :0.96965: L2-HR :0.96705: (Sim:0h30m1s) 
CPU  0 inst:  136000003 cyc:   67936758 now IPC :2.00085: AVG IPC :2.00138: L2-Pf-HR :0.96963: L2-HR :0.96704: (Sim:0h30m18s) 
CPU  0 inst:  137000005 cyc:   68436799 now IPC :1.99984: AVG IPC :2.00136: L2-Pf-HR :0.96966: L2-HR :0.96708: (Sim:0h30m34s) 
CPU  0 inst:  138000003 cyc:   68927375 now IPC :2.03842: AVG IPC :2.00163: L2-Pf-HR :0.96980: L2-HR :0.96721: (Sim:0h30m51s) 
CPU  0 inst:  139000002 cyc:   69587261 now IPC :1.51541: AVG IPC :1.99695: L2-Pf-HR :0.96961: L2-HR :0.96689: (Sim:0h31m9s) 
CPU  0 inst:  140000004 cyc:   70067263 now IPC :2.08333: AVG IPC :1.99756: L2-Pf-HR :0.96960: L2-HR :0.96691: (Sim:0h31m25s) 
CPU  0 inst:  141000004 cyc:   70544857 now IPC :2.09383: AVG IPC :1.99822: L2-Pf-HR :0.96961: L2-HR :0.96694: (Sim:0h31m42s) 
CPU  0 inst:  142000004 cyc:   71022337 now IPC :2.09433: AVG IPC :1.99887: L2-Pf-HR :0.96963: L2-HR :0.96699: (Sim:0h31m58s) 
CPU  0 inst:  143000003 cyc:   71497674 now IPC :2.10377: AVG IPC :1.99958: L2-Pf-HR :0.96967: L2-HR :0.96705: (Sim:0h32m15s) 
CPU  0 inst:  144000003 cyc:   71971688 now IPC :2.10964: AVG IPC :2.00031: L2-Pf-HR :0.96969: L2-HR :0.96709: (Sim:0h32m31s) 
CPU  0 inst:  145000003 cyc:   72444064 now IPC :2.11696: AVG IPC :2.00108: L2-Pf-HR :0.96970: L2-HR :0.96713: (Sim:0h32m47s) 
CPU  0 inst:  146000001 cyc:   72915520 now IPC :2.12108: AVG IPC :2.00187: L2-Pf-HR :0.96972: L2-HR :0.96719: (Sim:0h33m4s) 
CPU  0 inst:  147000005 cyc:   73388281 now IPC :2.11524: AVG IPC :2.00261: L2-Pf-HR :0.96974: L2-HR :0.96723: (Sim:0h33m21s) 
CPU  0 inst:  148000005 cyc:   73863041 now IPC :2.10633: AVG IPC :2.00329: L2-Pf-HR :0.96978: L2-HR :0.96729: (Sim:0h33m37s) 
CPU  0 inst:  149000004 cyc:   74337048 now IPC :2.10967: AVG IPC :2.00397: L2-Pf-HR :0.96986: L2-HR :0.96738: (Sim:0h33m54s) 
CPU  0 inst:  150000003 cyc:   74811294 now IPC :2.10861: AVG IPC :2.00465: L2-Pf-HR :0.97004: L2-HR :0.96756: (Sim:0h34m10s) 
CPU  0 inst:  151000003 cyc:   75418520 now IPC :1.64683: AVG IPC :2.00173: L2-Pf-HR :0.96989: L2-HR :0.96734: (Sim:0h34m28s) 
CPU  0 inst:  152000002 cyc:   75891314 now IPC :2.11508: AVG IPC :2.00244: L2-Pf-HR :0.96990: L2-HR :0.96738: (Sim:0h34m44s) 
CPU  0 inst:  153000000 cyc:   76366238 now IPC :2.10560: AVG IPC :2.00309: L2-Pf-HR :0.96992: L2-HR :0.96743: (Sim:0h35m1s) 
CPU  0 inst:  154000002 cyc:   76842248 now IPC :2.10080: AVG IPC :2.00371: L2-Pf-HR :0.96994: L2-HR :0.96747: (Sim:0h35m18s) 
CPU  0 inst:  155000000 cyc:   77318507 now IPC :2.09969: AVG IPC :2.00430: L2-Pf-HR :0.96997: L2-HR :0.96752: (Sim:0h35m34s) 
CPU  0 inst:  156000002 cyc:   77792040 now IPC :2.11179: AVG IPC :2.00497: L2-Pf-HR :0.96999: L2-HR :0.96757: (Sim:0h35m50s) 
CPU  0 inst:  157000000 cyc:   78267752 now IPC :2.10211: AVG IPC :2.00557: L2-Pf-HR :0.97003: L2-HR :0.96763: (Sim:0h36m7s) 
CPU  0 inst:  158000000 cyc:   78835908 now IPC :1.76008: AVG IPC :2.00377: L2-Pf-HR :0.97002: L2-HR :0.96753: (Sim:0h36m24s) 
CPU  0 inst:  159000004 cyc:   79417690 now IPC :1.71886: AVG IPC :2.00166: L2-Pf-HR :0.96989: L2-HR :0.96736: (Sim:0h36m41s) 
CPU  0 inst:  160000003 cyc:   79917988 now IPC :1.99881: AVG IPC :2.00164: L2-Pf-HR :0.96986: L2-HR :0.96734: (Sim:0h36m58s) 
CPU  0 inst:  161000005 cyc:   80411985 now IPC :2.02431: AVG IPC :2.00178: L2-Pf-HR :0.96983: L2-HR :0.96734: (Sim:0h37m15s) 
CPU  0 inst:  162000001 cyc:   80902617 now IPC :2.03818: AVG IPC :2.00201: L2-Pf-HR :0.96980: L2-HR :0.96732: (Sim:0h37m32s) 
CPU  0 inst:  163000003 cyc:   81400949 now IPC :2.00670: AVG IPC :2.00204: L2-Pf-HR :0.96978: L2-HR :0.96731: (Sim:0h37m49s) 
CPU  0 inst:  164000005 cyc:   81892878 now IPC :2.03282: AVG IPC :2.00222: L2-Pf-HR :0.96976: L2-HR :0.96731: (Sim:0h38m5s) 
CPU  0 inst:  165000004 cyc:   82398488 now IPC :1.97781: AVG IPC :2.00207: L2-Pf-HR :0.96974: L2-HR :0.96730: (Sim:0h38m22s) 
CPU  0 inst:  166000000 cyc:   82893320 now IPC :2.02088: AVG IPC :2.00218: L2-Pf-HR :0.96973: L2-HR :0.96731: (Sim:0h38m39s) 
CPU  0 inst:  167000000 cyc:   83392375 now IPC :2.00379: AVG IPC :2.00219: L2-Pf-HR :0.96972: L2-HR :0.96730: (Sim:0h38m56s) 
CPU  0 inst:  168000001 cyc:   83889955 now IPC :2.00973: AVG IPC :2.00224: L2-Pf-HR :0.96971: L2-HR :0.96731: (Sim:0h39m13s) 
CPU  0 inst:  169000000 cyc:   84386671 now IPC :2.01322: AVG IPC :2.00231: L2-Pf-HR :0.96976: L2-HR :0.96737: (Sim:0h39m30s) 
CPU  0 inst:  170000003 cyc:   84995741 now IPC :1.64185: AVG IPC :1.99969: L2-Pf-HR :0.96976: L2-HR :0.96726: (Sim:0h39m47s) 
CPU  0 inst:  171000001 cyc:   85538810 now IPC :1.84138: AVG IPC :1.99868: L2-Pf-HR :0.96966: L2-HR :0.96716: (Sim:0h40m4s) 
CPU  0 inst:  172000004 cyc:   86015716 now IPC :2.09686: AVG IPC :1.99923: L2-Pf-HR :0.96967: L2-HR :0.96719: (Sim:0h40m21s) 
CPU  0 inst:  173000003 cyc:   86492963 now IPC :2.09535: AVG IPC :1.99976: L2-Pf-HR :0.96968: L2-HR :0.96722: (Sim:0h40m37s) 
CPU  0 inst:  174000002 cyc:   86967452 now IPC :2.10753: AVG IPC :2.00036: L2-Pf-HR :0.96970: L2-HR :0.96726: (Sim:0h40m54s) 
CPU  0 inst:  175000003 cyc:   87439569 now IPC :2.11812: AVG IPC :2.00100: L2-Pf-HR :0.96971: L2-HR :0.96729: (Sim:0h41m11s) 
CPU  0 inst:  176000000 cyc:   87913756 now IPC :2.10887: AVG IPC :2.00159: L2-Pf-HR :0.96973: L2-HR :0.96733: (Sim:0h41m28s) 
CPU  0 inst:  177000004 cyc:   88387836 now IPC :2.10936: AVG IPC :2.00217: L2-Pf-HR :0.96975: L2-HR :0.96738: (Sim:0h41m44s) 
CPU  0 inst:  178000005 cyc:   88863347 now IPC :2.10300: AVG IPC :2.00272: L2-Pf-HR :0.96978: L2-HR :0.96742: (Sim:0h42m0s) 
CPU  0 inst:  179000003 cyc:   89345585 now IPC :2.07366: AVG IPC :2.00311: L2-Pf-HR :0.96980: L2-HR :0.96745: (Sim:0h42m17s) 
CPU  0 inst:  180000004 cyc:   89819704 now IPC :2.10918: AVG IPC :2.00367: L2-Pf-HR :0.96983: L2-HR :0.96751: (Sim:0h42m34s) 
CPU  0 inst:  181000000 cyc:   90288171 now IPC :2.13461: AVG IPC :2.00436: L2-Pf-HR :0.96994: L2-HR :0.96762: (Sim:0h42m51s) 
CPU  0 inst:  182000002 cyc:   90889844 now IPC :1.66204: AVG IPC :2.00207: L2-Pf-HR :0.96993: L2-HR :0.96754: (Sim:0h43m8s) 
CPU  0 inst:  183000005 cyc:   91381642 now IPC :2.03336: AVG IPC :2.00224: L2-Pf-HR :0.96992: L2-HR :0.96754: (Sim:0h43m24s) 
CPU  0 inst:  184000005 cyc:   91858068 now IPC :2.09896: AVG IPC :2.00275: L2-Pf-HR :0.96994: L2-HR :0.96758: (Sim:0h43m41s) 
CPU  0 inst:  185000004 cyc:   92331191 now IPC :2.11361: AVG IPC :2.00332: L2-Pf-HR :0.96995: L2-HR :0.96761: (Sim:0h43m58s) 
CPU  0 inst:  186000005 cyc:   92806808 now IPC :2.10253: AVG IPC :2.00383: L2-Pf-HR :0.96997: L2-HR :0.96765: (Sim:0h44m14s) 
CPU  0 inst:  187000004 cyc:   93283428 now IPC :2.09811: AVG IPC :2.00432: L2-Pf-HR :0.96998: L2-HR :0.96768: (Sim:0h44m31s) 
CPU  0 inst:  188000003 cyc:   93754947 now IPC :2.12080: AVG IPC :2.00491: L2-Pf-HR :0.97000: L2-HR :0.96773: (Sim:0h44m48s) 
CPU  0 inst:  189000001 cyc:   94228945 now IPC :2.10971: AVG IPC :2.00545: L2-Pf-HR :0.97008: L2-HR :0.96781: (Sim:0h45m4s) 
CPU  0 inst:  190000001 cyc:   94882242 now IPC :1.53070: AVG IPC :2.00214: L2-Pf-HR :0.96994: L2-HR :0.96757: (Sim:0h45m22s) 
CPU  0 inst:  191000005 cyc:   95398078 now IPC :1.93861: AVG IPC :2.00179: L2-Pf-HR :0.96990: L2-HR :0.96753: (Sim:0h45m39s) 
CPU  0 inst:  192000000 cyc:   95893247 now IPC :2.01950: AVG IPC :2.00189: L2-Pf-HR :0.96987: L2-HR :0.96752: (Sim:0h45m56s) 
CPU  0 inst:  193000003 cyc:   96394977 now IPC :1.99311: AVG IPC :2.00184: L2-Pf-HR :0.96985: L2-HR :0.96750: (Sim:0h46m13s) 
CPU  0 inst:  194000004 cyc:   96895983 now IPC :1.99599: AVG IPC :2.00181: L2-Pf-HR :0.96984: L2-HR :0.96750: (Sim:0h46m30s) 
CPU  0 inst:  195000005 cyc:   97390887 now IPC :2.02060: AVG IPC :2.00191: L2-Pf-HR :0.96982: L2-HR :0.96750: (Sim:0h46m47s) 
CPU  0 inst:  196000004 cyc:   97893399 now IPC :1.99000: AVG IPC :2.00185: L2-Pf-HR :0.96980: L2-HR :0.96749: (Sim:0h47m3s) 
CPU  0 inst:  197000002 cyc:   98385158 now IPC :2.03351: AVG IPC :2.00201: L2-Pf-HR :0.96979: L2-HR :0.96749: (Sim:0h47m20s) 
CPU  0 inst:  198000004 cyc:   98883325 now IPC :2.00736: AVG IPC :2.00203: L2-Pf-HR :0.96977: L2-HR :0.96748: (Sim:0h47m37s) 
CPU  0 inst:  199000001 cyc:   99378358 now IPC :2.02006: AVG IPC :2.00212: L2-Pf-HR :0.96976: L2-HR :0.96748: (Sim:0h47m54s) 
CPU  0 inst:  200000002 cyc:   99865730 now IPC :2.05182: AVG IPC :2.00237: L2-Pf-HR :0.96978: L2-HR :0.96751: (Sim:0h48m11s) 
CPU  0 inst:  201000001 cyc:  100365045 now IPC :2.00274: AVG IPC :2.00237: L2-Pf-HR :0.96986: L2-HR :0.96758: (Sim:0h48m27s) 
CPU  0 inst:  202000001 cyc:  101027935 now IPC :1.50855: AVG IPC :1.99910: L2-Pf-HR :0.96975: L2-HR :0.96738: (Sim:0h48m46s) 
CPU  0 inst:  203000001 cyc:  101513023 now IPC :2.06148: AVG IPC :1.99940: L2-Pf-HR :0.96973: L2-HR :0.96738: (Sim:0h49m2s) 
CPU  0 inst:  204000001 cyc:  101989824 now IPC :2.09731: AVG IPC :1.99986: L2-Pf-HR :0.96974: L2-HR :0.96740: (Sim:0h49m19s) 
CPU  0 inst:  205000003 cyc:  102464163 now IPC :2.10820: AVG IPC :2.00037: L2-Pf-HR :0.96975: L2-HR :0.96742: (Sim:0h49m36s) 
CPU  0 inst:  206000003 cyc:  102935852 now IPC :2.12004: AVG IPC :2.00092: L2-Pf-HR :0.96976: L2-HR :0.96745: (Sim:0h49m52s) 
CPU  0 inst:  207000003 cyc:  103406337 now IPC :2.12547: AVG IPC :2.00149: L2-Pf-HR :0.96977: L2-HR :0.96749: (Sim:0h50m9s) 
CPU  0 inst:  208000002 cyc:  103877914 now IPC :2.12054: AVG IPC :2.00204: L2-Pf-HR :0.96979: L2-HR :0.96752: (Sim:0h50m26s) 
CPU  0 inst:  209000003 cyc:  104352452 now IPC :2.10731: AVG IPC :2.00252: L2-Pf-HR :0.96980: L2-HR :0.96755: (Sim:0h50m42s) 
CPU  0 inst:  210000002 cyc:  104827061 now IPC :2.10700: AVG IPC :2.00300: L2-Pf-HR :0.96982: L2-HR :0.96758: (Sim:0h50m59s) 
CPU  0 inst:  211000005 cyc:  105299832 now IPC :2.11520: AVG IPC :2.00351: L2-Pf-HR :0.96984: L2-HR :0.96762: (Sim:0h51m16s) 
CPU  0 inst:  212000001 cyc:  105769939 now IPC :2.12717: AVG IPC :2.00406: L2-Pf-HR :0.96990: L2-HR :0.96768: (Sim:0h51m32s) 
CPU  0 inst:  213000000 cyc:  106236126 now IPC :2.14506: AVG IPC :2.00469: L2-Pf-HR :0.97001: L2-HR :0.96780: (Sim:0h51m49s) 
CPU  0 inst:  214000003 cyc:  106842531 now IPC :1.64907: AVG IPC :2.00265: L2-Pf-HR :0.96993: L2-HR :0.96766: (Sim:0h52m6s) 
CPU  0 inst:  215000005 cyc:  107319494 now IPC :2.09660: AVG IPC :2.00307: L2-Pf-HR :0.96993: L2-HR :0.96768: (Sim:0h52m23s) 
CPU  0 inst:  216000003 cyc:  107797486 now IPC :2.09208: AVG IPC :2.00347: L2-Pf-HR :0.96995: L2-HR :0.96772: (Sim:0h52m40s) 
CPU  0 inst:  217000001 cyc:  108275024 now IPC :2.09407: AVG IPC :2.00387: L2-Pf-HR :0.96997: L2-HR :0.96775: (Sim:0h52m56s) 
CPU  0 inst:  218000000 cyc:  108749394 now IPC :2.10806: AVG IPC :2.00433: L2-Pf-HR :0.96998: L2-HR :0.96777: (Sim:0h53m13s) 
CPU  0 inst:  219000004 cyc:  109223830 now IPC :2.10777: AVG IPC :2.00479: L2-Pf-HR :0.96999: L2-HR :0.96781: (Sim:0h53m29s) 
CPU  0 inst:  220000002 cyc:  109702753 now IPC :2.08801: AVG IPC :2.00515: L2-Pf-HR :0.97002: L2-HR :0.96785: (Sim:0h53m46s) 
CPU  0 inst:  221000000 cyc:  110178848 now IPC :2.10042: AVG IPC :2.00557: L2-Pf-HR :0.97013: L2-HR :0.96795: (Sim:0h54m3s) 
CPU  0 inst:  222000002 cyc:  110836550 now IPC :1.52045: AVG IPC :2.00266: L2-Pf-HR :0.96993: L2-HR :0.96767: (Sim:0h54m21s) 
CPU  0 inst:  223000000 cyc:  111335331 now IPC :2.00488: AVG IPC :2.00267: L2-Pf-HR :0.96991: L2-HR :0.96766: (Sim:0h54m38s) 
CPU  0 inst:  224000004 cyc:  111834379 now IPC :2.00382: AVG IPC :2.00268: L2-Pf-HR :0.96989: L2-HR :0.96764: (Sim:0h54m55s) 
CPU  0 inst:  225000001 cyc:  112332516 now IPC :2.00747: AVG IPC :2.00270: L2-Pf-HR :0.96987: L2-HR :0.96764: (Sim:0h55m12s) 
CPU  0 inst:  226000003 cyc:  112828677 now IPC :2.01548: AVG IPC :2.00276: L2-Pf-HR :0.96986: L2-HR :0.96763: (Sim:0h55m29s) 
CPU  0 inst:  227000000 cyc:  113333199 now IPC :1.98207: AVG IPC :2.00266: L2-Pf-HR :0.96984: L2-HR :0.96762: (Sim:0h55m46s) 
CPU  0 inst:  228000004 cyc:  113826938 now IPC :2.02537: AVG IPC :2.00276: L2-Pf-HR :0.96983: L2-HR :0.96762: (Sim:0h56m2s) 
CPU  0 inst:  229000003 cyc:  114317257 now IPC :2.03949: AVG IPC :2.00292: L2-Pf-HR :0.96982: L2-HR :0.96761: (Sim:0h56m19s) 
CPU  0 inst:  230000002 cyc:  114815147 now IPC :2.00847: AVG IPC :2.00295: L2-Pf-HR :0.96981: L2-HR :0.96761: (Sim:0h56m36s) 
CPU  0 inst:  231000004 cyc:  115312868 now IPC :2.00916: AVG IPC :2.00297: L2-Pf-HR :0.96980: L2-HR :0.96761: (Sim:0h56m53s) 
CPU  0 inst:  232000003 cyc:  115811053 now IPC :2.00728: AVG IPC :2.00299: L2-Pf-HR :0.96982: L2-HR :0.96764: (Sim:0h57m10s) 
CPU  0 inst:  233000001 cyc:  116337983 now IPC :1.89778: AVG IPC :2.00251: L2-Pf-HR :0.96989: L2-HR :0.96768: (Sim:0h57m27s) 
CPU  0 inst:  234000002 cyc:  116964535 now IPC :1.59604: AVG IPC :2.00031: L2-Pf-HR :0.96976: L2-HR :0.96750: (Sim:0h57m44s) 
CPU  0 inst:  235000001 cyc:  117441320 now IPC :2.09738: AVG IPC :2.00071: L2-Pf-HR :0.96976: L2-HR :0.96751: (Sim:0h58m1s) 
CPU  0 inst:  236000003 cyc:  117913247 now IPC :2.11898: AVG IPC :2.00119: L2-Pf-HR :0.96977: L2-HR :0.96753: (Sim:0h58m18s) 
CPU  0 inst:  237000000 cyc:  118385577 now IPC :2.11716: AVG IPC :2.00166: L2-Pf-HR :0.96978: L2-HR :0.96756: (Sim:0h58m34s) 
CPU  0 inst:  238000000 cyc:  118857957 now IPC :2.11694: AVG IPC :2.00212: L2-Pf-HR :0.96979: L2-HR :0.96759: (Sim:0h58m51s) 
CPU  0 inst:  239000001 cyc:  119332467 now IPC :2.10744: AVG IPC :2.00254: L2-Pf-HR :0.96980: L2-HR :0.96761: (Sim:0h59m8s) 
CPU  0 inst:  240000002 cyc:  119807411 now IPC :2.10551: AVG IPC :2.00295: L2-Pf-HR :0.96981: L2-HR :0.96763: (Sim:0h59m24s) 
CPU  0 inst:  241000002 cyc:  120279027 now IPC :2.12037: AVG IPC :2.00342: L2-Pf-HR :0.96981: L2-HR :0.96766: (Sim:0h59m41s) 
CPU  0 inst:  242000004 cyc:  120750502 now IPC :2.12101: AVG IPC :2.00388: L2-Pf-HR :0.96983: L2-HR :0.96769: (Sim:0h59m57s) 
CPU  0 inst:  243000001 cyc:  121221677 now IPC :2.12235: AVG IPC :2.00434: L2-Pf-HR :0.96986: L2-HR :0.96773: (Sim:1h0m14s) 
CPU  0 inst:  244000002 cyc:  121692208 now IPC :2.12526: AVG IPC :2.00481: L2-Pf-HR :0.96993: L2-HR :0.96781: (Sim:1h0m31s) 
CPU  0 inst:  245000002 cyc:  122282042 now IPC :1.69539: AVG IPC :2.00331: L2-Pf-HR :0.96993: L2-HR :0.96776: (Sim:1h0m48s) 
CPU  0 inst:  246000000 cyc:  122767594 now IPC :2.05951: AVG IPC :2.00353: L2-Pf-HR :0.96992: L2-HR :0.96776: (Sim:1h1m5s) 
CPU  0 inst:  247000005 cyc:  123241072 now IPC :2.11204: AVG IPC :2.00395: L2-Pf-HR :0.96993: L2-HR :0.96778: (Sim:1h1m21s) 
CPU  0 inst:  248000000 cyc:  123717797 now IPC :2.09763: AVG IPC :2.00432: L2-Pf-HR :0.96994: L2-HR :0.96780: (Sim:1h1m38s) 
CPU  0 inst:  249000005 cyc:  124193315 now IPC :2.10298: AVG IPC :2.00470: L2-Pf-HR :0.96995: L2-HR :0.96783: (Sim:1h1m55s) 
CPU  0 inst:  250000003 cyc:  124669108 now IPC :2.10175: AVG IPC :2.00507: L2-Pf-HR :0.96996: L2-HR :0.96785: (Sim:1h2m11s) 
CPU  0 inst:  251000002 cyc:  125144353 now IPC :2.10418: AVG IPC :2.00545: L2-Pf-HR :0.96998: L2-HR :0.96788: (Sim:1h2m27s) 
CPU  0 inst:  252000000 cyc:  125620857 now IPC :2.09861: AVG IPC :2.00581: L2-Pf-HR :0.97003: L2-HR :0.96794: (Sim:1h2m44s) 
CPU  0 inst:  253000003 cyc:  126256745 now IPC :1.57261: AVG IPC :2.00361: L2-Pf-HR :0.96995: L2-HR :0.96778: (Sim:1h3m2s) 
CPU  0 inst:  254000005 cyc:  126769351 now IPC :1.95082: AVG IPC :2.00339: L2-Pf-HR :0.96991: L2-HR :0.96774: (Sim:1h3m19s) 
CPU  0 inst:  255000002 cyc:  127268725 now IPC :2.00250: AVG IPC :2.00339: L2-Pf-HR :0.96989: L2-HR :0.96773: (Sim:1h3m35s) 
CPU  0 inst:  256000000 cyc:  127759205 now IPC :2.03882: AVG IPC :2.00353: L2-Pf-HR :0.96988: L2-HR :0.96773: (Sim:1h3m52s) 
CPU  0 inst:  257000002 cyc:  128263694 now IPC :1.98221: AVG IPC :2.00344: L2-Pf-HR :0.96986: L2-HR :0.96772: (Sim:1h4m9s) 
CPU  0 inst:  258000004 cyc:  128762945 now IPC :2.00300: AVG IPC :2.00344: L2-Pf-HR :0.96985: L2-HR :0.96771: (Sim:1h4m25s) 
CPU  0 inst:  259000003 cyc:  129253241 now IPC :2.03958: AVG IPC :2.00358: L2-Pf-HR :0.96984: L2-HR :0.96771: (Sim:1h4m42s) 
CPU  0 inst:  260000005 cyc:  129749697 now IPC :2.01428: AVG IPC :2.00362: L2-Pf-HR :0.96982: L2-HR :0.96770: (Sim:1h4m59s) 
CPU  0 inst:  261000004 cyc:  130249594 now IPC :2.00041: AVG IPC :2.00361: L2-Pf-HR :0.96981: L2-HR :0.96770: (Sim:1h5m16s) 
CPU  0 inst:  262000004 cyc:  130746421 now IPC :2.01277: AVG IPC :2.00364: L2-Pf-HR :0.96981: L2-HR :0.96770: (Sim:1h5m33s) 
CPU  0 inst:  263000002 cyc:  131236551 now IPC :2.04027: AVG IPC :2.00378: L2-Pf-HR :0.96981: L2-HR :0.96771: (Sim:1h5m49s) 
CPU  0 inst:  264000003 cyc:  131718293 now IPC :2.07580: AVG IPC :2.00405: L2-Pf-HR :0.96986: L2-HR :0.96776: (Sim:1h6m6s) 
CPU  0 inst:  265000001 cyc:  132352669 now IPC :1.57635: AVG IPC :2.00198: L2-Pf-HR :0.96979: L2-HR :0.96762: (Sim:1h6m23s) 
CPU  0 inst:  266000004 cyc:  132845642 now IPC :2.02851: AVG IPC :2.00208: L2-Pf-HR :0.96977: L2-HR :0.96761: (Sim:1h6m40s) 
CPU  0 inst:  267000001 cyc:  133319916 now IPC :2.10848: AVG IPC :2.00246: L2-Pf-HR :0.96978: L2-HR :0.96763: (Sim:1h6m57s) 
CPU  0 inst:  268000000 cyc:  133795100 now IPC :2.10445: AVG IPC :2.00283: L2-Pf-HR :0.96979: L2-HR :0.96765: (Sim:1h7m14s) 
CPU  0 inst:  269000003 cyc:  134268106 now IPC :2.11414: AVG IPC :2.00322: L2-Pf-HR :0.96979: L2-HR :0.96767: (Sim:1h7m30s) 
CPU  0 inst:  270000002 cyc:  134740453 now IPC :2.11709: AVG IPC :2.00362: L2-Pf-HR :0.96980: L2-HR :0.96769: (Sim:1h7m47s) 
CPU  0 inst:  271000002 cyc:  135215734 now IPC :2.10402: AVG IPC :2.00398: L2-Pf-HR :0.96981: L2-HR :0.96771: (Sim:1h8m3s) 
CPU  0 inst:  272000005 cyc:  135691498 now IPC :2.10189: AVG IPC :2.00432: L2-Pf-HR :0.96982: L2-HR :0.96773: (Sim:1h8m20s) 
CPU  0 inst:  273000002 cyc:  136162327 now IPC :2.12391: AVG IPC :2.00474: L2-Pf-HR :0.96983: L2-HR :0.96776: (Sim:1h8m37s) 
CPU  0 inst:  274000001 cyc:  136634087 now IPC :2.11972: AVG IPC :2.00514: L2-Pf-HR :0.96984: L2-HR :0.96778: (Sim:1h8m53s) 
CPU  0 inst:  275000003 cyc:  137106102 now IPC :2.11858: AVG IPC :2.00553: L2-Pf-HR :0.96988: L2-HR :0.96783: (Sim:1h9m10s) 
CPU  0 inst:  276000000 cyc:  137572073 now IPC :2.14605: AVG IPC :2.00601: L2-Pf-HR :0.96997: L2-HR :0.96791: (Sim:1h9m26s) 
CPU  0 inst:  277000002 cyc:  138179899 now IPC :1.64521: AVG IPC :2.00442: L2-Pf-HR :0.96991: L2-HR :0.96782: (Sim:1h9m43s) 
CPU  0 inst:  278000005 cyc:  138659757 now IPC :2.08396: AVG IPC :2.00469: L2-Pf-HR :0.96992: L2-HR :0.96783: (Sim:1h10m0s) 
CPU  0 inst:  279000002 cyc:  139134130 now IPC :2.10804: AVG IPC :2.00505: L2-Pf-HR :0.96993: L2-HR :0.96786: (Sim:1h10m16s) 
CPU  0 inst:  280000004 cyc:  139609885 now IPC :2.10193: AVG IPC :2.00538: L2-Pf-HR :0.96994: L2-HR :0.96788: (Sim:1h10m33s) 
CPU  0 inst:  281000005 cyc:  140084553 now IPC :2.10674: AVG IPC :2.00573: L2-Pf-HR :0.96995: L2-HR :0.96790: (Sim:1h10m50s) 
CPU  0 inst:  282000000 cyc:  140560980 now IPC :2.09895: AVG IPC :2.00604: L2-Pf-HR :0.96996: L2-HR :0.96792: (Sim:1h11m6s) 
CPU  0 inst:  283000005 cyc:  141038054 now IPC :2.09612: AVG IPC :2.00635: L2-Pf-HR :0.96998: L2-HR :0.96795: (Sim:1h11m23s) 
CPU  0 inst:  284000000 cyc:  141510378 now IPC :2.11718: AVG IPC :2.00672: L2-Pf-HR :0.97005: L2-HR :0.96803: (Sim:1h11m39s) 
CPU  0 inst:  285000003 cyc:  142169855 now IPC :1.51636: AVG IPC :2.00443: L2-Pf-HR :0.96992: L2-HR :0.96782: (Sim:1h11m57s) 
CPU  0 inst:  286000003 cyc:  142672866 now IPC :1.98803: AVG IPC :2.00437: L2-Pf-HR :0.96990: L2-HR :0.96781: (Sim:1h12m14s) 
CPU  0 inst:  287000002 cyc:  143159881 now IPC :2.05332: AVG IPC :2.00454: L2-Pf-HR :0.96989: L2-HR :0.96781: (Sim:1h12m31s) 
CPU  0 inst:  288000000 cyc:  143659476 now IPC :2.00162: AVG IPC :2.00453: L2-Pf-HR :0.96987: L2-HR :0.96779: (Sim:1h12m48s) 
CPU  0 inst:  289000000 cyc:  144161837 now IPC :1.99060: AVG IPC :2.00448: L2-Pf-HR :0.96986: L2-HR :0.96779: (Sim:1h13m5s) 
CPU  0 inst:  290000003 cyc:  144658572 now IPC :2.01315: AVG IPC :2.00451: L2-Pf-HR :0.96985: L2-HR :0.96779: (Sim:1h13m22s) 
CPU  0 inst:  291000000 cyc:  145157995 now IPC :2.00230: AVG IPC :2.00451: L2-Pf-HR :0.96984: L2-HR :0.96778: (Sim:1h13m39s) 
CPU  0 inst:  292000000 cyc:  145644382 now IPC :2.05598: AVG IPC :2.00468: L2-Pf-HR :0.96983: L2-HR :0.96778: (Sim:1h13m55s) 
CPU  0 inst:  293000002 cyc:  146136848 now IPC :2.03060: AVG IPC :2.00477: L2-Pf-HR :0.96982: L2-HR :0.96777: (Sim:1h14m12s) 
CPU  0 inst:  294000005 cyc:  146633668 now IPC :2.01281: AVG IPC :2.00479: L2-Pf-HR :0.96981: L2-HR :0.96777: (Sim:1h14m29s) 
CPU  0 inst:  295000003 cyc:  147123624 now IPC :2.04100: AVG IPC :2.00492: L2-Pf-HR :0.96984: L2-HR :0.96780: (Sim:1h14m46s) 
CPU  0 inst:  296000003 cyc:  147617057 now IPC :2.02662: AVG IPC :2.00499: L2-Pf-HR :0.96990: L2-HR :0.96786: (Sim:1h15m2s) 
CPU  0 inst:  297000005 cyc:  148285614 now IPC :1.49576: AVG IPC :2.00268: L2-Pf-HR :0.96979: L2-HR :0.96768: (Sim:1h15m20s) 
CPU  0 inst:  298000003 cyc:  148763254 now IPC :2.09362: AVG IPC :2.00297: L2-Pf-HR :0.96979: L2-HR :0.96769: (Sim:1h15m37s) 
CPU  0 inst:  299000004 cyc:  149236639 now IPC :2.11245: AVG IPC :2.00332: L2-Pf-HR :0.96979: L2-HR :0.96771: (Sim:1h15m54s) 
CPU  0 inst:  300000002 cyc:  149710740 now IPC :2.10925: AVG IPC :2.00366: L2-Pf-HR :0.96980: L2-HR :0.96773: (Sim:1h16m3s) 
CPU  0 inst:  301000002 cyc:  150186649 now IPC :2.10124: AVG IPC :2.00397: L2-Pf-HR :0.96981: L2-HR :0.96775: (Sim:1h16m10s) 
CPU  0 inst:  302000005 cyc:  150661277 now IPC :2.10692: AVG IPC :2.00430: L2-Pf-HR :0.96983: L2-HR :0.96778: (Sim:1h16m18s) 
CPU  0 inst:  303000002 cyc:  151136879 now IPC :2.10259: AVG IPC :2.00461: L2-Pf-HR :0.96983: L2-HR :0.96779: (Sim:1h16m26s) 
CPU  0 inst:  304000003 cyc:  151607361 now IPC :2.12548: AVG IPC :2.00499: L2-Pf-HR :0.96984: L2-HR :0.96781: (Sim:1h16m34s) 
CPU  0 inst:  305000001 cyc:  152076425 now IPC :2.13190: AVG IPC :2.00538: L2-Pf-HR :0.96985: L2-HR :0.96783: (Sim:1h16m41s) 
CPU  0 inst:  306000003 cyc:  152549135 now IPC :2.11547: AVG IPC :2.00572: L2-Pf-HR :0.96986: L2-HR :0.96786: (Sim:1h16m49s) 
CPU  0 inst:  307000003 cyc:  153022365 now IPC :2.11314: AVG IPC :2.00606: L2-Pf-HR :0.96991: L2-HR :0.96791: (Sim:1h16m57s) 
CPU  0 inst:  308000000 cyc:  153560542 now IPC :1.85812: AVG IPC :2.00554: L2-Pf-HR :0.96994: L2-HR :0.96791: (Sim:1h17m5s) 
CPU  0 inst:  309000005 cyc:  154076890 now IPC :1.93669: AVG IPC :2.00530: L2-Pf-HR :0.96992: L2-HR :0.96788: (Sim:1h17m13s) 
CPU  0 inst:  310000004 cyc:  154557282 now IPC :2.08163: AVG IPC :2.00554: L2-Pf-HR :0.96992: L2-HR :0.96790: (Sim:1h17m20s) 
CPU  0 inst:  311000005 cyc:  155032345 now IPC :2.10499: AVG IPC :2.00585: L2-Pf-HR :0.96993: L2-HR :0.96792: (Sim:1h17m28s) 
CPU  0 inst:  312000004 cyc:  155506115 now IPC :2.11073: AVG IPC :2.00617: L2-Pf-HR :0.96994: L2-HR :0.96794: (Sim:1h17m36s) 
CPU  0 inst:  313000002 cyc:  155980797 now IPC :2.10667: AVG IPC :2.00648: L2-Pf-HR :0.96996: L2-HR :0.96796: (Sim:1h17m43s) 
CPU  0 inst:  314000001 cyc:  156457892 now IPC :2.09602: AVG IPC :2.00675: L2-Pf-HR :0.96996: L2-HR :0.96798: (Sim:1h17m51s) 
CPU  0 inst:  315000002 cyc:  156933713 now IPC :2.10163: AVG IPC :2.00704: L2-Pf-HR :0.96999: L2-HR :0.96802: (Sim:1h17m59s) 
CPU  0 inst:  316000000 cyc:  157539262 now IPC :1.65139: AVG IPC :2.00567: L2-Pf-HR :0.96995: L2-HR :0.96792: (Sim:1h18m7s) 
CPU  0 inst:  317000002 cyc:  158071904 now IPC :1.87744: AVG IPC :2.00523: L2-Pf-HR :0.96991: L2-HR :0.96787: (Sim:1h18m15s) 
CPU  0 inst:  318000004 cyc:  158558727 now IPC :2.05414: AVG IPC :2.00538: L2-Pf-HR :0.96990: L2-HR :0.96787: (Sim:1h18m23s) 
CPU  0 inst:  319000000 cyc:  159061767 now IPC :1.98791: AVG IPC :2.00533: L2-Pf-HR :0.96988: L2-HR :0.96786: (Sim:1h18m31s) 
CPU  0 inst:  320000002 cyc:  159558911 now IPC :2.01149: AVG IPC :2.00535: L2-Pf-HR :0.96987: L2-HR :0.96785: (Sim:1h18m38s) 
CPU  0 inst:  321000001 cyc:  160046272 now IPC :2.05187: AVG IPC :2.00549: L2-Pf-HR :0.96986: L2-HR :0.96785: (Sim:1h18m46s) 
CPU  0 inst:  322000004 cyc:  160541104 now IPC :2.02089: AVG IPC :2.00554: L2-Pf-HR :0.96985: L2-HR :0.96784: (Sim:1h18m54s) 
CPU  0 inst:  323000005 cyc:  161032657 now IPC :2.03437: AVG IPC :2.00563: L2-Pf-HR :0.96984: L2-HR :0.96784: (Sim:1h19m1s) 
CPU  0 inst:  324000001 cyc:  161533723 now IPC :1.99574: AVG IPC :2.00559: L2-Pf-HR :0.96983: L2-HR :0.96783: (Sim:1h19m9s) 
CPU  0 inst:  325000000 cyc:  162032743 now IPC :2.00393: AVG IPC :2.00559: L2-Pf-HR :0.96982: L2-HR :0.96783: (Sim:1h19m17s) 
CPU  0 inst:  326000002 cyc:  162525626 now IPC :2.02888: AVG IPC :2.00566: L2-Pf-HR :0.96983: L2-HR :0.96784: (Sim:1h19m24s) 
CPU  0 inst:  327000004 cyc:  163023439 now IPC :2.00879: AVG IPC :2.00567: L2-Pf-HR :0.96986: L2-HR :0.96787: (Sim:1h19m32s) 
CPU  0 inst:  328000003 cyc:  163678986 now IPC :1.52544: AVG IPC :2.00373: L2-Pf-HR :0.96982: L2-HR :0.96777: (Sim:1h19m40s) 
CPU  0 inst:  329000003 cyc:  164176817 now IPC :2.00871: AVG IPC :2.00375: L2-Pf-HR :0.96980: L2-HR :0.96775: (Sim:1h19m48s) 
CPU  0 inst:  330000003 cyc:  164650518 now IPC :2.11104: AVG IPC :2.00406: L2-Pf-HR :0.96980: L2-HR :0.96777: (Sim:1h19m56s) 
CPU  0 inst:  331000002 cyc:  165124469 now IPC :2.10992: AVG IPC :2.00437: L2-Pf-HR :0.96980: L2-HR :0.96778: (Sim:1h20m3s) 
CPU  0 inst:  332000005 cyc:  165599549 now IPC :2.10491: AVG IPC :2.00466: L2-Pf-HR :0.96981: L2-HR :0.96780: (Sim:1h20m11s) 
CPU  0 inst:  333000005 cyc:  166077008 now IPC :2.09442: AVG IPC :2.00492: L2-Pf-HR :0.96981: L2-HR :0.96781: (Sim:1h20m19s) 
CPU  0 inst:  334000000 cyc:  166551392 now IPC :2.10799: AVG IPC :2.00521: L2-Pf-HR :0.96982: L2-HR :0.96783: (Sim:1h20m26s) 
CPU  0 inst:  335000001 cyc:  167023561 now IPC :2.11789: AVG IPC :2.00553: L2-Pf-HR :0.96984: L2-HR :0.96785: (Sim:1h20m34s) 
CPU  0 inst:  336000001 cyc:  167495888 now IPC :2.11718: AVG IPC :2.00585: L2-Pf-HR :0.96985: L2-HR :0.96788: (Sim:1h20m41s) 
CPU  0 inst:  337000000 cyc:  167968861 now IPC :2.11428: AVG IPC :2.00616: L2-Pf-HR :0.96986: L2-HR :0.96790: (Sim:1h20m49s) 
CPU  0 inst:  338000000 cyc:  168445025 now IPC :2.10012: AVG IPC :2.00642: L2-Pf-HR :0.96988: L2-HR :0.96793: (Sim:1h20m57s) 
CPU  0 inst:  339000002 cyc:  168912646 now IPC :2.13849: AVG IPC :2.00679: L2-Pf-HR :0.96994: L2-HR :0.96799: (Sim:1h21m4s) 
CPU  0 inst:  340000001 cyc:  169512553 now IPC :1.66692: AVG IPC :2.00558: L2-Pf-HR :0.96991: L2-HR :0.96792: (Sim:1h21m12s) 
CPU  0 inst:  341000004 cyc:  169989702 now IPC :2.09579: AVG IPC :2.00584: L2-Pf-HR :0.96991: L2-HR :0.96793: (Sim:1h21m20s) 
CPU  0 inst:  342000002 cyc:  170463472 now IPC :2.11072: AVG IPC :2.00613: L2-Pf-HR :0.96992: L2-HR :0.96795: (Sim:1h21m27s) 
CPU  0 inst:  343000002 cyc:  170941259 now IPC :2.09298: AVG IPC :2.00637: L2-Pf-HR :0.96993: L2-HR :0.96797: (Sim:1h21m35s) 
CPU  0 inst:  344000001 cyc:  171413846 now IPC :2.11601: AVG IPC :2.00668: L2-Pf-HR :0.96994: L2-HR :0.96798: (Sim:1h21m42s) 
CPU  0 inst:  345000000 cyc:  171884329 now IPC :2.12547: AVG IPC :2.00700: L2-Pf-HR :0.96995: L2-HR :0.96801: (Sim:1h21m50s) 
CPU  0 inst:  346000004 cyc:  172360138 now IPC :2.10169: AVG IPC :2.00727: L2-Pf-HR :0.96996: L2-HR :0.96803: (Sim:1h21m57s) 
CPU  0 inst:  347000003 cyc:  172838014 now IPC :2.09259: AVG IPC :2.00750: L2-Pf-HR :0.97001: L2-HR :0.96808: (Sim:1h22m5s) 
CPU  0 inst:  348000001 cyc:  173503215 now IPC :1.50330: AVG IPC :2.00556: L2-Pf-HR :0.96992: L2-HR :0.96793: (Sim:1h22m13s) 
CPU  0 inst:  349000000 cyc:  174004991 now IPC :1.99292: AVG IPC :2.00552: L2-Pf-HR :0.96990: L2-HR :0.96792: (Sim:1h22m21s) 
CPU  0 inst:  350000005 cyc:  174508555 now IPC :1.98585: AVG IPC :2.00547: L2-Pf-HR :0.96988: L2-HR :0.96790: (Sim:1h22m29s) 
CPU  0 inst:  351000004 cyc:  175011886 now IPC :1.98676: AVG IPC :2.00541: L2-Pf-HR :0.96988: L2-HR :0.96790: (Sim:1h22m36s) 
CPU  0 inst:  352000002 cyc:  175504767 now IPC :2.02888: AVG IPC :2.00548: L2-Pf-HR :0.96987: L2-HR :0.96790: (Sim:1h22m44s) 
CPU  0 inst:  353000002 cyc:  175996449 now IPC :2.03383: AVG IPC :2.00556: L2-Pf-HR :0.96986: L2-HR :0.96789: (Sim:1h22m52s) 
CPU  0 inst:  354000001 cyc:  176479958 now IPC :2.06821: AVG IPC :2.00573: L2-Pf-HR :0.96986: L2-HR :0.96790: (Sim:1h23m0s) 
CPU  0 inst:  355000000 cyc:  176982281 now IPC :1.99075: AVG IPC :2.00569: L2-Pf-HR :0.96985: L2-HR :0.96789: (Sim:1h23m7s) 
CPU  0 inst:  356000005 cyc:  177485735 now IPC :1.98629: AVG IPC :2.00563: L2-Pf-HR :0.96983: L2-HR :0.96788: (Sim:1h23m15s) 
CPU  0 inst:  357000004 cyc:  177981572 now IPC :2.01679: AVG IPC :2.00566: L2-Pf-HR :0.96984: L2-HR :0.96789: (Sim:1h23m23s) 
CPU  0 inst:  358000003 cyc:  178471373 now IPC :2.04164: AVG IPC :2.00576: L2-Pf-HR :0.96985: L2-HR :0.96790: (Sim:1h23m31s) 
CPU  0 inst:  359000005 cyc:  178954567 now IPC :2.06957: AVG IPC :2.00594: L2-Pf-HR :0.96990: L2-HR :0.96795: (Sim:1h23m45s) 
CPU  0 inst:  360000001 cyc:  179627364 now IPC :1.48633: AVG IPC :2.00398: L2-Pf-HR :0.96982: L2-HR :0.96781: (Sim:1h24m2s) 
CPU  0 inst:  361000000 cyc:  180105735 now IPC :2.09043: AVG IPC :2.00421: L2-Pf-HR :0.96981: L2-HR :0.96782: (Sim:1h24m19s) 
CPU  0 inst:  362000005 cyc:  180578875 now IPC :2.11355: AVG IPC :2.00450: L2-Pf-HR :0.96982: L2-HR :0.96783: (Sim:1h24m35s) 
CPU  0 inst:  363000005 cyc:  181055117 now IPC :2.09977: AVG IPC :2.00475: L2-Pf-HR :0.96982: L2-HR :0.96784: (Sim:1h24m51s) 
CPU  0 inst:  364000000 cyc:  181529178 now IPC :2.10942: AVG IPC :2.00503: L2-Pf-HR :0.96983: L2-HR :0.96786: (Sim:1h25m7s) 
CPU  0 inst:  365000001 cyc:  182001455 now IPC :2.11740: AVG IPC :2.00532: L2-Pf-HR :0.96983: L2-HR :0.96787: (Sim:1h25m23s) 
CPU  0 inst:  366000004 cyc:  182472730 now IPC :2.12191: AVG IPC :2.00562: L2-Pf-HR :0.96984: L2-HR :0.96789: (Sim:1h25m40s) 
CPU  0 inst:  367000001 cyc:  182942812 now IPC :2.12728: AVG IPC :2.00594: L2-Pf-HR :0.96985: L2-HR :0.96791: (Sim:1h25m56s) 
CPU  0 inst:  368000003 cyc:  183415881 now IPC :2.11386: AVG IPC :2.00622: L2-Pf-HR :0.96986: L2-HR :0.96793: (Sim:1h26m13s) 
CPU  0 inst:  369000000 cyc:  183890079 now IPC :2.10882: AVG IPC :2.00648: L2-Pf-HR :0.96988: L2-HR :0.96795: (Sim:1h26m24s) 
CPU  0 inst:  370000003 cyc:  184360916 now IPC :2.12388: AVG IPC :2.00678: L2-Pf-HR :0.96991: L2-HR :0.96799: (Sim:1h26m32s) 
CPU  0 inst:  371000001 cyc:  184854312 now IPC :2.02677: AVG IPC :2.00684: L2-Pf-HR :0.96998: L2-HR :0.96805: (Sim:1h26m40s) 
CPU  0 inst:  372000005 cyc:  185437087 now IPC :1.71593: AVG IPC :2.00592: L2-Pf-HR :0.96992: L2-HR :0.96797: (Sim:1h26m48s) 
CPU  0 inst:  373000004 cyc:  185916313 now IPC :2.08670: AVG IPC :2.00613: L2-Pf-HR :0.96993: L2-HR :0.96799: (Sim:1h26m55s) 
CPU  0 inst:  374000005 cyc:  186392537 now IPC :2.09985: AVG IPC :2.00637: L2-Pf-HR :0.96994: L2-HR :0.96800: (Sim:1h27m3s) 
CPU  0 inst:  375000000 cyc:  186867692 now IPC :2.10457: AVG IPC :2.00662: L2-Pf-HR :0.96994: L2-HR :0.96802: (Sim:1h27m10s) 
CPU  0 inst:  376000002 cyc:  187345832 now IPC :2.09144: AVG IPC :2.00684: L2-Pf-HR :0.96995: L2-HR :0.96803: (Sim:1h27m18s) 
CPU  0 inst:  377000000 cyc:  187822420 now IPC :2.09824: AVG IPC :2.00707: L2-Pf-HR :0.96996: L2-HR :0.96805: (Sim:1h27m26s) 
CPU  0 inst:  378000002 cyc:  188293641 now IPC :2.12215: AVG IPC :2.00736: L2-Pf-HR :0.96998: L2-HR :0.96808: (Sim:1h27m33s) 
CPU  0 inst:  379000000 cyc:  188862784 now IPC :1.75702: AVG IPC :2.00660: L2-Pf-HR :0.96997: L2-HR :0.96802: (Sim:1h27m41s) 
CPU  0 inst:  380000002 cyc:  189416840 now IPC :1.80488: AVG IPC :2.00601: L2-Pf-HR :0.96992: L2-HR :0.96797: (Sim:1h27m49s) 
CPU  0 inst:  381000001 cyc:  189916877 now IPC :1.99985: AVG IPC :2.00599: L2-Pf-HR :0.96991: L2-HR :0.96796: (Sim:1h27m57s) 
CPU  0 inst:  382000004 cyc:  190420816 now IPC :1.98437: AVG IPC :2.00593: L2-Pf-HR :0.96990: L2-HR :0.96795: (Sim:1h28m5s) 
CPU  0 inst:  383000005 cyc:  190912057 now IPC :2.03566: AVG IPC :2.00601: L2-Pf-HR :0.96989: L2-HR :0.96795: (Sim:1h28m12s) 
CPU  0 inst:  384000005 cyc:  191407015 now IPC :2.02037: AVG IPC :2.00605: L2-Pf-HR :0.96987: L2-HR :0.96794: (Sim:1h28m20s) 
CPU  0 inst:  385000001 cyc:  191897721 now IPC :2.03787: AVG IPC :2.00613: L2-Pf-HR :0.96987: L2-HR :0.96794: (Sim:1h28m28s) 
CPU  0 inst:  386000005 cyc:  192402449 now IPC :1.98127: AVG IPC :2.00606: L2-Pf-HR :0.96986: L2-HR :0.96794: (Sim:1h28m35s) 
CPU  0 inst:  387000001 cyc:  192899929 now IPC :2.01012: AVG IPC :2.00607: L2-Pf-HR :0.96985: L2-HR :0.96793: (Sim:1h28m43s) 
CPU  0 inst:  388000000 cyc:  193389536 now IPC :2.04245: AVG IPC :2.00617: L2-Pf-HR :0.96985: L2-HR :0.96793: (Sim:1h28m51s) 
CPU  0 inst:  389000003 cyc:  193887870 now IPC :2.00669: AVG IPC :2.00617: L2-Pf-HR :0.96985: L2-HR :0.96793: (Sim:1h28m58s) 
CPU  0 inst:  390000001 cyc:  194381134 now IPC :2.02731: AVG IPC :2.00622: L2-Pf-HR :0.96987: L2-HR :0.96796: (Sim:1h29m6s) 
CPU  0 inst:  391000000 cyc:  195011833 now IPC :1.58554: AVG IPC :2.00485: L2-Pf-HR :0.96986: L2-HR :0.96790: (Sim:1h29m14s) 
CPU  0 inst:  392000002 cyc:  195543287 now IPC :1.88163: AVG IPC :2.00452: L2-Pf-HR :0.96983: L2-HR :0.96787: (Sim:1h29m22s) 
CPU  0 inst:  393000002 cyc:  196021187 now IPC :2.09249: AVG IPC :2.00473: L2-Pf-HR :0.96983: L2-HR :0.96787: (Sim:1h29m29s) 
CPU  0 inst:  394000005 cyc:  196495401 now IPC :2.10876: AVG IPC :2.00499: L2-Pf-HR :0.96983: L2-HR :0.96789: (Sim:1h29m37s) 
CPU  0 inst:  395000000 cyc:  196969633 now IPC :2.10866: AVG IPC :2.00524: L2-Pf-HR :0.96984: L2-HR :0.96790: (Sim:1h29m45s) 
CPU  0 inst:  396000004 cyc:  197441126 now IPC :2.12093: AVG IPC :2.00551: L2-Pf-HR :0.96984: L2-HR :0.96791: (Sim:1h29m53s) 
CPU  0 inst:  397000004 cyc:  197909814 now IPC :2.13362: AVG IPC :2.00582: L2-Pf-HR :0.96985: L2-HR :0.96793: (Sim:1h30m0s) 
CPU  0 inst:  398000004 cyc:  198379158 now IPC :2.13063: AVG IPC :2.00612: L2-Pf-HR :0.96986: L2-HR :0.96794: (Sim:1h30m8s) 
CPU  0 inst:  399000000 cyc:  198850762 now IPC :2.12041: AVG IPC :2.00639: L2-Pf-HR :0.96986: L2-HR :0.96796: (Sim:1h30m16s) 
CPU  0 inst:  400000000 cyc:  199321803 now IPC :2.12296: AVG IPC :2.00667: L2-Pf-HR :0.96987: L2-HR :0.96797: (Sim:1h30m23s) 
CPU  0 inst:  401000000 cyc:  199793572 now IPC :2.11968: AVG IPC :2.00693: L2-Pf-HR :0.96989: L2-HR :0.96800: (Sim:1h30m31s) 
CPU  0 inst:  402000002 cyc:  200263665 now IPC :2.12724: AVG IPC :2.00722: L2-Pf-HR :0.96994: L2-HR :0.96805: (Sim:1h30m39s) 
CPU  0 inst:  403000004 cyc:  200855061 now IPC :1.69092: AVG IPC :2.00628: L2-Pf-HR :0.96993: L2-HR :0.96801: (Sim:1h30m47s) 
CPU  0 inst:  404000005 cyc:  201332113 now IPC :2.09621: AVG IPC :2.00650: L2-Pf-HR :0.96992: L2-HR :0.96801: (Sim:1h30m54s) 
CPU  0 inst:  405000004 cyc:  201808417 now IPC :2.09950: AVG IPC :2.00672: L2-Pf-HR :0.96993: L2-HR :0.96803: (Sim:1h31m2s) 
CPU  0 inst:  406000005 cyc:  202285903 now IPC :2.09430: AVG IPC :2.00692: L2-Pf-HR :0.96994: L2-HR :0.96804: (Sim:1h31m10s) 
CPU  0 inst:  407000002 cyc:  202760896 now IPC :2.10529: AVG IPC :2.00716: L2-Pf-HR :0.96995: L2-HR :0.96806: (Sim:1h31m17s) 
CPU  0 inst:  408000005 cyc:  203241034 now IPC :2.08274: AVG IPC :2.00733: L2-Pf-HR :0.96996: L2-HR :0.96807: (Sim:1h31m25s) 
CPU  0 inst:  409000004 cyc:  203717621 now IPC :2.09825: AVG IPC :2.00755: L2-Pf-HR :0.96997: L2-HR :0.96809: (Sim:1h31m33s) 
CPU  0 inst:  410000002 cyc:  204191089 now IPC :2.11207: AVG IPC :2.00779: L2-Pf-HR :0.97000: L2-HR :0.96813: (Sim:1h31m40s) 
CPU  0 inst:  411000001 cyc:  204834395 now IPC :1.55447: AVG IPC :2.00636: L2-Pf-HR :0.96994: L2-HR :0.96802: (Sim:1h31m48s) 
CPU  0 inst:  412000000 cyc:  205342348 now IPC :1.96868: AVG IPC :2.00627: L2-Pf-HR :0.96991: L2-HR :0.96799: (Sim:1h31m56s) 
CPU  0 inst:  413000005 cyc:  205840209 now IPC :2.00860: AVG IPC :2.00627: L2-Pf-HR :0.96990: L2-HR :0.96799: (Sim:1h32m4s) 
CPU  0 inst:  414000001 cyc:  206331965 now IPC :2.03352: AVG IPC :2.00634: L2-Pf-HR :0.96990: L2-HR :0.96798: (Sim:1h32m12s) 
CPU  0 inst:  415000000 cyc:  206825693 now IPC :2.02540: AVG IPC :2.00638: L2-Pf-HR :0.96989: L2-HR :0.96798: (Sim:1h32m20s) 
CPU  0 inst:  416000005 cyc:  207316874 now IPC :2.03592: AVG IPC :2.00645: L2-Pf-HR :0.96988: L2-HR :0.96798: (Sim:1h32m27s) 
CPU  0 inst:  417000002 cyc:  207819970 now IPC :1.98769: AVG IPC :2.00641: L2-Pf-HR :0.96987: L2-HR :0.96797: (Sim:1h32m35s) 
CPU  0 inst:  418000000 cyc:  208322418 now IPC :1.99025: AVG IPC :2.00637: L2-Pf-HR :0.96986: L2-HR :0.96797: (Sim:1h32m43s) 
CPU  0 inst:  419000000 cyc:  208814162 now IPC :2.03358: AVG IPC :2.00643: L2-Pf-HR :0.96986: L2-HR :0.96797: (Sim:1h32m51s) 
CPU  0 inst:  420000001 cyc:  209312313 now IPC :2.00743: AVG IPC :2.00644: L2-Pf-HR :0.96986: L2-HR :0.96797: (Sim:1h32m59s) 
CPU  0 inst:  421000003 cyc:  209808554 now IPC :2.01515: AVG IPC :2.00646: L2-Pf-HR :0.96986: L2-HR :0.96798: (Sim:1h33m7s) 
CPU  0 inst:  422000003 cyc:  210309941 now IPC :1.99447: AVG IPC :2.00643: L2-Pf-HR :0.96990: L2-HR :0.96801: (Sim:1h33m14s) 
CPU  0 inst:  423000004 cyc:  210970642 now IPC :1.51355: AVG IPC :2.00488: L2-Pf-HR :0.96984: L2-HR :0.96791: (Sim:1h33m23s) 
CPU  0 inst:  424000002 cyc:  211453838 now IPC :2.06955: AVG IPC :2.00503: L2-Pf-HR :0.96984: L2-HR :0.96791: (Sim:1h33m30s) 
CPU  0 inst:  425000002 cyc:  211932539 now IPC :2.08899: AVG IPC :2.00522: L2-Pf-HR :0.96984: L2-HR :0.96792: (Sim:1h33m38s) 
CPU  0 inst:  426000002 cyc:  212410070 now IPC :2.09410: AVG IPC :2.00542: L2-Pf-HR :0.96985: L2-HR :0.96793: (Sim:1h33m46s) 
CPU  0 inst:  427000004 cyc:  212882917 now IPC :2.11485: AVG IPC :2.00566: L2-Pf-HR :0.96985: L2-HR :0.96794: (Sim:1h33m53s) 
CPU  0 inst:  428000004 cyc:  213356798 now IPC :2.11023: AVG IPC :2.00590: L2-Pf-HR :0.96985: L2-HR :0.96796: (Sim:1h34m1s) 
CPU  0 inst:  429000005 cyc:  213827341 now IPC :2.12521: AVG IPC :2.00616: L2-Pf-HR :0.96986: L2-HR :0.96797: (Sim:1h34m9s) 
CPU  0 inst:  430000003 cyc:  214299706 now IPC :2.11700: AVG IPC :2.00640: L2-Pf-HR :0.96986: L2-HR :0.96798: (Sim:1h34m16s) 
CPU  0 inst:  431000005 cyc:  214774894 now IPC :2.10443: AVG IPC :2.00662: L2-Pf-HR :0.96987: L2-HR :0.96800: (Sim:1h34m24s) 
CPU  0 inst:  432000003 cyc:  215251800 now IPC :2.09685: AVG IPC :2.00682: L2-Pf-HR :0.96988: L2-HR :0.96801: (Sim:1h34m32s) 
CPU  0 inst:  433000002 cyc:  215721958 now IPC :2.12694: AVG IPC :2.00709: L2-Pf-HR :0.96991: L2-HR :0.96805: (Sim:1h34m39s) 
CPU  0 inst:  434000003 cyc:  216192937 now IPC :2.12324: AVG IPC :2.00734: L2-Pf-HR :0.96997: L2-HR :0.96811: (Sim:1h34m47s) 
CPU  0 inst:  435000004 cyc:  216784939 now IPC :1.68919: AVG IPC :2.00647: L2-Pf-HR :0.96993: L2-HR :0.96804: (Sim:1h34m55s) 
CPU  0 inst:  436000000 cyc:  217261303 now IPC :2.09923: AVG IPC :2.00667: L2-Pf-HR :0.96993: L2-HR :0.96805: (Sim:1h35m2s) 
CPU  0 inst:  437000004 cyc:  217737187 now IPC :2.10136: AVG IPC :2.00688: L2-Pf-HR :0.96994: L2-HR :0.96806: (Sim:1h35m10s) 
CPU  0 inst:  438000001 cyc:  218213669 now IPC :2.09871: AVG IPC :2.00708: L2-Pf-HR :0.96994: L2-HR :0.96807: (Sim:1h35m17s) 
CPU  0 inst:  439000000 cyc:  218684909 now IPC :2.12206: AVG IPC :2.00733: L2-Pf-HR :0.96995: L2-HR :0.96808: (Sim:1h35m25s) 
CPU  0 inst:  440000004 cyc:  219158681 now IPC :2.11073: AVG IPC :2.00755: L2-Pf-HR :0.96995: L2-HR :0.96810: (Sim:1h35m32s) 
CPU  0 inst:  441000004 cyc:  219634074 now IPC :2.10352: AVG IPC :2.00776: L2-Pf-HR :0.96997: L2-HR :0.96812: (Sim:1h35m40s) 
CPU  0 inst:  442000003 cyc:  220155384 now IPC :1.91824: AVG IPC :2.00755: L2-Pf-HR :0.97000: L2-HR :0.96813: (Sim:1h35m48s) 
CPU  0 inst:  443000002 cyc:  220796882 now IPC :1.55885: AVG IPC :2.00624: L2-Pf-HR :0.96993: L2-HR :0.96803: (Sim:1h35m56s) 
CPU  0 inst:  444000005 cyc:  221299598 now IPC :1.98920: AVG IPC :2.00620: L2-Pf-HR :0.96991: L2-HR :0.96802: (Sim:1h36m3s) 
CPU  0 inst:  445000003 cyc:  221789761 now IPC :2.04013: AVG IPC :2.00628: L2-Pf-HR :0.96990: L2-HR :0.96802: (Sim:1h36m11s) 
CPU  0 inst:  446000001 cyc:  222288315 now IPC :2.00580: AVG IPC :2.00628: L2-Pf-HR :0.96989: L2-HR :0.96801: (Sim:1h36m19s) 
CPU  0 inst:  447000001 cyc:  222780949 now IPC :2.02990: AVG IPC :2.00633: L2-Pf-HR :0.96989: L2-HR :0.96801: (Sim:1h36m27s) 
CPU  0 inst:  448000000 cyc:  223284235 now IPC :1.98694: AVG IPC :2.00628: L2-Pf-HR :0.96988: L2-HR :0.96800: (Sim:1h36m34s) 
CPU  0 inst:  449000004 cyc:  223783966 now IPC :2.00108: AVG IPC :2.00627: L2-Pf-HR :0.96987: L2-HR :0.96800: (Sim:1h36m42s) 
CPU  0 inst:  450000001 cyc:  224270505 now IPC :2.05533: AVG IPC :2.00638: L2-Pf-HR :0.96987: L2-HR :0.96800: (Sim:1h36m50s) 
CPU  0 inst:  451000000 cyc:  224765386 now IPC :2.02069: AVG IPC :2.00641: L2-Pf-HR :0.96986: L2-HR :0.96800: (Sim:1h36m58s) 
CPU  0 inst:  452000000 cyc:  225257204 now IPC :2.03327: AVG IPC :2.00647: L2-Pf-HR :0.96986: L2-HR :0.96800: (Sim:1h37m6s) 
CPU  0 inst:  453000004 cyc:  225761163 now IPC :1.98430: AVG IPC :2.00642: L2-Pf-HR :0.96988: L2-HR :0.96802: (Sim:1h37m13s) 
CPU  0 inst:  454000003 cyc:  226348192 now IPC :1.70349: AVG IPC :2.00563: L2-Pf-HR :0.96989: L2-HR :0.96799: (Sim:1h37m22s) 
CPU  0 inst:  455000005 cyc:  226907800 now IPC :1.78697: AVG IPC :2.00509: L2-Pf-HR :0.96985: L2-HR :0.96794: (Sim:1h37m30s) 
CPU  0 inst:  456000005 cyc:  227388922 now IPC :2.07847: AVG IPC :2.00525: L2-Pf-HR :0.96985: L2-HR :0.96795: (Sim:1h37m37s) 
CPU  0 inst:  457000000 cyc:  227867656 now IPC :2.08883: AVG IPC :2.00542: L2-Pf-HR :0.96985: L2-HR :0.96796: (Sim:1h37m45s) 
CPU  0 inst:  458000004 cyc:  228340780 now IPC :2.11362: AVG IPC :2.00565: L2-Pf-HR :0.96985: L2-HR :0.96797: (Sim:1h37m53s) 
CPU  0 inst:  459000004 cyc:  228813278 now IPC :2.11641: AVG IPC :2.00588: L2-Pf-HR :0.96986: L2-HR :0.96798: (Sim:1h38m0s) 
CPU  0 inst:  460000003 cyc:  229285262 now IPC :2.11871: AVG IPC :2.00611: L2-Pf-HR :0.96987: L2-HR :0.96800: (Sim:1h38m8s) 
CPU  0 inst:  461000003 cyc:  229761231 now IPC :2.10098: AVG IPC :2.00631: L2-Pf-HR :0.96988: L2-HR :0.96801: (Sim:1h38m16s) 
CPU  0 inst:  462000004 cyc:  230236293 now IPC :2.10499: AVG IPC :2.00651: L2-Pf-HR :0.96988: L2-HR :0.96802: (Sim:1h38m23s) 
CPU  0 inst:  463000002 cyc:  230709011 now IPC :2.11542: AVG IPC :2.00674: L2-Pf-HR :0.96989: L2-HR :0.96803: (Sim:1h38m31s) 
CPU  0 inst:  464000002 cyc:  231178478 now IPC :2.13008: AVG IPC :2.00699: L2-Pf-HR :0.96990: L2-HR :0.96805: (Sim:1h38m38s) 
CPU  0 inst:  465000002 cyc:  231647334 now IPC :2.13285: AVG IPC :2.00724: L2-Pf-HR :0.96994: L2-HR :0.96809: (Sim:1h38m46s) 
CPU  0 inst:  466000004 cyc:  232236133 now IPC :1.69838: AVG IPC :2.00646: L2-Pf-HR :0.96994: L2-HR :0.96806: (Sim:1h38m54s) 
CPU  0 inst:  467000001 cyc:  232724076 now IPC :2.04941: AVG IPC :2.00655: L2-Pf-HR :0.96993: L2-HR :0.96806: (Sim:1h39m2s) 
CPU  0 inst:  468000000 cyc:  233196067 now IPC :2.11868: AVG IPC :2.00678: L2-Pf-HR :0.96994: L2-HR :0.96807: (Sim:1h39m9s) 
CPU  0 inst:  469000004 cyc:  233669819 now IPC :2.11082: AVG IPC :2.00699: L2-Pf-HR :0.96994: L2-HR :0.96809: (Sim:1h39m17s) 
CPU  0 inst:  470000000 cyc:  234149404 now IPC :2.08513: AVG IPC :2.00715: L2-Pf-HR :0.96995: L2-HR :0.96810: (Sim:1h39m25s) 
CPU  0 inst:  471000000 cyc:  234624239 now IPC :2.10599: AVG IPC :2.00735: L2-Pf-HR :0.96996: L2-HR :0.96811: (Sim:1h39m32s) 
CPU  0 inst:  472000003 cyc:  235096292 now IPC :2.11841: AVG IPC :2.00757: L2-Pf-HR :0.96996: L2-HR :0.96813: (Sim:1h39m40s) 
CPU  0 inst:  473000001 cyc:  235569313 now IPC :2.11407: AVG IPC :2.00779: L2-Pf-HR :0.96999: L2-HR :0.96816: (Sim:1h39m48s) 
CPU  0 inst:  474000000 cyc:  236217118 now IPC :1.54367: AVG IPC :2.00651: L2-Pf-HR :0.96994: L2-HR :0.96807: (Sim:1h39m56s) 
CPU  0 inst:  475000000 cyc:  236739985 now IPC :1.91253: AVG IPC :2.00630: L2-Pf-HR :0.96993: L2-HR :0.96805: (Sim:1h40m4s) 
CPU  0 inst:  476000005 cyc:  237231438 now IPC :2.03479: AVG IPC :2.00636: L2-Pf-HR :0.96992: L2-HR :0.96804: (Sim:1h40m12s) 
CPU  0 inst:  477000001 cyc:  237730711 now IPC :2.00290: AVG IPC :2.00635: L2-Pf-HR :0.96991: L2-HR :0.96804: (Sim:1h40m19s) 
CPU  0 inst:  478000000 cyc:  238216080 now IPC :2.06029: AVG IPC :2.00646: L2-Pf-HR :0.96991: L2-HR :0.96804: (Sim:1h40m27s) 
CPU  0 inst:  479000002 cyc:  238713433 now IPC :2.01065: AVG IPC :2.00647: L2-Pf-HR :0.96989: L2-HR :0.96803: (Sim:1h40m35s) 
CPU  0 inst:  480000001 cyc:  239212941 now IPC :2.00197: AVG IPC :2.00646: L2-Pf-HR :0.96988: L2-HR :0.96802: (Sim:1h40m43s) 
CPU  0 inst:  481000000 cyc:  239696854 now IPC :2.06649: AVG IPC :2.00658: L2-Pf-HR :0.96989: L2-HR :0.96803: (Sim:1h40m50s) 
CPU  0 inst:  482000005 cyc:  240194290 now IPC :2.01032: AVG IPC :2.00659: L2-Pf-HR :0.96988: L2-HR :0.96803: (Sim:1h40m58s) 
CPU  0 inst:  483000001 cyc:  240686045 now IPC :2.03352: AVG IPC :2.00665: L2-Pf-HR :0.96988: L2-HR :0.96803: (Sim:1h41m6s) 
CPU  0 inst:  484000001 cyc:  241191012 now IPC :1.98033: AVG IPC :2.00659: L2-Pf-HR :0.96988: L2-HR :0.96803: (Sim:1h41m14s) 
CPU  0 inst:  485000002 cyc:  241691580 now IPC :1.99773: AVG IPC :2.00657: L2-Pf-HR :0.96991: L2-HR :0.96805: (Sim:1h41m21s) 
CPU  0 inst:  486000004 cyc:  242347360 now IPC :1.52490: AVG IPC :2.00527: L2-Pf-HR :0.96987: L2-HR :0.96797: (Sim:1h41m29s) 
CPU  0 inst:  487000005 cyc:  242838024 now IPC :2.03806: AVG IPC :2.00533: L2-Pf-HR :0.96986: L2-HR :0.96797: (Sim:1h41m37s) 
CPU  0 inst:  488000004 cyc:  243316431 now IPC :2.09027: AVG IPC :2.00550: L2-Pf-HR :0.96986: L2-HR :0.96798: (Sim:1h41m45s) 
CPU  0 inst:  489000000 cyc:  243790129 now IPC :2.11104: AVG IPC :2.00571: L2-Pf-HR :0.96986: L2-HR :0.96799: (Sim:1h41m52s) 
CPU  0 inst:  490000002 cyc:  244262174 now IPC :2.11845: AVG IPC :2.00592: L2-Pf-HR :0.96987: L2-HR :0.96800: (Sim:1h42m0s) 
CPU  0 inst:  491000003 cyc:  244736628 now IPC :2.10769: AVG IPC :2.00612: L2-Pf-HR :0.96988: L2-HR :0.96801: (Sim:1h42m8s) 
CPU  0 inst:  492000003 cyc:  245214472 now IPC :2.09273: AVG IPC :2.00629: L2-Pf-HR :0.96988: L2-HR :0.96802: (Sim:1h42m15s) 
CPU  0 inst:  493000003 cyc:  245690766 now IPC :2.09954: AVG IPC :2.00647: L2-Pf-HR :0.96989: L2-HR :0.96803: (Sim:1h42m23s) 
CPU  0 inst:  494000000 cyc:  246168899 now IPC :2.09146: AVG IPC :2.00664: L2-Pf-HR :0.96990: L2-HR :0.96805: (Sim:1h42m31s) 
CPU  0 inst:  495000005 cyc:  246642891 now IPC :2.10975: AVG IPC :2.00684: L2-Pf-HR :0.96991: L2-HR :0.96807: (Sim:1h42m38s) 
CPU  0 inst:  496000002 cyc:  247115949 now IPC :2.11390: AVG IPC :2.00704: L2-Pf-HR :0.96992: L2-HR :0.96809: (Sim:1h42m46s) 
CPU  0 inst:  497000004 cyc:  247586857 now IPC :2.12356: AVG IPC :2.00727: L2-Pf-HR :0.96997: L2-HR :0.96814: (Sim:1h42m54s) 
CPU  0 inst:  498000000 cyc:  248188657 now IPC :1.66167: AVG IPC :2.00642: L2-Pf-HR :0.96994: L2-HR :0.96808: (Sim:1h43m2s) 
CPU  0 inst:  499000005 cyc:  248666859 now IPC :2.09118: AVG IPC :2.00659: L2-Pf-HR :0.96995: L2-HR :0.96809: (Sim:1h43m9s) 
CPU  0 inst:  500000000 cyc:  249144373 now IPC :2.09417: AVG IPC :2.00676: L2-Pf-HR :0.96995: L2-HR :0.96810: (Sim:1h43m17s) 
CPU  0 inst:  501000002 cyc:  249617981 now IPC :2.11145: AVG IPC :2.00696: L2-Pf-HR :0.96995: L2-HR :0.96811: (Sim:1h43m24s) 
CPU  0 inst:  502000000 cyc:  250088433 now IPC :2.12561: AVG IPC :2.00718: L2-Pf-HR :0.96996: L2-HR :0.96812: (Sim:1h43m32s) 
CPU  0 inst:  503000000 cyc:  250566369 now IPC :2.09233: AVG IPC :2.00734: L2-Pf-HR :0.96997: L2-HR :0.96814: (Sim:1h43m39s) 
CPU  0 inst:  504000003 cyc:  251042314 now IPC :2.10109: AVG IPC :2.00752: L2-Pf-HR :0.96998: L2-HR :0.96815: (Sim:1h43m47s) 
CPU  0 inst:  505000004 cyc:  251515350 now IPC :2.11401: AVG IPC :2.00772: L2-Pf-HR :0.97002: L2-HR :0.96820: (Sim:1h43m54s) 
CPU  0 inst:  506000004 cyc:  255832113 now IPC :0.23166: AVG IPC :1.97764: L2-Pf-HR :0.96920: L2-HR :0.96596: (Sim:1h44m14s) 
CPU  0 inst:  507000000 cyc:  260811639 now IPC :0.20082: AVG IPC :1.94359: L2-Pf-HR :0.96833: L2-HR :0.96349: (Sim:1h44m37s) 
CPU  0 inst:  508000005 cyc:  265952295 now IPC :0.19453: AVG IPC :1.90965: L2-Pf-HR :0.96745: L2-HR :0.96105: (Sim:1h45m0s) 
CPU  0 inst:  509000004 cyc:  271082614 now IPC :0.19492: AVG IPC :1.87708: L2-Pf-HR :0.96657: L2-HR :0.95863: (Sim:1h45m22s) 
CPU  0 inst:  510000000 cyc:  276217050 now IPC :0.19476: AVG IPC :1.84570: L2-Pf-HR :0.96570: L2-HR :0.95624: (Sim:1h45m45s) 
CPU  0 inst:  511000005 cyc:  281234140 now IPC :0.19932: AVG IPC :1.81623: L2-Pf-HR :0.96468: L2-HR :0.95388: (Sim:1h46m9s) 
CPU  0 inst:  512000004 cyc:  286246242 now IPC :0.19952: AVG IPC :1.78782: L2-Pf-HR :0.96353: L2-HR :0.95156: (Sim:1h46m33s) 
CPU  0 inst:  513000003 cyc:  291261659 now IPC :0.19939: AVG IPC :1.76038: L2-Pf-HR :0.96238: L2-HR :0.94926: (Sim:1h46m56s) 
CPU  0 inst:  514000002 cyc:  296278126 now IPC :0.19934: AVG IPC :1.73386: L2-Pf-HR :0.96124: L2-HR :0.94699: (Sim:1h47m20s) 
CPU  0 inst:  515000001 cyc:  300512114 now IPC :0.23618: AVG IPC :1.71269: L2-Pf-HR :0.96047: L2-HR :0.94554: (Sim:1h47m40s) 
CPU  0 inst:  516000004 cyc:  303783738 now IPC :0.30566: AVG IPC :1.69748: L2-Pf-HR :0.96027: L2-HR :0.94522: (Sim:1h47m56s) 
CPU  0 inst:  517000004 cyc:  307052985 now IPC :0.30588: AVG IPC :1.68262: L2-Pf-HR :0.96006: L2-HR :0.94490: (Sim:1h48m11s) 
CPU  0 inst:  518000000 cyc:  310322121 now IPC :0.30589: AVG IPC :1.66807: L2-Pf-HR :0.95986: L2-HR :0.94458: (Sim:1h48m26s) 
CPU  0 inst:  519000003 cyc:  313591084 now IPC :0.30591: AVG IPC :1.65383: L2-Pf-HR :0.95965: L2-HR :0.94427: (Sim:1h48m42s) 
CPU  0 inst:  520000002 cyc:  316860508 now IPC :0.30586: AVG IPC :1.63988: L2-Pf-HR :0.95945: L2-HR :0.94395: (Sim:1h48m57s) 
CPU  0 inst:  521000000 cyc:  320129135 now IPC :0.30594: AVG IPC :1.62621: L2-Pf-HR :0.95924: L2-HR :0.94363: (Sim:1h49m13s) 
CPU  0 inst:  522000005 cyc:  323399679 now IPC :0.30576: AVG IPC :1.61282: L2-Pf-HR :0.95904: L2-HR :0.94332: (Sim:1h49m28s) 
CPU  0 inst:  523000005 cyc:  326669205 now IPC :0.30585: AVG IPC :1.59970: L2-Pf-HR :0.95884: L2-HR :0.94301: (Sim:1h49m43s) 
CPU  0 inst:  524000002 cyc:  329935992 now IPC :0.30611: AVG IPC :1.58685: L2-Pf-HR :0.95863: L2-HR :0.94269: (Sim:1h49m58s) 
CPU  0 inst:  525000000 cyc:  333201418 now IPC :0.30624: AVG IPC :1.57426: L2-Pf-HR :0.95843: L2-HR :0.94238: (Sim:1h50m14s) 
CPU  0 inst:  526000000 cyc:  336467867 now IPC :0.30614: AVG IPC :1.56192: L2-Pf-HR :0.95823: L2-HR :0.94207: (Sim:1h50m29s) 
CPU  0 inst:  527000000 cyc:  339734222 now IPC :0.30615: AVG IPC :1.54981: L2-Pf-HR :0.95803: L2-HR :0.94176: (Sim:1h50m44s) 
CPU  0 inst:  528000002 cyc:  343000912 now IPC :0.30612: AVG IPC :1.53793: L2-Pf-HR :0.95783: L2-HR :0.94145: (Sim:1h51m0s) 
CPU  0 inst:  529000000 cyc:  346268542 now IPC :0.30603: AVG IPC :1.52627: L2-Pf-HR :0.95763: L2-HR :0.94114: (Sim:1h51m15s) 
CPU  0 inst:  530000001 cyc:  349535718 now IPC :0.30608: AVG IPC :1.51483: L2-Pf-HR :0.95743: L2-HR :0.94084: (Sim:1h51m30s) 
CPU  0 inst:  531000000 cyc:  352801910 now IPC :0.30617: AVG IPC :1.50361: L2-Pf-HR :0.95723: L2-HR :0.94053: (Sim:1h51m46s) 
CPU  0 inst:  532000002 cyc:  356067203 now IPC :0.30625: AVG IPC :1.49260: L2-Pf-HR :0.95704: L2-HR :0.94022: (Sim:1h52m1s) 
CPU  0 inst:  533000004 cyc:  359331806 now IPC :0.30632: AVG IPC :1.48180: L2-Pf-HR :0.95684: L2-HR :0.93992: (Sim:1h52m16s) 
CPU  0 inst:  534000004 cyc:  362596774 now IPC :0.30628: AVG IPC :1.47118: L2-Pf-HR :0.95664: L2-HR :0.93961: (Sim:1h52m32s) 
CPU  0 inst:  535000000 cyc:  365862270 now IPC :0.30623: AVG IPC :1.46076: L2-Pf-HR :0.95644: L2-HR :0.93931: (Sim:1h52m47s) 
CPU  0 inst:  536000005 cyc:  369128531 now IPC :0.30616: AVG IPC :1.45051: L2-Pf-HR :0.95625: L2-HR :0.93900: (Sim:1h53m3s) 
CPU  0 inst:  537000005 cyc:  372394468 now IPC :0.30619: AVG IPC :1.44045: L2-Pf-HR :0.95605: L2-HR :0.93870: (Sim:1h53m18s) 
CPU  0 inst:  538000004 cyc:  375661447 now IPC :0.30609: AVG IPC :1.43056: L2-Pf-HR :0.95585: L2-HR :0.93840: (Sim:1h53m33s) 
CPU  0 inst:  539000000 cyc:  378927721 now IPC :0.30616: AVG IPC :1.42084: L2-Pf-HR :0.95566: L2-HR :0.93809: (Sim:1h53m49s) 
CPU  0 inst:  540000003 cyc:  382192959 now IPC :0.30626: AVG IPC :1.41130: L2-Pf-HR :0.95546: L2-HR :0.93779: (Sim:1h54m4s) 
CPU  0 inst:  541000002 cyc:  385458042 now IPC :0.30627: AVG IPC :1.40191: L2-Pf-HR :0.95527: L2-HR :0.93749: (Sim:1h54m20s) 
CPU  0 inst:  542000000 cyc:  388723987 now IPC :0.30619: AVG IPC :1.39268: L2-Pf-HR :0.95507: L2-HR :0.93719: (Sim:1h54m35s) 
CPU  0 inst:  543000000 cyc:  391989248 now IPC :0.30625: AVG IPC :1.38361: L2-Pf-HR :0.95488: L2-HR :0.93689: (Sim:1h54m51s) 
CPU  0 inst:  544000002 cyc:  395256766 now IPC :0.30604: AVG IPC :1.37468: L2-Pf-HR :0.95468: L2-HR :0.93659: (Sim:1h55m6s) 
CPU  0 inst:  545000001 cyc:  398524631 now IPC :0.30601: AVG IPC :1.36589: L2-Pf-HR :0.95449: L2-HR :0.93630: (Sim:1h55m21s) 
CPU  0 inst:  546000000 cyc:  401790558 now IPC :0.30619: AVG IPC :1.35726: L2-Pf-HR :0.95429: L2-HR :0.93600: (Sim:1h55m36s) 
CPU  0 inst:  547000000 cyc:  405054584 now IPC :0.30637: AVG IPC :1.34877: L2-Pf-HR :0.95410: L2-HR :0.93570: (Sim:1h55m51s) 
CPU  0 inst:  548000000 cyc:  408319509 now IPC :0.30629: AVG IPC :1.34041: L2-Pf-HR :0.95391: L2-HR :0.93541: (Sim:1h56m6s) 
CPU  0 inst:  549000002 cyc:  411584459 now IPC :0.30628: AVG IPC :1.33219: L2-Pf-HR :0.95372: L2-HR :0.93511: (Sim:1h56m33s) 
CPU  0 inst:  550000004 cyc:  414849790 now IPC :0.30625: AVG IPC :1.32410: L2-Pf-HR :0.95352: L2-HR :0.93482: (Sim:1h57m8s) 
CPU  0 inst:  551000002 cyc:  418115878 now IPC :0.30618: AVG IPC :1.31613: L2-Pf-HR :0.95333: L2-HR :0.93452: (Sim:1h57m42s) 
CPU  0 inst:  552000004 cyc:  421383779 now IPC :0.30601: AVG IPC :1.30827: L2-Pf-HR :0.95314: L2-HR :0.93423: (Sim:1h58m16s) 
CPU  0 inst:  553000000 cyc:  424650494 now IPC :0.30612: AVG IPC :1.30055: L2-Pf-HR :0.95295: L2-HR :0.93394: (Sim:1h58m50s) 
CPU  0 inst:  554000004 cyc:  427916066 now IPC :0.30623: AVG IPC :1.29294: L2-Pf-HR :0.95276: L2-HR :0.93364: (Sim:1h59m25s) 
CPU  0 inst:  555000004 cyc:  431181293 now IPC :0.30626: AVG IPC :1.28545: L2-Pf-HR :0.95257: L2-HR :0.93335: (Sim:1h59m59s) 
CPU  0 inst:  556000000 cyc:  434445811 now IPC :0.30632: AVG IPC :1.27808: L2-Pf-HR :0.95238: L2-HR :0.93306: (Sim:2h0m34s) 
CPU  0 inst:  557000003 cyc:  437711541 now IPC :0.30621: AVG IPC :1.27081: L2-Pf-HR :0.95219: L2-HR :0.93277: (Sim:2h1m8s) 
CPU  0 inst:  558000002 cyc:  440978280 now IPC :0.30612: AVG IPC :1.26365: L2-Pf-HR :0.95200: L2-HR :0.93248: (Sim:2h1m42s) 
CPU  0 inst:  559000001 cyc:  444244750 now IPC :0.30614: AVG IPC :1.25659: L2-Pf-HR :0.95181: L2-HR :0.93219: (Sim:2h2m17s) 
CPU  0 inst:  560000001 cyc:  447511732 now IPC :0.30609: AVG IPC :1.24964: L2-Pf-HR :0.95162: L2-HR :0.93190: (Sim:2h2m51s) 
CPU  0 inst:  561000003 cyc:  450777945 now IPC :0.30617: AVG IPC :1.24279: L2-Pf-HR :0.95143: L2-HR :0.93161: (Sim:2h3m26s) 
CPU  0 inst:  562000002 cyc:  454044467 now IPC :0.30614: AVG IPC :1.23603: L2-Pf-HR :0.95124: L2-HR :0.93132: (Sim:2h4m0s) 
CPU  0 inst:  563000000 cyc:  457309244 now IPC :0.30630: AVG IPC :1.22938: L2-Pf-HR :0.95106: L2-HR :0.93104: (Sim:2h4m34s) 
CPU  0 inst:  564000000 cyc:  460575506 now IPC :0.30616: AVG IPC :1.22282: L2-Pf-HR :0.95087: L2-HR :0.93075: (Sim:2h5m8s) 
CPU  0 inst:  565000000 cyc:  463840595 now IPC :0.30627: AVG IPC :1.21636: L2-Pf-HR :0.95068: L2-HR :0.93047: (Sim:2h5m43s) 
CPU  0 inst:  566000001 cyc:  467106573 now IPC :0.30619: AVG IPC :1.20998: L2-Pf-HR :0.95049: L2-HR :0.93018: (Sim:2h6m17s) 
CPU  0 inst:  567000005 cyc:  470374558 now IPC :0.30600: AVG IPC :1.20369: L2-Pf-HR :0.95031: L2-HR :0.92990: (Sim:2h6m52s) 
CPU  0 inst:  568000000 cyc:  473641907 now IPC :0.30606: AVG IPC :1.19748: L2-Pf-HR :0.95012: L2-HR :0.92961: (Sim:2h7m26s) 
CPU  0 inst:  569000000 cyc:  476908803 now IPC :0.30610: AVG IPC :1.19136: L2-Pf-HR :0.94993: L2-HR :0.92933: (Sim:2h8m0s) 
CPU  0 inst:  570000002 cyc:  480174379 now IPC :0.30623: AVG IPC :1.18533: L2-Pf-HR :0.94975: L2-HR :0.92905: (Sim:2h8m35s) 
CPU  0 inst:  571000004 cyc:  483439926 now IPC :0.30623: AVG IPC :1.17938: L2-Pf-HR :0.94956: L2-HR :0.92876: (Sim:2h9m9s) 
CPU  0 inst:  572000004 cyc:  486705280 now IPC :0.30625: AVG IPC :1.17351: L2-Pf-HR :0.94938: L2-HR :0.92848: (Sim:2h9m44s) 
CPU  0 inst:  573000000 cyc:  489971253 now IPC :0.30619: AVG IPC :1.16772: L2-Pf-HR :0.94919: L2-HR :0.92820: (Sim:2h10m18s) 
CPU  0 inst:  574000000 cyc:  493237501 now IPC :0.30616: AVG IPC :1.16200: L2-Pf-HR :0.94901: L2-HR :0.92792: (Sim:2h10m52s) 
CPU  0 inst:  575000001 cyc:  496505330 now IPC :0.30601: AVG IPC :1.15636: L2-Pf-HR :0.94883: L2-HR :0.92764: (Sim:2h11m27s) 
CPU  0 inst:  576000004 cyc:  499770761 now IPC :0.30624: AVG IPC :1.15079: L2-Pf-HR :0.94864: L2-HR :0.92736: (Sim:2h12m1s) 
CPU  0 inst:  577000000 cyc:  503036437 now IPC :0.30621: AVG IPC :1.14530: L2-Pf-HR :0.94846: L2-HR :0.92708: (Sim:2h12m36s) 
CPU  0 inst:  578000003 cyc:  506303094 now IPC :0.30612: AVG IPC :1.13987: L2-Pf-HR :0.94827: L2-HR :0.92680: (Sim:2h13m10s) 
CPU  0 inst:  579000002 cyc:  509568405 now IPC :0.30625: AVG IPC :1.13452: L2-Pf-HR :0.94809: L2-HR :0.92653: (Sim:2h13m44s) 
CPU  0 inst:  580000000 cyc:  512832903 now IPC :0.30633: AVG IPC :1.12924: L2-Pf-HR :0.94791: L2-HR :0.92625: (Sim:2h14m18s) 
CPU  0 inst:  581000000 cyc:  516097838 now IPC :0.30628: AVG IPC :1.12402: L2-Pf-HR :0.94773: L2-HR :0.92597: (Sim:2h14m53s) 
CPU  0 inst:  582000005 cyc:  519366036 now IPC :0.30598: AVG IPC :1.11886: L2-Pf-HR :0.94755: L2-HR :0.92570: (Sim:2h15m27s) 
CPU  0 inst:  583000002 cyc:  522630725 now IPC :0.30631: AVG IPC :1.11378: L2-Pf-HR :0.94737: L2-HR :0.92542: (Sim:2h16m1s) 
CPU  0 inst:  584000000 cyc:  525896149 now IPC :0.30624: AVG IPC :1.10875: L2-Pf-HR :0.94718: L2-HR :0.92515: (Sim:2h16m36s) 
CPU  0 inst:  585000000 cyc:  529161699 now IPC :0.30623: AVG IPC :1.10379: L2-Pf-HR :0.94700: L2-HR :0.92487: (Sim:2h16m58s) 
CPU  0 inst:  586000000 cyc:  532426918 now IPC :0.30626: AVG IPC :1.09889: L2-Pf-HR :0.94682: L2-HR :0.92460: (Sim:2h17m15s) 
CPU  0 inst:  587000002 cyc:  535692720 now IPC :0.30620: AVG IPC :1.09405: L2-Pf-HR :0.94664: L2-HR :0.92433: (Sim:2h17m40s) 
CPU  0 inst:  588000004 cyc:  538957808 now IPC :0.30627: AVG IPC :1.08927: L2-Pf-HR :0.94646: L2-HR :0.92405: (Sim:2h18m16s) 
CPU  0 inst:  589000002 cyc:  542224973 now IPC :0.30608: AVG IPC :1.08454: L2-Pf-HR :0.94628: L2-HR :0.92378: (Sim:2h18m52s) 
CPU  0 inst:  590000001 cyc:  545493673 now IPC :0.30593: AVG IPC :1.07987: L2-Pf-HR :0.94610: L2-HR :0.92351: (Sim:2h19m27s) 
CPU  0 inst:  591000002 cyc:  548759315 now IPC :0.30622: AVG IPC :1.07526: L2-Pf-HR :0.94592: L2-HR :0.92324: (Sim:2h20m2s) 
CPU  0 inst:  592000004 cyc:  552025904 now IPC :0.30613: AVG IPC :1.07070: L2-Pf-HR :0.94574: L2-HR :0.92297: (Sim:2h20m38s) 
CPU  0 inst:  593000004 cyc:  555291309 now IPC :0.30624: AVG IPC :1.06619: L2-Pf-HR :0.94556: L2-HR :0.92270: (Sim:2h21m13s) 
CPU  0 inst:  594000000 cyc:  558556304 now IPC :0.30628: AVG IPC :1.06174: L2-Pf-HR :0.94539: L2-HR :0.92243: (Sim:2h21m48s) 
CPU  0 inst:  595000003 cyc:  561820825 now IPC :0.30632: AVG IPC :1.05735: L2-Pf-HR :0.94521: L2-HR :0.92216: (Sim:2h22m23s) 
CPU  0 inst:  596000002 cyc:  565088561 now IPC :0.30602: AVG IPC :1.05299: L2-Pf-HR :0.94503: L2-HR :0.92189: (Sim:2h22m59s) 
CPU  0 inst:  597000003 cyc:  568356422 now IPC :0.30601: AVG IPC :1.04869: L2-Pf-HR :0.94485: L2-HR :0.92162: (Sim:2h23m34s) 
CPU  0 inst:  598000000 cyc:  571621423 now IPC :0.30628: AVG IPC :1.04444: L2-Pf-HR :0.94468: L2-HR :0.92136: (Sim:2h24m9s) 
CPU  0 inst:  599000003 cyc:  574886850 now IPC :0.30624: AVG IPC :1.04024: L2-Pf-HR :0.94450: L2-HR :0.92109: (Sim:2h24m45s) 
CPU  0 inst:  600000002 cyc:  578152867 now IPC :0.30618: AVG IPC :1.03609: L2-Pf-HR :0.94432: L2-HR :0.92083: (Sim:2h25m20s) 
CPU  0 inst:  601000000 cyc:  581418043 now IPC :0.30626: AVG IPC :1.03198: L2-Pf-HR :0.94415: L2-HR :0.92056: (Sim:2h25m55s) 
CPU  0 inst:  602000000 cyc:  584683210 now IPC :0.30626: AVG IPC :1.02792: L2-Pf-HR :0.94397: L2-HR :0.92030: (Sim:2h26m30s) 
CPU  0 inst:  603000001 cyc:  587948278 now IPC :0.30627: AVG IPC :1.02391: L2-Pf-HR :0.94379: L2-HR :0.92003: (Sim:2h27m5s) 
CPU  0 inst:  604000005 cyc:  591215336 now IPC :0.30609: AVG IPC :1.01994: L2-Pf-HR :0.94362: L2-HR :0.91977: (Sim:2h27m41s) 
CPU  0 inst:  605000001 cyc:  594483189 now IPC :0.30601: AVG IPC :1.01601: L2-Pf-HR :0.94344: L2-HR :0.91950: (Sim:2h28m16s) 
CPU  0 inst:  606000000 cyc:  597750072 now IPC :0.30610: AVG IPC :1.01212: L2-Pf-HR :0.94327: L2-HR :0.91924: (Sim:2h28m52s) 
CPU  0 inst:  607000000 cyc:  601016638 now IPC :0.30613: AVG IPC :1.00828: L2-Pf-HR :0.94309: L2-HR :0.91898: (Sim:2h29m27s) 
CPU  0 inst:  608000002 cyc:  604282461 now IPC :0.30620: AVG IPC :1.00448: L2-Pf-HR :0.94292: L2-HR :0.91872: (Sim:2h30m2s) 
CPU  0 inst:  609000004 cyc:  607548096 now IPC :0.30622: AVG IPC :1.00072: L2-Pf-HR :0.94274: L2-HR :0.91845: (Sim:2h30m38s) 
CPU  0 inst:  610000004 cyc:  610813346 now IPC :0.30626: AVG IPC :0.99700: L2-Pf-HR :0.94257: L2-HR :0.91819: (Sim:2h31m13s) 
CPU  0 inst:  611000001 cyc:  614079174 now IPC :0.30620: AVG IPC :0.99332: L2-Pf-HR :0.94240: L2-HR :0.91793: (Sim:2h31m48s) 
CPU  0 inst:  612000001 cyc:  617346364 now IPC :0.30607: AVG IPC :0.98968: L2-Pf-HR :0.94223: L2-HR :0.91767: (Sim:2h32m24s) 
CPU  0 inst:  613000004 cyc:  620612586 now IPC :0.30617: AVG IPC :0.98607: L2-Pf-HR :0.94205: L2-HR :0.91741: (Sim:2h32m59s) 
CPU  0 inst:  614000004 cyc:  623878905 now IPC :0.30616: AVG IPC :0.98251: L2-Pf-HR :0.94188: L2-HR :0.91716: (Sim:2h33m35s) 
CPU  0 inst:  615000000 cyc:  627145725 now IPC :0.30611: AVG IPC :0.97898: L2-Pf-HR :0.94171: L2-HR :0.91690: (Sim:2h34m10s) 
CPU  0 inst:  616000003 cyc:  630411314 now IPC :0.30622: AVG IPC :0.97549: L2-Pf-HR :0.94153: L2-HR :0.91664: (Sim:2h34m45s) 
CPU  0 inst:  617000002 cyc:  633676725 now IPC :0.30624: AVG IPC :0.97203: L2-Pf-HR :0.94136: L2-HR :0.91638: (Sim:2h35m21s) 
CPU  0 inst:  618000000 cyc:  636942443 now IPC :0.30621: AVG IPC :0.96861: L2-Pf-HR :0.94119: L2-HR :0.91612: (Sim:2h35m56s) 
CPU  0 inst:  619000005 cyc:  640209894 now IPC :0.30605: AVG IPC :0.96523: L2-Pf-HR :0.94102: L2-HR :0.91587: (Sim:2h36m32s) 
CPU  0 inst:  620000005 cyc:  643477526 now IPC :0.30603: AVG IPC :0.96188: L2-Pf-HR :0.94085: L2-HR :0.91561: (Sim:2h37m7s) 
CPU  0 inst:  621000002 cyc:  646743039 now IPC :0.30623: AVG IPC :0.95856: L2-Pf-HR :0.94068: L2-HR :0.91536: (Sim:2h37m42s) 
CPU  0 inst:  622000000 cyc:  650008426 now IPC :0.30624: AVG IPC :0.95528: L2-Pf-HR :0.94051: L2-HR :0.91510: (Sim:2h38m18s) 
CPU  0 inst:  623000000 cyc:  653274112 now IPC :0.30621: AVG IPC :0.95203: L2-Pf-HR :0.94034: L2-HR :0.91485: (Sim:2h38m53s) 
CPU  0 inst:  624000000 cyc:  656539774 now IPC :0.30622: AVG IPC :0.94881: L2-Pf-HR :0.94017: L2-HR :0.91460: (Sim:2h39m29s) 
[...]
CPU  0 inst: 1063000000 cyc:  923443778 now IPC :1.95598: AVG IPC :1.15018: L2-Pf-HR :0.95165: L2-HR :0.93245: (Sim:4h24m18s) 
CPU  0 inst: 1064000003 cyc:  923903038 now IPC :2.17742: AVG IPC :1.15070: L2-Pf-HR :0.95168: L2-HR :0.93249: (Sim:4h24m25s) 
CPU  0 inst: 1065000004 cyc:  924348762 now IPC :2.24354: AVG IPC :1.15122: L2-Pf-HR :0.95173: L2-HR :0.93255: (Sim:4h24m32s) 
CPU  0 inst: 1066000000 cyc:  924854056 now IPC :1.97904: AVG IPC :1.15168: L2-Pf-HR :0.95174: L2-HR :0.93258: (Sim:4h24m39s) 
CPU  0 inst: 1067000003 cyc:  925382876 now IPC :1.89101: AVG IPC :1.15210: L2-Pf-HR :0.95173: L2-HR :0.93258: (Sim:4h24m47s) 
CPU  0 inst: 1068000003 cyc:  925841591 now IPC :2.18000: AVG IPC :1.15261: L2-Pf-HR :0.95177: L2-HR :0.93263: (Sim:4h24m55s) 
CPU  0 inst: 1069000002 cyc:  926293028 now IPC :2.21515: AVG IPC :1.15313: L2-Pf-HR :0.95182: L2-HR :0.93270: (Sim:4h25m2s) 
CPU  0 inst: 1070000001 cyc:  926814076 now IPC :1.91921: AVG IPC :1.15356: L2-Pf-HR :0.95181: L2-HR :0.93271: (Sim:4h25m9s) 
CPU  0 inst: 1071000000 cyc:  927258850 now IPC :2.24833: AVG IPC :1.15408: L2-Pf-HR :0.95185: L2-HR :0.93276: (Sim:4h25m16s) 
CPU  0 inst: 1072000002 cyc:  927764185 now IPC :1.97889: AVG IPC :1.15453: L2-Pf-HR :0.95186: L2-HR :0.93278: (Sim:4h25m23s) 
CPU  0 inst: 1073000004 cyc:  928208959 now IPC :2.24834: AVG IPC :1.15506: L2-Pf-HR :0.95190: L2-HR :0.93284: (Sim:4h25m30s) 
CPU  0 inst: 1074000002 cyc:  928728767 now IPC :1.92378: AVG IPC :1.15549: L2-Pf-HR :0.95191: L2-HR :0.93286: (Sim:4h25m38s) 
CPU  0 inst: 1075000003 cyc:  929188189 now IPC :2.17665: AVG IPC :1.15599: L2-Pf-HR :0.95195: L2-HR :0.93291: (Sim:4h25m46s) 
CPU  0 inst: 1076000005 cyc:  929703857 now IPC :1.93924: AVG IPC :1.15643: L2-Pf-HR :0.95195: L2-HR :0.93293: (Sim:4h25m53s) 
CPU  0 inst: 1077000000 cyc:  930148372 now IPC :2.24963: AVG IPC :1.15695: L2-Pf-HR :0.95200: L2-HR :0.93298: (Sim:4h26m0s) 
CPU  0 inst: 1078000003 cyc:  930634991 now IPC :2.05500: AVG IPC :1.15742: L2-Pf-HR :0.95202: L2-HR :0.93302: (Sim:4h26m8s) 
CPU  0 inst: 1079000001 cyc:  931091720 now IPC :2.18948: AVG IPC :1.15793: L2-Pf-HR :0.95205: L2-HR :0.93306: (Sim:4h26m15s) 
CPU  0 inst: 1080000002 cyc:  931580280 now IPC :2.04683: AVG IPC :1.15840: L2-Pf-HR :0.95207: L2-HR :0.93310: (Sim:4h26m22s) 
CPU  0 inst: 1081000000 cyc:  932060740 now IPC :2.08133: AVG IPC :1.15887: L2-Pf-HR :0.95211: L2-HR :0.93314: (Sim:4h26m29s) 
CPU  0 inst: 1082000002 cyc:  932667977 now IPC :1.64681: AVG IPC :1.15919: L2-Pf-HR :0.95208: L2-HR :0.93311: (Sim:4h26m38s) 
CPU  0 inst: 1083000000 cyc:  933147510 now IPC :2.08536: AVG IPC :1.15967: L2-Pf-HR :0.95209: L2-HR :0.93313: (Sim:4h26m45s) 
CPU  0 inst: 1084000001 cyc:  933616421 now IPC :2.13260: AVG IPC :1.16016: L2-Pf-HR :0.95213: L2-HR :0.93319: (Sim:4h26m52s) 
CPU  0 inst: 1085000001 cyc:  934231802 now IPC :1.62501: AVG IPC :1.16046: L2-Pf-HR :0.95208: L2-HR :0.93314: (Sim:4h27m0s) 
CPU  0 inst: 1086000000 cyc:  934678740 now IPC :2.23744: AVG IPC :1.16098: L2-Pf-HR :0.95211: L2-HR :0.93319: (Sim:4h27m7s) 
CPU  0 inst: 1087000005 cyc:  935245946 now IPC :1.76304: AVG IPC :1.16134: L2-Pf-HR :0.95210: L2-HR :0.93320: (Sim:4h27m14s) 
CPU  0 inst: 1088000002 cyc:  935706753 now IPC :2.17010: AVG IPC :1.16184: L2-Pf-HR :0.95214: L2-HR :0.93325: (Sim:4h27m21s) 
CPU  0 inst: 1089000001 cyc:  936242605 now IPC :1.86619: AVG IPC :1.16224: L2-Pf-HR :0.95214: L2-HR :0.93325: (Sim:4h27m30s) 
CPU  0 inst: 1090000000 cyc:  936695417 now IPC :2.20842: AVG IPC :1.16275: L2-Pf-HR :0.95219: L2-HR :0.93332: (Sim:4h27m37s) 
CPU  0 inst: 1091000004 cyc:  937221522 now IPC :1.90077: AVG IPC :1.16316: L2-Pf-HR :0.95218: L2-HR :0.93332: (Sim:4h27m45s) 
CPU  0 inst: 1092000003 cyc:  937666316 now IPC :2.24823: AVG IPC :1.16368: L2-Pf-HR :0.95222: L2-HR :0.93337: (Sim:4h27m52s) 
CPU  0 inst: 1093000004 cyc:  938185263 now IPC :1.92698: AVG IPC :1.16410: L2-Pf-HR :0.95223: L2-HR :0.93339: (Sim:4h27m59s) 
CPU  0 inst: 1094000001 cyc:  938630881 now IPC :2.24407: AVG IPC :1.16462: L2-Pf-HR :0.95227: L2-HR :0.93344: (Sim:4h28m6s) 
CPU  0 inst: 1095000002 cyc:  939174172 now IPC :1.84064: AVG IPC :1.16501: L2-Pf-HR :0.95226: L2-HR :0.93344: (Sim:4h28m14s) 
CPU  0 inst: 1096000003 cyc:  939630953 now IPC :2.18924: AVG IPC :1.16551: L2-Pf-HR :0.95230: L2-HR :0.93350: (Sim:4h28m22s) 
CPU  0 inst: 1097000005 cyc:  940166920 now IPC :1.86579: AVG IPC :1.16591: L2-Pf-HR :0.95229: L2-HR :0.93349: (Sim:4h28m29s) 
CPU  0 inst: 1098000004 cyc:  940613412 now IPC :2.23968: AVG IPC :1.16642: L2-Pf-HR :0.95233: L2-HR :0.93355: (Sim:4h28m36s) 
CPU  0 inst: 1099000003 cyc:  941066674 now IPC :2.20623: AVG IPC :1.16692: L2-Pf-HR :0.95238: L2-HR :0.93361: (Sim:4h28m43s) 
CPU  0 inst: 1100000001 cyc:  941566727 now IPC :1.99978: AVG IPC :1.16736: L2-Pf-HR :0.95238: L2-HR :0.93362: (Sim:4h28m50s) 
CPU  0 inst: 1101000004 cyc:  942113540 now IPC :1.82878: AVG IPC :1.16774: L2-Pf-HR :0.95238: L2-HR :0.93362: (Sim:4h28m58s) 
CPU  0 inst: 1102000001 cyc:  942571800 now IPC :2.18216: AVG IPC :1.16824: L2-Pf-HR :0.95242: L2-HR :0.93367: (Sim:4h29m6s) 
CPU  0 inst: 1103000002 cyc:  943038688 now IPC :2.14184: AVG IPC :1.16872: L2-Pf-HR :0.95247: L2-HR :0.93373: (Sim:4h29m13s) 
CPU  0 inst: 1104000001 cyc:  943554360 now IPC :1.93922: AVG IPC :1.16914: L2-Pf-HR :0.95245: L2-HR :0.93372: (Sim:4h29m20s) 
CPU  0 inst: 1105000001 cyc:  943998523 now IPC :2.25143: AVG IPC :1.16965: L2-Pf-HR :0.95249: L2-HR :0.93378: (Sim:4h29m27s) 
CPU  0 inst: 1106000000 cyc:  944503146 now IPC :1.98168: AVG IPC :1.17009: L2-Pf-HR :0.95250: L2-HR :0.93379: (Sim:4h29m35s) 
CPU  0 inst: 1107000000 cyc:  944958917 now IPC :2.19408: AVG IPC :1.17058: L2-Pf-HR :0.95255: L2-HR :0.93386: (Sim:4h29m42s) 
CPU  0 inst: 1108000005 cyc:  945478822 now IPC :1.92344: AVG IPC :1.17099: L2-Pf-HR :0.95255: L2-HR :0.93387: (Sim:4h29m50s) 
CPU  0 inst: 1109000005 cyc:  945929986 now IPC :2.21649: AVG IPC :1.17149: L2-Pf-HR :0.95260: L2-HR :0.93392: (Sim:4h29m57s) 
CPU  0 inst: 1110000003 cyc:  946439285 now IPC :1.96348: AVG IPC :1.17192: L2-Pf-HR :0.95260: L2-HR :0.93394: (Sim:4h30m4s) 
CPU  0 inst: 1111000000 cyc:  946884224 now IPC :2.24749: AVG IPC :1.17243: L2-Pf-HR :0.95264: L2-HR :0.93399: (Sim:4h30m11s) 
CPU  0 inst: 1112000001 cyc:  947381066 now IPC :2.01271: AVG IPC :1.17287: L2-Pf-HR :0.95266: L2-HR :0.93402: (Sim:4h30m18s) 
CPU  0 inst: 1113000002 cyc:  947826776 now IPC :2.24361: AVG IPC :1.17337: L2-Pf-HR :0.95270: L2-HR :0.93407: (Sim:4h30m25s) 
CPU  0 inst: 1114000002 cyc:  948314331 now IPC :2.05105: AVG IPC :1.17382: L2-Pf-HR :0.95273: L2-HR :0.93410: (Sim:4h30m33s) 
CPU  0 inst: 1115000002 cyc:  948792451 now IPC :2.09153: AVG IPC :1.17429: L2-Pf-HR :0.95276: L2-HR :0.93415: (Sim:4h30m40s) 
CPU  0 inst: 1116000000 cyc:  949408282 now IPC :1.62382: AVG IPC :1.17458: L2-Pf-HR :0.95273: L2-HR :0.93411: (Sim:4h30m48s) 
CPU  0 inst: 1117000002 cyc:  949880264 now IPC :2.11873: AVG IPC :1.17505: L2-Pf-HR :0.95274: L2-HR :0.93414: (Sim:4h30m56s) 
CPU  0 inst: 1118000005 cyc:  950411863 now IPC :1.88112: AVG IPC :1.17544: L2-Pf-HR :0.95275: L2-HR :0.93416: (Sim:4h31m4s) 
CPU  0 inst: 1119000003 cyc:  950951125 now IPC :1.85438: AVG IPC :1.17583: L2-Pf-HR :0.95273: L2-HR :0.93415: (Sim:4h31m11s) 
CPU  0 inst: 1120000004 cyc:  951400185 now IPC :2.22688: AVG IPC :1.17633: L2-Pf-HR :0.95277: L2-HR :0.93420: (Sim:4h31m18s) 
CPU  0 inst: 1121000003 cyc:  951968702 now IPC :1.75896: AVG IPC :1.17667: L2-Pf-HR :0.95276: L2-HR :0.93419: (Sim:4h31m25s) 
CPU  0 inst: 1122000000 cyc:  952527046 now IPC :1.79101: AVG IPC :1.17703: L2-Pf-HR :0.95275: L2-HR :0.93418: (Sim:4h31m33s) 
CPU  0 inst: 1123000003 cyc:  952984272 now IPC :2.18711: AVG IPC :1.17752: L2-Pf-HR :0.95278: L2-HR :0.93423: (Sim:4h31m40s) 
CPU  0 inst: 1124000000 cyc:  953436706 now IPC :2.21026: AVG IPC :1.17801: L2-Pf-HR :0.95282: L2-HR :0.93428: (Sim:4h31m47s) 
CPU  0 inst: 1125000005 cyc:  953966996 now IPC :1.88577: AVG IPC :1.17840: L2-Pf-HR :0.95282: L2-HR :0.93429: (Sim:4h31m55s) 
CPU  0 inst: 1126000003 cyc:  954411537 now IPC :2.24951: AVG IPC :1.17890: L2-Pf-HR :0.95286: L2-HR :0.93434: (Sim:4h32m2s) 
CPU  0 inst: 1127000001 cyc:  954909219 now IPC :2.00931: AVG IPC :1.17934: L2-Pf-HR :0.95288: L2-HR :0.93436: (Sim:4h32m9s) 
CPU  0 inst: 1128000000 cyc:  955354109 now IPC :2.24774: AVG IPC :1.17983: L2-Pf-HR :0.95292: L2-HR :0.93442: (Sim:4h32m16s) 
CPU  0 inst: 1129000000 cyc:  955893945 now IPC :1.85241: AVG IPC :1.18021: L2-Pf-HR :0.95291: L2-HR :0.93442: (Sim:4h32m24s) 
CPU  0 inst: 1130000001 cyc:  956352659 now IPC :2.18001: AVG IPC :1.18069: L2-Pf-HR :0.95295: L2-HR :0.93447: (Sim:4h32m31s) 
CPU  0 inst: 1131000002 cyc:  956883629 now IPC :1.88335: AVG IPC :1.18108: L2-Pf-HR :0.95294: L2-HR :0.93447: (Sim:4h32m39s) 
CPU  0 inst: 1132000001 cyc:  957328572 now IPC :2.24748: AVG IPC :1.18158: L2-Pf-HR :0.95298: L2-HR :0.93453: (Sim:4h32m46s) 
CPU  0 inst: 1133000003 cyc:  957815443 now IPC :2.05394: AVG IPC :1.18202: L2-Pf-HR :0.95301: L2-HR :0.93457: (Sim:4h32m53s) 
CPU  0 inst: 1134000000 cyc:  958286399 now IPC :2.12333: AVG IPC :1.18249: L2-Pf-HR :0.95303: L2-HR :0.93460: (Sim:4h33m0s) 
CPU  0 inst: 1135000002 cyc:  958820973 now IPC :1.87065: AVG IPC :1.18287: L2-Pf-HR :0.95303: L2-HR :0.93459: (Sim:4h33m7s) 
CPU  0 inst: 1136000004 cyc:  959284918 now IPC :2.15543: AVG IPC :1.18334: L2-Pf-HR :0.95306: L2-HR :0.93464: (Sim:4h33m15s) 
CPU  0 inst: 1137000002 cyc:  959788123 now IPC :1.98726: AVG IPC :1.18376: L2-Pf-HR :0.95308: L2-HR :0.93467: (Sim:4h33m22s) 
CPU  0 inst: 1138000002 cyc:  960255891 now IPC :2.13781: AVG IPC :1.18423: L2-Pf-HR :0.95310: L2-HR :0.93471: (Sim:4h33m29s) 
CPU  0 inst: 1139000002 cyc:  960702181 now IPC :2.24070: AVG IPC :1.18472: L2-Pf-HR :0.95314: L2-HR :0.93476: (Sim:4h33m36s) 
CPU  0 inst: 1140000003 cyc:  961207188 now IPC :1.98017: AVG IPC :1.18514: L2-Pf-HR :0.95314: L2-HR :0.93477: (Sim:4h33m43s) 
CPU  0 inst: 1141000005 cyc:  961707038 now IPC :2.00060: AVG IPC :1.18556: L2-Pf-HR :0.95316: L2-HR :0.93479: (Sim:4h33m50s) 
CPU  0 inst: 1142000000 cyc:  962180275 now IPC :2.11310: AVG IPC :1.18602: L2-Pf-HR :0.95319: L2-HR :0.93483: (Sim:4h33m58s) 
CPU  0 inst: 1143000000 cyc:  962633492 now IPC :2.20645: AVG IPC :1.18650: L2-Pf-HR :0.95323: L2-HR :0.93488: (Sim:4h34m5s) 
CPU  0 inst: 1144000003 cyc:  963148202 now IPC :1.94285: AVG IPC :1.18691: L2-Pf-HR :0.95323: L2-HR :0.93490: (Sim:4h34m13s) 
CPU  0 inst: 1145000003 cyc:  963592940 now IPC :2.24851: AVG IPC :1.18740: L2-Pf-HR :0.95327: L2-HR :0.93495: (Sim:4h34m19s) 
CPU  0 inst: 1146000002 cyc:  964088105 now IPC :2.01953: AVG IPC :1.18782: L2-Pf-HR :0.95329: L2-HR :0.93498: (Sim:4h34m27s) 
CPU  0 inst: 1147000000 cyc:  964533452 now IPC :2.24544: AVG IPC :1.18831: L2-Pf-HR :0.95333: L2-HR :0.93503: (Sim:4h34m34s) 
CPU  0 inst: 1148000000 cyc:  965030923 now IPC :2.01017: AVG IPC :1.18874: L2-Pf-HR :0.95336: L2-HR :0.93507: (Sim:4h34m41s) 
CPU  0 inst: 1149000001 cyc:  965527461 now IPC :2.01395: AVG IPC :1.18916: L2-Pf-HR :0.95338: L2-HR :0.93509: (Sim:4h34m49s) 
CPU  0 inst: 1150000000 cyc:  966153574 now IPC :1.59715: AVG IPC :1.18943: L2-Pf-HR :0.95334: L2-HR :0.93505: (Sim:4h34m57s) 
CPU  0 inst: 1151000004 cyc:  966613858 now IPC :2.17258: AVG IPC :1.18990: L2-Pf-HR :0.95337: L2-HR :0.93508: (Sim:4h35m4s) 
CPU  0 inst: 1152000005 cyc:  967217849 now IPC :1.65566: AVG IPC :1.19019: L2-Pf-HR :0.95335: L2-HR :0.93507: (Sim:4h35m12s) 
CPU  0 inst: 1153000005 cyc:  967689782 now IPC :2.11894: AVG IPC :1.19064: L2-Pf-HR :0.95336: L2-HR :0.93509: (Sim:4h35m19s) 
CPU  0 inst: 1154000000 cyc:  968143851 now IPC :2.20230: AVG IPC :1.19112: L2-Pf-HR :0.95339: L2-HR :0.93514: (Sim:4h35m26s) 
CPU  0 inst: 1155000000 cyc:  968713706 now IPC :1.75483: AVG IPC :1.19145: L2-Pf-HR :0.95337: L2-HR :0.93513: (Sim:4h35m33s) 
CPU  0 inst: 1156000002 cyc:  969248190 now IPC :1.87097: AVG IPC :1.19182: L2-Pf-HR :0.95336: L2-HR :0.93513: (Sim:4h35m41s) 
CPU  0 inst: 1157000003 cyc:  969709043 now IPC :2.16989: AVG IPC :1.19229: L2-Pf-HR :0.95340: L2-HR :0.93517: (Sim:4h35m49s) 
CPU  0 inst: 1158000002 cyc:  970174630 now IPC :2.14782: AVG IPC :1.19275: L2-Pf-HR :0.95344: L2-HR :0.93522: (Sim:4h35m56s) 
CPU  0 inst: 1159000000 cyc:  970681236 now IPC :1.97392: AVG IPC :1.19315: L2-Pf-HR :0.95343: L2-HR :0.93522: (Sim:4h36m3s) 
CPU  0 inst: 1160000001 cyc:  971126647 now IPC :2.24512: AVG IPC :1.19364: L2-Pf-HR :0.95347: L2-HR :0.93527: (Sim:4h36m9s) 
CPU  0 inst: 1161000005 cyc:  971623150 now IPC :2.01409: AVG IPC :1.19406: L2-Pf-HR :0.95348: L2-HR :0.93529: (Sim:4h36m16s) 
CPU  0 inst: 1162000005 cyc:  972078595 now IPC :2.19565: AVG IPC :1.19453: L2-Pf-HR :0.95353: L2-HR :0.93535: (Sim:4h36m23s) 
CPU  0 inst: 1163000000 cyc:  972613381 now IPC :1.86990: AVG IPC :1.19490: L2-Pf-HR :0.95352: L2-HR :0.93535: (Sim:4h36m31s) 
CPU  0 inst: 1164000005 cyc:  973064716 now IPC :2.21566: AVG IPC :1.19537: L2-Pf-HR :0.95356: L2-HR :0.93540: (Sim:4h36m38s) 
CPU  0 inst: 1165000003 cyc:  973594411 now IPC :1.88788: AVG IPC :1.19575: L2-Pf-HR :0.95355: L2-HR :0.93540: (Sim:4h36m45s) 
CPU  0 inst: 1166000003 cyc:  974038971 now IPC :2.24942: AVG IPC :1.19623: L2-Pf-HR :0.95359: L2-HR :0.93545: (Sim:4h36m52s) 
CPU  0 inst: 1167000005 cyc:  974544056 now IPC :1.97987: AVG IPC :1.19664: L2-Pf-HR :0.95360: L2-HR :0.93547: (Sim:4h36m59s) 
CPU  0 inst: 1168000002 cyc:  974989839 now IPC :2.24324: AVG IPC :1.19712: L2-Pf-HR :0.95363: L2-HR :0.93552: (Sim:4h37m5s) 
CPU  0 inst: 1169000001 cyc:  975521964 now IPC :1.87926: AVG IPC :1.19749: L2-Pf-HR :0.95363: L2-HR :0.93553: (Sim:4h37m13s) 
CPU  0 inst: 1170000002 cyc:  975982180 now IPC :2.17289: AVG IPC :1.19795: L2-Pf-HR :0.95367: L2-HR :0.93558: (Sim:4h37m21s) 
CPU  0 inst: 1171000005 cyc:  976511556 now IPC :1.88902: AVG IPC :1.19832: L2-Pf-HR :0.95367: L2-HR :0.93559: (Sim:4h37m28s) 
CPU  0 inst: 1172000002 cyc:  976957068 now IPC :2.24460: AVG IPC :1.19880: L2-Pf-HR :0.95370: L2-HR :0.93563: (Sim:4h37m34s) 
CPU  0 inst: 1173000003 cyc:  977407806 now IPC :2.21859: AVG IPC :1.19927: L2-Pf-HR :0.95374: L2-HR :0.93569: (Sim:4h37m41s) 
CPU  0 inst: 1174000001 cyc:  977907101 now IPC :2.00282: AVG IPC :1.19968: L2-Pf-HR :0.95375: L2-HR :0.93570: (Sim:4h37m48s) 
CPU  0 inst: 1175000000 cyc:  978423701 now IPC :1.93573: AVG IPC :1.20007: L2-Pf-HR :0.95375: L2-HR :0.93572: (Sim:4h37m56s) 
CPU  0 inst: 1176000002 cyc:  978883772 now IPC :2.17358: AVG IPC :1.20053: L2-Pf-HR :0.95379: L2-HR :0.93576: (Sim:4h38m3s) 
CPU  0 inst: 1177000001 cyc:  979348891 now IPC :2.14999: AVG IPC :1.20098: L2-Pf-HR :0.95383: L2-HR :0.93581: (Sim:4h38m10s) 
CPU  0 inst: 1178000005 cyc:  979863199 now IPC :1.94437: AVG IPC :1.20137: L2-Pf-HR :0.95383: L2-HR :0.93582: (Sim:4h38m17s) 
CPU  0 inst: 1179000002 cyc:  980308005 now IPC :2.24816: AVG IPC :1.20185: L2-Pf-HR :0.95387: L2-HR :0.93587: (Sim:4h38m24s) 
CPU  0 inst: 1180000000 cyc:  980811563 now IPC :1.98586: AVG IPC :1.20225: L2-Pf-HR :0.95389: L2-HR :0.93590: (Sim:4h38m31s) 
Finished CPU 0 instr: 1178000001 cyc: 979828759 AVG IPC: 1.20225 (Sim time: 4h38m31s)

ChampSim completed all CPUs

[ROI Statistics]
Core_0_instructions 1178000001
Core_0_cycles 979828759
Core_0_IPC 1.20225

Core_0_branch_prediction_accuracy 98.59145
Core_0_branch_MPKI 0.33782
Core_0_average_ROB_occupancy_at_mispredict 617.03047

Core_0_L1D_total_access 701082566
Core_0_L1D_total_hit 677817384 L1D_total_Hit Ratio: 0.96682
Core_0_L1D_total_miss 23265182
Core_0_L1D_loads 276784437
Core_0_L1D_load_hit 264131826 L1D_load_Hit Ratio: 0.95429
Core_0_L1D_load_miss 12652611
Core_0_L1D_RFOs 22926050
Core_0_L1D_RFO_hit 21826433 L1D_RFO_Hit Ratio: 0.95204
Core_0_L1D_RFO_miss 1099617
Core_0_L1D_prefetches 401372079
Core_0_L1D_prefetch_hit 391859125 L1D_prefetch_Hit Ratio: 0.97630
Core_0_L1D_prefetch_miss 9512954
Core_0_L1D_writebacks 0
Core_0_L1D_writeback_hit 0 L1D_writeback_Hit Ratio: -nan
Core_0_L1D_writeback_miss 0
Core_0_L1D_prefetch_requested 840236754
Core_0_L1D_prefetch_issued 498238362
Core_0_L1D_prefetch_useful 7620686 L1D_Useful Ratio: 0.01530
Core_0_L1D_prefetch_useless 1907762
Core_0_L1D_prefetch_late 1520397
Core_0_L1D_average_miss_latency 38741163.20810

Core_0_L1I_total_access 165536918
Core_0_L1I_total_hit 165535030 L1I_total_Hit Ratio: 0.99999
Core_0_L1I_total_miss 1888
Core_0_L1I_loads 165536918
Core_0_L1I_load_hit 165535030 L1I_load_Hit Ratio: 0.99999
Core_0_L1I_load_miss 1888
Core_0_L1I_RFOs 0
Core_0_L1I_RFO_hit 0 L1I_RFO_Hit Ratio: -nan
Core_0_L1I_RFO_miss 0
Core_0_L1I_prefetches 0
Core_0_L1I_prefetch_hit 0 L1I_prefetch_Hit Ratio: -nan
Core_0_L1I_prefetch_miss 0
Core_0_L1I_writebacks 0
Core_0_L1I_writeback_hit 0 L1I_writeback_Hit Ratio: -nan
Core_0_L1I_writeback_miss 0
Core_0_L1I_prefetch_requested 0
Core_0_L1I_prefetch_issued 0
Core_0_L1I_prefetch_useful 0 L1I_Useful Ratio: -nan
Core_0_L1I_prefetch_useless 0
Core_0_L1I_prefetch_late 0
Core_0_L1I_average_miss_latency 318.40996

Core_0_L2C_total_access 97870955
Core_0_L2C_total_hit 91597136 L2C_total_Hit Ratio: 0.93590
Core_0_L2C_total_miss 6273819
Core_0_L2C_loads 11135209
Core_0_L2C_load_hit 9533424 L2C_load_Hit Ratio: 0.85615
Core_0_L2C_load_miss 1601785
Core_0_L2C_RFOs 1099608
Core_0_L2C_RFO_hit 99702 L2C_RFO_Hit Ratio: 0.09067
Core_0_L2C_RFO_miss 999906
Core_0_L2C_prefetches 79633069
Core_0_L2C_prefetch_hit 75960952 L2C_prefetch_Hit Ratio: 0.95389
Core_0_L2C_prefetch_miss 3672117
Core_0_L2C_writebacks 6003069
Core_0_L2C_writeback_hit 6003058 L2C_writeback_Hit Ratio: 1.00000
Core_0_L2C_writeback_miss 11
Core_0_L2C_prefetch_requested 185302866
Core_0_L2C_prefetch_issued 105897295
Core_0_L2C_prefetch_useful 1288668 L2C_Useful Ratio: 0.01217
Core_0_L2C_prefetch_useless 2370970
Core_0_L2C_prefetch_late 827831
Core_0_L2C_average_miss_latency 293.69409

Core_0_LLC_total_access 9706706
Core_0_LLC_total_hit 3894063 LLC_total_Hit Ratio: 0.40117
Core_0_LLC_total_miss 5812643
Core_0_LLC_loads 773967
Core_0_LLC_load_hit 249136 LLC_load_Hit Ratio: 0.32189
Core_0_LLC_load_miss 524831
Core_0_LLC_RFOs 999906
Core_0_LLC_RFO_hit 90 LLC_RFO_Hit Ratio: 0.00009
Core_0_LLC_RFO_miss 999816
Core_0_LLC_prefetches 4554424
Core_0_LLC_prefetch_hit 299461 LLC_prefetch_Hit Ratio: 0.06575
Core_0_LLC_prefetch_miss 4254963
Core_0_LLC_writebacks 3378409
Core_0_LLC_writeback_hit 3345376 LLC_writeback_Hit Ratio: 0.99022
Core_0_LLC_writeback_miss 33033
Core_0_LLC_prefetch_requested 0
Core_0_LLC_prefetch_issued 0
Core_0_LLC_prefetch_useful 213232 LLC_Useful Ratio: inf
Core_0_LLC_prefetch_useless 3966918
Core_0_LLC_prefetch_late 9739
Core_0_LLC_average_miss_latency 313.04125

Core_0_major_page_fault 0
Core_0_minor_page_fault 42073

CPU 0 L1D next line prefetcher final stats
CPU 0 L2C PC-based stride prefetcher final stats
Stride Degree: 15
MK1  MARKOV_LRU_SIZE: 128
MK1  MARKOV_PREDICTION_PERCENTTHRESHOLD: 40.00000
MK1  OUTLIERS_THRESHOLD_Max: 64
MK1  OUTLIERS_THRESHOLD_Min: 32
MK2  MARKOV_LRU_SIZE: 256
MK2  MARKOV_PREDICTION_PERCENTTHRESHOLD: 20.00000
MK2  OUTLIERS_THRESHOLD_Max: 32
MK2  OUTLIERS_THRESHOLD_Min: 16
MK3  MARKOV_LRU_SIZE: 384
MK3  MARKOV_PREDICTION_PERCENTTHRESHOLD: 25.00000
MK3  OUTLIERS_THRESHOLD_Max: 16
MK3  OUTLIERS_THRESHOLD_Min: 8
MK4  MARKOV_LRU_SIZE: 512
MK4  MARKOV_PREDICTION_PERCENTTHRESHOLD: 20.00000
MK4  OUTLIERS_THRESHOLD_Max: 8
MK4  OUTLIERS_THRESHOLD_Min: 0
IPStride Degree/Access Ratio: 6.65367
MK1 IPDEltaMarkov  Degree/Access Ratio: 0.19126
MK2 IPDEltaMarkov  Degree/Access Ratio: 0.17769
MK3 IPDEltaMarkov  Degree/Access Ratio: 0.68683
MK4 IPDEltaMarkov  Degree/Access Ratio: 1.11702
Channel_0_RQ_row_buffer_hit 3021332
Channel_0_RQ_row_buffer_miss 2758278
Channel_0_WQ_row_buffer_hit 988215
Channel_0_WQ_row_buffer_miss 2288463
Channel_0_WQ_full 12740
Channel_0_dbus_congested 5057862

avg_congested_cycle 8

EzSearch AVG IPC :1.20225: L2-Pf-HR :0.95389 : L2-HR :0.93590 Uful:0.01217
     > Finished combination: TraceType=770-tot Sim:1178000000 Prefetcher=L2029-SecTOP-L2-MultiMarkovDelta_ip_stride_v4 L1=next_line
