TRACE: [151000000]_FE_[OPT-6_7B]_[h32]_[s256]_[d128] Warmup: 2000000 NumTraces: 151000000
L1:no:L2:no
*************************************************
   ChampSim Multicore Out-of-Order Simulator
   Last compiled: Oct 26 2024 21:54:12
*************************************************

trace_0 770-tot_memTraces_v3/memTraces[151000000]_FE_[OPT-6_7B]_[h32]_[s256]_[d128].champsim.xz
MAIN.cc ln 751 stats print skipped
CPU  0 inst:    1000000 cyc:     499643 now IPC :2.00143: AVG IPC :2.00143: L2-Pf-HR :-nan: L2-HR :0.58380: (Sim:0h0m16s) 
CPU  0 inst:    2000000 cyc:     985027 now IPC :2.06022: AVG IPC :2.03040: L2-Pf-HR :-nan: L2-HR :0.68847: (Sim:0h0m34s) 

Warmup complete CPU  0 instructions:    2000003 cycles:     985028 (Simulation time: 0 hr 0 min 34 sec) 

CPU  0 inst:    3000000 cyc:    1618883 now IPC :1.57765: AVG IPC :1.57764: L2-Pf-HR :-nan: L2-HR :0.78839: (Sim:0h0m49s) 
CPU  0 inst:    4000002 cyc:    2191300 now IPC :1.74698: AVG IPC :1.65800: L2-Pf-HR :-nan: L2-HR :0.80548: (Sim:0h1m4s) 
CPU  0 inst:    5000004 cyc:    2812106 now IPC :1.61081: AVG IPC :1.64197: L2-Pf-HR :-nan: L2-HR :0.80313: (Sim:0h1m19s) 
CPU  0 inst:    6000000 cyc:    3392349 now IPC :1.72341: AVG IPC :1.66160: L2-Pf-HR :-nan: L2-HR :0.80593: (Sim:0h1m34s) 
CPU  0 inst:    7000005 cyc:    4013155 now IPC :1.61082: AVG IPC :1.65119: L2-Pf-HR :-nan: L2-HR :0.80435: (Sim:0h1m48s) 
CPU  0 inst:    8000000 cyc:    4584695 now IPC :1.74965: AVG IPC :1.66682: L2-Pf-HR :-nan: L2-HR :0.80730: (Sim:0h2m4s) 
CPU  0 inst:    9000003 cyc:    5211525 now IPC :1.59533: AVG IPC :1.65622: L2-Pf-HR :-nan: L2-HR :0.80476: (Sim:0h2m18s) 
CPU  0 inst:   10000005 cyc:    5783962 now IPC :1.74692: AVG IPC :1.66704: L2-Pf-HR :-nan: L2-HR :0.80741: (Sim:0h2m32s) 
CPU  0 inst:   11000004 cyc:    6404797 now IPC :1.61073: AVG IPC :1.66059: L2-Pf-HR :-nan: L2-HR :0.80600: (Sim:0h2m48s) 
CPU  0 inst:   12000003 cyc:    6983670 now IPC :1.72749: AVG IPC :1.66704: L2-Pf-HR :-nan: L2-HR :0.80760: (Sim:0h3m2s) 
CPU  0 inst:   13000005 cyc:    7602603 now IPC :1.61569: AVG IPC :1.66224: L2-Pf-HR :-nan: L2-HR :0.80641: (Sim:0h3m17s) 
CPU  0 inst:   14000001 cyc:    8175150 now IPC :1.74657: AVG IPC :1.66896: L2-Pf-HR :-nan: L2-HR :0.80837: (Sim:0h3m33s) 
CPU  0 inst:   15000000 cyc:    8800949 now IPC :1.59796: AVG IPC :1.66327: L2-Pf-HR :-nan: L2-HR :0.80671: (Sim:0h3m48s) 
CPU  0 inst:   16000005 cyc:    9374256 now IPC :1.74427: AVG IPC :1.66881: L2-Pf-HR :-nan: L2-HR :0.80808: (Sim:0h4m2s) 
CPU  0 inst:   17000004 cyc:    9993004 now IPC :1.61617: AVG IPC :1.66519: L2-Pf-HR :-nan: L2-HR :0.80744: (Sim:0h4m18s) 
CPU  0 inst:   18000005 cyc:   10573327 now IPC :1.72318: AVG IPC :1.66870: L2-Pf-HR :-nan: L2-HR :0.80785: (Sim:0h4m32s) 
CPU  0 inst:   19000002 cyc:   11192566 now IPC :1.61488: AVG IPC :1.66544: L2-Pf-HR :-nan: L2-HR :0.80731: (Sim:0h4m47s) 
CPU  0 inst:   20000004 cyc:   11773506 now IPC :1.72135: AVG IPC :1.66845: L2-Pf-HR :-nan: L2-HR :0.80771: (Sim:0h5m3s) 
CPU  0 inst:   21000003 cyc:   12392557 now IPC :1.61537: AVG IPC :1.66557: L2-Pf-HR :-nan: L2-HR :0.80720: (Sim:0h5m17s) 
CPU  0 inst:   22000002 cyc:   12965661 now IPC :1.74488: AVG IPC :1.66936: L2-Pf-HR :-nan: L2-HR :0.80809: (Sim:0h5m32s) 
CPU  0 inst:   23000000 cyc:   13585696 now IPC :1.61281: AVG IPC :1.66658: L2-Pf-HR :-nan: L2-HR :0.80732: (Sim:0h5m40s) 
CPU  0 inst:   24000002 cyc:   14163908 now IPC :1.72947: AVG IPC :1.66934: L2-Pf-HR :-nan: L2-HR :0.80810: (Sim:0h5m48s) 
CPU  0 inst:   25000005 cyc:   14778047 now IPC :1.62830: AVG IPC :1.66751: L2-Pf-HR :-nan: L2-HR :0.80752: (Sim:0h5m55s) 
CPU  0 inst:   26000004 cyc:   15361609 now IPC :1.71361: AVG IPC :1.66938: L2-Pf-HR :-nan: L2-HR :0.80815: (Sim:0h6m3s) 
CPU  0 inst:   27000000 cyc:   15974938 now IPC :1.63044: AVG IPC :1.66779: L2-Pf-HR :-nan: L2-HR :0.80753: (Sim:0h6m10s) 
CPU  0 inst:   28000004 cyc:   16553972 now IPC :1.72702: AVG IPC :1.66999: L2-Pf-HR :-nan: L2-HR :0.80829: (Sim:0h6m18s) 
CPU  0 inst:   29000004 cyc:   17171503 now IPC :1.61935: AVG IPC :1.66806: L2-Pf-HR :-nan: L2-HR :0.80746: (Sim:0h6m25s) 
CPU  0 inst:   30000000 cyc:   17758682 now IPC :1.70305: AVG IPC :1.66928: L2-Pf-HR :-nan: L2-HR :0.80814: (Sim:0h6m33s) 
CPU  0 inst:   31000001 cyc:   18341473 now IPC :1.71588: AVG IPC :1.67085: L2-Pf-HR :-nan: L2-HR :0.80913: (Sim:0h6m40s) 
CPU  0 inst:   32000001 cyc:   18966037 now IPC :1.60112: AVG IPC :1.66843: L2-Pf-HR :-nan: L2-HR :0.80803: (Sim:0h6m48s) 
CPU  0 inst:   33000004 cyc:   19545803 now IPC :1.72484: AVG IPC :1.67019: L2-Pf-HR :-nan: L2-HR :0.80897: (Sim:0h6m55s) 
CPU  0 inst:   34000001 cyc:   20170894 now IPC :1.59976: AVG IPC :1.66789: L2-Pf-HR :-nan: L2-HR :0.80823: (Sim:0h7m3s) 
CPU  0 inst:   35000002 cyc:   20764791 now IPC :1.68380: AVG IPC :1.66837: L2-Pf-HR :-nan: L2-HR :0.80882: (Sim:0h7m10s) 
CPU  0 inst:   36000000 cyc:   21432080 now IPC :1.49860: AVG IPC :1.66283: L2-Pf-HR :-nan: L2-HR :0.80824: (Sim:0h7m18s) 
CPU  0 inst:   37000002 cyc:   22024856 now IPC :1.68698: AVG IPC :1.66351: L2-Pf-HR :-nan: L2-HR :0.80881: (Sim:0h7m25s) 
CPU  0 inst:   38000004 cyc:   22698268 now IPC :1.48498: AVG IPC :1.65797: L2-Pf-HR :-nan: L2-HR :0.80826: (Sim:0h7m33s) 
CPU  0 inst:   39000003 cyc:   23303342 now IPC :1.65269: AVG IPC :1.65783: L2-Pf-HR :-nan: L2-HR :0.80867: (Sim:0h7m41s) 
CPU  0 inst:   40000004 cyc:   23974065 now IPC :1.49093: AVG IPC :1.65296: L2-Pf-HR :-nan: L2-HR :0.80838: (Sim:0h7m49s) 
CPU  0 inst:   41000001 cyc:   24589117 now IPC :1.62587: AVG IPC :1.65226: L2-Pf-HR :-nan: L2-HR :0.80855: (Sim:0h7m56s) 
CPU  0 inst:   42000000 cyc:   25255089 now IPC :1.50156: AVG IPC :1.64812: L2-Pf-HR :-nan: L2-HR :0.80827: (Sim:0h8m4s) 
CPU  0 inst:   43000005 cyc:   25849243 now IPC :1.68307: AVG IPC :1.64896: L2-Pf-HR :-nan: L2-HR :0.80867: (Sim:0h8m12s) 
CPU  0 inst:   44000004 cyc:   26505905 now IPC :1.52285: AVG IPC :1.64571: L2-Pf-HR :-nan: L2-HR :0.80819: (Sim:0h8m20s) 
CPU  0 inst:   45000000 cyc:   27100461 now IPC :1.68192: AVG IPC :1.64654: L2-Pf-HR :-nan: L2-HR :0.80865: (Sim:0h8m27s) 
CPU  0 inst:   46000002 cyc:   27749365 now IPC :1.54106: AVG IPC :1.64398: L2-Pf-HR :-nan: L2-HR :0.80832: (Sim:0h8m35s) 
CPU  0 inst:   47000004 cyc:   28354621 now IPC :1.65220: AVG IPC :1.64416: L2-Pf-HR :-nan: L2-HR :0.80864: (Sim:0h8m42s) 
CPU  0 inst:   48000000 cyc:   29009097 now IPC :1.52793: AVG IPC :1.64145: L2-Pf-HR :-nan: L2-HR :0.80832: (Sim:0h8m50s) 
CPU  0 inst:   49000002 cyc:   29605860 now IPC :1.67571: AVG IPC :1.64216: L2-Pf-HR :-nan: L2-HR :0.80874: (Sim:0h8m58s) 
CPU  0 inst:   50000001 cyc:   30287118 now IPC :1.46787: AVG IPC :1.63811: L2-Pf-HR :-nan: L2-HR :0.80832: (Sim:0h9m5s) 
CPU  0 inst:   51000003 cyc:   30889818 now IPC :1.65920: AVG IPC :1.63853: L2-Pf-HR :-nan: L2-HR :0.80864: (Sim:0h9m13s) 
CPU  0 inst:   52000005 cyc:   31552475 now IPC :1.50908: AVG IPC :1.63573: L2-Pf-HR :-nan: L2-HR :0.80844: (Sim:0h9m21s) 
CPU  0 inst:   53000001 cyc:   32152591 now IPC :1.66634: AVG IPC :1.63632: L2-Pf-HR :-nan: L2-HR :0.80855: (Sim:0h9m28s) 
CPU  0 inst:   54000003 cyc:   32824969 now IPC :1.48726: AVG IPC :1.63317: L2-Pf-HR :-nan: L2-HR :0.80835: (Sim:0h9m36s) 
CPU  0 inst:   55000005 cyc:   33430642 now IPC :1.65106: AVG IPC :1.63350: L2-Pf-HR :-nan: L2-HR :0.80863: (Sim:0h9m43s) 
CPU  0 inst:   56000004 cyc:   34080277 now IPC :1.53932: AVG IPC :1.63165: L2-Pf-HR :-nan: L2-HR :0.80828: (Sim:0h9m51s) 
CPU  0 inst:   57000003 cyc:   34677065 now IPC :1.67564: AVG IPC :1.63243: L2-Pf-HR :-nan: L2-HR :0.80862: (Sim:0h9m59s) 
CPU  0 inst:   58000002 cyc:   35344589 now IPC :1.49807: AVG IPC :1.62982: L2-Pf-HR :-nan: L2-HR :0.80837: (Sim:0h10m6s) 
CPU  0 inst:   59000004 cyc:   35943009 now IPC :1.67107: AVG IPC :1.63053: L2-Pf-HR :-nan: L2-HR :0.80861: (Sim:0h10m14s) 
CPU  0 inst:   60000000 cyc:   36627489 now IPC :1.46096: AVG IPC :1.62727: L2-Pf-HR :-nan: L2-HR :0.80836: (Sim:0h10m22s) 
CPU  0 inst:   61000002 cyc:   37230600 now IPC :1.65807: AVG IPC :1.62778: L2-Pf-HR :-nan: L2-HR :0.80871: (Sim:0h10m29s) 
CPU  0 inst:   62000001 cyc:   37911310 now IPC :1.46905: AVG IPC :1.62486: L2-Pf-HR :-nan: L2-HR :0.80832: (Sim:0h10m37s) 
CPU  0 inst:   63000000 cyc:   38496548 now IPC :1.70870: AVG IPC :1.62617: L2-Pf-HR :-nan: L2-HR :0.80861: (Sim:0h10m45s) 
CPU  0 inst:   64000002 cyc:   39121424 now IPC :1.60032: AVG IPC :1.62574: L2-Pf-HR :-nan: L2-HR :0.80856: (Sim:0h10m52s) 
CPU  0 inst:   65000001 cyc:   39752378 now IPC :1.58490: AVG IPC :1.62508: L2-Pf-HR :-nan: L2-HR :0.80854: (Sim:0h11m0s) 
CPU  0 inst:   66000004 cyc:   40360647 now IPC :1.64401: AVG IPC :1.62537: L2-Pf-HR :-nan: L2-HR :0.80899: (Sim:0h11m8s) 
CPU  0 inst:   67000004 cyc:   43724303 now IPC :0.29730: AVG IPC :1.52085: L2-Pf-HR :-nan: L2-HR :0.76686: (Sim:0h11m24s) 
CPU  0 inst:   68000001 cyc:   47477113 now IPC :0.26647: AVG IPC :1.41960: L2-Pf-HR :-nan: L2-HR :0.75286: (Sim:0h11m39s) 
CPU  0 inst:   69000001 cyc:   51538250 now IPC :0.24624: AVG IPC :1.32534: L2-Pf-HR :-nan: L2-HR :0.74671: (Sim:0h11m54s) 
CPU  0 inst:   70000001 cyc:   55545667 now IPC :0.24954: AVG IPC :1.24632: L2-Pf-HR :-nan: L2-HR :0.74074: (Sim:0h12m10s) 
CPU  0 inst:   71000001 cyc:   60047856 now IPC :0.22211: AVG IPC :1.16825: L2-Pf-HR :-nan: L2-HR :0.73493: (Sim:0h12m26s) 
CPU  0 inst:   72000001 cyc:   64539450 now IPC :0.22264: AVG IPC :1.10142: L2-Pf-HR :-nan: L2-HR :0.72929: (Sim:0h12m42s) 
CPU  0 inst:   73000001 cyc:   68832246 now IPC :0.23295: AVG IPC :1.04647: L2-Pf-HR :-nan: L2-HR :0.72381: (Sim:0h12m59s) 
CPU  0 inst:   74000001 cyc:   73285737 now IPC :0.22454: AVG IPC :0.99584: L2-Pf-HR :-nan: L2-HR :0.71848: (Sim:0h13m18s) 
CPU  0 inst:   75000001 cyc:   77778606 now IPC :0.22257: AVG IPC :0.95060: L2-Pf-HR :-nan: L2-HR :0.71329: (Sim:0h13m34s) 
CPU  0 inst:   76000001 cyc:   82249931 now IPC :0.22365: AVG IPC :0.91060: L2-Pf-HR :-nan: L2-HR :0.70823: (Sim:0h13m51s) 
CPU  0 inst:   77000001 cyc:   86641727 now IPC :0.22770: AVG IPC :0.87559: L2-Pf-HR :-nan: L2-HR :0.70331: (Sim:0h14m6s) 
CPU  0 inst:   78000001 cyc:   90964804 now IPC :0.23132: AVG IPC :0.84463: L2-Pf-HR :-nan: L2-HR :0.69852: (Sim:0h14m22s) 
CPU  0 inst:   79000000 cyc:   95263968 now IPC :0.23260: AVG IPC :0.81673: L2-Pf-HR :-nan: L2-HR :0.69385: (Sim:0h14m38s) 
CPU  0 inst:   80000001 cyc:   99657340 now IPC :0.22762: AVG IPC :0.79050: L2-Pf-HR :-nan: L2-HR :0.68930: (Sim:0h14m54s) 
CPU  0 inst:   81000001 cyc:  104044042 now IPC :0.22796: AVG IPC :0.76655: L2-Pf-HR :-nan: L2-HR :0.68486: (Sim:0h15m10s) 
CPU  0 inst:   82000001 cyc:  108393796 now IPC :0.22990: AVG IPC :0.74482: L2-Pf-HR :-nan: L2-HR :0.68053: (Sim:0h15m26s) 
CPU  0 inst:   83000001 cyc:  112767502 now IPC :0.22864: AVG IPC :0.72462: L2-Pf-HR :-nan: L2-HR :0.67630: (Sim:0h15m41s) 
CPU  0 inst:   84000001 cyc:  116330174 now IPC :0.28069: AVG IPC :0.71091: L2-Pf-HR :-nan: L2-HR :0.67126: (Sim:0h15m57s) 
CPU  0 inst:   85000001 cyc:  116905288 now IPC :1.73879: AVG IPC :0.71601: L2-Pf-HR :-nan: L2-HR :0.67286: (Sim:0h16m6s) 
CPU  0 inst:   86000002 cyc:  117574418 now IPC :1.49448: AVG IPC :0.72048: L2-Pf-HR :-nan: L2-HR :0.67469: (Sim:0h16m16s) 
CPU  0 inst:   87000000 cyc:  118158470 now IPC :1.71217: AVG IPC :0.72542: L2-Pf-HR :-nan: L2-HR :0.67633: (Sim:0h16m27s) 
CPU  0 inst:   88000004 cyc:  118822305 now IPC :1.50640: AVG IPC :0.72982: L2-Pf-HR :-nan: L2-HR :0.67812: (Sim:0h16m37s) 
CPU  0 inst:   89000004 cyc:  119465033 now IPC :1.55587: AVG IPC :0.73430: L2-Pf-HR :-nan: L2-HR :0.67967: (Sim:0h16m50s) 
CPU  0 inst:   90000002 cyc:  120063178 now IPC :1.67183: AVG IPC :0.73901: L2-Pf-HR :-nan: L2-HR :0.68168: (Sim:0h17m0s) 
CPU  0 inst:   91000005 cyc:  120772166 now IPC :1.41047: AVG IPC :0.74298: L2-Pf-HR :-nan: L2-HR :0.68286: (Sim:0h17m11s) 
CPU  0 inst:   92000001 cyc:  121361657 now IPC :1.69637: AVG IPC :0.74765: L2-Pf-HR :-nan: L2-HR :0.68454: (Sim:0h17m21s) 
CPU  0 inst:   93000003 cyc:  122066410 now IPC :1.41894: AVG IPC :0.75156: L2-Pf-HR :-nan: L2-HR :0.68591: (Sim:0h17m32s) 
CPU  0 inst:   94000003 cyc:  122655982 now IPC :1.69615: AVG IPC :0.75614: L2-Pf-HR :-nan: L2-HR :0.68732: (Sim:0h17m42s) 
CPU  0 inst:   95000001 cyc:  123338570 now IPC :1.46501: AVG IPC :0.76009: L2-Pf-HR :-nan: L2-HR :0.68897: (Sim:0h17m52s) 
CPU  0 inst:   96000001 cyc:  123929296 now IPC :1.69283: AVG IPC :0.76457: L2-Pf-HR :-nan: L2-HR :0.69020: (Sim:0h18m2s) 
CPU  0 inst:   97000000 cyc:  124609330 now IPC :1.47051: AVG IPC :0.76846: L2-Pf-HR :-nan: L2-HR :0.69175: (Sim:0h18m11s) 
CPU  0 inst:   98000002 cyc:  125191424 now IPC :1.71794: AVG IPC :0.77291: L2-Pf-HR :-nan: L2-HR :0.69297: (Sim:0h18m22s) 
CPU  0 inst:   99000000 cyc:  125888423 now IPC :1.43472: AVG IPC :0.77660: L2-Pf-HR :-nan: L2-HR :0.69442: (Sim:0h18m31s) 
CPU  0 inst:  100000000 cyc:  126463335 now IPC :1.73940: AVG IPC :0.78101: L2-Pf-HR :-nan: L2-HR :0.69562: (Sim:0h18m52s) 
CPU  0 inst:  101000004 cyc:  127162942 now IPC :1.42938: AVG IPC :0.78461: L2-Pf-HR :-nan: L2-HR :0.69699: (Sim:0h19m9s) 
CPU  0 inst:  102000002 cyc:  127734030 now IPC :1.75104: AVG IPC :0.78896: L2-Pf-HR :-nan: L2-HR :0.69828: (Sim:0h19m19s) 
CPU  0 inst:  103000000 cyc:  128430963 now IPC :1.43486: AVG IPC :0.79249: L2-Pf-HR :-nan: L2-HR :0.69950: (Sim:0h19m30s) 
CPU  0 inst:  104000003 cyc:  129020646 now IPC :1.69583: AVG IPC :0.79665: L2-Pf-HR :-nan: L2-HR :0.70071: (Sim:0h19m42s) 
CPU  0 inst:  105000000 cyc:  129739465 now IPC :1.39117: AVG IPC :0.79997: L2-Pf-HR :-nan: L2-HR :0.70190: (Sim:0h19m53s) 
CPU  0 inst:  106000001 cyc:  130354958 now IPC :1.62472: AVG IPC :0.80390: L2-Pf-HR :-nan: L2-HR :0.70305: (Sim:0h20m5s) 
CPU  0 inst:  107000002 cyc:  131047709 now IPC :1.44352: AVG IPC :0.80730: L2-Pf-HR :-nan: L2-HR :0.70418: (Sim:0h20m16s) 
CPU  0 inst:  108000005 cyc:  131628360 now IPC :1.72221: AVG IPC :0.81137: L2-Pf-HR :-nan: L2-HR :0.70532: (Sim:0h20m38s) 
CPU  0 inst:  109000005 cyc:  132290991 now IPC :1.50914: AVG IPC :0.81489: L2-Pf-HR :-nan: L2-HR :0.70652: (Sim:0h21m0s) 
CPU  0 inst:  110000000 cyc:  132930235 now IPC :1.56434: AVG IPC :0.81852: L2-Pf-HR :-nan: L2-HR :0.70752: (Sim:0h21m25s) 
CPU  0 inst:  111000001 cyc:  133515341 now IPC :1.70909: AVG IPC :0.82245: L2-Pf-HR :-nan: L2-HR :0.70893: (Sim:0h21m47s) 
CPU  0 inst:  112000000 cyc:  134219668 now IPC :1.41979: AVG IPC :0.82561: L2-Pf-HR :-nan: L2-HR :0.70964: (Sim:0h22m11s) 
CPU  0 inst:  113000004 cyc:  134797075 now IPC :1.73189: AVG IPC :0.82952: L2-Pf-HR :-nan: L2-HR :0.71081: (Sim:0h22m33s) 
CPU  0 inst:  114000005 cyc:  135470513 now IPC :1.48492: AVG IPC :0.83280: L2-Pf-HR :-nan: L2-HR :0.71168: (Sim:0h22m56s) 
CPU  0 inst:  115000000 cyc:  136025906 now IPC :1.80052: AVG IPC :0.83678: L2-Pf-HR :-nan: L2-HR :0.71269: (Sim:0h23m17s) 
CPU  0 inst:  116000001 cyc:  136705621 now IPC :1.47121: AVG IPC :0.83996: L2-Pf-HR :-nan: L2-HR :0.71376: (Sim:0h23m38s) 
CPU  0 inst:  117000001 cyc:  137282091 now IPC :1.73470: AVG IPC :0.84375: L2-Pf-HR :-nan: L2-HR :0.71463: (Sim:0h23m59s) 
CPU  0 inst:  118000002 cyc:  137941986 now IPC :1.51539: AVG IPC :0.84698: L2-Pf-HR :-nan: L2-HR :0.71565: (Sim:0h24m21s) 
CPU  0 inst:  119000005 cyc:  138535167 now IPC :1.68583: AVG IPC :0.85060: L2-Pf-HR :-nan: L2-HR :0.71652: (Sim:0h24m47s) 
CPU  0 inst:  120000000 cyc:  139196210 now IPC :1.51275: AVG IPC :0.85377: L2-Pf-HR :-nan: L2-HR :0.71747: (Sim:0h25m9s) 
CPU  0 inst:  121000000 cyc:  139764478 now IPC :1.75973: AVG IPC :0.85748: L2-Pf-HR :-nan: L2-HR :0.71834: (Sim:0h25m33s) 
CPU  0 inst:  122000000 cyc:  140400126 now IPC :1.57320: AVG IPC :0.86074: L2-Pf-HR :-nan: L2-HR :0.71926: (Sim:0h25m53s) 
CPU  0 inst:  123000004 cyc:  140954161 now IPC :1.80495: AVG IPC :0.86448: L2-Pf-HR :-nan: L2-HR :0.72020: (Sim:0h26m14s) 
CPU  0 inst:  124000004 cyc:  141619999 now IPC :1.50187: AVG IPC :0.86749: L2-Pf-HR :-nan: L2-HR :0.72099: (Sim:0h26m35s) 
CPU  0 inst:  125000002 cyc:  142197492 now IPC :1.73162: AVG IPC :0.87103: L2-Pf-HR :-nan: L2-HR :0.72188: (Sim:0h26m59s) 
CPU  0 inst:  126000002 cyc:  142866963 now IPC :1.49372: AVG IPC :0.87397: L2-Pf-HR :-nan: L2-HR :0.72266: (Sim:0h27m21s) 
CPU  0 inst:  127000003 cyc:  143428294 now IPC :1.78148: AVG IPC :0.87754: L2-Pf-HR :-nan: L2-HR :0.72351: (Sim:0h27m42s) 
CPU  0 inst:  128000003 cyc:  144071771 now IPC :1.55406: AVG IPC :0.88058: L2-Pf-HR :-nan: L2-HR :0.72426: (Sim:0h28m4s) 
CPU  0 inst:  129000002 cyc:  144637954 now IPC :1.76621: AVG IPC :0.88408: L2-Pf-HR :-nan: L2-HR :0.72512: (Sim:0h28m24s) 
CPU  0 inst:  130000001 cyc:  145258568 now IPC :1.61131: AVG IPC :0.88720: L2-Pf-HR :-nan: L2-HR :0.72600: (Sim:0h28m46s) 
CPU  0 inst:  131000003 cyc:  145881437 now IPC :1.60548: AVG IPC :0.89029: L2-Pf-HR :-nan: L2-HR :0.72667: (Sim:0h29m10s) 
CPU  0 inst:  132000004 cyc:  146455898 now IPC :1.74076: AVG IPC :0.89365: L2-Pf-HR :-nan: L2-HR :0.72773: (Sim:0h29m32s) 
CPU  0 inst:  133000004 cyc:  147120596 now IPC :1.50444: AVG IPC :0.89643: L2-Pf-HR :-nan: L2-HR :0.72818: (Sim:0h29m56s) 
CPU  0 inst:  134000003 cyc:  147682330 now IPC :1.78020: AVG IPC :0.89981: L2-Pf-HR :-nan: L2-HR :0.72904: (Sim:0h30m17s) 
CPU  0 inst:  135000005 cyc:  148340304 now IPC :1.51982: AVG IPC :0.90258: L2-Pf-HR :-nan: L2-HR :0.72964: (Sim:0h30m40s) 
CPU  0 inst:  136000002 cyc:  148890298 now IPC :1.81820: AVG IPC :0.90599: L2-Pf-HR :-nan: L2-HR :0.73040: (Sim:0h30m59s) 
CPU  0 inst:  137000002 cyc:  149541210 now IPC :1.53631: AVG IPC :0.90875: L2-Pf-HR :-nan: L2-HR :0.73115: (Sim:0h31m20s) 
CPU  0 inst:  138000002 cyc:  150106604 now IPC :1.76868: AVG IPC :0.91201: L2-Pf-HR :-nan: L2-HR :0.73180: (Sim:0h31m43s) 
CPU  0 inst:  139000003 cyc:  150762108 now IPC :1.52555: AVG IPC :0.91469: L2-Pf-HR :-nan: L2-HR :0.73251: (Sim:0h32m4s) 
CPU  0 inst:  140000001 cyc:  151325443 now IPC :1.77514: AVG IPC :0.91792: L2-Pf-HR :-nan: L2-HR :0.73316: (Sim:0h32m26s) 
CPU  0 inst:  141000001 cyc:  151971129 now IPC :1.54874: AVG IPC :0.92061: L2-Pf-HR :-nan: L2-HR :0.73382: (Sim:0h32m47s) 
CPU  0 inst:  142000003 cyc:  152506511 now IPC :1.86783: AVG IPC :0.92396: L2-Pf-HR :-nan: L2-HR :0.73459: (Sim:0h33m7s) 
CPU  0 inst:  143000001 cyc:  153151672 now IPC :1.55000: AVG IPC :0.92662: L2-Pf-HR :-nan: L2-HR :0.73513: (Sim:0h33m28s) 
CPU  0 inst:  144000005 cyc:  153705848 now IPC :1.80449: AVG IPC :0.92980: L2-Pf-HR :-nan: L2-HR :0.73585: (Sim:0h33m43s) 
CPU  0 inst:  145000000 cyc:  154366150 now IPC :1.51445: AVG IPC :0.93232: L2-Pf-HR :-nan: L2-HR :0.73640: (Sim:0h33m52s) 
CPU  0 inst:  146000005 cyc:  154934182 now IPC :1.76047: AVG IPC :0.93537: L2-Pf-HR :-nan: L2-HR :0.73708: (Sim:0h34m2s) 
CPU  0 inst:  147000003 cyc:  155599875 now IPC :1.50219: AVG IPC :0.93781: L2-Pf-HR :-nan: L2-HR :0.73763: (Sim:0h34m12s) 
CPU  0 inst:  148000003 cyc:  156160001 now IPC :1.78531: AVG IPC :0.94087: L2-Pf-HR :-nan: L2-HR :0.73828: (Sim:0h34m21s) 
Finished CPU 0 instr: 146000000 cyc: 155174973 AVG IPC: 0.94087 (Sim time: 0h34m21s)

ChampSim completed all CPUs

[ROI Statistics]
Core_0_instructions 146000000
Core_0_cycles 155174973
Core_0_IPC 0.94087

Core_0_branch_prediction_accuracy 97.68931
Core_0_branch_MPKI 0.56912
Core_0_average_ROB_occupancy_at_mispredict 505.98916

Core_0_L1D_total_access 36834538
Core_0_L1D_total_hit 34109650 L1D_total_Hit Ratio: 0.92602
Core_0_L1D_total_miss 2724888
Core_0_L1D_loads 33687954
Core_0_L1D_load_hit 31114265 L1D_load_Hit Ratio: 0.92360
Core_0_L1D_load_miss 2573689
Core_0_L1D_RFOs 3146584
Core_0_L1D_RFO_hit 2995385 L1D_RFO_Hit Ratio: 0.95195
Core_0_L1D_RFO_miss 151199
Core_0_L1D_prefetches 0
Core_0_L1D_prefetch_hit 0 L1D_prefetch_Hit Ratio: -nan
Core_0_L1D_prefetch_miss 0
Core_0_L1D_writebacks 0
Core_0_L1D_writeback_hit 0 L1D_writeback_Hit Ratio: -nan
Core_0_L1D_writeback_miss 0
Core_0_L1D_prefetch_requested 0
Core_0_L1D_prefetch_issued 0
Core_0_L1D_prefetch_useful 0 L1D_Useful Ratio: -nan
Core_0_L1D_prefetch_useless 0
Core_0_L1D_prefetch_late 0
Core_0_L1D_average_miss_latency 118.19979

Core_0_L1I_total_access 18491299
Core_0_L1I_total_hit 18489433 L1I_total_Hit Ratio: 0.99990
Core_0_L1I_total_miss 1866
Core_0_L1I_loads 18491299
Core_0_L1I_load_hit 18489433 L1I_load_Hit Ratio: 0.99990
Core_0_L1I_load_miss 1866
Core_0_L1I_RFOs 0
Core_0_L1I_RFO_hit 0 L1I_RFO_Hit Ratio: -nan
Core_0_L1I_RFO_miss 0
Core_0_L1I_prefetches 0
Core_0_L1I_prefetch_hit 0 L1I_prefetch_Hit Ratio: -nan
Core_0_L1I_prefetch_miss 0
Core_0_L1I_writebacks 0
Core_0_L1I_writeback_hit 0 L1I_writeback_Hit Ratio: -nan
Core_0_L1I_writeback_miss 0
Core_0_L1I_prefetch_requested 0
Core_0_L1I_prefetch_issued 0
Core_0_L1I_prefetch_useful 0 L1I_Useful Ratio: -nan
Core_0_L1I_prefetch_useless 0
Core_0_L1I_prefetch_late 0
Core_0_L1I_average_miss_latency 260.88692

Core_0_L2C_total_access 3468444
Core_0_L2C_total_hit 2560699 L2C_total_Hit Ratio: 0.73828
Core_0_L2C_total_miss 907745
Core_0_L2C_loads 2575553
Core_0_L2C_load_hit 1799485 L2C_load_Hit Ratio: 0.69868
Core_0_L2C_load_miss 776068
Core_0_L2C_RFOs 151194
Core_0_L2C_RFO_hit 19522 L2C_RFO_Hit Ratio: 0.12912
Core_0_L2C_RFO_miss 131672
Core_0_L2C_prefetches 0
Core_0_L2C_prefetch_hit 0 L2C_prefetch_Hit Ratio: -nan
Core_0_L2C_prefetch_miss 0
Core_0_L2C_writebacks 741697
Core_0_L2C_writeback_hit 741692 L2C_writeback_Hit Ratio: 0.99999
Core_0_L2C_writeback_miss 5
Core_0_L2C_prefetch_requested 0
Core_0_L2C_prefetch_issued 0
Core_0_L2C_prefetch_useful 0 L2C_Useful Ratio: -nan
Core_0_L2C_prefetch_useless 0
Core_0_L2C_prefetch_late 0
Core_0_L2C_average_miss_latency 296.85083

Core_0_LLC_total_access 1350890
Core_0_LLC_total_hit 462124 LLC_total_Hit Ratio: 0.34209
Core_0_LLC_total_miss 888766
Core_0_LLC_loads 776068
Core_0_LLC_load_hit 21260 LLC_load_Hit Ratio: 0.02739
Core_0_LLC_load_miss 754808
Core_0_LLC_RFOs 131672
Core_0_LLC_RFO_hit 11 LLC_RFO_Hit Ratio: 0.00008
Core_0_LLC_RFO_miss 131661
Core_0_LLC_prefetches 0
Core_0_LLC_prefetch_hit 0 LLC_prefetch_Hit Ratio: -nan
Core_0_LLC_prefetch_miss 0
Core_0_LLC_writebacks 443150
Core_0_LLC_writeback_hit 440853 LLC_writeback_Hit Ratio: 0.99482
Core_0_LLC_writeback_miss 2297
Core_0_LLC_prefetch_requested 0
Core_0_LLC_prefetch_issued 0
Core_0_LLC_prefetch_useful 0 LLC_Useful Ratio: -nan
Core_0_LLC_prefetch_useless 0
Core_0_LLC_prefetch_late 0
Core_0_LLC_average_miss_latency 261.95306

Core_0_major_page_fault 0
Core_0_minor_page_fault 9156

Channel_0_RQ_row_buffer_hit 556720
Channel_0_RQ_row_buffer_miss 329749
Channel_0_WQ_row_buffer_hit 236671
Channel_0_WQ_row_buffer_miss 176235
Channel_0_WQ_full 728
Channel_0_dbus_congested 307284

avg_congested_cycle 8

EzSearch AVG IPC :0.94087: L2-Pf-HR :-nan : L2-HR :0.73828 Uful:-nan
     > Finished combination: TraceType=770-tot Sim:146000000 Prefetcher=L2no L1=no
