TRACE: [167000000][OPT-350M]_[h16][s512][d64] Warmup: 2000000 NumTraces: 167000000
L1:no:L2:no
*************************************************
   ChampSim Multicore Out-of-Order Simulator
   Last compiled: Oct 26 2024 17:16:03
*************************************************

trace_0 770-tot_memTraces_v3/memTraces[167000000][OPT-350M]_[h16][s512][d64].champsim.xz
MAIN.cc ln 751 stats print skipped
CPU  0 inst:    1000000 cyc:     498591 now IPC :2.00565: AVG IPC :2.00565: L2-Pf-HR :-nan: L2-HR :0.61981: (Sim:0h0m18s) 
CPU  0 inst:    2000002 cyc:     981605 now IPC :2.07034: AVG IPC :2.03748: L2-Pf-HR :-nan: L2-HR :0.69402: (Sim:0h0m38s) 

Warmup complete CPU  0 instructions:    2000002 cycles:     981605 (Simulation time: 0 hr 0 min 38 sec) 

CPU  0 inst:    3000000 cyc:    1609005 now IPC :1.59388: AVG IPC :1.59388: L2-Pf-HR :-nan: L2-HR :0.79184: (Sim:0h0m55s) 
CPU  0 inst:    4000001 cyc:    2214120 now IPC :1.65258: AVG IPC :1.62270: L2-Pf-HR :-nan: L2-HR :0.77194: (Sim:0h1m12s) 
CPU  0 inst:    5000002 cyc:    2858397 now IPC :1.55213: AVG IPC :1.59847: L2-Pf-HR :-nan: L2-HR :0.77164: (Sim:0h1m29s) 
CPU  0 inst:    6000000 cyc:    3466401 now IPC :1.64472: AVG IPC :1.60979: L2-Pf-HR :-nan: L2-HR :0.78299: (Sim:0h1m46s) 
CPU  0 inst:    7000004 cyc:    4075377 now IPC :1.64211: AVG IPC :1.61615: L2-Pf-HR :-nan: L2-HR :0.78891: (Sim:0h2m2s) 
CPU  0 inst:    8000003 cyc:    4677862 now IPC :1.65979: AVG IPC :1.62326: L2-Pf-HR :-nan: L2-HR :0.78605: (Sim:0h2m19s) 
CPU  0 inst:    9000000 cyc:    5315100 now IPC :1.56927: AVG IPC :1.61532: L2-Pf-HR :-nan: L2-HR :0.78284: (Sim:0h2m36s) 
CPU  0 inst:   10000004 cyc:    5924147 now IPC :1.64192: AVG IPC :1.61860: L2-Pf-HR :-nan: L2-HR :0.78683: (Sim:0h2m53s) 
CPU  0 inst:   11000002 cyc:    6534578 now IPC :1.63818: AVG IPC :1.62075: L2-Pf-HR :-nan: L2-HR :0.78972: (Sim:0h3m10s) 
CPU  0 inst:   12000000 cyc:    7139863 now IPC :1.65211: AVG IPC :1.62384: L2-Pf-HR :-nan: L2-HR :0.78875: (Sim:0h3m26s) 
CPU  0 inst:   13000004 cyc:    7774155 now IPC :1.57657: AVG IPC :1.61942: L2-Pf-HR :-nan: L2-HR :0.78602: (Sim:0h3m43s) 
CPU  0 inst:   14000005 cyc:    8383375 now IPC :1.64144: AVG IPC :1.62123: L2-Pf-HR :-nan: L2-HR :0.78785: (Sim:0h4m0s) 
CPU  0 inst:   15000000 cyc:    8992940 now IPC :1.64051: AVG IPC :1.62270: L2-Pf-HR :-nan: L2-HR :0.79031: (Sim:0h4m17s) 
CPU  0 inst:   16000000 cyc:    9599851 now IPC :1.64769: AVG IPC :1.62446: L2-Pf-HR :-nan: L2-HR :0.78994: (Sim:0h4m34s) 
CPU  0 inst:   17000002 cyc:   10229936 now IPC :1.58709: AVG IPC :1.62191: L2-Pf-HR :-nan: L2-HR :0.78691: (Sim:0h4m51s) 
CPU  0 inst:   18000002 cyc:   10839681 now IPC :1.64003: AVG IPC :1.62303: L2-Pf-HR :-nan: L2-HR :0.78885: (Sim:0h5m7s) 
CPU  0 inst:   19000000 cyc:   11449568 now IPC :1.63964: AVG IPC :1.62400: L2-Pf-HR :-nan: L2-HR :0.78990: (Sim:0h5m24s) 
CPU  0 inst:   20000000 cyc:   12054855 now IPC :1.65211: AVG IPC :1.62554: L2-Pf-HR :-nan: L2-HR :0.79050: (Sim:0h5m41s) 
CPU  0 inst:   21000001 cyc:   12684203 now IPC :1.58895: AVG IPC :1.62357: L2-Pf-HR :-nan: L2-HR :0.78794: (Sim:0h5m58s) 
CPU  0 inst:   22000000 cyc:   13292922 now IPC :1.64279: AVG IPC :1.62452: L2-Pf-HR :-nan: L2-HR :0.78891: (Sim:0h6m15s) 
CPU  0 inst:   23000004 cyc:   13902560 now IPC :1.64032: AVG IPC :1.62527: L2-Pf-HR :-nan: L2-HR :0.79029: (Sim:0h6m31s) 
CPU  0 inst:   24000000 cyc:   14515318 now IPC :1.63196: AVG IPC :1.62557: L2-Pf-HR :-nan: L2-HR :0.79082: (Sim:0h6m48s) 
CPU  0 inst:   25000005 cyc:   15168769 now IPC :1.53034: AVG IPC :1.62118: L2-Pf-HR :-nan: L2-HR :0.78834: (Sim:0h7m5s) 
CPU  0 inst:   26000004 cyc:   15812695 now IPC :1.55297: AVG IPC :1.61822: L2-Pf-HR :-nan: L2-HR :0.78932: (Sim:0h7m22s) 
CPU  0 inst:   27000002 cyc:   16453603 now IPC :1.56028: AVG IPC :1.61582: L2-Pf-HR :-nan: L2-HR :0.79031: (Sim:0h7m40s) 
CPU  0 inst:   28000000 cyc:   17105765 now IPC :1.53336: AVG IPC :1.61249: L2-Pf-HR :-nan: L2-HR :0.79106: (Sim:0h7m57s) 
CPU  0 inst:   29000004 cyc:   17797080 now IPC :1.44652: AVG IPC :1.60566: L2-Pf-HR :-nan: L2-HR :0.78871: (Sim:0h8m15s) 
CPU  0 inst:   30000004 cyc:   18470703 now IPC :1.48451: AVG IPC :1.60100: L2-Pf-HR :-nan: L2-HR :0.78959: (Sim:0h8m32s) 
CPU  0 inst:   31000000 cyc:   19139989 now IPC :1.49412: AVG IPC :1.59706: L2-Pf-HR :-nan: L2-HR :0.79029: (Sim:0h8m49s) 
CPU  0 inst:   32000001 cyc:   19818716 now IPC :1.47335: AVG IPC :1.59260: L2-Pf-HR :-nan: L2-HR :0.79130: (Sim:0h9m7s) 
CPU  0 inst:   33000004 cyc:   20475734 now IPC :1.52203: AVG IPC :1.59022: L2-Pf-HR :-nan: L2-HR :0.78923: (Sim:0h9m24s) 
CPU  0 inst:   34000000 cyc:   21180469 now IPC :1.41897: AVG IPC :1.58425: L2-Pf-HR :-nan: L2-HR :0.78957: (Sim:0h9m42s) 
CPU  0 inst:   35000001 cyc:   21851657 now IPC :1.48990: AVG IPC :1.58121: L2-Pf-HR :-nan: L2-HR :0.79053: (Sim:0h9m59s) 
CPU  0 inst:   36000002 cyc:   22525753 now IPC :1.48347: AVG IPC :1.57815: L2-Pf-HR :-nan: L2-HR :0.79101: (Sim:0h10m17s) 
CPU  0 inst:   37000003 cyc:   23176178 now IPC :1.53746: AVG IPC :1.57696: L2-Pf-HR :-nan: L2-HR :0.79007: (Sim:0h10m34s) 
CPU  0 inst:   38000003 cyc:   23888308 now IPC :1.40424: AVG IPC :1.57159: L2-Pf-HR :-nan: L2-HR :0.78979: (Sim:0h10m52s) 
CPU  0 inst:   39000004 cyc:   24550564 now IPC :1.50999: AVG IPC :1.56986: L2-Pf-HR :-nan: L2-HR :0.79030: (Sim:0h11m9s) 
CPU  0 inst:   40000002 cyc:   25214180 now IPC :1.50689: AVG IPC :1.56814: L2-Pf-HR :-nan: L2-HR :0.79105: (Sim:0h11m26s) 
CPU  0 inst:   41000005 cyc:   25865941 now IPC :1.53431: AVG IPC :1.56725: L2-Pf-HR :-nan: L2-HR :0.79030: (Sim:0h11m44s) 
CPU  0 inst:   42000004 cyc:   26594075 now IPC :1.37337: AVG IPC :1.56174: L2-Pf-HR :-nan: L2-HR :0.78981: (Sim:0h12m2s) 
CPU  0 inst:   43000005 cyc:   27274405 now IPC :1.46988: AVG IPC :1.55936: L2-Pf-HR :-nan: L2-HR :0.79042: (Sim:0h12m19s) 
CPU  0 inst:   44000000 cyc:   27954532 now IPC :1.47031: AVG IPC :1.55712: L2-Pf-HR :-nan: L2-HR :0.79097: (Sim:0h12m37s) 
CPU  0 inst:   45000000 cyc:   28612857 now IPC :1.51901: AVG IPC :1.55621: L2-Pf-HR :-nan: L2-HR :0.79049: (Sim:0h12m54s) 
CPU  0 inst:   46000002 cyc:   29323769 now IPC :1.40665: AVG IPC :1.55246: L2-Pf-HR :-nan: L2-HR :0.78990: (Sim:0h13m12s) 
CPU  0 inst:   47000000 cyc:   29991537 now IPC :1.49752: AVG IPC :1.55119: L2-Pf-HR :-nan: L2-HR :0.79046: (Sim:0h13m29s) 
CPU  0 inst:   48000000 cyc:   30660415 now IPC :1.49504: AVG IPC :1.54993: L2-Pf-HR :-nan: L2-HR :0.79092: (Sim:0h13m46s) 
CPU  0 inst:   49000004 cyc:   31324130 now IPC :1.50668: AVG IPC :1.54898: L2-Pf-HR :-nan: L2-HR :0.79068: (Sim:0h14m4s) 
CPU  0 inst:   50000000 cyc:   32038591 now IPC :1.39965: AVG IPC :1.54555: L2-Pf-HR :-nan: L2-HR :0.79005: (Sim:0h14m21s) 
CPU  0 inst:   51000005 cyc:   32706840 now IPC :1.49646: AVG IPC :1.54451: L2-Pf-HR :-nan: L2-HR :0.79039: (Sim:0h14m39s) 
CPU  0 inst:   52000005 cyc:   33372601 now IPC :1.50204: AVG IPC :1.54364: L2-Pf-HR :-nan: L2-HR :0.79101: (Sim:0h14m56s) 
CPU  0 inst:   53000004 cyc:   34041182 now IPC :1.49570: AVG IPC :1.54267: L2-Pf-HR :-nan: L2-HR :0.79084: (Sim:0h15m13s) 
CPU  0 inst:   54000005 cyc:   34748780 now IPC :1.41323: AVG IPC :1.53996: L2-Pf-HR :-nan: L2-HR :0.78994: (Sim:0h15m31s) 
CPU  0 inst:   55000001 cyc:   35411418 now IPC :1.50911: AVG IPC :1.53936: L2-Pf-HR :-nan: L2-HR :0.79048: (Sim:0h15m48s) 
CPU  0 inst:   56000001 cyc:   36073881 now IPC :1.50952: AVG IPC :1.53880: L2-Pf-HR :-nan: L2-HR :0.79081: (Sim:0h16m6s) 
CPU  0 inst:   57000001 cyc:   36745823 now IPC :1.48822: AVG IPC :1.53785: L2-Pf-HR :-nan: L2-HR :0.79098: (Sim:0h16m23s) 
CPU  0 inst:   58000001 cyc:   37457066 now IPC :1.40599: AVG IPC :1.53528: L2-Pf-HR :-nan: L2-HR :0.79010: (Sim:0h16m41s) 
CPU  0 inst:   59000002 cyc:   38122619 now IPC :1.50251: AVG IPC :1.53469: L2-Pf-HR :-nan: L2-HR :0.79042: (Sim:0h16m58s) 
CPU  0 inst:   60000005 cyc:   38787139 now IPC :1.50485: AVG IPC :1.53417: L2-Pf-HR :-nan: L2-HR :0.79087: (Sim:0h17m16s) 
CPU  0 inst:   61000005 cyc:   39458683 now IPC :1.48911: AVG IPC :1.53338: L2-Pf-HR :-nan: L2-HR :0.79106: (Sim:0h17m33s) 
CPU  0 inst:   62000002 cyc:   40166427 now IPC :1.41294: AVG IPC :1.53121: L2-Pf-HR :-nan: L2-HR :0.79013: (Sim:0h17m51s) 
CPU  0 inst:   63000000 cyc:   40828751 now IPC :1.50983: AVG IPC :1.53085: L2-Pf-HR :-nan: L2-HR :0.79045: (Sim:0h18m8s) 
CPU  0 inst:   64000003 cyc:   41489357 now IPC :1.51377: AVG IPC :1.53057: L2-Pf-HR :-nan: L2-HR :0.79086: (Sim:0h18m25s) 
CPU  0 inst:   65000000 cyc:   42155783 now IPC :1.50054: AVG IPC :1.53009: L2-Pf-HR :-nan: L2-HR :0.79114: (Sim:0h18m43s) 
CPU  0 inst:   66000001 cyc:   43372634 now IPC :0.82179: AVG IPC :1.50975: L2-Pf-HR :-nan: L2-HR :0.78571: (Sim:0h19m2s) 
CPU  0 inst:   67000001 cyc:   47907965 now IPC :0.22049: AVG IPC :1.38515: L2-Pf-HR :-nan: L2-HR :0.74967: (Sim:0h19m47s) 
CPU  0 inst:   68000002 cyc:   52990753 now IPC :0.19674: AVG IPC :1.26901: L2-Pf-HR :-nan: L2-HR :0.72170: (Sim:0h20m34s) 
CPU  0 inst:   69000000 cyc:   57833389 now IPC :0.20650: AVG IPC :1.17850: L2-Pf-HR :-nan: L2-HR :0.71215: (Sim:0h21m13s) 
CPU  0 inst:   70000000 cyc:   62718707 now IPC :0.20469: AVG IPC :1.10144: L2-Pf-HR :-nan: L2-HR :0.70770: (Sim:0h21m50s) 
CPU  0 inst:   71000002 cyc:   67604285 now IPC :0.20468: AVG IPC :1.03568: L2-Pf-HR :-nan: L2-HR :0.70336: (Sim:0h22m28s) 
CPU  0 inst:   72000004 cyc:   72487101 now IPC :0.20480: AVG IPC :0.97895: L2-Pf-HR :-nan: L2-HR :0.69911: (Sim:0h23m5s) 
CPU  0 inst:   73000003 cyc:   77370386 now IPC :0.20478: AVG IPC :0.92946: L2-Pf-HR :-nan: L2-HR :0.69497: (Sim:0h23m42s) 
CPU  0 inst:   74000000 cyc:   82256302 now IPC :0.20467: AVG IPC :0.88588: L2-Pf-HR :-nan: L2-HR :0.69091: (Sim:0h24m19s) 
CPU  0 inst:   75000005 cyc:   87147427 now IPC :0.20445: AVG IPC :0.84720: L2-Pf-HR :-nan: L2-HR :0.68694: (Sim:0h24m57s) 
CPU  0 inst:   76000000 cyc:   92021729 now IPC :0.20516: AVG IPC :0.81283: L2-Pf-HR :-nan: L2-HR :0.68306: (Sim:0h25m34s) 
CPU  0 inst:   77000000 cyc:   96868338 now IPC :0.20633: AVG IPC :0.78217: L2-Pf-HR :-nan: L2-HR :0.67926: (Sim:0h26m11s) 
CPU  0 inst:   78000000 cyc:  101329863 now IPC :0.22414: AVG IPC :0.75736: L2-Pf-HR :-nan: L2-HR :0.67555: (Sim:0h26m47s) 
CPU  0 inst:   79000000 cyc:  105925770 now IPC :0.21758: AVG IPC :0.73372: L2-Pf-HR :-nan: L2-HR :0.67192: (Sim:0h27m23s) 
CPU  0 inst:   80000004 cyc:  110531204 now IPC :0.21714: AVG IPC :0.71201: L2-Pf-HR :-nan: L2-HR :0.66836: (Sim:0h27m59s) 
CPU  0 inst:   81000004 cyc:  115019646 now IPC :0.22279: AVG IPC :0.69275: L2-Pf-HR :-nan: L2-HR :0.66488: (Sim:0h28m34s) 
CPU  0 inst:   82000000 cyc:  119673251 now IPC :0.21489: AVG IPC :0.67402: L2-Pf-HR :-nan: L2-HR :0.66147: (Sim:0h29m11s) 
CPU  0 inst:   83000005 cyc:  124267746 now IPC :0.21765: AVG IPC :0.65701: L2-Pf-HR :-nan: L2-HR :0.65812: (Sim:0h29m47s) 
CPU  0 inst:   84000001 cyc:  128826314 now IPC :0.21937: AVG IPC :0.64140: L2-Pf-HR :-nan: L2-HR :0.65485: (Sim:0h30m23s) 
CPU  0 inst:   85000005 cyc:  133517090 now IPC :0.21319: AVG IPC :0.62625: L2-Pf-HR :-nan: L2-HR :0.65163: (Sim:0h30m59s) 
CPU  0 inst:   86000000 cyc:  138005702 now IPC :0.22278: AVG IPC :0.61303: L2-Pf-HR :-nan: L2-HR :0.64849: (Sim:0h31m35s) 
CPU  0 inst:   87000002 cyc:  142648926 now IPC :0.21537: AVG IPC :0.60000: L2-Pf-HR :-nan: L2-HR :0.64540: (Sim:0h32m12s) 
CPU  0 inst:   88000004 cyc:  147255041 now IPC :0.21710: AVG IPC :0.58794: L2-Pf-HR :-nan: L2-HR :0.64238: (Sim:0h32m49s) 
CPU  0 inst:   89000004 cyc:  151848587 now IPC :0.21770: AVG IPC :0.57667: L2-Pf-HR :-nan: L2-HR :0.63941: (Sim:0h33m26s) 
CPU  0 inst:   90000000 cyc:  156417544 now IPC :0.21887: AVG IPC :0.56615: L2-Pf-HR :-nan: L2-HR :0.63650: (Sim:0h33m52s) 
CPU  0 inst:   91000003 cyc:  161073968 now IPC :0.21476: AVG IPC :0.55593: L2-Pf-HR :-nan: L2-HR :0.63365: (Sim:0h34m10s) 
CPU  0 inst:   92000002 cyc:  165639681 now IPC :0.21902: AVG IPC :0.54659: L2-Pf-HR :-nan: L2-HR :0.63084: (Sim:0h34m27s) 
CPU  0 inst:   93000003 cyc:  170189193 now IPC :0.21980: AVG IPC :0.53780: L2-Pf-HR :-nan: L2-HR :0.62808: (Sim:0h34m44s) 
CPU  0 inst:   94000002 cyc:  174760880 now IPC :0.21874: AVG IPC :0.52941: L2-Pf-HR :-nan: L2-HR :0.62540: (Sim:0h35m1s) 
CPU  0 inst:   95000003 cyc:  179373976 now IPC :0.21677: AVG IPC :0.52132: L2-Pf-HR :-nan: L2-HR :0.62274: (Sim:0h35m18s) 
CPU  0 inst:   96000004 cyc:  183887910 now IPC :0.22154: AVG IPC :0.51392: L2-Pf-HR :-nan: L2-HR :0.62014: (Sim:0h35m35s) 
CPU  0 inst:   97000004 cyc:  188524221 now IPC :0.21569: AVG IPC :0.50655: L2-Pf-HR :-nan: L2-HR :0.61758: (Sim:0h35m52s) 
CPU  0 inst:   98000000 cyc:  193015739 now IPC :0.22264: AVG IPC :0.49991: L2-Pf-HR :-nan: L2-HR :0.61506: (Sim:0h36m9s) 
CPU  0 inst:   99000003 cyc:  197643432 now IPC :0.21609: AVG IPC :0.49323: L2-Pf-HR :-nan: L2-HR :0.61260: (Sim:0h36m26s) 
CPU  0 inst:  100000002 cyc:  202300685 now IPC :0.21472: AVG IPC :0.48679: L2-Pf-HR :-nan: L2-HR :0.61017: (Sim:0h36m43s) 
CPU  0 inst:  101000002 cyc:  204724470 now IPC :0.41258: AVG IPC :0.48591: L2-Pf-HR :-nan: L2-HR :0.60907: (Sim:0h36m56s) 
CPU  0 inst:  102000003 cyc:  205417156 now IPC :1.44366: AVG IPC :0.48915: L2-Pf-HR :-nan: L2-HR :0.60961: (Sim:0h37m5s) 
CPU  0 inst:  103000005 cyc:  206142381 now IPC :1.37889: AVG IPC :0.49230: L2-Pf-HR :-nan: L2-HR :0.60991: (Sim:0h37m15s) 
CPU  0 inst:  104000000 cyc:  206790396 now IPC :1.54317: AVG IPC :0.49561: L2-Pf-HR :-nan: L2-HR :0.61090: (Sim:0h37m24s) 
CPU  0 inst:  105000002 cyc:  207488959 now IPC :1.43151: AVG IPC :0.49877: L2-Pf-HR :-nan: L2-HR :0.61147: (Sim:0h37m33s) 
CPU  0 inst:  106000002 cyc:  208192681 now IPC :1.42102: AVG IPC :0.50190: L2-Pf-HR :-nan: L2-HR :0.61190: (Sim:0h37m43s) 
CPU  0 inst:  107000001 cyc:  208916387 now IPC :1.38178: AVG IPC :0.50497: L2-Pf-HR :-nan: L2-HR :0.61220: (Sim:0h37m52s) 
CPU  0 inst:  108000004 cyc:  209565898 now IPC :1.53962: AVG IPC :0.50819: L2-Pf-HR :-nan: L2-HR :0.61315: (Sim:0h38m2s) 
CPU  0 inst:  109000000 cyc:  210255146 now IPC :1.45085: AVG IPC :0.51129: L2-Pf-HR :-nan: L2-HR :0.61379: (Sim:0h38m11s) 
CPU  0 inst:  110000001 cyc:  210964892 now IPC :1.40896: AVG IPC :0.51433: L2-Pf-HR :-nan: L2-HR :0.61414: (Sim:0h38m20s) 
CPU  0 inst:  111000003 cyc:  211673267 now IPC :1.41168: AVG IPC :0.51734: L2-Pf-HR :-nan: L2-HR :0.61448: (Sim:0h38m32s) 
CPU  0 inst:  112000005 cyc:  212332196 now IPC :1.51762: AVG IPC :0.52046: L2-Pf-HR :-nan: L2-HR :0.61534: (Sim:0h38m53s) 
CPU  0 inst:  113000002 cyc:  213004916 now IPC :1.48650: AVG IPC :0.52353: L2-Pf-HR :-nan: L2-HR :0.61614: (Sim:0h39m15s) 
CPU  0 inst:  114000005 cyc:  213723678 now IPC :1.39129: AVG IPC :0.52646: L2-Pf-HR :-nan: L2-HR :0.61629: (Sim:0h39m36s) 
CPU  0 inst:  115000000 cyc:  214402528 now IPC :1.47307: AVG IPC :0.52947: L2-Pf-HR :-nan: L2-HR :0.61680: (Sim:0h39m58s) 
CPU  0 inst:  116000001 cyc:  215081875 now IPC :1.47200: AVG IPC :0.53246: L2-Pf-HR :-nan: L2-HR :0.61744: (Sim:0h40m19s) 
CPU  0 inst:  117000005 cyc:  215731681 now IPC :1.53893: AVG IPC :0.53551: L2-Pf-HR :-nan: L2-HR :0.61830: (Sim:0h40m39s) 
CPU  0 inst:  118000003 cyc:  216474401 now IPC :1.34640: AVG IPC :0.53830: L2-Pf-HR :-nan: L2-HR :0.61841: (Sim:0h40m50s) 
CPU  0 inst:  119000000 cyc:  217161647 now IPC :1.45508: AVG IPC :0.54122: L2-Pf-HR :-nan: L2-HR :0.61889: (Sim:0h41m0s) 
CPU  0 inst:  120000004 cyc:  217842757 now IPC :1.46820: AVG IPC :0.54413: L2-Pf-HR :-nan: L2-HR :0.61943: (Sim:0h41m12s) 
CPU  0 inst:  121000003 cyc:  218493865 now IPC :1.53584: AVG IPC :0.54710: L2-Pf-HR :-nan: L2-HR :0.62031: (Sim:0h41m22s) 
CPU  0 inst:  122000002 cyc:  219224381 now IPC :1.36889: AVG IPC :0.54985: L2-Pf-HR :-nan: L2-HR :0.62045: (Sim:0h41m31s) 
CPU  0 inst:  123000000 cyc:  219917529 now IPC :1.44269: AVG IPC :0.55267: L2-Pf-HR :-nan: L2-HR :0.62086: (Sim:0h41m40s) 
CPU  0 inst:  124000000 cyc:  220603652 now IPC :1.45746: AVG IPC :0.55550: L2-Pf-HR :-nan: L2-HR :0.62133: (Sim:0h41m50s) 
CPU  0 inst:  125000002 cyc:  221264584 now IPC :1.51302: AVG IPC :0.55837: L2-Pf-HR :-nan: L2-HR :0.62209: (Sim:0h41m59s) 
CPU  0 inst:  126000002 cyc:  221965460 now IPC :1.42679: AVG IPC :0.56113: L2-Pf-HR :-nan: L2-HR :0.62239: (Sim:0h42m9s) 
CPU  0 inst:  127000001 cyc:  222641155 now IPC :1.47996: AVG IPC :0.56393: L2-Pf-HR :-nan: L2-HR :0.62277: (Sim:0h42m18s) 
CPU  0 inst:  128000001 cyc:  223331343 now IPC :1.44888: AVG IPC :0.56667: L2-Pf-HR :-nan: L2-HR :0.62308: (Sim:0h42m27s) 
CPU  0 inst:  129000002 cyc:  223976379 now IPC :1.55030: AVG IPC :0.56952: L2-Pf-HR :-nan: L2-HR :0.62379: (Sim:0h42m36s) 
CPU  0 inst:  130000001 cyc:  224637442 now IPC :1.51271: AVG IPC :0.57231: L2-Pf-HR :-nan: L2-HR :0.62421: (Sim:0h42m46s) 
CPU  0 inst:  131000003 cyc:  225301875 now IPC :1.50505: AVG IPC :0.57507: L2-Pf-HR :-nan: L2-HR :0.62458: (Sim:0h43m0s) 
CPU  0 inst:  132000005 cyc:  225997111 now IPC :1.43836: AVG IPC :0.57774: L2-Pf-HR :-nan: L2-HR :0.62477: (Sim:0h43m10s) 
CPU  0 inst:  133000002 cyc:  226635681 now IPC :1.56599: AVG IPC :0.58053: L2-Pf-HR :-nan: L2-HR :0.62548: (Sim:0h43m19s) 
CPU  0 inst:  134000005 cyc:  227294271 now IPC :1.51840: AVG IPC :0.58326: L2-Pf-HR :-nan: L2-HR :0.62604: (Sim:0h43m29s) 
CPU  0 inst:  135000002 cyc:  227961034 now IPC :1.49978: AVG IPC :0.58596: L2-Pf-HR :-nan: L2-HR :0.62636: (Sim:0h43m38s) 
CPU  0 inst:  136000004 cyc:  228650694 now IPC :1.44999: AVG IPC :0.58857: L2-Pf-HR :-nan: L2-HR :0.62653: (Sim:0h43m47s) 
CPU  0 inst:  137000000 cyc:  229293437 now IPC :1.55583: AVG IPC :0.59130: L2-Pf-HR :-nan: L2-HR :0.62713: (Sim:0h43m57s) 
CPU  0 inst:  138000001 cyc:  229913392 now IPC :1.61302: AVG IPC :0.59406: L2-Pf-HR :-nan: L2-HR :0.62791: (Sim:0h44m6s) 
CPU  0 inst:  139000001 cyc:  230597202 now IPC :1.46239: AVG IPC :0.59665: L2-Pf-HR :-nan: L2-HR :0.62805: (Sim:0h44m17s) 
CPU  0 inst:  140000000 cyc:  231295705 now IPC :1.43163: AVG IPC :0.59918: L2-Pf-HR :-nan: L2-HR :0.62828: (Sim:0h44m26s) 
CPU  0 inst:  141000003 cyc:  231959676 now IPC :1.50609: AVG IPC :0.60179: L2-Pf-HR :-nan: L2-HR :0.62873: (Sim:0h44m35s) 
CPU  0 inst:  142000005 cyc:  232602436 now IPC :1.55579: AVG IPC :0.60444: L2-Pf-HR :-nan: L2-HR :0.62950: (Sim:0h44m44s) 
CPU  0 inst:  143000002 cyc:  233283721 now IPC :1.46781: AVG IPC :0.60697: L2-Pf-HR :-nan: L2-HR :0.62970: (Sim:0h44m54s) 
CPU  0 inst:  144000004 cyc:  233959995 now IPC :1.47869: AVG IPC :0.60950: L2-Pf-HR :-nan: L2-HR :0.62995: (Sim:0h45m3s) 
CPU  0 inst:  145000003 cyc:  234625388 now IPC :1.50287: AVG IPC :0.61204: L2-Pf-HR :-nan: L2-HR :0.63028: (Sim:0h45m12s) 
CPU  0 inst:  146000003 cyc:  235249259 now IPC :1.60290: AVG IPC :0.61468: L2-Pf-HR :-nan: L2-HR :0.63099: (Sim:0h45m22s) 
CPU  0 inst:  147000004 cyc:  235923012 now IPC :1.48422: AVG IPC :0.61718: L2-Pf-HR :-nan: L2-HR :0.63123: (Sim:0h45m31s) 
CPU  0 inst:  148000003 cyc:  236596944 now IPC :1.48383: AVG IPC :0.61965: L2-Pf-HR :-nan: L2-HR :0.63146: (Sim:0h45m41s) 
CPU  0 inst:  149000000 cyc:  237257109 now IPC :1.51477: AVG IPC :0.62216: L2-Pf-HR :-nan: L2-HR :0.63177: (Sim:0h45m50s) 
CPU  0 inst:  150000001 cyc:  237880843 now IPC :1.60325: AVG IPC :0.62474: L2-Pf-HR :-nan: L2-HR :0.63247: (Sim:0h45m59s) 
CPU  0 inst:  151000001 cyc:  238557257 now IPC :1.47838: AVG IPC :0.62717: L2-Pf-HR :-nan: L2-HR :0.63271: (Sim:0h46m8s) 
CPU  0 inst:  152000002 cyc:  239237167 now IPC :1.47078: AVG IPC :0.62958: L2-Pf-HR :-nan: L2-HR :0.63296: (Sim:0h46m18s) 
CPU  0 inst:  153000002 cyc:  239905486 now IPC :1.49629: AVG IPC :0.63200: L2-Pf-HR :-nan: L2-HR :0.63323: (Sim:0h46m27s) 
CPU  0 inst:  154000002 cyc:  240536570 now IPC :1.58458: AVG IPC :0.63451: L2-Pf-HR :-nan: L2-HR :0.63389: (Sim:0h46m36s) 
CPU  0 inst:  155000003 cyc:  241212461 now IPC :1.47953: AVG IPC :0.63689: L2-Pf-HR :-nan: L2-HR :0.63411: (Sim:0h46m45s) 
CPU  0 inst:  156000001 cyc:  241876728 now IPC :1.50542: AVG IPC :0.63928: L2-Pf-HR :-nan: L2-HR :0.63439: (Sim:0h46m55s) 
CPU  0 inst:  157000004 cyc:  242542618 now IPC :1.50175: AVG IPC :0.64166: L2-Pf-HR :-nan: L2-HR :0.63460: (Sim:0h47m4s) 
CPU  0 inst:  158000000 cyc:  243171912 now IPC :1.58908: AVG IPC :0.64412: L2-Pf-HR :-nan: L2-HR :0.63523: (Sim:0h47m13s) 
CPU  0 inst:  159000000 cyc:  243828920 now IPC :1.52205: AVG IPC :0.64650: L2-Pf-HR :-nan: L2-HR :0.63562: (Sim:0h47m23s) 
CPU  0 inst:  160000002 cyc:  244508791 now IPC :1.47087: AVG IPC :0.64880: L2-Pf-HR :-nan: L2-HR :0.63579: (Sim:0h47m32s) 
CPU  0 inst:  161000001 cyc:  245174211 now IPC :1.50281: AVG IPC :0.65113: L2-Pf-HR :-nan: L2-HR :0.63611: (Sim:0h47m41s) 
CPU  0 inst:  162000001 cyc:  245834298 now IPC :1.51495: AVG IPC :0.65345: L2-Pf-HR :-nan: L2-HR :0.63654: (Sim:0h47m51s) 
CPU  0 inst:  163000005 cyc:  246488766 now IPC :1.52796: AVG IPC :0.65579: L2-Pf-HR :-nan: L2-HR :0.63707: (Sim:0h48m0s) 
CPU  0 inst:  164000000 cyc:  247179029 now IPC :1.44872: AVG IPC :0.65801: L2-Pf-HR :-nan: L2-HR :0.63716: (Sim:0h48m9s) 
Finished CPU 0 instr: 162000004 cyc: 246197425 AVG IPC: 0.65801 (Sim time: 0h48m9s)

ChampSim completed all CPUs

[ROI Statistics]
Core_0_instructions 162000004
Core_0_cycles 246197425
Core_0_IPC 0.65801

Core_0_branch_prediction_accuracy 99.21038
Core_0_branch_MPKI 0.23475
Core_0_average_ROB_occupancy_at_mispredict 451.11152

Core_0_L1D_total_access 50519927
Core_0_L1D_total_hit 47604995 L1D_total_Hit Ratio: 0.94230
Core_0_L1D_total_miss 2914932
Core_0_L1D_loads 46171151
Core_0_L1D_load_hit 43520590 L1D_load_Hit Ratio: 0.94259
Core_0_L1D_load_miss 2650561
Core_0_L1D_RFOs 4348776
Core_0_L1D_RFO_hit 4084405 L1D_RFO_Hit Ratio: 0.93921
Core_0_L1D_RFO_miss 264371
Core_0_L1D_prefetches 0
Core_0_L1D_prefetch_hit 0 L1D_prefetch_Hit Ratio: -nan
Core_0_L1D_prefetch_miss 0
Core_0_L1D_writebacks 0
Core_0_L1D_writeback_hit 0 L1D_writeback_Hit Ratio: -nan
Core_0_L1D_writeback_miss 0
Core_0_L1D_prefetch_requested 0
Core_0_L1D_prefetch_issued 0
Core_0_L1D_prefetch_useful 0 L1D_Useful Ratio: -nan
Core_0_L1D_prefetch_useless 0
Core_0_L1D_prefetch_late 0
Core_0_L1D_average_miss_latency 161.25368

Core_0_L1I_total_access 24362260
Core_0_L1I_total_hit 24360311 L1I_total_Hit Ratio: 0.99992
Core_0_L1I_total_miss 1949
Core_0_L1I_loads 24362260
Core_0_L1I_load_hit 24360311 L1I_load_Hit Ratio: 0.99992
Core_0_L1I_load_miss 1949
Core_0_L1I_RFOs 0
Core_0_L1I_RFO_hit 0 L1I_RFO_Hit Ratio: -nan
Core_0_L1I_RFO_miss 0
Core_0_L1I_prefetches 0
Core_0_L1I_prefetch_hit 0 L1I_prefetch_Hit Ratio: -nan
Core_0_L1I_prefetch_miss 0
Core_0_L1I_writebacks 0
Core_0_L1I_writeback_hit 0 L1I_writeback_Hit Ratio: -nan
Core_0_L1I_writeback_miss 0
Core_0_L1I_prefetch_requested 0
Core_0_L1I_prefetch_issued 0
Core_0_L1I_prefetch_useful 0 L1I_Useful Ratio: -nan
Core_0_L1I_prefetch_useless 0
Core_0_L1I_prefetch_late 0
Core_0_L1I_average_miss_latency 277.56029

Core_0_L2C_total_access 3914450
Core_0_L2C_total_hit 2494117 L2C_total_Hit Ratio: 0.63716
Core_0_L2C_total_miss 1420333
Core_0_L2C_loads 2652507
Core_0_L2C_load_hit 1494517 L2C_load_Hit Ratio: 0.56344
Core_0_L2C_load_miss 1157990
Core_0_L2C_RFOs 264371
Core_0_L2C_RFO_hit 2033 L2C_RFO_Hit Ratio: 0.00769
Core_0_L2C_RFO_miss 262338
Core_0_L2C_prefetches 0
Core_0_L2C_prefetch_hit 0 L2C_prefetch_Hit Ratio: -nan
Core_0_L2C_prefetch_miss 0
Core_0_L2C_writebacks 997572
Core_0_L2C_writeback_hit 997567 L2C_writeback_Hit Ratio: 0.99999
Core_0_L2C_writeback_miss 5
Core_0_L2C_prefetch_requested 0
Core_0_L2C_prefetch_issued 0
Core_0_L2C_prefetch_useful 0 L2C_Useful Ratio: -nan
Core_0_L2C_prefetch_useless 0
Core_0_L2C_prefetch_late 0
Core_0_L2C_average_miss_latency 291.39357

Core_0_LLC_total_access 2235138
Core_0_LLC_total_hit 811170 LLC_total_Hit Ratio: 0.36292
Core_0_LLC_total_miss 1423968
Core_0_LLC_loads 1157990
Core_0_LLC_load_hit 4 LLC_load_Hit Ratio: 0.00000
Core_0_LLC_load_miss 1157986
Core_0_LLC_RFOs 262338
Core_0_LLC_RFO_hit 1 LLC_RFO_Hit Ratio: 0.00000
Core_0_LLC_RFO_miss 262337
Core_0_LLC_prefetches 0
Core_0_LLC_prefetch_hit 0 LLC_prefetch_Hit Ratio: -nan
Core_0_LLC_prefetch_miss 0
Core_0_LLC_writebacks 814810
Core_0_LLC_writeback_hit 811165 LLC_writeback_Hit Ratio: 0.99553
Core_0_LLC_writeback_miss 3645
Core_0_LLC_prefetch_requested 0
Core_0_LLC_prefetch_issued 0
Core_0_LLC_prefetch_useful 0 LLC_Useful Ratio: -nan
Core_0_LLC_prefetch_useless 0
Core_0_LLC_prefetch_late 0
Core_0_LLC_average_miss_latency 250.66664

Core_0_major_page_fault 0
Core_0_minor_page_fault 11197

Channel_0_RQ_row_buffer_hit 768465
Channel_0_RQ_row_buffer_miss 651858
Channel_0_WQ_row_buffer_hit 391920
Channel_0_WQ_row_buffer_miss 416741
Channel_0_WQ_full 3094
Channel_0_dbus_congested 610216

avg_congested_cycle 8

EzSearch AVG IPC :0.65801: L2-Pf-HR :-nan : L2-HR :0.63716 Uful:-nan
     > Finished combination: TraceType=770-tot Sim:162000000 Prefetcher=L2no L1=no
