TRACE: [125000000][OPT-125M]_[h12][s512][d64] Warmup: 2000000 NumTraces: 125000000
L1:no:L2:no
*************************************************
   ChampSim Multicore Out-of-Order Simulator
   Last compiled: Oct 26 2024 19:50:29
*************************************************

trace_0 770-tot_memTraces_v3/memTraces[125000000][OPT-125M]_[h12][s512][d64].champsim.xz
MAIN.cc ln 751 stats print skipped
CPU  0 inst:    1000001 cyc:     498745 now IPC :2.00503: AVG IPC :2.00503: L2-Pf-HR :-nan: L2-HR :0.61449: (Sim:0h0m18s) 
CPU  0 inst:    2000000 cyc:     981682 now IPC :2.07066: AVG IPC :2.03732: L2-Pf-HR :-nan: L2-HR :0.68799: (Sim:0h0m38s) 

Warmup complete CPU  0 instructions:    2000003 cycles:     981683 (Simulation time: 0 hr 0 min 38 sec) 

CPU  0 inst:    3000001 cyc:    1609357 now IPC :1.59318: AVG IPC :1.59318: L2-Pf-HR :-nan: L2-HR :0.78591: (Sim:0h0m54s) 
CPU  0 inst:    4000000 cyc:    2215970 now IPC :1.64850: AVG IPC :1.62037: L2-Pf-HR :-nan: L2-HR :0.76887: (Sim:0h1m10s) 
CPU  0 inst:    5000000 cyc:    2860106 now IPC :1.55247: AVG IPC :1.59708: L2-Pf-HR :-nan: L2-HR :0.76815: (Sim:0h1m27s) 
CPU  0 inst:    6000004 cyc:    3468843 now IPC :1.64275: AVG IPC :1.60826: L2-Pf-HR :-nan: L2-HR :0.77898: (Sim:0h1m37s) 
CPU  0 inst:    7000005 cyc:    4078420 now IPC :1.64048: AVG IPC :1.61460: L2-Pf-HR :-nan: L2-HR :0.78482: (Sim:0h1m45s) 
CPU  0 inst:    8000005 cyc:    4677574 now IPC :1.66902: AVG IPC :1.62343: L2-Pf-HR :-nan: L2-HR :0.78222: (Sim:0h1m52s) 
CPU  0 inst:    9000004 cyc:    5314557 now IPC :1.56990: AVG IPC :1.61556: L2-Pf-HR :-nan: L2-HR :0.77909: (Sim:0h2m0s) 
CPU  0 inst:   10000001 cyc:    5923436 now IPC :1.64236: AVG IPC :1.61886: L2-Pf-HR :-nan: L2-HR :0.78288: (Sim:0h2m8s) 
CPU  0 inst:   11000005 cyc:    6532496 now IPC :1.64188: AVG IPC :1.62138: L2-Pf-HR :-nan: L2-HR :0.78564: (Sim:0h2m16s) 
CPU  0 inst:   12000005 cyc:    7136755 now IPC :1.65492: AVG IPC :1.62468: L2-Pf-HR :-nan: L2-HR :0.78480: (Sim:0h2m23s) 
CPU  0 inst:   13000002 cyc:    7770543 now IPC :1.57781: AVG IPC :1.62030: L2-Pf-HR :-nan: L2-HR :0.78218: (Sim:0h2m31s) 
CPU  0 inst:   14000005 cyc:    8379607 now IPC :1.64187: AVG IPC :1.62208: L2-Pf-HR :-nan: L2-HR :0.78390: (Sim:0h2m39s) 
CPU  0 inst:   15000001 cyc:    8988319 now IPC :1.64281: AVG IPC :1.62365: L2-Pf-HR :-nan: L2-HR :0.78632: (Sim:0h2m47s) 
CPU  0 inst:   16000000 cyc:    9601650 now IPC :1.63044: AVG IPC :1.62414: L2-Pf-HR :-nan: L2-HR :0.78597: (Sim:0h2m54s) 
CPU  0 inst:   17000000 cyc:   10238094 now IPC :1.57123: AVG IPC :1.62050: L2-Pf-HR :-nan: L2-HR :0.78304: (Sim:0h3m2s) 
CPU  0 inst:   18000001 cyc:   10849435 now IPC :1.63575: AVG IPC :1.62144: L2-Pf-HR :-nan: L2-HR :0.78489: (Sim:0h3m10s) 
CPU  0 inst:   19000004 cyc:   11460358 now IPC :1.63687: AVG IPC :1.62234: L2-Pf-HR :-nan: L2-HR :0.78591: (Sim:0h3m18s) 
CPU  0 inst:   20000000 cyc:   12069074 now IPC :1.64280: AVG IPC :1.62347: L2-Pf-HR :-nan: L2-HR :0.78651: (Sim:0h3m25s) 
CPU  0 inst:   21000005 cyc:   12697621 now IPC :1.59098: AVG IPC :1.62172: L2-Pf-HR :-nan: L2-HR :0.78402: (Sim:0h3m33s) 
CPU  0 inst:   22000004 cyc:   13308655 now IPC :1.63657: AVG IPC :1.62246: L2-Pf-HR :-nan: L2-HR :0.78498: (Sim:0h3m41s) 
CPU  0 inst:   23000003 cyc:   13918918 now IPC :1.63864: AVG IPC :1.62322: L2-Pf-HR :-nan: L2-HR :0.78627: (Sim:0h3m49s) 
CPU  0 inst:   24000004 cyc:   14540032 now IPC :1.61001: AVG IPC :1.62262: L2-Pf-HR :-nan: L2-HR :0.78682: (Sim:0h3m56s) 
CPU  0 inst:   25000003 cyc:   15178945 now IPC :1.56516: AVG IPC :1.62003: L2-Pf-HR :-nan: L2-HR :0.78443: (Sim:0h4m13s) 
CPU  0 inst:   26000002 cyc:   15819921 now IPC :1.56012: AVG IPC :1.61744: L2-Pf-HR :-nan: L2-HR :0.78536: (Sim:0h4m31s) 
CPU  0 inst:   27000003 cyc:   16463255 now IPC :1.55440: AVG IPC :1.61482: L2-Pf-HR :-nan: L2-HR :0.78633: (Sim:0h4m39s) 
CPU  0 inst:   28000001 cyc:   17118572 now IPC :1.52598: AVG IPC :1.61121: L2-Pf-HR :-nan: L2-HR :0.78703: (Sim:0h4m47s) 
CPU  0 inst:   29000002 cyc:   17813588 now IPC :1.43882: AVG IPC :1.60410: L2-Pf-HR :-nan: L2-HR :0.78478: (Sim:0h4m55s) 
CPU  0 inst:   30000000 cyc:   18484113 now IPC :1.49137: AVG IPC :1.59978: L2-Pf-HR :-nan: L2-HR :0.78563: (Sim:0h5m3s) 
CPU  0 inst:   31000001 cyc:   19150878 now IPC :1.49978: AVG IPC :1.59611: L2-Pf-HR :-nan: L2-HR :0.78632: (Sim:0h5m11s) 
CPU  0 inst:   32000003 cyc:   19825860 now IPC :1.48152: AVG IPC :1.59200: L2-Pf-HR :-nan: L2-HR :0.78728: (Sim:0h5m19s) 
CPU  0 inst:   33000003 cyc:   20488666 now IPC :1.50874: AVG IPC :1.58917: L2-Pf-HR :-nan: L2-HR :0.78527: (Sim:0h5m27s) 
CPU  0 inst:   34000004 cyc:   21189104 now IPC :1.42768: AVG IPC :1.58358: L2-Pf-HR :-nan: L2-HR :0.78562: (Sim:0h5m35s) 
CPU  0 inst:   35000005 cyc:   21856526 now IPC :1.49830: AVG IPC :1.58085: L2-Pf-HR :-nan: L2-HR :0.78657: (Sim:0h5m43s) 
CPU  0 inst:   36000000 cyc:   22523510 now IPC :1.49928: AVG IPC :1.57832: L2-Pf-HR :-nan: L2-HR :0.78702: (Sim:0h5m51s) 
CPU  0 inst:   37000005 cyc:   23171438 now IPC :1.54339: AVG IPC :1.57730: L2-Pf-HR :-nan: L2-HR :0.78616: (Sim:0h5m59s) 
CPU  0 inst:   38000004 cyc:   23889011 now IPC :1.39359: AVG IPC :1.57155: L2-Pf-HR :-nan: L2-HR :0.78584: (Sim:0h6m8s) 
CPU  0 inst:   39000002 cyc:   24562382 now IPC :1.48506: AVG IPC :1.56908: L2-Pf-HR :-nan: L2-HR :0.78634: (Sim:0h6m16s) 
CPU  0 inst:   40000000 cyc:   25240540 now IPC :1.47458: AVG IPC :1.56644: L2-Pf-HR :-nan: L2-HR :0.78705: (Sim:0h6m24s) 
CPU  0 inst:   41000003 cyc:   25899432 now IPC :1.51770: AVG IPC :1.56515: L2-Pf-HR :-nan: L2-HR :0.78638: (Sim:0h6m32s) 
CPU  0 inst:   42000002 cyc:   26618811 now IPC :1.39009: AVG IPC :1.56024: L2-Pf-HR :-nan: L2-HR :0.78587: (Sim:0h6m44s) 
CPU  0 inst:   43000000 cyc:   27285701 now IPC :1.49949: AVG IPC :1.55870: L2-Pf-HR :-nan: L2-HR :0.78646: (Sim:0h7m2s) 
CPU  0 inst:   44000001 cyc:   27955596 now IPC :1.49277: AVG IPC :1.55706: L2-Pf-HR :-nan: L2-HR :0.78699: (Sim:0h7m19s) 
CPU  0 inst:   45000001 cyc:   28626255 now IPC :1.49107: AVG IPC :1.55546: L2-Pf-HR :-nan: L2-HR :0.78655: (Sim:0h7m37s) 
CPU  0 inst:   46000002 cyc:   29349424 now IPC :1.38280: AVG IPC :1.55106: L2-Pf-HR :-nan: L2-HR :0.78597: (Sim:0h7m55s) 
CPU  0 inst:   47000004 cyc:   30014175 now IPC :1.50433: AVG IPC :1.54999: L2-Pf-HR :-nan: L2-HR :0.78651: (Sim:0h8m13s) 
CPU  0 inst:   48000005 cyc:   30679388 now IPC :1.50328: AVG IPC :1.54894: L2-Pf-HR :-nan: L2-HR :0.78694: (Sim:0h8m31s) 
CPU  0 inst:   49000004 cyc:   31344453 now IPC :1.50361: AVG IPC :1.54795: L2-Pf-HR :-nan: L2-HR :0.78674: (Sim:0h8m48s) 
CPU  0 inst:   50000001 cyc:   34286206 now IPC :0.33993: AVG IPC :1.44125: L2-Pf-HR :-nan: L2-HR :0.75740: (Sim:0h9m15s) 
CPU  0 inst:   51000000 cyc:   39014034 now IPC :0.21151: AVG IPC :1.28838: L2-Pf-HR :-nan: L2-HR :0.71786: (Sim:0h9m36s) 
CPU  0 inst:   52000000 cyc:   43852041 now IPC :0.20670: AVG IPC :1.16631: L2-Pf-HR :-nan: L2-HR :0.70587: (Sim:0h9m54s) 
CPU  0 inst:   53000000 cyc:   48736553 now IPC :0.20473: AVG IPC :1.06795: L2-Pf-HR :-nan: L2-HR :0.69997: (Sim:0h10m12s) 
CPU  0 inst:   54000000 cyc:   53620205 now IPC :0.20476: AVG IPC :0.98787: L2-Pf-HR :-nan: L2-HR :0.69424: (Sim:0h10m30s) 
CPU  0 inst:   55000001 cyc:   58510460 now IPC :0.20449: AVG IPC :0.92128: L2-Pf-HR :-nan: L2-HR :0.68867: (Sim:0h10m48s) 
CPU  0 inst:   56000002 cyc:   63396525 now IPC :0.20466: AVG IPC :0.86518: L2-Pf-HR :-nan: L2-HR :0.68329: (Sim:0h11m6s) 
CPU  0 inst:   57000000 cyc:   68278909 now IPC :0.20482: AVG IPC :0.81727: L2-Pf-HR :-nan: L2-HR :0.67806: (Sim:0h11m24s) 
CPU  0 inst:   58000000 cyc:   73163532 now IPC :0.20472: AVG IPC :0.77582: L2-Pf-HR :-nan: L2-HR :0.67299: (Sim:0h11m42s) 
CPU  0 inst:   59000000 cyc:   77983627 now IPC :0.20746: AVG IPC :0.74024: L2-Pf-HR :-nan: L2-HR :0.66807: (Sim:0h12m0s) 
CPU  0 inst:   60000000 cyc:   82641135 now IPC :0.21471: AVG IPC :0.71027: L2-Pf-HR :-nan: L2-HR :0.66329: (Sim:0h12m22s) 
CPU  0 inst:   61000004 cyc:   87234825 now IPC :0.21769: AVG IPC :0.68403: L2-Pf-HR :-nan: L2-HR :0.65864: (Sim:0h12m58s) 
CPU  0 inst:   62000000 cyc:   91877981 now IPC :0.21537: AVG IPC :0.66009: L2-Pf-HR :-nan: L2-HR :0.65411: (Sim:0h13m34s) 
CPU  0 inst:   63000000 cyc:   96510689 now IPC :0.21586: AVG IPC :0.63855: L2-Pf-HR :-nan: L2-HR :0.64972: (Sim:0h14m10s) 
CPU  0 inst:   64000005 cyc:  101080026 now IPC :0.21885: AVG IPC :0.61939: L2-Pf-HR :-nan: L2-HR :0.64544: (Sim:0h14m45s) 
CPU  0 inst:   65000002 cyc:  105702777 now IPC :0.21632: AVG IPC :0.60160: L2-Pf-HR :-nan: L2-HR :0.64127: (Sim:0h15m21s) 
CPU  0 inst:   66000000 cyc:  110255854 now IPC :0.21963: AVG IPC :0.58568: L2-Pf-HR :-nan: L2-HR :0.63722: (Sim:0h15m56s) 
CPU  0 inst:   67000000 cyc:  114850260 now IPC :0.21766: AVG IPC :0.57083: L2-Pf-HR :-nan: L2-HR :0.63327: (Sim:0h16m32s) 
CPU  0 inst:   68000000 cyc:  119426490 now IPC :0.21852: AVG IPC :0.55722: L2-Pf-HR :-nan: L2-HR :0.62943: (Sim:0h17m7s) 
CPU  0 inst:   69000004 cyc:  124054691 now IPC :0.21607: AVG IPC :0.54439: L2-Pf-HR :-nan: L2-HR :0.62568: (Sim:0h17m44s) 
CPU  0 inst:   70000000 cyc:  128712792 now IPC :0.21468: AVG IPC :0.53237: L2-Pf-HR :-nan: L2-HR :0.62202: (Sim:0h18m21s) 
CPU  0 inst:   71000000 cyc:  133311950 now IPC :0.21743: AVG IPC :0.52142: L2-Pf-HR :-nan: L2-HR :0.61846: (Sim:0h18m58s) 
CPU  0 inst:   72000000 cyc:  137819950 now IPC :0.22183: AVG IPC :0.51155: L2-Pf-HR :-nan: L2-HR :0.61498: (Sim:0h19m35s) 
CPU  0 inst:   73000000 cyc:  142416121 now IPC :0.21757: AVG IPC :0.50200: L2-Pf-HR :-nan: L2-HR :0.61159: (Sim:0h20m12s) 
CPU  0 inst:   74000001 cyc:  147041163 now IPC :0.21621: AVG IPC :0.49295: L2-Pf-HR :-nan: L2-HR :0.60827: (Sim:0h20m49s) 
CPU  0 inst:   75000002 cyc:  151710815 now IPC :0.21415: AVG IPC :0.48431: L2-Pf-HR :-nan: L2-HR :0.60503: (Sim:0h21m26s) 
CPU  0 inst:   76000000 cyc:  153979241 now IPC :0.44083: AVG IPC :0.48367: L2-Pf-HR :-nan: L2-HR :0.60370: (Sim:0h21m53s) 
CPU  0 inst:   77000002 cyc:  154677155 now IPC :1.43284: AVG IPC :0.48798: L2-Pf-HR :-nan: L2-HR :0.60434: (Sim:0h22m15s) 
CPU  0 inst:   78000004 cyc:  155370934 now IPC :1.44138: AVG IPC :0.49226: L2-Pf-HR :-nan: L2-HR :0.60511: (Sim:0h22m36s) 
CPU  0 inst:   79000000 cyc:  156023507 now IPC :1.53239: AVG IPC :0.49664: L2-Pf-HR :-nan: L2-HR :0.60650: (Sim:0h22m57s) 
CPU  0 inst:   80000005 cyc:  156746279 now IPC :1.38357: AVG IPC :0.50076: L2-Pf-HR :-nan: L2-HR :0.60699: (Sim:0h23m19s) 
CPU  0 inst:   81000000 cyc:  157433886 now IPC :1.45431: AVG IPC :0.50495: L2-Pf-HR :-nan: L2-HR :0.60768: (Sim:0h23m41s) 
CPU  0 inst:   82000001 cyc:  158130380 now IPC :1.43576: AVG IPC :0.50907: L2-Pf-HR :-nan: L2-HR :0.60833: (Sim:0h24m2s) 
CPU  0 inst:   83000003 cyc:  158777408 now IPC :1.54553: AVG IPC :0.51332: L2-Pf-HR :-nan: L2-HR :0.60964: (Sim:0h24m23s) 
CPU  0 inst:   84000004 cyc:  159485252 now IPC :1.41274: AVG IPC :0.51734: L2-Pf-HR :-nan: L2-HR :0.61025: (Sim:0h24m38s) 
CPU  0 inst:   85000005 cyc:  160178168 now IPC :1.44318: AVG IPC :0.52137: L2-Pf-HR :-nan: L2-HR :0.61088: (Sim:0h24m48s) 
CPU  0 inst:   86000003 cyc:  160879065 now IPC :1.42674: AVG IPC :0.52534: L2-Pf-HR :-nan: L2-HR :0.61142: (Sim:0h25m3s) 
CPU  0 inst:   87000002 cyc:  161534337 now IPC :1.52608: AVG IPC :0.52942: L2-Pf-HR :-nan: L2-HR :0.61263: (Sim:0h25m24s) 
CPU  0 inst:   88000002 cyc:  162228527 now IPC :1.44053: AVG IPC :0.53334: L2-Pf-HR :-nan: L2-HR :0.61343: (Sim:0h25m45s) 
CPU  0 inst:   89000000 cyc:  162929744 now IPC :1.42609: AVG IPC :0.53721: L2-Pf-HR :-nan: L2-HR :0.61390: (Sim:0h26m7s) 
CPU  0 inst:   90000001 cyc:  163609417 now IPC :1.47130: AVG IPC :0.54111: L2-Pf-HR :-nan: L2-HR :0.61455: (Sim:0h26m28s) 
CPU  0 inst:   91000004 cyc:  164301313 now IPC :1.44531: AVG IPC :0.54494: L2-Pf-HR :-nan: L2-HR :0.61537: (Sim:0h26m49s) 
CPU  0 inst:   92000000 cyc:  164951831 now IPC :1.53723: AVG IPC :0.54888: L2-Pf-HR :-nan: L2-HR :0.61649: (Sim:0h27m10s) 
CPU  0 inst:   93000002 cyc:  165681667 now IPC :1.37017: AVG IPC :0.55252: L2-Pf-HR :-nan: L2-HR :0.61678: (Sim:0h27m32s) 
CPU  0 inst:   94000004 cyc:  166364777 now IPC :1.46390: AVG IPC :0.55628: L2-Pf-HR :-nan: L2-HR :0.61740: (Sim:0h27m53s) 
CPU  0 inst:   95000002 cyc:  167079541 now IPC :1.39906: AVG IPC :0.55991: L2-Pf-HR :-nan: L2-HR :0.61796: (Sim:0h28m14s) 
CPU  0 inst:   96000001 cyc:  167727468 now IPC :1.54338: AVG IPC :0.56373: L2-Pf-HR :-nan: L2-HR :0.61912: (Sim:0h28m36s) 
CPU  0 inst:   97000001 cyc:  168433909 now IPC :1.41555: AVG IPC :0.56733: L2-Pf-HR :-nan: L2-HR :0.61947: (Sim:0h28m57s) 
CPU  0 inst:   98000005 cyc:  169123565 now IPC :1.45000: AVG IPC :0.57095: L2-Pf-HR :-nan: L2-HR :0.62002: (Sim:0h29m18s) 
CPU  0 inst:   99000002 cyc:  169831660 now IPC :1.41224: AVG IPC :0.57447: L2-Pf-HR :-nan: L2-HR :0.62044: (Sim:0h29m40s) 
CPU  0 inst:  100000002 cyc:  170481160 now IPC :1.53965: AVG IPC :0.57817: L2-Pf-HR :-nan: L2-HR :0.62153: (Sim:0h30m1s) 
CPU  0 inst:  101000003 cyc:  171170469 now IPC :1.45073: AVG IPC :0.58171: L2-Pf-HR :-nan: L2-HR :0.62203: (Sim:0h30m22s) 
CPU  0 inst:  102000004 cyc:  171848224 now IPC :1.47546: AVG IPC :0.58525: L2-Pf-HR :-nan: L2-HR :0.62255: (Sim:0h30m43s) 
CPU  0 inst:  103000004 cyc:  172550454 now IPC :1.42403: AVG IPC :0.58869: L2-Pf-HR :-nan: L2-HR :0.62283: (Sim:0h31m5s) 
CPU  0 inst:  104000005 cyc:  173191326 now IPC :1.56038: AVG IPC :0.59230: L2-Pf-HR :-nan: L2-HR :0.62387: (Sim:0h31m26s) 
CPU  0 inst:  105000001 cyc:  173857761 now IPC :1.50052: AVG IPC :0.59580: L2-Pf-HR :-nan: L2-HR :0.62444: (Sim:0h31m47s) 
CPU  0 inst:  106000003 cyc:  174530381 now IPC :1.48673: AVG IPC :0.59926: L2-Pf-HR :-nan: L2-HR :0.62487: (Sim:0h32m8s) 
CPU  0 inst:  107000000 cyc:  175219003 now IPC :1.45217: AVG IPC :0.60263: L2-Pf-HR :-nan: L2-HR :0.62508: (Sim:0h32m29s) 
CPU  0 inst:  108000004 cyc:  175842605 now IPC :1.60359: AVG IPC :0.60620: L2-Pf-HR :-nan: L2-HR :0.62605: (Sim:0h32m50s) 
CPU  0 inst:  109000003 cyc:  176491311 now IPC :1.54153: AVG IPC :0.60965: L2-Pf-HR :-nan: L2-HR :0.62672: (Sim:0h33m11s) 
CPU  0 inst:  110000001 cyc:  177161248 now IPC :1.49267: AVG IPC :0.61301: L2-Pf-HR :-nan: L2-HR :0.62701: (Sim:0h33m32s) 
CPU  0 inst:  111000000 cyc:  177843210 now IPC :1.46636: AVG IPC :0.61630: L2-Pf-HR :-nan: L2-HR :0.62724: (Sim:0h33m53s) 
CPU  0 inst:  112000004 cyc:  178473575 now IPC :1.58639: AVG IPC :0.61975: L2-Pf-HR :-nan: L2-HR :0.62810: (Sim:0h34m14s) 
CPU  0 inst:  113000001 cyc:  179116632 now IPC :1.55507: AVG IPC :0.62312: L2-Pf-HR :-nan: L2-HR :0.62894: (Sim:0h34m35s) 
CPU  0 inst:  114000003 cyc:  179811421 now IPC :1.43929: AVG IPC :0.62629: L2-Pf-HR :-nan: L2-HR :0.62902: (Sim:0h34m56s) 
CPU  0 inst:  115000000 cyc:  180469581 now IPC :1.51938: AVG IPC :0.62957: L2-Pf-HR :-nan: L2-HR :0.62948: (Sim:0h35m17s) 
CPU  0 inst:  116000000 cyc:  181126438 now IPC :1.52240: AVG IPC :0.63282: L2-Pf-HR :-nan: L2-HR :0.63011: (Sim:0h35m38s) 
CPU  0 inst:  117000005 cyc:  181755870 now IPC :1.58874: AVG IPC :0.63615: L2-Pf-HR :-nan: L2-HR :0.63103: (Sim:0h35m53s) 
CPU  0 inst:  118000001 cyc:  182467608 now IPC :1.40501: AVG IPC :0.63917: L2-Pf-HR :-nan: L2-HR :0.63106: (Sim:0h36m3s) 
CPU  0 inst:  119000004 cyc:  183126481 now IPC :1.51775: AVG IPC :0.64235: L2-Pf-HR :-nan: L2-HR :0.63151: (Sim:0h36m12s) 
CPU  0 inst:  120000004 cyc:  183783609 now IPC :1.52177: AVG IPC :0.64551: L2-Pf-HR :-nan: L2-HR :0.63201: (Sim:0h36m22s) 
CPU  0 inst:  121000003 cyc:  184407564 now IPC :1.60268: AVG IPC :0.64876: L2-Pf-HR :-nan: L2-HR :0.63290: (Sim:0h36m31s) 
CPU  0 inst:  122000003 cyc:  185110067 now IPC :1.42348: AVG IPC :0.65172: L2-Pf-HR :-nan: L2-HR :0.63298: (Sim:0h36m41s) 
Finished CPU 0 instr: 120000000 cyc: 184128384 AVG IPC: 0.65172 (Sim time: 0h36m41s)

ChampSim completed all CPUs

[ROI Statistics]
Core_0_instructions 120000000
Core_0_cycles 184128384
Core_0_IPC 0.65172

Core_0_branch_prediction_accuracy 99.19469
Core_0_branch_MPKI 0.24154
Core_0_average_ROB_occupancy_at_mispredict 445.20366

Core_0_L1D_total_access 37412865
Core_0_L1D_total_hit 35274040 L1D_total_Hit Ratio: 0.94283
Core_0_L1D_total_miss 2138825
Core_0_L1D_loads 34164107
Core_0_L1D_load_hit 32223582 L1D_load_Hit Ratio: 0.94320
Core_0_L1D_load_miss 1940525
Core_0_L1D_RFOs 3248758
Core_0_L1D_RFO_hit 3050458 L1D_RFO_Hit Ratio: 0.93896
Core_0_L1D_RFO_miss 198300
Core_0_L1D_prefetches 0
Core_0_L1D_prefetch_hit 0 L1D_prefetch_Hit Ratio: -nan
Core_0_L1D_prefetch_miss 0
Core_0_L1D_writebacks 0
Core_0_L1D_writeback_hit 0 L1D_writeback_Hit Ratio: -nan
Core_0_L1D_writeback_miss 0
Core_0_L1D_prefetch_requested 0
Core_0_L1D_prefetch_issued 0
Core_0_L1D_prefetch_useful 0 L1D_Useful Ratio: -nan
Core_0_L1D_prefetch_useless 0
Core_0_L1D_prefetch_late 0
Core_0_L1D_average_miss_latency 162.37027

Core_0_L1I_total_access 18117818
Core_0_L1I_total_hit 18115835 L1I_total_Hit Ratio: 0.99989
Core_0_L1I_total_miss 1983
Core_0_L1I_loads 18117818
Core_0_L1I_load_hit 18115835 L1I_load_Hit Ratio: 0.99989
Core_0_L1I_load_miss 1983
Core_0_L1I_RFOs 0
Core_0_L1I_RFO_hit 0 L1I_RFO_Hit Ratio: -nan
Core_0_L1I_RFO_miss 0
Core_0_L1I_prefetches 0
Core_0_L1I_prefetch_hit 0 L1I_prefetch_Hit Ratio: -nan
Core_0_L1I_prefetch_miss 0
Core_0_L1I_writebacks 0
Core_0_L1I_writeback_hit 0 L1I_writeback_Hit Ratio: -nan
Core_0_L1I_writeback_miss 0
Core_0_L1I_prefetch_requested 0
Core_0_L1I_prefetch_issued 0
Core_0_L1I_prefetch_useful 0 L1I_Useful Ratio: -nan
Core_0_L1I_prefetch_useless 0
Core_0_L1I_prefetch_late 0
Core_0_L1I_average_miss_latency 281.73626

Core_0_L2C_total_access 2885038
Core_0_L2C_total_hit 1826166 L2C_total_Hit Ratio: 0.63298
Core_0_L2C_total_miss 1058872
Core_0_L2C_loads 1942508
Core_0_L2C_load_hit 1080443 L2C_load_Hit Ratio: 0.55621
Core_0_L2C_load_miss 862065
Core_0_L2C_RFOs 198300
Core_0_L2C_RFO_hit 1498 L2C_RFO_Hit Ratio: 0.00755
Core_0_L2C_RFO_miss 196802
Core_0_L2C_prefetches 0
Core_0_L2C_prefetch_hit 0 L2C_prefetch_Hit Ratio: -nan
Core_0_L2C_prefetch_miss 0
Core_0_L2C_writebacks 744230
Core_0_L2C_writeback_hit 744225 L2C_writeback_Hit Ratio: 0.99999
Core_0_L2C_writeback_miss 5
Core_0_L2C_prefetch_requested 0
Core_0_L2C_prefetch_issued 0
Core_0_L2C_prefetch_useful 0 L2C_Useful Ratio: -nan
Core_0_L2C_prefetch_useless 0
Core_0_L2C_prefetch_late 0
Core_0_L2C_average_miss_latency 289.17233

Core_0_LLC_total_access 1668910
Core_0_LLC_total_hit 606403 LLC_total_Hit Ratio: 0.36335
Core_0_LLC_total_miss 1062507
Core_0_LLC_loads 862065
Core_0_LLC_load_hit 5 LLC_load_Hit Ratio: 0.00001
Core_0_LLC_load_miss 862060
Core_0_LLC_RFOs 196802
Core_0_LLC_RFO_hit 1 LLC_RFO_Hit Ratio: 0.00001
Core_0_LLC_RFO_miss 196801
Core_0_LLC_prefetches 0
Core_0_LLC_prefetch_hit 0 LLC_prefetch_Hit Ratio: -nan
Core_0_LLC_prefetch_miss 0
Core_0_LLC_writebacks 610043
Core_0_LLC_writeback_hit 606397 LLC_writeback_Hit Ratio: 0.99402
Core_0_LLC_writeback_miss 3646
Core_0_LLC_prefetch_requested 0
Core_0_LLC_prefetch_issued 0
Core_0_LLC_prefetch_useful 0 LLC_Useful Ratio: -nan
Core_0_LLC_prefetch_useless 0
Core_0_LLC_prefetch_late 0
Core_0_LLC_average_miss_latency 248.23318

Core_0_major_page_fault 0
Core_0_minor_page_fault 8629

Channel_0_RQ_row_buffer_hit 562979
Channel_0_RQ_row_buffer_miss 495882
Channel_0_WQ_row_buffer_hit 291645
Channel_0_WQ_row_buffer_miss 313982
Channel_0_WQ_full 2639
Channel_0_dbus_congested 451276

avg_congested_cycle 8

EzSearch AVG IPC :0.65172: L2-Pf-HR :-nan : L2-HR :0.63298 Uful:-nan
     > Finished combination: TraceType=770-tot Sim:120000000 Prefetcher=L2no L1=no
