TRACE: [298000000][GPT-Neo_1_3B]_[h16][s512][d128] Warmup: 2000000 NumTraces: 298000000
L1:no:L2:spp_berti_src
Initialize SIGNATURE TABLE
ST_SET: 1
ST_WAY: 256
ST_TAG_BIT: 16
ST_TAG_MASK: ffff

Initialize PATTERN TABLE
PT_SET: 512
PT_WAY: 4
SIG_DELTA_BIT: 7
C_SIG_BIT: 4
C_DELTA_BIT: 4

Initialize PREFETCH FILTER
FILTER_SET: 1024
*************************************************
   ChampSim Multicore Out-of-Order Simulator
   Last compiled: Oct 26 2024 20:24:18
*************************************************

trace_0 770-tot_memTraces_v3/memTraces[298000000][GPT-Neo_1_3B]_[h16][s512][d128].champsim.xz
ST_WAYS: 256
PT_SETS: 512
MAIN.cc ln 751 stats print skipped
CPU  0 inst:    1000003 cyc:     498135 now IPC :2.00749: AVG IPC :2.00749: L2-Pf-HR :0.97806: L2-HR :0.86133: (Sim:0h0m18s) 
CPU  0 inst:    2000001 cyc:     982942 now IPC :2.06267: AVG IPC :2.03471: L2-Pf-HR :0.98481: L2-HR :0.90773: (Sim:0h0m38s) 

Warmup complete CPU  0 instructions:    2000001 cycles:     982942 (Simulation time: 0 hr 0 min 38 sec) 

CPU  0 inst:    3000003 cyc:    1518412 now IPC :1.86752: AVG IPC :1.86752: L2-Pf-HR :0.99373: L2-HR :0.95013: (Sim:0h0m53s) 
CPU  0 inst:    4000002 cyc:    2055475 now IPC :1.86198: AVG IPC :1.86475: L2-Pf-HR :0.99298: L2-HR :0.94922: (Sim:0h1m9s) 
CPU  0 inst:    5000004 cyc:    2602656 now IPC :1.82755: AVG IPC :1.85218: L2-Pf-HR :0.99303: L2-HR :0.94841: (Sim:0h1m25s) 
CPU  0 inst:    6000000 cyc:    3142607 now IPC :1.85201: AVG IPC :1.85214: L2-Pf-HR :0.99285: L2-HR :0.94887: (Sim:0h1m41s) 
CPU  0 inst:    7000000 cyc:    3684053 now IPC :1.84691: AVG IPC :1.85109: L2-Pf-HR :0.99369: L2-HR :0.95084: (Sim:0h1m56s) 
CPU  0 inst:    8000001 cyc:    4186773 now IPC :1.98918: AVG IPC :1.87276: L2-Pf-HR :0.99371: L2-HR :0.95227: (Sim:0h2m12s) 
CPU  0 inst:    9000005 cyc:    4787167 now IPC :1.66558: AVG IPC :1.84006: L2-Pf-HR :0.99461: L2-HR :0.94849: (Sim:0h2m28s) 
CPU  0 inst:   10000001 cyc:    5314744 now IPC :1.89545: AVG IPC :1.84681: L2-Pf-HR :0.99472: L2-HR :0.94978: (Sim:0h2m44s) 
CPU  0 inst:   11000000 cyc:    5844314 now IPC :1.88832: AVG IPC :1.85133: L2-Pf-HR :0.99483: L2-HR :0.95079: (Sim:0h2m59s) 
CPU  0 inst:   12000001 cyc:    6363443 now IPC :1.92631: AVG IPC :1.85856: L2-Pf-HR :0.99492: L2-HR :0.95178: (Sim:0h3m15s) 
CPU  0 inst:   13000004 cyc:    6888700 now IPC :1.90384: AVG IPC :1.86259: L2-Pf-HR :0.99504: L2-HR :0.95234: (Sim:0h3m31s) 
CPU  0 inst:   14000000 cyc:    7412081 now IPC :1.91065: AVG IPC :1.86650: L2-Pf-HR :0.99526: L2-HR :0.95325: (Sim:0h3m46s) 
CPU  0 inst:   15000005 cyc:    7952318 now IPC :1.85105: AVG IPC :1.86530: L2-Pf-HR :0.99545: L2-HR :0.95374: (Sim:0h4m2s) 
CPU  0 inst:   16000003 cyc:    8458720 now IPC :1.97471: AVG IPC :1.87271: L2-Pf-HR :0.99538: L2-HR :0.95415: (Sim:0h4m18s) 
CPU  0 inst:   17000002 cyc:    9060627 now IPC :1.66138: AVG IPC :1.85697: L2-Pf-HR :0.99565: L2-HR :0.95234: (Sim:0h4m34s) 
CPU  0 inst:   18000005 cyc:    9588705 now IPC :1.89367: AVG IPC :1.85922: L2-Pf-HR :0.99566: L2-HR :0.95281: (Sim:0h4m49s) 
CPU  0 inst:   19000003 cyc:   10109081 now IPC :1.92168: AVG IPC :1.86278: L2-Pf-HR :0.99577: L2-HR :0.95349: (Sim:0h5m5s) 
CPU  0 inst:   20000004 cyc:   10639322 now IPC :1.88594: AVG IPC :1.86405: L2-Pf-HR :0.99580: L2-HR :0.95370: (Sim:0h5m21s) 
CPU  0 inst:   21000001 cyc:   11171033 now IPC :1.88072: AVG IPC :1.86492: L2-Pf-HR :0.99581: L2-HR :0.95391: (Sim:0h5m36s) 
CPU  0 inst:   22000000 cyc:   11697617 now IPC :1.89903: AVG IPC :1.86660: L2-Pf-HR :0.99584: L2-HR :0.95438: (Sim:0h5m52s) 
CPU  0 inst:   23000005 cyc:   12236643 now IPC :1.85521: AVG IPC :1.86605: L2-Pf-HR :0.99594: L2-HR :0.95473: (Sim:0h6m8s) 
CPU  0 inst:   24000003 cyc:   12742263 now IPC :1.97777: AVG IPC :1.87086: L2-Pf-HR :0.99592: L2-HR :0.95503: (Sim:0h6m23s) 
CPU  0 inst:   25000002 cyc:   13337074 now IPC :1.68120: AVG IPC :1.86173: L2-Pf-HR :0.99608: L2-HR :0.95383: (Sim:0h6m40s) 
CPU  0 inst:   26000001 cyc:   13866870 now IPC :1.88752: AVG IPC :1.86279: L2-Pf-HR :0.99624: L2-HR :0.95421: (Sim:0h6m56s) 
CPU  0 inst:   27000003 cyc:   14390803 now IPC :1.90864: AVG IPC :1.86458: L2-Pf-HR :0.99622: L2-HR :0.95445: (Sim:0h7m12s) 
CPU  0 inst:   28000002 cyc:   14924567 now IPC :1.87349: AVG IPC :1.86492: L2-Pf-HR :0.99630: L2-HR :0.95465: (Sim:0h7m28s) 
CPU  0 inst:   29000001 cyc:   15453894 now IPC :1.88919: AVG IPC :1.86581: L2-Pf-HR :0.99629: L2-HR :0.95478: (Sim:0h7m44s) 
CPU  0 inst:   30000000 cyc:   15974430 now IPC :1.92109: AVG IPC :1.86773: L2-Pf-HR :0.99632: L2-HR :0.95515: (Sim:0h8m0s) 
CPU  0 inst:   31000005 cyc:   16514548 now IPC :1.85146: AVG IPC :1.86716: L2-Pf-HR :0.99637: L2-HR :0.95536: (Sim:0h8m17s) 
CPU  0 inst:   32000002 cyc:   17020768 now IPC :1.97542: AVG IPC :1.87058: L2-Pf-HR :0.99635: L2-HR :0.95556: (Sim:0h8m33s) 
CPU  0 inst:   33000004 cyc:   17619964 now IPC :1.66891: AVG IPC :1.86331: L2-Pf-HR :0.99645: L2-HR :0.95466: (Sim:0h8m50s) 
CPU  0 inst:   34000004 cyc:   18158916 now IPC :1.85545: AVG IPC :1.86307: L2-Pf-HR :0.99649: L2-HR :0.95484: (Sim:0h9m7s) 
CPU  0 inst:   35000003 cyc:   18684657 now IPC :1.90208: AVG IPC :1.86423: L2-Pf-HR :0.99647: L2-HR :0.95504: (Sim:0h9m23s) 
CPU  0 inst:   36000000 cyc:   19213818 now IPC :1.88978: AVG IPC :1.86497: L2-Pf-HR :0.99647: L2-HR :0.95516: (Sim:0h9m40s) 
CPU  0 inst:   37000004 cyc:   19739999 now IPC :1.90049: AVG IPC :1.86596: L2-Pf-HR :0.99646: L2-HR :0.95531: (Sim:0h9m56s) 
CPU  0 inst:   38000000 cyc:   20272794 now IPC :1.87689: AVG IPC :1.86627: L2-Pf-HR :0.99644: L2-HR :0.95545: (Sim:0h10m13s) 
CPU  0 inst:   39000001 cyc:   20825485 now IPC :1.80933: AVG IPC :1.86468: L2-Pf-HR :0.99648: L2-HR :0.95562: (Sim:0h10m30s) 
CPU  0 inst:   40000002 cyc:   21344062 now IPC :1.92836: AVG IPC :1.86630: L2-Pf-HR :0.99646: L2-HR :0.95577: (Sim:0h10m46s) 
CPU  0 inst:   41000002 cyc:   21950947 now IPC :1.64776: AVG IPC :1.85998: L2-Pf-HR :0.99653: L2-HR :0.95506: (Sim:0h11m4s) 
CPU  0 inst:   42000000 cyc:   22484381 now IPC :1.87464: AVG IPC :1.86034: L2-Pf-HR :0.99652: L2-HR :0.95522: (Sim:0h11m20s) 
CPU  0 inst:   43000003 cyc:   23027228 now IPC :1.84215: AVG IPC :1.85989: L2-Pf-HR :0.99651: L2-HR :0.95530: (Sim:0h11m37s) 
CPU  0 inst:   44000005 cyc:   23571199 now IPC :1.83834: AVG IPC :1.85937: L2-Pf-HR :0.99650: L2-HR :0.95537: (Sim:0h11m54s) 
CPU  0 inst:   45000004 cyc:   24114617 now IPC :1.84020: AVG IPC :1.85892: L2-Pf-HR :0.99654: L2-HR :0.95556: (Sim:0h12m10s) 
CPU  0 inst:   46000002 cyc:   24671633 now IPC :1.79528: AVG IPC :1.85743: L2-Pf-HR :0.99651: L2-HR :0.95566: (Sim:0h12m27s) 
CPU  0 inst:   47000004 cyc:   25244030 now IPC :1.74704: AVG IPC :1.85482: L2-Pf-HR :0.99655: L2-HR :0.95580: (Sim:0h12m44s) 
CPU  0 inst:   48000002 cyc:   25764972 now IPC :1.91960: AVG IPC :1.85618: L2-Pf-HR :0.99653: L2-HR :0.95593: (Sim:0h13m1s) 
CPU  0 inst:   49000002 cyc:   26415467 now IPC :1.53729: AVG IPC :1.84803: L2-Pf-HR :0.99659: L2-HR :0.95535: (Sim:0h13m18s) 
CPU  0 inst:   50000003 cyc:   26957369 now IPC :1.84535: AVG IPC :1.84797: L2-Pf-HR :0.99657: L2-HR :0.95546: (Sim:0h13m35s) 
CPU  0 inst:   51000003 cyc:   27511195 now IPC :1.80562: AVG IPC :1.84709: L2-Pf-HR :0.99660: L2-HR :0.95554: (Sim:0h13m52s) 
CPU  0 inst:   52000005 cyc:   28067054 now IPC :1.79902: AVG IPC :1.84610: L2-Pf-HR :0.99659: L2-HR :0.95561: (Sim:0h14m9s) 
CPU  0 inst:   53000004 cyc:   28613534 now IPC :1.82989: AVG IPC :1.84578: L2-Pf-HR :0.99662: L2-HR :0.95577: (Sim:0h14m25s) 
CPU  0 inst:   54000003 cyc:   29170620 now IPC :1.79505: AVG IPC :1.84478: L2-Pf-HR :0.99660: L2-HR :0.95584: (Sim:0h14m42s) 
CPU  0 inst:   55000000 cyc:   29746650 now IPC :1.73602: AVG IPC :1.84260: L2-Pf-HR :0.99664: L2-HR :0.95597: (Sim:0h14m59s) 
CPU  0 inst:   56000004 cyc:   30270006 now IPC :1.91075: AVG IPC :1.84382: L2-Pf-HR :0.99661: L2-HR :0.95608: (Sim:0h15m16s) 
CPU  0 inst:   57000002 cyc:   30939205 now IPC :1.49432: AVG IPC :1.83601: L2-Pf-HR :0.99666: L2-HR :0.95557: (Sim:0h15m34s) 
CPU  0 inst:   58000001 cyc:   31483708 now IPC :1.83654: AVG IPC :1.83602: L2-Pf-HR :0.99664: L2-HR :0.95566: (Sim:0h15m50s) 
CPU  0 inst:   59000003 cyc:   32031535 now IPC :1.82540: AVG IPC :1.83583: L2-Pf-HR :0.99664: L2-HR :0.95571: (Sim:0h16m7s) 
CPU  0 inst:   60000005 cyc:   32573153 now IPC :1.84632: AVG IPC :1.83601: L2-Pf-HR :0.99663: L2-HR :0.95579: (Sim:0h16m24s) 
CPU  0 inst:   61000004 cyc:   33118211 now IPC :1.83467: AVG IPC :1.83599: L2-Pf-HR :0.99665: L2-HR :0.95590: (Sim:0h16m41s) 
CPU  0 inst:   62000003 cyc:   33668776 now IPC :1.81631: AVG IPC :1.83566: L2-Pf-HR :0.99667: L2-HR :0.95598: (Sim:0h16m57s) 
CPU  0 inst:   63000000 cyc:   34248395 now IPC :1.72527: AVG IPC :1.83373: L2-Pf-HR :0.99671: L2-HR :0.95609: (Sim:0h17m15s) 
CPU  0 inst:   64000004 cyc:   34776942 now IPC :1.89199: AVG IPC :1.83465: L2-Pf-HR :0.99674: L2-HR :0.95620: (Sim:0h17m31s) 
CPU  0 inst:   65000002 cyc:   35432819 now IPC :1.52467: AVG IPC :1.82874: L2-Pf-HR :0.99679: L2-HR :0.95581: (Sim:0h17m49s) 
CPU  0 inst:   66000003 cyc:   35981914 now IPC :1.82118: AVG IPC :1.82863: L2-Pf-HR :0.99682: L2-HR :0.95586: (Sim:0h18m6s) 
CPU  0 inst:   67000003 cyc:   36530809 now IPC :1.82184: AVG IPC :1.82852: L2-Pf-HR :0.99684: L2-HR :0.95592: (Sim:0h18m22s) 
CPU  0 inst:   68000005 cyc:   37076798 now IPC :1.83154: AVG IPC :1.82857: L2-Pf-HR :0.99686: L2-HR :0.95602: (Sim:0h18m39s) 
CPU  0 inst:   69000001 cyc:   37631821 now IPC :1.80172: AVG IPC :1.82816: L2-Pf-HR :0.99684: L2-HR :0.95608: (Sim:0h18m56s) 
CPU  0 inst:   70000002 cyc:   38179162 now IPC :1.82702: AVG IPC :1.82814: L2-Pf-HR :0.99682: L2-HR :0.95615: (Sim:0h19m13s) 
CPU  0 inst:   71000000 cyc:   38753574 now IPC :1.74091: AVG IPC :1.82682: L2-Pf-HR :0.99684: L2-HR :0.95623: (Sim:0h19m30s) 
CPU  0 inst:   72000001 cyc:   39271510 now IPC :1.93074: AVG IPC :1.82822: L2-Pf-HR :0.99682: L2-HR :0.95630: (Sim:0h19m46s) 
CPU  0 inst:   73000002 cyc:   39935359 now IPC :1.50637: AVG IPC :1.82274: L2-Pf-HR :0.99684: L2-HR :0.95592: (Sim:0h20m4s) 
CPU  0 inst:   74000000 cyc:   40498393 now IPC :1.77609: AVG IPC :1.82207: L2-Pf-HR :0.99685: L2-HR :0.95595: (Sim:0h20m21s) 
CPU  0 inst:   75000000 cyc:   41053259 now IPC :1.80224: AVG IPC :1.82180: L2-Pf-HR :0.99686: L2-HR :0.95599: (Sim:0h20m37s) 
CPU  0 inst:   76000005 cyc:   41595832 now IPC :1.84308: AVG IPC :1.82208: L2-Pf-HR :0.99684: L2-HR :0.95607: (Sim:0h20m54s) 
CPU  0 inst:   77000001 cyc:   42152313 now IPC :1.79700: AVG IPC :1.82174: L2-Pf-HR :0.99686: L2-HR :0.95614: (Sim:0h21m11s) 
CPU  0 inst:   78000000 cyc:   42694096 now IPC :1.84576: AVG IPC :1.82205: L2-Pf-HR :0.99686: L2-HR :0.95625: (Sim:0h21m28s) 
CPU  0 inst:   79000000 cyc:   43270167 now IPC :1.73590: AVG IPC :1.82088: L2-Pf-HR :0.99688: L2-HR :0.95629: (Sim:0h21m45s) 
CPU  0 inst:   80000003 cyc:   43797144 now IPC :1.89762: AVG IPC :1.82183: L2-Pf-HR :0.99687: L2-HR :0.95636: (Sim:0h22m1s) 
CPU  0 inst:   81000002 cyc:   44448008 now IPC :1.53642: AVG IPC :1.81755: L2-Pf-HR :0.99688: L2-HR :0.95601: (Sim:0h22m19s) 
CPU  0 inst:   82000003 cyc:   45000976 now IPC :1.80842: AVG IPC :1.81744: L2-Pf-HR :0.99689: L2-HR :0.95604: (Sim:0h22m36s) 
CPU  0 inst:   83000003 cyc:   45540734 now IPC :1.85268: AVG IPC :1.81786: L2-Pf-HR :0.99687: L2-HR :0.95609: (Sim:0h22m52s) 
CPU  0 inst:   84000005 cyc:   46080932 now IPC :1.85118: AVG IPC :1.81826: L2-Pf-HR :0.99686: L2-HR :0.95613: (Sim:0h23m9s) 
CPU  0 inst:   85000001 cyc:   46628433 now IPC :1.82647: AVG IPC :1.81836: L2-Pf-HR :0.99687: L2-HR :0.95620: (Sim:0h23m26s) 
CPU  0 inst:   86000000 cyc:   47174289 now IPC :1.83198: AVG IPC :1.81852: L2-Pf-HR :0.99686: L2-HR :0.95625: (Sim:0h23m43s) 
CPU  0 inst:   87000005 cyc:   47747698 now IPC :1.74396: AVG IPC :1.81761: L2-Pf-HR :0.99688: L2-HR :0.95631: (Sim:0h24m0s) 
CPU  0 inst:   88000003 cyc:   48272454 now IPC :1.90564: AVG IPC :1.81859: L2-Pf-HR :0.99691: L2-HR :0.95639: (Sim:0h24m16s) 
CPU  0 inst:   89000002 cyc:   48895076 now IPC :1.60611: AVG IPC :1.81582: L2-Pf-HR :0.99693: L2-HR :0.95607: (Sim:0h24m34s) 
CPU  0 inst:   90000001 cyc:   49456404 now IPC :1.78149: AVG IPC :1.81543: L2-Pf-HR :0.99694: L2-HR :0.95610: (Sim:0h24m51s) 
CPU  0 inst:   91000003 cyc:   50003482 now IPC :1.82790: AVG IPC :1.81557: L2-Pf-HR :0.99695: L2-HR :0.95618: (Sim:0h25m7s) 
CPU  0 inst:   92000005 cyc:   50556379 now IPC :1.80866: AVG IPC :1.81549: L2-Pf-HR :0.99696: L2-HR :0.95624: (Sim:0h25m24s) 
CPU  0 inst:   93000001 cyc:   51106867 now IPC :1.81656: AVG IPC :1.81550: L2-Pf-HR :0.99694: L2-HR :0.95627: (Sim:0h25m41s) 
CPU  0 inst:   94000000 cyc:   51649113 now IPC :1.84418: AVG IPC :1.81581: L2-Pf-HR :0.99694: L2-HR :0.95632: (Sim:0h25m58s) 
CPU  0 inst:   95000002 cyc:   52225546 now IPC :1.73481: AVG IPC :1.81490: L2-Pf-HR :0.99696: L2-HR :0.95638: (Sim:0h26m15s) 
CPU  0 inst:   96000005 cyc:   52748330 now IPC :1.91284: AVG IPC :1.81589: L2-Pf-HR :0.99698: L2-HR :0.95646: (Sim:0h26m31s) 
CPU  0 inst:   97000005 cyc:   53398949 now IPC :1.53700: AVG IPC :1.81242: L2-Pf-HR :0.99700: L2-HR :0.95616: (Sim:0h26m49s) 
CPU  0 inst:   98000004 cyc:   53962131 now IPC :1.77562: AVG IPC :1.81203: L2-Pf-HR :0.99702: L2-HR :0.95620: (Sim:0h27m6s) 
CPU  0 inst:   99000003 cyc:   54509445 now IPC :1.82710: AVG IPC :1.81219: L2-Pf-HR :0.99702: L2-HR :0.95627: (Sim:0h27m22s) 
CPU  0 inst:  100000005 cyc:   55056258 now IPC :1.82878: AVG IPC :1.81235: L2-Pf-HR :0.99700: L2-HR :0.95629: (Sim:0h27m39s) 
CPU  0 inst:  101000001 cyc:   55603544 now IPC :1.82719: AVG IPC :1.81250: L2-Pf-HR :0.99701: L2-HR :0.95636: (Sim:0h27m56s) 
CPU  0 inst:  102000002 cyc:   56164190 now IPC :1.78366: AVG IPC :1.81221: L2-Pf-HR :0.99702: L2-HR :0.95640: (Sim:0h28m13s) 
CPU  0 inst:  103000003 cyc:   56740885 now IPC :1.73402: AVG IPC :1.81140: L2-Pf-HR :0.99704: L2-HR :0.95645: (Sim:0h28m30s) 
CPU  0 inst:  104000005 cyc:   57269156 now IPC :1.89297: AVG IPC :1.81217: L2-Pf-HR :0.99702: L2-HR :0.95650: (Sim:0h28m47s) 
CPU  0 inst:  105000002 cyc:   57911862 now IPC :1.55592: AVG IPC :1.80927: L2-Pf-HR :0.99703: L2-HR :0.95621: (Sim:0h29m4s) 
CPU  0 inst:  106000001 cyc:   58458500 now IPC :1.82936: AVG IPC :1.80946: L2-Pf-HR :0.99703: L2-HR :0.95626: (Sim:0h29m21s) 
CPU  0 inst:  107000003 cyc:   59016934 now IPC :1.79073: AVG IPC :1.80928: L2-Pf-HR :0.99704: L2-HR :0.95632: (Sim:0h29m38s) 
CPU  0 inst:  108000000 cyc:   59577186 now IPC :1.78491: AVG IPC :1.80905: L2-Pf-HR :0.99705: L2-HR :0.95635: (Sim:0h29m54s) 
CPU  0 inst:  109000003 cyc:   60127343 now IPC :1.81767: AVG IPC :1.80913: L2-Pf-HR :0.99705: L2-HR :0.95641: (Sim:0h30m11s) 
CPU  0 inst:  110000003 cyc:   60683084 now IPC :1.79940: AVG IPC :1.80904: L2-Pf-HR :0.99706: L2-HR :0.95644: (Sim:0h30m28s) 
CPU  0 inst:  111000000 cyc:   61254422 now IPC :1.75027: AVG IPC :1.80848: L2-Pf-HR :0.99707: L2-HR :0.95649: (Sim:0h30m45s) 
CPU  0 inst:  112000002 cyc:   61782718 now IPC :1.89288: AVG IPC :1.80922: L2-Pf-HR :0.99706: L2-HR :0.95653: (Sim:0h31m1s) 
CPU  0 inst:  113000002 cyc:   62413149 now IPC :1.58622: AVG IPC :1.80693: L2-Pf-HR :0.99707: L2-HR :0.95626: (Sim:0h31m19s) 
CPU  0 inst:  114000004 cyc:   62967965 now IPC :1.80240: AVG IPC :1.80689: L2-Pf-HR :0.99708: L2-HR :0.95631: (Sim:0h31m35s) 
CPU  0 inst:  115000000 cyc:   63516820 now IPC :1.82197: AVG IPC :1.80702: L2-Pf-HR :0.99707: L2-HR :0.95636: (Sim:0h31m52s) 
CPU  0 inst:  116000002 cyc:   64069059 now IPC :1.81081: AVG IPC :1.80705: L2-Pf-HR :0.99708: L2-HR :0.95642: (Sim:0h32m9s) 
CPU  0 inst:  117000000 cyc:   64615884 now IPC :1.82873: AVG IPC :1.80724: L2-Pf-HR :0.99707: L2-HR :0.95646: (Sim:0h32m25s) 
CPU  0 inst:  118000003 cyc:   65176990 now IPC :1.78220: AVG IPC :1.80702: L2-Pf-HR :0.99709: L2-HR :0.95650: (Sim:0h32m42s) 
CPU  0 inst:  119000000 cyc:   65759052 now IPC :1.71802: AVG IPC :1.80622: L2-Pf-HR :0.99710: L2-HR :0.95656: (Sim:0h32m59s) 
CPU  0 inst:  120000004 cyc:   66289994 now IPC :1.88345: AVG IPC :1.80685: L2-Pf-HR :0.99709: L2-HR :0.95660: (Sim:0h33m16s) 
CPU  0 inst:  121000002 cyc:   66917597 now IPC :1.59336: AVG IPC :1.80482: L2-Pf-HR :0.99710: L2-HR :0.95633: (Sim:0h33m33s) 
CPU  0 inst:  122000004 cyc:   67466130 now IPC :1.82305: AVG IPC :1.80497: L2-Pf-HR :0.99710: L2-HR :0.95639: (Sim:0h33m50s) 
CPU  0 inst:  123000000 cyc:   68015646 now IPC :1.81978: AVG IPC :1.80509: L2-Pf-HR :0.99711: L2-HR :0.95642: (Sim:0h34m6s) 
CPU  0 inst:  124000005 cyc:   68557332 now IPC :1.84610: AVG IPC :1.80542: L2-Pf-HR :0.99711: L2-HR :0.95648: (Sim:0h34m23s) 
CPU  0 inst:  125000002 cyc:   69110411 now IPC :1.80805: AVG IPC :1.80544: L2-Pf-HR :0.99711: L2-HR :0.95649: (Sim:0h34m40s) 
CPU  0 inst:  126000003 cyc:   69669055 now IPC :1.79005: AVG IPC :1.80531: L2-Pf-HR :0.99710: L2-HR :0.95650: (Sim:0h34m57s) 
CPU  0 inst:  127000002 cyc:   70242007 now IPC :1.74535: AVG IPC :1.80482: L2-Pf-HR :0.99711: L2-HR :0.95657: (Sim:0h35m14s) 
CPU  0 inst:  128000004 cyc:   70768235 now IPC :1.90032: AVG IPC :1.80554: L2-Pf-HR :0.99710: L2-HR :0.95661: (Sim:0h35m30s) 
CPU  0 inst:  129000001 cyc:   72551683 now IPC :0.56071: AVG IPC :1.77452: L2-Pf-HR :0.99704: L2-HR :0.95304: (Sim:0h35m55s) 
CPU  0 inst:  130000000 cyc:   76784517 now IPC :0.23625: AVG IPC :1.68862: L2-Pf-HR :0.99686: L2-HR :0.94216: (Sim:0h36m41s) 
CPU  0 inst:  131000002 cyc:   81858260 now IPC :0.19709: AVG IPC :1.59505: L2-Pf-HR :0.99669: L2-HR :0.93179: (Sim:0h37m31s) 
CPU  0 inst:  132000004 cyc:   85246398 now IPC :0.29515: AVG IPC :1.54278: L2-Pf-HR :0.99624: L2-HR :0.92984: (Sim:0h38m4s) 
CPU  0 inst:  133000000 cyc:   88598677 now IPC :0.29830: AVG IPC :1.49517: L2-Pf-HR :0.99577: L2-HR :0.92833: (Sim:0h38m38s) 
CPU  0 inst:  134000000 cyc:   91954793 now IPC :0.29796: AVG IPC :1.45100: L2-Pf-HR :0.99528: L2-HR :0.92683: (Sim:0h39m11s) 
CPU  0 inst:  135000004 cyc:   95305387 now IPC :0.29846: AVG IPC :1.41006: L2-Pf-HR :0.99481: L2-HR :0.92534: (Sim:0h39m45s) 
CPU  0 inst:  136000000 cyc:   98657205 now IPC :0.29834: AVG IPC :1.37191: L2-Pf-HR :0.99433: L2-HR :0.92385: (Sim:0h40m18s) 
CPU  0 inst:  137000000 cyc:  102010398 now IPC :0.29822: AVG IPC :1.33627: L2-Pf-HR :0.99386: L2-HR :0.92238: (Sim:0h40m51s) 
CPU  0 inst:  138000000 cyc:  105360723 now IPC :0.29848: AVG IPC :1.30296: L2-Pf-HR :0.99338: L2-HR :0.92091: (Sim:0h41m25s) 
CPU  0 inst:  139000000 cyc:  108712606 now IPC :0.29834: AVG IPC :1.27170: L2-Pf-HR :0.99291: L2-HR :0.91945: (Sim:0h41m58s) 
CPU  0 inst:  140000000 cyc:  112059808 now IPC :0.29876: AVG IPC :1.24238: L2-Pf-HR :0.99243: L2-HR :0.91800: (Sim:0h42m32s) 
CPU  0 inst:  141000002 cyc:  115409404 now IPC :0.29854: AVG IPC :1.21475: L2-Pf-HR :0.99196: L2-HR :0.91656: (Sim:0h43m5s) 
CPU  0 inst:  142000001 cyc:  118757557 now IPC :0.29867: AVG IPC :1.18871: L2-Pf-HR :0.99148: L2-HR :0.91512: (Sim:0h43m38s) 
CPU  0 inst:  143000001 cyc:  122104447 now IPC :0.29878: AVG IPC :1.16412: L2-Pf-HR :0.99101: L2-HR :0.91370: (Sim:0h44m12s) 
CPU  0 inst:  144000000 cyc:  125454004 now IPC :0.29855: AVG IPC :1.14083: L2-Pf-HR :0.99054: L2-HR :0.91228: (Sim:0h44m45s) 
CPU  0 inst:  145000000 cyc:  128803907 now IPC :0.29852: AVG IPC :1.11875: L2-Pf-HR :0.99007: L2-HR :0.91087: (Sim:0h45m18s) 
CPU  0 inst:  146000000 cyc:  132153061 now IPC :0.29858: AVG IPC :1.09781: L2-Pf-HR :0.98960: L2-HR :0.90946: (Sim:0h45m51s) 
CPU  0 inst:  147000000 cyc:  135501865 now IPC :0.29861: AVG IPC :1.07792: L2-Pf-HR :0.98913: L2-HR :0.90807: (Sim:0h46m25s) 
CPU  0 inst:  148000000 cyc:  138849037 now IPC :0.29876: AVG IPC :1.05900: L2-Pf-HR :0.98866: L2-HR :0.90668: (Sim:0h46m55s) 
CPU  0 inst:  149000000 cyc:  142196570 now IPC :0.29873: AVG IPC :1.04098: L2-Pf-HR :0.98819: L2-HR :0.90530: (Sim:0h47m9s) 
CPU  0 inst:  150000000 cyc:  145545087 now IPC :0.29864: AVG IPC :1.02378: L2-Pf-HR :0.98772: L2-HR :0.90393: (Sim:0h47m25s) 
CPU  0 inst:  151000002 cyc:  148894086 now IPC :0.29860: AVG IPC :1.00736: L2-Pf-HR :0.98725: L2-HR :0.90256: (Sim:0h47m56s) 
CPU  0 inst:  152000000 cyc:  152240826 now IPC :0.29880: AVG IPC :0.99168: L2-Pf-HR :0.98678: L2-HR :0.90121: (Sim:0h48m28s) 
CPU  0 inst:  153000002 cyc:  155589127 now IPC :0.29866: AVG IPC :0.97668: L2-Pf-HR :0.98631: L2-HR :0.89986: (Sim:0h49m0s) 
CPU  0 inst:  154000000 cyc:  158938469 now IPC :0.29857: AVG IPC :0.96230: L2-Pf-HR :0.98584: L2-HR :0.89851: (Sim:0h49m32s) 
CPU  0 inst:  155000000 cyc:  162288089 now IPC :0.29854: AVG IPC :0.94851: L2-Pf-HR :0.98537: L2-HR :0.89718: (Sim:0h50m4s) 
CPU  0 inst:  156000000 cyc:  165636526 now IPC :0.29865: AVG IPC :0.93530: L2-Pf-HR :0.98490: L2-HR :0.89585: (Sim:0h50m35s) 
CPU  0 inst:  157000000 cyc:  168986146 now IPC :0.29854: AVG IPC :0.92260: L2-Pf-HR :0.98444: L2-HR :0.89453: (Sim:0h51m7s) 
CPU  0 inst:  158000000 cyc:  172335163 now IPC :0.29860: AVG IPC :0.91041: L2-Pf-HR :0.98397: L2-HR :0.89322: (Sim:0h51m38s) 
CPU  0 inst:  159000000 cyc:  175685996 now IPC :0.29843: AVG IPC :0.89867: L2-Pf-HR :0.98350: L2-HR :0.89191: (Sim:0h52m10s) 
CPU  0 inst:  160000004 cyc:  179036501 now IPC :0.29846: AVG IPC :0.88737: L2-Pf-HR :0.98304: L2-HR :0.89061: (Sim:0h52m35s) 
CPU  0 inst:  161000002 cyc:  182383546 now IPC :0.29877: AVG IPC :0.87651: L2-Pf-HR :0.98257: L2-HR :0.88932: (Sim:0h52m49s) 
CPU  0 inst:  162000001 cyc:  185730789 now IPC :0.29875: AVG IPC :0.86605: L2-Pf-HR :0.98211: L2-HR :0.88803: (Sim:0h53m3s) 
CPU  0 inst:  163000002 cyc:  189081836 now IPC :0.29841: AVG IPC :0.85593: L2-Pf-HR :0.98164: L2-HR :0.88675: (Sim:0h53m18s) 
CPU  0 inst:  164000001 cyc:  190606265 now IPC :0.65598: AVG IPC :0.85433: L2-Pf-HR :0.98154: L2-HR :0.88606: (Sim:0h53m29s) 
CPU  0 inst:  165000005 cyc:  191139441 now IPC :1.87556: AVG IPC :0.85719: L2-Pf-HR :0.98170: L2-HR :0.88667: (Sim:0h53m39s) 
CPU  0 inst:  166000000 cyc:  191722319 now IPC :1.71562: AVG IPC :0.85981: L2-Pf-HR :0.98188: L2-HR :0.88738: (Sim:0h53m46s) 
CPU  0 inst:  167000000 cyc:  192337315 now IPC :1.62603: AVG IPC :0.86227: L2-Pf-HR :0.98200: L2-HR :0.88789: (Sim:0h53m54s) 
CPU  0 inst:  168000003 cyc:  192814465 now IPC :2.09578: AVG IPC :0.86534: L2-Pf-HR :0.98219: L2-HR :0.88877: (Sim:0h54m2s) 
CPU  0 inst:  169000002 cyc:  193338404 now IPC :1.90862: AVG IPC :0.86818: L2-Pf-HR :0.98237: L2-HR :0.88956: (Sim:0h54m10s) 
CPU  0 inst:  170000002 cyc:  193865265 now IPC :1.89803: AVG IPC :0.87100: L2-Pf-HR :0.98253: L2-HR :0.89023: (Sim:0h54m18s) 
CPU  0 inst:  171000004 cyc:  194351254 now IPC :2.05766: AVG IPC :0.87398: L2-Pf-HR :0.98268: L2-HR :0.89095: (Sim:0h54m27s) 
CPU  0 inst:  172000002 cyc:  194999513 now IPC :1.54259: AVG IPC :0.87621: L2-Pf-HR :0.98279: L2-HR :0.89131: (Sim:0h54m37s) 
CPU  0 inst:  173000000 cyc:  195534718 now IPC :1.86844: AVG IPC :0.87894: L2-Pf-HR :0.98296: L2-HR :0.89197: (Sim:0h54m47s) 
CPU  0 inst:  174000004 cyc:  196072840 now IPC :1.85832: AVG IPC :0.88164: L2-Pf-HR :0.98313: L2-HR :0.89269: (Sim:0h54m56s) 
CPU  0 inst:  175000003 cyc:  196763706 now IPC :1.44746: AVG IPC :0.88364: L2-Pf-HR :0.98323: L2-HR :0.89294: (Sim:0h55m5s) 
CPU  0 inst:  176000003 cyc:  197244794 now IPC :2.07862: AVG IPC :0.88657: L2-Pf-HR :0.98340: L2-HR :0.89372: (Sim:0h55m14s) 
CPU  0 inst:  177000002 cyc:  197724765 now IPC :2.08346: AVG IPC :0.88949: L2-Pf-HR :0.98354: L2-HR :0.89441: (Sim:0h55m22s) 
CPU  0 inst:  178000000 cyc:  198244089 now IPC :1.92558: AVG IPC :0.89222: L2-Pf-HR :0.98368: L2-HR :0.89514: (Sim:0h55m30s) 
CPU  0 inst:  179000005 cyc:  198782861 now IPC :1.85608: AVG IPC :0.89484: L2-Pf-HR :0.98381: L2-HR :0.89568: (Sim:0h55m39s) 
CPU  0 inst:  180000002 cyc:  199274754 now IPC :2.03296: AVG IPC :0.89767: L2-Pf-HR :0.98394: L2-HR :0.89633: (Sim:0h55m47s) 
CPU  0 inst:  181000001 cyc:  199919076 now IPC :1.55202: AVG IPC :0.89979: L2-Pf-HR :0.98404: L2-HR :0.89660: (Sim:0h55m56s) 
CPU  0 inst:  182000001 cyc:  200466028 now IPC :1.82831: AVG IPC :0.90233: L2-Pf-HR :0.98417: L2-HR :0.89711: (Sim:0h56m6s) 
CPU  0 inst:  183000003 cyc:  201033409 now IPC :1.76249: AVG IPC :0.90477: L2-Pf-HR :0.98430: L2-HR :0.89767: (Sim:0h56m14s) 
CPU  0 inst:  184000004 cyc:  201625923 now IPC :1.68773: AVG IPC :0.90708: L2-Pf-HR :0.98441: L2-HR :0.89804: (Sim:0h56m23s) 
CPU  0 inst:  185000000 cyc:  202105099 now IPC :2.08691: AVG IPC :0.90989: L2-Pf-HR :0.98455: L2-HR :0.89870: (Sim:0h56m31s) 
CPU  0 inst:  186000005 cyc:  202628639 now IPC :1.91008: AVG IPC :0.91249: L2-Pf-HR :0.98468: L2-HR :0.89933: (Sim:0h56m40s) 
CPU  0 inst:  187000005 cyc:  203143285 now IPC :1.94308: AVG IPC :0.91512: L2-Pf-HR :0.98480: L2-HR :0.89984: (Sim:0h56m48s) 
CPU  0 inst:  188000004 cyc:  203622605 now IPC :2.08629: AVG IPC :0.91789: L2-Pf-HR :0.98491: L2-HR :0.90044: (Sim:0h56m56s) 
CPU  0 inst:  189000002 cyc:  204274198 now IPC :1.53470: AVG IPC :0.91986: L2-Pf-HR :0.98500: L2-HR :0.90064: (Sim:0h57m5s) 
CPU  0 inst:  190000002 cyc:  204816754 now IPC :1.84313: AVG IPC :0.92232: L2-Pf-HR :0.98512: L2-HR :0.90113: (Sim:0h57m14s) 
CPU  0 inst:  191000001 cyc:  205354612 now IPC :1.85922: AVG IPC :0.92479: L2-Pf-HR :0.98525: L2-HR :0.90171: (Sim:0h57m23s) 
CPU  0 inst:  192000000 cyc:  206008538 now IPC :1.52922: AVG IPC :0.92671: L2-Pf-HR :0.98531: L2-HR :0.90190: (Sim:0h57m31s) 
CPU  0 inst:  193000005 cyc:  206490169 now IPC :2.07629: AVG IPC :0.92941: L2-Pf-HR :0.98543: L2-HR :0.90253: (Sim:0h57m40s) 
CPU  0 inst:  194000002 cyc:  206977944 now IPC :2.05012: AVG IPC :0.93206: L2-Pf-HR :0.98555: L2-HR :0.90311: (Sim:0h57m49s) 
CPU  0 inst:  195000002 cyc:  207513217 now IPC :1.86821: AVG IPC :0.93449: L2-Pf-HR :0.98566: L2-HR :0.90361: (Sim:0h57m57s) 
CPU  0 inst:  196000002 cyc:  208011890 now IPC :2.00532: AVG IPC :0.93707: L2-Pf-HR :0.98576: L2-HR :0.90408: (Sim:0h58m5s) 
CPU  0 inst:  197000005 cyc:  208500710 now IPC :2.04575: AVG IPC :0.93968: L2-Pf-HR :0.98585: L2-HR :0.90459: (Sim:0h58m13s) 
CPU  0 inst:  198000000 cyc:  209123186 now IPC :1.60648: AVG IPC :0.94167: L2-Pf-HR :0.98591: L2-HR :0.90478: (Sim:0h58m22s) 
CPU  0 inst:  199000000 cyc:  209649535 now IPC :1.89988: AVG IPC :0.94409: L2-Pf-HR :0.98601: L2-HR :0.90518: (Sim:0h58m30s) 
CPU  0 inst:  200000000 cyc:  210212033 now IPC :1.77778: AVG IPC :0.94633: L2-Pf-HR :0.98611: L2-HR :0.90562: (Sim:0h58m38s) 
CPU  0 inst:  201000003 cyc:  210809027 now IPC :1.67506: AVG IPC :0.94840: L2-Pf-HR :0.98618: L2-HR :0.90594: (Sim:0h58m48s) 
CPU  0 inst:  202000003 cyc:  211294976 now IPC :2.05783: AVG IPC :0.95097: L2-Pf-HR :0.98628: L2-HR :0.90647: (Sim:0h58m57s) 
CPU  0 inst:  203000004 cyc:  211813822 now IPC :1.92736: AVG IPC :0.95337: L2-Pf-HR :0.98639: L2-HR :0.90698: (Sim:0h59m6s) 
CPU  0 inst:  204000005 cyc:  212327413 now IPC :1.94708: AVG IPC :0.95579: L2-Pf-HR :0.98648: L2-HR :0.90738: (Sim:0h59m14s) 
CPU  0 inst:  205000004 cyc:  212810983 now IPC :2.06795: AVG IPC :0.95832: L2-Pf-HR :0.98657: L2-HR :0.90790: (Sim:0h59m22s) 
CPU  0 inst:  206000001 cyc:  213434571 now IPC :1.60362: AVG IPC :0.96022: L2-Pf-HR :0.98660: L2-HR :0.90800: (Sim:0h59m30s) 
CPU  0 inst:  207000001 cyc:  213955949 now IPC :1.91799: AVG IPC :0.96256: L2-Pf-HR :0.98669: L2-HR :0.90839: (Sim:0h59m39s) 
CPU  0 inst:  208000000 cyc:  214520381 now IPC :1.77169: AVG IPC :0.96470: L2-Pf-HR :0.98677: L2-HR :0.90877: (Sim:0h59m47s) 
CPU  0 inst:  209000003 cyc:  215120423 now IPC :1.66656: AVG IPC :0.96667: L2-Pf-HR :0.98682: L2-HR :0.90896: (Sim:0h59m55s) 
CPU  0 inst:  210000000 cyc:  215592835 now IPC :2.11679: AVG IPC :0.96920: L2-Pf-HR :0.98691: L2-HR :0.90946: (Sim:1h0m4s) 
CPU  0 inst:  211000004 cyc:  216078485 now IPC :2.05910: AVG IPC :0.97166: L2-Pf-HR :0.98701: L2-HR :0.90997: (Sim:1h0m12s) 
CPU  0 inst:  212000000 cyc:  216609239 now IPC :1.88410: AVG IPC :0.97391: L2-Pf-HR :0.98709: L2-HR :0.91028: (Sim:1h0m29s) 
CPU  0 inst:  213000005 cyc:  217077273 now IPC :2.13661: AVG IPC :0.97643: L2-Pf-HR :0.98717: L2-HR :0.91072: (Sim:1h0m47s) 
CPU  0 inst:  214000003 cyc:  217564418 now IPC :2.05277: AVG IPC :0.97885: L2-Pf-HR :0.98725: L2-HR :0.91114: (Sim:1h1m4s) 
CPU  0 inst:  215000002 cyc:  218176580 now IPC :1.63355: AVG IPC :0.98069: L2-Pf-HR :0.98728: L2-HR :0.91123: (Sim:1h1m24s) 
CPU  0 inst:  216000000 cyc:  218690691 now IPC :1.94510: AVG IPC :0.98297: L2-Pf-HR :0.98737: L2-HR :0.91158: (Sim:1h1m42s) 
CPU  0 inst:  217000005 cyc:  219228098 now IPC :1.86080: AVG IPC :0.98513: L2-Pf-HR :0.98744: L2-HR :0.91194: (Sim:1h1m59s) 
CPU  0 inst:  218000000 cyc:  219775402 now IPC :1.82713: AVG IPC :0.98724: L2-Pf-HR :0.98751: L2-HR :0.91218: (Sim:1h2m18s) 
CPU  0 inst:  219000005 cyc:  220251322 now IPC :2.10120: AVG IPC :0.98965: L2-Pf-HR :0.98759: L2-HR :0.91260: (Sim:1h2m37s) 
CPU  0 inst:  220000005 cyc:  220745931 now IPC :2.02180: AVG IPC :0.99198: L2-Pf-HR :0.98767: L2-HR :0.91304: (Sim:1h2m54s) 
CPU  0 inst:  221000000 cyc:  221260224 now IPC :1.94441: AVG IPC :0.99420: L2-Pf-HR :0.98774: L2-HR :0.91334: (Sim:1h3m12s) 
CPU  0 inst:  222000004 cyc:  221751482 now IPC :2.03560: AVG IPC :0.99652: L2-Pf-HR :0.98782: L2-HR :0.91376: (Sim:1h3m30s) 
CPU  0 inst:  223000004 cyc:  222346427 now IPC :1.68083: AVG IPC :0.99836: L2-Pf-HR :0.98781: L2-HR :0.91383: (Sim:1h3m48s) 
CPU  0 inst:  224000001 cyc:  222857764 now IPC :1.95565: AVG IPC :1.00056: L2-Pf-HR :0.98789: L2-HR :0.91417: (Sim:1h4m7s) 
CPU  0 inst:  225000000 cyc:  223411497 now IPC :1.80592: AVG IPC :1.00257: L2-Pf-HR :0.98796: L2-HR :0.91448: (Sim:1h4m25s) 
CPU  0 inst:  226000005 cyc:  223964038 now IPC :1.80983: AVG IPC :1.00457: L2-Pf-HR :0.98799: L2-HR :0.91464: (Sim:1h4m43s) 
CPU  0 inst:  227000002 cyc:  224441840 now IPC :2.09291: AVG IPC :1.00690: L2-Pf-HR :0.98807: L2-HR :0.91505: (Sim:1h5m2s) 
CPU  0 inst:  228000001 cyc:  224923396 now IPC :2.07660: AVG IPC :1.00920: L2-Pf-HR :0.98816: L2-HR :0.91552: (Sim:1h5m20s) 
CPU  0 inst:  229000003 cyc:  225444085 now IPC :1.92054: AVG IPC :1.01131: L2-Pf-HR :0.98822: L2-HR :0.91575: (Sim:1h5m37s) 
CPU  0 inst:  230000004 cyc:  225922542 now IPC :2.09005: AVG IPC :1.01361: L2-Pf-HR :0.98828: L2-HR :0.91611: (Sim:1h5m56s) 
CPU  0 inst:  231000001 cyc:  226448807 now IPC :1.90018: AVG IPC :1.01567: L2-Pf-HR :0.98833: L2-HR :0.91637: (Sim:1h6m12s) 
CPU  0 inst:  232000002 cyc:  227023357 now IPC :1.74049: AVG IPC :1.01752: L2-Pf-HR :0.98838: L2-HR :0.91655: (Sim:1h6m32s) 
CPU  0 inst:  233000000 cyc:  227529990 now IPC :1.97381: AVG IPC :1.01966: L2-Pf-HR :0.98844: L2-HR :0.91684: (Sim:1h6m50s) 
CPU  0 inst:  234000005 cyc:  228075173 now IPC :1.83426: AVG IPC :1.02161: L2-Pf-HR :0.98851: L2-HR :0.91713: (Sim:1h7m7s) 
CPU  0 inst:  235000002 cyc:  228623567 now IPC :1.82350: AVG IPC :1.02354: L2-Pf-HR :0.98854: L2-HR :0.91732: (Sim:1h7m26s) 
CPU  0 inst:  236000002 cyc:  229105253 now IPC :2.07604: AVG IPC :1.02577: L2-Pf-HR :0.98861: L2-HR :0.91768: (Sim:1h7m46s) 
CPU  0 inst:  237000000 cyc:  229595295 now IPC :2.04064: AVG IPC :1.02794: L2-Pf-HR :0.98866: L2-HR :0.91804: (Sim:1h8m3s) 
CPU  0 inst:  238000003 cyc:  230107877 now IPC :1.95091: AVG IPC :1.03001: L2-Pf-HR :0.98872: L2-HR :0.91830: (Sim:1h8m21s) 
CPU  0 inst:  239000004 cyc:  230598487 now IPC :2.03828: AVG IPC :1.03216: L2-Pf-HR :0.98879: L2-HR :0.91865: (Sim:1h8m39s) 
CPU  0 inst:  240000003 cyc:  231220429 now IPC :1.60787: AVG IPC :1.03372: L2-Pf-HR :0.98880: L2-HR :0.91869: (Sim:1h8m58s) 
CPU  0 inst:  241000001 cyc:  231727562 now IPC :1.97187: AVG IPC :1.03578: L2-Pf-HR :0.98886: L2-HR :0.91898: (Sim:1h9m17s) 
CPU  0 inst:  242000004 cyc:  232309791 now IPC :1.71754: AVG IPC :1.03749: L2-Pf-HR :0.98892: L2-HR :0.91923: (Sim:1h9m36s) 
CPU  0 inst:  243000000 cyc:  232887141 now IPC :1.73204: AVG IPC :1.03922: L2-Pf-HR :0.98896: L2-HR :0.91936: (Sim:1h9m54s) 
CPU  0 inst:  244000004 cyc:  233365554 now IPC :2.09025: AVG IPC :1.04139: L2-Pf-HR :0.98902: L2-HR :0.91971: (Sim:1h10m13s) 
CPU  0 inst:  245000001 cyc:  233865152 now IPC :2.00160: AVG IPC :1.04345: L2-Pf-HR :0.98908: L2-HR :0.92005: (Sim:1h10m31s) 
CPU  0 inst:  246000000 cyc:  234367673 now IPC :1.98996: AVG IPC :1.04548: L2-Pf-HR :0.98914: L2-HR :0.92030: (Sim:1h10m49s) 
CPU  0 inst:  247000000 cyc:  234841950 now IPC :2.10847: AVG IPC :1.04764: L2-Pf-HR :0.98919: L2-HR :0.92061: (Sim:1h11m7s) 
CPU  0 inst:  248000004 cyc:  235423211 now IPC :1.72040: AVG IPC :1.04931: L2-Pf-HR :0.98921: L2-HR :0.92068: (Sim:1h11m25s) 
CPU  0 inst:  249000002 cyc:  235935721 now IPC :1.95118: AVG IPC :1.05128: L2-Pf-HR :0.98927: L2-HR :0.92094: (Sim:1h11m44s) 
CPU  0 inst:  250000000 cyc:  236445197 now IPC :1.96280: AVG IPC :1.05325: L2-Pf-HR :0.98933: L2-HR :0.92118: (Sim:1h12m2s) 
CPU  0 inst:  251000005 cyc:  236984154 now IPC :1.85544: AVG IPC :1.05508: L2-Pf-HR :0.98938: L2-HR :0.92144: (Sim:1h12m20s) 
CPU  0 inst:  252000003 cyc:  237527852 now IPC :1.83925: AVG IPC :1.05688: L2-Pf-HR :0.98940: L2-HR :0.92156: (Sim:1h12m39s) 
CPU  0 inst:  253000005 cyc:  237994051 now IPC :2.14501: AVG IPC :1.05902: L2-Pf-HR :0.98946: L2-HR :0.92189: (Sim:1h12m57s) 
CPU  0 inst:  254000005 cyc:  238487857 now IPC :2.02509: AVG IPC :1.06103: L2-Pf-HR :0.98951: L2-HR :0.92221: (Sim:1h13m14s) 
CPU  0 inst:  255000003 cyc:  239000161 now IPC :1.95196: AVG IPC :1.06295: L2-Pf-HR :0.98957: L2-HR :0.92243: (Sim:1h13m32s) 
CPU  0 inst:  256000001 cyc:  239490463 now IPC :2.03956: AVG IPC :1.06496: L2-Pf-HR :0.98962: L2-HR :0.92272: (Sim:1h13m50s) 
CPU  0 inst:  257000003 cyc:  240120155 now IPC :1.58808: AVG IPC :1.06633: L2-Pf-HR :0.98965: L2-HR :0.92274: (Sim:1h14m11s) 
CPU  0 inst:  258000000 cyc:  240631392 now IPC :1.95603: AVG IPC :1.06823: L2-Pf-HR :0.98970: L2-HR :0.92299: (Sim:1h14m31s) 
CPU  0 inst:  259000003 cyc:  241195485 now IPC :1.77276: AVG IPC :1.06989: L2-Pf-HR :0.98975: L2-HR :0.92320: (Sim:1h14m49s) 
CPU  0 inst:  260000003 cyc:  241756472 now IPC :1.78257: AVG IPC :1.07155: L2-Pf-HR :0.98976: L2-HR :0.92329: (Sim:1h15m8s) 
CPU  0 inst:  261000002 cyc:  242239133 now IPC :2.07185: AVG IPC :1.07355: L2-Pf-HR :0.98982: L2-HR :0.92360: (Sim:1h15m27s) 
CPU  0 inst:  262000004 cyc:  242755588 now IPC :1.93628: AVG IPC :1.07539: L2-Pf-HR :0.98986: L2-HR :0.92389: (Sim:1h15m45s) 
CPU  0 inst:  263000003 cyc:  243255240 now IPC :2.00139: AVG IPC :1.07730: L2-Pf-HR :0.98991: L2-HR :0.92411: (Sim:1h16m2s) 
CPU  0 inst:  264000003 cyc:  243734675 now IPC :2.08579: AVG IPC :1.07929: L2-Pf-HR :0.98996: L2-HR :0.92437: (Sim:1h16m21s) 
CPU  0 inst:  265000003 cyc:  244328107 now IPC :1.68511: AVG IPC :1.08077: L2-Pf-HR :0.98997: L2-HR :0.92441: (Sim:1h16m40s) 
CPU  0 inst:  266000001 cyc:  244842754 now IPC :1.94308: AVG IPC :1.08259: L2-Pf-HR :0.99003: L2-HR :0.92464: (Sim:1h16m58s) 
CPU  0 inst:  267000005 cyc:  245357604 now IPC :1.94232: AVG IPC :1.08440: L2-Pf-HR :0.99007: L2-HR :0.92486: (Sim:1h17m16s) 
CPU  0 inst:  268000000 cyc:  245925735 now IPC :1.76015: AVG IPC :1.08597: L2-Pf-HR :0.99011: L2-HR :0.92501: (Sim:1h17m34s) 
CPU  0 inst:  269000002 cyc:  246446670 now IPC :1.91963: AVG IPC :1.08774: L2-Pf-HR :0.99015: L2-HR :0.92519: (Sim:1h17m54s) 
CPU  0 inst:  270000001 cyc:  246913751 now IPC :2.14095: AVG IPC :1.08974: L2-Pf-HR :0.99020: L2-HR :0.92548: (Sim:1h18m12s) 
CPU  0 inst:  271000001 cyc:  247406220 now IPC :2.03058: AVG IPC :1.09162: L2-Pf-HR :0.99025: L2-HR :0.92575: (Sim:1h18m29s) 
CPU  0 inst:  272000000 cyc:  247921945 now IPC :1.93902: AVG IPC :1.09339: L2-Pf-HR :0.99029: L2-HR :0.92593: (Sim:1h18m47s) 
CPU  0 inst:  273000000 cyc:  248411945 now IPC :2.04082: AVG IPC :1.09526: L2-Pf-HR :0.99033: L2-HR :0.92618: (Sim:1h19m5s) 
CPU  0 inst:  274000002 cyc:  249005291 now IPC :1.68536: AVG IPC :1.09668: L2-Pf-HR :0.99035: L2-HR :0.92620: (Sim:1h19m24s) 
CPU  0 inst:  275000003 cyc:  249499362 now IPC :2.02400: AVG IPC :1.09852: L2-Pf-HR :0.99039: L2-HR :0.92641: (Sim:1h19m42s) 
CPU  0 inst:  276000003 cyc:  250059397 now IPC :1.78560: AVG IPC :1.10006: L2-Pf-HR :0.99043: L2-HR :0.92659: (Sim:1h20m0s) 
CPU  0 inst:  277000002 cyc:  250629326 now IPC :1.75460: AVG IPC :1.10156: L2-Pf-HR :0.99044: L2-HR :0.92666: (Sim:1h20m19s) 
CPU  0 inst:  278000005 cyc:  251096472 now IPC :2.14066: AVG IPC :1.10350: L2-Pf-HR :0.99049: L2-HR :0.92694: (Sim:1h20m37s) 
CPU  0 inst:  279000003 cyc:  251599009 now IPC :1.98990: AVG IPC :1.10528: L2-Pf-HR :0.99053: L2-HR :0.92718: (Sim:1h20m55s) 
CPU  0 inst:  280000001 cyc:  252106640 now IPC :1.96993: AVG IPC :1.10702: L2-Pf-HR :0.99057: L2-HR :0.92736: (Sim:1h21m13s) 
CPU  0 inst:  281000003 cyc:  252575012 now IPC :2.13506: AVG IPC :1.10894: L2-Pf-HR :0.99061: L2-HR :0.92760: (Sim:1h21m31s) 
CPU  0 inst:  282000000 cyc:  253186820 now IPC :1.63449: AVG IPC :1.11021: L2-Pf-HR :0.99063: L2-HR :0.92762: (Sim:1h21m50s) 
CPU  0 inst:  283000003 cyc:  253709997 now IPC :1.91140: AVG IPC :1.11187: L2-Pf-HR :0.99067: L2-HR :0.92782: (Sim:1h22m9s) 
CPU  0 inst:  284000000 cyc:  254237029 now IPC :1.89741: AVG IPC :1.11351: L2-Pf-HR :0.99071: L2-HR :0.92803: (Sim:1h22m29s) 
CPU  0 inst:  285000002 cyc:  254861476 now IPC :1.60142: AVG IPC :1.11471: L2-Pf-HR :0.99072: L2-HR :0.92803: (Sim:1h22m47s) 
CPU  0 inst:  286000004 cyc:  255344437 now IPC :2.07056: AVG IPC :1.11652: L2-Pf-HR :0.99076: L2-HR :0.92827: (Sim:1h23m6s) 
CPU  0 inst:  287000002 cyc:  255810456 now IPC :2.14583: AVG IPC :1.11840: L2-Pf-HR :0.99080: L2-HR :0.92853: (Sim:1h23m24s) 
CPU  0 inst:  288000002 cyc:  256307645 now IPC :2.01131: AVG IPC :1.12014: L2-Pf-HR :0.99084: L2-HR :0.92876: (Sim:1h23m41s) 
CPU  0 inst:  289000001 cyc:  256830382 now IPC :1.91301: AVG IPC :1.12176: L2-Pf-HR :0.99088: L2-HR :0.92891: (Sim:1h24m0s) 
CPU  0 inst:  290000001 cyc:  257315187 now IPC :2.06269: AVG IPC :1.12354: L2-Pf-HR :0.99091: L2-HR :0.92914: (Sim:1h24m17s) 
CPU  0 inst:  291000000 cyc:  257925503 now IPC :1.63849: AVG IPC :1.12477: L2-Pf-HR :0.99091: L2-HR :0.92914: (Sim:1h24m36s) 
CPU  0 inst:  292000002 cyc:  258437763 now IPC :1.95214: AVG IPC :1.12641: L2-Pf-HR :0.99095: L2-HR :0.92930: (Sim:1h24m55s) 
CPU  0 inst:  293000002 cyc:  258997850 now IPC :1.78544: AVG IPC :1.12784: L2-Pf-HR :0.99098: L2-HR :0.92947: (Sim:1h25m12s) 
CPU  0 inst:  294000002 cyc:  259555163 now IPC :1.79432: AVG IPC :1.12928: L2-Pf-HR :0.99100: L2-HR :0.92954: (Sim:1h25m31s) 
CPU  0 inst:  295000001 cyc:  260022595 now IPC :2.13935: AVG IPC :1.13110: L2-Pf-HR :0.99104: L2-HR :0.92979: (Sim:1h25m50s) 
Finished CPU 0 instr: 293000000 cyc: 259039653 AVG IPC: 1.13110 (Sim time: 1h25m50s)

ChampSim completed all CPUs

[ROI Statistics]
Core_0_instructions 293000000
Core_0_cycles 259039653
Core_0_IPC 1.13110

Core_0_branch_prediction_accuracy 98.23791
Core_0_branch_MPKI 0.42863
Core_0_average_ROB_occupancy_at_mispredict 572.45652

Core_0_L1D_total_access 73980252
Core_0_L1D_total_hit 68498050 L1D_total_Hit Ratio: 0.92590
Core_0_L1D_total_miss 5482202
Core_0_L1D_loads 68069646
Core_0_L1D_load_hit 62896923 L1D_load_Hit Ratio: 0.92401
Core_0_L1D_load_miss 5172723
Core_0_L1D_RFOs 5910606
Core_0_L1D_RFO_hit 5601127 L1D_RFO_Hit Ratio: 0.94764
Core_0_L1D_RFO_miss 309479
Core_0_L1D_prefetches 0
Core_0_L1D_prefetch_hit 0 L1D_prefetch_Hit Ratio: -nan
Core_0_L1D_prefetch_miss 0
Core_0_L1D_writebacks 0
Core_0_L1D_writeback_hit 0 L1D_writeback_Hit Ratio: -nan
Core_0_L1D_writeback_miss 0
Core_0_L1D_prefetch_requested 0
Core_0_L1D_prefetch_issued 0
Core_0_L1D_prefetch_useful 0 L1D_Useful Ratio: -nan
Core_0_L1D_prefetch_useless 0
Core_0_L1D_prefetch_late 0
Core_0_L1D_average_miss_latency 82.68887

Core_0_L1I_total_access 39253277
Core_0_L1I_total_hit 39251299 L1I_total_Hit Ratio: 0.99995
Core_0_L1I_total_miss 1978
Core_0_L1I_loads 39253277
Core_0_L1I_load_hit 39251299 L1I_load_Hit Ratio: 0.99995
Core_0_L1I_load_miss 1978
Core_0_L1I_RFOs 0
Core_0_L1I_RFO_hit 0 L1I_RFO_Hit Ratio: -nan
Core_0_L1I_RFO_miss 0
Core_0_L1I_prefetches 0
Core_0_L1I_prefetch_hit 0 L1I_prefetch_Hit Ratio: -nan
Core_0_L1I_prefetch_miss 0
Core_0_L1I_writebacks 0
Core_0_L1I_writeback_hit 0 L1I_writeback_Hit Ratio: -nan
Core_0_L1I_writeback_miss 0
Core_0_L1I_prefetch_requested 0
Core_0_L1I_prefetch_issued 0
Core_0_L1I_prefetch_useful 0 L1I_Useful Ratio: -nan
Core_0_L1I_prefetch_useless 0
Core_0_L1I_prefetch_late 0
Core_0_L1I_average_miss_latency 260.30789

Core_0_L2C_total_access 22368204
Core_0_L2C_total_hit 20797689 L2C_total_Hit Ratio: 0.92979
Core_0_L2C_total_miss 1570515
Core_0_L2C_loads 5174692
Core_0_L2C_load_hit 4003998 L2C_load_Hit Ratio: 0.77377
Core_0_L2C_load_miss 1170694
Core_0_L2C_RFOs 309475
Core_0_L2C_RFO_hit 46845 L2C_RFO_Hit Ratio: 0.15137
Core_0_L2C_RFO_miss 262630
Core_0_L2C_prefetches 15308218
Core_0_L2C_prefetch_hit 15171033 L2C_prefetch_Hit Ratio: 0.99104
Core_0_L2C_prefetch_miss 137185
Core_0_L2C_writebacks 1575819
Core_0_L2C_writeback_hit 1575813 L2C_writeback_Hit Ratio: 1.00000
Core_0_L2C_writeback_miss 6
Core_0_L2C_prefetch_requested 30352121
Core_0_L2C_prefetch_issued 28205087
Core_0_L2C_prefetch_useful 138726 L2C_Useful Ratio: 0.00492
Core_0_L2C_prefetch_useless 107
Core_0_L2C_prefetch_late 225555
Core_0_L2C_average_miss_latency 229.92048

Core_0_LLC_total_access 5115063
Core_0_LLC_total_hit 3534996 LLC_total_Hit Ratio: 0.69110
Core_0_LLC_total_miss 1580067
Core_0_LLC_loads 945208
Core_0_LLC_load_hit 344750 LLC_load_Hit Ratio: 0.36473
Core_0_LLC_load_miss 600458
Core_0_LLC_RFOs 262630
Core_0_LLC_RFO_hit 44 LLC_RFO_Hit Ratio: 0.00017
Core_0_LLC_RFO_miss 262586
Core_0_LLC_prefetches 3059901
Core_0_LLC_prefetch_hit 2350120 LLC_prefetch_Hit Ratio: 0.76804
Core_0_LLC_prefetch_miss 709781
Core_0_LLC_writebacks 847324
Core_0_LLC_writeback_hit 840082 LLC_writeback_Hit Ratio: 0.99145
Core_0_LLC_writeback_miss 7242
Core_0_LLC_prefetch_requested 0
Core_0_LLC_prefetch_issued 0
Core_0_LLC_prefetch_useful 351452 LLC_Useful Ratio: inf
Core_0_LLC_prefetch_useless 344568
Core_0_LLC_prefetch_late 280019
Core_0_LLC_average_miss_latency 287.27003

Core_0_major_page_fault 0
Core_0_minor_page_fault 13331

 All Calls: 5212918
 Critical Calls: 5212918
------------------
Depth Distribution
------------------
depth 0: 0
depth 1: 4456103
depth 2: 4271787
depth 3: 4074188
depth 4: 3866988
depth 5: 3471997
depth 6: 2722159
depth 7: 1851172
depth 8: 1314713
depth 9: 897180
depth 10: 603507
depth 11: 357747
depth 12: 189030
depth 13: 80458
depth 14: 24301
depth 15: 23696
depth 16: 61
depth 17: 0
depth 18: 0
depth 19: 0
depth 20: 0
depth 21: 0
depth 22: 0
depth 23: 0
depth 24: 0
depth 25: 0
depth 26: 0
depth 27: 0
depth 28: 0
depth 29: 0
Total: 28205087
-----------------------------
-----------------------------
	Captured at Filter
-----------------------------
depth 0: 0
depth 1: 351527
depth 2: 343221
depth 3: 341901
depth 4: 310058
depth 5: 289742
depth 6: 220112
depth 7: 139643
depth 8: 91061
depth 9: 54413
depth 10: 28687
depth 11: 13061
depth 12: 4347
depth 13: 580
depth 14: 97
depth 15: 96
depth 16: 1
depth 17: 0
depth 18: 0
depth 19: 0
depth 20: 0
depth 21: 0
depth 22: 0
depth 23: 0
depth 24: 0
depth 25: 0
depth 26: 0
depth 27: 0
depth 28: 0
depth 29: 0
-----------------------------
-----------------------------
		Lost at Page
-----------------------------
depth 0: 0
depth 1: 144470
depth 2: 206096
depth 3: 266406
depth 4: 303605
depth 5: 354686
depth 6: 359193
depth 7: 295770
depth 8: 244839
depth 9: 189475
depth 10: 139470
depth 11: 89910
depth 12: 49691
depth 13: 21096
depth 14: 6803
depth 15: 7290
depth 16: 3
depth 17: 0
depth 18: 0
depth 19: 0
depth 20: 0
depth 21: 0
depth 22: 0
depth 23: 0
depth 24: 0
depth 25: 0
depth 26: 0
depth 27: 0
depth 28: 0
depth 29: 0
-----------------------------
-----------------------------
	Lost due to PQ Size
-----------------------------
2147034
-----------------------------
ST read accesses: 5135683
ST write accesses: 39009
PT read accesses: 201156932
PT write accesses: 7683926
FILTER read accesses: 39085172
FILTER write accesses: 7278777
GHR read accesses: 15960154
GHR write accesses: 2666857
GHR counter read accesses: 170351568
GHR counter write accesses: 11096647
ST tag read accesses: 1995640600
ST tag write accesses: 45038569
Channel_0_RQ_row_buffer_hit 862323
Channel_0_RQ_row_buffer_miss 710502
Channel_0_WQ_row_buffer_hit 343218
Channel_0_WQ_row_buffer_miss 496516
Channel_0_WQ_full 4057
Channel_0_dbus_congested 1089256

avg_congested_cycle 8

EzSearch AVG IPC :1.13110: L2-Pf-HR :0.99104 : L2-HR :0.92979 Uful:0.00492
     > Finished combination: TraceType=770-tot Sim:293000000 Prefetcher=L2spp_berti_src L1=no
