TRACE: [331000000][Pythia-70M]_[h8][s1024][d64] Warmup: 2000000 NumTraces: 331000000
L1:isb_ideal:L2:isb_ideal
*************************************************
   ChampSim Multicore Out-of-Order Simulator
   Last compiled: Oct 20 2024 05:12:04
*************************************************

trace_0 770-tot_memTraces_v3/memTraces[331000000][Pythia-70M]_[h8][s1024][d64].champsim.xz
L1D: Ideal ISB Prefetching
Ideal ISB Prefetching
MAIN.cc ln 751 stats print skipped
CPU  0 inst:    1000000 cyc:     503683 now IPC :1.98538: AVG IPC :1.98538: L2-Pf-HR :0.99404: L2-HR :0.87735: (Sim:0h0m5s) 
CPU  0 inst:    2000001 cyc:     980417 now IPC :2.09761: AVG IPC :2.03995: L2-Pf-HR :0.99348: L2-HR :0.90589: (Sim:0h0m10s) 

Warmup complete CPU  0 instructions:    2000001 cycles:     980417 (Simulation time: 0 hr 0 min 10 sec) 

CPU  0 inst:    3000000 cyc:    1749803 now IPC :1.29974: AVG IPC :1.29974: L2-Pf-HR :0.99363: L2-HR :0.93382: (Sim:0h0m14s) 
CPU  0 inst:    4000000 cyc:    2524586 now IPC :1.29068: AVG IPC :1.29519: L2-Pf-HR :0.99363: L2-HR :0.93368: (Sim:0h0m19s) 
CPU  0 inst:    5000003 cyc:    3293590 now IPC :1.30039: AVG IPC :1.29692: L2-Pf-HR :0.99359: L2-HR :0.93371: (Sim:0h0m24s) 
CPU  0 inst:    6000000 cyc:    4070277 now IPC :1.28752: AVG IPC :1.29456: L2-Pf-HR :0.99353: L2-HR :0.93390: (Sim:0h0m29s) 
CPU  0 inst:    7000000 cyc:    4990158 now IPC :1.08710: AVG IPC :1.24696: L2-Pf-HR :0.99246: L2-HR :0.93346: (Sim:0h0m34s) 
CPU  0 inst:    8000000 cyc:    5798544 now IPC :1.23703: AVG IPC :1.24530: L2-Pf-HR :0.99151: L2-HR :0.93437: (Sim:0h0m39s) 
CPU  0 inst:    9000001 cyc:    6607188 now IPC :1.23664: AVG IPC :1.24405: L2-Pf-HR :0.99080: L2-HR :0.93504: (Sim:0h0m44s) 
CPU  0 inst:   10000003 cyc:    7415264 now IPC :1.23751: AVG IPC :1.24323: L2-Pf-HR :0.99027: L2-HR :0.93556: (Sim:0h0m49s) 
CPU  0 inst:   11000001 cyc:    8219473 now IPC :1.24346: AVG IPC :1.24326: L2-Pf-HR :0.98987: L2-HR :0.93596: (Sim:0h0m54s) 
CPU  0 inst:   12000000 cyc:    9026395 now IPC :1.23928: AVG IPC :1.24286: L2-Pf-HR :0.98960: L2-HR :0.93639: (Sim:0h0m59s) 
CPU  0 inst:   13000001 cyc:    9907952 now IPC :1.13436: AVG IPC :1.23214: L2-Pf-HR :0.98923: L2-HR :0.93623: (Sim:0h1m4s) 
CPU  0 inst:   14000001 cyc:   10711479 now IPC :1.24451: AVG IPC :1.23316: L2-Pf-HR :0.98886: L2-HR :0.93636: (Sim:0h1m9s) 
CPU  0 inst:   15000001 cyc:   11514325 now IPC :1.24557: AVG IPC :1.23411: L2-Pf-HR :0.98858: L2-HR :0.93647: (Sim:0h1m14s) 
CPU  0 inst:   16000000 cyc:   12314086 now IPC :1.25037: AVG IPC :1.23526: L2-Pf-HR :0.98832: L2-HR :0.93656: (Sim:0h1m19s) 
CPU  0 inst:   17000002 cyc:   13259424 now IPC :1.05782: AVG IPC :1.22160: L2-Pf-HR :0.98780: L2-HR :0.93551: (Sim:0h1m24s) 
CPU  0 inst:   18000002 cyc:   14083315 now IPC :1.21375: AVG IPC :1.22110: L2-Pf-HR :0.98776: L2-HR :0.93541: (Sim:0h1m29s) 
CPU  0 inst:   19000001 cyc:   14909218 now IPC :1.21079: AVG IPC :1.22049: L2-Pf-HR :0.98774: L2-HR :0.93534: (Sim:0h1m35s) 
CPU  0 inst:   20000000 cyc:   15732163 now IPC :1.21515: AVG IPC :1.22019: L2-Pf-HR :0.98774: L2-HR :0.93527: (Sim:0h1m40s) 
CPU  0 inst:   21000001 cyc:   16557384 now IPC :1.21180: AVG IPC :1.21975: L2-Pf-HR :0.98769: L2-HR :0.93518: (Sim:0h1m45s) 
CPU  0 inst:   22000001 cyc:   17386931 now IPC :1.20548: AVG IPC :1.21903: L2-Pf-HR :0.98765: L2-HR :0.93514: (Sim:0h1m50s) 
CPU  0 inst:   23000003 cyc:   18316281 now IPC :1.07602: AVG IPC :1.21136: L2-Pf-HR :0.98765: L2-HR :0.93493: (Sim:0h1m55s) 
CPU  0 inst:   24000000 cyc:   19127471 now IPC :1.23275: AVG IPC :1.21232: L2-Pf-HR :0.98761: L2-HR :0.93510: (Sim:0h2m0s) 
CPU  0 inst:   25000003 cyc:   19938599 now IPC :1.23285: AVG IPC :1.21320: L2-Pf-HR :0.98759: L2-HR :0.93525: (Sim:0h2m5s) 
CPU  0 inst:   26000000 cyc:   20746481 now IPC :1.23780: AVG IPC :1.21420: L2-Pf-HR :0.98759: L2-HR :0.93539: (Sim:0h2m10s) 
CPU  0 inst:   27000002 cyc:   21558050 now IPC :1.23218: AVG IPC :1.21491: L2-Pf-HR :0.98756: L2-HR :0.93552: (Sim:0h2m15s) 
CPU  0 inst:   28000000 cyc:   22363812 now IPC :1.24106: AVG IPC :1.21590: L2-Pf-HR :0.98757: L2-HR :0.93569: (Sim:0h2m20s) 
CPU  0 inst:   29000003 cyc:   23242350 now IPC :1.13826: AVG IPC :1.21283: L2-Pf-HR :0.98754: L2-HR :0.93563: (Sim:0h2m26s) 
CPU  0 inst:   30000001 cyc:   24047934 now IPC :1.24133: AVG IPC :1.21383: L2-Pf-HR :0.98746: L2-HR :0.93568: (Sim:0h2m31s) 
CPU  0 inst:   31000001 cyc:   24849388 now IPC :1.24773: AVG IPC :1.21497: L2-Pf-HR :0.98739: L2-HR :0.93571: (Sim:0h2m36s) 
CPU  0 inst:   32000000 cyc:   25649349 now IPC :1.25006: AVG IPC :1.21610: L2-Pf-HR :0.98731: L2-HR :0.93575: (Sim:0h2m41s) 
CPU  0 inst:   33000003 cyc:   26581952 now IPC :1.07227: AVG IPC :1.21087: L2-Pf-HR :0.98712: L2-HR :0.93528: (Sim:0h2m46s) 
CPU  0 inst:   34000003 cyc:   27401044 now IPC :1.22086: AVG IPC :1.21117: L2-Pf-HR :0.98714: L2-HR :0.93522: (Sim:0h2m51s) 
CPU  0 inst:   35000002 cyc:   28220925 now IPC :1.21969: AVG IPC :1.21143: L2-Pf-HR :0.98717: L2-HR :0.93518: (Sim:0h2m56s) 
CPU  0 inst:   36000000 cyc:   29044535 now IPC :1.21416: AVG IPC :1.21151: L2-Pf-HR :0.98719: L2-HR :0.93512: (Sim:0h3m2s) 
CPU  0 inst:   37000001 cyc:   29863768 now IPC :1.22066: AVG IPC :1.21177: L2-Pf-HR :0.98722: L2-HR :0.93508: (Sim:0h3m7s) 
CPU  0 inst:   38000001 cyc:   30686261 now IPC :1.21582: AVG IPC :1.21188: L2-Pf-HR :0.98723: L2-HR :0.93504: (Sim:0h3m12s) 
CPU  0 inst:   39000003 cyc:   31615164 now IPC :1.07654: AVG IPC :1.20778: L2-Pf-HR :0.98725: L2-HR :0.93490: (Sim:0h3m17s) 
CPU  0 inst:   40000000 cyc:   32420059 now IPC :1.24239: AVG IPC :1.20867: L2-Pf-HR :0.98726: L2-HR :0.93498: (Sim:0h3m22s) 
CPU  0 inst:   41000003 cyc:   33221572 now IPC :1.24764: AVG IPC :1.20963: L2-Pf-HR :0.98726: L2-HR :0.93505: (Sim:0h3m27s) 
CPU  0 inst:   42000003 cyc:   34024320 now IPC :1.24572: AVG IPC :1.21051: L2-Pf-HR :0.98726: L2-HR :0.93510: (Sim:0h3m32s) 
CPU  0 inst:   43000000 cyc:   34824439 now IPC :1.24981: AVG IPC :1.21144: L2-Pf-HR :0.98727: L2-HR :0.93517: (Sim:0h3m37s) 
CPU  0 inst:   44000000 cyc:   35621392 now IPC :1.25478: AVG IPC :1.21244: L2-Pf-HR :0.98729: L2-HR :0.93525: (Sim:0h3m43s) 
CPU  0 inst:   45000003 cyc:   36492159 now IPC :1.14842: AVG IPC :1.21087: L2-Pf-HR :0.98729: L2-HR :0.93520: (Sim:0h3m48s) 
CPU  0 inst:   46000002 cyc:   37298134 now IPC :1.24073: AVG IPC :1.21153: L2-Pf-HR :0.98726: L2-HR :0.93521: (Sim:0h3m53s) 
CPU  0 inst:   47000000 cyc:   38101198 now IPC :1.24523: AVG IPC :1.21226: L2-Pf-HR :0.98724: L2-HR :0.93523: (Sim:0h3m58s) 
CPU  0 inst:   48000000 cyc:   38902084 now IPC :1.24862: AVG IPC :1.21303: L2-Pf-HR :0.98722: L2-HR :0.93524: (Sim:0h4m3s) 
CPU  0 inst:   49000000 cyc:   39834265 now IPC :1.07275: AVG IPC :1.20966: L2-Pf-HR :0.98709: L2-HR :0.93491: (Sim:0h4m9s) 
CPU  0 inst:   50000001 cyc:   40648957 now IPC :1.22746: AVG IPC :1.21003: L2-Pf-HR :0.98710: L2-HR :0.93485: (Sim:0h4m14s) 
CPU  0 inst:   51000000 cyc:   41465790 now IPC :1.22424: AVG IPC :1.21031: L2-Pf-HR :0.98712: L2-HR :0.93480: (Sim:0h4m20s) 
CPU  0 inst:   52000000 cyc:   42283116 now IPC :1.22350: AVG IPC :1.21057: L2-Pf-HR :0.98715: L2-HR :0.93475: (Sim:0h4m25s) 
CPU  0 inst:   53000003 cyc:   43101104 now IPC :1.22252: AVG IPC :1.21081: L2-Pf-HR :0.98717: L2-HR :0.93469: (Sim:0h4m30s) 
CPU  0 inst:   54000002 cyc:   43919407 now IPC :1.22204: AVG IPC :1.21102: L2-Pf-HR :0.98719: L2-HR :0.93465: (Sim:0h4m35s) 
CPU  0 inst:   55000003 cyc:   44854112 now IPC :1.06986: AVG IPC :1.20801: L2-Pf-HR :0.98720: L2-HR :0.93452: (Sim:0h4m41s) 
CPU  0 inst:   56000000 cyc:   45668896 now IPC :1.22732: AVG IPC :1.20837: L2-Pf-HR :0.98721: L2-HR :0.93456: (Sim:0h4m46s) 
CPU  0 inst:   57000002 cyc:   46480883 now IPC :1.23155: AVG IPC :1.20878: L2-Pf-HR :0.98722: L2-HR :0.93458: (Sim:0h4m51s) 
CPU  0 inst:   58000003 cyc:   47290073 now IPC :1.23580: AVG IPC :1.20925: L2-Pf-HR :0.98723: L2-HR :0.93461: (Sim:0h4m57s) 
CPU  0 inst:   59000001 cyc:   48103142 now IPC :1.22991: AVG IPC :1.20961: L2-Pf-HR :0.98724: L2-HR :0.93463: (Sim:0h5m2s) 
CPU  0 inst:   60000000 cyc:   48909864 now IPC :1.23958: AVG IPC :1.21011: L2-Pf-HR :0.98726: L2-HR :0.93468: (Sim:0h5m7s) 
CPU  0 inst:   61000001 cyc:   49786216 now IPC :1.14110: AVG IPC :1.20887: L2-Pf-HR :0.98727: L2-HR :0.93464: (Sim:0h5m13s) 
CPU  0 inst:   62000002 cyc:   50579382 now IPC :1.26077: AVG IPC :1.20970: L2-Pf-HR :0.98726: L2-HR :0.93464: (Sim:0h5m18s) 
CPU  0 inst:   63000003 cyc:   51368728 now IPC :1.26687: AVG IPC :1.21060: L2-Pf-HR :0.98725: L2-HR :0.93463: (Sim:0h5m23s) 
CPU  0 inst:   64000000 cyc:   52155750 now IPC :1.27061: AVG IPC :1.21152: L2-Pf-HR :0.98724: L2-HR :0.93462: (Sim:0h5m28s) 
CPU  0 inst:   65000001 cyc:   53071414 now IPC :1.09210: AVG IPC :1.20942: L2-Pf-HR :0.98715: L2-HR :0.93439: (Sim:0h5m34s) 
CPU  0 inst:   66000002 cyc:   53875045 now IPC :1.24435: AVG IPC :1.20995: L2-Pf-HR :0.98716: L2-HR :0.93434: (Sim:0h5m39s) 
CPU  0 inst:   67000001 cyc:   54681540 now IPC :1.23993: AVG IPC :1.21040: L2-Pf-HR :0.98718: L2-HR :0.93429: (Sim:0h5m45s) 
CPU  0 inst:   68000000 cyc:   55488316 now IPC :1.23950: AVG IPC :1.21083: L2-Pf-HR :0.98719: L2-HR :0.93423: (Sim:0h5m50s) 
CPU  0 inst:   69000000 cyc:   56296489 now IPC :1.23736: AVG IPC :1.21122: L2-Pf-HR :0.98721: L2-HR :0.93418: (Sim:0h5m55s) 
CPU  0 inst:   70000001 cyc:   57108065 now IPC :1.23217: AVG IPC :1.21152: L2-Pf-HR :0.98722: L2-HR :0.93412: (Sim:0h6m1s) 
CPU  0 inst:   71000000 cyc:   58034116 now IPC :1.07985: AVG IPC :1.20939: L2-Pf-HR :0.98722: L2-HR :0.93399: (Sim:0h6m6s) 
CPU  0 inst:   72000000 cyc:   58837588 now IPC :1.24460: AVG IPC :1.20988: L2-Pf-HR :0.98724: L2-HR :0.93401: (Sim:0h6m12s) 
CPU  0 inst:   73000003 cyc:   59641599 now IPC :1.24377: AVG IPC :1.21034: L2-Pf-HR :0.98724: L2-HR :0.93401: (Sim:0h6m17s) 
CPU  0 inst:   74000000 cyc:   60442865 now IPC :1.24802: AVG IPC :1.21085: L2-Pf-HR :0.98725: L2-HR :0.93401: (Sim:0h6m22s) 
CPU  0 inst:   75000002 cyc:   61240857 now IPC :1.25315: AVG IPC :1.21141: L2-Pf-HR :0.98726: L2-HR :0.93402: (Sim:0h6m28s) 
CPU  0 inst:   76000000 cyc:   62040441 now IPC :1.25065: AVG IPC :1.21192: L2-Pf-HR :0.98727: L2-HR :0.93404: (Sim:0h6m33s) 
CPU  0 inst:   77000001 cyc:   62911406 now IPC :1.14815: AVG IPC :1.21103: L2-Pf-HR :0.98727: L2-HR :0.93400: (Sim:0h6m38s) 
CPU  0 inst:   78000002 cyc:   63713528 now IPC :1.24669: AVG IPC :1.21148: L2-Pf-HR :0.98727: L2-HR :0.93399: (Sim:0h6m44s) 
CPU  0 inst:   79000001 cyc:   64510862 now IPC :1.25418: AVG IPC :1.21202: L2-Pf-HR :0.98726: L2-HR :0.93398: (Sim:0h6m49s) 
CPU  0 inst:   80000000 cyc:   65307609 now IPC :1.25510: AVG IPC :1.21255: L2-Pf-HR :0.98725: L2-HR :0.93396: (Sim:0h6m54s) 
CPU  0 inst:   81000000 cyc:   66232725 now IPC :1.08095: AVG IPC :1.21069: L2-Pf-HR :0.98717: L2-HR :0.93377: (Sim:0h7m0s) 
CPU  0 inst:   82000002 cyc:   67054106 now IPC :1.21746: AVG IPC :1.21077: L2-Pf-HR :0.98719: L2-HR :0.93372: (Sim:0h7m5s) 
CPU  0 inst:   83000000 cyc:   67879082 now IPC :1.21215: AVG IPC :1.21079: L2-Pf-HR :0.98720: L2-HR :0.93367: (Sim:0h7m11s) 
CPU  0 inst:   84000000 cyc:   68703103 now IPC :1.21356: AVG IPC :1.21082: L2-Pf-HR :0.98721: L2-HR :0.93363: (Sim:0h7m16s) 
CPU  0 inst:   85000001 cyc:   69531978 now IPC :1.20646: AVG IPC :1.21077: L2-Pf-HR :0.98723: L2-HR :0.93358: (Sim:0h7m22s) 
CPU  0 inst:   86000002 cyc:   70359803 now IPC :1.20799: AVG IPC :1.21073: L2-Pf-HR :0.98724: L2-HR :0.93353: (Sim:0h7m27s) 
CPU  0 inst:   87000001 cyc:   71284269 now IPC :1.08170: AVG IPC :1.20904: L2-Pf-HR :0.98725: L2-HR :0.93342: (Sim:0h7m33s) 
CPU  0 inst:   88000000 cyc:   72113905 now IPC :1.20535: AVG IPC :1.20899: L2-Pf-HR :0.98726: L2-HR :0.93342: (Sim:0h7m38s) 
CPU  0 inst:   89000002 cyc:   72926383 now IPC :1.23081: AVG IPC :1.20924: L2-Pf-HR :0.98727: L2-HR :0.93342: (Sim:0h7m44s) 
CPU  0 inst:   90000001 cyc:   73734398 now IPC :1.23760: AVG IPC :1.20956: L2-Pf-HR :0.98728: L2-HR :0.93342: (Sim:0h7m49s) 
CPU  0 inst:   91000000 cyc:   74542906 now IPC :1.23684: AVG IPC :1.20986: L2-Pf-HR :0.98729: L2-HR :0.93343: (Sim:0h7m54s) 
CPU  0 inst:   92000000 cyc:   75348178 now IPC :1.24182: AVG IPC :1.21020: L2-Pf-HR :0.98730: L2-HR :0.93344: (Sim:0h8m0s) 
CPU  0 inst:   93000003 cyc:   76226943 now IPC :1.13796: AVG IPC :1.20936: L2-Pf-HR :0.98730: L2-HR :0.93340: (Sim:0h8m5s) 
CPU  0 inst:   94000003 cyc:   77037704 now IPC :1.23341: AVG IPC :1.20961: L2-Pf-HR :0.98730: L2-HR :0.93339: (Sim:0h8m11s) 
CPU  0 inst:   95000000 cyc:   77843331 now IPC :1.24127: AVG IPC :1.20995: L2-Pf-HR :0.98729: L2-HR :0.93337: (Sim:0h8m16s) 
CPU  0 inst:   96000000 cyc:   78649420 now IPC :1.24056: AVG IPC :1.21026: L2-Pf-HR :0.98728: L2-HR :0.93335: (Sim:0h8m22s) 
CPU  0 inst:   97000000 cyc:   79547332 now IPC :1.11369: AVG IPC :1.20916: L2-Pf-HR :0.98721: L2-HR :0.93318: (Sim:0h8m27s) 
CPU  0 inst:   98000000 cyc:   80395037 now IPC :1.17966: AVG IPC :1.20885: L2-Pf-HR :0.98722: L2-HR :0.93313: (Sim:0h8m33s) 
CPU  0 inst:   99000003 cyc:   81215913 now IPC :1.21821: AVG IPC :1.20894: L2-Pf-HR :0.98723: L2-HR :0.93308: (Sim:0h8m38s) 
CPU  0 inst:  100000000 cyc:   82042525 now IPC :1.20975: AVG IPC :1.20895: L2-Pf-HR :0.98724: L2-HR :0.93304: (Sim:0h8m43s) 
CPU  0 inst:  101000002 cyc:   82869272 now IPC :1.20956: AVG IPC :1.20896: L2-Pf-HR :0.98725: L2-HR :0.93300: (Sim:0h8m49s) 
CPU  0 inst:  102000002 cyc:   83699047 now IPC :1.20515: AVG IPC :1.20892: L2-Pf-HR :0.98726: L2-HR :0.93295: (Sim:0h8m54s) 
CPU  0 inst:  103000003 cyc:   84540111 now IPC :1.18897: AVG IPC :1.20872: L2-Pf-HR :0.98726: L2-HR :0.93294: (Sim:0h8m59s) 
CPU  0 inst:  104000000 cyc:   85438768 now IPC :1.11277: AVG IPC :1.20770: L2-Pf-HR :0.98727: L2-HR :0.93285: (Sim:0h9m5s) 
CPU  0 inst:  105000002 cyc:   86228637 now IPC :1.26604: AVG IPC :1.20824: L2-Pf-HR :0.98728: L2-HR :0.93284: (Sim:0h9m10s) 
CPU  0 inst:  106000001 cyc:   87018596 now IPC :1.26589: AVG IPC :1.20877: L2-Pf-HR :0.98728: L2-HR :0.93284: (Sim:0h9m15s) 
CPU  0 inst:  107000001 cyc:   87801009 now IPC :1.27810: AVG IPC :1.20939: L2-Pf-HR :0.98729: L2-HR :0.93285: (Sim:0h9m21s) 
CPU  0 inst:  108000000 cyc:   88588243 now IPC :1.27027: AVG IPC :1.20994: L2-Pf-HR :0.98730: L2-HR :0.93284: (Sim:0h9m26s) 
CPU  0 inst:  109000003 cyc:   89378962 now IPC :1.26468: AVG IPC :1.21043: L2-Pf-HR :0.98730: L2-HR :0.93288: (Sim:0h9m31s) 
CPU  0 inst:  110000000 cyc:   90239396 now IPC :1.16220: AVG IPC :1.20996: L2-Pf-HR :0.98729: L2-HR :0.93280: (Sim:0h9m37s) 
CPU  0 inst:  111000002 cyc:   91030821 now IPC :1.26355: AVG IPC :1.21043: L2-Pf-HR :0.98729: L2-HR :0.93278: (Sim:0h9m42s) 
CPU  0 inst:  112000000 cyc:   91822576 now IPC :1.26301: AVG IPC :1.21089: L2-Pf-HR :0.98728: L2-HR :0.93275: (Sim:0h9m48s) 
CPU  0 inst:  113000000 cyc:   92618800 now IPC :1.25593: AVG IPC :1.21128: L2-Pf-HR :0.98727: L2-HR :0.93273: (Sim:0h9m53s) 
CPU  0 inst:  114000001 cyc:   93550358 now IPC :1.07347: AVG IPC :1.20990: L2-Pf-HR :0.98722: L2-HR :0.93255: (Sim:0h9m59s) 
CPU  0 inst:  115000000 cyc:   94364628 now IPC :1.22809: AVG IPC :1.21005: L2-Pf-HR :0.98722: L2-HR :0.93250: (Sim:0h10m4s) 
CPU  0 inst:  116000000 cyc:   95176819 now IPC :1.23124: AVG IPC :1.21024: L2-Pf-HR :0.98723: L2-HR :0.93245: (Sim:0h10m10s) 
CPU  0 inst:  117000000 cyc:   95990722 now IPC :1.22865: AVG IPC :1.21039: L2-Pf-HR :0.98723: L2-HR :0.93240: (Sim:0h10m15s) 
CPU  0 inst:  118000000 cyc:   96808554 now IPC :1.22275: AVG IPC :1.21050: L2-Pf-HR :0.98724: L2-HR :0.93235: (Sim:0h10m20s) 
CPU  0 inst:  119000003 cyc:   97630348 now IPC :1.21685: AVG IPC :1.21055: L2-Pf-HR :0.98724: L2-HR :0.93230: (Sim:0h10m26s) 
CPU  0 inst:  120000000 cyc:   98563367 now IPC :1.07179: AVG IPC :1.20923: L2-Pf-HR :0.98725: L2-HR :0.93223: (Sim:0h10m31s) 
CPU  0 inst:  121000002 cyc:   99384637 now IPC :1.21763: AVG IPC :1.20930: L2-Pf-HR :0.98725: L2-HR :0.93222: (Sim:0h10m37s) 
CPU  0 inst:  122000001 cyc:  100198380 now IPC :1.22889: AVG IPC :1.20946: L2-Pf-HR :0.98726: L2-HR :0.93222: (Sim:0h10m42s) 
CPU  0 inst:  123000002 cyc:  101013429 now IPC :1.22692: AVG IPC :1.20960: L2-Pf-HR :0.98726: L2-HR :0.93222: (Sim:0h10m47s) 
CPU  0 inst:  124000000 cyc:  101825995 now IPC :1.23067: AVG IPC :1.20977: L2-Pf-HR :0.98726: L2-HR :0.93221: (Sim:0h10m53s) 
CPU  0 inst:  125000000 cyc:  102638891 now IPC :1.23017: AVG IPC :1.20993: L2-Pf-HR :0.98726: L2-HR :0.93221: (Sim:0h10m58s) 
CPU  0 inst:  126000001 cyc:  103524609 now IPC :1.12903: AVG IPC :1.20923: L2-Pf-HR :0.98726: L2-HR :0.93216: (Sim:0h11m4s) 
CPU  0 inst:  127000002 cyc:  104332000 now IPC :1.23856: AVG IPC :1.20946: L2-Pf-HR :0.98725: L2-HR :0.93213: (Sim:0h11m9s) 
CPU  0 inst:  128000000 cyc:  105138840 now IPC :1.23940: AVG IPC :1.20970: L2-Pf-HR :0.98725: L2-HR :0.93209: (Sim:0h11m14s) 
CPU  0 inst:  129000002 cyc:  105943819 now IPC :1.24227: AVG IPC :1.20995: L2-Pf-HR :0.98724: L2-HR :0.93205: (Sim:0h11m20s) 
CPU  0 inst:  130000003 cyc:  111150055 now IPC :0.19208: AVG IPC :1.16184: L2-Pf-HR :0.98723: L2-HR :0.92653: (Sim:0h11m38s) 
CPU  0 inst:  131000002 cyc:  117539967 now IPC :0.15650: AVG IPC :1.10673: L2-Pf-HR :0.98723: L2-HR :0.91974: (Sim:0h12m1s) 
CPU  0 inst:  132000000 cyc:  123929206 now IPC :0.15651: AVG IPC :1.05735: L2-Pf-HR :0.98723: L2-HR :0.91316: (Sim:0h12m23s) 
CPU  0 inst:  133000000 cyc:  130317140 now IPC :0.15655: AVG IPC :1.01286: L2-Pf-HR :0.98723: L2-HR :0.90678: (Sim:0h12m47s) 
CPU  0 inst:  134000000 cyc:  136578302 now IPC :0.15971: AVG IPC :0.97347: L2-Pf-HR :0.98723: L2-HR :0.90082: (Sim:0h13m9s) 
CPU  0 inst:  135000000 cyc:  142047471 now IPC :0.18284: AVG IPC :0.94281: L2-Pf-HR :0.98723: L2-HR :0.89986: (Sim:0h13m17s) 
CPU  0 inst:  136000000 cyc:  147474187 now IPC :0.18427: AVG IPC :0.91471: L2-Pf-HR :0.98723: L2-HR :0.89890: (Sim:0h13m25s) 
CPU  0 inst:  137000000 cyc:  152563710 now IPC :0.19648: AVG IPC :0.89060: L2-Pf-HR :0.98723: L2-HR :0.89795: (Sim:0h13m32s) 
CPU  0 inst:  138000002 cyc:  157632655 now IPC :0.19728: AVG IPC :0.86817: L2-Pf-HR :0.98723: L2-HR :0.89700: (Sim:0h13m41s) 
CPU  0 inst:  139000000 cyc:  162601155 now IPC :0.20127: AVG IPC :0.84766: L2-Pf-HR :0.98723: L2-HR :0.89606: (Sim:0h13m52s) 
CPU  0 inst:  140000000 cyc:  167676921 now IPC :0.19701: AVG IPC :0.82785: L2-Pf-HR :0.98723: L2-HR :0.89511: (Sim:0h14m3s) 
CPU  0 inst:  141000003 cyc:  172731365 now IPC :0.19785: AVG IPC :0.80931: L2-Pf-HR :0.98723: L2-HR :0.89417: (Sim:0h14m14s) 
CPU  0 inst:  142000003 cyc:  177854612 now IPC :0.19519: AVG IPC :0.79152: L2-Pf-HR :0.98723: L2-HR :0.89323: (Sim:0h14m24s) 
CPU  0 inst:  143000000 cyc:  182774002 now IPC :0.20328: AVG IPC :0.77560: L2-Pf-HR :0.98723: L2-HR :0.89230: (Sim:0h14m31s) 
CPU  0 inst:  144000000 cyc:  187631686 now IPC :0.20586: AVG IPC :0.76078: L2-Pf-HR :0.98723: L2-HR :0.89137: (Sim:0h14m39s) 
CPU  0 inst:  145000002 cyc:  192967694 now IPC :0.18741: AVG IPC :0.74484: L2-Pf-HR :0.98723: L2-HR :0.89044: (Sim:0h14m49s) 
CPU  0 inst:  146000000 cyc:  198096081 now IPC :0.19499: AVG IPC :0.73054: L2-Pf-HR :0.98723: L2-HR :0.88952: (Sim:0h15m0s) 
CPU  0 inst:  147000000 cyc:  203239782 now IPC :0.19441: AVG IPC :0.71690: L2-Pf-HR :0.98723: L2-HR :0.88859: (Sim:0h15m11s) 
CPU  0 inst:  148000000 cyc:  208301562 now IPC :0.19756: AVG IPC :0.70422: L2-Pf-HR :0.98723: L2-HR :0.88767: (Sim:0h15m22s) 
CPU  0 inst:  149000002 cyc:  213383684 now IPC :0.19677: AVG IPC :0.69208: L2-Pf-HR :0.98723: L2-HR :0.88676: (Sim:0h15m33s) 
CPU  0 inst:  150000000 cyc:  218608109 now IPC :0.19141: AVG IPC :0.68006: L2-Pf-HR :0.98723: L2-HR :0.88585: (Sim:0h15m45s) 
CPU  0 inst:  151000000 cyc:  223763759 now IPC :0.19396: AVG IPC :0.66881: L2-Pf-HR :0.98723: L2-HR :0.88494: (Sim:0h15m55s) 
CPU  0 inst:  152000000 cyc:  228891558 now IPC :0.19502: AVG IPC :0.65815: L2-Pf-HR :0.98723: L2-HR :0.88403: (Sim:0h16m2s) 
CPU  0 inst:  153000002 cyc:  233935100 now IPC :0.19827: AVG IPC :0.64819: L2-Pf-HR :0.98723: L2-HR :0.88313: (Sim:0h16m9s) 
CPU  0 inst:  154000000 cyc:  238944252 now IPC :0.19963: AVG IPC :0.63875: L2-Pf-HR :0.98723: L2-HR :0.88223: (Sim:0h16m17s) 
CPU  0 inst:  155000000 cyc:  243802027 now IPC :0.20586: AVG IPC :0.63009: L2-Pf-HR :0.98723: L2-HR :0.88133: (Sim:0h16m27s) 
CPU  0 inst:  156000000 cyc:  248632510 now IPC :0.20702: AVG IPC :0.62184: L2-Pf-HR :0.98723: L2-HR :0.88043: (Sim:0h16m37s) 
CPU  0 inst:  157000002 cyc:  253687023 now IPC :0.19784: AVG IPC :0.61336: L2-Pf-HR :0.98723: L2-HR :0.87954: (Sim:0h16m48s) 
CPU  0 inst:  158000003 cyc:  258714577 now IPC :0.19890: AVG IPC :0.60527: L2-Pf-HR :0.98723: L2-HR :0.87865: (Sim:0h16m59s) 
CPU  0 inst:  159000003 cyc:  263497573 now IPC :0.20907: AVG IPC :0.59806: L2-Pf-HR :0.98723: L2-HR :0.87776: (Sim:0h17m10s) 
CPU  0 inst:  160000000 cyc:  268343765 now IPC :0.20635: AVG IPC :0.59096: L2-Pf-HR :0.98723: L2-HR :0.87688: (Sim:0h17m21s) 
CPU  0 inst:  161000000 cyc:  273202830 now IPC :0.20580: AVG IPC :0.58408: L2-Pf-HR :0.98723: L2-HR :0.87600: (Sim:0h17m32s) 
CPU  0 inst:  162000003 cyc:  278345601 now IPC :0.19445: AVG IPC :0.57686: L2-Pf-HR :0.98723: L2-HR :0.87512: (Sim:0h17m43s) 
CPU  0 inst:  163000003 cyc:  283277546 now IPC :0.20276: AVG IPC :0.57032: L2-Pf-HR :0.98723: L2-HR :0.87425: (Sim:0h17m54s) 
CPU  0 inst:  164000000 cyc:  288244316 now IPC :0.20134: AVG IPC :0.56394: L2-Pf-HR :0.98723: L2-HR :0.87338: (Sim:0h18m5s) 
CPU  0 inst:  165000001 cyc:  293441399 now IPC :0.19242: AVG IPC :0.55734: L2-Pf-HR :0.98723: L2-HR :0.87251: (Sim:0h18m16s) 
CPU  0 inst:  166000002 cyc:  298420622 now IPC :0.20083: AVG IPC :0.55137: L2-Pf-HR :0.98723: L2-HR :0.87164: (Sim:0h18m27s) 
CPU  0 inst:  167000001 cyc:  303662582 now IPC :0.19077: AVG IPC :0.54513: L2-Pf-HR :0.98723: L2-HR :0.87078: (Sim:0h18m38s) 
CPU  0 inst:  168000000 cyc:  308633581 now IPC :0.20117: AVG IPC :0.53957: L2-Pf-HR :0.98723: L2-HR :0.86992: (Sim:0h18m46s) 
CPU  0 inst:  169000001 cyc:  313696820 now IPC :0.19750: AVG IPC :0.53403: L2-Pf-HR :0.98723: L2-HR :0.86906: (Sim:0h18m54s) 
CPU  0 inst:  170000002 cyc:  318730980 now IPC :0.19864: AVG IPC :0.52872: L2-Pf-HR :0.98723: L2-HR :0.86820: (Sim:0h19m3s) 
CPU  0 inst:  171000000 cyc:  323622799 now IPC :0.20442: AVG IPC :0.52380: L2-Pf-HR :0.98723: L2-HR :0.86735: (Sim:0h19m14s) 
CPU  0 inst:  172000000 cyc:  328745560 now IPC :0.19521: AVG IPC :0.51866: L2-Pf-HR :0.98723: L2-HR :0.86650: (Sim:0h19m25s) 
CPU  0 inst:  173000000 cyc:  333801143 now IPC :0.19780: AVG IPC :0.51379: L2-Pf-HR :0.98723: L2-HR :0.86565: (Sim:0h19m37s) 
CPU  0 inst:  174000002 cyc:  338944160 now IPC :0.19444: AVG IPC :0.50893: L2-Pf-HR :0.98723: L2-HR :0.86481: (Sim:0h19m48s) 
CPU  0 inst:  175000000 cyc:  344142034 now IPC :0.19239: AVG IPC :0.50414: L2-Pf-HR :0.98723: L2-HR :0.86397: (Sim:0h20m0s) 
CPU  0 inst:  176000000 cyc:  349294471 now IPC :0.19408: AVG IPC :0.49955: L2-Pf-HR :0.98723: L2-HR :0.86313: (Sim:0h20m11s) 
CPU  0 inst:  177000000 cyc:  354227547 now IPC :0.20271: AVG IPC :0.49540: L2-Pf-HR :0.98723: L2-HR :0.86229: (Sim:0h20m22s) 
CPU  0 inst:  178000002 cyc:  359118936 now IPC :0.20444: AVG IPC :0.49143: L2-Pf-HR :0.98723: L2-HR :0.86146: (Sim:0h20m32s) 
CPU  0 inst:  179000003 cyc:  363888446 now IPC :0.20967: AVG IPC :0.48773: L2-Pf-HR :0.98723: L2-HR :0.86063: (Sim:0h20m40s) 
CPU  0 inst:  180000000 cyc:  368590273 now IPC :0.21268: AVG IPC :0.48421: L2-Pf-HR :0.98723: L2-HR :0.85980: (Sim:0h20m47s) 
CPU  0 inst:  181000000 cyc:  373441516 now IPC :0.20613: AVG IPC :0.48059: L2-Pf-HR :0.98723: L2-HR :0.85897: (Sim:0h20m54s) 
CPU  0 inst:  182000000 cyc:  378403506 now IPC :0.20153: AVG IPC :0.47692: L2-Pf-HR :0.98723: L2-HR :0.85815: (Sim:0h21m1s) 
CPU  0 inst:  183000000 cyc:  383674726 now IPC :0.18971: AVG IPC :0.47296: L2-Pf-HR :0.98723: L2-HR :0.85733: (Sim:0h21m9s) 
CPU  0 inst:  184000000 cyc:  388866066 now IPC :0.19263: AVG IPC :0.46921: L2-Pf-HR :0.98723: L2-HR :0.85651: (Sim:0h21m16s) 
CPU  0 inst:  185000000 cyc:  393933916 now IPC :0.19732: AVG IPC :0.46570: L2-Pf-HR :0.98723: L2-HR :0.85569: (Sim:0h21m24s) 
CPU  0 inst:  186000001 cyc:  398934083 now IPC :0.19999: AVG IPC :0.46237: L2-Pf-HR :0.98723: L2-HR :0.85488: (Sim:0h21m31s) 
CPU  0 inst:  187000002 cyc:  403798831 now IPC :0.20556: AVG IPC :0.45926: L2-Pf-HR :0.98723: L2-HR :0.85407: (Sim:0h21m38s) 
CPU  0 inst:  188000000 cyc:  408643158 now IPC :0.20643: AVG IPC :0.45626: L2-Pf-HR :0.98723: L2-HR :0.85326: (Sim:0h21m45s) 
CPU  0 inst:  189000000 cyc:  413616895 now IPC :0.20106: AVG IPC :0.45318: L2-Pf-HR :0.98723: L2-HR :0.85245: (Sim:0h21m52s) 
CPU  0 inst:  190000002 cyc:  418671883 now IPC :0.19782: AVG IPC :0.45009: L2-Pf-HR :0.98723: L2-HR :0.85165: (Sim:0h22m0s) 
CPU  0 inst:  191000000 cyc:  423681580 now IPC :0.19961: AVG IPC :0.44712: L2-Pf-HR :0.98723: L2-HR :0.85085: (Sim:0h22m7s) 
CPU  0 inst:  192000000 cyc:  428635063 now IPC :0.20188: AVG IPC :0.44428: L2-Pf-HR :0.98723: L2-HR :0.85005: (Sim:0h22m17s) 
CPU  0 inst:  193000000 cyc:  433656212 now IPC :0.19916: AVG IPC :0.44144: L2-Pf-HR :0.98723: L2-HR :0.84926: (Sim:0h22m28s) 
CPU  0 inst:  194000000 cyc:  438718046 now IPC :0.19756: AVG IPC :0.43862: L2-Pf-HR :0.98723: L2-HR :0.84846: (Sim:0h22m38s) 
CPU  0 inst:  195000002 cyc:  443643820 now IPC :0.20301: AVG IPC :0.43600: L2-Pf-HR :0.98723: L2-HR :0.84767: (Sim:0h22m45s) 
CPU  0 inst:  196000000 cyc:  448603649 now IPC :0.20162: AVG IPC :0.43340: L2-Pf-HR :0.98723: L2-HR :0.84688: (Sim:0h22m52s) 
CPU  0 inst:  197000002 cyc:  453659223 now IPC :0.19780: AVG IPC :0.43077: L2-Pf-HR :0.98723: L2-HR :0.84610: (Sim:0h22m59s) 
CPU  0 inst:  198000003 cyc:  457219986 now IPC :0.28084: AVG IPC :0.42960: L2-Pf-HR :0.98726: L2-HR :0.84587: (Sim:0h23m6s) 
CPU  0 inst:  199000000 cyc:  458223318 now IPC :0.99668: AVG IPC :0.43084: L2-Pf-HR :0.98733: L2-HR :0.84668: (Sim:0h23m14s) 
CPU  0 inst:  200000000 cyc:  459152212 now IPC :1.07655: AVG IPC :0.43215: L2-Pf-HR :0.98740: L2-HR :0.84751: (Sim:0h23m23s) 
CPU  0 inst:  201000000 cyc:  460076485 now IPC :1.08193: AVG IPC :0.43346: L2-Pf-HR :0.98747: L2-HR :0.84831: (Sim:0h23m29s) 
CPU  0 inst:  202000003 cyc:  461142409 now IPC :0.93816: AVG IPC :0.43463: L2-Pf-HR :0.98753: L2-HR :0.84906: (Sim:0h23m36s) 
CPU  0 inst:  203000002 cyc:  462052866 now IPC :1.09835: AVG IPC :0.43594: L2-Pf-HR :0.98756: L2-HR :0.84989: (Sim:0h23m43s) 
CPU  0 inst:  204000000 cyc:  462933697 now IPC :1.13529: AVG IPC :0.43727: L2-Pf-HR :0.98759: L2-HR :0.85070: (Sim:0h23m52s) 
CPU  0 inst:  205000003 cyc:  463798877 now IPC :1.15583: AVG IPC :0.43862: L2-Pf-HR :0.98762: L2-HR :0.85149: (Sim:0h24m0s) 
CPU  0 inst:  206000000 cyc:  464744040 now IPC :1.05802: AVG IPC :0.43988: L2-Pf-HR :0.98765: L2-HR :0.85221: (Sim:0h24m9s) 
CPU  0 inst:  207000002 cyc:  465689893 now IPC :1.05725: AVG IPC :0.44114: L2-Pf-HR :0.98768: L2-HR :0.85300: (Sim:0h24m17s) 
CPU  0 inst:  208000000 cyc:  466581876 now IPC :1.12110: AVG IPC :0.44244: L2-Pf-HR :0.98770: L2-HR :0.85377: (Sim:0h24m26s) 
CPU  0 inst:  209000002 cyc:  467443989 now IPC :1.15994: AVG IPC :0.44376: L2-Pf-HR :0.98771: L2-HR :0.85451: (Sim:0h24m35s) 
CPU  0 inst:  210000000 cyc:  468322693 now IPC :1.13804: AVG IPC :0.44507: L2-Pf-HR :0.98773: L2-HR :0.85522: (Sim:0h24m43s) 
CPU  0 inst:  211000003 cyc:  469303549 now IPC :1.01952: AVG IPC :0.44627: L2-Pf-HR :0.98775: L2-HR :0.85591: (Sim:0h24m52s) 
CPU  0 inst:  212000000 cyc:  470197622 now IPC :1.11847: AVG IPC :0.44755: L2-Pf-HR :0.98777: L2-HR :0.85659: (Sim:0h25m1s) 
CPU  0 inst:  213000001 cyc:  471061191 now IPC :1.15799: AVG IPC :0.44886: L2-Pf-HR :0.98778: L2-HR :0.85726: (Sim:0h25m9s) 
CPU  0 inst:  214000002 cyc:  471903824 now IPC :1.18676: AVG IPC :0.45018: L2-Pf-HR :0.98779: L2-HR :0.85792: (Sim:0h25m18s) 
CPU  0 inst:  215000002 cyc:  472873243 now IPC :1.03155: AVG IPC :0.45137: L2-Pf-HR :0.98784: L2-HR :0.85854: (Sim:0h25m26s) 
CPU  0 inst:  216000000 cyc:  473796572 now IPC :1.08304: AVG IPC :0.45261: L2-Pf-HR :0.98790: L2-HR :0.85919: (Sim:0h25m33s) 
CPU  0 inst:  217000001 cyc:  474712989 now IPC :1.09121: AVG IPC :0.45384: L2-Pf-HR :0.98796: L2-HR :0.85984: (Sim:0h25m39s) 
CPU  0 inst:  218000001 cyc:  475629718 now IPC :1.09083: AVG IPC :0.45507: L2-Pf-HR :0.98802: L2-HR :0.86046: (Sim:0h25m46s) 
CPU  0 inst:  219000000 cyc:  476577579 now IPC :1.05501: AVG IPC :0.45627: L2-Pf-HR :0.98806: L2-HR :0.86107: (Sim:0h25m52s) 
CPU  0 inst:  220000000 cyc:  477438526 now IPC :1.16151: AVG IPC :0.45754: L2-Pf-HR :0.98809: L2-HR :0.86173: (Sim:0h25m57s) 
CPU  0 inst:  221000000 cyc:  478328382 now IPC :1.12378: AVG IPC :0.45878: L2-Pf-HR :0.98812: L2-HR :0.86238: (Sim:0h26m4s) 
CPU  0 inst:  222000003 cyc:  479211386 now IPC :1.13250: AVG IPC :0.46003: L2-Pf-HR :0.98814: L2-HR :0.86299: (Sim:0h26m9s) 
CPU  0 inst:  223000002 cyc:  480114735 now IPC :1.10699: AVG IPC :0.46125: L2-Pf-HR :0.98817: L2-HR :0.86361: (Sim:0h26m15s) 
CPU  0 inst:  224000000 cyc:  480961298 now IPC :1.18124: AVG IPC :0.46252: L2-Pf-HR :0.98819: L2-HR :0.86424: (Sim:0h26m23s) 
CPU  0 inst:  225000002 cyc:  481875140 now IPC :1.09428: AVG IPC :0.46372: L2-Pf-HR :0.98820: L2-HR :0.86484: (Sim:0h26m29s) 
CPU  0 inst:  226000001 cyc:  482758548 now IPC :1.13198: AVG IPC :0.46494: L2-Pf-HR :0.98822: L2-HR :0.86542: (Sim:0h26m34s) 
CPU  0 inst:  227000003 cyc:  483649749 now IPC :1.12208: AVG IPC :0.46616: L2-Pf-HR :0.98824: L2-HR :0.86601: (Sim:0h26m40s) 
CPU  0 inst:  228000000 cyc:  484514018 now IPC :1.15704: AVG IPC :0.46739: L2-Pf-HR :0.98825: L2-HR :0.86656: (Sim:0h26m48s) 
CPU  0 inst:  229000000 cyc:  485412546 now IPC :1.11293: AVG IPC :0.46859: L2-Pf-HR :0.98826: L2-HR :0.86708: (Sim:0h26m54s) 
CPU  0 inst:  230000001 cyc:  486291646 now IPC :1.13753: AVG IPC :0.46980: L2-Pf-HR :0.98827: L2-HR :0.86760: (Sim:0h27m0s) 
CPU  0 inst:  231000002 cyc:  487140225 now IPC :1.17844: AVG IPC :0.47104: L2-Pf-HR :0.98828: L2-HR :0.86813: (Sim:0h27m7s) 
CPU  0 inst:  232000000 cyc:  488104813 now IPC :1.03671: AVG IPC :0.47216: L2-Pf-HR :0.98834: L2-HR :0.86864: (Sim:0h27m13s) 
CPU  0 inst:  233000002 cyc:  489048275 now IPC :1.05993: AVG IPC :0.47329: L2-Pf-HR :0.98839: L2-HR :0.86915: (Sim:0h27m19s) 
CPU  0 inst:  234000001 cyc:  489945567 now IPC :1.11446: AVG IPC :0.47447: L2-Pf-HR :0.98844: L2-HR :0.86967: (Sim:0h27m25s) 
CPU  0 inst:  235000000 cyc:  490869190 now IPC :1.08269: AVG IPC :0.47562: L2-Pf-HR :0.98849: L2-HR :0.87017: (Sim:0h27m32s) 
CPU  0 inst:  236000000 cyc:  491799524 now IPC :1.07488: AVG IPC :0.47675: L2-Pf-HR :0.98852: L2-HR :0.87069: (Sim:0h27m40s) 
CPU  0 inst:  237000002 cyc:  492683435 now IPC :1.13134: AVG IPC :0.47793: L2-Pf-HR :0.98854: L2-HR :0.87122: (Sim:0h27m48s) 
CPU  0 inst:  238000002 cyc:  493532523 now IPC :1.17773: AVG IPC :0.47914: L2-Pf-HR :0.98857: L2-HR :0.87175: (Sim:0h27m56s) 
CPU  0 inst:  239000003 cyc:  494379453 now IPC :1.18074: AVG IPC :0.48034: L2-Pf-HR :0.98859: L2-HR :0.87226: (Sim:0h28m5s) 
CPU  0 inst:  240000000 cyc:  495310916 now IPC :1.07358: AVG IPC :0.48146: L2-Pf-HR :0.98861: L2-HR :0.87275: (Sim:0h28m14s) 
CPU  0 inst:  241000003 cyc:  496187544 now IPC :1.14074: AVG IPC :0.48263: L2-Pf-HR :0.98862: L2-HR :0.87326: (Sim:0h28m23s) 
CPU  0 inst:  242000001 cyc:  497042357 now IPC :1.16984: AVG IPC :0.48381: L2-Pf-HR :0.98864: L2-HR :0.87376: (Sim:0h28m31s) 
CPU  0 inst:  243000001 cyc:  497888176 now IPC :1.18229: AVG IPC :0.48500: L2-Pf-HR :0.98865: L2-HR :0.87426: (Sim:0h28m40s) 
CPU  0 inst:  244000000 cyc:  498821627 now IPC :1.07129: AVG IPC :0.48610: L2-Pf-HR :0.98867: L2-HR :0.87470: (Sim:0h28m49s) 
CPU  0 inst:  245000000 cyc:  499682576 now IPC :1.16151: AVG IPC :0.48726: L2-Pf-HR :0.98867: L2-HR :0.87516: (Sim:0h28m57s) 
CPU  0 inst:  246000000 cyc:  500539119 now IPC :1.16748: AVG IPC :0.48843: L2-Pf-HR :0.98868: L2-HR :0.87561: (Sim:0h29m6s) 
CPU  0 inst:  247000000 cyc:  501386408 now IPC :1.18023: AVG IPC :0.48960: L2-Pf-HR :0.98869: L2-HR :0.87605: (Sim:0h29m15s) 
CPU  0 inst:  248000000 cyc:  502326510 now IPC :1.06371: AVG IPC :0.49068: L2-Pf-HR :0.98871: L2-HR :0.87645: (Sim:0h29m24s) 
CPU  0 inst:  249000000 cyc:  503224015 now IPC :1.11420: AVG IPC :0.49179: L2-Pf-HR :0.98876: L2-HR :0.87689: (Sim:0h29m30s) 
CPU  0 inst:  250000000 cyc:  504143299 now IPC :1.08780: AVG IPC :0.49288: L2-Pf-HR :0.98881: L2-HR :0.87732: (Sim:0h29m37s) 
CPU  0 inst:  251000003 cyc:  505042499 now IPC :1.11210: AVG IPC :0.49399: L2-Pf-HR :0.98885: L2-HR :0.87775: (Sim:0h29m44s) 
CPU  0 inst:  252000000 cyc:  506013339 now IPC :1.03003: AVG IPC :0.49502: L2-Pf-HR :0.98889: L2-HR :0.87813: (Sim:0h29m53s) 
CPU  0 inst:  253000002 cyc:  506861302 now IPC :1.17930: AVG IPC :0.49616: L2-Pf-HR :0.98891: L2-HR :0.87859: (Sim:0h30m2s) 
CPU  0 inst:  254000001 cyc:  507755703 now IPC :1.11807: AVG IPC :0.49726: L2-Pf-HR :0.98893: L2-HR :0.87904: (Sim:0h30m10s) 
CPU  0 inst:  255000001 cyc:  508605071 now IPC :1.17735: AVG IPC :0.49840: L2-Pf-HR :0.98895: L2-HR :0.87947: (Sim:0h30m19s) 
CPU  0 inst:  256000000 cyc:  509484387 now IPC :1.13725: AVG IPC :0.49950: L2-Pf-HR :0.98897: L2-HR :0.87988: (Sim:0h30m28s) 
CPU  0 inst:  257000003 cyc:  510364700 now IPC :1.13596: AVG IPC :0.50060: L2-Pf-HR :0.98899: L2-HR :0.88030: (Sim:0h30m36s) 
CPU  0 inst:  258000001 cyc:  511265906 now IPC :1.10962: AVG IPC :0.50168: L2-Pf-HR :0.98899: L2-HR :0.88072: (Sim:0h30m44s) 
CPU  0 inst:  259000003 cyc:  512127043 now IPC :1.16126: AVG IPC :0.50279: L2-Pf-HR :0.98900: L2-HR :0.88113: (Sim:0h30m53s) 
CPU  0 inst:  260000000 cyc:  512989738 now IPC :1.15915: AVG IPC :0.50390: L2-Pf-HR :0.98901: L2-HR :0.88152: (Sim:0h31m1s) 
CPU  0 inst:  261000001 cyc:  513876802 now IPC :1.12732: AVG IPC :0.50498: L2-Pf-HR :0.98903: L2-HR :0.88192: (Sim:0h31m9s) 
CPU  0 inst:  262000002 cyc:  514767566 now IPC :1.12263: AVG IPC :0.50605: L2-Pf-HR :0.98903: L2-HR :0.88229: (Sim:0h31m17s) 
CPU  0 inst:  263000001 cyc:  515641651 now IPC :1.14405: AVG IPC :0.50713: L2-Pf-HR :0.98903: L2-HR :0.88264: (Sim:0h31m26s) 
CPU  0 inst:  264000000 cyc:  516503659 now IPC :1.16008: AVG IPC :0.50822: L2-Pf-HR :0.98904: L2-HR :0.88300: (Sim:0h31m35s) 
CPU  0 inst:  265000002 cyc:  517413915 now IPC :1.09859: AVG IPC :0.50926: L2-Pf-HR :0.98907: L2-HR :0.88337: (Sim:0h31m43s) 
CPU  0 inst:  266000000 cyc:  518367197 now IPC :1.04901: AVG IPC :0.51026: L2-Pf-HR :0.98911: L2-HR :0.88372: (Sim:0h31m52s) 
CPU  0 inst:  267000001 cyc:  519306561 now IPC :1.06455: AVG IPC :0.51126: L2-Pf-HR :0.98916: L2-HR :0.88406: (Sim:0h32m1s) 
CPU  0 inst:  268000000 cyc:  520203044 now IPC :1.11547: AVG IPC :0.51230: L2-Pf-HR :0.98920: L2-HR :0.88442: (Sim:0h32m10s) 
CPU  0 inst:  269000000 cyc:  521149682 now IPC :1.05637: AVG IPC :0.51329: L2-Pf-HR :0.98923: L2-HR :0.88476: (Sim:0h32m19s) 
CPU  0 inst:  270000003 cyc:  522033520 now IPC :1.13143: AVG IPC :0.51434: L2-Pf-HR :0.98925: L2-HR :0.88514: (Sim:0h32m28s) 
CPU  0 inst:  271000000 cyc:  522905618 now IPC :1.14666: AVG IPC :0.51540: L2-Pf-HR :0.98926: L2-HR :0.88551: (Sim:0h32m37s) 
CPU  0 inst:  272000000 cyc:  523754505 now IPC :1.17801: AVG IPC :0.51648: L2-Pf-HR :0.98928: L2-HR :0.88588: (Sim:0h32m46s) 
CPU  0 inst:  273000003 cyc:  524676964 now IPC :1.08406: AVG IPC :0.51748: L2-Pf-HR :0.98930: L2-HR :0.88622: (Sim:0h32m55s) 
CPU  0 inst:  274000002 cyc:  525531795 now IPC :1.16982: AVG IPC :0.51854: L2-Pf-HR :0.98930: L2-HR :0.88658: (Sim:0h33m4s) 
CPU  0 inst:  275000002 cyc:  526417459 now IPC :1.12910: AVG IPC :0.51957: L2-Pf-HR :0.98931: L2-HR :0.88694: (Sim:0h33m12s) 
CPU  0 inst:  276000000 cyc:  527268225 now IPC :1.17541: AVG IPC :0.52063: L2-Pf-HR :0.98931: L2-HR :0.88730: (Sim:0h33m21s) 
CPU  0 inst:  277000001 cyc:  528164666 now IPC :1.11552: AVG IPC :0.52164: L2-Pf-HR :0.98932: L2-HR :0.88762: (Sim:0h33m30s) 
CPU  0 inst:  278000001 cyc:  529044647 now IPC :1.13639: AVG IPC :0.52266: L2-Pf-HR :0.98933: L2-HR :0.88795: (Sim:0h33m39s) 
CPU  0 inst:  279000002 cyc:  529927940 now IPC :1.13213: AVG IPC :0.52368: L2-Pf-HR :0.98933: L2-HR :0.88827: (Sim:0h33m48s) 
CPU  0 inst:  280000000 cyc:  530777394 now IPC :1.17722: AVG IPC :0.52473: L2-Pf-HR :0.98933: L2-HR :0.88859: (Sim:0h33m58s) 
CPU  0 inst:  281000002 cyc:  531646338 now IPC :1.15082: AVG IPC :0.52575: L2-Pf-HR :0.98934: L2-HR :0.88888: (Sim:0h34m7s) 
CPU  0 inst:  282000000 cyc:  532590031 now IPC :1.05966: AVG IPC :0.52670: L2-Pf-HR :0.98938: L2-HR :0.88919: (Sim:0h34m15s) 
CPU  0 inst:  283000001 cyc:  533516150 now IPC :1.07978: AVG IPC :0.52766: L2-Pf-HR :0.98942: L2-HR :0.88950: (Sim:0h34m24s) 
CPU  0 inst:  284000000 cyc:  534412202 now IPC :1.11601: AVG IPC :0.52865: L2-Pf-HR :0.98946: L2-HR :0.88981: (Sim:0h34m32s) 
CPU  0 inst:  285000000 cyc:  535315313 now IPC :1.10728: AVG IPC :0.52963: L2-Pf-HR :0.98949: L2-HR :0.89012: (Sim:0h34m41s) 
CPU  0 inst:  286000000 cyc:  536251233 now IPC :1.06847: AVG IPC :0.53057: L2-Pf-HR :0.98952: L2-HR :0.89041: (Sim:0h34m49s) 
CPU  0 inst:  287000002 cyc:  537127523 now IPC :1.14118: AVG IPC :0.53157: L2-Pf-HR :0.98953: L2-HR :0.89073: (Sim:0h34m57s) 
CPU  0 inst:  288000000 cyc:  537991289 now IPC :1.15772: AVG IPC :0.53258: L2-Pf-HR :0.98955: L2-HR :0.89105: (Sim:0h35m6s) 
CPU  0 inst:  289000003 cyc:  538843986 now IPC :1.17275: AVG IPC :0.53359: L2-Pf-HR :0.98956: L2-HR :0.89137: (Sim:0h35m14s) 
CPU  0 inst:  290000000 cyc:  539764466 now IPC :1.08639: AVG IPC :0.53454: L2-Pf-HR :0.98957: L2-HR :0.89165: (Sim:0h35m23s) 
CPU  0 inst:  291000003 cyc:  540628088 now IPC :1.15792: AVG IPC :0.53553: L2-Pf-HR :0.98958: L2-HR :0.89197: (Sim:0h35m31s) 
CPU  0 inst:  292000000 cyc:  541496762 now IPC :1.15118: AVG IPC :0.53652: L2-Pf-HR :0.98959: L2-HR :0.89228: (Sim:0h35m39s) 
CPU  0 inst:  293000002 cyc:  542361102 now IPC :1.15695: AVG IPC :0.53751: L2-Pf-HR :0.98960: L2-HR :0.89257: (Sim:0h35m48s) 
CPU  0 inst:  294000000 cyc:  543271332 now IPC :1.09862: AVG IPC :0.53846: L2-Pf-HR :0.98961: L2-HR :0.89285: (Sim:0h35m56s) 
CPU  0 inst:  295000001 cyc:  544123198 now IPC :1.17389: AVG IPC :0.53945: L2-Pf-HR :0.98961: L2-HR :0.89314: (Sim:0h36m5s) 
CPU  0 inst:  296000000 cyc:  545001330 now IPC :1.13878: AVG IPC :0.54042: L2-Pf-HR :0.98961: L2-HR :0.89341: (Sim:0h36m13s) 
CPU  0 inst:  297000002 cyc:  545871305 now IPC :1.14946: AVG IPC :0.54139: L2-Pf-HR :0.98962: L2-HR :0.89367: (Sim:0h36m21s) 
CPU  0 inst:  298000002 cyc:  546775767 now IPC :1.10563: AVG IPC :0.54233: L2-Pf-HR :0.98963: L2-HR :0.89393: (Sim:0h36m30s) 
CPU  0 inst:  299000000 cyc:  547677483 now IPC :1.10899: AVG IPC :0.54326: L2-Pf-HR :0.98967: L2-HR :0.89420: (Sim:0h36m38s) 
CPU  0 inst:  300000000 cyc:  548641596 now IPC :1.03722: AVG IPC :0.54413: L2-Pf-HR :0.98970: L2-HR :0.89445: (Sim:0h36m47s) 
CPU  0 inst:  301000003 cyc:  549569863 now IPC :1.07728: AVG IPC :0.54503: L2-Pf-HR :0.98973: L2-HR :0.89470: (Sim:0h36m55s) 
CPU  0 inst:  302000002 cyc:  550495779 now IPC :1.08001: AVG IPC :0.54594: L2-Pf-HR :0.98977: L2-HR :0.89496: (Sim:0h37m1s) 
CPU  0 inst:  303000001 cyc:  551387475 now IPC :1.12146: AVG IPC :0.54687: L2-Pf-HR :0.98978: L2-HR :0.89523: (Sim:0h37m7s) 
CPU  0 inst:  304000000 cyc:  552304725 now IPC :1.09021: AVG IPC :0.54777: L2-Pf-HR :0.98980: L2-HR :0.89550: (Sim:0h37m13s) 
CPU  0 inst:  305000003 cyc:  553166332 now IPC :1.16063: AVG IPC :0.54873: L2-Pf-HR :0.98981: L2-HR :0.89578: (Sim:0h37m19s) 
CPU  0 inst:  306000001 cyc:  554042181 now IPC :1.14175: AVG IPC :0.54967: L2-Pf-HR :0.98982: L2-HR :0.89605: (Sim:0h37m25s) 
CPU  0 inst:  307000000 cyc:  554939323 now IPC :1.11465: AVG IPC :0.55058: L2-Pf-HR :0.98983: L2-HR :0.89631: (Sim:0h37m31s) 
CPU  0 inst:  308000000 cyc:  555835894 now IPC :1.11536: AVG IPC :0.55149: L2-Pf-HR :0.98984: L2-HR :0.89658: (Sim:0h37m37s) 
CPU  0 inst:  309000002 cyc:  556698126 now IPC :1.15978: AVG IPC :0.55244: L2-Pf-HR :0.98984: L2-HR :0.89685: (Sim:0h37m43s) 
CPU  0 inst:  310000001 cyc:  557548032 now IPC :1.17660: AVG IPC :0.55339: L2-Pf-HR :0.98985: L2-HR :0.89711: (Sim:0h37m50s) 
CPU  0 inst:  311000001 cyc:  558493618 now IPC :1.05755: AVG IPC :0.55425: L2-Pf-HR :0.98985: L2-HR :0.89734: (Sim:0h37m58s) 
CPU  0 inst:  312000000 cyc:  559361928 now IPC :1.15166: AVG IPC :0.55518: L2-Pf-HR :0.98986: L2-HR :0.89758: (Sim:0h38m7s) 
CPU  0 inst:  313000000 cyc:  560229747 now IPC :1.15231: AVG IPC :0.55610: L2-Pf-HR :0.98986: L2-HR :0.89783: (Sim:0h38m16s) 
CPU  0 inst:  314000001 cyc:  561078436 now IPC :1.17829: AVG IPC :0.55705: L2-Pf-HR :0.98986: L2-HR :0.89806: (Sim:0h38m25s) 
CPU  0 inst:  315000002 cyc:  562039533 now IPC :1.04048: AVG IPC :0.55787: L2-Pf-HR :0.98988: L2-HR :0.89827: (Sim:0h38m34s) 
CPU  0 inst:  316000000 cyc:  562944673 now IPC :1.10480: AVG IPC :0.55875: L2-Pf-HR :0.98991: L2-HR :0.89850: (Sim:0h38m43s) 
CPU  0 inst:  317000000 cyc:  563869522 now IPC :1.08126: AVG IPC :0.55961: L2-Pf-HR :0.98995: L2-HR :0.89873: (Sim:0h38m50s) 
CPU  0 inst:  318000000 cyc:  564769783 now IPC :1.11079: AVG IPC :0.56049: L2-Pf-HR :0.98998: L2-HR :0.89895: (Sim:0h38m56s) 
CPU  0 inst:  319000001 cyc:  565737777 now IPC :1.03307: AVG IPC :0.56130: L2-Pf-HR :0.99001: L2-HR :0.89915: (Sim:0h39m2s) 
CPU  0 inst:  320000000 cyc:  566585232 now IPC :1.18000: AVG IPC :0.56223: L2-Pf-HR :0.99002: L2-HR :0.89941: (Sim:0h39m8s) 
CPU  0 inst:  321000000 cyc:  567473912 now IPC :1.12526: AVG IPC :0.56311: L2-Pf-HR :0.99003: L2-HR :0.89965: (Sim:0h39m14s) 
CPU  0 inst:  322000001 cyc:  568322665 now IPC :1.17820: AVG IPC :0.56403: L2-Pf-HR :0.99004: L2-HR :0.89990: (Sim:0h39m20s) 
CPU  0 inst:  323000000 cyc:  569248540 now IPC :1.08006: AVG IPC :0.56487: L2-Pf-HR :0.99005: L2-HR :0.90011: (Sim:0h39m28s) 
CPU  0 inst:  324000000 cyc:  570101557 now IPC :1.17231: AVG IPC :0.56578: L2-Pf-HR :0.99006: L2-HR :0.90035: (Sim:0h39m36s) 
CPU  0 inst:  325000003 cyc:  570987734 now IPC :1.12845: AVG IPC :0.56666: L2-Pf-HR :0.99007: L2-HR :0.90059: (Sim:0h39m45s) 
CPU  0 inst:  326000000 cyc:  571836517 now IPC :1.17815: AVG IPC :0.56757: L2-Pf-HR :0.99007: L2-HR :0.90083: (Sim:0h39m53s) 
CPU  0 inst:  327000002 cyc:  572717365 now IPC :1.13527: AVG IPC :0.56844: L2-Pf-HR :0.99008: L2-HR :0.90105: (Sim:0h39m59s) 
CPU  0 inst:  328000000 cyc:  573622088 now IPC :1.10531: AVG IPC :0.56929: L2-Pf-HR :0.99008: L2-HR :0.90126: (Sim:0h40m5s) 
Finished CPU 0 instr: 326000001 cyc: 572641679 AVG IPC: 0.56929 (Sim time: 0h40m5s)

ChampSim completed all CPUs

[ROI Statistics]
Core_0_instructions 326000001
Core_0_cycles 572641679
Core_0_IPC 0.56929

Core_0_branch_prediction_accuracy 99.57883
Core_0_branch_MPKI 0.12289
Core_0_average_ROB_occupancy_at_mispredict 237.38281

Core_0_L1D_total_access 98487644
Core_0_L1D_total_hit 85428739 L1D_total_Hit Ratio: 0.86741
Core_0_L1D_total_miss 13058905
Core_0_L1D_loads 89421125
Core_0_L1D_load_hit 76908530 L1D_load_Hit Ratio: 0.86007
Core_0_L1D_load_miss 12512595
Core_0_L1D_RFOs 8556505
Core_0_L1D_RFO_hit 8010195 L1D_RFO_Hit Ratio: 0.93615
Core_0_L1D_RFO_miss 546310
Core_0_L1D_prefetches 510014
Core_0_L1D_prefetch_hit 510014 L1D_prefetch_Hit Ratio: 1.00000
Core_0_L1D_prefetch_miss 0
Core_0_L1D_writebacks 0
Core_0_L1D_writeback_hit 0 L1D_writeback_Hit Ratio: -nan
Core_0_L1D_writeback_miss 0
Core_0_L1D_prefetch_requested 63616795
Core_0_L1D_prefetch_issued 18181777
Core_0_L1D_prefetch_useful 0 L1D_Useful Ratio: 0.00000
Core_0_L1D_prefetch_useless 0
Core_0_L1D_prefetch_late 0
Core_0_L1D_average_miss_latency 79.51455

Core_0_L1I_total_access 83341575
Core_0_L1I_total_hit 83336638 L1I_total_Hit Ratio: 0.99994
Core_0_L1I_total_miss 4937
Core_0_L1I_loads 83341575
Core_0_L1I_load_hit 83336638 L1I_load_Hit Ratio: 0.99994
Core_0_L1I_load_miss 4937
Core_0_L1I_RFOs 0
Core_0_L1I_RFO_hit 0 L1I_RFO_Hit Ratio: -nan
Core_0_L1I_RFO_miss 0
Core_0_L1I_prefetches 0
Core_0_L1I_prefetch_hit 0 L1I_prefetch_Hit Ratio: -nan
Core_0_L1I_prefetch_miss 0
Core_0_L1I_writebacks 0
Core_0_L1I_writeback_hit 0 L1I_writeback_Hit Ratio: -nan
Core_0_L1I_writeback_miss 0
Core_0_L1I_prefetch_requested 0
Core_0_L1I_prefetch_issued 0
Core_0_L1I_prefetch_useful 0 L1I_Useful Ratio: -nan
Core_0_L1I_prefetch_useless 0
Core_0_L1I_prefetch_late 0
Core_0_L1I_average_miss_latency 282.44460

Core_0_L2C_total_access 32002889
Core_0_L2C_total_hit 28842818 L2C_total_Hit Ratio: 0.90126
Core_0_L2C_total_miss 3160071
Core_0_L2C_loads 12517531
Core_0_L2C_load_hit 10050925 L2C_load_Hit Ratio: 0.80295
Core_0_L2C_load_miss 2466606
Core_0_L2C_RFOs 546310
Core_0_L2C_RFO_hit 21431 L2C_RFO_Hit Ratio: 0.03923
Core_0_L2C_RFO_miss 524879
Core_0_L2C_prefetches 17001464
Core_0_L2C_prefetch_hit 16832884 L2C_prefetch_Hit Ratio: 0.99008
Core_0_L2C_prefetch_miss 168580
Core_0_L2C_writebacks 1937584
Core_0_L2C_writeback_hit 1937578 L2C_writeback_Hit Ratio: 1.00000
Core_0_L2C_writeback_miss 6
Core_0_L2C_prefetch_requested 10128902
Core_0_L2C_prefetch_issued 173485
Core_0_L2C_prefetch_useful 169282 L2C_Useful Ratio: 0.97577
Core_0_L2C_prefetch_useless 233
Core_0_L2C_prefetch_late 1912
Core_0_L2C_average_miss_latency 273.57089

Core_0_LLC_total_access 5126464
Core_0_LLC_total_hit 2283028 LLC_total_Hit Ratio: 0.44534
Core_0_LLC_total_miss 2843436
Core_0_LLC_loads 2464694
Core_0_LLC_load_hit 208529 LLC_load_Hit Ratio: 0.08461
Core_0_LLC_load_miss 2256165
Core_0_LLC_RFOs 524879
Core_0_LLC_RFO_hit 136 LLC_RFO_Hit Ratio: 0.00026
Core_0_LLC_RFO_miss 524743
Core_0_LLC_prefetches 255752
Core_0_LLC_prefetch_hit 193731 LLC_prefetch_Hit Ratio: 0.75750
Core_0_LLC_prefetch_miss 62021
Core_0_LLC_writebacks 1881139
Core_0_LLC_writeback_hit 1880632 LLC_writeback_Hit Ratio: 0.99973
Core_0_LLC_writeback_miss 507
Core_0_LLC_prefetch_requested 0
Core_0_LLC_prefetch_issued 0
Core_0_LLC_prefetch_useful 14381 LLC_Useful Ratio: inf
Core_0_LLC_prefetch_useless 45681
Core_0_LLC_prefetch_late 67
Core_0_LLC_average_miss_latency 271.70071

Core_0_major_page_fault 0
Core_0_minor_page_fault 19454

CPU 0 L1D next line prefetcher final stats
Prefetcher final stats
Training Unit Size: 4858
Addr table size: 1172052 1172057


Triggers: 2485508
No Prediction: 1184799 47.66828
Stream end: 54226
No translation: 45781843 1841.95114
Predictions: 173485 6.97986


Stream divergence: 32570 1.31040
Stream divergence -- new stream: 0
Channel_0_RQ_row_buffer_hit 1511580
Channel_0_RQ_row_buffer_miss 1331273
Channel_0_WQ_row_buffer_hit 595185
Channel_0_WQ_row_buffer_miss 1069687
Channel_0_WQ_full 0
Channel_0_dbus_congested 1367073

avg_congested_cycle 11

EzSearch AVG IPC :0.56929: L2-Pf-HR :0.99008 : L2-HR :0.90126 Uful:0.97577
     > Finished combination: TraceType=770-tot Sim:326000000 Prefetcher=L2isb_ideal L1=isb_ideal
