TRACE: [125000000][OPT-125M]_[h12][s512][d64] Warmup: 2000000 NumTraces: 125000000
L1:isb_ideal:L2:isb_ideal
*************************************************
   ChampSim Multicore Out-of-Order Simulator
   Last compiled: Oct 26 2024 18:12:11
*************************************************

trace_0 770-tot_memTraces_v3/memTraces[125000000][OPT-125M]_[h12][s512][d64].champsim.xz
L1D: Ideal ISB Prefetching
Ideal ISB Prefetching
MAIN.cc ln 751 stats print skipped
CPU  0 inst:    1000001 cyc:     498745 now IPC :2.00503: AVG IPC :2.00503: L2-Pf-HR :1.00000: L2-HR :0.87677: (Sim:0h0m21s) 
CPU  0 inst:    2000000 cyc:     981682 now IPC :2.07066: AVG IPC :2.03732: L2-Pf-HR :1.00000: L2-HR :0.91036: (Sim:0h0m43s) 

Warmup complete CPU  0 instructions:    2000003 cycles:     981683 (Simulation time: 0 hr 0 min 43 sec) 

CPU  0 inst:    3000001 cyc:    1609362 now IPC :1.59317: AVG IPC :1.59317: L2-Pf-HR :1.00000: L2-HR :0.94000: (Sim:0h1m2s) 
CPU  0 inst:    4000000 cyc:    2215964 now IPC :1.64853: AVG IPC :1.62037: L2-Pf-HR :1.00000: L2-HR :0.92224: (Sim:0h1m20s) 
CPU  0 inst:    5000000 cyc:    2860107 now IPC :1.55245: AVG IPC :1.59708: L2-Pf-HR :1.00000: L2-HR :0.92181: (Sim:0h1m40s) 
CPU  0 inst:    6000004 cyc:    3468854 now IPC :1.64273: AVG IPC :1.60825: L2-Pf-HR :1.00000: L2-HR :0.92946: (Sim:0h1m58s) 
CPU  0 inst:    7000005 cyc:    4078447 now IPC :1.64044: AVG IPC :1.61459: L2-Pf-HR :1.00000: L2-HR :0.93335: (Sim:0h2m17s) 
CPU  0 inst:    8000005 cyc:    4677588 now IPC :1.66906: AVG IPC :1.62342: L2-Pf-HR :1.00000: L2-HR :0.93016: (Sim:0h2m36s) 
CPU  0 inst:    9000004 cyc:    5314574 now IPC :1.56989: AVG IPC :1.61555: L2-Pf-HR :1.00000: L2-HR :0.92792: (Sim:0h2m55s) 
CPU  0 inst:   10000001 cyc:    5923455 now IPC :1.64235: AVG IPC :1.61885: L2-Pf-HR :1.00000: L2-HR :0.93076: (Sim:0h3m14s) 
CPU  0 inst:   11000005 cyc:    6532509 now IPC :1.64190: AVG IPC :1.62138: L2-Pf-HR :1.00000: L2-HR :0.93277: (Sim:0h3m33s) 
CPU  0 inst:   12000005 cyc:    7136765 now IPC :1.65493: AVG IPC :1.62467: L2-Pf-HR :1.00000: L2-HR :0.93152: (Sim:0h3m51s) 
CPU  0 inst:   13000002 cyc:    7770558 now IPC :1.57780: AVG IPC :1.62030: L2-Pf-HR :1.00000: L2-HR :0.92952: (Sim:0h4m10s) 
CPU  0 inst:   14000005 cyc:    8379630 now IPC :1.64185: AVG IPC :1.62207: L2-Pf-HR :1.00000: L2-HR :0.93109: (Sim:0h4m29s) 
CPU  0 inst:   15000001 cyc:    8988349 now IPC :1.64279: AVG IPC :1.62365: L2-Pf-HR :1.00000: L2-HR :0.93265: (Sim:0h4m48s) 
CPU  0 inst:   16000000 cyc:    9601664 now IPC :1.63048: AVG IPC :1.62413: L2-Pf-HR :1.00000: L2-HR :0.93209: (Sim:0h5m7s) 
CPU  0 inst:   17000000 cyc:   10238110 now IPC :1.57123: AVG IPC :1.62050: L2-Pf-HR :1.00000: L2-HR :0.93006: (Sim:0h5m26s) 
CPU  0 inst:   18000001 cyc:   10849451 now IPC :1.63575: AVG IPC :1.62144: L2-Pf-HR :1.00000: L2-HR :0.93137: (Sim:0h5m45s) 
CPU  0 inst:   19000004 cyc:   11460375 now IPC :1.63687: AVG IPC :1.62234: L2-Pf-HR :1.00000: L2-HR :0.93229: (Sim:0h6m4s) 
CPU  0 inst:   20000000 cyc:   12069089 now IPC :1.64280: AVG IPC :1.62346: L2-Pf-HR :1.00000: L2-HR :0.93238: (Sim:0h6m23s) 
CPU  0 inst:   21000005 cyc:   12697641 now IPC :1.59097: AVG IPC :1.62172: L2-Pf-HR :1.00000: L2-HR :0.93052: (Sim:0h6m42s) 
CPU  0 inst:   22000004 cyc:   13308689 now IPC :1.63653: AVG IPC :1.62245: L2-Pf-HR :1.00000: L2-HR :0.93140: (Sim:0h7m1s) 
CPU  0 inst:   23000003 cyc:   13918951 now IPC :1.63864: AVG IPC :1.62322: L2-Pf-HR :1.00000: L2-HR :0.93231: (Sim:0h7m19s) 
CPU  0 inst:   24000004 cyc:   14539960 now IPC :1.61028: AVG IPC :1.62263: L2-Pf-HR :1.00000: L2-HR :0.93254: (Sim:0h7m39s) 
CPU  0 inst:   25000003 cyc:   15178876 now IPC :1.56515: AVG IPC :1.62004: L2-Pf-HR :1.00000: L2-HR :0.93072: (Sim:0h7m58s) 
CPU  0 inst:   26000002 cyc:   15819861 now IPC :1.56010: AVG IPC :1.61745: L2-Pf-HR :1.00000: L2-HR :0.93151: (Sim:0h8m17s) 
CPU  0 inst:   27000003 cyc:   16463197 now IPC :1.55440: AVG IPC :1.61483: L2-Pf-HR :1.00000: L2-HR :0.93223: (Sim:0h8m36s) 
CPU  0 inst:   28000001 cyc:   17118521 now IPC :1.52596: AVG IPC :1.61122: L2-Pf-HR :1.00000: L2-HR :0.93265: (Sim:0h8m56s) 
CPU  0 inst:   29000002 cyc:   17813537 now IPC :1.43882: AVG IPC :1.60410: L2-Pf-HR :1.00000: L2-HR :0.93089: (Sim:0h9m15s) 
CPU  0 inst:   30000000 cyc:   18484065 now IPC :1.49136: AVG IPC :1.59978: L2-Pf-HR :1.00000: L2-HR :0.93159: (Sim:0h9m35s) 
CPU  0 inst:   31000001 cyc:   19150826 now IPC :1.49979: AVG IPC :1.59611: L2-Pf-HR :1.00000: L2-HR :0.93216: (Sim:0h9m51s) 
CPU  0 inst:   32000003 cyc:   19825816 now IPC :1.48151: AVG IPC :1.59201: L2-Pf-HR :1.00000: L2-HR :0.93275: (Sim:0h10m9s) 
CPU  0 inst:   33000003 cyc:   20488622 now IPC :1.50874: AVG IPC :1.58918: L2-Pf-HR :1.00000: L2-HR :0.93121: (Sim:0h10m26s) 
CPU  0 inst:   34000004 cyc:   21189053 now IPC :1.42769: AVG IPC :1.58358: L2-Pf-HR :1.00000: L2-HR :0.93156: (Sim:0h10m45s) 
CPU  0 inst:   35000005 cyc:   21856473 now IPC :1.49831: AVG IPC :1.58085: L2-Pf-HR :1.00000: L2-HR :0.93218: (Sim:0h11m2s) 
CPU  0 inst:   36000000 cyc:   22523438 now IPC :1.49932: AVG IPC :1.57833: L2-Pf-HR :1.00000: L2-HR :0.93261: (Sim:0h11m20s) 
CPU  0 inst:   37000005 cyc:   23171367 now IPC :1.54339: AVG IPC :1.57731: L2-Pf-HR :1.00000: L2-HR :0.93172: (Sim:0h11m38s) 
CPU  0 inst:   38000004 cyc:   23888944 now IPC :1.39358: AVG IPC :1.57155: L2-Pf-HR :1.00000: L2-HR :0.93161: (Sim:0h11m56s) 
CPU  0 inst:   39000002 cyc:   24562320 now IPC :1.48505: AVG IPC :1.56908: L2-Pf-HR :1.00000: L2-HR :0.93205: (Sim:0h12m14s) 
CPU  0 inst:   40000000 cyc:   25240482 now IPC :1.47457: AVG IPC :1.56644: L2-Pf-HR :1.00000: L2-HR :0.93254: (Sim:0h12m32s) 
CPU  0 inst:   41000003 cyc:   25899360 now IPC :1.51774: AVG IPC :1.56515: L2-Pf-HR :1.00000: L2-HR :0.93188: (Sim:0h12m50s) 
CPU  0 inst:   42000002 cyc:   26618739 now IPC :1.39009: AVG IPC :1.56024: L2-Pf-HR :1.00000: L2-HR :0.93161: (Sim:0h13m9s) 
CPU  0 inst:   43000000 cyc:   27285632 now IPC :1.49949: AVG IPC :1.55870: L2-Pf-HR :1.00000: L2-HR :0.93205: (Sim:0h13m27s) 
CPU  0 inst:   44000001 cyc:   27955525 now IPC :1.49278: AVG IPC :1.55706: L2-Pf-HR :1.00000: L2-HR :0.93246: (Sim:0h13m44s) 
CPU  0 inst:   45000001 cyc:   28626186 now IPC :1.49107: AVG IPC :1.55546: L2-Pf-HR :1.00000: L2-HR :0.93200: (Sim:0h14m2s) 
CPU  0 inst:   46000002 cyc:   29349353 now IPC :1.38281: AVG IPC :1.55106: L2-Pf-HR :1.00000: L2-HR :0.93163: (Sim:0h14m21s) 
CPU  0 inst:   47000004 cyc:   30014108 now IPC :1.50432: AVG IPC :1.54999: L2-Pf-HR :1.00000: L2-HR :0.93204: (Sim:0h14m38s) 
CPU  0 inst:   48000005 cyc:   30679333 now IPC :1.50325: AVG IPC :1.54894: L2-Pf-HR :1.00000: L2-HR :0.93239: (Sim:0h14m57s) 
CPU  0 inst:   49000004 cyc:   31344397 now IPC :1.50361: AVG IPC :1.54795: L2-Pf-HR :1.00000: L2-HR :0.93211: (Sim:0h15m15s) 
CPU  0 inst:   50000001 cyc:   34282838 now IPC :0.34032: AVG IPC :1.44139: L2-Pf-HR :1.00000: L2-HR :0.91703: (Sim:0h15m51s) 
CPU  0 inst:   51000000 cyc:   39010667 now IPC :0.21151: AVG IPC :1.28849: L2-Pf-HR :1.00000: L2-HR :0.89265: (Sim:0h16m45s) 
CPU  0 inst:   52000000 cyc:   43848340 now IPC :0.20671: AVG IPC :1.16641: L2-Pf-HR :1.00000: L2-HR :0.88474: (Sim:0h17m26s) 
CPU  0 inst:   53000000 cyc:   48732852 now IPC :0.20473: AVG IPC :1.06804: L2-Pf-HR :1.00000: L2-HR :0.88128: (Sim:0h18m3s) 
CPU  0 inst:   54000000 cyc:   53616504 now IPC :0.20476: AVG IPC :0.98794: L2-Pf-HR :1.00000: L2-HR :0.87786: (Sim:0h18m40s) 
CPU  0 inst:   55000001 cyc:   58506759 now IPC :0.20449: AVG IPC :0.92134: L2-Pf-HR :1.00000: L2-HR :0.87448: (Sim:0h19m16s) 
CPU  0 inst:   56000002 cyc:   63392824 now IPC :0.20466: AVG IPC :0.86523: L2-Pf-HR :1.00000: L2-HR :0.87114: (Sim:0h19m53s) 
CPU  0 inst:   57000000 cyc:   68275208 now IPC :0.20482: AVG IPC :0.81731: L2-Pf-HR :1.00000: L2-HR :0.86784: (Sim:0h20m31s) 
CPU  0 inst:   58000000 cyc:   73159831 now IPC :0.20472: AVG IPC :0.77586: L2-Pf-HR :1.00000: L2-HR :0.86459: (Sim:0h21m9s) 
CPU  0 inst:   59000000 cyc:   77979926 now IPC :0.20746: AVG IPC :0.74028: L2-Pf-HR :1.00000: L2-HR :0.86137: (Sim:0h21m45s) 
CPU  0 inst:   60000000 cyc:   82637434 now IPC :0.21471: AVG IPC :0.71030: L2-Pf-HR :1.00000: L2-HR :0.85819: (Sim:0h22m22s) 
CPU  0 inst:   61000004 cyc:   87231124 now IPC :0.21769: AVG IPC :0.68406: L2-Pf-HR :1.00000: L2-HR :0.85505: (Sim:0h22m58s) 
CPU  0 inst:   62000000 cyc:   91874280 now IPC :0.21537: AVG IPC :0.66012: L2-Pf-HR :1.00000: L2-HR :0.85195: (Sim:0h23m36s) 
CPU  0 inst:   63000000 cyc:   96506988 now IPC :0.21586: AVG IPC :0.63857: L2-Pf-HR :1.00000: L2-HR :0.84889: (Sim:0h24m12s) 
CPU  0 inst:   64000005 cyc:  101076325 now IPC :0.21885: AVG IPC :0.61941: L2-Pf-HR :1.00000: L2-HR :0.84586: (Sim:0h24m49s) 
CPU  0 inst:   65000002 cyc:  105699076 now IPC :0.21632: AVG IPC :0.60162: L2-Pf-HR :1.00000: L2-HR :0.84286: (Sim:0h25m26s) 
CPU  0 inst:   66000000 cyc:  110252153 now IPC :0.21963: AVG IPC :0.58570: L2-Pf-HR :1.00000: L2-HR :0.83990: (Sim:0h26m2s) 
CPU  0 inst:   67000000 cyc:  114846559 now IPC :0.21766: AVG IPC :0.57085: L2-Pf-HR :1.00000: L2-HR :0.83697: (Sim:0h26m39s) 
CPU  0 inst:   68000000 cyc:  119422789 now IPC :0.21852: AVG IPC :0.55724: L2-Pf-HR :1.00000: L2-HR :0.83408: (Sim:0h27m16s) 
CPU  0 inst:   69000004 cyc:  124050990 now IPC :0.21607: AVG IPC :0.54441: L2-Pf-HR :1.00000: L2-HR :0.83122: (Sim:0h27m52s) 
CPU  0 inst:   70000000 cyc:  128709091 now IPC :0.21468: AVG IPC :0.53238: L2-Pf-HR :1.00000: L2-HR :0.82840: (Sim:0h28m29s) 
CPU  0 inst:   71000000 cyc:  133308249 now IPC :0.21743: AVG IPC :0.52144: L2-Pf-HR :1.00000: L2-HR :0.82560: (Sim:0h29m6s) 
CPU  0 inst:   72000000 cyc:  137816249 now IPC :0.22183: AVG IPC :0.51157: L2-Pf-HR :1.00000: L2-HR :0.82284: (Sim:0h29m42s) 
CPU  0 inst:   73000000 cyc:  142412420 now IPC :0.21757: AVG IPC :0.50201: L2-Pf-HR :1.00000: L2-HR :0.82011: (Sim:0h30m18s) 
CPU  0 inst:   74000001 cyc:  147037462 now IPC :0.21621: AVG IPC :0.49296: L2-Pf-HR :1.00000: L2-HR :0.81741: (Sim:0h30m55s) 
CPU  0 inst:   75000002 cyc:  151707114 now IPC :0.21415: AVG IPC :0.48432: L2-Pf-HR :1.00000: L2-HR :0.81473: (Sim:0h31m33s) 
CPU  0 inst:   76000000 cyc:  153975260 now IPC :0.44089: AVG IPC :0.48368: L2-Pf-HR :1.00000: L2-HR :0.81330: (Sim:0h32m1s) 
CPU  0 inst:   77000002 cyc:  154673212 now IPC :1.43277: AVG IPC :0.48799: L2-Pf-HR :1.00000: L2-HR :0.81315: (Sim:0h32m25s) 
CPU  0 inst:   78000004 cyc:  155366988 now IPC :1.44139: AVG IPC :0.49227: L2-Pf-HR :1.00000: L2-HR :0.81306: (Sim:0h32m48s) 
CPU  0 inst:   79000000 cyc:  156019548 now IPC :1.53242: AVG IPC :0.49665: L2-Pf-HR :1.00000: L2-HR :0.81334: (Sim:0h33m12s) 
CPU  0 inst:   80000005 cyc:  156742327 now IPC :1.38356: AVG IPC :0.50077: L2-Pf-HR :1.00000: L2-HR :0.81307: (Sim:0h33m37s) 
CPU  0 inst:   81000000 cyc:  157429922 now IPC :1.45434: AVG IPC :0.50496: L2-Pf-HR :1.00000: L2-HR :0.81302: (Sim:0h34m1s) 
CPU  0 inst:   82000001 cyc:  158126455 now IPC :1.43568: AVG IPC :0.50908: L2-Pf-HR :1.00000: L2-HR :0.81288: (Sim:0h34m25s) 
CPU  0 inst:   83000003 cyc:  158773479 now IPC :1.54554: AVG IPC :0.51333: L2-Pf-HR :1.00000: L2-HR :0.81318: (Sim:0h34m48s) 
CPU  0 inst:   84000004 cyc:  159481334 now IPC :1.41272: AVG IPC :0.51735: L2-Pf-HR :1.00000: L2-HR :0.81300: (Sim:0h35m12s) 
CPU  0 inst:   85000005 cyc:  160174270 now IPC :1.44314: AVG IPC :0.52138: L2-Pf-HR :1.00000: L2-HR :0.81295: (Sim:0h35m35s) 
CPU  0 inst:   86000003 cyc:  160875169 now IPC :1.42674: AVG IPC :0.52535: L2-Pf-HR :1.00000: L2-HR :0.81277: (Sim:0h35m58s) 
CPU  0 inst:   87000002 cyc:  161530483 now IPC :1.52598: AVG IPC :0.52943: L2-Pf-HR :1.00000: L2-HR :0.81307: (Sim:0h36m21s) 
CPU  0 inst:   88000002 cyc:  162224712 now IPC :1.44045: AVG IPC :0.53336: L2-Pf-HR :1.00000: L2-HR :0.81305: (Sim:0h36m44s) 
CPU  0 inst:   89000000 cyc:  162925936 now IPC :1.42607: AVG IPC :0.53722: L2-Pf-HR :1.00000: L2-HR :0.81293: (Sim:0h37m7s) 
CPU  0 inst:   90000001 cyc:  163605605 now IPC :1.47131: AVG IPC :0.54113: L2-Pf-HR :1.00000: L2-HR :0.81286: (Sim:0h37m30s) 
CPU  0 inst:   91000004 cyc:  164297509 now IPC :1.44529: AVG IPC :0.54496: L2-Pf-HR :1.00000: L2-HR :0.81290: (Sim:0h37m53s) 
CPU  0 inst:   92000000 cyc:  164948017 now IPC :1.53725: AVG IPC :0.54889: L2-Pf-HR :1.00000: L2-HR :0.81310: (Sim:0h38m16s) 
CPU  0 inst:   93000002 cyc:  165677805 now IPC :1.37026: AVG IPC :0.55253: L2-Pf-HR :1.00000: L2-HR :0.81285: (Sim:0h38m39s) 
CPU  0 inst:   94000004 cyc:  166360935 now IPC :1.46385: AVG IPC :0.55630: L2-Pf-HR :1.00000: L2-HR :0.81280: (Sim:0h39m1s) 
CPU  0 inst:   95000002 cyc:  167075712 now IPC :1.39903: AVG IPC :0.55992: L2-Pf-HR :1.00000: L2-HR :0.81272: (Sim:0h39m25s) 
CPU  0 inst:   96000001 cyc:  167723627 now IPC :1.54341: AVG IPC :0.56375: L2-Pf-HR :1.00000: L2-HR :0.81297: (Sim:0h39m47s) 
CPU  0 inst:   97000001 cyc:  168430083 now IPC :1.41552: AVG IPC :0.56734: L2-Pf-HR :1.00000: L2-HR :0.81278: (Sim:0h40m11s) 
CPU  0 inst:   98000005 cyc:  169119742 now IPC :1.45000: AVG IPC :0.57096: L2-Pf-HR :1.00000: L2-HR :0.81272: (Sim:0h40m34s) 
CPU  0 inst:   99000002 cyc:  169827839 now IPC :1.41223: AVG IPC :0.57449: L2-Pf-HR :1.00000: L2-HR :0.81257: (Sim:0h40m57s) 
CPU  0 inst:  100000002 cyc:  170477359 now IPC :1.53960: AVG IPC :0.57819: L2-Pf-HR :1.00000: L2-HR :0.81281: (Sim:0h41m21s) 
CPU  0 inst:  101000003 cyc:  171166539 now IPC :1.45100: AVG IPC :0.58172: L2-Pf-HR :1.00000: L2-HR :0.81270: (Sim:0h41m45s) 
CPU  0 inst:  102000004 cyc:  171844311 now IPC :1.47542: AVG IPC :0.58527: L2-Pf-HR :1.00000: L2-HR :0.81266: (Sim:0h42m7s) 
CPU  0 inst:  103000004 cyc:  172546556 now IPC :1.42400: AVG IPC :0.58870: L2-Pf-HR :1.00000: L2-HR :0.81245: (Sim:0h42m30s) 
CPU  0 inst:  104000005 cyc:  173187444 now IPC :1.56034: AVG IPC :0.59231: L2-Pf-HR :1.00000: L2-HR :0.81273: (Sim:0h42m53s) 
CPU  0 inst:  105000001 cyc:  173853863 now IPC :1.50055: AVG IPC :0.59582: L2-Pf-HR :1.00000: L2-HR :0.81268: (Sim:0h43m15s) 
CPU  0 inst:  106000003 cyc:  174526447 now IPC :1.48681: AVG IPC :0.59927: L2-Pf-HR :1.00000: L2-HR :0.81261: (Sim:0h43m39s) 
CPU  0 inst:  107000000 cyc:  175215059 now IPC :1.45219: AVG IPC :0.60264: L2-Pf-HR :1.00000: L2-HR :0.81234: (Sim:0h44m3s) 
CPU  0 inst:  108000004 cyc:  175838696 now IPC :1.60350: AVG IPC :0.60621: L2-Pf-HR :1.00000: L2-HR :0.81261: (Sim:0h44m25s) 
CPU  0 inst:  109000003 cyc:  176487170 now IPC :1.54208: AVG IPC :0.60967: L2-Pf-HR :1.00000: L2-HR :0.81263: (Sim:0h44m47s) 
CPU  0 inst:  110000001 cyc:  177157081 now IPC :1.49273: AVG IPC :0.61303: L2-Pf-HR :1.00000: L2-HR :0.81252: (Sim:0h45m10s) 
CPU  0 inst:  111000000 cyc:  177839046 now IPC :1.46635: AVG IPC :0.61632: L2-Pf-HR :1.00000: L2-HR :0.81231: (Sim:0h45m33s) 
CPU  0 inst:  112000004 cyc:  178469418 now IPC :1.58637: AVG IPC :0.61976: L2-Pf-HR :1.00000: L2-HR :0.81254: (Sim:0h45m55s) 
CPU  0 inst:  113000001 cyc:  179112485 now IPC :1.55504: AVG IPC :0.62314: L2-Pf-HR :1.00000: L2-HR :0.81270: (Sim:0h46m18s) 
CPU  0 inst:  114000003 cyc:  179807262 now IPC :1.43931: AVG IPC :0.62631: L2-Pf-HR :1.00000: L2-HR :0.81247: (Sim:0h46m42s) 
CPU  0 inst:  115000000 cyc:  180465466 now IPC :1.51928: AVG IPC :0.62958: L2-Pf-HR :1.00000: L2-HR :0.81242: (Sim:0h47m4s) 
CPU  0 inst:  116000000 cyc:  181122315 now IPC :1.52242: AVG IPC :0.63284: L2-Pf-HR :1.00000: L2-HR :0.81250: (Sim:0h47m27s) 
CPU  0 inst:  117000005 cyc:  181751770 now IPC :1.58868: AVG IPC :0.63617: L2-Pf-HR :1.00000: L2-HR :0.81274: (Sim:0h47m50s) 
CPU  0 inst:  118000001 cyc:  182463512 now IPC :1.40500: AVG IPC :0.63918: L2-Pf-HR :1.00000: L2-HR :0.81245: (Sim:0h48m13s) 
CPU  0 inst:  119000004 cyc:  183122399 now IPC :1.51772: AVG IPC :0.64236: L2-Pf-HR :1.00000: L2-HR :0.81244: (Sim:0h48m36s) 
CPU  0 inst:  120000004 cyc:  183779573 now IPC :1.52167: AVG IPC :0.64552: L2-Pf-HR :1.00000: L2-HR :0.81245: (Sim:0h48m59s) 
CPU  0 inst:  121000003 cyc:  184403540 now IPC :1.60265: AVG IPC :0.64878: L2-Pf-HR :1.00000: L2-HR :0.81271: (Sim:0h49m21s) 
CPU  0 inst:  122000003 cyc:  185106032 now IPC :1.42350: AVG IPC :0.65173: L2-Pf-HR :1.00000: L2-HR :0.81245: (Sim:0h49m44s) 
Finished CPU 0 instr: 120000000 cyc: 184124349 AVG IPC: 0.65173 (Sim time: 0h49m44s)

ChampSim completed all CPUs

[ROI Statistics]
Core_0_instructions 120000000
Core_0_cycles 184124349
Core_0_IPC 0.65173

Core_0_branch_prediction_accuracy 99.19469
Core_0_branch_MPKI 0.24154
Core_0_average_ROB_occupancy_at_mispredict 445.20438

Core_0_L1D_total_access 37892550
Core_0_L1D_total_hit 35755893 L1D_total_Hit Ratio: 0.94361
Core_0_L1D_total_miss 2136657
Core_0_L1D_loads 34163541
Core_0_L1D_load_hit 32225184 L1D_load_Hit Ratio: 0.94326
Core_0_L1D_load_miss 1938357
Core_0_L1D_RFOs 3248765
Core_0_L1D_RFO_hit 3050465 L1D_RFO_Hit Ratio: 0.93896
Core_0_L1D_RFO_miss 198300
Core_0_L1D_prefetches 480244
Core_0_L1D_prefetch_hit 480244 L1D_prefetch_Hit Ratio: 1.00000
Core_0_L1D_prefetch_miss 0
Core_0_L1D_writebacks 0
Core_0_L1D_writeback_hit 0 L1D_writeback_Hit Ratio: -nan
Core_0_L1D_writeback_miss 0
Core_0_L1D_prefetch_requested 10273679
Core_0_L1D_prefetch_issued 4186433
Core_0_L1D_prefetch_useful 0 L1D_Useful Ratio: 0.00000
Core_0_L1D_prefetch_useless 0
Core_0_L1D_prefetch_late 0
Core_0_L1D_average_miss_latency 162.50293

Core_0_L1I_total_access 18118082
Core_0_L1I_total_hit 18116099 L1I_total_Hit Ratio: 0.99989
Core_0_L1I_total_miss 1983
Core_0_L1I_loads 18118082
Core_0_L1I_load_hit 18116099 L1I_load_Hit Ratio: 0.99989
Core_0_L1I_load_miss 1983
Core_0_L1I_RFOs 0
Core_0_L1I_RFO_hit 0 L1I_RFO_Hit Ratio: -nan
Core_0_L1I_RFO_miss 0
Core_0_L1I_prefetches 0
Core_0_L1I_prefetch_hit 0 L1I_prefetch_Hit Ratio: -nan
Core_0_L1I_prefetch_miss 0
Core_0_L1I_writebacks 0
Core_0_L1I_writeback_hit 0 L1I_writeback_Hit Ratio: -nan
Core_0_L1I_writeback_miss 0
Core_0_L1I_prefetch_requested 0
Core_0_L1I_prefetch_issued 0
Core_0_L1I_prefetch_useful 0 L1I_Useful Ratio: -nan
Core_0_L1I_prefetch_useless 0
Core_0_L1I_prefetch_late 0
Core_0_L1I_average_miss_latency 281.73273

Core_0_L2C_total_access 5645812
Core_0_L2C_total_hit 4586942 L2C_total_Hit Ratio: 0.81245
Core_0_L2C_total_miss 1058870
Core_0_L2C_loads 1940340
Core_0_L2C_load_hit 1078284 L2C_load_Hit Ratio: 0.55572
Core_0_L2C_load_miss 862056
Core_0_L2C_RFOs 198300
Core_0_L2C_RFO_hit 1501 L2C_RFO_Hit Ratio: 0.00757
Core_0_L2C_RFO_miss 196799
Core_0_L2C_prefetches 2762942
Core_0_L2C_prefetch_hit 2762932 L2C_prefetch_Hit Ratio: 1.00000
Core_0_L2C_prefetch_miss 10
Core_0_L2C_writebacks 744230
Core_0_L2C_writeback_hit 744225 L2C_writeback_Hit Ratio: 0.99999
Core_0_L2C_writeback_miss 5
Core_0_L2C_prefetch_requested 3131679
Core_0_L2C_prefetch_issued 12
Core_0_L2C_prefetch_useful 8 L2C_Useful Ratio: 0.66667
Core_0_L2C_prefetch_useless 1
Core_0_L2C_prefetch_late 0
Core_0_L2C_average_miss_latency 289.15089

Core_0_LLC_total_access 1668918
Core_0_LLC_total_hit 606410 LLC_total_Hit Ratio: 0.36336
Core_0_LLC_total_miss 1062508
Core_0_LLC_loads 862056
Core_0_LLC_load_hit 3 LLC_load_Hit Ratio: 0.00000
Core_0_LLC_load_miss 862053
Core_0_LLC_RFOs 196799
Core_0_LLC_RFO_hit 1 LLC_RFO_Hit Ratio: 0.00001
Core_0_LLC_RFO_miss 196798
Core_0_LLC_prefetches 10
Core_0_LLC_prefetch_hit 0 LLC_prefetch_Hit Ratio: 0.00000
Core_0_LLC_prefetch_miss 10
Core_0_LLC_writebacks 610053
Core_0_LLC_writeback_hit 606406 LLC_writeback_Hit Ratio: 0.99402
Core_0_LLC_writeback_miss 3647
Core_0_LLC_prefetch_requested 0
Core_0_LLC_prefetch_issued 0
Core_0_LLC_prefetch_useful 0 LLC_Useful Ratio: -nan
Core_0_LLC_prefetch_useless 10
Core_0_LLC_prefetch_late 0
Core_0_LLC_average_miss_latency 248.21077

Core_0_major_page_fault 0
Core_0_minor_page_fault 8629

CPU 0 L1D next line prefetcher final stats
Prefetcher final stats
Training Unit Size: 4654
Addr table size: 480492 480492


Triggers: 878565
No Prediction: 485148 55.22050
Stream end: 3337
No translation: 270929 30.83767
Predictions: 12 0.00137


Stream divergence: 2 0.00023
Stream divergence -- new stream: 0
Channel_0_RQ_row_buffer_hit 563050
Channel_0_RQ_row_buffer_miss 495811
Channel_0_WQ_row_buffer_hit 291594
Channel_0_WQ_row_buffer_miss 314030
Channel_0_WQ_full 2730
Channel_0_dbus_congested 451405

avg_congested_cycle 8

EzSearch AVG IPC :0.65173: L2-Pf-HR :1.00000 : L2-HR :0.81245 Uful:0.66667
     > Finished combination: TraceType=770-tot Sim:120000000 Prefetcher=L2isb_ideal L1=isb_ideal
