TRACE: [167000000][OPT-350M]_[h16][s512][d64] Warmup: 2000000 NumTraces: 167000000
L1:ipcp:L2:ipcp
*************************************************
   ChampSim Multicore Out-of-Order Simulator
   Last compiled: Oct 26 2024 17:15:27
*************************************************

trace_0 770-tot_memTraces_v3/memTraces[167000000][OPT-350M]_[h16][s512][d64].champsim.xz
MAIN.cc ln 751 stats print skipped
CPU  0 inst:    1000000 cyc:     498760 now IPC :2.00497: AVG IPC :2.00497: L2-Pf-HR :0.88214: L2-HR :0.81044: (Sim:0h0m20s) 
CPU  0 inst:    2000002 cyc:     981793 now IPC :2.07026: AVG IPC :2.03709: L2-Pf-HR :0.92691: L2-HR :0.85597: (Sim:0h0m42s) 

Warmup complete CPU  0 instructions:    2000002 cycles:     981793 (Simulation time: 0 hr 0 min 42 sec) 

CPU  0 inst:    3000000 cyc:    1592211 now IPC :1.63822: AVG IPC :1.63822: L2-Pf-HR :0.96114: L2-HR :0.87869: (Sim:0h1m1s) 
CPU  0 inst:    4000001 cyc:    2178737 now IPC :1.70496: AVG IPC :1.67092: L2-Pf-HR :0.95111: L2-HR :0.85764: (Sim:0h1m19s) 
CPU  0 inst:    5000002 cyc:    2798031 now IPC :1.61474: AVG IPC :1.65177: L2-Pf-HR :0.94901: L2-HR :0.85905: (Sim:0h1m31s) 
CPU  0 inst:    6000000 cyc:    3395006 now IPC :1.67511: AVG IPC :1.65754: L2-Pf-HR :0.95867: L2-HR :0.86801: (Sim:0h1m39s) 
CPU  0 inst:    7000004 cyc:    3989756 now IPC :1.68139: AVG IPC :1.66226: L2-Pf-HR :0.96376: L2-HR :0.87177: (Sim:0h1m47s) 
CPU  0 inst:    8000003 cyc:    4571907 now IPC :1.71777: AVG IPC :1.67126: L2-Pf-HR :0.96283: L2-HR :0.86857: (Sim:0h1m55s) 
CPU  0 inst:    9000000 cyc:    5183456 now IPC :1.63519: AVG IPC :1.66601: L2-Pf-HR :0.95926: L2-HR :0.86652: (Sim:0h2m3s) 
CPU  0 inst:   10000004 cyc:    5782386 now IPC :1.66965: AVG IPC :1.66646: L2-Pf-HR :0.96290: L2-HR :0.86991: (Sim:0h2m10s) 
CPU  0 inst:   11000003 cyc:    6377294 now IPC :1.68093: AVG IPC :1.66806: L2-Pf-HR :0.96509: L2-HR :0.87182: (Sim:0h2m18s) 
CPU  0 inst:   12000000 cyc:    6962910 now IPC :1.70760: AVG IPC :1.67193: L2-Pf-HR :0.96482: L2-HR :0.87059: (Sim:0h2m26s) 
CPU  0 inst:   13000001 cyc:    7569430 now IPC :1.64875: AVG IPC :1.66979: L2-Pf-HR :0.96210: L2-HR :0.86862: (Sim:0h2m34s) 
CPU  0 inst:   14000002 cyc:    8169118 now IPC :1.66754: AVG IPC :1.66961: L2-Pf-HR :0.96435: L2-HR :0.87056: (Sim:0h2m42s) 
CPU  0 inst:   15000000 cyc:    8767088 now IPC :1.67232: AVG IPC :1.66981: L2-Pf-HR :0.96614: L2-HR :0.87278: (Sim:0h2m49s) 
CPU  0 inst:   16000000 cyc:    9362907 now IPC :1.67836: AVG IPC :1.67042: L2-Pf-HR :0.96655: L2-HR :0.87240: (Sim:0h2m57s) 
CPU  0 inst:   17000002 cyc:    9968082 now IPC :1.65242: AVG IPC :1.66921: L2-Pf-HR :0.96440: L2-HR :0.87006: (Sim:0h3m5s) 
CPU  0 inst:   18000004 cyc:   10566850 now IPC :1.67010: AVG IPC :1.66927: L2-Pf-HR :0.96559: L2-HR :0.87169: (Sim:0h3m13s) 
CPU  0 inst:   19000002 cyc:   11165494 now IPC :1.67044: AVG IPC :1.66933: L2-Pf-HR :0.96689: L2-HR :0.87284: (Sim:0h3m23s) 
CPU  0 inst:   20000000 cyc:   11756288 now IPC :1.69263: AVG IPC :1.67061: L2-Pf-HR :0.96718: L2-HR :0.87320: (Sim:0h3m31s) 
CPU  0 inst:   21000001 cyc:   12366598 now IPC :1.63851: AVG IPC :1.66889: L2-Pf-HR :0.96572: L2-HR :0.87104: (Sim:0h3m39s) 
CPU  0 inst:   22000000 cyc:   12965728 now IPC :1.66909: AVG IPC :1.66890: L2-Pf-HR :0.96680: L2-HR :0.87206: (Sim:0h3m47s) 
CPU  0 inst:   23000000 cyc:   13563666 now IPC :1.67241: AVG IPC :1.66907: L2-Pf-HR :0.96778: L2-HR :0.87330: (Sim:0h3m55s) 
CPU  0 inst:   24000000 cyc:   14163061 now IPC :1.66835: AVG IPC :1.66904: L2-Pf-HR :0.96823: L2-HR :0.87374: (Sim:0h4m2s) 
CPU  0 inst:   25000005 cyc:   14798760 now IPC :1.57308: AVG IPC :1.66462: L2-Pf-HR :0.96674: L2-HR :0.87167: (Sim:0h4m11s) 
CPU  0 inst:   26000000 cyc:   15432781 now IPC :1.57723: AVG IPC :1.66079: L2-Pf-HR :0.96755: L2-HR :0.87259: (Sim:0h4m19s) 
CPU  0 inst:   27000002 cyc:   16057311 now IPC :1.60121: AVG IPC :1.65832: L2-Pf-HR :0.96808: L2-HR :0.87337: (Sim:0h4m27s) 
CPU  0 inst:   28000000 cyc:   16694148 now IPC :1.57026: AVG IPC :1.65475: L2-Pf-HR :0.96825: L2-HR :0.87376: (Sim:0h4m35s) 
CPU  0 inst:   29000004 cyc:   17360552 now IPC :1.50060: AVG IPC :1.64848: L2-Pf-HR :0.96667: L2-HR :0.87182: (Sim:0h4m43s) 
CPU  0 inst:   30000004 cyc:   18016044 now IPC :1.52557: AVG IPC :1.64375: L2-Pf-HR :0.96718: L2-HR :0.87261: (Sim:0h4m52s) 
CPU  0 inst:   31000000 cyc:   18668026 now IPC :1.53378: AVG IPC :1.63969: L2-Pf-HR :0.96760: L2-HR :0.87320: (Sim:0h5m10s) 
CPU  0 inst:   32000001 cyc:   19323225 now IPC :1.52626: AVG IPC :1.63564: L2-Pf-HR :0.96777: L2-HR :0.87389: (Sim:0h5m29s) 
CPU  0 inst:   33000002 cyc:   19959251 now IPC :1.57226: AVG IPC :1.63352: L2-Pf-HR :0.96672: L2-HR :0.87217: (Sim:0h5m47s) 
CPU  0 inst:   34000003 cyc:   20647559 now IPC :1.45284: AVG IPC :1.62719: L2-Pf-HR :0.96681: L2-HR :0.87250: (Sim:0h6m5s) 
CPU  0 inst:   35000004 cyc:   21298878 now IPC :1.53535: AVG IPC :1.62425: L2-Pf-HR :0.96726: L2-HR :0.87327: (Sim:0h6m24s) 
CPU  0 inst:   36000004 cyc:   21945911 now IPC :1.54552: AVG IPC :1.62182: L2-Pf-HR :0.96747: L2-HR :0.87363: (Sim:0h6m43s) 
CPU  0 inst:   37000003 cyc:   22574244 now IPC :1.59151: AVG IPC :1.62094: L2-Pf-HR :0.96683: L2-HR :0.87265: (Sim:0h7m1s) 
CPU  0 inst:   38000003 cyc:   23270898 now IPC :1.43543: AVG IPC :1.61514: L2-Pf-HR :0.96646: L2-HR :0.87260: (Sim:0h7m13s) 
CPU  0 inst:   39000004 cyc:   23919727 now IPC :1.54124: AVG IPC :1.61305: L2-Pf-HR :0.96693: L2-HR :0.87310: (Sim:0h7m21s) 
CPU  0 inst:   40000004 cyc:   24569426 now IPC :1.53917: AVG IPC :1.61101: L2-Pf-HR :0.96748: L2-HR :0.87380: (Sim:0h7m30s) 
CPU  0 inst:   41000005 cyc:   25207935 now IPC :1.56615: AVG IPC :1.60983: L2-Pf-HR :0.96735: L2-HR :0.87304: (Sim:0h7m38s) 
CPU  0 inst:   42000001 cyc:   25919168 now IPC :1.40600: AVG IPC :1.60402: L2-Pf-HR :0.96687: L2-HR :0.87276: (Sim:0h7m55s) 
CPU  0 inst:   43000005 cyc:   26581870 now IPC :1.50898: AVG IPC :1.60156: L2-Pf-HR :0.96722: L2-HR :0.87332: (Sim:0h8m14s) 
CPU  0 inst:   44000004 cyc:   27243309 now IPC :1.51185: AVG IPC :1.59930: L2-Pf-HR :0.96761: L2-HR :0.87385: (Sim:0h8m30s) 
CPU  0 inst:   45000000 cyc:   27886645 now IPC :1.55439: AVG IPC :1.59822: L2-Pf-HR :0.96748: L2-HR :0.87336: (Sim:0h8m38s) 
CPU  0 inst:   46000002 cyc:   28573504 now IPC :1.45591: AVG IPC :1.59468: L2-Pf-HR :0.96692: L2-HR :0.87296: (Sim:0h8m46s) 
CPU  0 inst:   47000000 cyc:   29227475 now IPC :1.52912: AVG IPC :1.59316: L2-Pf-HR :0.96729: L2-HR :0.87347: (Sim:0h8m54s) 
CPU  0 inst:   48000004 cyc:   29884410 now IPC :1.52223: AVG IPC :1.59155: L2-Pf-HR :0.96767: L2-HR :0.87391: (Sim:0h9m3s) 
CPU  0 inst:   49000004 cyc:   30536232 now IPC :1.53416: AVG IPC :1.59029: L2-Pf-HR :0.96770: L2-HR :0.87367: (Sim:0h9m16s) 
CPU  0 inst:   50000000 cyc:   31229911 now IPC :1.44158: AVG IPC :1.58688: L2-Pf-HR :0.96708: L2-HR :0.87320: (Sim:0h9m35s) 
CPU  0 inst:   51000005 cyc:   31883293 now IPC :1.53051: AVG IPC :1.58568: L2-Pf-HR :0.96739: L2-HR :0.87353: (Sim:0h9m54s) 
CPU  0 inst:   52000002 cyc:   32530483 now IPC :1.54514: AVG IPC :1.58485: L2-Pf-HR :0.96765: L2-HR :0.87399: (Sim:0h10m12s) 
CPU  0 inst:   53000004 cyc:   33185462 now IPC :1.52677: AVG IPC :1.58367: L2-Pf-HR :0.96765: L2-HR :0.87379: (Sim:0h10m31s) 
CPU  0 inst:   54000005 cyc:   33862658 now IPC :1.47668: AVG IPC :1.58147: L2-Pf-HR :0.96680: L2-HR :0.87310: (Sim:0h10m49s) 
CPU  0 inst:   55000001 cyc:   34510676 now IPC :1.54316: AVG IPC :1.58073: L2-Pf-HR :0.96715: L2-HR :0.87358: (Sim:0h11m8s) 
CPU  0 inst:   56000001 cyc:   35155612 now IPC :1.55054: AVG IPC :1.58016: L2-Pf-HR :0.96734: L2-HR :0.87385: (Sim:0h11m27s) 
CPU  0 inst:   57000001 cyc:   35816370 now IPC :1.51341: AVG IPC :1.57889: L2-Pf-HR :0.96742: L2-HR :0.87387: (Sim:0h11m45s) 
CPU  0 inst:   58000001 cyc:   36503474 now IPC :1.45538: AVG IPC :1.57650: L2-Pf-HR :0.96682: L2-HR :0.87316: (Sim:0h12m4s) 
CPU  0 inst:   59000004 cyc:   37151868 now IPC :1.54228: AVG IPC :1.57589: L2-Pf-HR :0.96701: L2-HR :0.87336: (Sim:0h12m22s) 
CPU  0 inst:   60000005 cyc:   37793032 now IPC :1.55966: AVG IPC :1.57561: L2-Pf-HR :0.96718: L2-HR :0.87368: (Sim:0h12m41s) 
CPU  0 inst:   61000005 cyc:   38450502 now IPC :1.52098: AVG IPC :1.57465: L2-Pf-HR :0.96724: L2-HR :0.87377: (Sim:0h13m0s) 
CPU  0 inst:   62000002 cyc:   39140952 now IPC :1.44833: AVG IPC :1.57236: L2-Pf-HR :0.96665: L2-HR :0.87299: (Sim:0h13m18s) 
CPU  0 inst:   63000000 cyc:   39785069 now IPC :1.55251: AVG IPC :1.57203: L2-Pf-HR :0.96682: L2-HR :0.87320: (Sim:0h13m37s) 
CPU  0 inst:   64000003 cyc:   40430009 now IPC :1.55054: AVG IPC :1.57168: L2-Pf-HR :0.96703: L2-HR :0.87346: (Sim:0h13m55s) 
CPU  0 inst:   65000000 cyc:   41079863 now IPC :1.53880: AVG IPC :1.57115: L2-Pf-HR :0.96714: L2-HR :0.87363: (Sim:0h14m14s) 
CPU  0 inst:   66000001 cyc:   42243695 now IPC :0.85923: AVG IPC :1.55107: L2-Pf-HR :0.96420: L2-HR :0.86919: (Sim:0h14m34s) 
CPU  0 inst:   67000003 cyc:   46705832 now IPC :0.22411: AVG IPC :1.42157: L2-Pf-HR :0.94406: L2-HR :0.83945: (Sim:0h15m20s) 
CPU  0 inst:   68000005 cyc:   51715225 now IPC :0.19963: AVG IPC :1.30092: L2-Pf-HR :0.92513: L2-HR :0.81415: (Sim:0h16m8s) 
CPU  0 inst:   69000000 cyc:   55347215 now IPC :0.27533: AVG IPC :1.23240: L2-Pf-HR :0.91603: L2-HR :0.80540: (Sim:0h16m44s) 
CPU  0 inst:   70000000 cyc:   58520335 now IPC :0.31515: AVG IPC :1.18182: L2-Pf-HR :0.91037: L2-HR :0.80178: (Sim:0h17m15s) 
CPU  0 inst:   71000002 cyc:   61693924 now IPC :0.31510: AVG IPC :1.13651: L2-Pf-HR :0.90479: L2-HR :0.79823: (Sim:0h17m47s) 
CPU  0 inst:   72000004 cyc:   64865942 now IPC :0.31526: AVG IPC :1.09573: L2-Pf-HR :0.89929: L2-HR :0.79475: (Sim:0h18m18s) 
CPU  0 inst:   73000003 cyc:   68039455 now IPC :0.31511: AVG IPC :1.05879: L2-Pf-HR :0.89387: L2-HR :0.79132: (Sim:0h18m50s) 
CPU  0 inst:   74000000 cyc:   71211999 now IPC :0.31520: AVG IPC :1.02520: L2-Pf-HR :0.88853: L2-HR :0.78794: (Sim:0h19m22s) 
CPU  0 inst:   75000005 cyc:   74383667 now IPC :0.31529: AVG IPC :0.99453: L2-Pf-HR :0.88324: L2-HR :0.78462: (Sim:0h19m54s) 
CPU  0 inst:   76000000 cyc:   77556168 now IPC :0.31521: AVG IPC :0.96638: L2-Pf-HR :0.87805: L2-HR :0.78136: (Sim:0h20m25s) 
CPU  0 inst:   77000000 cyc:   80729062 now IPC :0.31517: AVG IPC :0.94047: L2-Pf-HR :0.87292: L2-HR :0.77815: (Sim:0h20m57s) 
CPU  0 inst:   78000000 cyc:   83893767 now IPC :0.31599: AVG IPC :0.91663: L2-Pf-HR :0.86789: L2-HR :0.77499: (Sim:0h21m28s) 
CPU  0 inst:   79000000 cyc:   87061010 now IPC :0.31573: AVG IPC :0.89452: L2-Pf-HR :0.86290: L2-HR :0.77188: (Sim:0h22m0s) 
CPU  0 inst:   80000004 cyc:   90229374 now IPC :0.31562: AVG IPC :0.87397: L2-Pf-HR :0.85797: L2-HR :0.76882: (Sim:0h22m31s) 
CPU  0 inst:   81000004 cyc:   93394250 now IPC :0.31597: AVG IPC :0.85486: L2-Pf-HR :0.85312: L2-HR :0.76581: (Sim:0h23m3s) 
CPU  0 inst:   82000000 cyc:   96564462 now IPC :0.31544: AVG IPC :0.83697: L2-Pf-HR :0.84833: L2-HR :0.76284: (Sim:0h23m34s) 
CPU  0 inst:   83000005 cyc:   99732273 now IPC :0.31568: AVG IPC :0.82025: L2-Pf-HR :0.84361: L2-HR :0.75992: (Sim:0h24m6s) 
CPU  0 inst:   84000001 cyc:  102898003 now IPC :0.31588: AVG IPC :0.80458: L2-Pf-HR :0.83896: L2-HR :0.75704: (Sim:0h24m37s) 
CPU  0 inst:   85000005 cyc:  106066493 now IPC :0.31561: AVG IPC :0.78984: L2-Pf-HR :0.83434: L2-HR :0.75421: (Sim:0h25m9s) 
CPU  0 inst:   86000000 cyc:  109231360 now IPC :0.31597: AVG IPC :0.77598: L2-Pf-HR :0.82979: L2-HR :0.75142: (Sim:0h25m40s) 
CPU  0 inst:   87000002 cyc:  112399264 now IPC :0.31567: AVG IPC :0.76290: L2-Pf-HR :0.82531: L2-HR :0.74868: (Sim:0h26m11s) 
CPU  0 inst:   88000004 cyc:  115567757 now IPC :0.31561: AVG IPC :0.75053: L2-Pf-HR :0.82091: L2-HR :0.74598: (Sim:0h26m43s) 
CPU  0 inst:   89000004 cyc:  118733829 now IPC :0.31585: AVG IPC :0.73884: L2-Pf-HR :0.81655: L2-HR :0.74331: (Sim:0h27m14s) 
CPU  0 inst:   90000000 cyc:  121900518 now IPC :0.31579: AVG IPC :0.72776: L2-Pf-HR :0.81224: L2-HR :0.74068: (Sim:0h27m46s) 
CPU  0 inst:   91000003 cyc:  125068981 now IPC :0.31561: AVG IPC :0.71724: L2-Pf-HR :0.80799: L2-HR :0.73810: (Sim:0h28m17s) 
CPU  0 inst:   92000002 cyc:  128236461 now IPC :0.31571: AVG IPC :0.70724: L2-Pf-HR :0.80378: L2-HR :0.73555: (Sim:0h28m49s) 
CPU  0 inst:   93000003 cyc:  131402402 now IPC :0.31586: AVG IPC :0.69774: L2-Pf-HR :0.79964: L2-HR :0.73303: (Sim:0h29m20s) 
CPU  0 inst:   94000002 cyc:  134567816 now IPC :0.31591: AVG IPC :0.68869: L2-Pf-HR :0.79554: L2-HR :0.73056: (Sim:0h29m52s) 
CPU  0 inst:   95000002 cyc:  137735917 now IPC :0.31565: AVG IPC :0.68005: L2-Pf-HR :0.79148: L2-HR :0.72812: (Sim:0h30m23s) 
CPU  0 inst:   96000004 cyc:  140901909 now IPC :0.31586: AVG IPC :0.67181: L2-Pf-HR :0.78747: L2-HR :0.72571: (Sim:0h30m55s) 
CPU  0 inst:   97000004 cyc:  144069289 now IPC :0.31572: AVG IPC :0.66393: L2-Pf-HR :0.78353: L2-HR :0.72334: (Sim:0h31m26s) 
CPU  0 inst:   98000000 cyc:  147234489 now IPC :0.31593: AVG IPC :0.65640: L2-Pf-HR :0.77966: L2-HR :0.72099: (Sim:0h31m57s) 
CPU  0 inst:   99000003 cyc:  150400888 now IPC :0.31582: AVG IPC :0.64918: L2-Pf-HR :0.77581: L2-HR :0.71869: (Sim:0h32m29s) 
CPU  0 inst:  100000002 cyc:  153570253 now IPC :0.31552: AVG IPC :0.64225: L2-Pf-HR :0.77199: L2-HR :0.71642: (Sim:0h33m0s) 
CPU  0 inst:  101000002 cyc:  155386071 now IPC :0.55072: AVG IPC :0.64117: L2-Pf-HR :0.77139: L2-HR :0.71632: (Sim:0h33m26s) 
CPU  0 inst:  102000003 cyc:  155965612 now IPC :1.72551: AVG IPC :0.64523: L2-Pf-HR :0.77431: L2-HR :0.71861: (Sim:0h33m47s) 
CPU  0 inst:  103000005 cyc:  156539749 now IPC :1.74175: AVG IPC :0.64928: L2-Pf-HR :0.77743: L2-HR :0.72104: (Sim:0h34m9s) 
CPU  0 inst:  104000002 cyc:  157050868 now IPC :1.95649: AVG IPC :0.65356: L2-Pf-HR :0.78192: L2-HR :0.72433: (Sim:0h34m29s) 
CPU  0 inst:  105000002 cyc:  157627148 now IPC :1.73527: AVG IPC :0.65754: L2-Pf-HR :0.78510: L2-HR :0.72684: (Sim:0h34m51s) 
CPU  0 inst:  106000005 cyc:  158221738 now IPC :1.68184: AVG IPC :0.66141: L2-Pf-HR :0.78730: L2-HR :0.72881: (Sim:0h35m12s) 
CPU  0 inst:  107000001 cyc:  158815276 now IPC :1.68481: AVG IPC :0.66526: L2-Pf-HR :0.78957: L2-HR :0.73081: (Sim:0h35m34s) 
CPU  0 inst:  108000004 cyc:  159327041 now IPC :1.95403: AVG IPC :0.66942: L2-Pf-HR :0.79343: L2-HR :0.73382: (Sim:0h35m54s) 
CPU  0 inst:  109000004 cyc:  159881335 now IPC :1.80410: AVG IPC :0.67338: L2-Pf-HR :0.79643: L2-HR :0.73632: (Sim:0h36m16s) 
CPU  0 inst:  110000004 cyc:  160478254 now IPC :1.67527: AVG IPC :0.67713: L2-Pf-HR :0.79808: L2-HR :0.73798: (Sim:0h36m37s) 
CPU  0 inst:  111000001 cyc:  161063407 now IPC :1.70895: AVG IPC :0.68090: L2-Pf-HR :0.79989: L2-HR :0.73975: (Sim:0h36m59s) 
CPU  0 inst:  112000005 cyc:  161577266 now IPC :1.94607: AVG IPC :0.68495: L2-Pf-HR :0.80321: L2-HR :0.74247: (Sim:0h37m19s) 
CPU  0 inst:  113000002 cyc:  162126787 now IPC :1.81976: AVG IPC :0.68882: L2-Pf-HR :0.80600: L2-HR :0.74489: (Sim:0h37m40s) 
CPU  0 inst:  114000003 cyc:  162701325 now IPC :1.74053: AVG IPC :0.69256: L2-Pf-HR :0.80731: L2-HR :0.74636: (Sim:0h38m2s) 
CPU  0 inst:  115000000 cyc:  163282236 now IPC :1.72143: AVG IPC :0.69624: L2-Pf-HR :0.80883: L2-HR :0.74794: (Sim:0h38m23s) 
CPU  0 inst:  116000001 cyc:  163814412 now IPC :1.87908: AVG IPC :0.70011: L2-Pf-HR :0.81146: L2-HR :0.75026: (Sim:0h38m44s) 
CPU  0 inst:  117000005 cyc:  164326602 now IPC :1.95241: AVG IPC :0.70403: L2-Pf-HR :0.81423: L2-HR :0.75271: (Sim:0h39m5s) 
CPU  0 inst:  118000003 cyc:  164950149 now IPC :1.60373: AVG IPC :0.70745: L2-Pf-HR :0.81520: L2-HR :0.75395: (Sim:0h39m27s) 
CPU  0 inst:  119000000 cyc:  165527844 now IPC :1.73101: AVG IPC :0.71105: L2-Pf-HR :0.81650: L2-HR :0.75540: (Sim:0h39m48s) 
CPU  0 inst:  120000004 cyc:  166065434 now IPC :1.86016: AVG IPC :0.71479: L2-Pf-HR :0.81858: L2-HR :0.75737: (Sim:0h40m9s) 
CPU  0 inst:  121000003 cyc:  166576853 now IPC :1.95534: AVG IPC :0.71862: L2-Pf-HR :0.82105: L2-HR :0.75964: (Sim:0h40m30s) 
CPU  0 inst:  122000002 cyc:  167182248 now IPC :1.65181: AVG IPC :0.72202: L2-Pf-HR :0.82204: L2-HR :0.76089: (Sim:0h40m51s) 
CPU  0 inst:  123000000 cyc:  167775745 now IPC :1.68493: AVG IPC :0.72545: L2-Pf-HR :0.82308: L2-HR :0.76216: (Sim:0h41m13s) 
CPU  0 inst:  124000000 cyc:  168321549 now IPC :1.83216: AVG IPC :0.72906: L2-Pf-HR :0.82466: L2-HR :0.76379: (Sim:0h41m34s) 
CPU  0 inst:  125000002 cyc:  168833483 now IPC :1.95338: AVG IPC :0.73279: L2-Pf-HR :0.82685: L2-HR :0.76588: (Sim:0h41m54s) 
CPU  0 inst:  126000002 cyc:  169399466 now IPC :1.76684: AVG IPC :0.73626: L2-Pf-HR :0.82803: L2-HR :0.76724: (Sim:0h42m16s) 
CPU  0 inst:  127000001 cyc:  169960297 now IPC :1.78307: AVG IPC :0.73974: L2-Pf-HR :0.82896: L2-HR :0.76843: (Sim:0h42m37s) 
CPU  0 inst:  128000000 cyc:  170509998 now IPC :1.81917: AVG IPC :0.74324: L2-Pf-HR :0.83013: L2-HR :0.76979: (Sim:0h42m58s) 
CPU  0 inst:  129000005 cyc:  171020170 now IPC :1.96013: AVG IPC :0.74689: L2-Pf-HR :0.83211: L2-HR :0.77173: (Sim:0h43m19s) 
CPU  0 inst:  130000001 cyc:  171558583 now IPC :1.85730: AVG IPC :0.75040: L2-Pf-HR :0.83341: L2-HR :0.77319: (Sim:0h43m40s) 
CPU  0 inst:  131000003 cyc:  172100269 now IPC :1.84609: AVG IPC :0.75386: L2-Pf-HR :0.83427: L2-HR :0.77432: (Sim:0h44m1s) 
CPU  0 inst:  132000002 cyc:  172652660 now IPC :1.81031: AVG IPC :0.75726: L2-Pf-HR :0.83509: L2-HR :0.77543: (Sim:0h44m22s) 
CPU  0 inst:  133000002 cyc:  173162501 now IPC :1.96140: AVG IPC :0.76083: L2-Pf-HR :0.83691: L2-HR :0.77725: (Sim:0h44m43s) 
CPU  0 inst:  134000000 cyc:  173692690 now IPC :1.88612: AVG IPC :0.76428: L2-Pf-HR :0.83829: L2-HR :0.77876: (Sim:0h45m4s) 
CPU  0 inst:  135000002 cyc:  174244277 now IPC :1.81295: AVG IPC :0.76762: L2-Pf-HR :0.83900: L2-HR :0.77976: (Sim:0h45m25s) 
CPU  0 inst:  136000002 cyc:  174800989 now IPC :1.79626: AVG IPC :0.77092: L2-Pf-HR :0.83958: L2-HR :0.78067: (Sim:0h45m46s) 
CPU  0 inst:  137000000 cyc:  175312610 now IPC :1.95457: AVG IPC :0.77439: L2-Pf-HR :0.84116: L2-HR :0.78232: (Sim:0h46m7s) 
CPU  0 inst:  138000001 cyc:  175821501 now IPC :1.96506: AVG IPC :0.77786: L2-Pf-HR :0.84278: L2-HR :0.78400: (Sim:0h46m28s) 
CPU  0 inst:  139000001 cyc:  176378556 now IPC :1.79515: AVG IPC :0.78109: L2-Pf-HR :0.84323: L2-HR :0.78479: (Sim:0h46m49s) 
CPU  0 inst:  140000004 cyc:  176938511 now IPC :1.78586: AVG IPC :0.78428: L2-Pf-HR :0.84367: L2-HR :0.78559: (Sim:0h47m10s) 
CPU  0 inst:  141000003 cyc:  177468112 now IPC :1.88821: AVG IPC :0.78760: L2-Pf-HR :0.84497: L2-HR :0.78701: (Sim:0h47m31s) 
CPU  0 inst:  142000005 cyc:  177978736 now IPC :1.95839: AVG IPC :0.79097: L2-Pf-HR :0.84647: L2-HR :0.78859: (Sim:0h47m52s) 
CPU  0 inst:  143000005 cyc:  178541365 now IPC :1.77737: AVG IPC :0.79410: L2-Pf-HR :0.84701: L2-HR :0.78944: (Sim:0h48m13s) 
CPU  0 inst:  144000004 cyc:  179091709 now IPC :1.81704: AVG IPC :0.79726: L2-Pf-HR :0.84742: L2-HR :0.79021: (Sim:0h48m34s) 
CPU  0 inst:  145000003 cyc:  179620774 now IPC :1.89013: AVG IPC :0.80050: L2-Pf-HR :0.84840: L2-HR :0.79139: (Sim:0h48m55s) 
CPU  0 inst:  146000003 cyc:  180129158 now IPC :1.96702: AVG IPC :0.80381: L2-Pf-HR :0.84979: L2-HR :0.79288: (Sim:0h49m16s) 
CPU  0 inst:  147000005 cyc:  180676630 now IPC :1.82658: AVG IPC :0.80692: L2-Pf-HR :0.85039: L2-HR :0.79376: (Sim:0h49m37s) 
CPU  0 inst:  148000003 cyc:  181222762 now IPC :1.83106: AVG IPC :0.81003: L2-Pf-HR :0.85076: L2-HR :0.79447: (Sim:0h49m58s) 
CPU  0 inst:  149000000 cyc:  181756589 now IPC :1.87326: AVG IPC :0.81317: L2-Pf-HR :0.85156: L2-HR :0.79549: (Sim:0h50m19s) 
CPU  0 inst:  150000005 cyc:  182264688 now IPC :1.96813: AVG IPC :0.81640: L2-Pf-HR :0.85285: L2-HR :0.79690: (Sim:0h50m40s) 
CPU  0 inst:  151000001 cyc:  182807250 now IPC :1.84310: AVG IPC :0.81947: L2-Pf-HR :0.85348: L2-HR :0.79780: (Sim:0h51m1s) 
CPU  0 inst:  152000002 cyc:  183361545 now IPC :1.80410: AVG IPC :0.82246: L2-Pf-HR :0.85383: L2-HR :0.79848: (Sim:0h51m22s) 
CPU  0 inst:  153000002 cyc:  183903646 now IPC :1.84467: AVG IPC :0.82549: L2-Pf-HR :0.85442: L2-HR :0.79931: (Sim:0h51m43s) 
CPU  0 inst:  154000002 cyc:  184412883 now IPC :1.96372: AVG IPC :0.82865: L2-Pf-HR :0.85562: L2-HR :0.80064: (Sim:0h52m3s) 
CPU  0 inst:  155000002 cyc:  184958254 now IPC :1.83361: AVG IPC :0.83163: L2-Pf-HR :0.85626: L2-HR :0.80154: (Sim:0h52m24s) 
CPU  0 inst:  156000001 cyc:  185505425 now IPC :1.82758: AVG IPC :0.83458: L2-Pf-HR :0.85661: L2-HR :0.80220: (Sim:0h52m45s) 
CPU  0 inst:  157000004 cyc:  186051573 now IPC :1.83101: AVG IPC :0.83752: L2-Pf-HR :0.85702: L2-HR :0.80288: (Sim:0h53m6s) 
CPU  0 inst:  158000000 cyc:  186560358 now IPC :1.96546: AVG IPC :0.84061: L2-Pf-HR :0.85815: L2-HR :0.80415: (Sim:0h53m27s) 
CPU  0 inst:  159000001 cyc:  187088737 now IPC :1.89258: AVG IPC :0.84360: L2-Pf-HR :0.85894: L2-HR :0.80515: (Sim:0h53m48s) 
CPU  0 inst:  160000002 cyc:  187637540 now IPC :1.82215: AVG IPC :0.84648: L2-Pf-HR :0.85922: L2-HR :0.80573: (Sim:0h54m9s) 
CPU  0 inst:  161000001 cyc:  188185042 now IPC :1.82648: AVG IPC :0.84934: L2-Pf-HR :0.85955: L2-HR :0.80635: (Sim:0h54m31s) 
CPU  0 inst:  162000001 cyc:  188705759 now IPC :1.92043: AVG IPC :0.85232: L2-Pf-HR :0.86047: L2-HR :0.80744: (Sim:0h54m51s) 
CPU  0 inst:  163000005 cyc:  189216825 now IPC :1.95670: AVG IPC :0.85531: L2-Pf-HR :0.86145: L2-HR :0.80858: (Sim:0h55m12s) 
CPU  0 inst:  164000000 cyc:  189778965 now IPC :1.77891: AVG IPC :0.85806: L2-Pf-HR :0.86160: L2-HR :0.80904: (Sim:0h55m33s) 
Finished CPU 0 instr: 162000004 cyc: 188797173 AVG IPC: 0.85806 (Sim time: 0h55m33s)

ChampSim completed all CPUs

[ROI Statistics]
Core_0_instructions 162000004
Core_0_cycles 188797173
Core_0_IPC 0.85806

Core_0_branch_prediction_accuracy 99.21038
Core_0_branch_MPKI 0.23475
Core_0_average_ROB_occupancy_at_mispredict 448.83294

Core_0_L1D_total_access 83403635
Core_0_L1D_total_hit 80298129 L1D_total_Hit Ratio: 0.96277
Core_0_L1D_total_miss 3105506
Core_0_L1D_loads 47092413
Core_0_L1D_load_hit 45967077 L1D_load_Hit Ratio: 0.97610
Core_0_L1D_load_miss 1125336
Core_0_L1D_RFOs 4392575
Core_0_L1D_RFO_hit 4177105 L1D_RFO_Hit Ratio: 0.95095
Core_0_L1D_RFO_miss 215470
Core_0_L1D_prefetches 31918647
Core_0_L1D_prefetch_hit 30153947 L1D_prefetch_Hit Ratio: 0.94471
Core_0_L1D_prefetch_miss 1764700
Core_0_L1D_writebacks 0
Core_0_L1D_writeback_hit 0 L1D_writeback_Hit Ratio: -nan
Core_0_L1D_writeback_miss 0
Core_0_L1D_prefetch_requested 88131612
Core_0_L1D_prefetch_issued 44769576
Core_0_L1D_prefetch_useful 1648879 L1D_Useful Ratio: 0.03683
Core_0_L1D_prefetch_useless 132062
Core_0_L1D_prefetch_late 159072
Core_0_L1D_average_miss_latency 3353221.73973

Core_0_L1I_total_access 24829234
Core_0_L1I_total_hit 24827283 L1I_total_Hit Ratio: 0.99992
Core_0_L1I_total_miss 1951
Core_0_L1I_loads 24829234
Core_0_L1I_load_hit 24827283 L1I_load_Hit Ratio: 0.99992
Core_0_L1I_load_miss 1951
Core_0_L1I_RFOs 0
Core_0_L1I_RFO_hit 0 L1I_RFO_Hit Ratio: -nan
Core_0_L1I_RFO_miss 0
Core_0_L1I_prefetches 0
Core_0_L1I_prefetch_hit 0 L1I_prefetch_Hit Ratio: -nan
Core_0_L1I_prefetch_miss 0
Core_0_L1I_writebacks 0
Core_0_L1I_writeback_hit 0 L1I_writeback_Hit Ratio: -nan
Core_0_L1I_writeback_miss 0
Core_0_L1I_prefetch_requested 0
Core_0_L1I_prefetch_issued 0
Core_0_L1I_prefetch_useful 0 L1I_Useful Ratio: -nan
Core_0_L1I_prefetch_useless 0
Core_0_L1I_prefetch_late 0
Core_0_L1I_average_miss_latency 249.88621

Core_0_L2C_total_access 7456253
Core_0_L2C_total_hit 6032380 L2C_total_Hit Ratio: 0.80904
Core_0_L2C_total_miss 1423873
Core_0_L2C_loads 968294
Core_0_L2C_load_hit 471831 L2C_load_Hit Ratio: 0.48728
Core_0_L2C_load_miss 496463
Core_0_L2C_RFOs 215465
Core_0_L2C_RFO_hit 18134 L2C_RFO_Hit Ratio: 0.08416
Core_0_L2C_RFO_miss 197331
Core_0_L2C_prefetches 5275001
Core_0_L2C_prefetch_hit 4544929 L2C_prefetch_Hit Ratio: 0.86160
Core_0_L2C_prefetch_miss 730072
Core_0_L2C_writebacks 997493
Core_0_L2C_writeback_hit 997486 L2C_writeback_Hit Ratio: 0.99999
Core_0_L2C_writeback_miss 7
Core_0_L2C_prefetch_requested 6824453
Core_0_L2C_prefetch_issued 6603889
Core_0_L2C_prefetch_useful 81741 L2C_Useful Ratio: 0.01238
Core_0_L2C_prefetch_useless 602497
Core_0_L2C_prefetch_late 185542
Core_0_L2C_average_miss_latency 316.48928

Core_0_LLC_total_access 2238881
Core_0_LLC_total_hit 811400 LLC_total_Hit Ratio: 0.36241
Core_0_LLC_total_miss 1427481
Core_0_LLC_loads 310996
Core_0_LLC_load_hit 0 LLC_load_Hit Ratio: 0.00000
Core_0_LLC_load_miss 310996
Core_0_LLC_RFOs 197329
Core_0_LLC_RFO_hit 0 LLC_RFO_Hit Ratio: 0.00000
Core_0_LLC_RFO_miss 197329
Core_0_LLC_prefetches 915541
Core_0_LLC_prefetch_hit 43 LLC_prefetch_Hit Ratio: 0.00005
Core_0_LLC_prefetch_miss 915498
Core_0_LLC_writebacks 815015
Core_0_LLC_writeback_hit 811357 LLC_writeback_Hit Ratio: 0.99551
Core_0_LLC_writeback_miss 3658
Core_0_LLC_prefetch_requested 0
Core_0_LLC_prefetch_issued 0
Core_0_LLC_prefetch_useful 0 LLC_Useful Ratio: -nan
Core_0_LLC_prefetch_useless 804617
Core_0_LLC_prefetch_late 0
Core_0_LLC_average_miss_latency 292.77777

Core_0_major_page_fault 0
Core_0_minor_page_fault 11197


Channel_0_RQ_row_buffer_hit 754321
Channel_0_RQ_row_buffer_miss 669502
Channel_0_WQ_row_buffer_hit 293198
Channel_0_WQ_row_buffer_miss 515362
Channel_0_WQ_full 2821
Channel_0_dbus_congested 1142032

avg_congested_cycle 8

EzSearch AVG IPC :0.85806: L2-Pf-HR :0.86160 : L2-HR :0.80904 Uful:0.01238
     > Finished combination: TraceType=770-tot Sim:162000000 Prefetcher=L2ipcp L1=ipcp
