TRACE: [409000000][GPT-Neo_2_7B]_[h32][s512][d80] Warmup: 2000000 NumTraces: 409000000
L1:berti:L2:berti
*************************************************
   ChampSim Multicore Out-of-Order Simulator
   Last compiled: Oct 27 2024 00:24:33
*************************************************

trace_0 770-tot_memTraces_v3/memTraces[409000000][GPT-Neo_2_7B]_[h32][s512][d80].champsim.xz
CPU 0 L1D Berti prefetcher
CPU 0 L2C Berti prefetcher
MAIN.cc ln 751 stats print skipped
CPU  0 inst:    1000003 cyc:     498337 now IPC :2.00668: AVG IPC :2.00668: L2-Pf-HR :0.61942: L2-HR :0.63896: (Sim:0h0m23s) 
CPU  0 inst:    2000002 cyc:     981072 now IPC :2.07153: AVG IPC :2.03859: L2-Pf-HR :0.72846: L2-HR :0.74237: (Sim:0h0m49s) 

Warmup complete CPU  0 instructions:    2000002 cycles:     981072 (Simulation time: 0 hr 0 min 49 sec) 

CPU  0 inst:    3000000 cyc:    1443534 now IPC :2.16234: AVG IPC :2.16234: L2-Pf-HR :0.88286: L2-HR :0.89504: (Sim:0h1m9s) 
CPU  0 inst:    4000000 cyc:    1932963 now IPC :2.04320: AVG IPC :2.10108: L2-Pf-HR :0.91297: L2-HR :0.91218: (Sim:0h1m29s) 
CPU  0 inst:    5000004 cyc:    2404991 now IPC :2.11853: AVG IPC :2.10686: L2-Pf-HR :0.88425: L2-HR :0.89317: (Sim:0h1m48s) 
CPU  0 inst:    6000002 cyc:    2978668 now IPC :1.74314: AVG IPC :2.00241: L2-Pf-HR :0.86004: L2-HR :0.86130: (Sim:0h2m9s) 
CPU  0 inst:    7000001 cyc:    3452481 now IPC :2.11054: AVG IPC :2.02314: L2-Pf-HR :0.85812: L2-HR :0.86274: (Sim:0h2m30s) 
CPU  0 inst:    8000002 cyc:    3909639 now IPC :2.18743: AVG IPC :2.04878: L2-Pf-HR :0.86380: L2-HR :0.86985: (Sim:0h2m50s) 
CPU  0 inst:    9000002 cyc:    4373148 now IPC :2.15746: AVG IPC :2.06363: L2-Pf-HR :0.88107: L2-HR :0.88425: (Sim:0h3m10s) 
CPU  0 inst:   10000003 cyc:    4877654 now IPC :1.98214: AVG IPC :2.05308: L2-Pf-HR :0.87086: L2-HR :0.87588: (Sim:0h3m29s) 
CPU  0 inst:   11000004 cyc:    5437262 now IPC :1.78697: AVG IPC :2.01966: L2-Pf-HR :0.86234: L2-HR :0.86513: (Sim:0h3m49s) 
CPU  0 inst:   12000000 cyc:    5913906 now IPC :2.09799: AVG IPC :2.02723: L2-Pf-HR :0.86078: L2-HR :0.86505: (Sim:0h4m8s) 
CPU  0 inst:   13000002 cyc:    6374069 now IPC :2.17315: AVG IPC :2.03968: L2-Pf-HR :0.86299: L2-HR :0.86817: (Sim:0h4m28s) 
CPU  0 inst:   14000002 cyc:    6828071 now IPC :2.20263: AVG IPC :2.05233: L2-Pf-HR :0.87239: L2-HR :0.87614: (Sim:0h4m47s) 
CPU  0 inst:   15000002 cyc:    7333398 now IPC :1.97892: AVG IPC :2.04649: L2-Pf-HR :0.86792: L2-HR :0.87280: (Sim:0h5m7s) 
CPU  0 inst:   16000000 cyc:    7890055 now IPC :1.79643: AVG IPC :2.02635: L2-Pf-HR :0.86294: L2-HR :0.86729: (Sim:0h5m26s) 
CPU  0 inst:   17000001 cyc:    8378039 now IPC :2.04925: AVG IPC :2.02786: L2-Pf-HR :0.86119: L2-HR :0.86634: (Sim:0h5m46s) 
CPU  0 inst:   18000003 cyc:    8836382 now IPC :2.18178: AVG IPC :2.03684: L2-Pf-HR :0.86313: L2-HR :0.86868: (Sim:0h6m5s) 
CPU  0 inst:   19000000 cyc:    9296302 now IPC :2.17428: AVG IPC :2.04444: L2-Pf-HR :0.86915: L2-HR :0.87368: (Sim:0h6m24s) 
CPU  0 inst:   20000004 cyc:    9803945 now IPC :1.96990: AVG IPC :2.04015: L2-Pf-HR :0.86691: L2-HR :0.87174: (Sim:0h6m44s) 
CPU  0 inst:   21000003 cyc:   10351386 now IPC :1.82668: AVG IPC :2.02768: L2-Pf-HR :0.86373: L2-HR :0.86753: (Sim:0h7m4s) 
CPU  0 inst:   22000001 cyc:   10835105 now IPC :2.06731: AVG IPC :2.02963: L2-Pf-HR :0.86266: L2-HR :0.86696: (Sim:0h7m23s) 
CPU  0 inst:   23000004 cyc:   11295484 now IPC :2.17213: AVG IPC :2.03599: L2-Pf-HR :0.86336: L2-HR :0.86821: (Sim:0h7m42s) 
CPU  0 inst:   24000000 cyc:   11749425 now IPC :2.20292: AVG IPC :2.04302: L2-Pf-HR :0.86779: L2-HR :0.87210: (Sim:0h8m2s) 
CPU  0 inst:   25000005 cyc:   12255575 now IPC :1.97571: AVG IPC :2.04000: L2-Pf-HR :0.86674: L2-HR :0.87109: (Sim:0h8m21s) 
CPU  0 inst:   26000004 cyc:   12799796 now IPC :1.83749: AVG IPC :2.03068: L2-Pf-HR :0.86517: L2-HR :0.86864: (Sim:0h8m41s) 
CPU  0 inst:   27000001 cyc:   13300957 now IPC :1.99536: AVG IPC :2.02924: L2-Pf-HR :0.86339: L2-HR :0.86734: (Sim:0h9m1s) 
CPU  0 inst:   28000004 cyc:   13762924 now IPC :2.16466: AVG IPC :2.03413: L2-Pf-HR :0.86359: L2-HR :0.86815: (Sim:0h9m20s) 
CPU  0 inst:   29000002 cyc:   14225260 now IPC :2.16292: AVG IPC :2.03863: L2-Pf-HR :0.86691: L2-HR :0.87094: (Sim:0h9m39s) 
CPU  0 inst:   30000000 cyc:   14751862 now IPC :1.89896: AVG IPC :2.03329: L2-Pf-HR :0.86654: L2-HR :0.87046: (Sim:0h9m59s) 
CPU  0 inst:   31000001 cyc:   15316901 now IPC :1.76979: AVG IPC :2.02290: L2-Pf-HR :0.86463: L2-HR :0.86853: (Sim:0h10m19s) 
CPU  0 inst:   32000001 cyc:   15852552 now IPC :1.86689: AVG IPC :2.01728: L2-Pf-HR :0.86296: L2-HR :0.86723: (Sim:0h10m40s) 
CPU  0 inst:   33000000 cyc:   16326668 now IPC :2.10919: AVG IPC :2.02012: L2-Pf-HR :0.86339: L2-HR :0.86801: (Sim:0h10m59s) 
CPU  0 inst:   34000002 cyc:   16790533 now IPC :2.15580: AVG IPC :2.02410: L2-Pf-HR :0.86605: L2-HR :0.87040: (Sim:0h11m19s) 
CPU  0 inst:   35000004 cyc:   17328493 now IPC :1.85888: AVG IPC :2.01867: L2-Pf-HR :0.86634: L2-HR :0.87035: (Sim:0h11m39s) 
CPU  0 inst:   36000001 cyc:   17902862 now IPC :1.74104: AVG IPC :2.00924: L2-Pf-HR :0.86523: L2-HR :0.86893: (Sim:0h11m59s) 
CPU  0 inst:   37000001 cyc:   18465076 now IPC :1.77868: AVG IPC :2.00183: L2-Pf-HR :0.86366: L2-HR :0.86750: (Sim:0h12m18s) 
CPU  0 inst:   38000003 cyc:   18944400 now IPC :2.08628: AVG IPC :2.00408: L2-Pf-HR :0.86395: L2-HR :0.86813: (Sim:0h12m38s) 
CPU  0 inst:   39000002 cyc:   19426481 now IPC :2.07434: AVG IPC :2.00592: L2-Pf-HR :0.86578: L2-HR :0.86978: (Sim:0h12m58s) 
CPU  0 inst:   40000002 cyc:   19965405 now IPC :1.85555: AVG IPC :2.00165: L2-Pf-HR :0.86635: L2-HR :0.86998: (Sim:0h13m18s) 
CPU  0 inst:   41000000 cyc:   20522823 now IPC :1.79398: AVG IPC :1.99573: L2-Pf-HR :0.86519: L2-HR :0.86907: (Sim:0h13m38s) 
CPU  0 inst:   42000004 cyc:   21090672 now IPC :1.76104: AVG IPC :1.98910: L2-Pf-HR :0.86376: L2-HR :0.86765: (Sim:0h13m57s) 
CPU  0 inst:   43000000 cyc:   21571819 now IPC :2.07836: AVG IPC :1.99119: L2-Pf-HR :0.86385: L2-HR :0.86808: (Sim:0h14m16s) 
CPU  0 inst:   44000002 cyc:   22043641 now IPC :2.11945: AVG IPC :1.99406: L2-Pf-HR :0.86527: L2-HR :0.86948: (Sim:0h14m36s) 
CPU  0 inst:   45000005 cyc:   22579888 now IPC :1.86482: AVG IPC :1.99085: L2-Pf-HR :0.86622: L2-HR :0.86998: (Sim:0h14m56s) 
CPU  0 inst:   46000005 cyc:   23109927 now IPC :1.88665: AVG IPC :1.98835: L2-Pf-HR :0.86530: L2-HR :0.86926: (Sim:0h15m16s) 
CPU  0 inst:   47000004 cyc:   23709648 now IPC :1.66744: AVG IPC :1.97989: L2-Pf-HR :0.86387: L2-HR :0.86772: (Sim:0h15m36s) 
CPU  0 inst:   48000003 cyc:   24195668 now IPC :2.05753: AVG IPC :1.98151: L2-Pf-HR :0.86382: L2-HR :0.86804: (Sim:0h15m55s) 
CPU  0 inst:   49000005 cyc:   24669041 now IPC :2.11250: AVG IPC :1.98413: L2-Pf-HR :0.86500: L2-HR :0.86918: (Sim:0h16m14s) 
CPU  0 inst:   50000000 cyc:   25203686 now IPC :1.87039: AVG IPC :1.98162: L2-Pf-HR :0.86641: L2-HR :0.87001: (Sim:0h16m34s) 
CPU  0 inst:   51000003 cyc:   25673753 now IPC :2.12736: AVG IPC :1.98439: L2-Pf-HR :0.86596: L2-HR :0.87014: (Sim:0h16m53s) 
CPU  0 inst:   52000001 cyc:   26338348 now IPC :1.50467: AVG IPC :1.97182: L2-Pf-HR :0.86408: L2-HR :0.86770: (Sim:0h17m11s) 
CPU  0 inst:   53000000 cyc:   26834134 now IPC :2.01700: AVG IPC :1.97269: L2-Pf-HR :0.86396: L2-HR :0.86786: (Sim:0h17m21s) 
CPU  0 inst:   54000002 cyc:   27307105 now IPC :2.11430: AVG IPC :1.97523: L2-Pf-HR :0.86485: L2-HR :0.86883: (Sim:0h17m30s) 
CPU  0 inst:   55000001 cyc:   27831901 now IPC :1.90550: AVG IPC :1.97387: L2-Pf-HR :0.86647: L2-HR :0.86991: (Sim:0h17m40s) 
CPU  0 inst:   56000002 cyc:   28319833 now IPC :2.04947: AVG IPC :1.97522: L2-Pf-HR :0.86572: L2-HR :0.86969: (Sim:0h17m49s) 
CPU  0 inst:   57000001 cyc:   28959438 now IPC :1.56346: AVG IPC :1.96580: L2-Pf-HR :0.86409: L2-HR :0.86768: (Sim:0h17m59s) 
CPU  0 inst:   58000000 cyc:   29449351 now IPC :2.04118: AVG IPC :1.96710: L2-Pf-HR :0.86405: L2-HR :0.86784: (Sim:0h18m8s) 
CPU  0 inst:   59000000 cyc:   29924169 now IPC :2.10607: AVG IPC :1.96938: L2-Pf-HR :0.86460: L2-HR :0.86849: (Sim:0h18m18s) 
CPU  0 inst:   60000005 cyc:   30434579 now IPC :1.95922: AVG IPC :1.96921: L2-Pf-HR :0.86653: L2-HR :0.86989: (Sim:0h18m27s) 
CPU  0 inst:   61000005 cyc:   30930207 now IPC :2.01764: AVG IPC :1.97001: L2-Pf-HR :0.86554: L2-HR :0.86942: (Sim:0h18m37s) 
CPU  0 inst:   62000004 cyc:   31565394 now IPC :1.57434: AVG IPC :1.96179: L2-Pf-HR :0.86418: L2-HR :0.86773: (Sim:0h18m47s) 
CPU  0 inst:   63000004 cyc:   32066224 now IPC :1.99669: AVG IPC :1.96235: L2-Pf-HR :0.86391: L2-HR :0.86770: (Sim:0h19m3s) 
CPU  0 inst:   64000000 cyc:   32542204 now IPC :2.10092: AVG IPC :1.96444: L2-Pf-HR :0.86449: L2-HR :0.86838: (Sim:0h19m23s) 
CPU  0 inst:   65000004 cyc:   33019486 now IPC :2.09521: AVG IPC :1.96639: L2-Pf-HR :0.86648: L2-HR :0.87005: (Sim:0h19m43s) 
CPU  0 inst:   66000003 cyc:   33555828 now IPC :1.86448: AVG IPC :1.96471: L2-Pf-HR :0.86531: L2-HR :0.86917: (Sim:0h20m2s) 
CPU  0 inst:   67000004 cyc:   34181171 now IPC :1.59912: AVG IPC :1.95783: L2-Pf-HR :0.86431: L2-HR :0.86787: (Sim:0h20m22s) 
CPU  0 inst:   68000003 cyc:   34684798 now IPC :1.98559: AVG IPC :1.95824: L2-Pf-HR :0.86408: L2-HR :0.86784: (Sim:0h20m42s) 
CPU  0 inst:   69000001 cyc:   35166178 now IPC :2.07736: AVG IPC :1.95992: L2-Pf-HR :0.86435: L2-HR :0.86825: (Sim:0h21m1s) 
CPU  0 inst:   70000001 cyc:   35638446 now IPC :2.11744: AVG IPC :1.96206: L2-Pf-HR :0.86597: L2-HR :0.86966: (Sim:0h21m11s) 
CPU  0 inst:   71000001 cyc:   36175343 now IPC :1.86255: AVG IPC :1.96055: L2-Pf-HR :0.86521: L2-HR :0.86907: (Sim:0h21m31s) 
CPU  0 inst:   72000004 cyc:   36798543 now IPC :1.60463: AVG IPC :1.95435: L2-Pf-HR :0.86441: L2-HR :0.86796: (Sim:0h21m51s) 
CPU  0 inst:   73000000 cyc:   37313094 now IPC :1.94343: AVG IPC :1.95420: L2-Pf-HR :0.86406: L2-HR :0.86777: (Sim:0h22m9s) 
CPU  0 inst:   74000005 cyc:   37786964 now IPC :2.11029: AVG IPC :1.95621: L2-Pf-HR :0.86435: L2-HR :0.86822: (Sim:0h22m29s) 
CPU  0 inst:   75000001 cyc:   38259498 now IPC :2.11624: AVG IPC :1.95824: L2-Pf-HR :0.86576: L2-HR :0.86941: (Sim:0h22m49s) 
CPU  0 inst:   76000005 cyc:   38801806 now IPC :1.84398: AVG IPC :1.95660: L2-Pf-HR :0.86531: L2-HR :0.86900: (Sim:0h23m9s) 
CPU  0 inst:   77000004 cyc:   39414485 now IPC :1.63217: AVG IPC :1.95143: L2-Pf-HR :0.86468: L2-HR :0.86808: (Sim:0h23m30s) 
CPU  0 inst:   78000001 cyc:   39942008 now IPC :1.89565: AVG IPC :1.95067: L2-Pf-HR :0.86429: L2-HR :0.86783: (Sim:0h23m49s) 
CPU  0 inst:   79000000 cyc:   40427010 now IPC :2.06185: AVG IPC :1.95204: L2-Pf-HR :0.86447: L2-HR :0.86815: (Sim:0h24m8s) 
CPU  0 inst:   80000001 cyc:   40900094 now IPC :2.11379: AVG IPC :1.95396: L2-Pf-HR :0.86567: L2-HR :0.86921: (Sim:0h24m28s) 
CPU  0 inst:   81000001 cyc:   41441100 now IPC :1.84841: AVG IPC :1.95254: L2-Pf-HR :0.86538: L2-HR :0.86893: (Sim:0h24m48s) 
CPU  0 inst:   82000005 cyc:   42039362 now IPC :1.67152: AVG IPC :1.94845: L2-Pf-HR :0.86470: L2-HR :0.86815: (Sim:0h25m9s) 
CPU  0 inst:   83000001 cyc:   42571874 now IPC :1.87788: AVG IPC :1.94755: L2-Pf-HR :0.86423: L2-HR :0.86784: (Sim:0h25m30s) 
CPU  0 inst:   84000004 cyc:   43058203 now IPC :2.05623: AVG IPC :1.94880: L2-Pf-HR :0.86440: L2-HR :0.86814: (Sim:0h25m50s) 
CPU  0 inst:   85000001 cyc:   43535835 now IPC :2.09366: AVG IPC :1.95043: L2-Pf-HR :0.86541: L2-HR :0.86903: (Sim:0h26m10s) 
CPU  0 inst:   86000000 cyc:   44071332 now IPC :1.86742: AVG IPC :1.94940: L2-Pf-HR :0.86523: L2-HR :0.86884: (Sim:0h26m30s) 
CPU  0 inst:   87000005 cyc:   44654198 now IPC :1.71567: AVG IPC :1.94628: L2-Pf-HR :0.86481: L2-HR :0.86826: (Sim:0h26m51s) 
CPU  0 inst:   88000003 cyc:   45201109 now IPC :1.82845: AVG IPC :1.94482: L2-Pf-HR :0.86424: L2-HR :0.86780: (Sim:0h27m12s) 
CPU  0 inst:   89000002 cyc:   45684869 now IPC :2.06714: AVG IPC :1.94614: L2-Pf-HR :0.86433: L2-HR :0.86804: (Sim:0h27m32s) 
CPU  0 inst:   90000004 cyc:   46157372 now IPC :2.11639: AVG IPC :1.94792: L2-Pf-HR :0.86524: L2-HR :0.86887: (Sim:0h27m52s) 
CPU  0 inst:   91000000 cyc:   46695633 now IPC :1.85783: AVG IPC :1.94686: L2-Pf-HR :0.86529: L2-HR :0.86881: (Sim:0h28m12s) 
CPU  0 inst:   92000001 cyc:   47262917 now IPC :1.76279: AVG IPC :1.94461: L2-Pf-HR :0.86492: L2-HR :0.86828: (Sim:0h28m32s) 
CPU  0 inst:   93000003 cyc:   47811083 now IPC :1.82427: AVG IPC :1.94320: L2-Pf-HR :0.86431: L2-HR :0.86779: (Sim:0h28m53s) 
CPU  0 inst:   94000003 cyc:   48292986 now IPC :2.07511: AVG IPC :1.94454: L2-Pf-HR :0.86438: L2-HR :0.86798: (Sim:0h29m14s) 
CPU  0 inst:   95000004 cyc:   48772358 now IPC :2.08606: AVG IPC :1.94596: L2-Pf-HR :0.86515: L2-HR :0.86868: (Sim:0h29m34s) 
CPU  0 inst:   96000002 cyc:   49315448 now IPC :1.84131: AVG IPC :1.94479: L2-Pf-HR :0.86542: L2-HR :0.86879: (Sim:0h29m54s) 
CPU  0 inst:   97000001 cyc:   49857126 now IPC :1.84611: AVG IPC :1.94369: L2-Pf-HR :0.86501: L2-HR :0.86838: (Sim:0h30m14s) 
CPU  0 inst:   98000003 cyc:   50424673 now IPC :1.76197: AVG IPC :1.94161: L2-Pf-HR :0.86447: L2-HR :0.86783: (Sim:0h30m35s) 
CPU  0 inst:   99000005 cyc:   50906792 now IPC :2.07418: AVG IPC :1.94289: L2-Pf-HR :0.86445: L2-HR :0.86796: (Sim:0h30m55s) 
CPU  0 inst:  100000004 cyc:   51372680 now IPC :2.14644: AVG IPC :1.94477: L2-Pf-HR :0.86512: L2-HR :0.86861: (Sim:0h31m15s) 
CPU  0 inst:  101000000 cyc:   51898394 now IPC :1.90217: AVG IPC :1.94433: L2-Pf-HR :0.86556: L2-HR :0.86885: (Sim:0h31m36s) 
CPU  0 inst:  102000004 cyc:   52429519 now IPC :1.88280: AVG IPC :1.94369: L2-Pf-HR :0.86512: L2-HR :0.86853: (Sim:0h31m56s) 
CPU  0 inst:  103000003 cyc:   53037183 now IPC :1.64564: AVG IPC :1.94021: L2-Pf-HR :0.86452: L2-HR :0.86784: (Sim:0h32m17s) 
CPU  0 inst:  104000002 cyc:   53527068 now IPC :2.04129: AVG IPC :1.94116: L2-Pf-HR :0.86452: L2-HR :0.86798: (Sim:0h32m37s) 
CPU  0 inst:  105000005 cyc:   54006731 now IPC :2.08480: AVG IPC :1.94246: L2-Pf-HR :0.86504: L2-HR :0.86851: (Sim:0h32m58s) 
CPU  0 inst:  106000005 cyc:   54542468 now IPC :1.86659: AVG IPC :1.94170: L2-Pf-HR :0.86573: L2-HR :0.86891: (Sim:0h33m18s) 
CPU  0 inst:  107000000 cyc:   55018987 now IPC :2.09854: AVG IPC :1.94308: L2-Pf-HR :0.86553: L2-HR :0.86897: (Sim:0h33m38s) 
CPU  0 inst:  108000000 cyc:   55682917 now IPC :1.50618: AVG IPC :1.93778: L2-Pf-HR :0.86463: L2-HR :0.86785: (Sim:0h33m59s) 
CPU  0 inst:  109000003 cyc:   56170149 now IPC :2.05242: AVG IPC :1.93879: L2-Pf-HR :0.86465: L2-HR :0.86800: (Sim:0h34m20s) 
CPU  0 inst:  110000005 cyc:   56648309 now IPC :2.09135: AVG IPC :1.94010: L2-Pf-HR :0.86511: L2-HR :0.86848: (Sim:0h34m40s) 
CPU  0 inst:  111000003 cyc:   57175445 now IPC :1.89704: AVG IPC :1.93970: L2-Pf-HR :0.86587: L2-HR :0.86898: (Sim:0h35m0s) 
CPU  0 inst:  112000003 cyc:   57650991 now IPC :2.10285: AVG IPC :1.94107: L2-Pf-HR :0.86554: L2-HR :0.86890: (Sim:0h35m20s) 
CPU  0 inst:  113000002 cyc:   58299354 now IPC :1.54234: AVG IPC :1.93655: L2-Pf-HR :0.86480: L2-HR :0.86795: (Sim:0h35m41s) 
CPU  0 inst:  114000003 cyc:   58801279 now IPC :1.99233: AVG IPC :1.93704: L2-Pf-HR :0.86468: L2-HR :0.86796: (Sim:0h36m2s) 
CPU  0 inst:  115000004 cyc:   59282184 now IPC :2.07941: AVG IPC :1.93821: L2-Pf-HR :0.86498: L2-HR :0.86830: (Sim:0h36m22s) 
CPU  0 inst:  116000004 cyc:   59780381 now IPC :2.00724: AVG IPC :1.93880: L2-Pf-HR :0.86597: L2-HR :0.86901: (Sim:0h36m42s) 
CPU  0 inst:  117000000 cyc:   60270534 now IPC :2.04017: AVG IPC :1.93964: L2-Pf-HR :0.86546: L2-HR :0.86876: (Sim:0h37m2s) 
CPU  0 inst:  118000002 cyc:   60908232 now IPC :1.56814: AVG IPC :1.93568: L2-Pf-HR :0.86482: L2-HR :0.86793: (Sim:0h37m23s) 
CPU  0 inst:  119000000 cyc:   61402383 now IPC :2.02367: AVG IPC :1.93640: L2-Pf-HR :0.86468: L2-HR :0.86792: (Sim:0h37m43s) 
CPU  0 inst:  120000004 cyc:   61873324 now IPC :2.12342: AVG IPC :1.93785: L2-Pf-HR :0.86495: L2-HR :0.86825: (Sim:0h38m3s) 
CPU  0 inst:  121000004 cyc:   62353995 now IPC :2.08043: AVG IPC :1.93897: L2-Pf-HR :0.86605: L2-HR :0.86916: (Sim:0h38m23s) 
CPU  0 inst:  122000004 cyc:   62878310 now IPC :1.90725: AVG IPC :1.93870: L2-Pf-HR :0.86544: L2-HR :0.86870: (Sim:0h38m43s) 
CPU  0 inst:  123000001 cyc:   63506006 now IPC :1.59312: AVG IPC :1.93523: L2-Pf-HR :0.86495: L2-HR :0.86800: (Sim:0h39m5s) 
CPU  0 inst:  124000002 cyc:   64017905 now IPC :1.95351: AVG IPC :1.93538: L2-Pf-HR :0.86484: L2-HR :0.86797: (Sim:0h39m25s) 
CPU  0 inst:  125000004 cyc:   64491750 now IPC :2.11040: AVG IPC :1.93668: L2-Pf-HR :0.86498: L2-HR :0.86821: (Sim:0h39m45s) 
CPU  0 inst:  126000004 cyc:   64966208 now IPC :2.10767: AVG IPC :1.93795: L2-Pf-HR :0.86591: L2-HR :0.86899: (Sim:0h40m5s) 
CPU  0 inst:  127000000 cyc:   65505520 now IPC :1.85421: AVG IPC :1.93725: L2-Pf-HR :0.86549: L2-HR :0.86867: (Sim:0h40m26s) 
CPU  0 inst:  128000004 cyc:   66131115 now IPC :1.59848: AVG IPC :1.93400: L2-Pf-HR :0.86510: L2-HR :0.86806: (Sim:0h40m47s) 
CPU  0 inst:  129000002 cyc:   66645174 now IPC :1.94530: AVG IPC :1.93409: L2-Pf-HR :0.86492: L2-HR :0.86799: (Sim:0h41m7s) 
CPU  0 inst:  130000002 cyc:   67129983 now IPC :2.06267: AVG IPC :1.93503: L2-Pf-HR :0.86504: L2-HR :0.86819: (Sim:0h41m28s) 
CPU  0 inst:  131000003 cyc:   67597831 now IPC :2.13745: AVG IPC :1.93645: L2-Pf-HR :0.86583: L2-HR :0.86888: (Sim:0h41m47s) 
CPU  0 inst:  132000004 cyc:   68137601 now IPC :1.85264: AVG IPC :1.93578: L2-Pf-HR :0.86552: L2-HR :0.86864: (Sim:0h42m8s) 
CPU  0 inst:  133000005 cyc:   68739731 now IPC :1.66077: AVG IPC :1.93333: L2-Pf-HR :0.86509: L2-HR :0.86809: (Sim:0h42m28s) 
CPU  0 inst:  134000002 cyc:   69267091 now IPC :1.89623: AVG IPC :1.93305: L2-Pf-HR :0.86489: L2-HR :0.86798: (Sim:0h42m49s) 
CPU  0 inst:  135000001 cyc:   69749517 now IPC :2.07285: AVG IPC :1.93403: L2-Pf-HR :0.86498: L2-HR :0.86816: (Sim:0h43m9s) 
CPU  0 inst:  136000002 cyc:   70224708 now IPC :2.10442: AVG IPC :1.93520: L2-Pf-HR :0.86568: L2-HR :0.86877: (Sim:0h43m25s) 
CPU  0 inst:  137000003 cyc:   70757894 now IPC :1.87552: AVG IPC :1.93474: L2-Pf-HR :0.86551: L2-HR :0.86860: (Sim:0h43m34s) 
CPU  0 inst:  138000000 cyc:   71360219 now IPC :1.66023: AVG IPC :1.93239: L2-Pf-HR :0.86523: L2-HR :0.86816: (Sim:0h43m44s) 
CPU  0 inst:  139000005 cyc:   71894264 now IPC :1.87251: AVG IPC :1.93194: L2-Pf-HR :0.86491: L2-HR :0.86794: (Sim:0h43m54s) 
CPU  0 inst:  140000001 cyc:   72378736 now IPC :2.06409: AVG IPC :1.93284: L2-Pf-HR :0.86499: L2-HR :0.86811: (Sim:0h44m3s) 
CPU  0 inst:  141000003 cyc:   72850223 now IPC :2.12095: AVG IPC :1.93407: L2-Pf-HR :0.86562: L2-HR :0.86868: (Sim:0h44m13s) 
CPU  0 inst:  142000001 cyc:   73388668 now IPC :1.85720: AVG IPC :1.93350: L2-Pf-HR :0.86557: L2-HR :0.86861: (Sim:0h44m22s) 
CPU  0 inst:  143000000 cyc:   73975695 now IPC :1.70350: AVG IPC :1.93165: L2-Pf-HR :0.86531: L2-HR :0.86825: (Sim:0h44m32s) 
CPU  0 inst:  144000005 cyc:   74529450 now IPC :1.80586: AVG IPC :1.93070: L2-Pf-HR :0.86498: L2-HR :0.86798: (Sim:0h44m50s) 
CPU  0 inst:  145000000 cyc:   75014373 now IPC :2.06217: AVG IPC :1.93156: L2-Pf-HR :0.86503: L2-HR :0.86811: (Sim:0h45m11s) 
CPU  0 inst:  146000003 cyc:   75488923 now IPC :2.10727: AVG IPC :1.93268: L2-Pf-HR :0.86560: L2-HR :0.86863: (Sim:0h45m32s) 
CPU  0 inst:  147000005 cyc:   76033950 now IPC :1.83478: AVG IPC :1.93197: L2-Pf-HR :0.86566: L2-HR :0.86862: (Sim:0h45m53s) 
CPU  0 inst:  148000001 cyc:   76606403 now IPC :1.74686: AVG IPC :1.93057: L2-Pf-HR :0.86540: L2-HR :0.86828: (Sim:0h46m14s) 
CPU  0 inst:  149000005 cyc:   77159269 now IPC :1.80876: AVG IPC :1.92969: L2-Pf-HR :0.86508: L2-HR :0.86801: (Sim:0h46m35s) 
CPU  0 inst:  150000004 cyc:   77649279 now IPC :2.04077: AVG IPC :1.93040: L2-Pf-HR :0.86511: L2-HR :0.86812: (Sim:0h46m56s) 
CPU  0 inst:  151000000 cyc:   78124779 now IPC :2.10304: AVG IPC :1.93146: L2-Pf-HR :0.86557: L2-HR :0.86856: (Sim:0h47m15s) 
CPU  0 inst:  152000001 cyc:   78661976 now IPC :1.86152: AVG IPC :1.93098: L2-Pf-HR :0.86574: L2-HR :0.86862: (Sim:0h47m25s) 
CPU  0 inst:  153000000 cyc:   79213582 now IPC :1.81289: AVG IPC :1.93014: L2-Pf-HR :0.86551: L2-HR :0.86839: (Sim:0h47m35s) 
CPU  0 inst:  154000005 cyc:   79795151 now IPC :1.71950: AVG IPC :1.92859: L2-Pf-HR :0.86516: L2-HR :0.86801: (Sim:0h47m45s) 
CPU  0 inst:  155000003 cyc:   80280521 now IPC :2.06028: AVG IPC :1.92940: L2-Pf-HR :0.86517: L2-HR :0.86811: (Sim:0h47m54s) 
CPU  0 inst:  156000005 cyc:   80756925 now IPC :2.09906: AVG IPC :1.93041: L2-Pf-HR :0.86559: L2-HR :0.86852: (Sim:0h48m4s) 
CPU  0 inst:  157000000 cyc:   81293433 now IPC :1.86390: AVG IPC :1.92996: L2-Pf-HR :0.86586: L2-HR :0.86867: (Sim:0h48m13s) 
CPU  0 inst:  158000000 cyc:   81816689 now IPC :1.91111: AVG IPC :1.92984: L2-Pf-HR :0.86559: L2-HR :0.86847: (Sim:0h48m23s) 
CPU  0 inst:  159000003 cyc:   82409646 now IPC :1.68647: AVG IPC :1.92807: L2-Pf-HR :0.86520: L2-HR :0.86804: (Sim:0h48m33s) 
CPU  0 inst:  160000002 cyc:   82900317 now IPC :2.03802: AVG IPC :1.92873: L2-Pf-HR :0.86519: L2-HR :0.86812: (Sim:0h48m43s) 
CPU  0 inst:  161000000 cyc:   83378102 now IPC :2.09299: AVG IPC :1.92968: L2-Pf-HR :0.86551: L2-HR :0.86844: (Sim:0h48m53s) 
CPU  0 inst:  162000002 cyc:   83909569 now IPC :1.88159: AVG IPC :1.92937: L2-Pf-HR :0.86591: L2-HR :0.86870: (Sim:0h49m2s) 
CPU  0 inst:  163000004 cyc:   84383766 now IPC :2.10883: AVG IPC :1.93039: L2-Pf-HR :0.86577: L2-HR :0.86873: (Sim:0h49m11s) 
CPU  0 inst:  164000002 cyc:   88670600 now IPC :0.23327: AVG IPC :1.84743: L2-Pf-HR :0.85490: L2-HR :0.85443: (Sim:0h49m34s) 
CPU  0 inst:  165000004 cyc:   93665447 now IPC :0.20021: AVG IPC :1.75866: L2-Pf-HR :0.84364: L2-HR :0.84086: (Sim:0h49m59s) 
CPU  0 inst:  166000000 cyc:   98791907 now IPC :0.19507: AVG IPC :1.67671: L2-Pf-HR :0.83274: L2-HR :0.82844: (Sim:0h50m25s) 
CPU  0 inst:  167000002 cyc:  103923334 now IPC :0.19488: AVG IPC :1.60284: L2-Pf-HR :0.82220: L2-HR :0.81699: (Sim:0h50m51s) 
CPU  0 inst:  168000001 cyc:  108569560 now IPC :0.21523: AVG IPC :1.54292: L2-Pf-HR :0.81386: L2-HR :0.80831: (Sim:0h51m14s) 
CPU  0 inst:  169000000 cyc:  111705113 now IPC :0.31892: AVG IPC :1.50825: L2-Pf-HR :0.81244: L2-HR :0.80667: (Sim:0h51m31s) 
CPU  0 inst:  170000000 cyc:  114839467 now IPC :0.31905: AVG IPC :1.47552: L2-Pf-HR :0.81100: L2-HR :0.80502: (Sim:0h51m48s) 
CPU  0 inst:  171000000 cyc:  117974646 now IPC :0.31896: AVG IPC :1.44452: L2-Pf-HR :0.80956: L2-HR :0.80338: (Sim:0h52m5s) 
CPU  0 inst:  172000001 cyc:  121113382 now IPC :0.31860: AVG IPC :1.41511: L2-Pf-HR :0.80809: L2-HR :0.80174: (Sim:0h52m22s) 
CPU  0 inst:  173000003 cyc:  124248642 now IPC :0.31895: AVG IPC :1.38723: L2-Pf-HR :0.80662: L2-HR :0.80009: (Sim:0h52m59s) 
CPU  0 inst:  174000002 cyc:  127386078 now IPC :0.31873: AVG IPC :1.36071: L2-Pf-HR :0.80514: L2-HR :0.79846: (Sim:0h53m36s) 
CPU  0 inst:  175000001 cyc:  130521476 now IPC :0.31894: AVG IPC :1.33549: L2-Pf-HR :0.80366: L2-HR :0.79683: (Sim:0h54m12s) 
CPU  0 inst:  176000001 cyc:  133658459 now IPC :0.31878: AVG IPC :1.31145: L2-Pf-HR :0.80219: L2-HR :0.79522: (Sim:0h54m49s) 
CPU  0 inst:  177000000 cyc:  136793778 now IPC :0.31895: AVG IPC :1.28854: L2-Pf-HR :0.80074: L2-HR :0.79363: (Sim:0h55m26s) 
CPU  0 inst:  178000000 cyc:  139929737 now IPC :0.31888: AVG IPC :1.26665: L2-Pf-HR :0.79929: L2-HR :0.79204: (Sim:0h56m2s) 
CPU  0 inst:  179000000 cyc:  143067340 now IPC :0.31871: AVG IPC :1.24572: L2-Pf-HR :0.79784: L2-HR :0.79046: (Sim:0h56m38s) 
CPU  0 inst:  180000001 cyc:  146202754 now IPC :0.31894: AVG IPC :1.22571: L2-Pf-HR :0.79640: L2-HR :0.78890: (Sim:0h57m15s) 
CPU  0 inst:  181000003 cyc:  149339000 now IPC :0.31885: AVG IPC :1.20654: L2-Pf-HR :0.79497: L2-HR :0.78735: (Sim:0h57m52s) 
CPU  0 inst:  182000003 cyc:  152474244 now IPC :0.31895: AVG IPC :1.18817: L2-Pf-HR :0.79354: L2-HR :0.78582: (Sim:0h58m28s) 
CPU  0 inst:  183000002 cyc:  155611137 now IPC :0.31879: AVG IPC :1.17054: L2-Pf-HR :0.79213: L2-HR :0.78429: (Sim:0h59m4s) 
CPU  0 inst:  184000004 cyc:  158747395 now IPC :0.31885: AVG IPC :1.15360: L2-Pf-HR :0.79072: L2-HR :0.78278: (Sim:0h59m39s) 
CPU  0 inst:  185000000 cyc:  161881712 now IPC :0.31905: AVG IPC :1.13735: L2-Pf-HR :0.78933: L2-HR :0.78129: (Sim:1h0m14s) 
CPU  0 inst:  186000004 cyc:  165017699 now IPC :0.31888: AVG IPC :1.12170: L2-Pf-HR :0.78794: L2-HR :0.77980: (Sim:1h0m48s) 
CPU  0 inst:  187000000 cyc:  168152758 now IPC :0.31897: AVG IPC :1.10665: L2-Pf-HR :0.78657: L2-HR :0.77834: (Sim:1h1m22s) 
CPU  0 inst:  188000001 cyc:  171288818 now IPC :0.31887: AVG IPC :1.09214: L2-Pf-HR :0.78520: L2-HR :0.77687: (Sim:1h1m57s) 
CPU  0 inst:  189000003 cyc:  174424775 now IPC :0.31888: AVG IPC :1.07816: L2-Pf-HR :0.78383: L2-HR :0.77542: (Sim:1h2m32s) 
CPU  0 inst:  190000003 cyc:  177562824 now IPC :0.31867: AVG IPC :1.06466: L2-Pf-HR :0.78248: L2-HR :0.77399: (Sim:1h3m6s) 
CPU  0 inst:  191000002 cyc:  180697575 now IPC :0.31900: AVG IPC :1.05166: L2-Pf-HR :0.78113: L2-HR :0.77257: (Sim:1h3m41s) 
CPU  0 inst:  192000002 cyc:  183833032 now IPC :0.31893: AVG IPC :1.03909: L2-Pf-HR :0.77979: L2-HR :0.77116: (Sim:1h4m16s) 
CPU  0 inst:  193000001 cyc:  186971581 now IPC :0.31862: AVG IPC :1.02693: L2-Pf-HR :0.77847: L2-HR :0.76976: (Sim:1h4m50s) 
CPU  0 inst:  194000002 cyc:  190107068 now IPC :0.31893: AVG IPC :1.01520: L2-Pf-HR :0.77714: L2-HR :0.76836: (Sim:1h5m25s) 
CPU  0 inst:  195000001 cyc:  193241900 now IPC :0.31900: AVG IPC :1.00384: L2-Pf-HR :0.77582: L2-HR :0.76698: (Sim:1h6m0s) 
CPU  0 inst:  196000001 cyc:  196376641 now IPC :0.31901: AVG IPC :0.99286: L2-Pf-HR :0.77450: L2-HR :0.76561: (Sim:1h6m35s) 
CPU  0 inst:  197000003 cyc:  199512557 now IPC :0.31889: AVG IPC :0.98221: L2-Pf-HR :0.77320: L2-HR :0.76426: (Sim:1h7m8s) 
CPU  0 inst:  198000003 cyc:  202647953 now IPC :0.31894: AVG IPC :0.97190: L2-Pf-HR :0.77191: L2-HR :0.76291: (Sim:1h7m45s) 
CPU  0 inst:  199000002 cyc:  205783802 now IPC :0.31889: AVG IPC :0.96190: L2-Pf-HR :0.77060: L2-HR :0.76156: (Sim:1h8m21s) 
CPU  0 inst:  200000002 cyc:  208919241 now IPC :0.31893: AVG IPC :0.95221: L2-Pf-HR :0.76931: L2-HR :0.76023: (Sim:1h8m58s) 
CPU  0 inst:  201000001 cyc:  212055149 now IPC :0.31889: AVG IPC :0.94280: L2-Pf-HR :0.76803: L2-HR :0.75891: (Sim:1h9m34s) 
CPU  0 inst:  202000000 cyc:  215192209 now IPC :0.31877: AVG IPC :0.93366: L2-Pf-HR :0.76674: L2-HR :0.75759: (Sim:1h10m11s) 
CPU  0 inst:  203000004 cyc:  218327247 now IPC :0.31898: AVG IPC :0.92479: L2-Pf-HR :0.76547: L2-HR :0.75629: (Sim:1h10m47s) 
CPU  0 inst:  204000005 cyc:  221464074 now IPC :0.31879: AVG IPC :0.91617: L2-Pf-HR :0.76422: L2-HR :0.75500: (Sim:1h11m23s) 
CPU  0 inst:  205000002 cyc:  224599159 now IPC :0.31897: AVG IPC :0.90780: L2-Pf-HR :0.76298: L2-HR :0.75373: (Sim:1h12m0s) 
CPU  0 inst:  206000003 cyc:  227734253 now IPC :0.31897: AVG IPC :0.89966: L2-Pf-HR :0.76172: L2-HR :0.75246: (Sim:1h12m36s) 
CPU  0 inst:  207000002 cyc:  230871106 now IPC :0.31879: AVG IPC :0.89173: L2-Pf-HR :0.76048: L2-HR :0.75119: (Sim:1h13m12s) 
CPU  0 inst:  208000002 cyc:  234007273 now IPC :0.31886: AVG IPC :0.88402: L2-Pf-HR :0.75926: L2-HR :0.74995: (Sim:1h13m49s) 
CPU  0 inst:  209000001 cyc:  237142540 now IPC :0.31895: AVG IPC :0.87652: L2-Pf-HR :0.75804: L2-HR :0.74871: (Sim:1h14m25s) 
CPU  0 inst:  210000000 cyc:  240279210 now IPC :0.31881: AVG IPC :0.86921: L2-Pf-HR :0.75682: L2-HR :0.74747: (Sim:1h15m2s) 
CPU  0 inst:  211000000 cyc:  243415914 now IPC :0.31881: AVG IPC :0.86209: L2-Pf-HR :0.75560: L2-HR :0.74625: (Sim:1h15m38s) 
CPU  0 inst:  212000000 cyc:  246551219 now IPC :0.31895: AVG IPC :0.85515: L2-Pf-HR :0.75440: L2-HR :0.74504: (Sim:1h16m15s) 
CPU  0 inst:  213000002 cyc:  249687307 now IPC :0.31887: AVG IPC :0.84839: L2-Pf-HR :0.75320: L2-HR :0.74383: (Sim:1h16m52s) 
CPU  0 inst:  214000003 cyc:  252822239 now IPC :0.31899: AVG IPC :0.84180: L2-Pf-HR :0.75202: L2-HR :0.74265: (Sim:1h17m28s) 
CPU  0 inst:  215000000 cyc:  255956424 now IPC :0.31906: AVG IPC :0.83537: L2-Pf-HR :0.75085: L2-HR :0.74146: (Sim:1h18m4s) 
CPU  0 inst:  216000002 cyc:  259091071 now IPC :0.31902: AVG IPC :0.82910: L2-Pf-HR :0.74967: L2-HR :0.74029: (Sim:1h18m41s) 
CPU  0 inst:  217000001 cyc:  262227552 now IPC :0.31883: AVG IPC :0.82298: L2-Pf-HR :0.74850: L2-HR :0.73912: (Sim:1h19m17s) 
CPU  0 inst:  218000000 cyc:  265362809 now IPC :0.31895: AVG IPC :0.81700: L2-Pf-HR :0.74736: L2-HR :0.73798: (Sim:1h19m38s) 
CPU  0 inst:  219000000 cyc:  268498438 now IPC :0.31892: AVG IPC :0.81116: L2-Pf-HR :0.74622: L2-HR :0.73684: (Sim:1h19m54s) 
CPU  0 inst:  220000000 cyc:  271636235 now IPC :0.31869: AVG IPC :0.80545: L2-Pf-HR :0.74508: L2-HR :0.73570: (Sim:1h20m11s) 
CPU  0 inst:  221000001 cyc:  274771647 now IPC :0.31894: AVG IPC :0.79988: L2-Pf-HR :0.74394: L2-HR :0.73457: (Sim:1h20m28s) 
CPU  0 inst:  222000003 cyc:  277907877 now IPC :0.31885: AVG IPC :0.79443: L2-Pf-HR :0.74281: L2-HR :0.73345: (Sim:1h20m45s) 
CPU  0 inst:  223000002 cyc:  281044397 now IPC :0.31882: AVG IPC :0.78911: L2-Pf-HR :0.74170: L2-HR :0.73234: (Sim:1h21m2s) 
CPU  0 inst:  224000001 cyc:  284178683 now IPC :0.31905: AVG IPC :0.78390: L2-Pf-HR :0.74059: L2-HR :0.73124: (Sim:1h21m34s) 
CPU  0 inst:  225000004 cyc:  287314004 now IPC :0.31895: AVG IPC :0.77881: L2-Pf-HR :0.73948: L2-HR :0.73014: (Sim:1h22m11s) 
CPU  0 inst:  226000000 cyc:  290450401 now IPC :0.31884: AVG IPC :0.77383: L2-Pf-HR :0.73837: L2-HR :0.72905: (Sim:1h22m47s) 
CPU  0 inst:  227000000 cyc:  293586523 now IPC :0.31887: AVG IPC :0.76895: L2-Pf-HR :0.73728: L2-HR :0.72798: (Sim:1h23m24s) 
CPU  0 inst:  228000000 cyc:  296722230 now IPC :0.31891: AVG IPC :0.76418: L2-Pf-HR :0.73618: L2-HR :0.72690: (Sim:1h24m1s) 
CPU  0 inst:  229000001 cyc:  299860301 now IPC :0.31867: AVG IPC :0.75950: L2-Pf-HR :0.73509: L2-HR :0.72583: (Sim:1h24m37s) 
CPU  0 inst:  230000003 cyc:  302995397 now IPC :0.31897: AVG IPC :0.75493: L2-Pf-HR :0.73400: L2-HR :0.72477: (Sim:1h25m14s) 
CPU  0 inst:  231000003 cyc:  306131006 now IPC :0.31892: AVG IPC :0.75045: L2-Pf-HR :0.73293: L2-HR :0.72373: (Sim:1h25m50s) 
CPU  0 inst:  232000002 cyc:  309268312 now IPC :0.31874: AVG IPC :0.74606: L2-Pf-HR :0.73186: L2-HR :0.72268: (Sim:1h26m25s) 
CPU  0 inst:  233000004 cyc:  310302921 now IPC :0.96655: AVG IPC :0.74679: L2-Pf-HR :0.73131: L2-HR :0.72223: (Sim:1h26m50s) 
CPU  0 inst:  234000000 cyc:  310832749 now IPC :1.88740: AVG IPC :0.74875: L2-Pf-HR :0.73234: L2-HR :0.72300: (Sim:1h27m10s) 
CPU  0 inst:  235000004 cyc:  311389538 now IPC :1.79602: AVG IPC :0.75062: L2-Pf-HR :0.73297: L2-HR :0.72373: (Sim:1h27m30s) 
CPU  0 inst:  236000003 cyc:  311889618 now IPC :1.99968: AVG IPC :0.75263: L2-Pf-HR :0.73420: L2-HR :0.72466: (Sim:1h27m51s) 
CPU  0 inst:  237000000 cyc:  312368837 now IPC :2.08672: AVG IPC :0.75469: L2-Pf-HR :0.73552: L2-HR :0.72575: (Sim:1h28m11s) 
CPU  0 inst:  238000003 cyc:  313019766 now IPC :1.53627: AVG IPC :0.75632: L2-Pf-HR :0.73597: L2-HR :0.72630: (Sim:1h28m32s) 
CPU  0 inst:  239000000 cyc:  313482395 now IPC :2.16155: AVG IPC :0.75840: L2-Pf-HR :0.73701: L2-HR :0.72702: (Sim:1h28m52s) 
CPU  0 inst:  240000004 cyc:  314117904 now IPC :1.57355: AVG IPC :0.76005: L2-Pf-HR :0.73744: L2-HR :0.72766: (Sim:1h29m14s) 
CPU  0 inst:  241000000 cyc:  314558705 now IPC :2.26859: AVG IPC :0.76217: L2-Pf-HR :0.73862: L2-HR :0.72845: (Sim:1h29m33s) 
CPU  0 inst:  242000002 cyc:  315092512 now IPC :1.87334: AVG IPC :0.76406: L2-Pf-HR :0.73988: L2-HR :0.72959: (Sim:1h29m53s) 
CPU  0 inst:  243000001 cyc:  315558091 now IPC :2.14786: AVG IPC :0.76611: L2-Pf-HR :0.74118: L2-HR :0.73058: (Sim:1h30m13s) 
CPU  0 inst:  244000001 cyc:  316189546 now IPC :1.58364: AVG IPC :0.76775: L2-Pf-HR :0.74132: L2-HR :0.73084: (Sim:1h30m34s) 
CPU  0 inst:  245000002 cyc:  316722338 now IPC :1.87691: AVG IPC :0.76962: L2-Pf-HR :0.74234: L2-HR :0.73158: (Sim:1h30m55s) 
CPU  0 inst:  246000000 cyc:  317292224 now IPC :1.75473: AVG IPC :0.77139: L2-Pf-HR :0.74289: L2-HR :0.73225: (Sim:1h31m15s) 
CPU  0 inst:  247000004 cyc:  317797431 now IPC :1.97939: AVG IPC :0.77332: L2-Pf-HR :0.74402: L2-HR :0.73312: (Sim:1h31m36s) 
CPU  0 inst:  248000000 cyc:  318276904 now IPC :2.08561: AVG IPC :0.77530: L2-Pf-HR :0.74521: L2-HR :0.73410: (Sim:1h31m56s) 
CPU  0 inst:  249000001 cyc:  318921995 now IPC :1.55017: AVG IPC :0.77687: L2-Pf-HR :0.74575: L2-HR :0.73468: (Sim:1h32m17s) 
CPU  0 inst:  250000002 cyc:  319376012 now IPC :2.20256: AVG IPC :0.77891: L2-Pf-HR :0.74663: L2-HR :0.73528: (Sim:1h32m36s) 
CPU  0 inst:  251000005 cyc:  320027829 now IPC :1.53418: AVG IPC :0.78045: L2-Pf-HR :0.74700: L2-HR :0.73588: (Sim:1h32m58s) 
CPU  0 inst:  252000004 cyc:  320471652 now IPC :2.25315: AVG IPC :0.78250: L2-Pf-HR :0.74809: L2-HR :0.73662: (Sim:1h33m17s) 
CPU  0 inst:  253000000 cyc:  321013818 now IPC :1.84445: AVG IPC :0.78429: L2-Pf-HR :0.74922: L2-HR :0.73766: (Sim:1h33m38s) 
CPU  0 inst:  254000000 cyc:  321488326 now IPC :2.10745: AVG IPC :0.78625: L2-Pf-HR :0.75047: L2-HR :0.73858: (Sim:1h33m58s) 
CPU  0 inst:  255000001 cyc:  322111949 now IPC :1.60353: AVG IPC :0.78784: L2-Pf-HR :0.75062: L2-HR :0.73884: (Sim:1h34m20s) 
CPU  0 inst:  256000004 cyc:  322643524 now IPC :1.88121: AVG IPC :0.78965: L2-Pf-HR :0.75155: L2-HR :0.73953: (Sim:1h34m40s) 
CPU  0 inst:  257000002 cyc:  323204272 now IPC :1.78333: AVG IPC :0.79138: L2-Pf-HR :0.75195: L2-HR :0.74008: (Sim:1h35m1s) 
CPU  0 inst:  258000002 cyc:  323717097 now IPC :1.94998: AVG IPC :0.79322: L2-Pf-HR :0.75303: L2-HR :0.74089: (Sim:1h35m21s) 
CPU  0 inst:  259000003 cyc:  324191564 now IPC :2.10763: AVG IPC :0.79515: L2-Pf-HR :0.75409: L2-HR :0.74179: (Sim:1h35m41s) 
CPU  0 inst:  260000000 cyc:  324811348 now IPC :1.61346: AVG IPC :0.79671: L2-Pf-HR :0.75460: L2-HR :0.74233: (Sim:1h36m2s) 
CPU  0 inst:  261000002 cyc:  325264755 now IPC :2.20553: AVG IPC :0.79868: L2-Pf-HR :0.75537: L2-HR :0.74287: (Sim:1h36m21s) 
CPU  0 inst:  262000003 cyc:  325889002 now IPC :1.60193: AVG IPC :0.80023: L2-Pf-HR :0.75565: L2-HR :0.74338: (Sim:1h36m43s) 
CPU  0 inst:  263000002 cyc:  326327907 now IPC :2.27840: AVG IPC :0.80222: L2-Pf-HR :0.75665: L2-HR :0.74408: (Sim:1h37m2s) 
CPU  0 inst:  264000005 cyc:  326845783 now IPC :1.93097: AVG IPC :0.80401: L2-Pf-HR :0.75767: L2-HR :0.74500: (Sim:1h37m22s) 
CPU  0 inst:  265000002 cyc:  327314543 now IPC :2.13328: AVG IPC :0.80592: L2-Pf-HR :0.75884: L2-HR :0.74590: (Sim:1h37m42s) 
CPU  0 inst:  266000002 cyc:  327858160 now IPC :1.83953: AVG IPC :0.80764: L2-Pf-HR :0.75888: L2-HR :0.74610: (Sim:1h38m2s) 
CPU  0 inst:  267000002 cyc:  328351672 now IPC :2.02629: AVG IPC :0.80948: L2-Pf-HR :0.75976: L2-HR :0.74677: (Sim:1h38m22s) 
CPU  0 inst:  268000005 cyc:  328872393 now IPC :1.92042: AVG IPC :0.81124: L2-Pf-HR :0.76002: L2-HR :0.74722: (Sim:1h38m42s) 
CPU  0 inst:  269000004 cyc:  329349790 now IPC :2.09469: AVG IPC :0.81311: L2-Pf-HR :0.76096: L2-HR :0.74796: (Sim:1h39m2s) 
CPU  0 inst:  270000002 cyc:  329820053 now IPC :2.12647: AVG IPC :0.81499: L2-Pf-HR :0.76189: L2-HR :0.74879: (Sim:1h39m22s) 
CPU  0 inst:  271000002 cyc:  330395792 now IPC :1.73690: AVG IPC :0.81660: L2-Pf-HR :0.76228: L2-HR :0.74923: (Sim:1h39m43s) 
CPU  0 inst:  272000003 cyc:  330851915 now IPC :2.19239: AVG IPC :0.81850: L2-Pf-HR :0.76299: L2-HR :0.74975: (Sim:1h40m3s) 
CPU  0 inst:  273000004 cyc:  331378540 now IPC :1.89889: AVG IPC :0.82022: L2-Pf-HR :0.76342: L2-HR :0.75024: (Sim:1h40m23s) 
CPU  0 inst:  274000003 cyc:  331861519 now IPC :2.07048: AVG IPC :0.82205: L2-Pf-HR :0.76408: L2-HR :0.75082: (Sim:1h40m43s) 
CPU  0 inst:  275000000 cyc:  332344080 now IPC :2.07227: AVG IPC :0.82387: L2-Pf-HR :0.76490: L2-HR :0.75149: (Sim:1h41m3s) 
CPU  0 inst:  276000004 cyc:  332821481 now IPC :2.09468: AVG IPC :0.82570: L2-Pf-HR :0.76600: L2-HR :0.75244: (Sim:1h41m23s) 
CPU  0 inst:  277000003 cyc:  333401753 now IPC :1.72333: AVG IPC :0.82727: L2-Pf-HR :0.76614: L2-HR :0.75268: (Sim:1h41m44s) 
CPU  0 inst:  278000002 cyc:  333894447 now IPC :2.02966: AVG IPC :0.82904: L2-Pf-HR :0.76696: L2-HR :0.75330: (Sim:1h42m3s) 
CPU  0 inst:  279000002 cyc:  334394143 now IPC :2.00122: AVG IPC :0.83080: L2-Pf-HR :0.76715: L2-HR :0.75371: (Sim:1h42m23s) 
CPU  0 inst:  280000001 cyc:  334852405 now IPC :2.18216: AVG IPC :0.83266: L2-Pf-HR :0.76817: L2-HR :0.75443: (Sim:1h42m43s) 
CPU  0 inst:  281000000 cyc:  335341203 now IPC :2.04583: AVG IPC :0.83443: L2-Pf-HR :0.76890: L2-HR :0.75517: (Sim:1h43m3s) 
CPU  0 inst:  282000001 cyc:  335847943 now IPC :1.97340: AVG IPC :0.83615: L2-Pf-HR :0.76961: L2-HR :0.75575: (Sim:1h43m23s) 
CPU  0 inst:  283000001 cyc:  336353824 now IPC :1.97675: AVG IPC :0.83787: L2-Pf-HR :0.76994: L2-HR :0.75607: (Sim:1h43m43s) 
CPU  0 inst:  284000003 cyc:  336862088 now IPC :1.96749: AVG IPC :0.83958: L2-Pf-HR :0.77059: L2-HR :0.75661: (Sim:1h44m3s) 
CPU  0 inst:  285000004 cyc:  337370483 now IPC :1.96698: AVG IPC :0.84129: L2-Pf-HR :0.77098: L2-HR :0.75710: (Sim:1h44m23s) 
CPU  0 inst:  286000002 cyc:  337845124 now IPC :2.10685: AVG IPC :0.84307: L2-Pf-HR :0.77173: L2-HR :0.75773: (Sim:1h44m43s) 
CPU  0 inst:  287000000 cyc:  338318309 now IPC :2.11333: AVG IPC :0.84485: L2-Pf-HR :0.77267: L2-HR :0.75853: (Sim:1h45m3s) 
CPU  0 inst:  288000003 cyc:  338900048 now IPC :1.71899: AVG IPC :0.84636: L2-Pf-HR :0.77286: L2-HR :0.75881: (Sim:1h45m24s) 
CPU  0 inst:  289000000 cyc:  339361521 now IPC :2.16697: AVG IPC :0.84816: L2-Pf-HR :0.77369: L2-HR :0.75941: (Sim:1h45m43s) 
CPU  0 inst:  290000005 cyc:  339911570 now IPC :1.81803: AVG IPC :0.84973: L2-Pf-HR :0.77374: L2-HR :0.75972: (Sim:1h46m3s) 
CPU  0 inst:  291000001 cyc:  340360160 now IPC :2.22920: AVG IPC :0.85156: L2-Pf-HR :0.77460: L2-HR :0.76034: (Sim:1h46m23s) 
CPU  0 inst:  292000000 cyc:  340861304 now IPC :1.99543: AVG IPC :0.85324: L2-Pf-HR :0.77533: L2-HR :0.76107: (Sim:1h46m43s) 
CPU  0 inst:  293000000 cyc:  341325236 now IPC :2.15549: AVG IPC :0.85502: L2-Pf-HR :0.77620: L2-HR :0.76175: (Sim:1h47m3s) 
CPU  0 inst:  294000004 cyc:  341875706 now IPC :1.81664: AVG IPC :0.85657: L2-Pf-HR :0.77627: L2-HR :0.76188: (Sim:1h47m23s) 
CPU  0 inst:  295000000 cyc:  342364684 now IPC :2.04507: AVG IPC :0.85827: L2-Pf-HR :0.77689: L2-HR :0.76239: (Sim:1h47m43s) 
CPU  0 inst:  296000002 cyc:  342876290 now IPC :1.95463: AVG IPC :0.85991: L2-Pf-HR :0.77720: L2-HR :0.76283: (Sim:1h48m3s) 
CPU  0 inst:  297000003 cyc:  343357411 now IPC :2.07848: AVG IPC :0.86162: L2-Pf-HR :0.77796: L2-HR :0.76344: (Sim:1h48m23s) 
CPU  0 inst:  298000002 cyc:  343830776 now IPC :2.11253: AVG IPC :0.86335: L2-Pf-HR :0.77879: L2-HR :0.76417: (Sim:1h48m43s) 
CPU  0 inst:  299000003 cyc:  344441262 now IPC :1.63804: AVG IPC :0.86473: L2-Pf-HR :0.77895: L2-HR :0.76443: (Sim:1h49m5s) 
CPU  0 inst:  300000000 cyc:  344905651 now IPC :2.15336: AVG IPC :0.86647: L2-Pf-HR :0.77962: L2-HR :0.76492: (Sim:1h49m25s) 
CPU  0 inst:  301000001 cyc:  345452136 now IPC :1.82988: AVG IPC :0.86800: L2-Pf-HR :0.77970: L2-HR :0.76524: (Sim:1h49m46s) 
CPU  0 inst:  302000004 cyc:  345890688 now IPC :2.28024: AVG IPC :0.86979: L2-Pf-HR :0.78043: L2-HR :0.76577: (Sim:1h50m5s) 
CPU  0 inst:  303000004 cyc:  346398566 now IPC :1.96898: AVG IPC :0.87141: L2-Pf-HR :0.78117: L2-HR :0.76650: (Sim:1h50m25s) 
CPU  0 inst:  304000002 cyc:  346860667 now IPC :2.16402: AVG IPC :0.87314: L2-Pf-HR :0.78199: L2-HR :0.76714: (Sim:1h50m45s) 
CPU  0 inst:  305000002 cyc:  347412568 now IPC :1.81192: AVG IPC :0.87463: L2-Pf-HR :0.78197: L2-HR :0.76723: (Sim:1h51m6s) 
CPU  0 inst:  306000001 cyc:  347923513 now IPC :1.95716: AVG IPC :0.87623: L2-Pf-HR :0.78257: L2-HR :0.76772: (Sim:1h51m25s) 
CPU  0 inst:  307000005 cyc:  348429160 now IPC :1.97767: AVG IPC :0.87783: L2-Pf-HR :0.78283: L2-HR :0.76812: (Sim:1h51m46s) 
CPU  0 inst:  308000004 cyc:  348909227 now IPC :2.08304: AVG IPC :0.87949: L2-Pf-HR :0.78353: L2-HR :0.76870: (Sim:1h52m5s) 
CPU  0 inst:  309000003 cyc:  349378507 now IPC :2.13092: AVG IPC :0.88118: L2-Pf-HR :0.78431: L2-HR :0.76939: (Sim:1h52m26s) 
CPU  0 inst:  310000005 cyc:  349951163 now IPC :1.74625: AVG IPC :0.88260: L2-Pf-HR :0.78446: L2-HR :0.76965: (Sim:1h52m46s) 
CPU  0 inst:  311000002 cyc:  350397591 now IPC :2.24000: AVG IPC :0.88433: L2-Pf-HR :0.78502: L2-HR :0.77005: (Sim:1h53m5s) 
CPU  0 inst:  312000004 cyc:  350967341 now IPC :1.75516: AVG IPC :0.88575: L2-Pf-HR :0.78511: L2-HR :0.77038: (Sim:1h53m27s) 
CPU  0 inst:  313000001 cyc:  351408126 now IPC :2.26867: AVG IPC :0.88749: L2-Pf-HR :0.78577: L2-HR :0.77086: (Sim:1h53m46s) 
CPU  0 inst:  314000002 cyc:  351918373 now IPC :1.95984: AVG IPC :0.88905: L2-Pf-HR :0.78649: L2-HR :0.77157: (Sim:1h54m6s) 
CPU  0 inst:  315000001 cyc:  352381168 now IPC :2.16078: AVG IPC :0.89072: L2-Pf-HR :0.78731: L2-HR :0.77222: (Sim:1h54m26s) 
CPU  0 inst:  316000000 cyc:  352947847 now IPC :1.76467: AVG IPC :0.89213: L2-Pf-HR :0.78724: L2-HR :0.77227: (Sim:1h54m46s) 
CPU  0 inst:  317000005 cyc:  353444714 now IPC :2.01262: AVG IPC :0.89371: L2-Pf-HR :0.78781: L2-HR :0.77273: (Sim:1h55m6s) 
CPU  0 inst:  318000001 cyc:  353938779 now IPC :2.02402: AVG IPC :0.89529: L2-Pf-HR :0.78802: L2-HR :0.77309: (Sim:1h55m26s) 
CPU  0 inst:  319000005 cyc:  354413258 now IPC :2.10758: AVG IPC :0.89692: L2-Pf-HR :0.78869: L2-HR :0.77365: (Sim:1h55m45s) 
CPU  0 inst:  320000003 cyc:  354886280 now IPC :2.11406: AVG IPC :0.89855: L2-Pf-HR :0.78936: L2-HR :0.77424: (Sim:1h56m6s) 
CPU  0 inst:  321000000 cyc:  355471962 now IPC :1.70741: AVG IPC :0.89988: L2-Pf-HR :0.78951: L2-HR :0.77448: (Sim:1h56m26s) 
CPU  0 inst:  322000003 cyc:  355920119 now IPC :2.23137: AVG IPC :0.90156: L2-Pf-HR :0.79001: L2-HR :0.77486: (Sim:1h56m45s) 
CPU  0 inst:  323000000 cyc:  356485184 now IPC :1.76970: AVG IPC :0.90294: L2-Pf-HR :0.79012: L2-HR :0.77518: (Sim:1h57m7s) 
CPU  0 inst:  324000000 cyc:  356922950 now IPC :2.28433: AVG IPC :0.90464: L2-Pf-HR :0.79077: L2-HR :0.77565: (Sim:1h57m26s) 
CPU  0 inst:  325000002 cyc:  357438121 now IPC :1.94111: AVG IPC :0.90614: L2-Pf-HR :0.79142: L2-HR :0.77629: (Sim:1h57m46s) 
CPU  0 inst:  326000004 cyc:  357903871 now IPC :2.14708: AVG IPC :0.90776: L2-Pf-HR :0.79217: L2-HR :0.77689: (Sim:1h58m5s) 
CPU  0 inst:  327000004 cyc:  358475141 now IPC :1.75049: AVG IPC :0.90911: L2-Pf-HR :0.79209: L2-HR :0.77693: (Sim:1h58m26s) 
CPU  0 inst:  328000000 cyc:  358979432 now IPC :1.98297: AVG IPC :0.91062: L2-Pf-HR :0.79263: L2-HR :0.77737: (Sim:1h58m46s) 
CPU  0 inst:  329000004 cyc:  359475535 now IPC :2.01572: AVG IPC :0.91215: L2-Pf-HR :0.79277: L2-HR :0.77768: (Sim:1h59m7s) 
CPU  0 inst:  330000000 cyc:  359953899 now IPC :2.09045: AVG IPC :0.91372: L2-Pf-HR :0.79339: L2-HR :0.77819: (Sim:1h59m26s) 
CPU  0 inst:  331000003 cyc:  360421251 now IPC :2.13972: AVG IPC :0.91531: L2-Pf-HR :0.79402: L2-HR :0.77878: (Sim:1h59m46s) 
CPU  0 inst:  332000000 cyc:  360987536 now IPC :1.76589: AVG IPC :0.91665: L2-Pf-HR :0.79418: L2-HR :0.77901: (Sim:2h0m7s) 
CPU  0 inst:  333000004 cyc:  361437161 now IPC :2.22408: AVG IPC :0.91828: L2-Pf-HR :0.79461: L2-HR :0.77934: (Sim:2h0m26s) 
CPU  0 inst:  334000002 cyc:  361991148 now IPC :1.80509: AVG IPC :0.91964: L2-Pf-HR :0.79472: L2-HR :0.77961: (Sim:2h0m47s) 
CPU  0 inst:  335000001 cyc:  362442135 now IPC :2.21736: AVG IPC :0.92126: L2-Pf-HR :0.79523: L2-HR :0.78003: (Sim:2h1m3s) 
CPU  0 inst:  336000000 cyc:  362932331 now IPC :2.04000: AVG IPC :0.92278: L2-Pf-HR :0.79580: L2-HR :0.78054: (Sim:2h1m12s) 
CPU  0 inst:  337000000 cyc:  363401416 now IPC :2.13181: AVG IPC :0.92434: L2-Pf-HR :0.79652: L2-HR :0.78117: (Sim:2h1m27s) 
CPU  0 inst:  338000001 cyc:  363975489 now IPC :1.74194: AVG IPC :0.92563: L2-Pf-HR :0.79648: L2-HR :0.78125: (Sim:2h1m45s) 
CPU  0 inst:  339000000 cyc:  364478215 now IPC :1.98915: AVG IPC :0.92710: L2-Pf-HR :0.79703: L2-HR :0.78167: (Sim:2h1m55s) 
CPU  0 inst:  340000000 cyc:  364973691 now IPC :2.01826: AVG IPC :0.92859: L2-Pf-HR :0.79707: L2-HR :0.78190: (Sim:2h2m5s) 
CPU  0 inst:  341000000 cyc:  365433193 now IPC :2.17627: AVG IPC :0.93016: L2-Pf-HR :0.79774: L2-HR :0.78241: (Sim:2h2m14s) 
CPU  0 inst:  342000000 cyc:  365913174 now IPC :2.08342: AVG IPC :0.93168: L2-Pf-HR :0.79821: L2-HR :0.78291: (Sim:2h2m24s) 
CPU  0 inst:  343000003 cyc:  366438570 now IPC :1.90333: AVG IPC :0.93308: L2-Pf-HR :0.79853: L2-HR :0.78323: (Sim:2h2m33s) 
CPU  0 inst:  344000005 cyc:  366928954 now IPC :2.03922: AVG IPC :0.93456: L2-Pf-HR :0.79879: L2-HR :0.78346: (Sim:2h2m43s) 
CPU  0 inst:  345000004 cyc:  367448606 now IPC :1.92436: AVG IPC :0.93596: L2-Pf-HR :0.79916: L2-HR :0.78380: (Sim:2h2m53s) 
CPU  0 inst:  346000004 cyc:  367943290 now IPC :2.02149: AVG IPC :0.93743: L2-Pf-HR :0.79937: L2-HR :0.78411: (Sim:2h3m3s) 
CPU  0 inst:  347000001 cyc:  368422453 now IPC :2.08697: AVG IPC :0.93893: L2-Pf-HR :0.79986: L2-HR :0.78454: (Sim:2h3m18s) 
CPU  0 inst:  348000003 cyc:  368902246 now IPC :2.08424: AVG IPC :0.94042: L2-Pf-HR :0.80055: L2-HR :0.78514: (Sim:2h3m38s) 
CPU  0 inst:  349000001 cyc:  369491765 now IPC :1.69629: AVG IPC :0.94163: L2-Pf-HR :0.80051: L2-HR :0.78522: (Sim:2h3m59s) 
CPU  0 inst:  350000001 cyc:  369954965 now IPC :2.15889: AVG IPC :0.94316: L2-Pf-HR :0.80113: L2-HR :0.78569: (Sim:2h4m18s) 
CPU  0 inst:  351000002 cyc:  370486365 now IPC :1.88182: AVG IPC :0.94451: L2-Pf-HR :0.80103: L2-HR :0.78582: (Sim:2h4m38s) 
CPU  0 inst:  352000000 cyc:  370938484 now IPC :2.21180: AVG IPC :0.94605: L2-Pf-HR :0.80162: L2-HR :0.78626: (Sim:2h4m57s) 
CPU  0 inst:  353000001 cyc:  371437395 now IPC :2.00437: AVG IPC :0.94748: L2-Pf-HR :0.80208: L2-HR :0.78676: (Sim:2h5m17s) 
CPU  0 inst:  354000000 cyc:  371903648 now IPC :2.14476: AVG IPC :0.94899: L2-Pf-HR :0.80267: L2-HR :0.78724: (Sim:2h5m36s) 
CPU  0 inst:  355000001 cyc:  372454849 now IPC :1.81422: AVG IPC :0.95027: L2-Pf-HR :0.80261: L2-HR :0.78727: (Sim:2h5m57s) 
CPU  0 inst:  356000002 cyc:  372961373 now IPC :1.97424: AVG IPC :0.95166: L2-Pf-HR :0.80297: L2-HR :0.78759: (Sim:2h6m16s) 
CPU  0 inst:  357000001 cyc:  373474848 now IPC :1.94751: AVG IPC :0.95304: L2-Pf-HR :0.80311: L2-HR :0.78787: (Sim:2h6m36s) 
CPU  0 inst:  358000005 cyc:  373951686 now IPC :2.09716: AVG IPC :0.95450: L2-Pf-HR :0.80360: L2-HR :0.78829: (Sim:2h6m56s) 
CPU  0 inst:  359000003 cyc:  374424395 now IPC :2.11546: AVG IPC :0.95597: L2-Pf-HR :0.80423: L2-HR :0.78884: (Sim:2h7m15s) 
CPU  0 inst:  360000005 cyc:  375009728 now IPC :1.70843: AVG IPC :0.95715: L2-Pf-HR :0.80424: L2-HR :0.78895: (Sim:2h7m36s) 
CPU  0 inst:  361000000 cyc:  375466564 now IPC :2.18896: AVG IPC :0.95865: L2-Pf-HR :0.80473: L2-HR :0.78933: (Sim:2h7m55s) 
CPU  0 inst:  362000002 cyc:  376004255 now IPC :1.85981: AVG IPC :0.95994: L2-Pf-HR :0.80470: L2-HR :0.78951: (Sim:2h8m12s) 
CPU  0 inst:  363000003 cyc:  376445739 now IPC :2.26509: AVG IPC :0.96148: L2-Pf-HR :0.80522: L2-HR :0.78991: (Sim:2h8m21s) 
CPU  0 inst:  364000000 cyc:  376951632 now IPC :1.97670: AVG IPC :0.96284: L2-Pf-HR :0.80571: L2-HR :0.79042: (Sim:2h8m31s) 
CPU  0 inst:  365000004 cyc:  377412758 now IPC :2.16861: AVG IPC :0.96432: L2-Pf-HR :0.80629: L2-HR :0.79089: (Sim:2h8m41s) 
CPU  0 inst:  366000000 cyc:  377963634 now IPC :1.81528: AVG IPC :0.96556: L2-Pf-HR :0.80619: L2-HR :0.79090: (Sim:2h8m51s) 
CPU  0 inst:  367000003 cyc:  378466474 now IPC :1.98871: AVG IPC :0.96692: L2-Pf-HR :0.80657: L2-HR :0.79122: (Sim:2h9m8s) 
CPU  0 inst:  368000001 cyc:  378976461 now IPC :1.96083: AVG IPC :0.96827: L2-Pf-HR :0.80666: L2-HR :0.79145: (Sim:2h9m20s) 
CPU  0 inst:  369000000 cyc:  379456006 now IPC :2.08531: AVG IPC :0.96968: L2-Pf-HR :0.80713: L2-HR :0.79186: (Sim:2h9m30s) 
CPU  0 inst:  370000001 cyc:  379927764 now IPC :2.11973: AVG IPC :0.97111: L2-Pf-HR :0.80768: L2-HR :0.79236: (Sim:2h9m40s) 
CPU  0 inst:  371000001 cyc:  380512076 now IPC :1.71141: AVG IPC :0.97225: L2-Pf-HR :0.80772: L2-HR :0.79249: (Sim:2h9m50s) 
CPU  0 inst:  372000001 cyc:  380959989 now IPC :2.23258: AVG IPC :0.97374: L2-Pf-HR :0.80812: L2-HR :0.79280: (Sim:2h10m0s) 
CPU  0 inst:  373000005 cyc:  381525770 now IPC :1.76748: AVG IPC :0.97492: L2-Pf-HR :0.80811: L2-HR :0.79299: (Sim:2h10m19s) 
CPU  0 inst:  374000003 cyc:  381962933 now IPC :2.28747: AVG IPC :0.97642: L2-Pf-HR :0.80859: L2-HR :0.79334: (Sim:2h10m38s) 
CPU  0 inst:  375000000 cyc:  382475503 now IPC :1.95095: AVG IPC :0.97773: L2-Pf-HR :0.80912: L2-HR :0.79387: (Sim:2h10m55s) 
CPU  0 inst:  376000001 cyc:  382937526 now IPC :2.16440: AVG IPC :0.97917: L2-Pf-HR :0.80969: L2-HR :0.79435: (Sim:2h11m5s) 
CPU  0 inst:  377000001 cyc:  383506216 now IPC :1.75843: AVG IPC :0.98033: L2-Pf-HR :0.80956: L2-HR :0.79433: (Sim:2h11m15s) 
CPU  0 inst:  378000005 cyc:  384008155 now IPC :1.99228: AVG IPC :0.98165: L2-Pf-HR :0.80993: L2-HR :0.79463: (Sim:2h11m27s) 
CPU  0 inst:  379000002 cyc:  384503991 now IPC :2.01679: AVG IPC :0.98299: L2-Pf-HR :0.80998: L2-HR :0.79484: (Sim:2h11m37s) 
CPU  0 inst:  380000005 cyc:  384981227 now IPC :2.09541: AVG IPC :0.98437: L2-Pf-HR :0.81045: L2-HR :0.79524: (Sim:2h11m46s) 
CPU  0 inst:  381000003 cyc:  385448278 now IPC :2.14109: AVG IPC :0.98578: L2-Pf-HR :0.81094: L2-HR :0.79570: (Sim:2h11m56s) 
CPU  0 inst:  382000000 cyc:  386013565 now IPC :1.76901: AVG IPC :0.98693: L2-Pf-HR :0.81102: L2-HR :0.79584: (Sim:2h12m6s) 
CPU  0 inst:  383000001 cyc:  386461979 now IPC :2.23008: AVG IPC :0.98838: L2-Pf-HR :0.81136: L2-HR :0.79610: (Sim:2h12m16s) 
CPU  0 inst:  384000002 cyc:  387031646 now IPC :1.75541: AVG IPC :0.98951: L2-Pf-HR :0.81132: L2-HR :0.79626: (Sim:2h12m26s) 
CPU  0 inst:  385000001 cyc:  387471381 now IPC :2.27409: AVG IPC :0.99097: L2-Pf-HR :0.81179: L2-HR :0.79661: (Sim:2h12m35s) 
CPU  0 inst:  386000001 cyc:  387984045 now IPC :1.95060: AVG IPC :0.99224: L2-Pf-HR :0.81222: L2-HR :0.79707: (Sim:2h12m45s) 
CPU  0 inst:  387000002 cyc:  388449555 now IPC :2.14818: AVG IPC :0.99363: L2-Pf-HR :0.81280: L2-HR :0.79754: (Sim:2h12m55s) 
CPU  0 inst:  388000003 cyc:  389015589 now IPC :1.76668: AVG IPC :0.99476: L2-Pf-HR :0.81268: L2-HR :0.79752: (Sim:2h13m5s) 
CPU  0 inst:  389000005 cyc:  389515810 now IPC :1.99912: AVG IPC :0.99605: L2-Pf-HR :0.81306: L2-HR :0.79783: (Sim:2h13m24s) 
CPU  0 inst:  390000000 cyc:  390029494 now IPC :1.94671: AVG IPC :0.99731: L2-Pf-HR :0.81314: L2-HR :0.79804: (Sim:2h13m44s) 
CPU  0 inst:  391000005 cyc:  390509067 now IPC :2.08520: AVG IPC :0.99864: L2-Pf-HR :0.81358: L2-HR :0.79842: (Sim:2h13m55s) 
CPU  0 inst:  392000003 cyc:  390976022 now IPC :2.14153: AVG IPC :1.00001: L2-Pf-HR :0.81404: L2-HR :0.79885: (Sim:2h14m4s) 
CPU  0 inst:  393000000 cyc:  391552159 now IPC :1.73569: AVG IPC :1.00110: L2-Pf-HR :0.81411: L2-HR :0.79900: (Sim:2h14m14s) 
CPU  0 inst:  394000002 cyc:  392001204 now IPC :2.22695: AVG IPC :1.00251: L2-Pf-HR :0.81441: L2-HR :0.79924: (Sim:2h14m23s) 
CPU  0 inst:  395000000 cyc:  392561840 now IPC :1.78368: AVG IPC :1.00362: L2-Pf-HR :0.81440: L2-HR :0.79939: (Sim:2h14m33s) 
CPU  0 inst:  396000002 cyc:  393004013 now IPC :2.26156: AVG IPC :1.00504: L2-Pf-HR :0.81485: L2-HR :0.79974: (Sim:2h14m42s) 
CPU  0 inst:  397000005 cyc:  393496440 now IPC :2.03076: AVG IPC :1.00633: L2-Pf-HR :0.81527: L2-HR :0.80016: (Sim:2h14m51s) 
CPU  0 inst:  398000004 cyc:  393962140 now IPC :2.14730: AVG IPC :1.00768: L2-Pf-HR :0.81580: L2-HR :0.80060: (Sim:2h15m0s) 
CPU  0 inst:  399000002 cyc:  394517602 now IPC :1.80030: AVG IPC :1.00880: L2-Pf-HR :0.81567: L2-HR :0.80059: (Sim:2h15m10s) 
CPU  0 inst:  400000003 cyc:  395011191 now IPC :2.02598: AVG IPC :1.01008: L2-Pf-HR :0.81601: L2-HR :0.80088: (Sim:2h15m19s) 
CPU  0 inst:  401000004 cyc:  395525180 now IPC :1.94557: AVG IPC :1.01129: L2-Pf-HR :0.81605: L2-HR :0.80105: (Sim:2h15m29s) 
CPU  0 inst:  402000002 cyc:  395995142 now IPC :2.12783: AVG IPC :1.01262: L2-Pf-HR :0.81651: L2-HR :0.80142: (Sim:2h15m38s) 
CPU  0 inst:  403000003 cyc:  396474340 now IPC :2.08682: AVG IPC :1.01392: L2-Pf-HR :0.81692: L2-HR :0.80183: (Sim:2h15m58s) 
CPU  0 inst:  404000004 cyc:  397049532 now IPC :1.73855: AVG IPC :1.01498: L2-Pf-HR :0.81703: L2-HR :0.80198: (Sim:2h16m17s) 
CPU  0 inst:  405000000 cyc:  397511535 now IPC :2.16448: AVG IPC :1.01632: L2-Pf-HR :0.81728: L2-HR :0.80219: (Sim:2h16m36s) 
CPU  0 inst:  406000002 cyc:  398035994 now IPC :1.90673: AVG IPC :1.01749: L2-Pf-HR :0.81745: L2-HR :0.80240: (Sim:2h16m55s) 
Finished CPU 0 instr: 404000000 cyc: 397054922 AVG IPC: 1.01749 (Sim time: 2h16m55s)

ChampSim completed all CPUs

[ROI Statistics]
Core_0_instructions 404000000
Core_0_cycles 397054922
Core_0_IPC 1.01749

Core_0_branch_prediction_accuracy 98.90148
Core_0_branch_MPKI 0.32729
Core_0_average_ROB_occupancy_at_mispredict 534.65921

Core_0_L1D_total_access 177056229
Core_0_L1D_total_hit 168587551 L1D_total_Hit Ratio: 0.95217
Core_0_L1D_total_miss 8468678
Core_0_L1D_loads 96983279
Core_0_L1D_load_hit 94600560 L1D_load_Hit Ratio: 0.97543
Core_0_L1D_load_miss 2382719
Core_0_L1D_RFOs 11177744
Core_0_L1D_RFO_hit 10581918 L1D_RFO_Hit Ratio: 0.94670
Core_0_L1D_RFO_miss 595826
Core_0_L1D_prefetches 68895206
Core_0_L1D_prefetch_hit 63405073 L1D_prefetch_Hit Ratio: 0.92031
Core_0_L1D_prefetch_miss 5490133
Core_0_L1D_writebacks 0
Core_0_L1D_writeback_hit 0 L1D_writeback_Hit Ratio: -nan
Core_0_L1D_writeback_miss 0
Core_0_L1D_prefetch_requested 75711198
Core_0_L1D_prefetch_issued 75711198
Core_0_L1D_prefetch_useful 4704304 L1D_Useful Ratio: 0.06213
Core_0_L1D_prefetch_useless 814777
Core_0_L1D_prefetch_late 313502
Core_0_L1D_average_miss_latency 6430364.59415

Core_0_L1I_total_access 62223868
Core_0_L1I_total_hit 62221932 L1I_total_Hit Ratio: 0.99997
Core_0_L1I_total_miss 1936
Core_0_L1I_loads 62223868
Core_0_L1I_load_hit 62221932 L1I_load_Hit Ratio: 0.99997
Core_0_L1I_load_miss 1936
Core_0_L1I_RFOs 0
Core_0_L1I_RFO_hit 0 L1I_RFO_Hit Ratio: -nan
Core_0_L1I_RFO_miss 0
Core_0_L1I_prefetches 0
Core_0_L1I_prefetch_hit 0 L1I_prefetch_Hit Ratio: -nan
Core_0_L1I_prefetch_miss 0
Core_0_L1I_writebacks 0
Core_0_L1I_writeback_hit 0 L1I_writeback_Hit Ratio: -nan
Core_0_L1I_writeback_miss 0
Core_0_L1I_prefetch_requested 0
Core_0_L1I_prefetch_issued 0
Core_0_L1I_prefetch_useful 0 L1I_Useful Ratio: -nan
Core_0_L1I_prefetch_useless 0
Core_0_L1I_prefetch_late 0
Core_0_L1I_average_miss_latency 266.06663

Core_0_L2C_total_access 14929022
Core_0_L2C_total_hit 11979013 L2C_total_Hit Ratio: 0.80240
Core_0_L2C_total_miss 2950009
Core_0_L2C_loads 2071465
Core_0_L2C_load_hit 1368066 L2C_load_Hit Ratio: 0.66043
Core_0_L2C_load_miss 703399
Core_0_L2C_RFOs 595823
Core_0_L2C_RFO_hit 71084 L2C_RFO_Hit Ratio: 0.11930
Core_0_L2C_RFO_miss 524739
Core_0_L2C_prefetches 9432102
Core_0_L2C_prefetch_hit 7710237 L2C_prefetch_Hit Ratio: 0.81745
Core_0_L2C_prefetch_miss 1721865
Core_0_L2C_writebacks 2829632
Core_0_L2C_writeback_hit 2829626 L2C_writeback_Hit Ratio: 1.00000
Core_0_L2C_writeback_miss 6
Core_0_L2C_prefetch_requested 6070450
Core_0_L2C_prefetch_issued 4540249
Core_0_L2C_prefetch_useful 650708 L2C_Useful Ratio: 0.14332
Core_0_L2C_prefetch_useless 1064196
Core_0_L2C_prefetch_late 254368
Core_0_L2C_average_miss_latency 334.30445

Core_0_LLC_total_access 4601051
Core_0_LLC_total_hit 1647988 LLC_total_Hit Ratio: 0.35818
Core_0_LLC_total_miss 2953063
Core_0_LLC_loads 449123
Core_0_LLC_load_hit 4 LLC_load_Hit Ratio: 0.00001
Core_0_LLC_load_miss 449119
Core_0_LLC_RFOs 524738
Core_0_LLC_RFO_hit 9 LLC_RFO_Hit Ratio: 0.00002
Core_0_LLC_RFO_miss 524729
Core_0_LLC_prefetches 1976142
Core_0_LLC_prefetch_hit 1513 LLC_prefetch_Hit Ratio: 0.00077
Core_0_LLC_prefetch_miss 1974629
Core_0_LLC_writebacks 1651048
Core_0_LLC_writeback_hit 1646462 LLC_writeback_Hit Ratio: 0.99722
Core_0_LLC_writeback_miss 4586
Core_0_LLC_prefetch_requested 0
Core_0_LLC_prefetch_issued 0
Core_0_LLC_prefetch_useful 12 LLC_Useful Ratio: inf
Core_0_LLC_prefetch_useless 1887543
Core_0_LLC_prefetch_late 0
Core_0_LLC_average_miss_latency 322.17239

Core_0_major_page_fault 0
Core_0_minor_page_fault 22520

CPU 0 L1D berti prefetcher final stats
0-> Hits: 78, Late: 6, Early: 0, Misses: 0
1-> Hits: 2, Late: 1, Early: 0, Misses: 0
3-> Hits: 5, Late: 0, Early: 0, Misses: 0
4-> Hits: 2, Late: 0, Early: 0, Misses: 0
5-> Hits: 3, Late: 1, Early: 0, Misses: 0
6-> Hits: 1, Late: 0, Early: 0, Misses: 0
7-> Hits: 2, Late: 0, Early: 0, Misses: 0
8-> Hits: 0, Late: 1, Early: 0, Misses: 0
9-> Hits: 2, Late: 0, Early: 0, Misses: 0
a-> Hits: 0, Late: 2, Early: 0, Misses: 0
b-> Hits: 5, Late: 0, Early: 0, Misses: 0
e-> Hits: 8, Late: 1, Early: 0, Misses: 0
10-> Hits: 2, Late: 0, Early: 0, Misses: 0
11-> Hits: 0, Late: 1, Early: 0, Misses: 0
13-> Hits: 1, Late: 0, Early: 0, Misses: 0
14-> Hits: 2, Late: 0, Early: 0, Misses: 0
16-> Hits: 12, Late: 0, Early: 0, Misses: 0
17-> Hits: 3, Late: 0, Early: 0, Misses: 0
18-> Hits: 1, Late: 0, Early: 0, Misses: 0
1a-> Hits: 1046, Late: 2, Early: 0, Misses: 0
1b-> Hits: 1, Late: 0, Early: 0, Misses: 0
1c-> Hits: 70, Late: 1, Early: 0, Misses: 0
1d-> Hits: 3, Late: 1, Early: 0, Misses: 0
1e-> Hits: 3, Late: 0, Early: 0, Misses: 0
1f-> Hits: 1, Late: 0, Early: 0, Misses: 0
20-> Hits: 3, Late: 1, Early: 0, Misses: 0
21-> Hits: 827, Late: 0, Early: 0, Misses: 0
22-> Hits: 2, Late: 2, Early: 0, Misses: 0
24-> Hits: 8, Late: 0, Early: 0, Misses: 0
25-> Hits: 3, Late: 0, Early: 0, Misses: 0
27-> Hits: 183, Late: 0, Early: 0, Misses: 0
28-> Hits: 10, Late: 0, Early: 0, Misses: 0
2a-> Hits: 920, Late: 2, Early: 0, Misses: 0
2b-> Hits: 6, Late: 0, Early: 0, Misses: 0
2c-> Hits: 1, Late: 0, Early: 0, Misses: 0
2f-> Hits: 3, Late: 0, Early: 0, Misses: 0
30-> Hits: 7, Late: 2, Early: 0, Misses: 0
33-> Hits: 11, Late: 0, Early: 0, Misses: 0
34-> Hits: 11, Late: 0, Early: 0, Misses: 0
35-> Hits: 376, Late: 702, Early: 0, Misses: 0
36-> Hits: 2, Late: 0, Early: 0, Misses: 0
37-> Hits: 1, Late: 0, Early: 0, Misses: 0
38-> Hits: 4, Late: 0, Early: 0, Misses: 0
39-> Hits: 2, Late: 0, Early: 0, Misses: 0
3a-> Hits: 2, Late: 0, Early: 0, Misses: 0
3c-> Hits: 2, Late: 0, Early: 0, Misses: 0
3d-> Hits: 0, Late: 64, Early: 0, Misses: 0
3e-> Hits: 3, Late: 0, Early: 0, Misses: 0
3f-> Hits: 1, Late: 0, Early: 0, Misses: 0
40-> Hits: 2, Late: 2, Early: 0, Misses: 0
43-> Hits: 2, Late: 0, Early: 0, Misses: 0
44-> Hits: 3, Late: 0, Early: 0, Misses: 0
45-> Hits: 2, Late: 0, Early: 0, Misses: 0
46-> Hits: 2, Late: 0, Early: 0, Misses: 0
47-> Hits: 2, Late: 0, Early: 0, Misses: 0
48-> Hits: 69, Late: 0, Early: 0, Misses: 0
49-> Hits: 71, Late: 0, Early: 0, Misses: 0
4a-> Hits: 66, Late: 0, Early: 0, Misses: 0
4b-> Hits: 66, Late: 0, Early: 0, Misses: 0
4d-> Hits: 66, Late: 0, Early: 0, Misses: 0
4e-> Hits: 1, Late: 0, Early: 0, Misses: 0
4f-> Hits: 64, Late: 0, Early: 0, Misses: 0
50-> Hits: 8, Late: 2, Early: 0, Misses: 0
51-> Hits: 64, Late: 0, Early: 0, Misses: 0
52-> Hits: 64, Late: 0, Early: 0, Misses: 0
53-> Hits: 67, Late: 0, Early: 0, Misses: 0
54-> Hits: 3, Late: 0, Early: 0, Misses: 0
55-> Hits: 2, Late: 0, Early: 0, Misses: 0
56-> Hits: 1, Late: 0, Early: 0, Misses: 0
58-> Hits: 8, Late: 0, Early: 0, Misses: 0
5a-> Hits: 2, Late: 0, Early: 0, Misses: 0
5c-> Hits: 3, Late: 1, Early: 0, Misses: 0
5d-> Hits: 4, Late: 0, Early: 0, Misses: 0
61-> Hits: 3, Late: 0, Early: 0, Misses: 0
62-> Hits: 2, Late: 0, Early: 0, Misses: 0
63-> Hits: 0, Late: 2, Early: 0, Misses: 0
64-> Hits: 1081, Late: 2, Early: 0, Misses: 0
69-> Hits: 2, Late: 0, Early: 0, Misses: 0
6a-> Hits: 2, Late: 0, Early: 0, Misses: 0
6f-> Hits: 1, Late: 0, Early: 0, Misses: 0
70-> Hits: 2, Late: 1, Early: 0, Misses: 0
76-> Hits: 3, Late: 1, Early: 0, Misses: 0
77-> Hits: 2, Late: 0, Early: 0, Misses: 0
78-> Hits: 1105, Late: 0, Early: 0, Misses: 0
79-> Hits: 1, Late: 0, Early: 0, Misses: 0
7a-> Hits: 3, Late: 0, Early: 0, Misses: 0
7b-> Hits: 3, Late: 2, Early: 0, Misses: 0
7c-> Hits: 1, Late: 0, Early: 0, Misses: 0
7d-> Hits: 1, Late: 0, Early: 0, Misses: 0
7e-> Hits: 3, Late: 0, Early: 0, Misses: 0
7f-> Hits: 5, Late: 0, Early: 0, Misses: 0
80-> Hits: 91684, Late: 1812, Early: 0, Misses: 0
81-> Hits: 1, Late: 0, Early: 0, Misses: 0
82-> Hits: 2, Late: 0, Early: 0, Misses: 0
84-> Hits: 4, Late: 1, Early: 0, Misses: 0
86-> Hits: 1, Late: 0, Early: 0, Misses: 0
88-> Hits: 8828, Late: 987, Early: 0, Misses: 64
89-> Hits: 63, Late: 2, Early: 0, Misses: 0
8a-> Hits: 2, Late: 0, Early: 0, Misses: 0
8f-> Hits: 7, Late: 0, Early: 0, Misses: 0
90-> Hits: 0, Late: 1, Early: 0, Misses: 0
91-> Hits: 2, Late: 0, Early: 0, Misses: 0
92-> Hits: 97851, Late: 64, Early: 0, Misses: 0
94-> Hits: 1146, Late: 62, Early: 0, Misses: 0
95-> Hits: 1, Late: 0, Early: 0, Misses: 0
96-> Hits: 3, Late: 0, Early: 0, Misses: 0
98-> Hits: 3, Late: 0, Early: 0, Misses: 0
99-> Hits: 1, Late: 0, Early: 0, Misses: 0
9a-> Hits: 5, Late: 0, Early: 0, Misses: 0
9b-> Hits: 2, Late: 1, Early: 0, Misses: 0
9c-> Hits: 4864, Late: 0, Early: 0, Misses: 0
9d-> Hits: 2, Late: 0, Early: 0, Misses: 0
9e-> Hits: 2, Late: 0, Early: 0, Misses: 0
9f-> Hits: 4, Late: 0, Early: 0, Misses: 0
a0-> Hits: 6161, Late: 101, Early: 0, Misses: 0
a1-> Hits: 5, Late: 0, Early: 0, Misses: 0
a2-> Hits: 1, Late: 0, Early: 0, Misses: 0
a3-> Hits: 3, Late: 0, Early: 0, Misses: 0
a4-> Hits: 7, Late: 0, Early: 0, Misses: 0
a5-> Hits: 4, Late: 0, Early: 0, Misses: 0
a6-> Hits: 97842, Late: 55, Early: 0, Misses: 0
a7-> Hits: 4, Late: 0, Early: 0, Misses: 0
a8-> Hits: 3, Late: 0, Early: 0, Misses: 0
a9-> Hits: 4, Late: 0, Early: 0, Misses: 0
aa-> Hits: 3, Late: 0, Early: 0, Misses: 0
ab-> Hits: 5, Late: 0, Early: 0, Misses: 0
ac-> Hits: 5555, Late: 65, Early: 0, Misses: 32
ad-> Hits: 4, Late: 0, Early: 0, Misses: 0
ae-> Hits: 7, Late: 0, Early: 0, Misses: 0
af-> Hits: 3, Late: 63, Early: 0, Misses: 0
b0-> Hits: 14, Late: 7, Early: 0, Misses: 0
b1-> Hits: 1, Late: 1, Early: 0, Misses: 0
b3-> Hits: 6, Late: 0, Early: 0, Misses: 0
b4-> Hits: 4, Late: 0, Early: 0, Misses: 0
b6-> Hits: 83893, Late: 14160, Early: 0, Misses: 258
b7-> Hits: 8193, Late: 0, Early: 0, Misses: 0
b8-> Hits: 2, Late: 1, Early: 0, Misses: 0
ba-> Hits: 1, Late: 1, Early: 0, Misses: 0
bb-> Hits: 11836, Late: 86182, Early: 0, Misses: 288
bc-> Hits: 2, Late: 0, Early: 0, Misses: 0
bf-> Hits: 1, Late: 0, Early: 0, Misses: 0
c0-> Hits: 11, Late: 66, Early: 0, Misses: 0
c1-> Hits: 1, Late: 0, Early: 0, Misses: 0
c2-> Hits: 6, Late: 0, Early: 0, Misses: 1
c3-> Hits: 6, Late: 0, Early: 0, Misses: 0
c4-> Hits: 1072, Late: 125, Early: 0, Misses: 0
c5-> Hits: 1, Late: 0, Early: 0, Misses: 0
c6-> Hits: 817, Late: 0, Early: 0, Misses: 0
c7-> Hits: 5, Late: 0, Early: 0, Misses: 0
c8-> Hits: 10, Late: 0, Early: 0, Misses: 0
c9-> Hits: 1, Late: 0, Early: 0, Misses: 0
ca-> Hits: 1, Late: 0, Early: 0, Misses: 0
cb-> Hits: 84181, Late: 14960, Early: 0, Misses: 370
cc-> Hits: 1, Late: 0, Early: 0, Misses: 0
cf-> Hits: 1, Late: 0, Early: 0, Misses: 0
d0-> Hits: 7245, Late: 98497, Early: 0, Misses: 753
d1-> Hits: 4, Late: 0, Early: 0, Misses: 0
d2-> Hits: 6, Late: 0, Early: 0, Misses: 0
d3-> Hits: 729, Late: 476, Early: 0, Misses: 0
d4-> Hits: 1, Late: 0, Early: 0, Misses: 0
d5-> Hits: 2, Late: 0, Early: 0, Misses: 0
d6-> Hits: 1, Late: 1, Early: 0, Misses: 0
d7-> Hits: 1, Late: 0, Early: 0, Misses: 0
d8-> Hits: 1, Late: 0, Early: 0, Misses: 0
d9-> Hits: 10, Late: 0, Early: 0, Misses: 0
da-> Hits: 3186, Late: 4565, Early: 0, Misses: 441
db-> Hits: 2, Late: 0, Early: 0, Misses: 0
dd-> Hits: 2, Late: 0, Early: 0, Misses: 0
df-> Hits: 1, Late: 0, Early: 0, Misses: 0
e0-> Hits: 12, Late: 6, Early: 0, Misses: 0
e1-> Hits: 1, Late: 0, Early: 0, Misses: 0
e5-> Hits: 929, Late: 6808, Early: 0, Misses: 455
ea-> Hits: 2, Late: 0, Early: 0, Misses: 0
ef-> Hits: 4620, Late: 3183, Early: 0, Misses: 389
f3-> Hits: 1145, Late: 2, Early: 0, Misses: 0
f4-> Hits: 1, Late: 0, Early: 0, Misses: 0
f6-> Hits: 2, Late: 0, Early: 0, Misses: 0
f7-> Hits: 4, Late: 0, Early: 0, Misses: 0
f8-> Hits: 3, Late: 0, Early: 0, Misses: 0
f9-> Hits: 30, Late: 2, Early: 0, Misses: 0
fa-> Hits: 2, Late: 0, Early: 0, Misses: 0
fb-> Hits: 1147, Late: 0, Early: 0, Misses: 0
fc-> Hits: 1, Late: 0, Early: 0, Misses: 0
fd-> Hits: 2, Late: 0, Early: 0, Misses: 0
fe-> Hits: 1, Late: 0, Early: 0, Misses: 0
ff-> Hits: 4, Late: 0, Early: 0, Misses: 0
100-> Hits: 10, Late: 3, Early: 0, Misses: 0
101-> Hits: 1, Late: 0, Early: 0, Misses: 0
103-> Hits: 1, Late: 0, Early: 0, Misses: 0
104-> Hits: 0, Late: 1, Early: 0, Misses: 0
106-> Hits: 1, Late: 0, Early: 0, Misses: 0
107-> Hits: 1, Late: 0, Early: 0, Misses: 0
10a-> Hits: 1, Late: 0, Early: 0, Misses: 0
10b-> Hits: 3, Late: 0, Early: 0, Misses: 0
10d-> Hits: 3, Late: 0, Early: 0, Misses: 0
10e-> Hits: 1, Late: 0, Early: 0, Misses: 0
110-> Hits: 1, Late: 1, Early: 0, Misses: 0
112-> Hits: 12, Late: 1, Early: 0, Misses: 0
114-> Hits: 1, Late: 0, Early: 0, Misses: 0
115-> Hits: 275740, Late: 2251, Early: 0, Misses: 538
116-> Hits: 1, Late: 0, Early: 0, Misses: 0
117-> Hits: 3, Late: 0, Early: 0, Misses: 0
118-> Hits: 1, Late: 0, Early: 0, Misses: 0
11a-> Hits: 3, Late: 0, Early: 0, Misses: 0
11b-> Hits: 4, Late: 0, Early: 0, Misses: 0
11c-> Hits: 64000, Late: 80, Early: 0, Misses: 2
11d-> Hits: 1, Late: 0, Early: 0, Misses: 0
11e-> Hits: 2, Late: 0, Early: 0, Misses: 0
11f-> Hits: 170060, Late: 1042, Early: 0, Misses: 931
120-> Hits: 2, Late: 2, Early: 0, Misses: 0
121-> Hits: 1, Late: 0, Early: 0, Misses: 0
122-> Hits: 2, Late: 0, Early: 0, Misses: 0
123-> Hits: 1, Late: 0, Early: 0, Misses: 0
124-> Hits: 3, Late: 0, Early: 0, Misses: 0
125-> Hits: 1, Late: 0, Early: 0, Misses: 0
126-> Hits: 19061, Late: 8, Early: 0, Misses: 1
127-> Hits: 277983, Late: 55, Early: 0, Misses: 483
128-> Hits: 1191, Late: 11, Early: 0, Misses: 0
129-> Hits: 1, Late: 0, Early: 0, Misses: 0
12b-> Hits: 11, Late: 1, Early: 0, Misses: 0
12c-> Hits: 171764, Late: 270, Early: 0, Misses: 15
12d-> Hits: 2, Late: 0, Early: 0, Misses: 0
12e-> Hits: 33805, Late: 20, Early: 0, Misses: 0
12f-> Hits: 1, Late: 0, Early: 0, Misses: 0
130-> Hits: 3, Late: 1, Early: 0, Misses: 0
133-> Hits: 1, Late: 0, Early: 0, Misses: 0
134-> Hits: 0, Late: 1, Early: 0, Misses: 0
136-> Hits: 1, Late: 0, Early: 0, Misses: 0
137-> Hits: 1, Late: 0, Early: 0, Misses: 0
138-> Hits: 1, Late: 0, Early: 0, Misses: 0
139-> Hits: 34757, Late: 16, Early: 0, Misses: 30
13a-> Hits: 5, Late: 0, Early: 0, Misses: 0
13b-> Hits: 1, Late: 0, Early: 0, Misses: 0
13c-> Hits: 1, Late: 0, Early: 0, Misses: 0
13e-> Hits: 1, Late: 0, Early: 0, Misses: 0
13f-> Hits: 1, Late: 0, Early: 0, Misses: 0
140-> Hits: 1, Late: 3, Early: 0, Misses: 0
142-> Hits: 32028, Late: 22, Early: 0, Misses: 16
143-> Hits: 1, Late: 0, Early: 0, Misses: 0
144-> Hits: 84935, Late: 39, Early: 0, Misses: 32
145-> Hits: 1, Late: 0, Early: 0, Misses: 0
147-> Hits: 66, Late: 0, Early: 0, Misses: 0
148-> Hits: 2, Late: 0, Early: 0, Misses: 0
149-> Hits: 4, Late: 0, Early: 0, Misses: 0
14a-> Hits: 278529, Late: 0, Early: 0, Misses: 0
14d-> Hits: 0, Late: 1, Early: 0, Misses: 0
14f-> Hits: 65, Late: 0, Early: 0, Misses: 0
154-> Hits: 107338, Late: 32, Early: 0, Misses: 0
155-> Hits: 2, Late: 2, Early: 0, Misses: 0
156-> Hits: 0, Late: 1, Early: 0, Misses: 0
157-> Hits: 12433, Late: 27, Early: 0, Misses: 21
159-> Hits: 68, Late: 0, Early: 0, Misses: 0
15b-> Hits: 2, Late: 0, Early: 0, Misses: 0
15d-> Hits: 171746, Late: 287, Early: 0, Misses: 2
15f-> Hits: 43639, Late: 67, Early: 0, Misses: 0
160-> Hits: 1, Late: 0, Early: 0, Misses: 0
163-> Hits: 377, Late: 0, Early: 0, Misses: 0
164-> Hits: 1207, Late: 0, Early: 0, Misses: 0
165-> Hits: 2, Late: 0, Early: 0, Misses: 0
168-> Hits: 1, Late: 0, Early: 0, Misses: 0
169-> Hits: 172011, Late: 43, Early: 0, Misses: 0
16a-> Hits: 35647, Late: 31, Early: 0, Misses: 0
16b-> Hits: 66, Late: 0, Early: 0, Misses: 0
16d-> Hits: 128, Late: 0, Early: 0, Misses: 0
16e-> Hits: 3, Late: 1157, Early: 0, Misses: 29
16f-> Hits: 66, Late: 0, Early: 0, Misses: 0
171-> Hits: 64, Late: 0, Early: 0, Misses: 0
172-> Hits: 2, Late: 0, Early: 0, Misses: 0
173-> Hits: 171276, Late: 64, Early: 0, Misses: 0
175-> Hits: 34345, Late: 34, Early: 0, Misses: 0
176-> Hits: 65, Late: 0, Early: 0, Misses: 0
177-> Hits: 65, Late: 0, Early: 0, Misses: 0
178-> Hits: 1, Late: 0, Early: 0, Misses: 0
17a-> Hits: 0, Late: 1, Early: 0, Misses: 0
17b-> Hits: 63336, Late: 0, Early: 0, Misses: 0
17c-> Hits: 3712, Late: 223, Early: 0, Misses: 29
17d-> Hits: 2, Late: 0, Early: 0, Misses: 0
17e-> Hits: 2, Late: 0, Early: 0, Misses: 0
180-> Hits: 13, Late: 6, Early: 0, Misses: 0
181-> Hits: 142175, Late: 159, Early: 0, Misses: 52
184-> Hits: 30, Late: 0, Early: 0, Misses: 0
185-> Hits: 77675, Late: 32, Early: 0, Misses: 30
188-> Hits: 2, Late: 0, Early: 0, Misses: 0
189-> Hits: 3, Late: 0, Early: 0, Misses: 0
18b-> Hits: 278008, Late: 45, Early: 0, Misses: 477
18c-> Hits: 4, Late: 0, Early: 0, Misses: 0
18e-> Hits: 1, Late: 0, Early: 0, Misses: 0
18f-> Hits: 1, Late: 0, Early: 0, Misses: 0
190-> Hits: 10, Late: 1, Early: 0, Misses: 0
192-> Hits: 2, Late: 0, Early: 0, Misses: 0
194-> Hits: 14, Late: 239, Early: 0, Misses: 0
195-> Hits: 3, Late: 0, Early: 0, Misses: 0
196-> Hits: 5929, Late: 46, Early: 0, Misses: 0
197-> Hits: 128166, Late: 34, Early: 0, Misses: 32
198-> Hits: 5, Late: 0, Early: 0, Misses: 0
199-> Hits: 100, Late: 158, Early: 0, Misses: 0
19a-> Hits: 3, Late: 0, Early: 0, Misses: 0
19b-> Hits: 7, Late: 0, Early: 0, Misses: 0
19c-> Hits: 4, Late: 0, Early: 0, Misses: 0
19d-> Hits: 12, Late: 1, Early: 0, Misses: 0
19e-> Hits: 2, Late: 0, Early: 0, Misses: 0
19f-> Hits: 4, Late: 0, Early: 0, Misses: 0
1a0-> Hits: 4, Late: 0, Early: 0, Misses: 0
1a1-> Hits: 5, Late: 0, Early: 0, Misses: 0
1a2-> Hits: 40997, Late: 25, Early: 0, Misses: 0
1a4-> Hits: 7, Late: 1, Early: 0, Misses: 0
1a5-> Hits: 1, Late: 0, Early: 0, Misses: 0
1a6-> Hits: 1, Late: 0, Early: 0, Misses: 0
1a7-> Hits: 4, Late: 0, Early: 0, Misses: 0
1a8-> Hits: 2, Late: 0, Early: 0, Misses: 0
1a9-> Hits: 9, Late: 0, Early: 0, Misses: 0
1ab-> Hits: 15176, Late: 34, Early: 0, Misses: 16
1ad-> Hits: 47524, Late: 102, Early: 0, Misses: 17
1ae-> Hits: 6, Late: 0, Early: 0, Misses: 0
1af-> Hits: 7, Late: 0, Early: 0, Misses: 0
1b0-> Hits: 5, Late: 2, Early: 0, Misses: 0
1b1-> Hits: 171757, Late: 279, Early: 0, Misses: 4
1b2-> Hits: 1, Late: 0, Early: 0, Misses: 0
1b3-> Hits: 278531, Late: 0, Early: 0, Misses: 0
1b5-> Hits: 2, Late: 2, Early: 0, Misses: 0
1b6-> Hits: 2, Late: 1, Early: 0, Misses: 0
1b7-> Hits: 134, Late: 3, Early: 0, Misses: 0
1b8-> Hits: 3, Late: 2, Early: 0, Misses: 0
1b9-> Hits: 1, Late: 0, Early: 0, Misses: 0
1ba-> Hits: 3, Late: 0, Early: 0, Misses: 0
1bc-> Hits: 44095, Late: 27, Early: 0, Misses: 30
1bd-> Hits: 5, Late: 0, Early: 0, Misses: 0
1be-> Hits: 5, Late: 0, Early: 0, Misses: 0
1bf-> Hits: 7, Late: 0, Early: 0, Misses: 0
1c0-> Hits: 3, Late: 3, Early: 0, Misses: 0
1c2-> Hits: 14, Late: 97, Early: 0, Misses: 17
1c3-> Hits: 5, Late: 0, Early: 0, Misses: 0
1c4-> Hits: 3, Late: 0, Early: 0, Misses: 0
1c5-> Hits: 1, Late: 0, Early: 0, Misses: 0
1c6-> Hits: 4, Late: 0, Early: 0, Misses: 0
1c7-> Hits: 79804, Late: 98, Early: 0, Misses: 63
1c8-> Hits: 3, Late: 0, Early: 0, Misses: 0
1c9-> Hits: 1, Late: 0, Early: 0, Misses: 0
1ca-> Hits: 2, Late: 0, Early: 0, Misses: 0
1cc-> Hits: 1, Late: 2, Early: 0, Misses: 0
1cd-> Hits: 6, Late: 0, Early: 0, Misses: 0
1ce-> Hits: 3, Late: 0, Early: 0, Misses: 0
1d0-> Hits: 11, Late: 1, Early: 0, Misses: 0
1d2-> Hits: 216187, Late: 95, Early: 0, Misses: 0
1d4-> Hits: 1, Late: 0, Early: 0, Misses: 0
1d6-> Hits: 5, Late: 0, Early: 0, Misses: 0
1d7-> Hits: 1, Late: 0, Early: 0, Misses: 0
1d8-> Hits: 7, Late: 0, Early: 0, Misses: 0
1da-> Hits: 2, Late: 0, Early: 0, Misses: 0
1db-> Hits: 7, Late: 1, Early: 0, Misses: 0
1dc-> Hits: 4914, Late: 5, Early: 0, Misses: 0
1dd-> Hits: 277786, Late: 217, Early: 0, Misses: 32
1de-> Hits: 11, Late: 1, Early: 0, Misses: 0
1df-> Hits: 13, Late: 0, Early: 0, Misses: 0
1e0-> Hits: 9, Late: 2008, Early: 0, Misses: 0
1e1-> Hits: 8, Late: 1, Early: 0, Misses: 0
1e2-> Hits: 1, Late: 1, Early: 0, Misses: 0
1e3-> Hits: 82084, Late: 0, Early: 0, Misses: 0
1e4-> Hits: 1, Late: 0, Early: 0, Misses: 0
1e5-> Hits: 4, Late: 1, Early: 0, Misses: 0
1e6-> Hits: 171968, Late: 64, Early: 0, Misses: 0
1e8-> Hits: 0, Late: 1, Early: 0, Misses: 0
1ea-> Hits: 0, Late: 1, Early: 0, Misses: 0
1eb-> Hits: 5, Late: 0, Early: 0, Misses: 0
1ec-> Hits: 3, Late: 2007, Early: 0, Misses: 0
1ee-> Hits: 137961, Late: 103, Early: 0, Misses: 42
1ef-> Hits: 66, Late: 0, Early: 0, Misses: 0
1f0-> Hits: 300, Late: 613, Early: 0, Misses: 0
1f1-> Hits: 1, Late: 1, Early: 0, Misses: 0
1f2-> Hits: 1, Late: 0, Early: 0, Misses: 0
1f4-> Hits: 12, Late: 0, Early: 0, Misses: 0
1f6-> Hits: 1, Late: 0, Early: 0, Misses: 0
1f7-> Hits: 63, Late: 0, Early: 0, Misses: 0
1f8-> Hits: 5, Late: 0, Early: 0, Misses: 0
1f9-> Hits: 4, Late: 2007, Early: 0, Misses: 0
1fa-> Hits: 1, Late: 0, Early: 0, Misses: 0
1fc-> Hits: 65, Late: 0, Early: 0, Misses: 0
1fd-> Hits: 0, Late: 1, Early: 0, Misses: 0
1fe-> Hits: 171730, Late: 285, Early: 0, Misses: 28
200-> Hits: 1, Late: 0, Early: 0, Misses: 0
201-> Hits: 5, Late: 0, Early: 0, Misses: 0
202-> Hits: 1, Late: 0, Early: 0, Misses: 0
203-> Hits: 14, Late: 40, Early: 0, Misses: 0
205-> Hits: 5, Late: 0, Early: 0, Misses: 0
206-> Hits: 4, Late: 2009, Early: 0, Misses: 0
207-> Hits: 10, Late: 0, Early: 0, Misses: 0
208-> Hits: 262, Late: 599, Early: 0, Misses: 0
20a-> Hits: 25933, Late: 5, Early: 0, Misses: 11
20c-> Hits: 5, Late: 0, Early: 0, Misses: 0
20e-> Hits: 6, Late: 0, Early: 0, Misses: 0
20f-> Hits: 14, Late: 2, Early: 0, Misses: 0
210-> Hits: 8243, Late: 3, Early: 0, Misses: 0
212-> Hits: 5, Late: 0, Early: 0, Misses: 0
213-> Hits: 1, Late: 2007, Early: 0, Misses: 0
214-> Hits: 18, Late: 142, Early: 0, Misses: 0
216-> Hits: 3, Late: 0, Early: 0, Misses: 0
217-> Hits: 12, Late: 1, Early: 0, Misses: 0
218-> Hits: 3, Late: 0, Early: 0, Misses: 0
219-> Hits: 0, Late: 1, Early: 0, Misses: 0
21a-> Hits: 8, Late: 1, Early: 0, Misses: 0
21d-> Hits: 2, Late: 0, Early: 0, Misses: 0
21e-> Hits: 0, Late: 2008, Early: 0, Misses: 0
21f-> Hits: 10311, Late: 4, Early: 0, Misses: 17
220-> Hits: 5, Late: 4, Early: 0, Misses: 0
221-> Hits: 4, Late: 1, Early: 0, Misses: 0
224-> Hits: 2, Late: 1, Early: 0, Misses: 0
225-> Hits: 7, Late: 1, Early: 0, Misses: 0
226-> Hits: 1, Late: 0, Early: 0, Misses: 0
227-> Hits: 0, Late: 1, Early: 0, Misses: 0
228-> Hits: 1, Late: 0, Early: 0, Misses: 0
22a-> Hits: 4, Late: 0, Early: 0, Misses: 0
22b-> Hits: 7, Late: 2009, Early: 0, Misses: 0
22c-> Hits: 5, Late: 0, Early: 0, Misses: 0
22d-> Hits: 3, Late: 0, Early: 0, Misses: 0
22e-> Hits: 1, Late: 0, Early: 0, Misses: 0
22f-> Hits: 3, Late: 0, Early: 0, Misses: 0
230-> Hits: 4, Late: 1, Early: 0, Misses: 0
231-> Hits: 7, Late: 0, Early: 0, Misses: 0
232-> Hits: 4, Late: 0, Early: 0, Misses: 0
233-> Hits: 4, Late: 0, Early: 0, Misses: 0
234-> Hits: 20608, Late: 10, Early: 0, Misses: 13
235-> Hits: 2, Late: 0, Early: 0, Misses: 0
236-> Hits: 1, Late: 0, Early: 0, Misses: 0
238-> Hits: 0, Late: 2008, Early: 0, Misses: 0
23a-> Hits: 171706, Late: 313, Early: 0, Misses: 25
23b-> Hits: 3, Late: 0, Early: 0, Misses: 0
23c-> Hits: 3, Late: 0, Early: 0, Misses: 0
23d-> Hits: 256, Late: 0, Early: 0, Misses: 0
23e-> Hits: 6, Late: 0, Early: 0, Misses: 0
23f-> Hits: 6, Late: 0, Early: 0, Misses: 0
240-> Hits: 10, Late: 6, Early: 0, Misses: 0
241-> Hits: 2, Late: 0, Early: 0, Misses: 0
245-> Hits: 5, Late: 0, Early: 0, Misses: 0
246-> Hits: 113408, Late: 34, Early: 0, Misses: 0
247-> Hits: 0, Late: 0, Early: 0, Misses: 1
248-> Hits: 4, Late: 0, Early: 0, Misses: 0
249-> Hits: 2, Late: 0, Early: 0, Misses: 0
24a-> Hits: 1, Late: 1, Early: 0, Misses: 0
24b-> Hits: 1, Late: 0, Early: 0, Misses: 0
24d-> Hits: 2, Late: 0, Early: 0, Misses: 0
24e-> Hits: 1, Late: 0, Early: 0, Misses: 0
24f-> Hits: 5, Late: 1, Early: 0, Misses: 0
250-> Hits: 4, Late: 1, Early: 0, Misses: 0
251-> Hits: 4, Late: 0, Early: 0, Misses: 0
252-> Hits: 4, Late: 1, Early: 0, Misses: 0
253-> Hits: 171073, Late: 32, Early: 0, Misses: 0
254-> Hits: 4, Late: 0, Early: 0, Misses: 0
255-> Hits: 4, Late: 1, Early: 0, Misses: 0
256-> Hits: 3, Late: 0, Early: 0, Misses: 0
258-> Hits: 4, Late: 0, Early: 0, Misses: 0
25a-> Hits: 3, Late: 0, Early: 0, Misses: 0
25c-> Hits: 3, Late: 0, Early: 0, Misses: 0
25d-> Hits: 1, Late: 0, Early: 0, Misses: 0
25e-> Hits: 1, Late: 0, Early: 0, Misses: 0
25f-> Hits: 1, Late: 2, Early: 0, Misses: 0
260-> Hits: 13327, Late: 3, Early: 0, Misses: 0
261-> Hits: 1, Late: 0, Early: 0, Misses: 0
262-> Hits: 2, Late: 0, Early: 0, Misses: 0
263-> Hits: 10, Late: 0, Early: 0, Misses: 0
264-> Hits: 2, Late: 0, Early: 0, Misses: 0
265-> Hits: 3, Late: 0, Early: 0, Misses: 0
266-> Hits: 4, Late: 0, Early: 0, Misses: 0
267-> Hits: 5, Late: 1, Early: 0, Misses: 0
268-> Hits: 161275, Late: 434, Early: 0, Misses: 35
269-> Hits: 1, Late: 0, Early: 0, Misses: 0
26a-> Hits: 1, Late: 0, Early: 0, Misses: 0
26b-> Hits: 1, Late: 0, Early: 0, Misses: 0
26d-> Hits: 64, Late: 0, Early: 0, Misses: 0
26e-> Hits: 252, Late: 0, Early: 0, Misses: 0
270-> Hits: 16, Late: 2, Early: 0, Misses: 0
271-> Hits: 1, Late: 0, Early: 0, Misses: 0
274-> Hits: 1, Late: 0, Early: 0, Misses: 0
275-> Hits: 64, Late: 0, Early: 0, Misses: 0
276-> Hits: 8000, Late: 193, Early: 0, Misses: 0
278-> Hits: 1, Late: 0, Early: 0, Misses: 0
27a-> Hits: 64, Late: 0, Early: 0, Misses: 0
27b-> Hits: 5, Late: 0, Early: 0, Misses: 0
27c-> Hits: 2, Late: 0, Early: 0, Misses: 0
27d-> Hits: 14233, Late: 5, Early: 0, Misses: 5
27e-> Hits: 6, Late: 0, Early: 0, Misses: 0
27f-> Hits: 64, Late: 0, Early: 0, Misses: 0
280-> Hits: 0, Late: 2, Early: 0, Misses: 0
281-> Hits: 1, Late: 0, Early: 0, Misses: 0
282-> Hits: 8058, Late: 126, Early: 0, Misses: 15
283-> Hits: 171742, Late: 281, Early: 0, Misses: 9
284-> Hits: 4, Late: 0, Early: 0, Misses: 0
285-> Hits: 13, Late: 1, Early: 0, Misses: 0
289-> Hits: 0, Late: 1, Early: 0, Misses: 0
28a-> Hits: 2, Late: 0, Early: 0, Misses: 0
28f-> Hits: 10, Late: 0, Early: 0, Misses: 0
290-> Hits: 1, Late: 0, Early: 0, Misses: 0
291-> Hits: 1, Late: 0, Early: 0, Misses: 0
293-> Hits: 1, Late: 0, Early: 0, Misses: 0
297-> Hits: 1, Late: 0, Early: 0, Misses: 0
298-> Hits: 1, Late: 0, Early: 0, Misses: 0
299-> Hits: 11652, Late: 42, Early: 0, Misses: 62
29a-> Hits: 1, Late: 0, Early: 0, Misses: 0
29d-> Hits: 11, Late: 2, Early: 0, Misses: 0
29e-> Hits: 2, Late: 0, Early: 0, Misses: 0
29f-> Hits: 11, Late: 0, Early: 0, Misses: 0
2a0-> Hits: 2, Late: 1, Early: 0, Misses: 0
2a1-> Hits: 2, Late: 0, Early: 0, Misses: 0
2a2-> Hits: 30, Late: 0, Early: 0, Misses: 0
2a4-> Hits: 4, Late: 0, Early: 0, Misses: 0
2a5-> Hits: 1, Late: 0, Early: 0, Misses: 0
2a6-> Hits: 3, Late: 0, Early: 0, Misses: 0
2a7-> Hits: 5, Late: 0, Early: 0, Misses: 0
2a8-> Hits: 1, Late: 0, Early: 0, Misses: 0
2a9-> Hits: 7, Late: 0, Early: 0, Misses: 0
2aa-> Hits: 5, Late: 0, Early: 0, Misses: 0
2ad-> Hits: 1, Late: 1, Early: 0, Misses: 0
2ae-> Hits: 20409, Late: 24, Early: 0, Misses: 0
2af-> Hits: 1, Late: 1, Early: 0, Misses: 0
2b1-> Hits: 1, Late: 1, Early: 0, Misses: 0
2b3-> Hits: 1, Late: 1, Early: 0, Misses: 0
2b6-> Hits: 1, Late: 1, Early: 0, Misses: 0
2b7-> Hits: 0, Late: 1, Early: 0, Misses: 0
2bd-> Hits: 172379, Late: 34, Early: 0, Misses: 0
2c0-> Hits: 423, Late: 176, Early: 0, Misses: 0
2c1-> Hits: 1, Late: 1, Early: 0, Misses: 0
2c3-> Hits: 1, Late: 0, Early: 0, Misses: 0
2c5-> Hits: 497, Late: 101, Early: 0, Misses: 0
2c6-> Hits: 3, Late: 0, Early: 0, Misses: 0
2c7-> Hits: 2, Late: 0, Early: 0, Misses: 0
2c8-> Hits: 2, Late: 0, Early: 0, Misses: 0
2c9-> Hits: 7, Late: 1, Early: 0, Misses: 0
2ca-> Hits: 5790, Late: 317, Early: 0, Misses: 0
2cc-> Hits: 2, Late: 1, Early: 0, Misses: 0
2cd-> Hits: 1, Late: 2, Early: 0, Misses: 0
2d0-> Hits: 369, Late: 216, Early: 0, Misses: 0
2d1-> Hits: 1, Late: 1, Early: 0, Misses: 0
2d3-> Hits: 1, Late: 0, Early: 0, Misses: 0
2d6-> Hits: 2, Late: 1, Early: 0, Misses: 0
2d7-> Hits: 171999, Late: 32, Early: 0, Misses: 0
2d8-> Hits: 1, Late: 0, Early: 0, Misses: 0
2da-> Hits: 2, Late: 0, Early: 0, Misses: 0
2db-> Hits: 3, Late: 0, Early: 0, Misses: 0
2dc-> Hits: 4, Late: 0, Early: 0, Misses: 0
2de-> Hits: 2, Late: 0, Early: 0, Misses: 0
2df-> Hits: 10, Late: 2, Early: 0, Misses: 0
2e0-> Hits: 361, Late: 231, Early: 0, Misses: 0
2e2-> Hits: 23, Late: 0, Early: 0, Misses: 0
2e4-> Hits: 2, Late: 0, Early: 0, Misses: 0
2e5-> Hits: 469, Late: 113, Early: 0, Misses: 0
[...]
d99-> Hits: 5, Late: 0, Early: 0, Misses: 0
d9f-> Hits: 1, Late: 0, Early: 0, Misses: 0
da0-> Hits: 7, Late: 1, Early: 0, Misses: 0
da1-> Hits: 28, Late: 4009, Early: 0, Misses: 0
da2-> Hits: 7, Late: 2, Early: 0, Misses: 0
da3-> Hits: 2, Late: 0, Early: 0, Misses: 0
da5-> Hits: 5, Late: 0, Early: 0, Misses: 0
da6-> Hits: 14, Late: 6, Early: 0, Misses: 0
da7-> Hits: 3, Late: 0, Early: 0, Misses: 0
da8-> Hits: 2, Late: 0, Early: 0, Misses: 0
da9-> Hits: 1, Late: 0, Early: 0, Misses: 0
daa-> Hits: 1, Late: 0, Early: 0, Misses: 0
dab-> Hits: 3, Late: 0, Early: 0, Misses: 0
dac-> Hits: 6, Late: 0, Early: 0, Misses: 0
dad-> Hits: 14, Late: 0, Early: 0, Misses: 0
dae-> Hits: 1, Late: 0, Early: 0, Misses: 0
daf-> Hits: 4, Late: 0, Early: 0, Misses: 0
db0-> Hits: 6, Late: 4, Early: 0, Misses: 0
db1-> Hits: 46, Late: 5964, Early: 0, Misses: 0
db3-> Hits: 1, Late: 1, Early: 0, Misses: 0
db4-> Hits: 1, Late: 0, Early: 0, Misses: 0
db5-> Hits: 3, Late: 0, Early: 0, Misses: 0
db6-> Hits: 62, Late: 2, Early: 0, Misses: 0
db7-> Hits: 3, Late: 0, Early: 0, Misses: 0
db8-> Hits: 3, Late: 0, Early: 0, Misses: 0
db9-> Hits: 2, Late: 0, Early: 0, Misses: 0
dba-> Hits: 9, Late: 0, Early: 0, Misses: 0
dbb-> Hits: 2, Late: 0, Early: 0, Misses: 0
dbc-> Hits: 1, Late: 0, Early: 0, Misses: 0
dbd-> Hits: 1, Late: 0, Early: 0, Misses: 0
dbe-> Hits: 5, Late: 0, Early: 0, Misses: 0
dbf-> Hits: 8, Late: 0, Early: 0, Misses: 0
dc0-> Hits: 17, Late: 5, Early: 0, Misses: 0
dc1-> Hits: 19, Late: 2032, Early: 0, Misses: 0
dc2-> Hits: 3, Late: 2, Early: 0, Misses: 0
dc3-> Hits: 4, Late: 0, Early: 0, Misses: 0
dc7-> Hits: 11, Late: 1, Early: 0, Misses: 0
dc8-> Hits: 3, Late: 1, Early: 0, Misses: 0
dca-> Hits: 5, Late: 0, Early: 0, Misses: 0
dcb-> Hits: 6, Late: 0, Early: 0, Misses: 0
dcc-> Hits: 68, Late: 2, Early: 0, Misses: 0
dcd-> Hits: 71, Late: 4, Early: 0, Misses: 0
dcf-> Hits: 63, Late: 0, Early: 0, Misses: 0
dd1-> Hits: 86, Late: 4002, Early: 0, Misses: 0
dd2-> Hits: 19, Late: 43, Early: 0, Misses: 0
dd3-> Hits: 67, Late: 0, Early: 0, Misses: 0
dd5-> Hits: 4, Late: 0, Early: 0, Misses: 0
dd6-> Hits: 4, Late: 0, Early: 0, Misses: 0
dd8-> Hits: 70, Late: 0, Early: 0, Misses: 0
dd9-> Hits: 63, Late: 0, Early: 0, Misses: 0
dda-> Hits: 67, Late: 0, Early: 0, Misses: 0
ddc-> Hits: 7, Late: 0, Early: 0, Misses: 0
dde-> Hits: 4, Late: 0, Early: 0, Misses: 0
ddf-> Hits: 4, Late: 0, Early: 0, Misses: 0
de0-> Hits: 3, Late: 0, Early: 0, Misses: 0
de2-> Hits: 2, Late: 0, Early: 0, Misses: 0
de3-> Hits: 4, Late: 2, Early: 0, Misses: 0
de4-> Hits: 2, Late: 0, Early: 0, Misses: 0
de7-> Hits: 1, Late: 0, Early: 0, Misses: 0
de8-> Hits: 1, Late: 0, Early: 0, Misses: 0
de9-> Hits: 1, Late: 0, Early: 0, Misses: 0
deb-> Hits: 1, Late: 0, Early: 0, Misses: 0
dec-> Hits: 1, Late: 0, Early: 0, Misses: 0
ded-> Hits: 5, Late: 0, Early: 0, Misses: 0
dee-> Hits: 6, Late: 0, Early: 0, Misses: 0
def-> Hits: 5, Late: 0, Early: 0, Misses: 0
df0-> Hits: 1, Late: 0, Early: 0, Misses: 0
df1-> Hits: 17, Late: 0, Early: 0, Misses: 0
df2-> Hits: 3, Late: 0, Early: 0, Misses: 0
df3-> Hits: 6, Late: 0, Early: 0, Misses: 0
df4-> Hits: 1, Late: 0, Early: 0, Misses: 0
df5-> Hits: 6, Late: 0, Early: 0, Misses: 0
df7-> Hits: 7, Late: 0, Early: 0, Misses: 0
df8-> Hits: 1, Late: 0, Early: 0, Misses: 0
df9-> Hits: 2, Late: 0, Early: 0, Misses: 0
dfb-> Hits: 1, Late: 0, Early: 0, Misses: 0
dfd-> Hits: 3, Late: 0, Early: 0, Misses: 0
e00-> Hits: 19, Late: 0, Early: 0, Misses: 0
e01-> Hits: 2, Late: 0, Early: 0, Misses: 0
e02-> Hits: 4, Late: 0, Early: 0, Misses: 0
e03-> Hits: 1, Late: 0, Early: 0, Misses: 0
e05-> Hits: 3, Late: 1, Early: 0, Misses: 0
e06-> Hits: 17, Late: 0, Early: 0, Misses: 0
e07-> Hits: 0, Late: 63, Early: 0, Misses: 0
e0f-> Hits: 2, Late: 62, Early: 0, Misses: 0
e10-> Hits: 1, Late: 0, Early: 0, Misses: 0
e12-> Hits: 6, Late: 0, Early: 0, Misses: 0
e13-> Hits: 7, Late: 0, Early: 0, Misses: 0
e14-> Hits: 3, Late: 0, Early: 0, Misses: 0
e15-> Hits: 2, Late: 0, Early: 0, Misses: 0
e16-> Hits: 2, Late: 0, Early: 0, Misses: 0
e17-> Hits: 1, Late: 0, Early: 0, Misses: 0
e18-> Hits: 4, Late: 0, Early: 0, Misses: 0
e19-> Hits: 257, Late: 0, Early: 0, Misses: 0
e1a-> Hits: 2, Late: 0, Early: 0, Misses: 0
e1b-> Hits: 96, Late: 157, Early: 0, Misses: 0
e1c-> Hits: 4, Late: 0, Early: 0, Misses: 0
e1d-> Hits: 0, Late: 3, Early: 0, Misses: 0
e1e-> Hits: 62, Late: 128, Early: 0, Misses: 63
e20-> Hits: 14, Late: 2, Early: 0, Misses: 0
e22-> Hits: 3, Late: 0, Early: 0, Misses: 0
e23-> Hits: 205, Late: 242, Early: 0, Misses: 63
e25-> Hits: 1, Late: 0, Early: 0, Misses: 0
e26-> Hits: 2, Late: 0, Early: 0, Misses: 0
e27-> Hits: 2, Late: 0, Early: 0, Misses: 0
e28-> Hits: 64, Late: 197, Early: 0, Misses: 0
e29-> Hits: 1, Late: 0, Early: 0, Misses: 0
e2a-> Hits: 2, Late: 1, Early: 0, Misses: 0
e2c-> Hits: 51, Late: 203, Early: 0, Misses: 0
e2d-> Hits: 2, Late: 0, Early: 0, Misses: 0
e30-> Hits: 18, Late: 0, Early: 0, Misses: 0
e31-> Hits: 52, Late: 201, Early: 0, Misses: 0
e33-> Hits: 3, Late: 0, Early: 0, Misses: 0
e34-> Hits: 1, Late: 0, Early: 0, Misses: 0
e35-> Hits: 16, Late: 0, Early: 0, Misses: 0
e36-> Hits: 2, Late: 0, Early: 0, Misses: 0
e38-> Hits: 1, Late: 0, Early: 0, Misses: 0
e39-> Hits: 53, Late: 206, Early: 0, Misses: 0
e3a-> Hits: 1, Late: 0, Early: 0, Misses: 0
e3b-> Hits: 0, Late: 1, Early: 0, Misses: 0
e3c-> Hits: 6, Late: 1, Early: 0, Misses: 0
e3d-> Hits: 14, Late: 4, Early: 0, Misses: 0
e3f-> Hits: 1, Late: 0, Early: 0, Misses: 0
e40-> Hits: 6, Late: 1, Early: 0, Misses: 0
e41-> Hits: 53, Late: 330, Early: 0, Misses: 0
e42-> Hits: 2, Late: 0, Early: 0, Misses: 0
e43-> Hits: 2, Late: 0, Early: 0, Misses: 0
e44-> Hits: 2, Late: 0, Early: 0, Misses: 0
e45-> Hits: 1, Late: 1, Early: 0, Misses: 0
e47-> Hits: 2, Late: 0, Early: 0, Misses: 0
e48-> Hits: 3, Late: 0, Early: 0, Misses: 0
e49-> Hits: 47, Late: 205, Early: 0, Misses: 0
e4a-> Hits: 1, Late: 0, Early: 0, Misses: 0
e4c-> Hits: 0, Late: 1, Early: 0, Misses: 0
e4d-> Hits: 3, Late: 0, Early: 0, Misses: 0
e4f-> Hits: 2, Late: 0, Early: 0, Misses: 0
e50-> Hits: 0, Late: 3, Early: 0, Misses: 0
e51-> Hits: 2, Late: 0, Early: 0, Misses: 0
e54-> Hits: 1, Late: 0, Early: 0, Misses: 0
e55-> Hits: 3, Late: 0, Early: 0, Misses: 0
e57-> Hits: 8, Late: 0, Early: 0, Misses: 0
e58-> Hits: 2, Late: 0, Early: 0, Misses: 0
e59-> Hits: 20, Late: 0, Early: 0, Misses: 0
e5a-> Hits: 22, Late: 0, Early: 0, Misses: 0
e5b-> Hits: 22, Late: 0, Early: 0, Misses: 0
e5c-> Hits: 2, Late: 0, Early: 0, Misses: 0
e5d-> Hits: 20, Late: 0, Early: 0, Misses: 0
e5e-> Hits: 5, Late: 1, Early: 0, Misses: 0
e5f-> Hits: 20, Late: 0, Early: 0, Misses: 0
e60-> Hits: 6, Late: 2, Early: 0, Misses: 0
e61-> Hits: 22, Late: 0, Early: 0, Misses: 0
e62-> Hits: 2, Late: 0, Early: 0, Misses: 0
e63-> Hits: 26, Late: 0, Early: 0, Misses: 0
e64-> Hits: 0, Late: 1, Early: 0, Misses: 0
e65-> Hits: 6, Late: 0, Early: 0, Misses: 0
e68-> Hits: 2, Late: 0, Early: 0, Misses: 0
e6b-> Hits: 1, Late: 0, Early: 0, Misses: 0
e6c-> Hits: 1, Late: 0, Early: 0, Misses: 0
e6f-> Hits: 2, Late: 0, Early: 0, Misses: 0
e70-> Hits: 5, Late: 1, Early: 0, Misses: 0
e71-> Hits: 6, Late: 0, Early: 0, Misses: 0
e72-> Hits: 40, Late: 0, Early: 0, Misses: 0
e73-> Hits: 2, Late: 0, Early: 0, Misses: 0
e74-> Hits: 5, Late: 0, Early: 0, Misses: 0
e75-> Hits: 5, Late: 1, Early: 0, Misses: 0
e76-> Hits: 6, Late: 0, Early: 0, Misses: 0
e77-> Hits: 1, Late: 0, Early: 0, Misses: 0
e79-> Hits: 2, Late: 0, Early: 0, Misses: 0
e7a-> Hits: 1, Late: 0, Early: 0, Misses: 0
e7b-> Hits: 1, Late: 0, Early: 0, Misses: 0
e7d-> Hits: 14, Late: 49, Early: 0, Misses: 0
e7e-> Hits: 63, Late: 0, Early: 0, Misses: 0
e7f-> Hits: 66, Late: 0, Early: 0, Misses: 0
e80-> Hits: 1, Late: 0, Early: 0, Misses: 0
e81-> Hits: 70, Late: 0, Early: 0, Misses: 0
e82-> Hits: 3, Late: 0, Early: 0, Misses: 0
e83-> Hits: 65, Late: 0, Early: 0, Misses: 0
e84-> Hits: 152, Late: 94, Early: 0, Misses: 0
e85-> Hits: 5, Late: 58, Early: 0, Misses: 0
e86-> Hits: 2, Late: 0, Early: 0, Misses: 0
e87-> Hits: 63, Late: 0, Early: 0, Misses: 0
e88-> Hits: 255, Late: 0, Early: 0, Misses: 0
e8a-> Hits: 3, Late: 0, Early: 0, Misses: 0
e8b-> Hits: 2, Late: 0, Early: 0, Misses: 0
e8d-> Hits: 1, Late: 0, Early: 0, Misses: 0
e90-> Hits: 2, Late: 0, Early: 0, Misses: 0
e91-> Hits: 1, Late: 0, Early: 0, Misses: 0
e92-> Hits: 4, Late: 0, Early: 0, Misses: 0
e94-> Hits: 3, Late: 0, Early: 0, Misses: 0
e95-> Hits: 2, Late: 0, Early: 0, Misses: 0
e96-> Hits: 1, Late: 0, Early: 0, Misses: 0
e97-> Hits: 2, Late: 0, Early: 0, Misses: 0
e98-> Hits: 2, Late: 0, Early: 0, Misses: 0
e99-> Hits: 2, Late: 0, Early: 0, Misses: 0
e9a-> Hits: 2, Late: 0, Early: 0, Misses: 0
e9b-> Hits: 1, Late: 0, Early: 0, Misses: 0
e9d-> Hits: 1, Late: 0, Early: 0, Misses: 0
e9f-> Hits: 1, Late: 0, Early: 0, Misses: 0
ea0-> Hits: 0, Late: 1, Early: 0, Misses: 0
ea1-> Hits: 257, Late: 0, Early: 0, Misses: 0
ea2-> Hits: 2, Late: 0, Early: 0, Misses: 0
ea5-> Hits: 1, Late: 0, Early: 0, Misses: 0
ea6-> Hits: 0, Late: 1, Early: 0, Misses: 0
ea7-> Hits: 1, Late: 0, Early: 0, Misses: 0
ea8-> Hits: 0, Late: 1, Early: 0, Misses: 0
ea9-> Hits: 2, Late: 0, Early: 0, Misses: 0
eaa-> Hits: 1, Late: 0, Early: 0, Misses: 0
eab-> Hits: 6, Late: 0, Early: 0, Misses: 0
eac-> Hits: 1, Late: 0, Early: 0, Misses: 0
eae-> Hits: 1, Late: 0, Early: 0, Misses: 0
eaf-> Hits: 0, Late: 1, Early: 0, Misses: 0
eb0-> Hits: 324201, Late: 215329, Early: 0, Misses: 0
eb3-> Hits: 1, Late: 0, Early: 0, Misses: 0
eb4-> Hits: 1, Late: 0, Early: 0, Misses: 0
eb5-> Hits: 438844, Late: 88967, Early: 0, Misses: 0
eb6-> Hits: 4, Late: 1, Early: 0, Misses: 0
eb8-> Hits: 1, Late: 0, Early: 0, Misses: 0
eba-> Hits: 274715, Late: 263299, Early: 0, Misses: 0
ebc-> Hits: 4, Late: 0, Early: 0, Misses: 0
ebd-> Hits: 1, Late: 0, Early: 0, Misses: 0
ebe-> Hits: 2, Late: 0, Early: 0, Misses: 0
ebf-> Hits: 2, Late: 1, Early: 0, Misses: 0
ec0-> Hits: 414199, Late: 112970, Early: 0, Misses: 0
ec1-> Hits: 13, Late: 0, Early: 0, Misses: 0
ec2-> Hits: 2, Late: 0, Early: 0, Misses: 0
ec3-> Hits: 2, Late: 0, Early: 0, Misses: 0
ec4-> Hits: 1, Late: 1, Early: 0, Misses: 0
ec5-> Hits: 7, Late: 0, Early: 0, Misses: 0
ec6-> Hits: 249657, Late: 285119, Early: 0, Misses: 0
ec7-> Hits: 1, Late: 1, Early: 0, Misses: 0
ec8-> Hits: 1, Late: 0, Early: 0, Misses: 0
eca-> Hits: 1, Late: 0, Early: 0, Misses: 0
ecb-> Hits: 0, Late: 1, Early: 0, Misses: 0
ecc-> Hits: 394909, Late: 130582, Early: 0, Misses: 0
ecd-> Hits: 1, Late: 0, Early: 0, Misses: 0
ece-> Hits: 0, Late: 1, Early: 0, Misses: 0
ecf-> Hits: 4, Late: 0, Early: 0, Misses: 0
ed0-> Hits: 3, Late: 0, Early: 0, Misses: 0
ed1-> Hits: 254, Late: 2, Early: 0, Misses: 0
ed2-> Hits: 237090, Late: 288447, Early: 0, Misses: 0
ed3-> Hits: 2, Late: 0, Early: 0, Misses: 0
ed5-> Hits: 5, Late: 1, Early: 0, Misses: 0
ed6-> Hits: 2, Late: 0, Early: 0, Misses: 0
ed7-> Hits: 3, Late: 0, Early: 0, Misses: 0
ed8-> Hits: 378911, Late: 143265, Early: 0, Misses: 0
ed9-> Hits: 6, Late: 0, Early: 0, Misses: 0
edb-> Hits: 2, Late: 0, Early: 0, Misses: 0
edc-> Hits: 3, Late: 0, Early: 0, Misses: 0
edf-> Hits: 0, Late: 1, Early: 0, Misses: 0
ee0-> Hits: 69, Late: 191, Early: 0, Misses: 0
ee1-> Hits: 6, Late: 64, Early: 0, Misses: 0
ee2-> Hits: 3, Late: 0, Early: 0, Misses: 0
ee3-> Hits: 5, Late: 0, Early: 0, Misses: 0
ee4-> Hits: 8, Late: 0, Early: 0, Misses: 0
ee5-> Hits: 5, Late: 0, Early: 0, Misses: 0
ee7-> Hits: 5, Late: 0, Early: 0, Misses: 0
ee8-> Hits: 1, Late: 0, Early: 0, Misses: 0
ee9-> Hits: 6, Late: 0, Early: 0, Misses: 0
eea-> Hits: 5, Late: 0, Early: 0, Misses: 0
eeb-> Hits: 2, Late: 0, Early: 0, Misses: 0
eec-> Hits: 2, Late: 0, Early: 0, Misses: 0
eed-> Hits: 2, Late: 0, Early: 0, Misses: 0
eee-> Hits: 2, Late: 0, Early: 0, Misses: 0
eef-> Hits: 16, Late: 0, Early: 0, Misses: 0
ef0-> Hits: 5, Late: 0, Early: 0, Misses: 0
ef1-> Hits: 2, Late: 0, Early: 0, Misses: 0
ef2-> Hits: 3, Late: 0, Early: 0, Misses: 0
ef3-> Hits: 1, Late: 0, Early: 0, Misses: 0
ef4-> Hits: 45, Late: 0, Early: 0, Misses: 0
ef5-> Hits: 1, Late: 0, Early: 0, Misses: 0
ef6-> Hits: 2, Late: 0, Early: 0, Misses: 0
ef7-> Hits: 2, Late: 0, Early: 0, Misses: 0
ef8-> Hits: 3, Late: 2, Early: 0, Misses: 0
ef9-> Hits: 1, Late: 0, Early: 0, Misses: 0
efa-> Hits: 8, Late: 0, Early: 0, Misses: 0
efb-> Hits: 5, Late: 0, Early: 0, Misses: 0
efc-> Hits: 4, Late: 0, Early: 0, Misses: 0
efd-> Hits: 2, Late: 0, Early: 0, Misses: 0
efe-> Hits: 230926, Late: 362524, Early: 0, Misses: 3544
eff-> Hits: 6, Late: 0, Early: 0, Misses: 0
f00-> Hits: 4, Late: 0, Early: 0, Misses: 0
f01-> Hits: 3, Late: 0, Early: 0, Misses: 0
f02-> Hits: 4, Late: 0, Early: 0, Misses: 0
f03-> Hits: 1, Late: 1, Early: 0, Misses: 0
f04-> Hits: 6, Late: 0, Early: 0, Misses: 0
f05-> Hits: 3, Late: 0, Early: 0, Misses: 0
f06-> Hits: 8, Late: 0, Early: 0, Misses: 0
f07-> Hits: 2, Late: 0, Early: 0, Misses: 0
f08-> Hits: 4, Late: 0, Early: 0, Misses: 0
f09-> Hits: 9, Late: 0, Early: 0, Misses: 0
f0b-> Hits: 2, Late: 0, Early: 0, Misses: 0
f0c-> Hits: 4, Late: 4, Early: 0, Misses: 0
f0d-> Hits: 2, Late: 0, Early: 0, Misses: 0
f0e-> Hits: 1, Late: 0, Early: 0, Misses: 0
f10-> Hits: 38, Late: 4, Early: 0, Misses: 0
f13-> Hits: 33, Late: 0, Early: 0, Misses: 0
f15-> Hits: 1, Late: 0, Early: 0, Misses: 0
f16-> Hits: 4, Late: 0, Early: 0, Misses: 0
f17-> Hits: 101, Late: 157, Early: 0, Misses: 0
f18-> Hits: 1, Late: 0, Early: 0, Misses: 0
f19-> Hits: 5, Late: 3, Early: 0, Misses: 0
f1c-> Hits: 1, Late: 0, Early: 0, Misses: 0
f1e-> Hits: 3, Late: 0, Early: 0, Misses: 0
f20-> Hits: 1, Late: 0, Early: 0, Misses: 0
f21-> Hits: 22, Late: 20, Early: 0, Misses: 0
f22-> Hits: 8, Late: 0, Early: 0, Misses: 1
f23-> Hits: 6, Late: 0, Early: 0, Misses: 0
f24-> Hits: 37, Late: 0, Early: 0, Misses: 0
f25-> Hits: 1, Late: 0, Early: 0, Misses: 0
f26-> Hits: 1, Late: 0, Early: 0, Misses: 0
f27-> Hits: 8, Late: 0, Early: 0, Misses: 0
f28-> Hits: 2, Late: 0, Early: 0, Misses: 0
f29-> Hits: 255, Late: 951, Early: 0, Misses: 0
f2a-> Hits: 6, Late: 0, Early: 0, Misses: 0
f2b-> Hits: 64, Late: 1, Early: 0, Misses: 0
f2f-> Hits: 5, Late: 0, Early: 0, Misses: 0
f30-> Hits: 11, Late: 2, Early: 0, Misses: 0
f31-> Hits: 946, Late: 6, Early: 0, Misses: 0
f32-> Hits: 36, Late: 0, Early: 0, Misses: 0
f33-> Hits: 9, Late: 0, Early: 0, Misses: 0
f34-> Hits: 1, Late: 2, Early: 0, Misses: 0
f37-> Hits: 64, Late: 0, Early: 0, Misses: 0
f39-> Hits: 3, Late: 0, Early: 0, Misses: 0
f3b-> Hits: 8, Late: 0, Early: 0, Misses: 0
f3c-> Hits: 8, Late: 0, Early: 0, Misses: 0
f3d-> Hits: 222, Late: 51, Early: 0, Misses: 0
f3e-> Hits: 38, Late: 0, Early: 0, Misses: 0
f3f-> Hits: 15, Late: 0, Early: 0, Misses: 0
f41-> Hits: 8, Late: 0, Early: 0, Misses: 0
f43-> Hits: 9, Late: 0, Early: 0, Misses: 0
f44-> Hits: 4, Late: 0, Early: 0, Misses: 0
f45-> Hits: 8, Late: 0, Early: 0, Misses: 0
f47-> Hits: 126, Late: 0, Early: 0, Misses: 0
f49-> Hits: 2, Late: 0, Early: 0, Misses: 0
f4c-> Hits: 0, Late: 1, Early: 0, Misses: 0
f50-> Hits: 0, Late: 1, Early: 0, Misses: 0
f53-> Hits: 7, Late: 0, Early: 0, Misses: 0
f54-> Hits: 2, Late: 0, Early: 0, Misses: 0
f59-> Hits: 5, Late: 1075, Early: 0, Misses: 1
f5a-> Hits: 68, Late: 0, Early: 0, Misses: 0
f5b-> Hits: 1, Late: 0, Early: 0, Misses: 0
f5d-> Hits: 1, Late: 0, Early: 0, Misses: 0
f5e-> Hits: 1, Late: 0, Early: 0, Misses: 0
f5f-> Hits: 2, Late: 0, Early: 0, Misses: 0
f60-> Hits: 13, Late: 2, Early: 0, Misses: 0
f61-> Hits: 1, Late: 0, Early: 0, Misses: 0
f63-> Hits: 2, Late: 0, Early: 0, Misses: 0
f64-> Hits: 262, Late: 818, Early: 0, Misses: 0
f65-> Hits: 4, Late: 1, Early: 0, Misses: 0
f66-> Hits: 5, Late: 0, Early: 0, Misses: 0
f68-> Hits: 2, Late: 0, Early: 0, Misses: 0
f6c-> Hits: 28, Late: 1, Early: 0, Misses: 0
f6d-> Hits: 70, Late: 0, Early: 0, Misses: 0
f6f-> Hits: 11, Late: 2, Early: 0, Misses: 0
f70-> Hits: 0, Late: 66, Early: 0, Misses: 0
f73-> Hits: 1, Late: 1, Early: 0, Misses: 0
f74-> Hits: 529, Late: 552, Early: 0, Misses: 0
f78-> Hits: 1, Late: 1, Early: 0, Misses: 0
f7a-> Hits: 4, Late: 0, Early: 0, Misses: 0
f7d-> Hits: 515, Late: 565, Early: 0, Misses: 0
f7f-> Hits: 3, Late: 1, Early: 0, Misses: 0
f80-> Hits: 4, Late: 1, Early: 0, Misses: 0
f85-> Hits: 2, Late: 0, Early: 0, Misses: 0
f86-> Hits: 3, Late: 1, Early: 0, Misses: 0
f87-> Hits: 14, Late: 0, Early: 0, Misses: 0
f89-> Hits: 1, Late: 0, Early: 0, Misses: 0
f8b-> Hits: 11, Late: 124, Early: 0, Misses: 0
f8c-> Hits: 6, Late: 0, Early: 0, Misses: 0
f8d-> Hits: 3, Late: 0, Early: 0, Misses: 0
f8f-> Hits: 1, Late: 0, Early: 0, Misses: 0
f90-> Hits: 6, Late: 0, Early: 0, Misses: 0
f91-> Hits: 1, Late: 0, Early: 0, Misses: 0
f92-> Hits: 2, Late: 0, Early: 0, Misses: 0
f93-> Hits: 6, Late: 0, Early: 0, Misses: 0
f94-> Hits: 1, Late: 0, Early: 0, Misses: 0
f95-> Hits: 0, Late: 2, Early: 0, Misses: 0
f96-> Hits: 1, Late: 0, Early: 0, Misses: 0
f98-> Hits: 1, Late: 0, Early: 0, Misses: 0
f9a-> Hits: 15, Late: 0, Early: 0, Misses: 0
f9c-> Hits: 3, Late: 0, Early: 0, Misses: 0
f9d-> Hits: 15, Late: 3, Early: 0, Misses: 0
f9e-> Hits: 1, Late: 0, Early: 0, Misses: 0
f9f-> Hits: 7, Late: 0, Early: 0, Misses: 0
fa0-> Hits: 4, Late: 1, Early: 0, Misses: 0
fa1-> Hits: 1, Late: 0, Early: 0, Misses: 0
fa4-> Hits: 1, Late: 0, Early: 0, Misses: 0
faa-> Hits: 3, Late: 0, Early: 0, Misses: 0
fb0-> Hits: 365, Late: 737, Early: 0, Misses: 0
fb1-> Hits: 3, Late: 3, Early: 0, Misses: 0
fb3-> Hits: 10, Late: 0, Early: 0, Misses: 0
fb8-> Hits: 4, Late: 0, Early: 0, Misses: 0
fba-> Hits: 30, Late: 3, Early: 0, Misses: 0
fbb-> Hits: 62, Late: 2, Early: 0, Misses: 0
fbd-> Hits: 1, Late: 0, Early: 0, Misses: 0
fbe-> Hits: 1, Late: 0, Early: 0, Misses: 0
fbf-> Hits: 2, Late: 0, Early: 0, Misses: 0
fc0-> Hits: 5, Late: 0, Early: 0, Misses: 0
fc4-> Hits: 9, Late: 0, Early: 0, Misses: 0
fc5-> Hits: 3, Late: 0, Early: 0, Misses: 0
fc6-> Hits: 2, Late: 0, Early: 0, Misses: 0
fc7-> Hits: 2, Late: 0, Early: 0, Misses: 0
fc8-> Hits: 8, Late: 0, Early: 0, Misses: 0
fca-> Hits: 2, Late: 0, Early: 0, Misses: 0
fcb-> Hits: 1, Late: 0, Early: 0, Misses: 0
fcd-> Hits: 1, Late: 1, Early: 0, Misses: 0
fce-> Hits: 1, Late: 0, Early: 0, Misses: 0
fd0-> Hits: 4, Late: 0, Early: 0, Misses: 0
fd2-> Hits: 1, Late: 0, Early: 0, Misses: 0
fd6-> Hits: 6, Late: 0, Early: 0, Misses: 0
fd7-> Hits: 6, Late: 0, Early: 0, Misses: 0
fd8-> Hits: 10, Late: 0, Early: 0, Misses: 0
fda-> Hits: 6, Late: 0, Early: 0, Misses: 0
fdc-> Hits: 7, Late: 1, Early: 0, Misses: 0
fde-> Hits: 8, Late: 0, Early: 0, Misses: 0
fdf-> Hits: 41, Late: 104, Early: 0, Misses: 0
fe0-> Hits: 9, Late: 0, Early: 0, Misses: 0
fe1-> Hits: 4, Late: 0, Early: 0, Misses: 0
fe2-> Hits: 2, Late: 0, Early: 0, Misses: 0
fe3-> Hits: 4, Late: 0, Early: 0, Misses: 0
fe4-> Hits: 62, Late: 2, Early: 0, Misses: 0
fe5-> Hits: 6, Late: 7, Early: 0, Misses: 0
fe6-> Hits: 2, Late: 0, Early: 0, Misses: 0
fe7-> Hits: 1, Late: 1, Early: 0, Misses: 0
feb-> Hits: 1, Late: 2, Early: 0, Misses: 0
fec-> Hits: 6, Late: 0, Early: 0, Misses: 0
fed-> Hits: 6, Late: 0, Early: 0, Misses: 0
fef-> Hits: 0, Late: 1, Early: 0, Misses: 0
ff0-> Hits: 7, Late: 0, Early: 0, Misses: 0
ff2-> Hits: 26, Late: 21, Early: 0, Misses: 0
ff3-> Hits: 14, Late: 0, Early: 0, Misses: 0
ff5-> Hits: 2, Late: 0, Early: 0, Misses: 0
ff7-> Hits: 4, Late: 0, Early: 0, Misses: 0
ff9-> Hits: 8, Late: 0, Early: 0, Misses: 0
ffd-> Hits: 2, Late: 0, Early: 0, Misses: 0
ffe-> Hits: 1080, Late: 0, Early: 0, Misses: 0
fff-> Hits: 12, Late: 0, Early: 0, Misses: 0
Total misses (from ip) 3606352
Total accesses (misses) 98892141 3606352
Pref: Addr 0 IP 0 Current 0
CPU 0 L2C berti prefetcher final stats
Channel_0_RQ_row_buffer_hit 1560021
Channel_0_RQ_row_buffer_miss 1388457
Channel_0_WQ_row_buffer_hit 635126
Channel_0_WQ_row_buffer_miss 1008651
Channel_0_WQ_full 1183
Channel_0_dbus_congested 2232207

avg_congested_cycle 8

EzSearch AVG IPC :1.01749: L2-Pf-HR :0.81745 : L2-HR :0.80240 Uful:0.14332
     > Finished combination: TraceType=770-tot Sim:404000000 Prefetcher=L2berti L1=berti
