TRACE: [662000000][OPT-350M]_[h16][s1024][d64] Warmup: 2000000 NumTraces: 662000000
L1:isb_ideal:L2:isb_ideal
*************************************************
   ChampSim Multicore Out-of-Order Simulator
   Last compiled: Oct 20 2024 05:12:04
*************************************************

trace_0 770-tot_memTraces_v3/memTraces[662000000][OPT-350M]_[h16][s1024][d64].champsim.xz
L1D: Ideal ISB Prefetching
Ideal ISB Prefetching
MAIN.cc ln 751 stats print skipped
CPU  0 inst:    1000003 cyc:     503750 now IPC :1.98512: AVG IPC :1.98512: L2-Pf-HR :0.99403: L2-HR :0.87721: (Sim:0h0m4s) 
CPU  0 inst:    2000000 cyc:     980417 now IPC :2.09789: AVG IPC :2.03995: L2-Pf-HR :0.99340: L2-HR :0.90582: (Sim:0h0m7s) 

Warmup complete CPU  0 instructions:    2000001 cycles:     980418 (Simulation time: 0 hr 0 min 7 sec) 

CPU  0 inst:    3000002 cyc:    1741655 now IPC :1.31365: AVG IPC :1.31365: L2-Pf-HR :0.99362: L2-HR :0.93390: (Sim:0h0m11s) 
CPU  0 inst:    4000000 cyc:    2509956 now IPC :1.30157: AVG IPC :1.30758: L2-Pf-HR :0.99364: L2-HR :0.93383: (Sim:0h0m14s) 
CPU  0 inst:    5000001 cyc:    3277078 now IPC :1.30357: AVG IPC :1.30624: L2-Pf-HR :0.99360: L2-HR :0.93382: (Sim:0h0m18s) 
CPU  0 inst:    6000002 cyc:    4050356 now IPC :1.29320: AVG IPC :1.30296: L2-Pf-HR :0.99355: L2-HR :0.93398: (Sim:0h0m22s) 
CPU  0 inst:    7000001 cyc:    4957479 now IPC :1.10239: AVG IPC :1.25721: L2-Pf-HR :0.99245: L2-HR :0.93347: (Sim:0h0m28s) 
CPU  0 inst:    8000000 cyc:    5752969 now IPC :1.25709: AVG IPC :1.25719: L2-Pf-HR :0.99146: L2-HR :0.93436: (Sim:0h0m33s) 
CPU  0 inst:    9000001 cyc:    6548363 now IPC :1.25724: AVG IPC :1.25720: L2-Pf-HR :0.99075: L2-HR :0.93504: (Sim:0h0m38s) 
CPU  0 inst:   10000000 cyc:    7343381 now IPC :1.25783: AVG IPC :1.25728: L2-Pf-HR :0.99023: L2-HR :0.93548: (Sim:0h0m43s) 
CPU  0 inst:   11000000 cyc:    8131483 now IPC :1.26887: AVG IPC :1.25855: L2-Pf-HR :0.98980: L2-HR :0.93587: (Sim:0h0m47s) 
CPU  0 inst:   12000000 cyc:    8924812 now IPC :1.26051: AVG IPC :1.25875: L2-Pf-HR :0.98950: L2-HR :0.93629: (Sim:0h0m52s) 
CPU  0 inst:   13000003 cyc:    9792129 now IPC :1.15298: AVG IPC :1.24834: L2-Pf-HR :0.98914: L2-HR :0.93615: (Sim:0h0m57s) 
CPU  0 inst:   14000003 cyc:   10585185 now IPC :1.26094: AVG IPC :1.24938: L2-Pf-HR :0.98878: L2-HR :0.93627: (Sim:0h1m2s) 
CPU  0 inst:   15000003 cyc:   11371864 now IPC :1.27117: AVG IPC :1.25103: L2-Pf-HR :0.98854: L2-HR :0.93642: (Sim:0h1m7s) 
CPU  0 inst:   16000000 cyc:   12157368 now IPC :1.27306: AVG IPC :1.25258: L2-Pf-HR :0.98829: L2-HR :0.93654: (Sim:0h1m12s) 
CPU  0 inst:   17000000 cyc:   13111998 now IPC :1.04753: AVG IPC :1.23644: L2-Pf-HR :0.98775: L2-HR :0.93552: (Sim:0h1m18s) 
CPU  0 inst:   18000000 cyc:   13949622 now IPC :1.19385: AVG IPC :1.23369: L2-Pf-HR :0.98774: L2-HR :0.93545: (Sim:0h1m23s) 
CPU  0 inst:   19000003 cyc:   14791831 now IPC :1.18736: AVG IPC :1.23087: L2-Pf-HR :0.98772: L2-HR :0.93538: (Sim:0h1m28s) 
CPU  0 inst:   20000000 cyc:   15631109 now IPC :1.19150: AVG IPC :1.22861: L2-Pf-HR :0.98772: L2-HR :0.93529: (Sim:0h1m33s) 
CPU  0 inst:   21000002 cyc:   16474368 now IPC :1.18588: AVG IPC :1.22629: L2-Pf-HR :0.98770: L2-HR :0.93523: (Sim:0h1m38s) 
CPU  0 inst:   22000002 cyc:   17321861 now IPC :1.17995: AVG IPC :1.22388: L2-Pf-HR :0.98769: L2-HR :0.93520: (Sim:0h1m43s) 
CPU  0 inst:   23000002 cyc:   18252351 now IPC :1.07470: AVG IPC :1.21585: L2-Pf-HR :0.98768: L2-HR :0.93501: (Sim:0h1m48s) 
CPU  0 inst:   24000000 cyc:   19042240 now IPC :1.26600: AVG IPC :1.21804: L2-Pf-HR :0.98765: L2-HR :0.93517: (Sim:0h1m53s) 
CPU  0 inst:   25000000 cyc:   19829371 now IPC :1.27044: AVG IPC :1.22023: L2-Pf-HR :0.98762: L2-HR :0.93533: (Sim:0h1m59s) 
CPU  0 inst:   26000001 cyc:   20611406 now IPC :1.27872: AVG IPC :1.22256: L2-Pf-HR :0.98760: L2-HR :0.93544: (Sim:0h2m4s) 
CPU  0 inst:   27000000 cyc:   21396347 now IPC :1.27398: AVG IPC :1.22453: L2-Pf-HR :0.98758: L2-HR :0.93555: (Sim:0h2m9s) 
CPU  0 inst:   28000000 cyc:   22179341 now IPC :1.27715: AVG IPC :1.22648: L2-Pf-HR :0.98760: L2-HR :0.93570: (Sim:0h2m14s) 
CPU  0 inst:   29000001 cyc:   23062997 now IPC :1.13166: AVG IPC :1.22268: L2-Pf-HR :0.98756: L2-HR :0.93564: (Sim:0h2m19s) 
CPU  0 inst:   30000002 cyc:   23865203 now IPC :1.24656: AVG IPC :1.22352: L2-Pf-HR :0.98748: L2-HR :0.93568: (Sim:0h2m24s) 
CPU  0 inst:   31000000 cyc:   24664181 now IPC :1.25160: AVG IPC :1.22447: L2-Pf-HR :0.98742: L2-HR :0.93572: (Sim:0h2m29s) 
CPU  0 inst:   32000000 cyc:   25463345 now IPC :1.25131: AVG IPC :1.22534: L2-Pf-HR :0.98736: L2-HR :0.93576: (Sim:0h2m34s) 
CPU  0 inst:   33000001 cyc:   26404788 now IPC :1.06220: AVG IPC :1.21930: L2-Pf-HR :0.98718: L2-HR :0.93528: (Sim:0h2m40s) 
CPU  0 inst:   34000001 cyc:   27226978 now IPC :1.21626: AVG IPC :1.21921: L2-Pf-HR :0.98719: L2-HR :0.93522: (Sim:0h2m45s) 
CPU  0 inst:   35000003 cyc:   28045872 now IPC :1.22116: AVG IPC :1.21927: L2-Pf-HR :0.98721: L2-HR :0.93518: (Sim:0h2m50s) 
CPU  0 inst:   36000000 cyc:   28869394 now IPC :1.21429: AVG IPC :1.21912: L2-Pf-HR :0.98723: L2-HR :0.93513: (Sim:0h2m55s) 
CPU  0 inst:   37000001 cyc:   29691487 now IPC :1.21641: AVG IPC :1.21904: L2-Pf-HR :0.98725: L2-HR :0.93509: (Sim:0h3m0s) 
CPU  0 inst:   38000000 cyc:   30518100 now IPC :1.20975: AVG IPC :1.21878: L2-Pf-HR :0.98726: L2-HR :0.93506: (Sim:0h3m5s) 
CPU  0 inst:   39000000 cyc:   31454213 now IPC :1.06825: AVG IPC :1.21416: L2-Pf-HR :0.98727: L2-HR :0.93491: (Sim:0h3m10s) 
CPU  0 inst:   40000000 cyc:   32262134 now IPC :1.23774: AVG IPC :1.21477: L2-Pf-HR :0.98729: L2-HR :0.93500: (Sim:0h3m16s) 
CPU  0 inst:   41000000 cyc:   33066049 now IPC :1.24391: AVG IPC :1.21550: L2-Pf-HR :0.98730: L2-HR :0.93508: (Sim:0h3m21s) 
CPU  0 inst:   42000001 cyc:   33870551 now IPC :1.24301: AVG IPC :1.21617: L2-Pf-HR :0.98731: L2-HR :0.93515: (Sim:0h3m26s) 
CPU  0 inst:   43000000 cyc:   34670983 now IPC :1.24932: AVG IPC :1.21696: L2-Pf-HR :0.98732: L2-HR :0.93522: (Sim:0h3m31s) 
CPU  0 inst:   44000000 cyc:   35473206 now IPC :1.24654: AVG IPC :1.21765: L2-Pf-HR :0.98734: L2-HR :0.93531: (Sim:0h3m36s) 
CPU  0 inst:   45000001 cyc:   36357743 now IPC :1.13054: AVG IPC :1.21547: L2-Pf-HR :0.98733: L2-HR :0.93527: (Sim:0h3m41s) 
CPU  0 inst:   46000000 cyc:   37161407 now IPC :1.24430: AVG IPC :1.21611: L2-Pf-HR :0.98730: L2-HR :0.93530: (Sim:0h3m46s) 
CPU  0 inst:   47000002 cyc:   37964694 now IPC :1.24489: AVG IPC :1.21673: L2-Pf-HR :0.98730: L2-HR :0.93534: (Sim:0h3m51s) 
CPU  0 inst:   48000000 cyc:   38768006 now IPC :1.24484: AVG IPC :1.21733: L2-Pf-HR :0.98729: L2-HR :0.93536: (Sim:0h3m56s) 
CPU  0 inst:   49000002 cyc:   39705765 now IPC :1.06637: AVG IPC :1.21368: L2-Pf-HR :0.98716: L2-HR :0.93504: (Sim:0h4m2s) 
CPU  0 inst:   50000002 cyc:   40525813 now IPC :1.21944: AVG IPC :1.21379: L2-Pf-HR :0.98718: L2-HR :0.93500: (Sim:0h4m6s) 
CPU  0 inst:   51000001 cyc:   41350608 now IPC :1.21242: AVG IPC :1.21377: L2-Pf-HR :0.98719: L2-HR :0.93495: (Sim:0h4m11s) 
CPU  0 inst:   52000000 cyc:   42176073 now IPC :1.21144: AVG IPC :1.21372: L2-Pf-HR :0.98721: L2-HR :0.93491: (Sim:0h4m16s) 
CPU  0 inst:   53000000 cyc:   43000368 now IPC :1.21316: AVG IPC :1.21371: L2-Pf-HR :0.98723: L2-HR :0.93485: (Sim:0h4m22s) 
CPU  0 inst:   54000001 cyc:   43826663 now IPC :1.21022: AVG IPC :1.21364: L2-Pf-HR :0.98725: L2-HR :0.93481: (Sim:0h4m27s) 
CPU  0 inst:   55000000 cyc:   44760016 now IPC :1.07140: AVG IPC :1.21061: L2-Pf-HR :0.98726: L2-HR :0.93467: (Sim:0h4m32s) 
CPU  0 inst:   56000000 cyc:   45558557 now IPC :1.25228: AVG IPC :1.21136: L2-Pf-HR :0.98728: L2-HR :0.93472: (Sim:0h4m37s) 
CPU  0 inst:   57000000 cyc:   46357466 now IPC :1.25171: AVG IPC :1.21207: L2-Pf-HR :0.98728: L2-HR :0.93474: (Sim:0h4m42s) 
CPU  0 inst:   58000000 cyc:   47148417 now IPC :1.26430: AVG IPC :1.21296: L2-Pf-HR :0.98729: L2-HR :0.93477: (Sim:0h4m47s) 
CPU  0 inst:   59000000 cyc:   47941514 now IPC :1.26088: AVG IPC :1.21377: L2-Pf-HR :0.98730: L2-HR :0.93480: (Sim:0h4m53s) 
CPU  0 inst:   60000000 cyc:   48733205 now IPC :1.26312: AVG IPC :1.21459: L2-Pf-HR :0.98732: L2-HR :0.93484: (Sim:0h4m58s) 
CPU  0 inst:   61000002 cyc:   49613805 now IPC :1.13559: AVG IPC :1.21316: L2-Pf-HR :0.98732: L2-HR :0.93480: (Sim:0h5m3s) 
CPU  0 inst:   62000000 cyc:   50418183 now IPC :1.24319: AVG IPC :1.21365: L2-Pf-HR :0.98730: L2-HR :0.93482: (Sim:0h5m8s) 
CPU  0 inst:   63000001 cyc:   51220664 now IPC :1.24614: AVG IPC :1.21417: L2-Pf-HR :0.98730: L2-HR :0.93482: (Sim:0h5m13s) 
CPU  0 inst:   64000000 cyc:   52021145 now IPC :1.24925: AVG IPC :1.21472: L2-Pf-HR :0.98728: L2-HR :0.93483: (Sim:0h5m18s) 
CPU  0 inst:   65000003 cyc:   52946647 now IPC :1.08050: AVG IPC :1.21233: L2-Pf-HR :0.98720: L2-HR :0.93460: (Sim:0h5m24s) 
CPU  0 inst:   66000000 cyc:   53749538 now IPC :1.24550: AVG IPC :1.21283: L2-Pf-HR :0.98721: L2-HR :0.93455: (Sim:0h5m29s) 
CPU  0 inst:   67000000 cyc:   54551887 now IPC :1.24634: AVG IPC :1.21333: L2-Pf-HR :0.98722: L2-HR :0.93451: (Sim:0h5m34s) 
CPU  0 inst:   68000000 cyc:   55359161 now IPC :1.23874: AVG IPC :1.21371: L2-Pf-HR :0.98724: L2-HR :0.93446: (Sim:0h5m39s) 
CPU  0 inst:   69000002 cyc:   56165929 now IPC :1.23952: AVG IPC :1.21409: L2-Pf-HR :0.98725: L2-HR :0.93441: (Sim:0h5m45s) 
CPU  0 inst:   70000002 cyc:   56975004 now IPC :1.23598: AVG IPC :1.21440: L2-Pf-HR :0.98727: L2-HR :0.93437: (Sim:0h5m50s) 
CPU  0 inst:   71000002 cyc:   57904626 now IPC :1.07571: AVG IPC :1.21214: L2-Pf-HR :0.98727: L2-HR :0.93424: (Sim:0h5m55s) 
CPU  0 inst:   72000000 cyc:   58717499 now IPC :1.23020: AVG IPC :1.21239: L2-Pf-HR :0.98729: L2-HR :0.93426: (Sim:0h5m59s) 
CPU  0 inst:   73000000 cyc:   59527208 now IPC :1.23501: AVG IPC :1.21271: L2-Pf-HR :0.98729: L2-HR :0.93427: (Sim:0h6m4s) 
CPU  0 inst:   74000001 cyc:   60339397 now IPC :1.23124: AVG IPC :1.21296: L2-Pf-HR :0.98730: L2-HR :0.93428: (Sim:0h6m9s) 
CPU  0 inst:   75000000 cyc:   61143511 now IPC :1.24360: AVG IPC :1.21337: L2-Pf-HR :0.98731: L2-HR :0.93430: (Sim:0h6m15s) 
CPU  0 inst:   76000000 cyc:   61951569 now IPC :1.23753: AVG IPC :1.21369: L2-Pf-HR :0.98732: L2-HR :0.93431: (Sim:0h6m20s) 
CPU  0 inst:   77000002 cyc:   62838892 now IPC :1.12699: AVG IPC :1.21245: L2-Pf-HR :0.98732: L2-HR :0.93428: (Sim:0h6m25s) 
CPU  0 inst:   78000003 cyc:   63647988 now IPC :1.23595: AVG IPC :1.21275: L2-Pf-HR :0.98732: L2-HR :0.93426: (Sim:0h6m30s) 
CPU  0 inst:   79000002 cyc:   64450239 now IPC :1.24649: AVG IPC :1.21318: L2-Pf-HR :0.98732: L2-HR :0.93426: (Sim:0h6m36s) 
CPU  0 inst:   80000000 cyc:   65253179 now IPC :1.24542: AVG IPC :1.21358: L2-Pf-HR :0.98731: L2-HR :0.93424: (Sim:0h6m41s) 
CPU  0 inst:   81000000 cyc:   66181898 now IPC :1.07675: AVG IPC :1.21163: L2-Pf-HR :0.98722: L2-HR :0.93404: (Sim:0h6m47s) 
CPU  0 inst:   82000001 cyc:   66990466 now IPC :1.23676: AVG IPC :1.21194: L2-Pf-HR :0.98724: L2-HR :0.93399: (Sim:0h6m52s) 
CPU  0 inst:   83000001 cyc:   67799549 now IPC :1.23597: AVG IPC :1.21223: L2-Pf-HR :0.98725: L2-HR :0.93393: (Sim:0h6m57s) 
CPU  0 inst:   84000000 cyc:   68610727 now IPC :1.23277: AVG IPC :1.21247: L2-Pf-HR :0.98725: L2-HR :0.93387: (Sim:0h7m3s) 
CPU  0 inst:   85000003 cyc:   69423781 now IPC :1.22993: AVG IPC :1.21268: L2-Pf-HR :0.98726: L2-HR :0.93381: (Sim:0h7m8s) 
CPU  0 inst:   86000003 cyc:   70240343 now IPC :1.22465: AVG IPC :1.21282: L2-Pf-HR :0.98728: L2-HR :0.93376: (Sim:0h7m13s) 
CPU  0 inst:   87000000 cyc:   71155226 now IPC :1.09303: AVG IPC :1.21126: L2-Pf-HR :0.98728: L2-HR :0.93363: (Sim:0h7m19s) 
CPU  0 inst:   88000000 cyc:   71988900 now IPC :1.19951: AVG IPC :1.21112: L2-Pf-HR :0.98729: L2-HR :0.93364: (Sim:0h7m24s) 
CPU  0 inst:   89000000 cyc:   72801541 now IPC :1.23056: AVG IPC :1.21134: L2-Pf-HR :0.98729: L2-HR :0.93363: (Sim:0h7m29s) 
CPU  0 inst:   90000002 cyc:   73608217 now IPC :1.23966: AVG IPC :1.21166: L2-Pf-HR :0.98730: L2-HR :0.93363: (Sim:0h7m35s) 
CPU  0 inst:   91000002 cyc:   74417149 now IPC :1.23620: AVG IPC :1.21193: L2-Pf-HR :0.98731: L2-HR :0.93363: (Sim:0h7m40s) 
CPU  0 inst:   92000000 cyc:   75221868 now IPC :1.24267: AVG IPC :1.21226: L2-Pf-HR :0.98732: L2-HR :0.93364: (Sim:0h7m45s) 
CPU  0 inst:   93000000 cyc:   76105396 now IPC :1.13183: AVG IPC :1.21131: L2-Pf-HR :0.98732: L2-HR :0.93360: (Sim:0h7m51s) 
CPU  0 inst:   94000002 cyc:   76919804 now IPC :1.22789: AVG IPC :1.21149: L2-Pf-HR :0.98731: L2-HR :0.93358: (Sim:0h7m56s) 
CPU  0 inst:   95000002 cyc:   77726301 now IPC :1.23993: AVG IPC :1.21179: L2-Pf-HR :0.98731: L2-HR :0.93356: (Sim:0h8m1s) 
CPU  0 inst:   96000000 cyc:   78531199 now IPC :1.24239: AVG IPC :1.21211: L2-Pf-HR :0.98730: L2-HR :0.93353: (Sim:0h8m7s) 
CPU  0 inst:   97000002 cyc:   79440169 now IPC :1.10015: AVG IPC :1.21081: L2-Pf-HR :0.98723: L2-HR :0.93335: (Sim:0h8m12s) 
CPU  0 inst:   98000002 cyc:   80287851 now IPC :1.17969: AVG IPC :1.21048: L2-Pf-HR :0.98724: L2-HR :0.93330: (Sim:0h8m18s) 
CPU  0 inst:   99000000 cyc:   81108524 now IPC :1.21851: AVG IPC :1.21056: L2-Pf-HR :0.98724: L2-HR :0.93324: (Sim:0h8m23s) 
CPU  0 inst:  100000000 cyc:   81932852 now IPC :1.21311: AVG IPC :1.21059: L2-Pf-HR :0.98725: L2-HR :0.93319: (Sim:0h8m28s) 
CPU  0 inst:  101000000 cyc:   82757677 now IPC :1.21238: AVG IPC :1.21061: L2-Pf-HR :0.98726: L2-HR :0.93313: (Sim:0h8m34s) 
CPU  0 inst:  102000001 cyc:   83586443 now IPC :1.20661: AVG IPC :1.21057: L2-Pf-HR :0.98726: L2-HR :0.93308: (Sim:0h8m39s) 
CPU  0 inst:  103000001 cyc:   84429378 now IPC :1.18633: AVG IPC :1.21032: L2-Pf-HR :0.98727: L2-HR :0.93306: (Sim:0h8m44s) 
CPU  0 inst:  104000000 cyc:   85351958 now IPC :1.08392: AVG IPC :1.20894: L2-Pf-HR :0.98728: L2-HR :0.93295: (Sim:0h8m50s) 
CPU  0 inst:  105000000 cyc:   86163527 now IPC :1.23218: AVG IPC :1.20916: L2-Pf-HR :0.98728: L2-HR :0.93293: (Sim:0h8m55s) 
CPU  0 inst:  106000003 cyc:   86975441 now IPC :1.23166: AVG IPC :1.20937: L2-Pf-HR :0.98728: L2-HR :0.93292: (Sim:0h9m0s) 
CPU  0 inst:  107000002 cyc:   87783754 now IPC :1.23714: AVG IPC :1.20963: L2-Pf-HR :0.98729: L2-HR :0.93292: (Sim:0h9m6s) 
CPU  0 inst:  108000000 cyc:   88592684 now IPC :1.23620: AVG IPC :1.20988: L2-Pf-HR :0.98729: L2-HR :0.93291: (Sim:0h9m9s) 
CPU  0 inst:  109000002 cyc:   89409459 now IPC :1.22433: AVG IPC :1.21001: L2-Pf-HR :0.98730: L2-HR :0.93293: (Sim:0h9m13s) 
CPU  0 inst:  110000001 cyc:   90284995 now IPC :1.14216: AVG IPC :1.20934: L2-Pf-HR :0.98729: L2-HR :0.93284: (Sim:0h9m17s) 
CPU  0 inst:  111000000 cyc:   91089817 now IPC :1.24251: AVG IPC :1.20964: L2-Pf-HR :0.98728: L2-HR :0.93281: (Sim:0h9m21s) 
CPU  0 inst:  112000000 cyc:   91890428 now IPC :1.24905: AVG IPC :1.20999: L2-Pf-HR :0.98728: L2-HR :0.93278: (Sim:0h9m26s) 
CPU  0 inst:  113000003 cyc:   92692617 now IPC :1.24659: AVG IPC :1.21031: L2-Pf-HR :0.98727: L2-HR :0.93276: (Sim:0h9m32s) 
CPU  0 inst:  114000003 cyc:   93633641 now IPC :1.06267: AVG IPC :1.20881: L2-Pf-HR :0.98722: L2-HR :0.93257: (Sim:0h9m37s) 
CPU  0 inst:  115000002 cyc:   94457962 now IPC :1.21312: AVG IPC :1.20885: L2-Pf-HR :0.98722: L2-HR :0.93251: (Sim:0h9m43s) 
CPU  0 inst:  116000000 cyc:   95282680 now IPC :1.21253: AVG IPC :1.20888: L2-Pf-HR :0.98722: L2-HR :0.93246: (Sim:0h9m48s) 
CPU  0 inst:  117000001 cyc:   96109416 now IPC :1.20958: AVG IPC :1.20888: L2-Pf-HR :0.98722: L2-HR :0.93240: (Sim:0h9m53s) 
CPU  0 inst:  118000001 cyc:   96937806 now IPC :1.20716: AVG IPC :1.20887: L2-Pf-HR :0.98723: L2-HR :0.93235: (Sim:0h9m59s) 
CPU  0 inst:  119000002 cyc:   97769979 now IPC :1.20167: AVG IPC :1.20881: L2-Pf-HR :0.98723: L2-HR :0.93229: (Sim:0h10m4s) 
CPU  0 inst:  120000000 cyc:   98694579 now IPC :1.08155: AVG IPC :1.20760: L2-Pf-HR :0.98724: L2-HR :0.93221: (Sim:0h10m10s) 
CPU  0 inst:  121000000 cyc:   99494642 now IPC :1.24990: AVG IPC :1.20795: L2-Pf-HR :0.98724: L2-HR :0.93219: (Sim:0h10m15s) 
CPU  0 inst:  122000000 cyc:  100287621 now IPC :1.26107: AVG IPC :1.20837: L2-Pf-HR :0.98724: L2-HR :0.93218: (Sim:0h10m21s) 
CPU  0 inst:  123000002 cyc:  101081622 now IPC :1.25945: AVG IPC :1.20878: L2-Pf-HR :0.98724: L2-HR :0.93217: (Sim:0h10m25s) 
CPU  0 inst:  124000000 cyc:  101872691 now IPC :1.26411: AVG IPC :1.20921: L2-Pf-HR :0.98724: L2-HR :0.93216: (Sim:0h10m29s) 
CPU  0 inst:  125000003 cyc:  102665484 now IPC :1.26137: AVG IPC :1.20962: L2-Pf-HR :0.98724: L2-HR :0.93215: (Sim:0h10m34s) 
CPU  0 inst:  126000003 cyc:  103549014 now IPC :1.13182: AVG IPC :1.20895: L2-Pf-HR :0.98724: L2-HR :0.93208: (Sim:0h10m40s) 
CPU  0 inst:  127000001 cyc:  104352985 now IPC :1.24382: AVG IPC :1.20922: L2-Pf-HR :0.98723: L2-HR :0.93205: (Sim:0h10m45s) 
CPU  0 inst:  128000000 cyc:  105154507 now IPC :1.24763: AVG IPC :1.20951: L2-Pf-HR :0.98722: L2-HR :0.93201: (Sim:0h10m51s) 
CPU  0 inst:  129000003 cyc:  105953286 now IPC :1.25191: AVG IPC :1.20984: L2-Pf-HR :0.98721: L2-HR :0.93197: (Sim:0h10m56s) 
CPU  0 inst:  130000000 cyc:  106887273 now IPC :1.07068: AVG IPC :1.20861: L2-Pf-HR :0.98717: L2-HR :0.93181: (Sim:0h11m1s) 
CPU  0 inst:  131000001 cyc:  107705071 now IPC :1.22280: AVG IPC :1.20872: L2-Pf-HR :0.98718: L2-HR :0.93175: (Sim:0h11m6s) 
CPU  0 inst:  132000000 cyc:  108521881 now IPC :1.22427: AVG IPC :1.20884: L2-Pf-HR :0.98718: L2-HR :0.93170: (Sim:0h11m9s) 
CPU  0 inst:  133000002 cyc:  109340007 now IPC :1.22231: AVG IPC :1.20894: L2-Pf-HR :0.98718: L2-HR :0.93164: (Sim:0h11m14s) 
CPU  0 inst:  134000003 cyc:  110160961 now IPC :1.21810: AVG IPC :1.20901: L2-Pf-HR :0.98717: L2-HR :0.93158: (Sim:0h11m17s) 
CPU  0 inst:  135000002 cyc:  110985452 now IPC :1.21287: AVG IPC :1.20904: L2-Pf-HR :0.98717: L2-HR :0.93152: (Sim:0h11m22s) 
CPU  0 inst:  136000000 cyc:  111924530 now IPC :1.06487: AVG IPC :1.20782: L2-Pf-HR :0.98717: L2-HR :0.93144: (Sim:0h11m26s) 
CPU  0 inst:  137000000 cyc:  112737858 now IPC :1.22952: AVG IPC :1.20797: L2-Pf-HR :0.98718: L2-HR :0.93142: (Sim:0h11m30s) 
CPU  0 inst:  138000003 cyc:  113550420 now IPC :1.23068: AVG IPC :1.20814: L2-Pf-HR :0.98718: L2-HR :0.93139: (Sim:0h11m35s) 
CPU  0 inst:  139000000 cyc:  114360205 now IPC :1.23489: AVG IPC :1.20833: L2-Pf-HR :0.98718: L2-HR :0.93137: (Sim:0h11m41s) 
CPU  0 inst:  140000000 cyc:  115170181 now IPC :1.23460: AVG IPC :1.20851: L2-Pf-HR :0.98718: L2-HR :0.93134: (Sim:0h11m46s) 
CPU  0 inst:  141000002 cyc:  115982972 now IPC :1.23033: AVG IPC :1.20867: L2-Pf-HR :0.98718: L2-HR :0.93132: (Sim:0h11m52s) 
CPU  0 inst:  142000003 cyc:  116868478 now IPC :1.12930: AVG IPC :1.20806: L2-Pf-HR :0.98717: L2-HR :0.93126: (Sim:0h11m57s) 
CPU  0 inst:  143000002 cyc:  117672746 now IPC :1.24337: AVG IPC :1.20831: L2-Pf-HR :0.98716: L2-HR :0.93121: (Sim:0h12m3s) 
CPU  0 inst:  144000000 cyc:  118474906 now IPC :1.24663: AVG IPC :1.20857: L2-Pf-HR :0.98715: L2-HR :0.93118: (Sim:0h12m8s) 
CPU  0 inst:  145000003 cyc:  119273346 now IPC :1.25245: AVG IPC :1.20886: L2-Pf-HR :0.98715: L2-HR :0.93114: (Sim:0h12m13s) 
CPU  0 inst:  146000001 cyc:  120212432 now IPC :1.06486: AVG IPC :1.20773: L2-Pf-HR :0.98710: L2-HR :0.93098: (Sim:0h12m19s) 
CPU  0 inst:  147000000 cyc:  121035037 now IPC :1.21565: AVG IPC :1.20778: L2-Pf-HR :0.98710: L2-HR :0.93092: (Sim:0h12m24s) 
CPU  0 inst:  148000000 cyc:  121859522 now IPC :1.21288: AVG IPC :1.20782: L2-Pf-HR :0.98710: L2-HR :0.93087: (Sim:0h12m30s) 
CPU  0 inst:  149000003 cyc:  122685360 now IPC :1.21089: AVG IPC :1.20784: L2-Pf-HR :0.98710: L2-HR :0.93081: (Sim:0h12m35s) 
CPU  0 inst:  150000000 cyc:  123514305 now IPC :1.20635: AVG IPC :1.20783: L2-Pf-HR :0.98710: L2-HR :0.93075: (Sim:0h12m41s) 
CPU  0 inst:  151000003 cyc:  124347635 now IPC :1.20001: AVG IPC :1.20778: L2-Pf-HR :0.98710: L2-HR :0.93069: (Sim:0h12m46s) 
CPU  0 inst:  152000000 cyc:  125293360 now IPC :1.05739: AVG IPC :1.20663: L2-Pf-HR :0.98710: L2-HR :0.93061: (Sim:0h12m51s) 
CPU  0 inst:  153000000 cyc:  126119059 now IPC :1.21110: AVG IPC :1.20666: L2-Pf-HR :0.98711: L2-HR :0.93058: (Sim:0h12m55s) 
CPU  0 inst:  154000003 cyc:  126931939 now IPC :1.23020: AVG IPC :1.20681: L2-Pf-HR :0.98711: L2-HR :0.93056: (Sim:0h12m59s) 
CPU  0 inst:  155000002 cyc:  127741984 now IPC :1.23450: AVG IPC :1.20699: L2-Pf-HR :0.98711: L2-HR :0.93053: (Sim:0h13m3s) 
CPU  0 inst:  156000000 cyc:  128552622 now IPC :1.23359: AVG IPC :1.20716: L2-Pf-HR :0.98710: L2-HR :0.93050: (Sim:0h13m7s) 
CPU  0 inst:  157000002 cyc:  129366158 now IPC :1.22920: AVG IPC :1.20730: L2-Pf-HR :0.98710: L2-HR :0.93048: (Sim:0h13m11s) 
CPU  0 inst:  158000000 cyc:  130254294 now IPC :1.12595: AVG IPC :1.20674: L2-Pf-HR :0.98709: L2-HR :0.93042: (Sim:0h13m15s) 
CPU  0 inst:  159000001 cyc:  131070100 now IPC :1.22578: AVG IPC :1.20686: L2-Pf-HR :0.98708: L2-HR :0.93039: (Sim:0h13m19s) 
CPU  0 inst:  160000000 cyc:  131881078 now IPC :1.23308: AVG IPC :1.20702: L2-Pf-HR :0.98708: L2-HR :0.93035: (Sim:0h13m23s) 
CPU  0 inst:  161000001 cyc:  132688563 now IPC :1.23841: AVG IPC :1.20721: L2-Pf-HR :0.98707: L2-HR :0.93031: (Sim:0h13m27s) 
CPU  0 inst:  162000002 cyc:  133611860 now IPC :1.08308: AVG IPC :1.20635: L2-Pf-HR :0.98703: L2-HR :0.93017: (Sim:0h13m32s) 
CPU  0 inst:  163000001 cyc:  134413899 now IPC :1.24682: AVG IPC :1.20659: L2-Pf-HR :0.98702: L2-HR :0.93011: (Sim:0h13m36s) 
CPU  0 inst:  164000000 cyc:  135219062 now IPC :1.24198: AVG IPC :1.20681: L2-Pf-HR :0.98702: L2-HR :0.93005: (Sim:0h13m40s) 
CPU  0 inst:  165000001 cyc:  136023358 now IPC :1.24332: AVG IPC :1.20702: L2-Pf-HR :0.98702: L2-HR :0.93000: (Sim:0h13m45s) 
CPU  0 inst:  166000001 cyc:  136830977 now IPC :1.23821: AVG IPC :1.20721: L2-Pf-HR :0.98702: L2-HR :0.92994: (Sim:0h13m50s) 
CPU  0 inst:  167000001 cyc:  137640802 now IPC :1.23483: AVG IPC :1.20737: L2-Pf-HR :0.98701: L2-HR :0.92988: (Sim:0h13m56s) 
CPU  0 inst:  168000000 cyc:  138576038 now IPC :1.06925: AVG IPC :1.20643: L2-Pf-HR :0.98701: L2-HR :0.92979: (Sim:0h14m1s) 
CPU  0 inst:  169000002 cyc:  139392830 now IPC :1.22430: AVG IPC :1.20654: L2-Pf-HR :0.98701: L2-HR :0.92975: (Sim:0h14m6s) 
CPU  0 inst:  170000003 cyc:  140204746 now IPC :1.23166: AVG IPC :1.20669: L2-Pf-HR :0.98701: L2-HR :0.92972: (Sim:0h14m11s) 
CPU  0 inst:  171000002 cyc:  141012817 now IPC :1.23751: AVG IPC :1.20686: L2-Pf-HR :0.98701: L2-HR :0.92969: (Sim:0h14m15s) 
CPU  0 inst:  172000000 cyc:  141823569 now IPC :1.23342: AVG IPC :1.20702: L2-Pf-HR :0.98700: L2-HR :0.92966: (Sim:0h14m19s) 
CPU  0 inst:  173000002 cyc:  142633859 now IPC :1.23413: AVG IPC :1.20717: L2-Pf-HR :0.98700: L2-HR :0.92963: (Sim:0h14m23s) 
CPU  0 inst:  174000002 cyc:  143517422 now IPC :1.13178: AVG IPC :1.20670: L2-Pf-HR :0.98699: L2-HR :0.92957: (Sim:0h14m27s) 
CPU  0 inst:  175000003 cyc:  144325274 now IPC :1.23785: AVG IPC :1.20688: L2-Pf-HR :0.98698: L2-HR :0.92952: (Sim:0h14m33s) 
CPU  0 inst:  176000000 cyc:  145125446 now IPC :1.24973: AVG IPC :1.20712: L2-Pf-HR :0.98696: L2-HR :0.92948: (Sim:0h14m38s) 
CPU  0 inst:  177000001 cyc:  145925167 now IPC :1.25044: AVG IPC :1.20736: L2-Pf-HR :0.98695: L2-HR :0.92943: (Sim:0h14m44s) 
CPU  0 inst:  178000003 cyc:  146861710 now IPC :1.06776: AVG IPC :1.20646: L2-Pf-HR :0.98691: L2-HR :0.92930: (Sim:0h14m50s) 
CPU  0 inst:  179000003 cyc:  147685504 now IPC :1.21390: AVG IPC :1.20650: L2-Pf-HR :0.98691: L2-HR :0.92924: (Sim:0h14m56s) 
CPU  0 inst:  180000000 cyc:  148510520 now IPC :1.21209: AVG IPC :1.20653: L2-Pf-HR :0.98691: L2-HR :0.92918: (Sim:0h15m1s) 
CPU  0 inst:  181000001 cyc:  149337870 now IPC :1.20868: AVG IPC :1.20655: L2-Pf-HR :0.98691: L2-HR :0.92913: (Sim:0h15m7s) 
CPU  0 inst:  182000001 cyc:  150170590 now IPC :1.20088: AVG IPC :1.20651: L2-Pf-HR :0.98690: L2-HR :0.92907: (Sim:0h15m12s) 
CPU  0 inst:  183000001 cyc:  151001694 now IPC :1.20322: AVG IPC :1.20650: L2-Pf-HR :0.98690: L2-HR :0.92902: (Sim:0h15m18s) 
CPU  0 inst:  184000000 cyc:  151945399 now IPC :1.05965: AVG IPC :1.20558: L2-Pf-HR :0.98690: L2-HR :0.92893: (Sim:0h15m23s) 
CPU  0 inst:  185000003 cyc:  152762533 now IPC :1.22379: AVG IPC :1.20568: L2-Pf-HR :0.98690: L2-HR :0.92890: (Sim:0h15m27s) 
CPU  0 inst:  186000003 cyc:  153575621 now IPC :1.22988: AVG IPC :1.20580: L2-Pf-HR :0.98690: L2-HR :0.92887: (Sim:0h15m31s) 
CPU  0 inst:  187000002 cyc:  154383636 now IPC :1.23760: AVG IPC :1.20597: L2-Pf-HR :0.98689: L2-HR :0.92884: (Sim:0h15m35s) 
CPU  0 inst:  188000000 cyc:  155191183 now IPC :1.23832: AVG IPC :1.20614: L2-Pf-HR :0.98689: L2-HR :0.92882: (Sim:0h15m39s) 
CPU  0 inst:  189000002 cyc:  155999227 now IPC :1.23756: AVG IPC :1.20631: L2-Pf-HR :0.98689: L2-HR :0.92879: (Sim:0h15m43s) 
CPU  0 inst:  190000003 cyc:  156886342 now IPC :1.12725: AVG IPC :1.20586: L2-Pf-HR :0.98688: L2-HR :0.92874: (Sim:0h15m48s) 
CPU  0 inst:  191000003 cyc:  157677116 now IPC :1.26458: AVG IPC :1.20615: L2-Pf-HR :0.98687: L2-HR :0.92871: (Sim:0h15m54s) 
CPU  0 inst:  192000000 cyc:  158463608 now IPC :1.27146: AVG IPC :1.20648: L2-Pf-HR :0.98686: L2-HR :0.92867: (Sim:0h15m59s) 
CPU  0 inst:  193000001 cyc:  159247768 now IPC :1.27525: AVG IPC :1.20682: L2-Pf-HR :0.98685: L2-HR :0.92862: (Sim:0h16m5s) 
CPU  0 inst:  194000001 cyc:  160164740 now IPC :1.09055: AVG IPC :1.20615: L2-Pf-HR :0.98682: L2-HR :0.92850: (Sim:0h16m10s) 
CPU  0 inst:  195000000 cyc:  160981011 now IPC :1.22508: AVG IPC :1.20625: L2-Pf-HR :0.98681: L2-HR :0.92845: (Sim:0h16m16s) 
CPU  0 inst:  196000000 cyc:  161796763 now IPC :1.22586: AVG IPC :1.20635: L2-Pf-HR :0.98681: L2-HR :0.92839: (Sim:0h16m20s) 
CPU  0 inst:  197000003 cyc:  162618183 now IPC :1.21741: AVG IPC :1.20640: L2-Pf-HR :0.98680: L2-HR :0.92834: (Sim:0h16m24s) 
CPU  0 inst:  198000000 cyc:  163439750 now IPC :1.21718: AVG IPC :1.20646: L2-Pf-HR :0.98680: L2-HR :0.92828: (Sim:0h16m28s) 
CPU  0 inst:  199000002 cyc:  164265669 now IPC :1.21077: AVG IPC :1.20648: L2-Pf-HR :0.98680: L2-HR :0.92822: (Sim:0h16m33s) 
CPU  0 inst:  200000000 cyc:  165205149 now IPC :1.06442: AVG IPC :1.20566: L2-Pf-HR :0.98679: L2-HR :0.92813: (Sim:0h16m38s) 
CPU  0 inst:  201000003 cyc:  166035113 now IPC :1.20488: AVG IPC :1.20566: L2-Pf-HR :0.98679: L2-HR :0.92809: (Sim:0h16m44s) 
CPU  0 inst:  202000003 cyc:  166863277 now IPC :1.20749: AVG IPC :1.20567: L2-Pf-HR :0.98679: L2-HR :0.92806: (Sim:0h16m49s) 
CPU  0 inst:  203000002 cyc:  167681522 now IPC :1.22213: AVG IPC :1.20575: L2-Pf-HR :0.98679: L2-HR :0.92803: (Sim:0h16m55s) 
CPU  0 inst:  204000000 cyc:  168498737 now IPC :1.22367: AVG IPC :1.20584: L2-Pf-HR :0.98679: L2-HR :0.92800: (Sim:0h17m0s) 
CPU  0 inst:  205000002 cyc:  169317186 now IPC :1.22183: AVG IPC :1.20592: L2-Pf-HR :0.98678: L2-HR :0.92797: (Sim:0h17m6s) 
CPU  0 inst:  206000002 cyc:  170214129 now IPC :1.11490: AVG IPC :1.20543: L2-Pf-HR :0.98678: L2-HR :0.92792: (Sim:0h17m12s) 
CPU  0 inst:  207000003 cyc:  171014180 now IPC :1.24992: AVG IPC :1.20564: L2-Pf-HR :0.98676: L2-HR :0.92787: (Sim:0h17m16s) 
CPU  0 inst:  208000000 cyc:  171808906 now IPC :1.25829: AVG IPC :1.20589: L2-Pf-HR :0.98675: L2-HR :0.92782: (Sim:0h17m21s) 
CPU  0 inst:  209000003 cyc:  172599893 now IPC :1.26425: AVG IPC :1.20616: L2-Pf-HR :0.98674: L2-HR :0.92777: (Sim:0h17m27s) 
CPU  0 inst:  210000002 cyc:  173508284 now IPC :1.10085: AVG IPC :1.20560: L2-Pf-HR :0.98670: L2-HR :0.92765: (Sim:0h17m32s) 
CPU  0 inst:  211000001 cyc:  174337797 now IPC :1.20553: AVG IPC :1.20560: L2-Pf-HR :0.98670: L2-HR :0.92760: (Sim:0h17m36s) 
CPU  0 inst:  212000000 cyc:  175159434 now IPC :1.21708: AVG IPC :1.20566: L2-Pf-HR :0.98669: L2-HR :0.92754: (Sim:0h17m40s) 
CPU  0 inst:  213000003 cyc:  175982353 now IPC :1.21519: AVG IPC :1.20570: L2-Pf-HR :0.98669: L2-HR :0.92749: (Sim:0h17m45s) 
CPU  0 inst:  214000000 cyc:  176808987 now IPC :1.20972: AVG IPC :1.20572: L2-Pf-HR :0.98669: L2-HR :0.92743: (Sim:0h17m50s) 
CPU  0 inst:  215000002 cyc:  177629879 now IPC :1.21819: AVG IPC :1.20578: L2-Pf-HR :0.98668: L2-HR :0.92737: (Sim:0h17m55s) 
CPU  0 inst:  216000000 cyc:  178523237 now IPC :1.11937: AVG IPC :1.20534: L2-Pf-HR :0.98668: L2-HR :0.92729: (Sim:0h18m1s) 
CPU  0 inst:  217000002 cyc:  179398661 now IPC :1.14231: AVG IPC :1.20503: L2-Pf-HR :0.98667: L2-HR :0.92723: (Sim:0h18m7s) 
CPU  0 inst:  218000003 cyc:  180213624 now IPC :1.22705: AVG IPC :1.20513: L2-Pf-HR :0.98667: L2-HR :0.92720: (Sim:0h18m11s) 
CPU  0 inst:  219000002 cyc:  181032202 now IPC :1.22163: AVG IPC :1.20521: L2-Pf-HR :0.98667: L2-HR :0.92716: (Sim:0h18m16s) 
CPU  0 inst:  220000000 cyc:  181841008 now IPC :1.23639: AVG IPC :1.20535: L2-Pf-HR :0.98667: L2-HR :0.92713: (Sim:0h18m22s) 
CPU  0 inst:  221000002 cyc:  182648911 now IPC :1.23777: AVG IPC :1.20549: L2-Pf-HR :0.98666: L2-HR :0.92710: (Sim:0h18m27s) 
CPU  0 inst:  222000000 cyc:  183497591 now IPC :1.17830: AVG IPC :1.20537: L2-Pf-HR :0.98665: L2-HR :0.92706: (Sim:0h18m33s) 
CPU  0 inst:  223000002 cyc:  184351594 now IPC :1.17096: AVG IPC :1.20521: L2-Pf-HR :0.98664: L2-HR :0.92700: (Sim:0h18m38s) 
CPU  0 inst:  224000000 cyc:  185161242 now IPC :1.23510: AVG IPC :1.20534: L2-Pf-HR :0.98663: L2-HR :0.92695: (Sim:0h18m44s) 
CPU  0 inst:  225000003 cyc:  185964709 now IPC :1.24461: AVG IPC :1.20551: L2-Pf-HR :0.98661: L2-HR :0.92689: (Sim:0h18m49s) 
CPU  0 inst:  226000002 cyc:  186794698 now IPC :1.20483: AVG IPC :1.20550: L2-Pf-HR :0.98660: L2-HR :0.92684: (Sim:0h18m55s) 
CPU  0 inst:  227000002 cyc:  187722350 now IPC :1.07799: AVG IPC :1.20487: L2-Pf-HR :0.98657: L2-HR :0.92672: (Sim:0h19m1s) 
CPU  0 inst:  228000000 cyc:  188555193 now IPC :1.20070: AVG IPC :1.20485: L2-Pf-HR :0.98657: L2-HR :0.92666: (Sim:0h19m6s) 
CPU  0 inst:  229000001 cyc:  189392530 now IPC :1.19426: AVG IPC :1.20481: L2-Pf-HR :0.98656: L2-HR :0.92661: (Sim:0h19m10s) 
CPU  0 inst:  230000001 cyc:  190229745 now IPC :1.19444: AVG IPC :1.20476: L2-Pf-HR :0.98655: L2-HR :0.92655: (Sim:0h19m14s) 
CPU  0 inst:  231000000 cyc:  191073501 now IPC :1.18518: AVG IPC :1.20467: L2-Pf-HR :0.98655: L2-HR :0.92649: (Sim:0h19m18s) 
CPU  0 inst:  232000000 cyc:  191921058 now IPC :1.17986: AVG IPC :1.20456: L2-Pf-HR :0.98654: L2-HR :0.92643: (Sim:0h19m22s) 
CPU  0 inst:  233000002 cyc:  192864353 now IPC :1.06012: AVG IPC :1.20385: L2-Pf-HR :0.98654: L2-HR :0.92635: (Sim:0h19m26s) 
CPU  0 inst:  234000002 cyc:  193687266 now IPC :1.21520: AVG IPC :1.20390: L2-Pf-HR :0.98654: L2-HR :0.92632: (Sim:0h19m32s) 
CPU  0 inst:  235000003 cyc:  194506221 now IPC :1.22107: AVG IPC :1.20397: L2-Pf-HR :0.98653: L2-HR :0.92628: (Sim:0h19m37s) 
CPU  0 inst:  236000000 cyc:  195321318 now IPC :1.22684: AVG IPC :1.20407: L2-Pf-HR :0.98653: L2-HR :0.92624: (Sim:0h19m43s) 
CPU  0 inst:  237000002 cyc:  196137940 now IPC :1.22456: AVG IPC :1.20416: L2-Pf-HR :0.98652: L2-HR :0.92620: (Sim:0h19m48s) 
CPU  0 inst:  238000002 cyc:  196949045 now IPC :1.23289: AVG IPC :1.20427: L2-Pf-HR :0.98651: L2-HR :0.92617: (Sim:0h19m53s) 
CPU  0 inst:  239000000 cyc:  197834781 now IPC :1.12900: AVG IPC :1.20394: L2-Pf-HR :0.98650: L2-HR :0.92609: (Sim:0h19m57s) 
CPU  0 inst:  240000000 cyc:  198634249 now IPC :1.25083: AVG IPC :1.20413: L2-Pf-HR :0.98648: L2-HR :0.92602: (Sim:0h20m1s) 
CPU  0 inst:  241000001 cyc:  199432505 now IPC :1.25273: AVG IPC :1.20432: L2-Pf-HR :0.98647: L2-HR :0.92596: (Sim:0h20m5s) 
CPU  0 inst:  242000002 cyc:  200226958 now IPC :1.25873: AVG IPC :1.20454: L2-Pf-HR :0.98645: L2-HR :0.92590: (Sim:0h20m9s) 
CPU  0 inst:  243000003 cyc:  201164777 now IPC :1.06630: AVG IPC :1.20389: L2-Pf-HR :0.98642: L2-HR :0.92577: (Sim:0h20m15s) 
CPU  0 inst:  244000000 cyc:  201994671 now IPC :1.20497: AVG IPC :1.20389: L2-Pf-HR :0.98641: L2-HR :0.92571: (Sim:0h20m20s) 
CPU  0 inst:  245000002 cyc:  202822627 now IPC :1.20780: AVG IPC :1.20391: L2-Pf-HR :0.98640: L2-HR :0.92564: (Sim:0h20m26s) 
CPU  0 inst:  246000002 cyc:  203656367 now IPC :1.19941: AVG IPC :1.20389: L2-Pf-HR :0.98640: L2-HR :0.92558: (Sim:0h20m32s) 
CPU  0 inst:  247000003 cyc:  204489833 now IPC :1.19981: AVG IPC :1.20388: L2-Pf-HR :0.98639: L2-HR :0.92551: (Sim:0h20m37s) 
CPU  0 inst:  248000000 cyc:  205328922 now IPC :1.19177: AVG IPC :1.20383: L2-Pf-HR :0.98638: L2-HR :0.92545: (Sim:0h20m43s) 
CPU  0 inst:  249000002 cyc:  206267311 now IPC :1.06566: AVG IPC :1.20319: L2-Pf-HR :0.98638: L2-HR :0.92537: (Sim:0h20m49s) 
CPU  0 inst:  250000003 cyc:  207083162 now IPC :1.22572: AVG IPC :1.20328: L2-Pf-HR :0.98637: L2-HR :0.92533: (Sim:0h20m55s) 
CPU  0 inst:  251000002 cyc:  207896236 now IPC :1.22990: AVG IPC :1.20339: L2-Pf-HR :0.98636: L2-HR :0.92528: (Sim:0h21m0s) 
CPU  0 inst:  252000000 cyc:  208707915 now IPC :1.23201: AVG IPC :1.20350: L2-Pf-HR :0.98636: L2-HR :0.92524: (Sim:0h21m6s) 
CPU  0 inst:  253000002 cyc:  209514654 now IPC :1.23956: AVG IPC :1.20364: L2-Pf-HR :0.98635: L2-HR :0.92520: (Sim:0h21m11s) 
CPU  0 inst:  254000002 cyc:  210328637 now IPC :1.22853: AVG IPC :1.20374: L2-Pf-HR :0.98634: L2-HR :0.92516: (Sim:0h21m17s) 
CPU  0 inst:  255000002 cyc:  211216629 now IPC :1.12614: AVG IPC :1.20341: L2-Pf-HR :0.98633: L2-HR :0.92508: (Sim:0h21m22s) 
CPU  0 inst:  256000000 cyc:  212026326 now IPC :1.23503: AVG IPC :1.20353: L2-Pf-HR :0.98631: L2-HR :0.92502: (Sim:0h21m28s) 
CPU  0 inst:  257000001 cyc:  212831704 now IPC :1.24165: AVG IPC :1.20367: L2-Pf-HR :0.98629: L2-HR :0.92496: (Sim:0h21m33s) 
CPU  0 inst:  258000001 cyc:  213633311 now IPC :1.24749: AVG IPC :1.20384: L2-Pf-HR :0.98628: L2-HR :0.92490: (Sim:0h21m39s) 
CPU  0 inst:  259000001 cyc:  218360839 now IPC :0.21153: AVG IPC :1.18226: L2-Pf-HR :0.98627: L2-HR :0.92222: (Sim:0h21m56s) 
CPU  0 inst:  260000000 cyc:  224770941 now IPC :0.15600: AVG IPC :1.15286: L2-Pf-HR :0.98627: L2-HR :0.91848: (Sim:0h22m19s) 
CPU  0 inst:  261000000 cyc:  231170149 now IPC :0.15627: AVG IPC :1.12516: L2-Pf-HR :0.98627: L2-HR :0.91481: (Sim:0h22m42s) 
CPU  0 inst:  262000001 cyc:  237565747 now IPC :0.15636: AVG IPC :1.09897: L2-Pf-HR :0.98627: L2-HR :0.91120: (Sim:0h23m5s) 
CPU  0 inst:  263000000 cyc:  243961310 now IPC :0.15636: AVG IPC :1.07416: L2-Pf-HR :0.98627: L2-HR :0.90766: (Sim:0h23m29s) 
CPU  0 inst:  264000000 cyc:  250354672 now IPC :0.15641: AVG IPC :1.05063: L2-Pf-HR :0.98627: L2-HR :0.90418: (Sim:0h23m51s) 
CPU  0 inst:  265000000 cyc:  256761344 now IPC :0.15609: AVG IPC :1.02822: L2-Pf-HR :0.98627: L2-HR :0.90075: (Sim:0h24m8s) 
CPU  0 inst:  266000003 cyc:  263170561 now IPC :0.15603: AVG IPC :1.00690: L2-Pf-HR :0.98627: L2-HR :0.89738: (Sim:0h24m31s) 
CPU  0 inst:  267000002 cyc:  269582227 now IPC :0.15597: AVG IPC :0.98659: L2-Pf-HR :0.98627: L2-HR :0.89407: (Sim:0h24m55s) 
CPU  0 inst:  268000000 cyc:  275658975 now IPC :0.16456: AVG IPC :0.96840: L2-Pf-HR :0.98627: L2-HR :0.89147: (Sim:0h25m15s) 
CPU  0 inst:  269000000 cyc:  281126928 now IPC :0.18288: AVG IPC :0.95307: L2-Pf-HR :0.98627: L2-HR :0.89096: (Sim:0h25m27s) 
CPU  0 inst:  270000000 cyc:  286469908 now IPC :0.18716: AVG IPC :0.93874: L2-Pf-HR :0.98627: L2-HR :0.89044: (Sim:0h25m38s) 
CPU  0 inst:  271000000 cyc:  291502336 now IPC :0.19871: AVG IPC :0.92592: L2-Pf-HR :0.98627: L2-HR :0.88993: (Sim:0h25m49s) 
CPU  0 inst:  272000000 cyc:  296433046 now IPC :0.20281: AVG IPC :0.91385: L2-Pf-HR :0.98627: L2-HR :0.88942: (Sim:0h26m0s) 
CPU  0 inst:  273000000 cyc:  301309472 now IPC :0.20507: AVG IPC :0.90234: L2-Pf-HR :0.98627: L2-HR :0.88891: (Sim:0h26m10s) 
CPU  0 inst:  274000002 cyc:  306382841 now IPC :0.19711: AVG IPC :0.89063: L2-Pf-HR :0.98627: L2-HR :0.88840: (Sim:0h26m21s) 
CPU  0 inst:  275000001 cyc:  311396951 now IPC :0.19944: AVG IPC :0.87946: L2-Pf-HR :0.98627: L2-HR :0.88789: (Sim:0h26m32s) 
CPU  0 inst:  276000000 cyc:  316402881 now IPC :0.19976: AVG IPC :0.86868: L2-Pf-HR :0.98627: L2-HR :0.88739: (Sim:0h26m43s) 
CPU  0 inst:  277000000 cyc:  321503192 now IPC :0.19607: AVG IPC :0.85797: L2-Pf-HR :0.98627: L2-HR :0.88688: (Sim:0h26m51s) 
CPU  0 inst:  278000000 cyc:  326502166 now IPC :0.20004: AVG IPC :0.84787: L2-Pf-HR :0.98627: L2-HR :0.88637: (Sim:0h26m59s) 
CPU  0 inst:  279000000 cyc:  331535162 now IPC :0.19869: AVG IPC :0.83799: L2-Pf-HR :0.98627: L2-HR :0.88587: (Sim:0h27m6s) 
CPU  0 inst:  280000000 cyc:  336642599 now IPC :0.19579: AVG IPC :0.82821: L2-Pf-HR :0.98627: L2-HR :0.88537: (Sim:0h27m14s) 
CPU  0 inst:  281000002 cyc:  341598680 now IPC :0.20177: AVG IPC :0.81910: L2-Pf-HR :0.98627: L2-HR :0.88486: (Sim:0h27m21s) 
CPU  0 inst:  282000003 cyc:  346600290 now IPC :0.19994: AVG IPC :0.81014: L2-Pf-HR :0.98627: L2-HR :0.88436: (Sim:0h27m32s) 
CPU  0 inst:  283000000 cyc:  351620521 now IPC :0.19919: AVG IPC :0.80139: L2-Pf-HR :0.98627: L2-HR :0.88386: (Sim:0h27m43s) 
CPU  0 inst:  284000000 cyc:  356674074 now IPC :0.19788: AVG IPC :0.79282: L2-Pf-HR :0.98627: L2-HR :0.88336: (Sim:0h27m54s) 
CPU  0 inst:  285000003 cyc:  361774056 now IPC :0.19608: AVG IPC :0.78438: L2-Pf-HR :0.98627: L2-HR :0.88286: (Sim:0h28m5s) 
CPU  0 inst:  286000000 cyc:  366841010 now IPC :0.19736: AVG IPC :0.77625: L2-Pf-HR :0.98627: L2-HR :0.88236: (Sim:0h28m16s) 
CPU  0 inst:  287000000 cyc:  371718094 now IPC :0.20504: AVG IPC :0.76874: L2-Pf-HR :0.98627: L2-HR :0.88187: (Sim:0h28m27s) 
CPU  0 inst:  288000000 cyc:  376784212 now IPC :0.19739: AVG IPC :0.76104: L2-Pf-HR :0.98627: L2-HR :0.88137: (Sim:0h28m38s) 
CPU  0 inst:  289000003 cyc:  381864608 now IPC :0.19684: AVG IPC :0.75351: L2-Pf-HR :0.98627: L2-HR :0.88087: (Sim:0h28m46s) 
CPU  0 inst:  290000001 cyc:  386804504 now IPC :0.20243: AVG IPC :0.74645: L2-Pf-HR :0.98627: L2-HR :0.88038: (Sim:0h28m55s) 
CPU  0 inst:  291000000 cyc:  391742573 now IPC :0.20251: AVG IPC :0.73958: L2-Pf-HR :0.98627: L2-HR :0.87989: (Sim:0h29m3s) 
CPU  0 inst:  292000000 cyc:  396741415 now IPC :0.20005: AVG IPC :0.73277: L2-Pf-HR :0.98627: L2-HR :0.87939: (Sim:0h29m11s) 
CPU  0 inst:  293000002 cyc:  401800798 now IPC :0.19765: AVG IPC :0.72601: L2-Pf-HR :0.98627: L2-HR :0.87890: (Sim:0h29m18s) 
CPU  0 inst:  294000000 cyc:  406772671 now IPC :0.20113: AVG IPC :0.71958: L2-Pf-HR :0.98627: L2-HR :0.87841: (Sim:0h29m26s) 
CPU  0 inst:  295000000 cyc:  411784791 now IPC :0.19952: AVG IPC :0.71323: L2-Pf-HR :0.98627: L2-HR :0.87792: (Sim:0h29m33s) 
CPU  0 inst:  296000000 cyc:  416774342 now IPC :0.20042: AVG IPC :0.70708: L2-Pf-HR :0.98627: L2-HR :0.87743: (Sim:0h29m40s) 
CPU  0 inst:  297000003 cyc:  421614674 now IPC :0.20660: AVG IPC :0.70132: L2-Pf-HR :0.98627: L2-HR :0.87694: (Sim:0h29m48s) 
CPU  0 inst:  298000000 cyc:  426634348 now IPC :0.19922: AVG IPC :0.69540: L2-Pf-HR :0.98627: L2-HR :0.87645: (Sim:0h29m55s) 
CPU  0 inst:  299000000 cyc:  431659438 now IPC :0.19900: AVG IPC :0.68961: L2-Pf-HR :0.98627: L2-HR :0.87597: (Sim:0h30m3s) 
CPU  0 inst:  300000000 cyc:  436617035 now IPC :0.20171: AVG IPC :0.68406: L2-Pf-HR :0.98627: L2-HR :0.87548: (Sim:0h30m10s) 
CPU  0 inst:  301000000 cyc:  441398934 now IPC :0.20912: AVG IPC :0.67890: L2-Pf-HR :0.98627: L2-HR :0.87500: (Sim:0h30m17s) 
CPU  0 inst:  302000003 cyc:  446282675 now IPC :0.20476: AVG IPC :0.67370: L2-Pf-HR :0.98627: L2-HR :0.87451: (Sim:0h30m24s) 
CPU  0 inst:  303000000 cyc:  451145337 now IPC :0.20565: AVG IPC :0.66864: L2-Pf-HR :0.98627: L2-HR :0.87403: (Sim:0h30m32s) 
CPU  0 inst:  304000000 cyc:  456069486 now IPC :0.20308: AVG IPC :0.66361: L2-Pf-HR :0.98627: L2-HR :0.87355: (Sim:0h30m39s) 
CPU  0 inst:  305000001 cyc:  460805912 now IPC :0.21113: AVG IPC :0.65895: L2-Pf-HR :0.98627: L2-HR :0.87307: (Sim:0h30m46s) 
CPU  0 inst:  306000003 cyc:  465798001 now IPC :0.20032: AVG IPC :0.65402: L2-Pf-HR :0.98627: L2-HR :0.87259: (Sim:0h30m53s) 
CPU  0 inst:  307000000 cyc:  470877862 now IPC :0.19686: AVG IPC :0.64908: L2-Pf-HR :0.98627: L2-HR :0.87211: (Sim:0h31m2s) 
CPU  0 inst:  308000000 cyc:  476019105 now IPC :0.19451: AVG IPC :0.64416: L2-Pf-HR :0.98627: L2-HR :0.87163: (Sim:0h31m13s) 
CPU  0 inst:  309000000 cyc:  481153002 now IPC :0.19478: AVG IPC :0.63935: L2-Pf-HR :0.98627: L2-HR :0.87115: (Sim:0h31m25s) 
CPU  0 inst:  310000002 cyc:  486009081 now IPC :0.20593: AVG IPC :0.63501: L2-Pf-HR :0.98627: L2-HR :0.87067: (Sim:0h31m36s) 
CPU  0 inst:  311000000 cyc:  490980168 now IPC :0.20116: AVG IPC :0.63061: L2-Pf-HR :0.98627: L2-HR :0.87020: (Sim:0h31m47s) 
CPU  0 inst:  312000000 cyc:  496300187 now IPC :0.18797: AVG IPC :0.62586: L2-Pf-HR :0.98627: L2-HR :0.86972: (Sim:0h31m54s) 
CPU  0 inst:  313000000 cyc:  501333358 now IPC :0.19868: AVG IPC :0.62156: L2-Pf-HR :0.98627: L2-HR :0.86925: (Sim:0h32m2s) 
CPU  0 inst:  314000002 cyc:  506277835 now IPC :0.20225: AVG IPC :0.61746: L2-Pf-HR :0.98627: L2-HR :0.86877: (Sim:0h32m12s) 
CPU  0 inst:  315000000 cyc:  511398208 now IPC :0.19530: AVG IPC :0.61322: L2-Pf-HR :0.98627: L2-HR :0.86830: (Sim:0h32m24s) 
CPU  0 inst:  316000000 cyc:  516533150 now IPC :0.19474: AVG IPC :0.60906: L2-Pf-HR :0.98627: L2-HR :0.86783: (Sim:0h32m35s) 
CPU  0 inst:  317000000 cyc:  521552659 now IPC :0.19922: AVG IPC :0.60510: L2-Pf-HR :0.98627: L2-HR :0.86735: (Sim:0h32m46s) 
CPU  0 inst:  318000001 cyc:  526544462 now IPC :0.20033: AVG IPC :0.60126: L2-Pf-HR :0.98627: L2-HR :0.86688: (Sim:0h32m57s) 
CPU  0 inst:  319000003 cyc:  531488942 now IPC :0.20225: AVG IPC :0.59754: L2-Pf-HR :0.98627: L2-HR :0.86642: (Sim:0h33m8s) 
CPU  0 inst:  320000000 cyc:  536333646 now IPC :0.20641: AVG IPC :0.59400: L2-Pf-HR :0.98627: L2-HR :0.86595: (Sim:0h33m19s) 
CPU  0 inst:  321000000 cyc:  541277914 now IPC :0.20225: AVG IPC :0.59042: L2-Pf-HR :0.98627: L2-HR :0.86548: (Sim:0h33m30s) 
CPU  0 inst:  322000000 cyc:  546425599 now IPC :0.19426: AVG IPC :0.58668: L2-Pf-HR :0.98627: L2-HR :0.86501: (Sim:0h33m42s) 
CPU  0 inst:  323000003 cyc:  551756540 now IPC :0.18758: AVG IPC :0.58281: L2-Pf-HR :0.98627: L2-HR :0.86454: (Sim:0h33m53s) 
CPU  0 inst:  324000000 cyc:  556877924 now IPC :0.19526: AVG IPC :0.57924: L2-Pf-HR :0.98627: L2-HR :0.86408: (Sim:0h34m4s) 
CPU  0 inst:  325000000 cyc:  561944404 now IPC :0.19738: AVG IPC :0.57579: L2-Pf-HR :0.98627: L2-HR :0.86361: (Sim:0h34m16s) 
CPU  0 inst:  326000002 cyc:  566973142 now IPC :0.19886: AVG IPC :0.57245: L2-Pf-HR :0.98627: L2-HR :0.86315: (Sim:0h34m27s) 
CPU  0 inst:  327000001 cyc:  572032021 now IPC :0.19767: AVG IPC :0.56913: L2-Pf-HR :0.98627: L2-HR :0.86269: (Sim:0h34m38s) 
CPU  0 inst:  328000000 cyc:  577200448 now IPC :0.19348: AVG IPC :0.56576: L2-Pf-HR :0.98627: L2-HR :0.86222: (Sim:0h34m49s) 
CPU  0 inst:  329000000 cyc:  582389001 now IPC :0.19273: AVG IPC :0.56243: L2-Pf-HR :0.98627: L2-HR :0.86176: (Sim:0h35m1s) 
CPU  0 inst:  330000000 cyc:  587496179 now IPC :0.19580: AVG IPC :0.55923: L2-Pf-HR :0.98627: L2-HR :0.86130: (Sim:0h35m12s) 
CPU  0 inst:  331000002 cyc:  592644028 now IPC :0.19426: AVG IPC :0.55606: L2-Pf-HR :0.98627: L2-HR :0.86084: (Sim:0h35m23s) 
CPU  0 inst:  332000000 cyc:  597560865 now IPC :0.20338: AVG IPC :0.55315: L2-Pf-HR :0.98627: L2-HR :0.86038: (Sim:0h35m34s) 
CPU  0 inst:  333000002 cyc:  602647950 now IPC :0.19658: AVG IPC :0.55014: L2-Pf-HR :0.98627: L2-HR :0.85992: (Sim:0h35m45s) 
CPU  0 inst:  334000003 cyc:  607714746 now IPC :0.19736: AVG IPC :0.54719: L2-Pf-HR :0.98627: L2-HR :0.85947: (Sim:0h35m57s) 
CPU  0 inst:  335000002 cyc:  612790734 now IPC :0.19701: AVG IPC :0.54429: L2-Pf-HR :0.98627: L2-HR :0.85901: (Sim:0h36m8s) 
CPU  0 inst:  336000000 cyc:  617639999 now IPC :0.20622: AVG IPC :0.54163: L2-Pf-HR :0.98627: L2-HR :0.85855: (Sim:0h36m19s) 
CPU  0 inst:  337000000 cyc:  622699667 now IPC :0.19764: AVG IPC :0.53883: L2-Pf-HR :0.98627: L2-HR :0.85810: (Sim:0h36m30s) 
CPU  0 inst:  338000000 cyc:  627732278 now IPC :0.19870: AVG IPC :0.53610: L2-Pf-HR :0.98627: L2-HR :0.85764: (Sim:0h36m41s) 
CPU  0 inst:  339000000 cyc:  632737842 now IPC :0.19978: AVG IPC :0.53343: L2-Pf-HR :0.98627: L2-HR :0.85719: (Sim:0h36m52s) 
CPU  0 inst:  340000000 cyc:  637682257 now IPC :0.20225: AVG IPC :0.53086: L2-Pf-HR :0.98627: L2-HR :0.85674: (Sim:0h37m3s) 
CPU  0 inst:  341000001 cyc:  642730464 now IPC :0.19809: AVG IPC :0.52824: L2-Pf-HR :0.98627: L2-HR :0.85629: (Sim:0h37m14s) 
CPU  0 inst:  342000001 cyc:  647675177 now IPC :0.20224: AVG IPC :0.52575: L2-Pf-HR :0.98627: L2-HR :0.85584: (Sim:0h37m25s) 
CPU  0 inst:  343000000 cyc:  652620329 now IPC :0.20222: AVG IPC :0.52330: L2-Pf-HR :0.98627: L2-HR :0.85539: (Sim:0h37m36s) 
CPU  0 inst:  344000000 cyc:  657781038 now IPC :0.19377: AVG IPC :0.52071: L2-Pf-HR :0.98627: L2-HR :0.85494: (Sim:0h37m48s) 
CPU  0 inst:  345000000 cyc:  662779737 now IPC :0.20005: AVG IPC :0.51828: L2-Pf-HR :0.98627: L2-HR :0.85449: (Sim:0h37m59s) 
CPU  0 inst:  346000000 cyc:  667745422 now IPC :0.20138: AVG IPC :0.51592: L2-Pf-HR :0.98627: L2-HR :0.85404: (Sim:0h38m6s) 
CPU  0 inst:  347000000 cyc:  672682791 now IPC :0.20254: AVG IPC :0.51362: L2-Pf-HR :0.98627: L2-HR :0.85359: (Sim:0h38m17s) 
CPU  0 inst:  348000000 cyc:  677747739 now IPC :0.19744: AVG IPC :0.51125: L2-Pf-HR :0.98627: L2-HR :0.85314: (Sim:0h38m28s) 
CPU  0 inst:  349000003 cyc:  682768792 now IPC :0.19916: AVG IPC :0.50896: L2-Pf-HR :0.98627: L2-HR :0.85270: (Sim:0h38m40s) 
CPU  0 inst:  350000000 cyc:  687524798 now IPC :0.21026: AVG IPC :0.50689: L2-Pf-HR :0.98627: L2-HR :0.85225: (Sim:0h38m50s) 
CPU  0 inst:  351000000 cyc:  692544534 now IPC :0.19921: AVG IPC :0.50465: L2-Pf-HR :0.98627: L2-HR :0.85181: (Sim:0h39m2s) 
CPU  0 inst:  352000000 cyc:  697549797 now IPC :0.19979: AVG IPC :0.50246: L2-Pf-HR :0.98627: L2-HR :0.85137: (Sim:0h39m13s) 
CPU  0 inst:  353000000 cyc:  702487837 now IPC :0.20251: AVG IPC :0.50035: L2-Pf-HR :0.98627: L2-HR :0.85092: (Sim:0h39m24s) 
CPU  0 inst:  354000000 cyc:  707432177 now IPC :0.20225: AVG IPC :0.49826: L2-Pf-HR :0.98627: L2-HR :0.85048: (Sim:0h39m34s) 
CPU  0 inst:  355000000 cyc:  712491499 now IPC :0.19765: AVG IPC :0.49613: L2-Pf-HR :0.98627: L2-HR :0.85004: (Sim:0h39m45s) 
CPU  0 inst:  356000000 cyc:  717288770 now IPC :0.20845: AVG IPC :0.49420: L2-Pf-HR :0.98627: L2-HR :0.84960: (Sim:0h39m55s) 
CPU  0 inst:  357000001 cyc:  722213591 now IPC :0.20305: AVG IPC :0.49221: L2-Pf-HR :0.98627: L2-HR :0.84916: (Sim:0h40m6s) 
CPU  0 inst:  358000000 cyc:  727191873 now IPC :0.20087: AVG IPC :0.49022: L2-Pf-HR :0.98627: L2-HR :0.84872: (Sim:0h40m18s) 
CPU  0 inst:  359000000 cyc:  732231083 now IPC :0.19844: AVG IPC :0.48820: L2-Pf-HR :0.98627: L2-HR :0.84828: (Sim:0h40m29s) 
CPU  0 inst:  360000000 cyc:  737284038 now IPC :0.19790: AVG IPC :0.48621: L2-Pf-HR :0.98627: L2-HR :0.84784: (Sim:0h40m40s) 
CPU  0 inst:  361000003 cyc:  742446272 now IPC :0.19372: AVG IPC :0.48418: L2-Pf-HR :0.98627: L2-HR :0.84741: (Sim:0h40m48s) 
CPU  0 inst:  362000000 cyc:  747526256 now IPC :0.19685: AVG IPC :0.48222: L2-Pf-HR :0.98627: L2-HR :0.84697: (Sim:0h40m58s) 
CPU  0 inst:  363000000 cyc:  752570699 now IPC :0.19824: AVG IPC :0.48031: L2-Pf-HR :0.98627: L2-HR :0.84654: (Sim:0h41m9s) 
CPU  0 inst:  364000000 cyc:  757483885 now IPC :0.20353: AVG IPC :0.47852: L2-Pf-HR :0.98627: L2-HR :0.84610: (Sim:0h41m20s) 
CPU  0 inst:  365000003 cyc:  762267110 now IPC :0.20906: AVG IPC :0.47682: L2-Pf-HR :0.98627: L2-HR :0.84567: (Sim:0h41m31s) 
CPU  0 inst:  366000000 cyc:  766987680 now IPC :0.21184: AVG IPC :0.47519: L2-Pf-HR :0.98627: L2-HR :0.84524: (Sim:0h41m41s) 
CPU  0 inst:  367000000 cyc:  772054289 now IPC :0.19737: AVG IPC :0.47337: L2-Pf-HR :0.98627: L2-HR :0.84480: (Sim:0h41m53s) 
CPU  0 inst:  368000000 cyc:  777135017 now IPC :0.19682: AVG IPC :0.47156: L2-Pf-HR :0.98627: L2-HR :0.84437: (Sim:0h42m4s) 
CPU  0 inst:  369000002 cyc:  782154964 now IPC :0.19921: AVG IPC :0.46981: L2-Pf-HR :0.98627: L2-HR :0.84394: (Sim:0h42m15s) 
CPU  0 inst:  370000000 cyc:  787153633 now IPC :0.20005: AVG IPC :0.46809: L2-Pf-HR :0.98627: L2-HR :0.84351: (Sim:0h42m26s) 
CPU  0 inst:  371000002 cyc:  792336359 now IPC :0.19295: AVG IPC :0.46629: L2-Pf-HR :0.98627: L2-HR :0.84308: (Sim:0h42m37s) 
CPU  0 inst:  372000000 cyc:  797383824 now IPC :0.19812: AVG IPC :0.46459: L2-Pf-HR :0.98627: L2-HR :0.84265: (Sim:0h42m48s) 
CPU  0 inst:  373000002 cyc:  802416530 now IPC :0.19870: AVG IPC :0.46292: L2-Pf-HR :0.98627: L2-HR :0.84222: (Sim:0h42m59s) 
CPU  0 inst:  374000000 cyc:  807381269 now IPC :0.20142: AVG IPC :0.46131: L2-Pf-HR :0.98627: L2-HR :0.84180: (Sim:0h43m10s) 
CPU  0 inst:  375000000 cyc:  812365859 now IPC :0.20062: AVG IPC :0.45971: L2-Pf-HR :0.98627: L2-HR :0.84137: (Sim:0h43m21s) 
CPU  0 inst:  376000000 cyc:  817499902 now IPC :0.19478: AVG IPC :0.45804: L2-Pf-HR :0.98627: L2-HR :0.84094: (Sim:0h43m32s) 
CPU  0 inst:  377000000 cyc:  822355065 now IPC :0.20597: AVG IPC :0.45655: L2-Pf-HR :0.98627: L2-HR :0.84052: (Sim:0h43m43s) 
CPU  0 inst:  378000002 cyc:  827256769 now IPC :0.20401: AVG IPC :0.45505: L2-Pf-HR :0.98627: L2-HR :0.84009: (Sim:0h43m54s) 
CPU  0 inst:  379000003 cyc:  832123813 now IPC :0.20546: AVG IPC :0.45359: L2-Pf-HR :0.98627: L2-HR :0.83967: (Sim:0h44m5s) 
CPU  0 inst:  380000000 cyc:  837286841 now IPC :0.19368: AVG IPC :0.45199: L2-Pf-HR :0.98627: L2-HR :0.83925: (Sim:0h44m16s) 
CPU  0 inst:  381000000 cyc:  842414012 now IPC :0.19504: AVG IPC :0.45042: L2-Pf-HR :0.98627: L2-HR :0.83883: (Sim:0h44m27s) 
CPU  0 inst:  382000003 cyc:  847406062 now IPC :0.20032: AVG IPC :0.44895: L2-Pf-HR :0.98627: L2-HR :0.83840: (Sim:0h44m38s) 
CPU  0 inst:  383000000 cyc:  852499892 now IPC :0.19632: AVG IPC :0.44744: L2-Pf-HR :0.98627: L2-HR :0.83798: (Sim:0h44m50s) 
CPU  0 inst:  384000000 cyc:  857444265 now IPC :0.20225: AVG IPC :0.44602: L2-Pf-HR :0.98627: L2-HR :0.83756: (Sim:0h45m1s) 
CPU  0 inst:  385000000 cyc:  862449882 now IPC :0.19978: AVG IPC :0.44459: L2-Pf-HR :0.98627: L2-HR :0.83714: (Sim:0h45m12s) 
CPU  0 inst:  386000003 cyc:  867421312 now IPC :0.20115: AVG IPC :0.44319: L2-Pf-HR :0.98627: L2-HR :0.83673: (Sim:0h45m23s) 
CPU  0 inst:  387000001 cyc:  872612796 now IPC :0.19262: AVG IPC :0.44170: L2-Pf-HR :0.98627: L2-HR :0.83631: (Sim:0h45m34s) 
CPU  0 inst:  388000000 cyc:  877455893 now IPC :0.20648: AVG IPC :0.44040: L2-Pf-HR :0.98627: L2-HR :0.83589: (Sim:0h45m45s) 
CPU  0 inst:  389000000 cyc:  882521814 now IPC :0.19740: AVG IPC :0.43900: L2-Pf-HR :0.98627: L2-HR :0.83547: (Sim:0h45m56s) 
CPU  0 inst:  390000002 cyc:  887466387 now IPC :0.20224: AVG IPC :0.43768: L2-Pf-HR :0.98627: L2-HR :0.83506: (Sim:0h46m7s) 
CPU  0 inst:  391000000 cyc:  892273890 now IPC :0.20801: AVG IPC :0.43644: L2-Pf-HR :0.98627: L2-HR :0.83464: (Sim:0h46m18s) 
CPU  0 inst:  392000000 cyc:  897156949 now IPC :0.20479: AVG IPC :0.43518: L2-Pf-HR :0.98627: L2-HR :0.83423: (Sim:0h46m28s) 
CPU  0 inst:  393000001 cyc:  901918813 now IPC :0.21000: AVG IPC :0.43399: L2-Pf-HR :0.98627: L2-HR :0.83381: (Sim:0h46m39s) 
CPU  0 inst:  394000001 cyc:  906742256 now IPC :0.20732: AVG IPC :0.43278: L2-Pf-HR :0.98627: L2-HR :0.83340: (Sim:0h46m50s) 
CPU  0 inst:  395000001 cyc:  911732059 now IPC :0.20041: AVG IPC :0.43151: L2-Pf-HR :0.98627: L2-HR :0.83295: (Sim:0h47m1s) 
CPU  0 inst:  396000000 cyc:  912812796 now IPC :0.92529: AVG IPC :0.43210: L2-Pf-HR :0.98632: L2-HR :0.83346: (Sim:0h47m10s) 
CPU  0 inst:  397000002 cyc:  913776363 now IPC :1.03781: AVG IPC :0.43274: L2-Pf-HR :0.98636: L2-HR :0.83396: (Sim:0h47m18s) 
CPU  0 inst:  398000003 cyc:  914693790 now IPC :1.09001: AVG IPC :0.43340: L2-Pf-HR :0.98640: L2-HR :0.83446: (Sim:0h47m26s) 
CPU  0 inst:  399000002 cyc:  915665383 now IPC :1.02924: AVG IPC :0.43403: L2-Pf-HR :0.98644: L2-HR :0.83493: (Sim:0h47m35s) 
CPU  0 inst:  400000000 cyc:  916683607 now IPC :0.98210: AVG IPC :0.43464: L2-Pf-HR :0.98647: L2-HR :0.83544: (Sim:0h47m44s) 
CPU  0 inst:  401000001 cyc:  917594457 now IPC :1.09788: AVG IPC :0.43530: L2-Pf-HR :0.98649: L2-HR :0.83594: (Sim:0h47m52s) 
CPU  0 inst:  402000003 cyc:  918451365 now IPC :1.16699: AVG IPC :0.43598: L2-Pf-HR :0.98651: L2-HR :0.83644: (Sim:0h48m1s) 
CPU  0 inst:  403000001 cyc:  919320990 now IPC :1.14992: AVG IPC :0.43666: L2-Pf-HR :0.98653: L2-HR :0.83693: (Sim:0h48m9s) 
CPU  0 inst:  404000000 cyc:  920345721 now IPC :0.97586: AVG IPC :0.43726: L2-Pf-HR :0.98655: L2-HR :0.83740: (Sim:0h48m18s) 
CPU  0 inst:  405000002 cyc:  921258736 now IPC :1.09527: AVG IPC :0.43791: L2-Pf-HR :0.98656: L2-HR :0.83789: (Sim:0h48m26s) 
CPU  0 inst:  406000003 cyc:  922122229 now IPC :1.15809: AVG IPC :0.43859: L2-Pf-HR :0.98658: L2-HR :0.83837: (Sim:0h48m35s) 
CPU  0 inst:  407000001 cyc:  922984950 now IPC :1.15912: AVG IPC :0.43926: L2-Pf-HR :0.98659: L2-HR :0.83885: (Sim:0h48m43s) 
CPU  0 inst:  408000000 cyc:  923971410 now IPC :1.01372: AVG IPC :0.43987: L2-Pf-HR :0.98661: L2-HR :0.83929: (Sim:0h48m52s) 
CPU  0 inst:  409000000 cyc:  924879005 now IPC :1.10181: AVG IPC :0.44052: L2-Pf-HR :0.98662: L2-HR :0.83973: (Sim:0h49m1s) 
CPU  0 inst:  410000001 cyc:  925748049 now IPC :1.15069: AVG IPC :0.44119: L2-Pf-HR :0.98663: L2-HR :0.84018: (Sim:0h49m10s) 
CPU  0 inst:  411000000 cyc:  926612113 now IPC :1.15732: AVG IPC :0.44186: L2-Pf-HR :0.98664: L2-HR :0.84061: (Sim:0h49m19s) 
CPU  0 inst:  412000000 cyc:  927563678 now IPC :1.05090: AVG IPC :0.44249: L2-Pf-HR :0.98666: L2-HR :0.84102: (Sim:0h49m27s) 
CPU  0 inst:  413000002 cyc:  928459972 now IPC :1.11571: AVG IPC :0.44314: L2-Pf-HR :0.98670: L2-HR :0.84147: (Sim:0h49m36s) 
CPU  0 inst:  414000002 cyc:  929390549 now IPC :1.07460: AVG IPC :0.44377: L2-Pf-HR :0.98674: L2-HR :0.84190: (Sim:0h49m44s) 
CPU  0 inst:  415000000 cyc:  930323411 now IPC :1.07197: AVG IPC :0.44440: L2-Pf-HR :0.98678: L2-HR :0.84232: (Sim:0h49m53s) 
CPU  0 inst:  416000000 cyc:  931314118 now IPC :1.00938: AVG IPC :0.44500: L2-Pf-HR :0.98681: L2-HR :0.84274: (Sim:0h50m2s) 
CPU  0 inst:  417000003 cyc:  932158734 now IPC :1.18397: AVG IPC :0.44567: L2-Pf-HR :0.98683: L2-HR :0.84319: (Sim:0h50m10s) 
CPU  0 inst:  418000003 cyc:  933078293 now IPC :1.08748: AVG IPC :0.44631: L2-Pf-HR :0.98685: L2-HR :0.84362: (Sim:0h50m19s) 
CPU  0 inst:  419000002 cyc:  933954469 now IPC :1.14132: AVG IPC :0.44696: L2-Pf-HR :0.98687: L2-HR :0.84405: (Sim:0h50m28s) 
CPU  0 inst:  420000000 cyc:  934830753 now IPC :1.14118: AVG IPC :0.44761: L2-Pf-HR :0.98689: L2-HR :0.84449: (Sim:0h50m36s) 
CPU  0 inst:  421000000 cyc:  935734528 now IPC :1.10647: AVG IPC :0.44825: L2-Pf-HR :0.98691: L2-HR :0.84492: (Sim:0h50m45s) 
CPU  0 inst:  422000003 cyc:  936647966 now IPC :1.09477: AVG IPC :0.44888: L2-Pf-HR :0.98692: L2-HR :0.84534: (Sim:0h50m54s) 
CPU  0 inst:  423000000 cyc:  937515174 now IPC :1.15312: AVG IPC :0.44953: L2-Pf-HR :0.98693: L2-HR :0.84575: (Sim:0h51m2s) 
CPU  0 inst:  424000000 cyc:  938416215 now IPC :1.10983: AVG IPC :0.45016: L2-Pf-HR :0.98695: L2-HR :0.84616: (Sim:0h51m11s) 
CPU  0 inst:  425000000 cyc:  939322768 now IPC :1.10308: AVG IPC :0.45079: L2-Pf-HR :0.98696: L2-HR :0.84657: (Sim:0h51m20s) 
CPU  0 inst:  426000000 cyc:  940215877 now IPC :1.11968: AVG IPC :0.45143: L2-Pf-HR :0.98697: L2-HR :0.84695: (Sim:0h51m28s) 
CPU  0 inst:  427000001 cyc:  941066998 now IPC :1.17492: AVG IPC :0.45209: L2-Pf-HR :0.98698: L2-HR :0.84734: (Sim:0h51m37s) 
CPU  0 inst:  428000000 cyc:  941938986 now IPC :1.14680: AVG IPC :0.45273: L2-Pf-HR :0.98699: L2-HR :0.84772: (Sim:0h51m45s) 
CPU  0 inst:  429000001 cyc:  942907338 now IPC :1.03268: AVG IPC :0.45333: L2-Pf-HR :0.98702: L2-HR :0.84809: (Sim:0h51m54s) 
CPU  0 inst:  430000002 cyc:  943829944 now IPC :1.08389: AVG IPC :0.45394: L2-Pf-HR :0.98705: L2-HR :0.84848: (Sim:0h52m2s) 
CPU  0 inst:  431000002 cyc:  944741302 now IPC :1.09726: AVG IPC :0.45456: L2-Pf-HR :0.98709: L2-HR :0.84886: (Sim:0h52m11s) 
CPU  0 inst:  432000000 cyc:  945647892 now IPC :1.10303: AVG IPC :0.45519: L2-Pf-HR :0.98712: L2-HR :0.84924: (Sim:0h52m19s) 
CPU  0 inst:  433000001 cyc:  946600547 now IPC :1.04970: AVG IPC :0.45579: L2-Pf-HR :0.98715: L2-HR :0.84961: (Sim:0h52m28s) 
CPU  0 inst:  434000002 cyc:  947464284 now IPC :1.15776: AVG IPC :0.45643: L2-Pf-HR :0.98717: L2-HR :0.85001: (Sim:0h52m36s) 
CPU  0 inst:  435000000 cyc:  948337090 now IPC :1.14573: AVG IPC :0.45706: L2-Pf-HR :0.98719: L2-HR :0.85041: (Sim:0h52m44s) 
CPU  0 inst:  436000000 cyc:  949187739 now IPC :1.17557: AVG IPC :0.45771: L2-Pf-HR :0.98720: L2-HR :0.85079: (Sim:0h52m53s) 
CPU  0 inst:  437000002 cyc:  950131044 now IPC :1.06010: AVG IPC :0.45830: L2-Pf-HR :0.98722: L2-HR :0.85116: (Sim:0h53m2s) 
CPU  0 inst:  438000001 cyc:  950982850 now IPC :1.17398: AVG IPC :0.45895: L2-Pf-HR :0.98723: L2-HR :0.85155: (Sim:0h53m10s) 
CPU  0 inst:  439000003 cyc:  951863239 now IPC :1.13586: AVG IPC :0.45957: L2-Pf-HR :0.98725: L2-HR :0.85193: (Sim:0h53m19s) 
CPU  0 inst:  440000000 cyc:  952714984 now IPC :1.17406: AVG IPC :0.46021: L2-Pf-HR :0.98726: L2-HR :0.85231: (Sim:0h53m27s) 
CPU  0 inst:  441000003 cyc:  953636881 now IPC :1.08472: AVG IPC :0.46082: L2-Pf-HR :0.98727: L2-HR :0.85267: (Sim:0h53m35s) 
CPU  0 inst:  442000000 cyc:  954503051 now IPC :1.15450: AVG IPC :0.46145: L2-Pf-HR :0.98728: L2-HR :0.85302: (Sim:0h53m44s) 
CPU  0 inst:  443000003 cyc:  955370282 now IPC :1.15310: AVG IPC :0.46208: L2-Pf-HR :0.98729: L2-HR :0.85337: (Sim:0h53m53s) 
CPU  0 inst:  444000000 cyc:  956222737 now IPC :1.17308: AVG IPC :0.46271: L2-Pf-HR :0.98730: L2-HR :0.85371: (Sim:0h54m2s) 
CPU  0 inst:  445000001 cyc:  957107443 now IPC :1.13032: AVG IPC :0.46333: L2-Pf-HR :0.98731: L2-HR :0.85404: (Sim:0h54m11s) 
CPU  0 inst:  446000002 cyc:  958054292 now IPC :1.05614: AVG IPC :0.46391: L2-Pf-HR :0.98734: L2-HR :0.85438: (Sim:0h54m20s) 
CPU  0 inst:  447000003 cyc:  958987689 now IPC :1.07136: AVG IPC :0.46451: L2-Pf-HR :0.98737: L2-HR :0.85473: (Sim:0h54m29s) 
CPU  0 inst:  448000000 cyc:  959890996 now IPC :1.10704: AVG IPC :0.46511: L2-Pf-HR :0.98741: L2-HR :0.85507: (Sim:0h54m38s) 
CPU  0 inst:  449000001 cyc:  960822833 now IPC :1.07315: AVG IPC :0.46570: L2-Pf-HR :0.98744: L2-HR :0.85539: (Sim:0h54m47s) 
CPU  0 inst:  450000000 cyc:  961745231 now IPC :1.08413: AVG IPC :0.46630: L2-Pf-HR :0.98746: L2-HR :0.85574: (Sim:0h54m56s) 
CPU  0 inst:  451000002 cyc:  962624768 now IPC :1.13696: AVG IPC :0.46691: L2-Pf-HR :0.98748: L2-HR :0.85609: (Sim:0h55m4s) 
CPU  0 inst:  452000000 cyc:  963511732 now IPC :1.12744: AVG IPC :0.46752: L2-Pf-HR :0.98749: L2-HR :0.85643: (Sim:0h55m12s) 
CPU  0 inst:  453000001 cyc:  964383166 now IPC :1.14753: AVG IPC :0.46813: L2-Pf-HR :0.98751: L2-HR :0.85677: (Sim:0h55m20s) 
CPU  0 inst:  454000003 cyc:  965268819 now IPC :1.12911: AVG IPC :0.46874: L2-Pf-HR :0.98753: L2-HR :0.85712: (Sim:0h55m28s) 
CPU  0 inst:  455000003 cyc:  966154846 now IPC :1.12863: AVG IPC :0.46935: L2-Pf-HR :0.98754: L2-HR :0.85746: (Sim:0h55m37s) 
CPU  0 inst:  456000000 cyc:  967041320 now IPC :1.12806: AVG IPC :0.46995: L2-Pf-HR :0.98755: L2-HR :0.85779: (Sim:0h55m45s) 
CPU  0 inst:  457000000 cyc:  967905152 now IPC :1.15763: AVG IPC :0.47056: L2-Pf-HR :0.98756: L2-HR :0.85812: (Sim:0h55m53s) 
CPU  0 inst:  458000000 cyc:  968806908 now IPC :1.10895: AVG IPC :0.47116: L2-Pf-HR :0.98757: L2-HR :0.85845: (Sim:0h55m59s) 
CPU  0 inst:  459000003 cyc:  969683493 now IPC :1.14079: AVG IPC :0.47176: L2-Pf-HR :0.98758: L2-HR :0.85875: (Sim:0h56m5s) 
CPU  0 inst:  460000000 cyc:  970573259 now IPC :1.12389: AVG IPC :0.47236: L2-Pf-HR :0.98758: L2-HR :0.85906: (Sim:0h56m11s) 
CPU  0 inst:  461000002 cyc:  971423006 now IPC :1.17682: AVG IPC :0.47298: L2-Pf-HR :0.98759: L2-HR :0.85936: (Sim:0h56m17s) 
CPU  0 inst:  462000000 cyc:  972339423 now IPC :1.09120: AVG IPC :0.47356: L2-Pf-HR :0.98761: L2-HR :0.85966: (Sim:0h56m25s) 
CPU  0 inst:  463000002 cyc:  973257565 now IPC :1.08916: AVG IPC :0.47414: L2-Pf-HR :0.98764: L2-HR :0.85997: (Sim:0h56m33s) 
CPU  0 inst:  464000000 cyc:  974188004 now IPC :1.07476: AVG IPC :0.47472: L2-Pf-HR :0.98767: L2-HR :0.86028: (Sim:0h56m42s) 
CPU  0 inst:  465000000 cyc:  975093633 now IPC :1.10420: AVG IPC :0.47530: L2-Pf-HR :0.98770: L2-HR :0.86058: (Sim:0h56m50s) 
CPU  0 inst:  466000002 cyc:  976058274 now IPC :1.03666: AVG IPC :0.47586: L2-Pf-HR :0.98773: L2-HR :0.86086: (Sim:0h56m59s) 
CPU  0 inst:  467000000 cyc:  976924141 now IPC :1.15491: AVG IPC :0.47646: L2-Pf-HR :0.98775: L2-HR :0.86119: (Sim:0h57m8s) 
CPU  0 inst:  468000000 cyc:  977821024 now IPC :1.11497: AVG IPC :0.47705: L2-Pf-HR :0.98776: L2-HR :0.86151: (Sim:0h57m17s) 
CPU  0 inst:  469000000 cyc:  978675393 now IPC :1.17045: AVG IPC :0.47765: L2-Pf-HR :0.98777: L2-HR :0.86182: (Sim:0h57m26s) 
CPU  0 inst:  470000003 cyc:  979561884 now IPC :1.12805: AVG IPC :0.47824: L2-Pf-HR :0.98779: L2-HR :0.86212: (Sim:0h57m35s) 
CPU  0 inst:  471000001 cyc:  980450660 now IPC :1.12514: AVG IPC :0.47883: L2-Pf-HR :0.98780: L2-HR :0.86243: (Sim:0h57m43s) 
CPU  0 inst:  472000000 cyc:  981349932 now IPC :1.11201: AVG IPC :0.47941: L2-Pf-HR :0.98781: L2-HR :0.86274: (Sim:0h57m52s) 
CPU  0 inst:  473000003 cyc:  982200953 now IPC :1.17506: AVG IPC :0.48001: L2-Pf-HR :0.98782: L2-HR :0.86305: (Sim:0h58m1s) 
CPU  0 inst:  474000001 cyc:  983059222 now IPC :1.16513: AVG IPC :0.48061: L2-Pf-HR :0.98783: L2-HR :0.86335: (Sim:0h58m9s) 
CPU  0 inst:  475000001 cyc:  983996417 now IPC :1.06701: AVG IPC :0.48117: L2-Pf-HR :0.98784: L2-HR :0.86362: (Sim:0h58m18s) 
CPU  0 inst:  476000000 cyc:  984863439 now IPC :1.15337: AVG IPC :0.48176: L2-Pf-HR :0.98785: L2-HR :0.86391: (Sim:0h58m27s) 
CPU  0 inst:  477000000 cyc:  985721446 now IPC :1.16549: AVG IPC :0.48236: L2-Pf-HR :0.98786: L2-HR :0.86419: (Sim:0h58m36s) 
CPU  0 inst:  478000001 cyc:  986577036 now IPC :1.16879: AVG IPC :0.48296: L2-Pf-HR :0.98786: L2-HR :0.86446: (Sim:0h58m45s) 
CPU  0 inst:  479000002 cyc:  987542655 now IPC :1.03561: AVG IPC :0.48350: L2-Pf-HR :0.98788: L2-HR :0.86472: (Sim:0h58m54s) 
CPU  0 inst:  480000000 cyc:  988444429 now IPC :1.10892: AVG IPC :0.48407: L2-Pf-HR :0.98791: L2-HR :0.86500: (Sim:0h59m3s) 
CPU  0 inst:  481000002 cyc:  989364706 now IPC :1.08663: AVG IPC :0.48463: L2-Pf-HR :0.98794: L2-HR :0.86528: (Sim:0h59m12s) 
CPU  0 inst:  482000002 cyc:  990271777 now IPC :1.10245: AVG IPC :0.48520: L2-Pf-HR :0.98797: L2-HR :0.86555: (Sim:0h59m21s) 
CPU  0 inst:  483000000 cyc:  991253275 now IPC :1.01885: AVG IPC :0.48572: L2-Pf-HR :0.98799: L2-HR :0.86581: (Sim:0h59m30s) 
CPU  0 inst:  484000000 cyc:  992099147 now IPC :1.18221: AVG IPC :0.48632: L2-Pf-HR :0.98801: L2-HR :0.86610: (Sim:0h59m39s) 
CPU  0 inst:  485000000 cyc:  992989708 now IPC :1.12289: AVG IPC :0.48689: L2-Pf-HR :0.98802: L2-HR :0.86639: (Sim:0h59m48s) 
CPU  0 inst:  486000003 cyc:  993860391 now IPC :1.14853: AVG IPC :0.48747: L2-Pf-HR :0.98803: L2-HR :0.86666: (Sim:0h59m57s) 
CPU  0 inst:  487000000 cyc:  994773777 now IPC :1.09482: AVG IPC :0.48803: L2-Pf-HR :0.98805: L2-HR :0.86694: (Sim:1h0m5s) 
CPU  0 inst:  488000000 cyc:  995619005 now IPC :1.18311: AVG IPC :0.48862: L2-Pf-HR :0.98806: L2-HR :0.86722: (Sim:1h0m14s) 
CPU  0 inst:  489000001 cyc:  996529329 now IPC :1.09851: AVG IPC :0.48918: L2-Pf-HR :0.98807: L2-HR :0.86750: (Sim:1h0m23s) 
CPU  0 inst:  490000001 cyc:  997396560 now IPC :1.15310: AVG IPC :0.48976: L2-Pf-HR :0.98807: L2-HR :0.86776: (Sim:1h0m32s) 
CPU  0 inst:  491000000 cyc:  998248012 now IPC :1.17446: AVG IPC :0.49034: L2-Pf-HR :0.98808: L2-HR :0.86804: (Sim:1h0m40s) 
CPU  0 inst:  492000000 cyc:  999174710 now IPC :1.07910: AVG IPC :0.49089: L2-Pf-HR :0.98809: L2-HR :0.86829: (Sim:1h0m50s) 
CPU  0 inst:  493000000 cyc: 1000068637 now IPC :1.11866: AVG IPC :0.49145: L2-Pf-HR :0.98810: L2-HR :0.86854: (Sim:1h0m59s) 
CPU  0 inst:  494000002 cyc: 1000933795 now IPC :1.15586: AVG IPC :0.49202: L2-Pf-HR :0.98810: L2-HR :0.86878: (Sim:1h1m8s) 
CPU  0 inst:  495000000 cyc: 1001804718 now IPC :1.14820: AVG IPC :0.49259: L2-Pf-HR :0.98811: L2-HR :0.86902: (Sim:1h1m17s) 
CPU  0 inst:  496000000 cyc: 1002739964 now IPC :1.06924: AVG IPC :0.49313: L2-Pf-HR :0.98813: L2-HR :0.86928: (Sim:1h1m26s) 
CPU  0 inst:  497000001 cyc: 1003688288 now IPC :1.05449: AVG IPC :0.49366: L2-Pf-HR :0.98816: L2-HR :0.86952: (Sim:1h1m35s) 
CPU  0 inst:  498000000 cyc: 1004588169 now IPC :1.11126: AVG IPC :0.49422: L2-Pf-HR :0.98819: L2-HR :0.86978: (Sim:1h1m44s) 
CPU  0 inst:  499000000 cyc: 1005494260 now IPC :1.10364: AVG IPC :0.49477: L2-Pf-HR :0.98822: L2-HR :0.87003: (Sim:1h1m53s) 
CPU  0 inst:  500000000 cyc: 1006451082 now IPC :1.04513: AVG IPC :0.49529: L2-Pf-HR :0.98824: L2-HR :0.87027: (Sim:1h2m2s) 
CPU  0 inst:  501000001 cyc: 1007330256 now IPC :1.13743: AVG IPC :0.49585: L2-Pf-HR :0.98825: L2-HR :0.87053: (Sim:1h2m10s) 
CPU  0 inst:  502000001 cyc: 1008195598 now IPC :1.15561: AVG IPC :0.49642: L2-Pf-HR :0.98826: L2-HR :0.87079: (Sim:1h2m19s) 
CPU  0 inst:  503000000 cyc: 1009044222 now IPC :1.17838: AVG IPC :0.49699: L2-Pf-HR :0.98827: L2-HR :0.87105: (Sim:1h2m28s) 
CPU  0 inst:  504000000 cyc: 1009979541 now IPC :1.06915: AVG IPC :0.49752: L2-Pf-HR :0.98828: L2-HR :0.87129: (Sim:1h2m37s) 
CPU  0 inst:  505000000 cyc: 1010844383 now IPC :1.15628: AVG IPC :0.49809: L2-Pf-HR :0.98829: L2-HR :0.87155: (Sim:1h2m45s) 
CPU  0 inst:  506000000 cyc: 1011718196 now IPC :1.14441: AVG IPC :0.49865: L2-Pf-HR :0.98830: L2-HR :0.87181: (Sim:1h2m54s) 
CPU  0 inst:  507000003 cyc: 1012563204 now IPC :1.18342: AVG IPC :0.49922: L2-Pf-HR :0.98831: L2-HR :0.87206: (Sim:1h3m3s) 
CPU  0 inst:  508000000 cyc: 1013522096 now IPC :1.04287: AVG IPC :0.49973: L2-Pf-HR :0.98832: L2-HR :0.87229: (Sim:1h3m12s) 
CPU  0 inst:  509000001 cyc: 1014372671 now IPC :1.17568: AVG IPC :0.50030: L2-Pf-HR :0.98832: L2-HR :0.87252: (Sim:1h3m21s) 
CPU  0 inst:  510000003 cyc: 1015244621 now IPC :1.14686: AVG IPC :0.50086: L2-Pf-HR :0.98833: L2-HR :0.87275: (Sim:1h3m30s) 
CPU  0 inst:  511000002 cyc: 1016088826 now IPC :1.18455: AVG IPC :0.50142: L2-Pf-HR :0.98833: L2-HR :0.87298: (Sim:1h3m39s) 
CPU  0 inst:  512000000 cyc: 1017023481 now IPC :1.06991: AVG IPC :0.50195: L2-Pf-HR :0.98834: L2-HR :0.87318: (Sim:1h3m48s) 
CPU  0 inst:  513000002 cyc: 1017950153 now IPC :1.07913: AVG IPC :0.50247: L2-Pf-HR :0.98837: L2-HR :0.87342: (Sim:1h3m57s) 
CPU  0 inst:  514000001 cyc: 1018877966 now IPC :1.07780: AVG IPC :0.50300: L2-Pf-HR :0.98839: L2-HR :0.87365: (Sim:1h4m6s) 
CPU  0 inst:  515000002 cyc: 1019785651 now IPC :1.10170: AVG IPC :0.50353: L2-Pf-HR :0.98842: L2-HR :0.87388: (Sim:1h4m15s) 
CPU  0 inst:  516000000 cyc: 1020728982 now IPC :1.06007: AVG IPC :0.50405: L2-Pf-HR :0.98844: L2-HR :0.87409: (Sim:1h4m21s) 
CPU  0 inst:  517000003 cyc: 1021644683 now IPC :1.09206: AVG IPC :0.50457: L2-Pf-HR :0.98846: L2-HR :0.87433: (Sim:1h4m30s) 
CPU  0 inst:  518000002 cyc: 1022537428 now IPC :1.12014: AVG IPC :0.50511: L2-Pf-HR :0.98847: L2-HR :0.87457: (Sim:1h4m39s) 
CPU  0 inst:  519000003 cyc: 1023396076 now IPC :1.16462: AVG IPC :0.50567: L2-Pf-HR :0.98848: L2-HR :0.87480: (Sim:1h4m48s) 
CPU  0 inst:  520000000 cyc: 1024269197 now IPC :1.14531: AVG IPC :0.50621: L2-Pf-HR :0.98849: L2-HR :0.87503: (Sim:1h4m57s) 
CPU  0 inst:  521000001 cyc: 1025199209 now IPC :1.07526: AVG IPC :0.50673: L2-Pf-HR :0.98850: L2-HR :0.87526: (Sim:1h5m5s) 
CPU  0 inst:  522000003 cyc: 1026078567 now IPC :1.13720: AVG IPC :0.50727: L2-Pf-HR :0.98851: L2-HR :0.87549: (Sim:1h5m14s) 
CPU  0 inst:  523000003 cyc: 1026959181 now IPC :1.13557: AVG IPC :0.50781: L2-Pf-HR :0.98851: L2-HR :0.87572: (Sim:1h5m22s) 
CPU  0 inst:  524000000 cyc: 1027829329 now IPC :1.14923: AVG IPC :0.50835: L2-Pf-HR :0.98852: L2-HR :0.87594: (Sim:1h5m31s) 
CPU  0 inst:  525000002 cyc: 1028733971 now IPC :1.10541: AVG IPC :0.50888: L2-Pf-HR :0.98853: L2-HR :0.87616: (Sim:1h5m40s) 
CPU  0 inst:  526000000 cyc: 1029620194 now IPC :1.12838: AVG IPC :0.50941: L2-Pf-HR :0.98853: L2-HR :0.87637: (Sim:1h5m49s) 
CPU  0 inst:  527000002 cyc: 1030507900 now IPC :1.12650: AVG IPC :0.50994: L2-Pf-HR :0.98854: L2-HR :0.87657: (Sim:1h5m57s) 
CPU  0 inst:  528000000 cyc: 1031377004 now IPC :1.15061: AVG IPC :0.51048: L2-Pf-HR :0.98854: L2-HR :0.87677: (Sim:1h6m6s) 
CPU  0 inst:  529000003 cyc: 1032282309 now IPC :1.10460: AVG IPC :0.51100: L2-Pf-HR :0.98856: L2-HR :0.87698: (Sim:1h6m15s) 
CPU  0 inst:  530000001 cyc: 1033200701 now IPC :1.08886: AVG IPC :0.51152: L2-Pf-HR :0.98858: L2-HR :0.87719: (Sim:1h6m23s) 
CPU  0 inst:  531000002 cyc: 1034143990 now IPC :1.06012: AVG IPC :0.51202: L2-Pf-HR :0.98860: L2-HR :0.87739: (Sim:1h6m32s) 
CPU  0 inst:  532000000 cyc: 1035050473 now IPC :1.10316: AVG IPC :0.51254: L2-Pf-HR :0.98863: L2-HR :0.87760: (Sim:1h6m41s) 
CPU  0 inst:  533000001 cyc: 1036007299 now IPC :1.04512: AVG IPC :0.51303: L2-Pf-HR :0.98865: L2-HR :0.87779: (Sim:1h6m49s) 
CPU  0 inst:  534000002 cyc: 1036860412 now IPC :1.17218: AVG IPC :0.51357: L2-Pf-HR :0.98866: L2-HR :0.87801: (Sim:1h6m57s) 
CPU  0 inst:  535000003 cyc: 1037752277 now IPC :1.12125: AVG IPC :0.51410: L2-Pf-HR :0.98867: L2-HR :0.87823: (Sim:1h7m6s) 
CPU  0 inst:  536000000 cyc: 1038604462 now IPC :1.17345: AVG IPC :0.51464: L2-Pf-HR :0.98868: L2-HR :0.87845: (Sim:1h7m15s) 
CPU  0 inst:  537000002 cyc: 1039510098 now IPC :1.10420: AVG IPC :0.51515: L2-Pf-HR :0.98869: L2-HR :0.87864: (Sim:1h7m23s) 
CPU  0 inst:  538000001 cyc: 1040371514 now IPC :1.16088: AVG IPC :0.51569: L2-Pf-HR :0.98870: L2-HR :0.87886: (Sim:1h7m32s) 
CPU  0 inst:  539000000 cyc: 1041258184 now IPC :1.12781: AVG IPC :0.51621: L2-Pf-HR :0.98871: L2-HR :0.87908: (Sim:1h7m38s) 
CPU  0 inst:  540000000 cyc: 1042106817 now IPC :1.17837: AVG IPC :0.51675: L2-Pf-HR :0.98872: L2-HR :0.87929: (Sim:1h7m44s) 
CPU  0 inst:  541000003 cyc: 1042988521 now IPC :1.13417: AVG IPC :0.51727: L2-Pf-HR :0.98872: L2-HR :0.87949: (Sim:1h7m51s) 
CPU  0 inst:  542000001 cyc: 1043887451 now IPC :1.11243: AVG IPC :0.51778: L2-Pf-HR :0.98873: L2-HR :0.87969: (Sim:1h7m57s) 
CPU  0 inst:  543000001 cyc: 1044752391 now IPC :1.15615: AVG IPC :0.51831: L2-Pf-HR :0.98873: L2-HR :0.87988: (Sim:1h8m6s) 
CPU  0 inst:  544000000 cyc: 1045602709 now IPC :1.17603: AVG IPC :0.51885: L2-Pf-HR :0.98874: L2-HR :0.88008: (Sim:1h8m14s) 
CPU  0 inst:  545000001 cyc: 1046454897 now IPC :1.17345: AVG IPC :0.51938: L2-Pf-HR :0.98874: L2-HR :0.88027: (Sim:1h8m23s) 
CPU  0 inst:  546000001 cyc: 1047419950 now IPC :1.03621: AVG IPC :0.51986: L2-Pf-HR :0.98876: L2-HR :0.88045: (Sim:1h8m31s) 
CPU  0 inst:  547000002 cyc: 1048328772 now IPC :1.10033: AVG IPC :0.52036: L2-Pf-HR :0.98878: L2-HR :0.88064: (Sim:1h8m39s) 
CPU  0 inst:  548000000 cyc: 1049235328 now IPC :1.10307: AVG IPC :0.52087: L2-Pf-HR :0.98881: L2-HR :0.88083: (Sim:1h8m49s) 
CPU  0 inst:  549000003 cyc: 1050143309 now IPC :1.10135: AVG IPC :0.52137: L2-Pf-HR :0.98883: L2-HR :0.88102: (Sim:1h8m57s) 
CPU  0 inst:  550000002 cyc: 1051110188 now IPC :1.03425: AVG IPC :0.52184: L2-Pf-HR :0.98885: L2-HR :0.88120: (Sim:1h9m6s) 
CPU  0 inst:  551000000 cyc: 1051965253 now IPC :1.16950: AVG IPC :0.52237: L2-Pf-HR :0.98886: L2-HR :0.88141: (Sim:1h9m14s) 
CPU  0 inst:  552000000 cyc: 1052839793 now IPC :1.14346: AVG IPC :0.52288: L2-Pf-HR :0.98887: L2-HR :0.88161: (Sim:1h9m23s) 
CPU  0 inst:  553000001 cyc: 1053693337 now IPC :1.17159: AVG IPC :0.52341: L2-Pf-HR :0.98887: L2-HR :0.88181: (Sim:1h9m31s) 
CPU  0 inst:  554000003 cyc: 1054630945 now IPC :1.06655: AVG IPC :0.52389: L2-Pf-HR :0.98888: L2-HR :0.88199: (Sim:1h9m40s) 
CPU  0 inst:  555000000 cyc: 1055468192 now IPC :1.19439: AVG IPC :0.52443: L2-Pf-HR :0.98889: L2-HR :0.88219: (Sim:1h9m49s) 
CPU  0 inst:  556000000 cyc: 1056345058 now IPC :1.14043: AVG IPC :0.52494: L2-Pf-HR :0.98890: L2-HR :0.88239: (Sim:1h9m56s) 
CPU  0 inst:  557000000 cyc: 1057218581 now IPC :1.14479: AVG IPC :0.52545: L2-Pf-HR :0.98890: L2-HR :0.88258: (Sim:1h10m5s) 
CPU  0 inst:  558000001 cyc: 1058146806 now IPC :1.07733: AVG IPC :0.52593: L2-Pf-HR :0.98891: L2-HR :0.88276: (Sim:1h10m13s) 
CPU  0 inst:  559000002 cyc: 1058999064 now IPC :1.17335: AVG IPC :0.52646: L2-Pf-HR :0.98891: L2-HR :0.88294: (Sim:1h10m22s) 
CPU  0 inst:  560000000 cyc: 1059870271 now IPC :1.14783: AVG IPC :0.52697: L2-Pf-HR :0.98892: L2-HR :0.88312: (Sim:1h10m31s) 
CPU  0 inst:  561000000 cyc: 1060747910 now IPC :1.13942: AVG IPC :0.52747: L2-Pf-HR :0.98892: L2-HR :0.88329: (Sim:1h10m40s) 
CPU  0 inst:  562000003 cyc: 1061600059 now IPC :1.17351: AVG IPC :0.52799: L2-Pf-HR :0.98892: L2-HR :0.88347: (Sim:1h10m49s) 
CPU  0 inst:  563000001 cyc: 1062554186 now IPC :1.04808: AVG IPC :0.52846: L2-Pf-HR :0.98895: L2-HR :0.88364: (Sim:1h10m58s) 
CPU  0 inst:  564000000 cyc: 1063513083 now IPC :1.04286: AVG IPC :0.52892: L2-Pf-HR :0.98897: L2-HR :0.88381: (Sim:1h11m7s) 
CPU  0 inst:  565000003 cyc: 1064432990 now IPC :1.08707: AVG IPC :0.52941: L2-Pf-HR :0.98899: L2-HR :0.88398: (Sim:1h11m16s) 
CPU  0 inst:  566000003 cyc: 1065358957 now IPC :1.07995: AVG IPC :0.52989: L2-Pf-HR :0.98901: L2-HR :0.88414: (Sim:1h11m25s) 
CPU  0 inst:  567000001 cyc: 1066259619 now IPC :1.11029: AVG IPC :0.53038: L2-Pf-HR :0.98903: L2-HR :0.88433: (Sim:1h11m34s) 
CPU  0 inst:  568000000 cyc: 1067168746 now IPC :1.09996: AVG IPC :0.53086: L2-Pf-HR :0.98903: L2-HR :0.88451: (Sim:1h11m43s) 
CPU  0 inst:  569000001 cyc: 1068025403 now IPC :1.16733: AVG IPC :0.53137: L2-Pf-HR :0.98904: L2-HR :0.88470: (Sim:1h11m51s) 
CPU  0 inst:  570000001 cyc: 1068867252 now IPC :1.18786: AVG IPC :0.53189: L2-Pf-HR :0.98905: L2-HR :0.88488: (Sim:1h12m0s) 
CPU  0 inst:  571000002 cyc: 1069795983 now IPC :1.07674: AVG IPC :0.53237: L2-Pf-HR :0.98906: L2-HR :0.88505: (Sim:1h12m9s) 
CPU  0 inst:  572000000 cyc: 1070676226 now IPC :1.13605: AVG IPC :0.53286: L2-Pf-HR :0.98907: L2-HR :0.88523: (Sim:1h12m18s) 
CPU  0 inst:  573000001 cyc: 1071539320 now IPC :1.15862: AVG IPC :0.53337: L2-Pf-HR :0.98907: L2-HR :0.88542: (Sim:1h12m26s) 
CPU  0 inst:  574000000 cyc: 1072381164 now IPC :1.18787: AVG IPC :0.53388: L2-Pf-HR :0.98908: L2-HR :0.88560: (Sim:1h12m35s) 
CPU  0 inst:  575000002 cyc: 1073314991 now IPC :1.07086: AVG IPC :0.53435: L2-Pf-HR :0.98909: L2-HR :0.88576: (Sim:1h12m43s) 
CPU  0 inst:  576000000 cyc: 1074173052 now IPC :1.16542: AVG IPC :0.53485: L2-Pf-HR :0.98909: L2-HR :0.88592: (Sim:1h12m52s) 
CPU  0 inst:  577000000 cyc: 1075045438 now IPC :1.14628: AVG IPC :0.53535: L2-Pf-HR :0.98909: L2-HR :0.88609: (Sim:1h13m0s) 
CPU  0 inst:  578000000 cyc: 1075888367 now IPC :1.18634: AVG IPC :0.53586: L2-Pf-HR :0.98909: L2-HR :0.88626: (Sim:1h13m6s) 
CPU  0 inst:  579000000 cyc: 1076831495 now IPC :1.06030: AVG IPC :0.53632: L2-Pf-HR :0.98910: L2-HR :0.88640: (Sim:1h13m13s) 
CPU  0 inst:  580000000 cyc: 1077742062 now IPC :1.09822: AVG IPC :0.53679: L2-Pf-HR :0.98912: L2-HR :0.88657: (Sim:1h13m22s) 
CPU  0 inst:  581000000 cyc: 1078673842 now IPC :1.07321: AVG IPC :0.53726: L2-Pf-HR :0.98915: L2-HR :0.88673: (Sim:1h13m31s) 
CPU  0 inst:  582000003 cyc: 1079584297 now IPC :1.09836: AVG IPC :0.53773: L2-Pf-HR :0.98917: L2-HR :0.88689: (Sim:1h13m39s) 
CPU  0 inst:  583000003 cyc: 1080555944 now IPC :1.02918: AVG IPC :0.53817: L2-Pf-HR :0.98919: L2-HR :0.88704: (Sim:1h13m48s) 
CPU  0 inst:  584000000 cyc: 1081423172 now IPC :1.15310: AVG IPC :0.53867: L2-Pf-HR :0.98919: L2-HR :0.88721: (Sim:1h13m57s) 
CPU  0 inst:  585000001 cyc: 1082325763 now IPC :1.10792: AVG IPC :0.53914: L2-Pf-HR :0.98920: L2-HR :0.88739: (Sim:1h14m5s) 
CPU  0 inst:  586000001 cyc: 1083185542 now IPC :1.16309: AVG IPC :0.53964: L2-Pf-HR :0.98921: L2-HR :0.88756: (Sim:1h14m14s) 
CPU  0 inst:  587000001 cyc: 1084082466 now IPC :1.11492: AVG IPC :0.54012: L2-Pf-HR :0.98922: L2-HR :0.88772: (Sim:1h14m22s) 
CPU  0 inst:  588000000 cyc: 1084985857 now IPC :1.10694: AVG IPC :0.54059: L2-Pf-HR :0.98923: L2-HR :0.88789: (Sim:1h14m31s) 
CPU  0 inst:  589000001 cyc: 1085881330 now IPC :1.11673: AVG IPC :0.54106: L2-Pf-HR :0.98923: L2-HR :0.88806: (Sim:1h14m39s) 
CPU  0 inst:  590000002 cyc: 1086738854 now IPC :1.16615: AVG IPC :0.54156: L2-Pf-HR :0.98924: L2-HR :0.88823: (Sim:1h14m48s) 
CPU  0 inst:  591000003 cyc: 1087611024 now IPC :1.14657: AVG IPC :0.54204: L2-Pf-HR :0.98924: L2-HR :0.88838: (Sim:1h14m57s) 
CPU  0 inst:  592000000 cyc: 1088530441 now IPC :1.08764: AVG IPC :0.54250: L2-Pf-HR :0.98925: L2-HR :0.88853: (Sim:1h15m5s) 
CPU  0 inst:  593000000 cyc: 1089399315 now IPC :1.15091: AVG IPC :0.54299: L2-Pf-HR :0.98925: L2-HR :0.88869: (Sim:1h15m15s) 
CPU  0 inst:  594000000 cyc: 1090276290 now IPC :1.14028: AVG IPC :0.54347: L2-Pf-HR :0.98925: L2-HR :0.88884: (Sim:1h15m24s) 
CPU  0 inst:  595000003 cyc: 1091149350 now IPC :1.14540: AVG IPC :0.54395: L2-Pf-HR :0.98925: L2-HR :0.88898: (Sim:1h15m33s) 
CPU  0 inst:  596000000 cyc: 1092078317 now IPC :1.07646: AVG IPC :0.54441: L2-Pf-HR :0.98926: L2-HR :0.88913: (Sim:1h15m43s) 
CPU  0 inst:  597000001 cyc: 1093002912 now IPC :1.08156: AVG IPC :0.54486: L2-Pf-HR :0.98928: L2-HR :0.88928: (Sim:1h15m52s) 
CPU  0 inst:  598000001 cyc: 1093955545 now IPC :1.04972: AVG IPC :0.54530: L2-Pf-HR :0.98930: L2-HR :0.88942: (Sim:1h16m1s) 
CPU  0 inst:  599000001 cyc: 1094865066 now IPC :1.09948: AVG IPC :0.54576: L2-Pf-HR :0.98932: L2-HR :0.88956: (Sim:1h16m10s) 
CPU  0 inst:  600000000 cyc: 1095792260 now IPC :1.07852: AVG IPC :0.54621: L2-Pf-HR :0.98934: L2-HR :0.88971: (Sim:1h16m20s) 
CPU  0 inst:  601000000 cyc: 1096670922 now IPC :1.13809: AVG IPC :0.54669: L2-Pf-HR :0.98935: L2-HR :0.88987: (Sim:1h16m29s) 
CPU  0 inst:  602000000 cyc: 1097571433 now IPC :1.11048: AVG IPC :0.54715: L2-Pf-HR :0.98936: L2-HR :0.89003: (Sim:1h16m39s) 
CPU  0 inst:  603000000 cyc: 1098415039 now IPC :1.18539: AVG IPC :0.54764: L2-Pf-HR :0.98936: L2-HR :0.89019: (Sim:1h16m48s) 
CPU  0 inst:  604000000 cyc: 1099328083 now IPC :1.09524: AVG IPC :0.54810: L2-Pf-HR :0.98937: L2-HR :0.89033: (Sim:1h16m58s) 
CPU  0 inst:  605000003 cyc: 1100190671 now IPC :1.15931: AVG IPC :0.54858: L2-Pf-HR :0.98938: L2-HR :0.89049: (Sim:1h17m7s) 
CPU  0 inst:  606000001 cyc: 1101086499 now IPC :1.11628: AVG IPC :0.54904: L2-Pf-HR :0.98938: L2-HR :0.89065: (Sim:1h17m17s) 
CPU  0 inst:  607000000 cyc: 1101926786 now IPC :1.19007: AVG IPC :0.54953: L2-Pf-HR :0.98938: L2-HR :0.89080: (Sim:1h17m26s) 
CPU  0 inst:  608000000 cyc: 1102827736 now IPC :1.10994: AVG IPC :0.54999: L2-Pf-HR :0.98939: L2-HR :0.89094: (Sim:1h17m36s) 
CPU  0 inst:  609000002 cyc: 1103709132 now IPC :1.13457: AVG IPC :0.55045: L2-Pf-HR :0.98939: L2-HR :0.89109: (Sim:1h17m46s) 
CPU  0 inst:  610000000 cyc: 1104585576 now IPC :1.14097: AVG IPC :0.55092: L2-Pf-HR :0.98940: L2-HR :0.89123: (Sim:1h17m56s) 
CPU  0 inst:  611000001 cyc: 1105433325 now IPC :1.17960: AVG IPC :0.55140: L2-Pf-HR :0.98940: L2-HR :0.89138: (Sim:1h18m6s) 
CPU  0 inst:  612000000 cyc: 1106306564 now IPC :1.14516: AVG IPC :0.55187: L2-Pf-HR :0.98940: L2-HR :0.89151: (Sim:1h18m16s) 
CPU  0 inst:  613000001 cyc: 1107265863 now IPC :1.04243: AVG IPC :0.55230: L2-Pf-HR :0.98942: L2-HR :0.89164: (Sim:1h18m24s) 
CPU  0 inst:  614000002 cyc: 1108183374 now IPC :1.08991: AVG IPC :0.55274: L2-Pf-HR :0.98944: L2-HR :0.89179: (Sim:1h18m32s) 
CPU  0 inst:  615000001 cyc: 1109091617 now IPC :1.10103: AVG IPC :0.55319: L2-Pf-HR :0.98946: L2-HR :0.89193: (Sim:1h18m39s) 
CPU  0 inst:  616000000 cyc: 1109991737 now IPC :1.11096: AVG IPC :0.55365: L2-Pf-HR :0.98947: L2-HR :0.89206: (Sim:1h18m45s) 
CPU  0 inst:  617000002 cyc: 1110951681 now IPC :1.04173: AVG IPC :0.55407: L2-Pf-HR :0.98949: L2-HR :0.89220: (Sim:1h18m51s) 
CPU  0 inst:  618000001 cyc: 1111823375 now IPC :1.14719: AVG IPC :0.55453: L2-Pf-HR :0.98950: L2-HR :0.89235: (Sim:1h18m58s) 
CPU  0 inst:  619000000 cyc: 1112693388 now IPC :1.14941: AVG IPC :0.55500: L2-Pf-HR :0.98950: L2-HR :0.89250: (Sim:1h19m4s) 
CPU  0 inst:  620000000 cyc: 1113540349 now IPC :1.18069: AVG IPC :0.55548: L2-Pf-HR :0.98951: L2-HR :0.89264: (Sim:1h19m11s) 
CPU  0 inst:  621000001 cyc: 1114483944 now IPC :1.05978: AVG IPC :0.55590: L2-Pf-HR :0.98952: L2-HR :0.89278: (Sim:1h19m20s) 
CPU  0 inst:  622000000 cyc: 1115343466 now IPC :1.16344: AVG IPC :0.55637: L2-Pf-HR :0.98952: L2-HR :0.89293: (Sim:1h19m28s) 
CPU  0 inst:  623000000 cyc: 1116219209 now IPC :1.14189: AVG IPC :0.55683: L2-Pf-HR :0.98953: L2-HR :0.89307: (Sim:1h19m37s) 
CPU  0 inst:  624000000 cyc: 1117064937 now IPC :1.18241: AVG IPC :0.55731: L2-Pf-HR :0.98953: L2-HR :0.89322: (Sim:1h19m46s) 
CPU  0 inst:  625000003 cyc: 1118016504 now IPC :1.05090: AVG IPC :0.55773: L2-Pf-HR :0.98954: L2-HR :0.89335: (Sim:1h19m55s) 
CPU  0 inst:  626000003 cyc: 1118874810 now IPC :1.16509: AVG IPC :0.55819: L2-Pf-HR :0.98954: L2-HR :0.89348: (Sim:1h20m3s) 
CPU  0 inst:  627000003 cyc: 1119746671 now IPC :1.14697: AVG IPC :0.55865: L2-Pf-HR :0.98954: L2-HR :0.89362: (Sim:1h20m10s) 
CPU  0 inst:  628000000 cyc: 1120608129 now IPC :1.16082: AVG IPC :0.55911: L2-Pf-HR :0.98954: L2-HR :0.89375: (Sim:1h20m16s) 
CPU  0 inst:  629000002 cyc: 1121537187 now IPC :1.07636: AVG IPC :0.55954: L2-Pf-HR :0.98955: L2-HR :0.89387: (Sim:1h20m24s) 
CPU  0 inst:  630000001 cyc: 1122427960 now IPC :1.12262: AVG IPC :0.55999: L2-Pf-HR :0.98957: L2-HR :0.89400: (Sim:1h20m31s) 
CPU  0 inst:  631000003 cyc: 1123383292 now IPC :1.04676: AVG IPC :0.56040: L2-Pf-HR :0.98959: L2-HR :0.89413: (Sim:1h20m40s) 
CPU  0 inst:  632000000 cyc: 1124310158 now IPC :1.07890: AVG IPC :0.56083: L2-Pf-HR :0.98960: L2-HR :0.89425: (Sim:1h20m49s) 
CPU  0 inst:  633000001 cyc: 1125213981 now IPC :1.10641: AVG IPC :0.56127: L2-Pf-HR :0.98962: L2-HR :0.89438: (Sim:1h20m59s) 
CPU  0 inst:  634000001 cyc: 1126114315 now IPC :1.11070: AVG IPC :0.56171: L2-Pf-HR :0.98963: L2-HR :0.89451: (Sim:1h21m8s) 
CPU  0 inst:  635000000 cyc: 1127036976 now IPC :1.08382: AVG IPC :0.56214: L2-Pf-HR :0.98964: L2-HR :0.89465: (Sim:1h21m17s) 
CPU  0 inst:  636000000 cyc: 1127895860 now IPC :1.16430: AVG IPC :0.56260: L2-Pf-HR :0.98964: L2-HR :0.89478: (Sim:1h21m27s) 
CPU  0 inst:  637000002 cyc: 1128767741 now IPC :1.14695: AVG IPC :0.56305: L2-Pf-HR :0.98965: L2-HR :0.89491: (Sim:1h21m36s) 
CPU  0 inst:  638000000 cyc: 1129653445 now IPC :1.12904: AVG IPC :0.56349: L2-Pf-HR :0.98966: L2-HR :0.89505: (Sim:1h21m44s) 
CPU  0 inst:  639000002 cyc: 1130566485 now IPC :1.09524: AVG IPC :0.56392: L2-Pf-HR :0.98966: L2-HR :0.89518: (Sim:1h21m53s) 
CPU  0 inst:  640000000 cyc: 1131411910 now IPC :1.18283: AVG IPC :0.56439: L2-Pf-HR :0.98966: L2-HR :0.89532: (Sim:1h22m2s) 
CPU  0 inst:  641000000 cyc: 1132254030 now IPC :1.18748: AVG IPC :0.56485: L2-Pf-HR :0.98967: L2-HR :0.89546: (Sim:1h22m11s) 
CPU  0 inst:  642000003 cyc: 1133196770 now IPC :1.06074: AVG IPC :0.56526: L2-Pf-HR :0.98967: L2-HR :0.89557: (Sim:1h22m20s) 
CPU  0 inst:  643000002 cyc: 1134067012 now IPC :1.14910: AVG IPC :0.56571: L2-Pf-HR :0.98967: L2-HR :0.89570: (Sim:1h22m29s) 
CPU  0 inst:  644000000 cyc: 1134920903 now IPC :1.17111: AVG IPC :0.56617: L2-Pf-HR :0.98967: L2-HR :0.89582: (Sim:1h22m38s) 
CPU  0 inst:  645000001 cyc: 1135765911 now IPC :1.18342: AVG IPC :0.56663: L2-Pf-HR :0.98968: L2-HR :0.89595: (Sim:1h22m48s) 
CPU  0 inst:  646000001 cyc: 1136733618 now IPC :1.03337: AVG IPC :0.56702: L2-Pf-HR :0.98969: L2-HR :0.89605: (Sim:1h22m58s) 
CPU  0 inst:  647000003 cyc: 1137639527 now IPC :1.10387: AVG IPC :0.56745: L2-Pf-HR :0.98970: L2-HR :0.89618: (Sim:1h23m7s) 
CPU  0 inst:  648000000 cyc: 1138562018 now IPC :1.08402: AVG IPC :0.56787: L2-Pf-HR :0.98972: L2-HR :0.89630: (Sim:1h23m17s) 
CPU  0 inst:  649000000 cyc: 1139461322 now IPC :1.11197: AVG IPC :0.56830: L2-Pf-HR :0.98974: L2-HR :0.89643: (Sim:1h23m26s) 
CPU  0 inst:  650000002 cyc: 1140459568 now IPC :1.00176: AVG IPC :0.56868: L2-Pf-HR :0.98975: L2-HR :0.89654: (Sim:1h23m34s) 
CPU  0 inst:  651000003 cyc: 1141308518 now IPC :1.17793: AVG IPC :0.56913: L2-Pf-HR :0.98976: L2-HR :0.89667: (Sim:1h23m42s) 
CPU  0 inst:  652000000 cyc: 1142194723 now IPC :1.12840: AVG IPC :0.56957: L2-Pf-HR :0.98977: L2-HR :0.89680: (Sim:1h23m51s) 
CPU  0 inst:  653000003 cyc: 1143037609 now IPC :1.18640: AVG IPC :0.57002: L2-Pf-HR :0.98977: L2-HR :0.89693: (Sim:1h24m0s) 
CPU  0 inst:  654000003 cyc: 1143981774 now IPC :1.05914: AVG IPC :0.57043: L2-Pf-HR :0.98978: L2-HR :0.89704: (Sim:1h24m9s) 
CPU  0 inst:  655000002 cyc: 1144840436 now IPC :1.16460: AVG IPC :0.57087: L2-Pf-HR :0.98978: L2-HR :0.89718: (Sim:1h24m17s) 
CPU  0 inst:  656000000 cyc: 1145729086 now IPC :1.12530: AVG IPC :0.57130: L2-Pf-HR :0.98979: L2-HR :0.89731: (Sim:1h24m23s) 
CPU  0 inst:  657000002 cyc: 1146571330 now IPC :1.18731: AVG IPC :0.57176: L2-Pf-HR :0.98979: L2-HR :0.89743: (Sim:1h24m29s) 
CPU  0 inst:  658000003 cyc: 1147474618 now IPC :1.10707: AVG IPC :0.57218: L2-Pf-HR :0.98979: L2-HR :0.89755: (Sim:1h24m35s) 
CPU  0 inst:  659000003 cyc: 1148387054 now IPC :1.09597: AVG IPC :0.57260: L2-Pf-HR :0.98980: L2-HR :0.89767: (Sim:1h24m41s) 
Finished CPU 0 instr: 657000002 cyc: 1147406636 AVG IPC: 0.57260 (Sim time: 1h24m41s)

ChampSim completed all CPUs

[ROI Statistics]
Core_0_instructions 657000002
Core_0_cycles 1147406636
Core_0_IPC 0.57260

Core_0_branch_prediction_accuracy 99.58944
Core_0_branch_MPKI 0.11916
Core_0_average_ROB_occupancy_at_mispredict 241.50709

Core_0_L1D_total_access 198002841
Core_0_L1D_total_hit 171620555 L1D_total_Hit Ratio: 0.86676
Core_0_L1D_total_miss 26382286
Core_0_L1D_loads 179970002
Core_0_L1D_load_hit 154684046 L1D_load_Hit Ratio: 0.85950
Core_0_L1D_load_miss 25285956
Core_0_L1D_RFOs 17132010
Core_0_L1D_RFO_hit 16035680 L1D_RFO_Hit Ratio: 0.93601
Core_0_L1D_RFO_miss 1096330
Core_0_L1D_prefetches 900829
Core_0_L1D_prefetch_hit 900829 L1D_prefetch_Hit Ratio: 1.00000
Core_0_L1D_prefetch_miss 0
Core_0_L1D_writebacks 0
Core_0_L1D_writeback_hit 0 L1D_writeback_Hit Ratio: -nan
Core_0_L1D_writeback_miss 0
Core_0_L1D_prefetch_requested 123612681
Core_0_L1D_prefetch_issued 33742292
Core_0_L1D_prefetch_useful 0 L1D_Useful Ratio: 0.00000
Core_0_L1D_prefetch_useless 0
Core_0_L1D_prefetch_late 0
Core_0_L1D_average_miss_latency 79.23874

Core_0_L1I_total_access 167703483
Core_0_L1I_total_hit 167698443 L1I_total_Hit Ratio: 0.99997
Core_0_L1I_total_miss 5040
Core_0_L1I_loads 167703483
Core_0_L1I_load_hit 167698443 L1I_load_Hit Ratio: 0.99997
Core_0_L1I_load_miss 5040
Core_0_L1I_RFOs 0
Core_0_L1I_RFO_hit 0 L1I_RFO_Hit Ratio: -nan
Core_0_L1I_RFO_miss 0
Core_0_L1I_prefetches 0
Core_0_L1I_prefetch_hit 0 L1I_prefetch_Hit Ratio: -nan
Core_0_L1I_prefetch_miss 0
Core_0_L1I_writebacks 0
Core_0_L1I_writeback_hit 0 L1I_writeback_Hit Ratio: -nan
Core_0_L1I_writeback_miss 0
Core_0_L1I_prefetch_requested 0
Core_0_L1I_prefetch_issued 0
Core_0_L1I_prefetch_useful 0 L1I_Useful Ratio: -nan
Core_0_L1I_prefetch_useless 0
Core_0_L1I_prefetch_late 0
Core_0_L1I_average_miss_latency 285.53770

Core_0_L2C_total_access 61988786
Core_0_L2C_total_hit 55645341 L2C_total_Hit Ratio: 0.89767
Core_0_L2C_total_miss 6343445
Core_0_L2C_loads 25290988
Core_0_L2C_load_hit 20320587 L2C_load_Hit Ratio: 0.80347
Core_0_L2C_load_miss 4970401
Core_0_L2C_RFOs 1096330
Core_0_L2C_RFO_hit 46810 L2C_RFO_Hit Ratio: 0.04270
Core_0_L2C_RFO_miss 1049520
Core_0_L2C_prefetches 31708352
Core_0_L2C_prefetch_hit 31384833 L2C_prefetch_Hit Ratio: 0.98980
Core_0_L2C_prefetch_miss 323519
Core_0_L2C_writebacks 3893116
Core_0_L2C_writeback_hit 3893111 L2C_writeback_Hit Ratio: 1.00000
Core_0_L2C_writeback_miss 5
Core_0_L2C_prefetch_requested 20233126
Core_0_L2C_prefetch_issued 294255
Core_0_L2C_prefetch_useful 323977 L2C_Useful Ratio: 1.10101
Core_0_L2C_prefetch_useless 481
Core_0_L2C_prefetch_late 6568
Core_0_L2C_average_miss_latency 274.13008

Core_0_LLC_total_access 10258932
Core_0_LLC_total_hit 4540992 LLC_total_Hit Ratio: 0.44264
Core_0_LLC_total_miss 5717940
Core_0_LLC_loads 4963833
Core_0_LLC_load_hit 426417 LLC_load_Hit Ratio: 0.08590
Core_0_LLC_load_miss 4537416
Core_0_LLC_RFOs 1049520
Core_0_LLC_RFO_hit 269 LLC_RFO_Hit Ratio: 0.00026
Core_0_LLC_RFO_miss 1049251
Core_0_LLC_prefetches 470749
Core_0_LLC_prefetch_hit 340441 LLC_prefetch_Hit Ratio: 0.72319
Core_0_LLC_prefetch_miss 130308
Core_0_LLC_writebacks 3774830
Core_0_LLC_writeback_hit 3773865 LLC_writeback_Hit Ratio: 0.99974
Core_0_LLC_writeback_miss 965
Core_0_LLC_prefetch_requested 0
Core_0_LLC_prefetch_issued 0
Core_0_LLC_prefetch_useful 31209 LLC_Useful Ratio: inf
Core_0_LLC_prefetch_useless 97103
Core_0_LLC_prefetch_late 167
Core_0_LLC_average_miss_latency 272.17985

Core_0_major_page_fault 0
Core_0_minor_page_fault 37887

CPU 0 L1D next line prefetcher final stats
Prefetcher final stats
Training Unit Size: 4875
Addr table size: 2349649 2349655


Triggers: 4989315
No Prediction: 2370106 47.50364
Stream end: 134815
No translation: 118233552 2369.73516
Predictions: 294255 5.89770


Stream divergence: 70440 1.41182
Stream divergence -- new stream: 0
Channel_0_RQ_row_buffer_hit 3046109
Channel_0_RQ_row_buffer_miss 2670791
Channel_0_WQ_row_buffer_hit 1143492
Channel_0_WQ_row_buffer_miss 2192592
Channel_0_WQ_full 0
Channel_0_dbus_congested 2737953

avg_congested_cycle 11

EzSearch AVG IPC :0.57260: L2-Pf-HR :0.98980 : L2-HR :0.89767 Uful:1.10101
     > Finished combination: TraceType=770-tot Sim:657000000 Prefetcher=L2isb_ideal L1=isb_ideal
