TRACE: [496000000][OPT-125M]_[h12][s1024][d64] Warmup: 2000000 NumTraces: 496000000
L1:isb_ideal:L2:isb_ideal
*************************************************
   ChampSim Multicore Out-of-Order Simulator
   Last compiled: Oct 26 2024 17:24:09
*************************************************

trace_0 770-tot_memTraces_v3/memTraces[496000000][OPT-125M]_[h12][s1024][d64].champsim.xz
L1D: Ideal ISB Prefetching
Ideal ISB Prefetching
MAIN.cc ln 751 stats print skipped
CPU  0 inst:    1000002 cyc:     498146 now IPC :2.00745: AVG IPC :2.00745: L2-Pf-HR :1.00000: L2-HR :0.87926: (Sim:0h0m20s) 
CPU  0 inst:    2000000 cyc:     981133 now IPC :2.07045: AVG IPC :2.03846: L2-Pf-HR :1.00000: L2-HR :0.91225: (Sim:0h0m42s) 

Warmup complete CPU  0 instructions:    2000002 cycles:     981134 (Simulation time: 0 hr 0 min 42 sec) 

CPU  0 inst:    3000001 cyc:    1622547 now IPC :1.55906: AVG IPC :1.55906: L2-Pf-HR :1.00000: L2-HR :0.94119: (Sim:0h1m0s) 
CPU  0 inst:    4000000 cyc:    2266449 now IPC :1.55303: AVG IPC :1.55604: L2-Pf-HR :1.00000: L2-HR :0.93972: (Sim:0h1m19s) 
CPU  0 inst:    5000000 cyc:    2908090 now IPC :1.55850: AVG IPC :1.55686: L2-Pf-HR :1.00000: L2-HR :0.94004: (Sim:0h1m37s) 
CPU  0 inst:    6000005 cyc:    3551659 now IPC :1.55384: AVG IPC :1.55610: L2-Pf-HR :1.00000: L2-HR :0.93974: (Sim:0h1m55s) 
CPU  0 inst:    7000005 cyc:    4227467 now IPC :1.47971: AVG IPC :1.54020: L2-Pf-HR :1.00000: L2-HR :0.93994: (Sim:0h2m14s) 
CPU  0 inst:    8000004 cyc:    4836336 now IPC :1.64239: AVG IPC :1.55634: L2-Pf-HR :1.00000: L2-HR :0.94235: (Sim:0h2m32s) 
CPU  0 inst:    9000005 cyc:    5445326 now IPC :1.64206: AVG IPC :1.56803: L2-Pf-HR :1.00000: L2-HR :0.94415: (Sim:0h2m50s) 
CPU  0 inst:   10000000 cyc:    6055195 now IPC :1.63969: AVG IPC :1.57665: L2-Pf-HR :1.00000: L2-HR :0.94527: (Sim:0h3m8s) 
CPU  0 inst:   11000000 cyc:    6664138 now IPC :1.64219: AVG IPC :1.58367: L2-Pf-HR :1.00000: L2-HR :0.94650: (Sim:0h3m26s) 
CPU  0 inst:   12000003 cyc:    7274033 now IPC :1.63963: AVG IPC :1.58909: L2-Pf-HR :1.00000: L2-HR :0.94712: (Sim:0h3m42s) 
CPU  0 inst:   13000005 cyc:    7920880 now IPC :1.54596: AVG IPC :1.58507: L2-Pf-HR :1.00000: L2-HR :0.94708: (Sim:0h3m51s) 
CPU  0 inst:   14000002 cyc:    8525847 now IPC :1.65298: AVG IPC :1.59052: L2-Pf-HR :1.00000: L2-HR :0.94751: (Sim:0h4m0s) 
CPU  0 inst:   15000003 cyc:    9130279 now IPC :1.65445: AVG IPC :1.59526: L2-Pf-HR :1.00000: L2-HR :0.94798: (Sim:0h4m9s) 
CPU  0 inst:   16000003 cyc:    9734754 now IPC :1.65433: AVG IPC :1.59934: L2-Pf-HR :1.00000: L2-HR :0.94836: (Sim:0h4m17s) 
CPU  0 inst:   17000005 cyc:   10415920 now IPC :1.46807: AVG IPC :1.58986: L2-Pf-HR :1.00000: L2-HR :0.94738: (Sim:0h4m26s) 
CPU  0 inst:   18000000 cyc:   11036275 now IPC :1.61197: AVG IPC :1.59123: L2-Pf-HR :1.00000: L2-HR :0.94747: (Sim:0h4m35s) 
CPU  0 inst:   19000005 cyc:   11657791 now IPC :1.60898: AVG IPC :1.59226: L2-Pf-HR :1.00000: L2-HR :0.94740: (Sim:0h4m43s) 
CPU  0 inst:   20000003 cyc:   12278812 now IPC :1.61025: AVG IPC :1.59325: L2-Pf-HR :1.00000: L2-HR :0.94747: (Sim:0h4m52s) 
CPU  0 inst:   21000001 cyc:   12899068 now IPC :1.61223: AVG IPC :1.59424: L2-Pf-HR :1.00000: L2-HR :0.94742: (Sim:0h5m1s) 
CPU  0 inst:   22000001 cyc:   13520517 now IPC :1.60914: AVG IPC :1.59497: L2-Pf-HR :1.00000: L2-HR :0.94746: (Sim:0h5m10s) 
CPU  0 inst:   23000003 cyc:   14206113 now IPC :1.45859: AVG IPC :1.58790: L2-Pf-HR :1.00000: L2-HR :0.94715: (Sim:0h5m19s) 
CPU  0 inst:   24000003 cyc:   14829492 now IPC :1.60416: AVG IPC :1.58864: L2-Pf-HR :1.00000: L2-HR :0.94748: (Sim:0h5m27s) 
CPU  0 inst:   25000003 cyc:   15454922 now IPC :1.59890: AVG IPC :1.58908: L2-Pf-HR :1.00000: L2-HR :0.94774: (Sim:0h5m36s) 
CPU  0 inst:   26000003 cyc:   16076966 now IPC :1.60760: AVG IPC :1.58984: L2-Pf-HR :1.00000: L2-HR :0.94806: (Sim:0h5m44s) 
CPU  0 inst:   27000004 cyc:   16697377 now IPC :1.61184: AVG IPC :1.59071: L2-Pf-HR :1.00000: L2-HR :0.94824: (Sim:0h5m53s) 
CPU  0 inst:   28000000 cyc:   17316609 now IPC :1.61490: AVG IPC :1.59163: L2-Pf-HR :1.00000: L2-HR :0.94853: (Sim:0h6m1s) 
CPU  0 inst:   29000005 cyc:   18006058 now IPC :1.45044: AVG IPC :1.58591: L2-Pf-HR :1.00000: L2-HR :0.94838: (Sim:0h6m10s) 
CPU  0 inst:   30000000 cyc:   18651045 now IPC :1.55041: AVG IPC :1.58461: L2-Pf-HR :1.00000: L2-HR :0.94855: (Sim:0h6m19s) 
CPU  0 inst:   31000001 cyc:   19293605 now IPC :1.55628: AVG IPC :1.58362: L2-Pf-HR :1.00000: L2-HR :0.94872: (Sim:0h6m28s) 
CPU  0 inst:   32000004 cyc:   19934765 now IPC :1.55968: AVG IPC :1.58281: L2-Pf-HR :1.00000: L2-HR :0.94884: (Sim:0h6m36s) 
CPU  0 inst:   33000003 cyc:   20688615 now IPC :1.32652: AVG IPC :1.57301: L2-Pf-HR :1.00000: L2-HR :0.94844: (Sim:0h6m45s) 
CPU  0 inst:   34000000 cyc:   21375938 now IPC :1.45492: AVG IPC :1.56903: L2-Pf-HR :1.00000: L2-HR :0.94836: (Sim:0h6m54s) 
CPU  0 inst:   35000005 cyc:   22061888 now IPC :1.45784: AVG IPC :1.56541: L2-Pf-HR :1.00000: L2-HR :0.94837: (Sim:0h7m3s) 
CPU  0 inst:   36000002 cyc:   22750215 now IPC :1.45279: AVG IPC :1.56185: L2-Pf-HR :1.00000: L2-HR :0.94831: (Sim:0h7m12s) 
CPU  0 inst:   37000004 cyc:   23440539 now IPC :1.44860: AVG IPC :1.55837: L2-Pf-HR :1.00000: L2-HR :0.94831: (Sim:0h7m21s) 
CPU  0 inst:   38000005 cyc:   24133027 now IPC :1.44407: AVG IPC :1.55495: L2-Pf-HR :1.00000: L2-HR :0.94827: (Sim:0h7m30s) 
CPU  0 inst:   39000003 cyc:   24896496 now IPC :1.30981: AVG IPC :1.54712: L2-Pf-HR :0.99999: L2-HR :0.94804: (Sim:0h7m39s) 
CPU  0 inst:   40000001 cyc:   25564412 now IPC :1.49719: AVG IPC :1.54577: L2-Pf-HR :0.99999: L2-HR :0.94820: (Sim:0h7m48s) 
CPU  0 inst:   41000001 cyc:   26233775 now IPC :1.49396: AVG IPC :1.54439: L2-Pf-HR :0.99999: L2-HR :0.94837: (Sim:0h7m57s) 
CPU  0 inst:   42000001 cyc:   26903778 now IPC :1.49253: AVG IPC :1.54305: L2-Pf-HR :0.99999: L2-HR :0.94847: (Sim:0h8m6s) 
CPU  0 inst:   43000005 cyc:   27570218 now IPC :1.50052: AVG IPC :1.54199: L2-Pf-HR :0.99999: L2-HR :0.94865: (Sim:0h8m15s) 
CPU  0 inst:   44000000 cyc:   28238890 now IPC :1.49549: AVG IPC :1.54085: L2-Pf-HR :0.99999: L2-HR :0.94875: (Sim:0h8m23s) 
CPU  0 inst:   45000003 cyc:   28958126 now IPC :1.39037: AVG IPC :1.53698: L2-Pf-HR :0.99999: L2-HR :0.94867: (Sim:0h8m33s) 
CPU  0 inst:   46000000 cyc:   29621561 now IPC :1.50730: AVG IPC :1.53629: L2-Pf-HR :0.99999: L2-HR :0.94879: (Sim:0h8m42s) 
CPU  0 inst:   47000000 cyc:   30283685 now IPC :1.51029: AVG IPC :1.53570: L2-Pf-HR :0.99999: L2-HR :0.94886: (Sim:0h8m50s) 
CPU  0 inst:   48000002 cyc:   30944173 now IPC :1.51404: AVG IPC :1.53522: L2-Pf-HR :0.99999: L2-HR :0.94895: (Sim:0h8m59s) 
CPU  0 inst:   49000003 cyc:   31701490 now IPC :1.32045: AVG IPC :1.52993: L2-Pf-HR :0.99999: L2-HR :0.94867: (Sim:0h9m9s) 
CPU  0 inst:   50000004 cyc:   32379618 now IPC :1.47465: AVG IPC :1.52874: L2-Pf-HR :0.99999: L2-HR :0.94866: (Sim:0h9m18s) 
CPU  0 inst:   51000001 cyc:   33053930 now IPC :1.48299: AVG IPC :1.52777: L2-Pf-HR :0.99999: L2-HR :0.94861: (Sim:0h9m27s) 
CPU  0 inst:   52000003 cyc:   33731647 now IPC :1.47555: AVG IPC :1.52669: L2-Pf-HR :0.99999: L2-HR :0.94860: (Sim:0h9m36s) 
CPU  0 inst:   53000000 cyc:   34409447 now IPC :1.47536: AVG IPC :1.52565: L2-Pf-HR :0.99999: L2-HR :0.94856: (Sim:0h9m45s) 
CPU  0 inst:   54000002 cyc:   35088668 now IPC :1.47228: AVG IPC :1.52459: L2-Pf-HR :0.99999: L2-HR :0.94854: (Sim:0h9m54s) 
CPU  0 inst:   55000005 cyc:   35846752 now IPC :1.31912: AVG IPC :1.52012: L2-Pf-HR :0.99999: L2-HR :0.94836: (Sim:0h10m3s) 
CPU  0 inst:   56000001 cyc:   36507683 now IPC :1.51301: AVG IPC :1.51999: L2-Pf-HR :0.99999: L2-HR :0.94847: (Sim:0h10m12s) 
CPU  0 inst:   57000004 cyc:   37169474 now IPC :1.51106: AVG IPC :1.51983: L2-Pf-HR :0.99999: L2-HR :0.94855: (Sim:0h10m21s) 
CPU  0 inst:   58000005 cyc:   37832032 now IPC :1.50930: AVG IPC :1.51964: L2-Pf-HR :0.99999: L2-HR :0.94867: (Sim:0h10m30s) 
CPU  0 inst:   59000002 cyc:   38493476 now IPC :1.51184: AVG IPC :1.51950: L2-Pf-HR :0.99999: L2-HR :0.94872: (Sim:0h10m42s) 
CPU  0 inst:   60000003 cyc:   39153396 now IPC :1.51534: AVG IPC :1.51943: L2-Pf-HR :0.99999: L2-HR :0.94884: (Sim:0h10m51s) 
CPU  0 inst:   61000002 cyc:   39866910 now IPC :1.40151: AVG IPC :1.51726: L2-Pf-HR :0.99999: L2-HR :0.94877: (Sim:0h11m0s) 
CPU  0 inst:   62000005 cyc:   40520972 now IPC :1.52891: AVG IPC :1.51746: L2-Pf-HR :0.99999: L2-HR :0.94883: (Sim:0h11m9s) 
CPU  0 inst:   63000005 cyc:   41173803 now IPC :1.53179: AVG IPC :1.51769: L2-Pf-HR :0.99999: L2-HR :0.94889: (Sim:0h11m18s) 
CPU  0 inst:   64000005 cyc:   41822909 now IPC :1.54058: AVG IPC :1.51805: L2-Pf-HR :0.99999: L2-HR :0.94897: (Sim:0h11m27s) 
CPU  0 inst:   65000000 cyc:   42560193 now IPC :1.35632: AVG IPC :1.51519: L2-Pf-HR :0.99999: L2-HR :0.94877: (Sim:0h11m36s) 
CPU  0 inst:   66000001 cyc:   43248583 now IPC :1.45267: AVG IPC :1.51417: L2-Pf-HR :0.99999: L2-HR :0.94873: (Sim:0h11m45s) 
CPU  0 inst:   67000005 cyc:   43935245 now IPC :1.45633: AVG IPC :1.51324: L2-Pf-HR :0.99999: L2-HR :0.94872: (Sim:0h11m54s) 
CPU  0 inst:   68000003 cyc:   44624035 now IPC :1.45182: AVG IPC :1.51227: L2-Pf-HR :0.99999: L2-HR :0.94869: (Sim:0h12m3s) 
CPU  0 inst:   69000000 cyc:   45312641 now IPC :1.45220: AVG IPC :1.51134: L2-Pf-HR :0.99999: L2-HR :0.94867: (Sim:0h12m12s) 
CPU  0 inst:   70000001 cyc:   46002565 now IPC :1.44944: AVG IPC :1.51039: L2-Pf-HR :0.99999: L2-HR :0.94865: (Sim:0h12m21s) 
CPU  0 inst:   71000003 cyc:   46756260 now IPC :1.32680: AVG IPC :1.50737: L2-Pf-HR :0.99999: L2-HR :0.94849: (Sim:0h12m30s) 
CPU  0 inst:   72000004 cyc:   47426620 now IPC :1.49174: AVG IPC :1.50714: L2-Pf-HR :0.99999: L2-HR :0.94856: (Sim:0h12m39s) 
CPU  0 inst:   73000005 cyc:   48096766 now IPC :1.49221: AVG IPC :1.50693: L2-Pf-HR :0.99999: L2-HR :0.94864: (Sim:0h12m48s) 
CPU  0 inst:   74000005 cyc:   48769231 now IPC :1.48707: AVG IPC :1.50665: L2-Pf-HR :0.99999: L2-HR :0.94869: (Sim:0h12m57s) 
CPU  0 inst:   75000001 cyc:   49438710 now IPC :1.49369: AVG IPC :1.50647: L2-Pf-HR :0.99999: L2-HR :0.94878: (Sim:0h13m6s) 
CPU  0 inst:   76000005 cyc:   50108561 now IPC :1.49288: AVG IPC :1.50629: L2-Pf-HR :0.99999: L2-HR :0.94883: (Sim:0h13m15s) 
CPU  0 inst:   77000002 cyc:   50837993 now IPC :1.37093: AVG IPC :1.50431: L2-Pf-HR :0.99999: L2-HR :0.94880: (Sim:0h13m24s) 
CPU  0 inst:   78000004 cyc:   51513609 now IPC :1.48013: AVG IPC :1.50398: L2-Pf-HR :0.99999: L2-HR :0.94883: (Sim:0h13m33s) 
CPU  0 inst:   79000000 cyc:   52186758 now IPC :1.48555: AVG IPC :1.50374: L2-Pf-HR :0.99999: L2-HR :0.94889: (Sim:0h13m42s) 
CPU  0 inst:   80000003 cyc:   52859790 now IPC :1.48582: AVG IPC :1.50351: L2-Pf-HR :0.99999: L2-HR :0.94893: (Sim:0h13m51s) 
CPU  0 inst:   81000003 cyc:   53622365 now IPC :1.31135: AVG IPC :1.50072: L2-Pf-HR :0.99999: L2-HR :0.94878: (Sim:0h14m0s) 
CPU  0 inst:   82000000 cyc:   54309555 now IPC :1.45520: AVG IPC :1.50014: L2-Pf-HR :0.99999: L2-HR :0.94877: (Sim:0h14m18s) 
CPU  0 inst:   83000002 cyc:   54995910 now IPC :1.45697: AVG IPC :1.49959: L2-Pf-HR :0.99999: L2-HR :0.94874: (Sim:0h14m37s) 
CPU  0 inst:   84000000 cyc:   55683225 now IPC :1.45493: AVG IPC :1.49903: L2-Pf-HR :0.99999: L2-HR :0.94872: (Sim:0h14m57s) 
CPU  0 inst:   85000001 cyc:   56373618 now IPC :1.44845: AVG IPC :1.49840: L2-Pf-HR :0.99999: L2-HR :0.94870: (Sim:0h15m16s) 
CPU  0 inst:   86000004 cyc:   57060766 now IPC :1.45529: AVG IPC :1.49787: L2-Pf-HR :0.99999: L2-HR :0.94868: (Sim:0h15m35s) 
CPU  0 inst:   87000001 cyc:   57811155 now IPC :1.33264: AVG IPC :1.49569: L2-Pf-HR :0.99999: L2-HR :0.94854: (Sim:0h15m56s) 
CPU  0 inst:   88000001 cyc:   58499547 now IPC :1.45266: AVG IPC :1.49517: L2-Pf-HR :0.99999: L2-HR :0.94860: (Sim:0h16m15s) 
CPU  0 inst:   89000001 cyc:   59170368 now IPC :1.49071: AVG IPC :1.49512: L2-Pf-HR :0.99999: L2-HR :0.94865: (Sim:0h16m34s) 
CPU  0 inst:   90000005 cyc:   59841544 now IPC :1.48993: AVG IPC :1.49506: L2-Pf-HR :0.99999: L2-HR :0.94872: (Sim:0h16m53s) 
CPU  0 inst:   91000004 cyc:   60514107 now IPC :1.48685: AVG IPC :1.49497: L2-Pf-HR :0.99999: L2-HR :0.94875: (Sim:0h17m13s) 
CPU  0 inst:   92000005 cyc:   61184534 now IPC :1.49159: AVG IPC :1.49493: L2-Pf-HR :0.99999: L2-HR :0.94881: (Sim:0h17m32s) 
CPU  0 inst:   93000001 cyc:   61898622 now IPC :1.40038: AVG IPC :1.49382: L2-Pf-HR :0.99999: L2-HR :0.94878: (Sim:0h17m52s) 
CPU  0 inst:   94000005 cyc:   62565307 now IPC :1.49996: AVG IPC :1.49389: L2-Pf-HR :0.99999: L2-HR :0.94881: (Sim:0h18m11s) 
CPU  0 inst:   95000002 cyc:   63227559 now IPC :1.50999: AVG IPC :1.49406: L2-Pf-HR :1.00000: L2-HR :0.94885: (Sim:0h18m30s) 
CPU  0 inst:   96000003 cyc:   63887641 now IPC :1.51496: AVG IPC :1.49428: L2-Pf-HR :1.00000: L2-HR :0.94888: (Sim:0h18m48s) 
CPU  0 inst:   97000001 cyc:   64612169 now IPC :1.38021: AVG IPC :1.49298: L2-Pf-HR :0.99999: L2-HR :0.94878: (Sim:0h19m8s) 
CPU  0 inst:   98000001 cyc:   65320313 now IPC :1.41214: AVG IPC :1.49209: L2-Pf-HR :1.00000: L2-HR :0.94875: (Sim:0h19m27s) 
CPU  0 inst:   99000001 cyc:   66005017 now IPC :1.46049: AVG IPC :1.49176: L2-Pf-HR :1.00000: L2-HR :0.94874: (Sim:0h19m46s) 
CPU  0 inst:  100000003 cyc:   66690011 now IPC :1.45987: AVG IPC :1.49143: L2-Pf-HR :1.00000: L2-HR :0.94872: (Sim:0h20m5s) 
CPU  0 inst:  101000004 cyc:   67378612 now IPC :1.45222: AVG IPC :1.49102: L2-Pf-HR :1.00000: L2-HR :0.94870: (Sim:0h20m24s) 
CPU  0 inst:  102000002 cyc:   68066080 now IPC :1.45461: AVG IPC :1.49065: L2-Pf-HR :1.00000: L2-HR :0.94868: (Sim:0h20m43s) 
CPU  0 inst:  103000001 cyc:   68761888 now IPC :1.43718: AVG IPC :1.49010: L2-Pf-HR :1.00000: L2-HR :0.94869: (Sim:0h21m2s) 
CPU  0 inst:  104000005 cyc:   69508084 now IPC :1.34014: AVG IPC :1.48847: L2-Pf-HR :1.00000: L2-HR :0.94859: (Sim:0h21m22s) 
CPU  0 inst:  105000000 cyc:   70175331 now IPC :1.49869: AVG IPC :1.48856: L2-Pf-HR :1.00000: L2-HR :0.94865: (Sim:0h21m41s) 
CPU  0 inst:  106000003 cyc:   70843469 now IPC :1.49670: AVG IPC :1.48864: L2-Pf-HR :1.00000: L2-HR :0.94868: (Sim:0h21m59s) 
CPU  0 inst:  107000005 cyc:   71511226 now IPC :1.49755: AVG IPC :1.48873: L2-Pf-HR :1.00000: L2-HR :0.94873: (Sim:0h22m18s) 
CPU  0 inst:  108000000 cyc:   72179616 now IPC :1.49612: AVG IPC :1.48880: L2-Pf-HR :1.00000: L2-HR :0.94877: (Sim:0h22m37s) 
CPU  0 inst:  109000001 cyc:   72852181 now IPC :1.48685: AVG IPC :1.48878: L2-Pf-HR :1.00000: L2-HR :0.94884: (Sim:0h22m56s) 
CPU  0 inst:  110000003 cyc:   73566424 now IPC :1.40009: AVG IPC :1.48790: L2-Pf-HR :1.00000: L2-HR :0.94877: (Sim:0h23m15s) 
CPU  0 inst:  111000000 cyc:   74243936 now IPC :1.47598: AVG IPC :1.48779: L2-Pf-HR :1.00000: L2-HR :0.94880: (Sim:0h23m34s) 
CPU  0 inst:  112000000 cyc:   74919721 now IPC :1.47976: AVG IPC :1.48772: L2-Pf-HR :1.00000: L2-HR :0.94883: (Sim:0h23m53s) 
CPU  0 inst:  113000000 cyc:   75596367 now IPC :1.47788: AVG IPC :1.48763: L2-Pf-HR :1.00000: L2-HR :0.94887: (Sim:0h24m11s) 
CPU  0 inst:  114000001 cyc:   76366606 now IPC :1.29830: AVG IPC :1.48570: L2-Pf-HR :1.00000: L2-HR :0.94872: (Sim:0h24m31s) 
CPU  0 inst:  115000004 cyc:   77057800 now IPC :1.44678: AVG IPC :1.48534: L2-Pf-HR :1.00000: L2-HR :0.94870: (Sim:0h24m50s) 
CPU  0 inst:  116000001 cyc:   77749310 now IPC :1.44611: AVG IPC :1.48499: L2-Pf-HR :1.00000: L2-HR :0.94869: (Sim:0h25m9s) 
CPU  0 inst:  117000001 cyc:   78439606 now IPC :1.44865: AVG IPC :1.48467: L2-Pf-HR :1.00000: L2-HR :0.94867: (Sim:0h25m28s) 
CPU  0 inst:  118000001 cyc:   79129410 now IPC :1.44969: AVG IPC :1.48436: L2-Pf-HR :1.00000: L2-HR :0.94865: (Sim:0h25m47s) 
CPU  0 inst:  119000003 cyc:   79819187 now IPC :1.44975: AVG IPC :1.48405: L2-Pf-HR :1.00000: L2-HR :0.94864: (Sim:0h26m6s) 
CPU  0 inst:  120000000 cyc:   80569596 now IPC :1.33260: AVG IPC :1.48263: L2-Pf-HR :1.00000: L2-HR :0.94857: (Sim:0h26m26s) 
CPU  0 inst:  121000000 cyc:   81232004 now IPC :1.50964: AVG IPC :1.48285: L2-Pf-HR :1.00000: L2-HR :0.94860: (Sim:0h26m35s) 
CPU  0 inst:  122000001 cyc:   81891769 now IPC :1.51569: AVG IPC :1.48312: L2-Pf-HR :1.00000: L2-HR :0.94865: (Sim:0h26m44s) 
CPU  0 inst:  123000002 cyc:   82551739 now IPC :1.51522: AVG IPC :1.48338: L2-Pf-HR :1.00000: L2-HR :0.94867: (Sim:0h26m53s) 
CPU  0 inst:  124000003 cyc:   83212216 now IPC :1.51406: AVG IPC :1.48362: L2-Pf-HR :1.00000: L2-HR :0.94871: (Sim:0h27m12s) 
CPU  0 inst:  125000000 cyc:   83872441 now IPC :1.51463: AVG IPC :1.48387: L2-Pf-HR :1.00000: L2-HR :0.94875: (Sim:0h27m30s) 
CPU  0 inst:  126000003 cyc:   84607097 now IPC :1.36119: AVG IPC :1.48279: L2-Pf-HR :1.00000: L2-HR :0.94871: (Sim:0h27m50s) 
CPU  0 inst:  127000004 cyc:   85283070 now IPC :1.47935: AVG IPC :1.48277: L2-Pf-HR :1.00000: L2-HR :0.94874: (Sim:0h28m9s) 
CPU  0 inst:  128000005 cyc:   85956497 now IPC :1.48494: AVG IPC :1.48278: L2-Pf-HR :1.00000: L2-HR :0.94877: (Sim:0h28m28s) 
CPU  0 inst:  129000003 cyc:   86629658 now IPC :1.48553: AVG IPC :1.48280: L2-Pf-HR :1.00000: L2-HR :0.94879: (Sim:0h28m47s) 
CPU  0 inst:  130000004 cyc:   87396547 now IPC :1.30397: AVG IPC :1.48122: L2-Pf-HR :1.00000: L2-HR :0.94867: (Sim:0h29m0s) 
CPU  0 inst:  131000005 cyc:   88081332 now IPC :1.46031: AVG IPC :1.48105: L2-Pf-HR :1.00000: L2-HR :0.94866: (Sim:0h29m8s) 
CPU  0 inst:  132000003 cyc:   88765706 now IPC :1.46119: AVG IPC :1.48090: L2-Pf-HR :1.00000: L2-HR :0.94864: (Sim:0h29m17s) 
CPU  0 inst:  133000001 cyc:   89446231 now IPC :1.46945: AVG IPC :1.48081: L2-Pf-HR :1.00000: L2-HR :0.94863: (Sim:0h29m26s) 
CPU  0 inst:  134000002 cyc:   90131568 now IPC :1.45914: AVG IPC :1.48064: L2-Pf-HR :1.00000: L2-HR :0.94861: (Sim:0h29m35s) 
CPU  0 inst:  135000001 cyc:   90816704 now IPC :1.45956: AVG IPC :1.48048: L2-Pf-HR :1.00000: L2-HR :0.94859: (Sim:0h29m44s) 
CPU  0 inst:  136000003 cyc:   91571066 now IPC :1.32563: AVG IPC :1.47919: L2-Pf-HR :1.00000: L2-HR :0.94852: (Sim:0h29m54s) 
CPU  0 inst:  137000004 cyc:   92238234 now IPC :1.49887: AVG IPC :1.47934: L2-Pf-HR :1.00000: L2-HR :0.94857: (Sim:0h30m3s) 
CPU  0 inst:  138000004 cyc:   92907480 now IPC :1.49422: AVG IPC :1.47945: L2-Pf-HR :1.00000: L2-HR :0.94859: (Sim:0h30m12s) 
CPU  0 inst:  139000005 cyc:   93573812 now IPC :1.50075: AVG IPC :1.47960: L2-Pf-HR :1.00000: L2-HR :0.94862: (Sim:0h30m20s) 
CPU  0 inst:  140000005 cyc:   94240654 now IPC :1.49961: AVG IPC :1.47974: L2-Pf-HR :1.00000: L2-HR :0.94865: (Sim:0h30m29s) 
CPU  0 inst:  141000002 cyc:   94908125 now IPC :1.49819: AVG IPC :1.47987: L2-Pf-HR :1.00000: L2-HR :0.94868: (Sim:0h30m38s) 
CPU  0 inst:  142000001 cyc:   95637744 now IPC :1.37058: AVG IPC :1.47903: L2-Pf-HR :1.00000: L2-HR :0.94865: (Sim:0h30m47s) 
CPU  0 inst:  143000004 cyc:   96307491 now IPC :1.49311: AVG IPC :1.47913: L2-Pf-HR :1.00000: L2-HR :0.94868: (Sim:0h30m56s) 
CPU  0 inst:  144000005 cyc:   96974554 now IPC :1.49911: AVG IPC :1.47927: L2-Pf-HR :1.00000: L2-HR :0.94869: (Sim:0h31m5s) 
CPU  0 inst:  145000000 cyc:   97640509 now IPC :1.50160: AVG IPC :1.47942: L2-Pf-HR :1.00000: L2-HR :0.94872: (Sim:0h31m14s) 
CPU  0 inst:  146000001 cyc:   98403617 now IPC :1.31043: AVG IPC :1.47810: L2-Pf-HR :1.00000: L2-HR :0.94862: (Sim:0h31m23s) 
CPU  0 inst:  147000001 cyc:   99089136 now IPC :1.45875: AVG IPC :1.47796: L2-Pf-HR :1.00000: L2-HR :0.94861: (Sim:0h31m32s) 
CPU  0 inst:  148000000 cyc:   99776235 now IPC :1.45539: AVG IPC :1.47781: L2-Pf-HR :1.00000: L2-HR :0.94859: (Sim:0h31m41s) 
CPU  0 inst:  149000004 cyc:  100465164 now IPC :1.45153: AVG IPC :1.47762: L2-Pf-HR :1.00000: L2-HR :0.94858: (Sim:0h31m49s) 
CPU  0 inst:  150000005 cyc:  101154873 now IPC :1.44989: AVG IPC :1.47743: L2-Pf-HR :1.00000: L2-HR :0.94856: (Sim:0h31m58s) 
CPU  0 inst:  151000000 cyc:  101846171 now IPC :1.44655: AVG IPC :1.47722: L2-Pf-HR :1.00000: L2-HR :0.94855: (Sim:0h32m7s) 
CPU  0 inst:  152000004 cyc:  102607130 now IPC :1.31414: AVG IPC :1.47600: L2-Pf-HR :1.00000: L2-HR :0.94849: (Sim:0h32m24s) 
CPU  0 inst:  153000001 cyc:  103276997 now IPC :1.49283: AVG IPC :1.47611: L2-Pf-HR :1.00000: L2-HR :0.94850: (Sim:0h32m42s) 
CPU  0 inst:  154000003 cyc:  103947041 now IPC :1.49244: AVG IPC :1.47622: L2-Pf-HR :1.00000: L2-HR :0.94854: (Sim:0h33m1s) 
CPU  0 inst:  155000003 cyc:  104615636 now IPC :1.49567: AVG IPC :1.47634: L2-Pf-HR :1.00000: L2-HR :0.94856: (Sim:0h33m19s) 
CPU  0 inst:  156000003 cyc:  105282654 now IPC :1.49921: AVG IPC :1.47649: L2-Pf-HR :1.00000: L2-HR :0.94859: (Sim:0h33m38s) 
CPU  0 inst:  157000003 cyc:  105950907 now IPC :1.49644: AVG IPC :1.47662: L2-Pf-HR :1.00000: L2-HR :0.94862: (Sim:0h33m56s) 
CPU  0 inst:  158000000 cyc:  106680649 now IPC :1.37034: AVG IPC :1.47588: L2-Pf-HR :1.00000: L2-HR :0.94859: (Sim:0h34m15s) 
CPU  0 inst:  159000005 cyc:  107353873 now IPC :1.48540: AVG IPC :1.47594: L2-Pf-HR :1.00000: L2-HR :0.94861: (Sim:0h34m33s) 
CPU  0 inst:  160000003 cyc:  108024603 now IPC :1.49091: AVG IPC :1.47604: L2-Pf-HR :1.00000: L2-HR :0.94863: (Sim:0h34m42s) 
CPU  0 inst:  161000003 cyc:  108690106 now IPC :1.50262: AVG IPC :1.47620: L2-Pf-HR :1.00000: L2-HR :0.94866: (Sim:0h34m51s) 
CPU  0 inst:  162000004 cyc:  109448163 now IPC :1.31916: AVG IPC :1.47510: L2-Pf-HR :1.00000: L2-HR :0.94857: (Sim:0h35m1s) 
CPU  0 inst:  163000002 cyc:  110126604 now IPC :1.47396: AVG IPC :1.47510: L2-Pf-HR :1.00000: L2-HR :0.94855: (Sim:0h35m10s) 
CPU  0 inst:  164000002 cyc:  110808831 now IPC :1.46579: AVG IPC :1.47504: L2-Pf-HR :1.00000: L2-HR :0.94854: (Sim:0h35m18s) 
CPU  0 inst:  165000001 cyc:  111495019 now IPC :1.45733: AVG IPC :1.47493: L2-Pf-HR :1.00000: L2-HR :0.94852: (Sim:0h35m34s) 
CPU  0 inst:  166000002 cyc:  112182056 now IPC :1.45553: AVG IPC :1.47481: L2-Pf-HR :1.00000: L2-HR :0.94852: (Sim:0h35m53s) 
CPU  0 inst:  167000000 cyc:  112869145 now IPC :1.45541: AVG IPC :1.47469: L2-Pf-HR :1.00000: L2-HR :0.94850: (Sim:0h36m12s) 
CPU  0 inst:  168000003 cyc:  113624336 now IPC :1.32417: AVG IPC :1.47368: L2-Pf-HR :1.00000: L2-HR :0.94843: (Sim:0h36m32s) 
CPU  0 inst:  169000004 cyc:  114296660 now IPC :1.48738: AVG IPC :1.47376: L2-Pf-HR :1.00000: L2-HR :0.94847: (Sim:0h36m51s) 
CPU  0 inst:  170000004 cyc:  114970239 now IPC :1.48461: AVG IPC :1.47383: L2-Pf-HR :1.00000: L2-HR :0.94848: (Sim:0h37m10s) 
CPU  0 inst:  171000004 cyc:  115643163 now IPC :1.48605: AVG IPC :1.47390: L2-Pf-HR :1.00000: L2-HR :0.94851: (Sim:0h37m30s) 
CPU  0 inst:  172000004 cyc:  116314673 now IPC :1.48918: AVG IPC :1.47399: L2-Pf-HR :1.00000: L2-HR :0.94853: (Sim:0h37m49s) 
CPU  0 inst:  173000004 cyc:  116986614 now IPC :1.48823: AVG IPC :1.47407: L2-Pf-HR :1.00000: L2-HR :0.94856: (Sim:0h38m9s) 
CPU  0 inst:  174000001 cyc:  117702632 now IPC :1.39661: AVG IPC :1.47359: L2-Pf-HR :1.00000: L2-HR :0.94854: (Sim:0h38m29s) 
CPU  0 inst:  175000002 cyc:  118372205 now IPC :1.49349: AVG IPC :1.47371: L2-Pf-HR :1.00000: L2-HR :0.94855: (Sim:0h38m48s) 
CPU  0 inst:  176000001 cyc:  119039012 now IPC :1.49968: AVG IPC :1.47385: L2-Pf-HR :1.00000: L2-HR :0.94858: (Sim:0h39m8s) 
CPU  0 inst:  177000001 cyc:  119703301 now IPC :1.50537: AVG IPC :1.47403: L2-Pf-HR :1.00000: L2-HR :0.94859: (Sim:0h39m27s) 
CPU  0 inst:  178000001 cyc:  120459412 now IPC :1.32256: AVG IPC :1.47307: L2-Pf-HR :1.00000: L2-HR :0.94852: (Sim:0h39m48s) 
CPU  0 inst:  179000005 cyc:  121142462 now IPC :1.46403: AVG IPC :1.47302: L2-Pf-HR :1.00000: L2-HR :0.94851: (Sim:0h40m7s) 
CPU  0 inst:  180000000 cyc:  121828389 now IPC :1.45787: AVG IPC :1.47293: L2-Pf-HR :1.00000: L2-HR :0.94850: (Sim:0h40m27s) 
CPU  0 inst:  181000004 cyc:  122514538 now IPC :1.45742: AVG IPC :1.47285: L2-Pf-HR :1.00000: L2-HR :0.94849: (Sim:0h40m47s) 
CPU  0 inst:  182000002 cyc:  123202580 now IPC :1.45340: AVG IPC :1.47274: L2-Pf-HR :1.00000: L2-HR :0.94847: (Sim:0h41m6s) 
CPU  0 inst:  183000002 cyc:  123892106 now IPC :1.45027: AVG IPC :1.47261: L2-Pf-HR :1.00000: L2-HR :0.94847: (Sim:0h41m26s) 
CPU  0 inst:  184000004 cyc:  124661949 now IPC :1.29897: AVG IPC :1.47153: L2-Pf-HR :1.00000: L2-HR :0.94840: (Sim:0h41m47s) 
CPU  0 inst:  185000005 cyc:  125336274 now IPC :1.48297: AVG IPC :1.47159: L2-Pf-HR :1.00000: L2-HR :0.94842: (Sim:0h42m6s) 
CPU  0 inst:  186000004 cyc:  126010196 now IPC :1.48385: AVG IPC :1.47166: L2-Pf-HR :1.00000: L2-HR :0.94845: (Sim:0h42m26s) 
CPU  0 inst:  187000002 cyc:  126684694 now IPC :1.48258: AVG IPC :1.47172: L2-Pf-HR :1.00000: L2-HR :0.94846: (Sim:0h42m45s) 
CPU  0 inst:  188000002 cyc:  127357723 now IPC :1.48582: AVG IPC :1.47179: L2-Pf-HR :1.00000: L2-HR :0.94849: (Sim:0h43m5s) 
CPU  0 inst:  189000002 cyc:  128029910 now IPC :1.48768: AVG IPC :1.47188: L2-Pf-HR :1.00000: L2-HR :0.94852: (Sim:0h43m24s) 
CPU  0 inst:  190000005 cyc:  128756621 now IPC :1.37607: AVG IPC :1.47133: L2-Pf-HR :1.00000: L2-HR :0.94849: (Sim:0h43m45s) 
CPU  0 inst:  191000005 cyc:  129434047 now IPC :1.47618: AVG IPC :1.47136: L2-Pf-HR :1.00000: L2-HR :0.94851: (Sim:0h44m4s) 
CPU  0 inst:  192000000 cyc:  130111239 now IPC :1.47668: AVG IPC :1.47138: L2-Pf-HR :1.00000: L2-HR :0.94853: (Sim:0h44m24s) 
CPU  0 inst:  193000001 cyc:  130786326 now IPC :1.48129: AVG IPC :1.47144: L2-Pf-HR :1.00000: L2-HR :0.94854: (Sim:0h44m43s) 
CPU  0 inst:  194000004 cyc:  132600518 now IPC :0.55121: AVG IPC :1.45875: L2-Pf-HR :1.00000: L2-HR :0.94716: (Sim:0h45m11s) 
CPU  0 inst:  195000000 cyc:  137548724 now IPC :0.20209: AVG IPC :1.41322: L2-Pf-HR :1.00000: L2-HR :0.94142: (Sim:0h46m10s) 
CPU  0 inst:  196000005 cyc:  142717041 now IPC :0.19349: AVG IPC :1.36874: L2-Pf-HR :1.00000: L2-HR :0.93584: (Sim:0h47m11s) 
CPU  0 inst:  197000001 cyc:  147874899 now IPC :0.19388: AVG IPC :1.32749: L2-Pf-HR :1.00000: L2-HR :0.93039: (Sim:0h48m12s) 
CPU  0 inst:  198000003 cyc:  153033128 now IPC :0.19387: AVG IPC :1.28903: L2-Pf-HR :1.00000: L2-HR :0.92508: (Sim:0h49m13s) 
CPU  0 inst:  199000005 cyc:  158194567 now IPC :0.19374: AVG IPC :1.25307: L2-Pf-HR :1.00000: L2-HR :0.91990: (Sim:0h50m15s) 
CPU  0 inst:  200000001 cyc:  163352180 now IPC :0.19389: AVG IPC :1.21943: L2-Pf-HR :1.00000: L2-HR :0.91484: (Sim:0h51m16s) 
CPU  0 inst:  201000000 cyc:  168388392 now IPC :0.19856: AVG IPC :1.18872: L2-Pf-HR :1.00000: L2-HR :0.91053: (Sim:0h52m14s) 
CPU  0 inst:  202000000 cyc:  173473766 now IPC :0.19664: AVG IPC :1.15947: L2-Pf-HR :1.00000: L2-HR :0.90976: (Sim:0h52m56s) 
CPU  0 inst:  203000002 cyc:  178553621 now IPC :0.19686: AVG IPC :1.13193: L2-Pf-HR :1.00000: L2-HR :0.90900: (Sim:0h53m33s) 
CPU  0 inst:  204000005 cyc:  183634205 now IPC :0.19683: AVG IPC :1.10592: L2-Pf-HR :1.00000: L2-HR :0.90824: (Sim:0h54m12s) 
CPU  0 inst:  205000000 cyc:  188719498 now IPC :0.19664: AVG IPC :1.08129: L2-Pf-HR :1.00000: L2-HR :0.90748: (Sim:0h54m54s) 
CPU  0 inst:  206000000 cyc:  193804934 now IPC :0.19664: AVG IPC :1.05796: L2-Pf-HR :1.00000: L2-HR :0.90673: (Sim:0h55m36s) 
CPU  0 inst:  207000000 cyc:  198890339 now IPC :0.19664: AVG IPC :1.03583: L2-Pf-HR :1.00000: L2-HR :0.90597: (Sim:0h56m18s) 
CPU  0 inst:  208000004 cyc:  203953638 now IPC :0.19750: AVG IPC :1.01492: L2-Pf-HR :1.00000: L2-HR :0.90522: (Sim:0h57m1s) 
CPU  0 inst:  209000000 cyc:  208927529 now IPC :0.20105: AVG IPC :0.99545: L2-Pf-HR :1.00000: L2-HR :0.90447: (Sim:0h57m43s) 
CPU  0 inst:  210000001 cyc:  213800407 now IPC :0.20522: AVG IPC :0.97736: L2-Pf-HR :1.00000: L2-HR :0.90372: (Sim:0h58m24s) 
CPU  0 inst:  211000001 cyc:  218441315 now IPC :0.21548: AVG IPC :0.96110: L2-Pf-HR :1.00000: L2-HR :0.90297: (Sim:0h59m4s) 
CPU  0 inst:  212000004 cyc:  223093482 now IPC :0.21495: AVG IPC :0.94547: L2-Pf-HR :1.00000: L2-HR :0.90223: (Sim:0h59m34s) 
CPU  0 inst:  213000000 cyc:  227891549 now IPC :0.20842: AVG IPC :0.92988: L2-Pf-HR :1.00000: L2-HR :0.90148: (Sim:0h59m53s) 
CPU  0 inst:  214000000 cyc:  232579844 now IPC :0.21330: AVG IPC :0.91538: L2-Pf-HR :1.00000: L2-HR :0.90074: (Sim:1h0m12s) 
CPU  0 inst:  215000000 cyc:  237500387 now IPC :0.20323: AVG IPC :0.90056: L2-Pf-HR :1.00000: L2-HR :0.90000: (Sim:1h0m32s) 
CPU  0 inst:  216000000 cyc:  242370329 now IPC :0.20534: AVG IPC :0.88654: L2-Pf-HR :1.00000: L2-HR :0.89926: (Sim:1h0m51s) 
CPU  0 inst:  217000000 cyc:  247124913 now IPC :0.21032: AVG IPC :0.87347: L2-Pf-HR :1.00000: L2-HR :0.89853: (Sim:1h1m30s) 
CPU  0 inst:  218000001 cyc:  251655912 now IPC :0.22070: AVG IPC :0.86167: L2-Pf-HR :1.00000: L2-HR :0.89779: (Sim:1h2m9s) 
CPU  0 inst:  219000003 cyc:  256375613 now IPC :0.21188: AVG IPC :0.84967: L2-Pf-HR :1.00000: L2-HR :0.89706: (Sim:1h2m49s) 
CPU  0 inst:  220000000 cyc:  261103938 now IPC :0.21149: AVG IPC :0.83807: L2-Pf-HR :1.00000: L2-HR :0.89633: (Sim:1h3m30s) 
CPU  0 inst:  221000000 cyc:  265929841 now IPC :0.20722: AVG IPC :0.82658: L2-Pf-HR :1.00000: L2-HR :0.89561: (Sim:1h4m11s) 
CPU  0 inst:  222000000 cyc:  270624553 now IPC :0.21301: AVG IPC :0.81589: L2-Pf-HR :1.00000: L2-HR :0.89488: (Sim:1h4m51s) 
CPU  0 inst:  223000000 cyc:  275421736 now IPC :0.20846: AVG IPC :0.80527: L2-Pf-HR :1.00000: L2-HR :0.89415: (Sim:1h5m31s) 
CPU  0 inst:  224000000 cyc:  280209624 now IPC :0.20886: AVG IPC :0.79505: L2-Pf-HR :1.00000: L2-HR :0.89343: (Sim:1h6m12s) 
CPU  0 inst:  225000001 cyc:  284875261 now IPC :0.21433: AVG IPC :0.78550: L2-Pf-HR :1.00000: L2-HR :0.89271: (Sim:1h6m52s) 
CPU  0 inst:  226000005 cyc:  289499751 now IPC :0.21624: AVG IPC :0.77638: L2-Pf-HR :1.00000: L2-HR :0.89199: (Sim:1h7m32s) 
CPU  0 inst:  227000000 cyc:  294240979 now IPC :0.21091: AVG IPC :0.76724: L2-Pf-HR :1.00000: L2-HR :0.89128: (Sim:1h8m12s) 
CPU  0 inst:  228000000 cyc:  298940155 now IPC :0.21280: AVG IPC :0.75849: L2-Pf-HR :1.00000: L2-HR :0.89056: (Sim:1h8m52s) 
CPU  0 inst:  229000004 cyc:  303552751 now IPC :0.21680: AVG IPC :0.75024: L2-Pf-HR :1.00000: L2-HR :0.88985: (Sim:1h9m31s) 
CPU  0 inst:  230000000 cyc:  308289324 now IPC :0.21112: AVG IPC :0.74193: L2-Pf-HR :1.00000: L2-HR :0.88914: (Sim:1h10m10s) 
CPU  0 inst:  231000000 cyc:  312983038 now IPC :0.21305: AVG IPC :0.73397: L2-Pf-HR :1.00000: L2-HR :0.88843: (Sim:1h10m49s) 
CPU  0 inst:  232000000 cyc:  317748473 now IPC :0.20984: AVG IPC :0.72608: L2-Pf-HR :1.00000: L2-HR :0.88772: (Sim:1h11m29s) 
CPU  0 inst:  233000000 cyc:  322427582 now IPC :0.21372: AVG IPC :0.71863: L2-Pf-HR :1.00000: L2-HR :0.88702: (Sim:1h12m8s) 
CPU  0 inst:  234000003 cyc:  327203375 now IPC :0.20939: AVG IPC :0.71117: L2-Pf-HR :1.00000: L2-HR :0.88631: (Sim:1h12m47s) 
CPU  0 inst:  235000000 cyc:  331835558 now IPC :0.21588: AVG IPC :0.70424: L2-Pf-HR :1.00000: L2-HR :0.88561: (Sim:1h13m25s) 
CPU  0 inst:  236000000 cyc:  336546171 now IPC :0.21229: AVG IPC :0.69733: L2-Pf-HR :1.00000: L2-HR :0.88491: (Sim:1h13m46s) 
CPU  0 inst:  237000000 cyc:  341382730 now IPC :0.20676: AVG IPC :0.69036: L2-Pf-HR :1.00000: L2-HR :0.88421: (Sim:1h14m5s) 
CPU  0 inst:  238000000 cyc:  346104734 now IPC :0.21177: AVG IPC :0.68381: L2-Pf-HR :1.00000: L2-HR :0.88351: (Sim:1h14m24s) 
CPU  0 inst:  239000000 cyc:  350810005 now IPC :0.21253: AVG IPC :0.67747: L2-Pf-HR :1.00000: L2-HR :0.88282: (Sim:1h14m54s) 
CPU  0 inst:  240000000 cyc:  355481074 now IPC :0.21408: AVG IPC :0.67137: L2-Pf-HR :1.00000: L2-HR :0.88212: (Sim:1h15m34s) 
CPU  0 inst:  241000001 cyc:  360064227 now IPC :0.21819: AVG IPC :0.66558: L2-Pf-HR :1.00000: L2-HR :0.88143: (Sim:1h16m14s) 
CPU  0 inst:  242000000 cyc:  364841022 now IPC :0.20935: AVG IPC :0.65959: L2-Pf-HR :1.00000: L2-HR :0.88074: (Sim:1h16m55s) 
CPU  0 inst:  243000000 cyc:  369578791 now IPC :0.21107: AVG IPC :0.65383: L2-Pf-HR :1.00000: L2-HR :0.88005: (Sim:1h17m35s) 
CPU  0 inst:  244000000 cyc:  374360510 now IPC :0.20913: AVG IPC :0.64813: L2-Pf-HR :1.00000: L2-HR :0.87937: (Sim:1h18m15s) 
CPU  0 inst:  245000000 cyc:  379043563 now IPC :0.21354: AVG IPC :0.64275: L2-Pf-HR :1.00000: L2-HR :0.87868: (Sim:1h18m55s) 
CPU  0 inst:  246000004 cyc:  383786924 now IPC :0.21082: AVG IPC :0.63740: L2-Pf-HR :1.00000: L2-HR :0.87800: (Sim:1h19m34s) 
CPU  0 inst:  247000005 cyc:  388553061 now IPC :0.20981: AVG IPC :0.63214: L2-Pf-HR :1.00000: L2-HR :0.87732: (Sim:1h19m53s) 
CPU  0 inst:  248000002 cyc:  393313815 now IPC :0.21005: AVG IPC :0.62702: L2-Pf-HR :1.00000: L2-HR :0.87664: (Sim:1h20m13s) 
CPU  0 inst:  249000003 cyc:  398018000 now IPC :0.21258: AVG IPC :0.62211: L2-Pf-HR :1.00000: L2-HR :0.87596: (Sim:1h20m32s) 
CPU  0 inst:  250000004 cyc:  402711389 now IPC :0.21307: AVG IPC :0.61733: L2-Pf-HR :1.00000: L2-HR :0.87528: (Sim:1h20m51s) 
CPU  0 inst:  251000000 cyc:  407393244 now IPC :0.21359: AVG IPC :0.61268: L2-Pf-HR :1.00000: L2-HR :0.87461: (Sim:1h21m10s) 
CPU  0 inst:  252000000 cyc:  412071220 now IPC :0.21377: AVG IPC :0.60814: L2-Pf-HR :1.00000: L2-HR :0.87394: (Sim:1h21m29s) 
CPU  0 inst:  253000000 cyc:  416903798 now IPC :0.20693: AVG IPC :0.60348: L2-Pf-HR :1.00000: L2-HR :0.87327: (Sim:1h21m48s) 
CPU  0 inst:  254000000 cyc:  421516306 now IPC :0.21680: AVG IPC :0.59924: L2-Pf-HR :1.00000: L2-HR :0.87260: (Sim:1h22m7s) 
CPU  0 inst:  255000002 cyc:  426300206 now IPC :0.20903: AVG IPC :0.59485: L2-Pf-HR :1.00000: L2-HR :0.87193: (Sim:1h22m26s) 
CPU  0 inst:  256000001 cyc:  430993590 now IPC :0.21307: AVG IPC :0.59068: L2-Pf-HR :1.00000: L2-HR :0.87126: (Sim:1h22m45s) 
CPU  0 inst:  257000000 cyc:  435665472 now IPC :0.21405: AVG IPC :0.58663: L2-Pf-HR :1.00000: L2-HR :0.87060: (Sim:1h23m4s) 
CPU  0 inst:  258000000 cyc:  440451626 now IPC :0.20894: AVG IPC :0.58252: L2-Pf-HR :1.00000: L2-HR :0.86993: (Sim:1h23m23s) 
CPU  0 inst:  259000000 cyc:  445179441 now IPC :0.21151: AVG IPC :0.57857: L2-Pf-HR :1.00000: L2-HR :0.86927: (Sim:1h23m42s) 
CPU  0 inst:  260000000 cyc:  449872295 now IPC :0.21309: AVG IPC :0.57475: L2-Pf-HR :1.00000: L2-HR :0.86861: (Sim:1h24m1s) 
CPU  0 inst:  261000000 cyc:  454726308 now IPC :0.20602: AVG IPC :0.57080: L2-Pf-HR :1.00000: L2-HR :0.86796: (Sim:1h24m20s) 
CPU  0 inst:  262000001 cyc:  459359353 now IPC :0.21584: AVG IPC :0.56722: L2-Pf-HR :1.00000: L2-HR :0.86730: (Sim:1h24m39s) 
CPU  0 inst:  263000001 cyc:  464030321 now IPC :0.21409: AVG IPC :0.56366: L2-Pf-HR :1.00000: L2-HR :0.86665: (Sim:1h24m58s) 
CPU  0 inst:  264000003 cyc:  468786097 now IPC :0.21027: AVG IPC :0.56006: L2-Pf-HR :1.00000: L2-HR :0.86599: (Sim:1h25m17s) 
CPU  0 inst:  265000000 cyc:  473617397 now IPC :0.20698: AVG IPC :0.55645: L2-Pf-HR :1.00000: L2-HR :0.86534: (Sim:1h25m37s) 
CPU  0 inst:  266000000 cyc:  478327168 now IPC :0.21232: AVG IPC :0.55306: L2-Pf-HR :1.00000: L2-HR :0.86469: (Sim:1h26m14s) 
CPU  0 inst:  267000004 cyc:  483015178 now IPC :0.21331: AVG IPC :0.54975: L2-Pf-HR :1.00000: L2-HR :0.86404: (Sim:1h26m51s) 
CPU  0 inst:  268000000 cyc:  487764027 now IPC :0.21058: AVG IPC :0.54644: L2-Pf-HR :1.00000: L2-HR :0.86339: (Sim:1h27m30s) 
CPU  0 inst:  269000000 cyc:  492567844 now IPC :0.20817: AVG IPC :0.54314: L2-Pf-HR :1.00000: L2-HR :0.86275: (Sim:1h28m7s) 
CPU  0 inst:  270000001 cyc:  497182186 now IPC :0.21672: AVG IPC :0.54010: L2-Pf-HR :1.00000: L2-HR :0.86210: (Sim:1h28m45s) 
CPU  0 inst:  271000000 cyc:  501894441 now IPC :0.21221: AVG IPC :0.53702: L2-Pf-HR :1.00000: L2-HR :0.86146: (Sim:1h29m23s) 
CPU  0 inst:  272000000 cyc:  506655170 now IPC :0.21005: AVG IPC :0.53394: L2-Pf-HR :1.00000: L2-HR :0.86082: (Sim:1h29m54s) 
CPU  0 inst:  273000000 cyc:  511425807 now IPC :0.20962: AVG IPC :0.53091: L2-Pf-HR :1.00000: L2-HR :0.86018: (Sim:1h30m14s) 
CPU  0 inst:  274000000 cyc:  516019325 now IPC :0.21770: AVG IPC :0.52812: L2-Pf-HR :1.00000: L2-HR :0.85955: (Sim:1h30m33s) 
CPU  0 inst:  275000000 cyc:  520806395 now IPC :0.20890: AVG IPC :0.52518: L2-Pf-HR :1.00000: L2-HR :0.85891: (Sim:1h30m52s) 
CPU  0 inst:  276000000 cyc:  525538630 now IPC :0.21132: AVG IPC :0.52235: L2-Pf-HR :1.00000: L2-HR :0.85827: (Sim:1h31m20s) 
CPU  0 inst:  277000000 cyc:  530286867 now IPC :0.21060: AVG IPC :0.51955: L2-Pf-HR :1.00000: L2-HR :0.85764: (Sim:1h32m0s) 
CPU  0 inst:  278000001 cyc:  535066117 now IPC :0.20924: AVG IPC :0.51677: L2-Pf-HR :1.00000: L2-HR :0.85701: (Sim:1h32m39s) 
CPU  0 inst:  279000003 cyc:  539707276 now IPC :0.21546: AVG IPC :0.51418: L2-Pf-HR :1.00000: L2-HR :0.85638: (Sim:1h33m17s) 
CPU  0 inst:  280000000 cyc:  544428848 now IPC :0.21179: AVG IPC :0.51155: L2-Pf-HR :1.00000: L2-HR :0.85575: (Sim:1h33m56s) 
CPU  0 inst:  281000000 cyc:  549133331 now IPC :0.21256: AVG IPC :0.50898: L2-Pf-HR :1.00000: L2-HR :0.85513: (Sim:1h34m36s) 
CPU  0 inst:  282000000 cyc:  553805109 now IPC :0.21405: AVG IPC :0.50649: L2-Pf-HR :1.00000: L2-HR :0.85450: (Sim:1h35m14s) 
CPU  0 inst:  283000000 cyc:  558487568 now IPC :0.21356: AVG IPC :0.50403: L2-Pf-HR :1.00000: L2-HR :0.85388: (Sim:1h35m52s) 
CPU  0 inst:  284000004 cyc:  563171985 now IPC :0.21347: AVG IPC :0.50161: L2-Pf-HR :1.00000: L2-HR :0.85325: (Sim:1h36m30s) 
CPU  0 inst:  285000000 cyc:  567940070 now IPC :0.20973: AVG IPC :0.49915: L2-Pf-HR :1.00000: L2-HR :0.85263: (Sim:1h37m10s) 
CPU  0 inst:  286000003 cyc:  572702182 now IPC :0.20999: AVG IPC :0.49675: L2-Pf-HR :1.00000: L2-HR :0.85202: (Sim:1h37m51s) 
CPU  0 inst:  287000000 cyc:  577386274 now IPC :0.21349: AVG IPC :0.49444: L2-Pf-HR :1.00000: L2-HR :0.85140: (Sim:1h38m29s) 
CPU  0 inst:  288000004 cyc:  582042214 now IPC :0.21478: AVG IPC :0.49220: L2-Pf-HR :1.00000: L2-HR :0.85078: (Sim:1h39m8s) 
CPU  0 inst:  289000000 cyc:  586874456 now IPC :0.20694: AVG IPC :0.48985: L2-Pf-HR :1.00000: L2-HR :0.85016: (Sim:1h39m46s) 
CPU  0 inst:  290000000 cyc:  591551713 now IPC :0.21380: AVG IPC :0.48766: L2-Pf-HR :1.00000: L2-HR :0.84955: (Sim:1h40m23s) 
CPU  0 inst:  291000000 cyc:  596289469 now IPC :0.21107: AVG IPC :0.48546: L2-Pf-HR :1.00000: L2-HR :0.84894: (Sim:1h41m5s) 
CPU  0 inst:  292000005 cyc:  601006232 now IPC :0.21201: AVG IPC :0.48331: L2-Pf-HR :1.00000: L2-HR :0.84833: (Sim:1h41m48s) 
CPU  0 inst:  293000001 cyc:  605681393 now IPC :0.21390: AVG IPC :0.48123: L2-Pf-HR :1.00000: L2-HR :0.84772: (Sim:1h42m31s) 
CPU  0 inst:  294000001 cyc:  610360892 now IPC :0.21370: AVG IPC :0.47918: L2-Pf-HR :1.00000: L2-HR :0.84711: (Sim:1h42m55s) 
CPU  0 inst:  295000000 cyc:  615220358 now IPC :0.20578: AVG IPC :0.47701: L2-Pf-HR :1.00000: L2-HR :0.84651: (Sim:1h43m14s) 
CPU  0 inst:  296000000 cyc:  619952242 now IPC :0.21133: AVG IPC :0.47498: L2-Pf-HR :1.00000: L2-HR :0.84590: (Sim:1h43m33s) 
CPU  0 inst:  297000004 cyc:  621853284 now IPC :0.52603: AVG IPC :0.47514: L2-Pf-HR :1.00000: L2-HR :0.84571: (Sim:1h43m47s) 
CPU  0 inst:  298000002 cyc:  622561600 now IPC :1.41180: AVG IPC :0.47621: L2-Pf-HR :1.00000: L2-HR :0.84577: (Sim:1h43m59s) 
CPU  0 inst:  299000004 cyc:  623271702 now IPC :1.40825: AVG IPC :0.47727: L2-Pf-HR :1.00000: L2-HR :0.84582: (Sim:1h44m12s) 
CPU  0 inst:  300000000 cyc:  623998629 now IPC :1.37565: AVG IPC :0.47832: L2-Pf-HR :1.00000: L2-HR :0.84586: (Sim:1h44m25s) 
CPU  0 inst:  301000000 cyc:  624711952 now IPC :1.40189: AVG IPC :0.47937: L2-Pf-HR :0.99999: L2-HR :0.84591: (Sim:1h44m37s) 
CPU  0 inst:  302000002 cyc:  625379095 now IPC :1.49893: AVG IPC :0.48046: L2-Pf-HR :0.99999: L2-HR :0.84602: (Sim:1h44m56s) 
CPU  0 inst:  303000005 cyc:  626053900 now IPC :1.48191: AVG IPC :0.48154: L2-Pf-HR :0.99999: L2-HR :0.84611: (Sim:1h45m22s) 
CPU  0 inst:  304000000 cyc:  626728051 now IPC :1.48334: AVG IPC :0.48262: L2-Pf-HR :0.99999: L2-HR :0.84621: (Sim:1h45m49s) 
CPU  0 inst:  305000003 cyc:  627409825 now IPC :1.46677: AVG IPC :0.48369: L2-Pf-HR :0.99998: L2-HR :0.84630: (Sim:1h46m15s) 
CPU  0 inst:  306000005 cyc:  628086204 now IPC :1.47846: AVG IPC :0.48477: L2-Pf-HR :0.99998: L2-HR :0.84639: (Sim:1h46m41s) 
CPU  0 inst:  307000005 cyc:  628761574 now IPC :1.48067: AVG IPC :0.48584: L2-Pf-HR :0.99998: L2-HR :0.84649: (Sim:1h47m7s) 
CPU  0 inst:  308000005 cyc:  629432664 now IPC :1.49011: AVG IPC :0.48691: L2-Pf-HR :0.99998: L2-HR :0.84659: (Sim:1h47m33s) 
CPU  0 inst:  309000001 cyc:  630118273 now IPC :1.45855: AVG IPC :0.48797: L2-Pf-HR :0.99997: L2-HR :0.84668: (Sim:1h47m59s) 
CPU  0 inst:  310000000 cyc:  630791252 now IPC :1.48593: AVG IPC :0.48904: L2-Pf-HR :0.99996: L2-HR :0.84673: (Sim:1h48m25s) 
CPU  0 inst:  311000002 cyc:  631458056 now IPC :1.49969: AVG IPC :0.49011: L2-Pf-HR :0.99996: L2-HR :0.84680: (Sim:1h48m52s) 
CPU  0 inst:  312000003 cyc:  632117427 now IPC :1.51660: AVG IPC :0.49118: L2-Pf-HR :0.99996: L2-HR :0.84689: (Sim:1h49m18s) 
CPU  0 inst:  313000001 cyc:  632798700 now IPC :1.46784: AVG IPC :0.49223: L2-Pf-HR :0.99996: L2-HR :0.84695: (Sim:1h49m44s) 
CPU  0 inst:  314000000 cyc:  633539620 now IPC :1.34967: AVG IPC :0.49324: L2-Pf-HR :0.99996: L2-HR :0.84696: (Sim:1h50m11s) 
CPU  0 inst:  315000001 cyc:  634253910 now IPC :1.39999: AVG IPC :0.49426: L2-Pf-HR :0.99996: L2-HR :0.84702: (Sim:1h50m37s) 
CPU  0 inst:  316000000 cyc:  634956760 now IPC :1.42278: AVG IPC :0.49529: L2-Pf-HR :0.99996: L2-HR :0.84708: (Sim:1h51m3s) 
CPU  0 inst:  317000000 cyc:  635673913 now IPC :1.39440: AVG IPC :0.49630: L2-Pf-HR :0.99996: L2-HR :0.84711: (Sim:1h51m28s) 
CPU  0 inst:  318000001 cyc:  636374133 now IPC :1.42812: AVG IPC :0.49733: L2-Pf-HR :0.99995: L2-HR :0.84718: (Sim:1h51m53s) 
CPU  0 inst:  319000002 cyc:  637044800 now IPC :1.49105: AVG IPC :0.49838: L2-Pf-HR :0.99995: L2-HR :0.84729: (Sim:1h52m17s) 
CPU  0 inst:  320000001 cyc:  637704503 now IPC :1.51583: AVG IPC :0.49943: L2-Pf-HR :0.99995: L2-HR :0.84740: (Sim:1h52m42s) 
CPU  0 inst:  321000001 cyc:  638355680 now IPC :1.53568: AVG IPC :0.50049: L2-Pf-HR :0.99995: L2-HR :0.84751: (Sim:1h53m6s) 
CPU  0 inst:  322000003 cyc:  639062559 now IPC :1.41467: AVG IPC :0.50150: L2-Pf-HR :0.99994: L2-HR :0.84756: (Sim:1h53m32s) 
CPU  0 inst:  323000001 cyc:  639732197 now IPC :1.49334: AVG IPC :0.50254: L2-Pf-HR :0.99994: L2-HR :0.84766: (Sim:1h53m56s) 
CPU  0 inst:  324000000 cyc:  640395294 now IPC :1.50807: AVG IPC :0.50359: L2-Pf-HR :0.99994: L2-HR :0.84777: (Sim:1h54m21s) 
CPU  0 inst:  325000002 cyc:  641043686 now IPC :1.54228: AVG IPC :0.50464: L2-Pf-HR :0.99994: L2-HR :0.84788: (Sim:1h54m47s) 
CPU  0 inst:  326000002 cyc:  641739829 now IPC :1.43649: AVG IPC :0.50565: L2-Pf-HR :0.99993: L2-HR :0.84791: (Sim:1h55m12s) 
CPU  0 inst:  327000004 cyc:  642398607 now IPC :1.51797: AVG IPC :0.50669: L2-Pf-HR :0.99992: L2-HR :0.84799: (Sim:1h55m38s) 
CPU  0 inst:  328000002 cyc:  643060052 now IPC :1.51184: AVG IPC :0.50773: L2-Pf-HR :0.99992: L2-HR :0.84806: (Sim:1h56m4s) 
CPU  0 inst:  329000004 cyc:  643714324 now IPC :1.52842: AVG IPC :0.50876: L2-Pf-HR :0.99992: L2-HR :0.84814: (Sim:1h56m29s) 
CPU  0 inst:  330000005 cyc:  644407990 now IPC :1.44162: AVG IPC :0.50977: L2-Pf-HR :0.99992: L2-HR :0.84815: (Sim:1h56m54s) 
CPU  0 inst:  331000005 cyc:  645099346 now IPC :1.44643: AVG IPC :0.51078: L2-Pf-HR :0.99992: L2-HR :0.84820: (Sim:1h57m20s) 
CPU  0 inst:  332000005 cyc:  645787883 now IPC :1.45235: AVG IPC :0.51178: L2-Pf-HR :0.99992: L2-HR :0.84826: (Sim:1h57m45s) 
CPU  0 inst:  333000000 cyc:  646475051 now IPC :1.45524: AVG IPC :0.51279: L2-Pf-HR :0.99992: L2-HR :0.84831: (Sim:1h58m10s) 
CPU  0 inst:  334000001 cyc:  647180927 now IPC :1.41668: AVG IPC :0.51377: L2-Pf-HR :0.99991: L2-HR :0.84833: (Sim:1h58m34s) 
CPU  0 inst:  335000003 cyc:  647830320 now IPC :1.53990: AVG IPC :0.51480: L2-Pf-HR :0.99991: L2-HR :0.84843: (Sim:1h59m0s) 
CPU  0 inst:  336000005 cyc:  648472555 now IPC :1.55707: AVG IPC :0.51584: L2-Pf-HR :0.99991: L2-HR :0.84854: (Sim:1h59m24s) 
CPU  0 inst:  337000002 cyc:  649121862 now IPC :1.54010: AVG IPC :0.51686: L2-Pf-HR :0.99991: L2-HR :0.84864: (Sim:1h59m49s) 
CPU  0 inst:  338000004 cyc:  649768113 now IPC :1.54739: AVG IPC :0.51789: L2-Pf-HR :0.99991: L2-HR :0.84874: (Sim:2h0m15s) 
CPU  0 inst:  339000000 cyc:  650434563 now IPC :1.50048: AVG IPC :0.51890: L2-Pf-HR :0.99990: L2-HR :0.84881: (Sim:2h0m40s) 
CPU  0 inst:  340000005 cyc:  651085625 now IPC :1.53596: AVG IPC :0.51992: L2-Pf-HR :0.99990: L2-HR :0.84891: (Sim:2h1m4s) 
CPU  0 inst:  341000000 cyc:  651734519 now IPC :1.54108: AVG IPC :0.52093: L2-Pf-HR :0.99990: L2-HR :0.84900: (Sim:2h1m30s) 
CPU  0 inst:  342000003 cyc:  652388606 now IPC :1.52885: AVG IPC :0.52195: L2-Pf-HR :0.99990: L2-HR :0.84908: (Sim:2h1m54s) 
CPU  0 inst:  343000004 cyc:  653039326 now IPC :1.53676: AVG IPC :0.52296: L2-Pf-HR :0.99990: L2-HR :0.84916: (Sim:2h2m9s) 
CPU  0 inst:  344000005 cyc:  653683165 now IPC :1.55318: AVG IPC :0.52398: L2-Pf-HR :0.99990: L2-HR :0.84922: (Sim:2h2m22s) 
CPU  0 inst:  345000000 cyc:  654327009 now IPC :1.55316: AVG IPC :0.52499: L2-Pf-HR :0.99990: L2-HR :0.84929: (Sim:2h2m35s) 
CPU  0 inst:  346000001 cyc:  654969043 now IPC :1.55755: AVG IPC :0.52600: L2-Pf-HR :0.99989: L2-HR :0.84936: (Sim:2h3m0s) 
CPU  0 inst:  347000001 cyc:  655666609 now IPC :1.43356: AVG IPC :0.52697: L2-Pf-HR :0.99989: L2-HR :0.84939: (Sim:2h3m26s) 
CPU  0 inst:  348000000 cyc:  656364068 now IPC :1.43377: AVG IPC :0.52794: L2-Pf-HR :0.99989: L2-HR :0.84942: (Sim:2h3m51s) 
CPU  0 inst:  349000000 cyc:  657061654 now IPC :1.43351: AVG IPC :0.52890: L2-Pf-HR :0.99989: L2-HR :0.84947: (Sim:2h4m17s) 
CPU  0 inst:  350000002 cyc:  657748850 now IPC :1.45519: AVG IPC :0.52987: L2-Pf-HR :0.99989: L2-HR :0.84952: (Sim:2h4m42s) 
CPU  0 inst:  351000000 cyc:  658445851 now IPC :1.43472: AVG IPC :0.53083: L2-Pf-HR :0.99989: L2-HR :0.84954: (Sim:2h5m7s) 
CPU  0 inst:  352000002 cyc:  659091350 now IPC :1.54919: AVG IPC :0.53183: L2-Pf-HR :0.99989: L2-HR :0.84964: (Sim:2h5m32s) 
CPU  0 inst:  353000005 cyc:  659745740 now IPC :1.52815: AVG IPC :0.53282: L2-Pf-HR :0.99989: L2-HR :0.84974: (Sim:2h5m58s) 
CPU  0 inst:  354000003 cyc:  660392790 now IPC :1.54547: AVG IPC :0.53381: L2-Pf-HR :0.99989: L2-HR :0.84985: (Sim:2h6m23s) 
CPU  0 inst:  355000005 cyc:  661072691 now IPC :1.47081: AVG IPC :0.53477: L2-Pf-HR :0.99988: L2-HR :0.84990: (Sim:2h6m49s) 
CPU  0 inst:  356000004 cyc:  661719313 now IPC :1.54650: AVG IPC :0.53576: L2-Pf-HR :0.99988: L2-HR :0.85000: (Sim:2h7m14s) 
CPU  0 inst:  357000002 cyc:  662371238 now IPC :1.53392: AVG IPC :0.53675: L2-Pf-HR :0.99988: L2-HR :0.85010: (Sim:2h7m40s) 
CPU  0 inst:  358000003 cyc:  663018809 now IPC :1.54423: AVG IPC :0.53773: L2-Pf-HR :0.99987: L2-HR :0.85020: (Sim:2h8m5s) 
CPU  0 inst:  359000004 cyc:  663688615 now IPC :1.49297: AVG IPC :0.53870: L2-Pf-HR :0.99987: L2-HR :0.85027: (Sim:2h8m31s) 
CPU  0 inst:  360000005 cyc:  664334920 now IPC :1.54726: AVG IPC :0.53968: L2-Pf-HR :0.99986: L2-HR :0.85033: (Sim:2h8m57s) 
CPU  0 inst:  361000004 cyc:  664973507 now IPC :1.56596: AVG IPC :0.54067: L2-Pf-HR :0.99986: L2-HR :0.85040: (Sim:2h9m22s) 
CPU  0 inst:  362000002 cyc:  665613700 now IPC :1.56203: AVG IPC :0.54165: L2-Pf-HR :0.99986: L2-HR :0.85048: (Sim:2h9m48s) 
CPU  0 inst:  363000001 cyc:  666270200 now IPC :1.52323: AVG IPC :0.54262: L2-Pf-HR :0.99985: L2-HR :0.85053: (Sim:2h10m14s) 
CPU  0 inst:  364000001 cyc:  666982078 now IPC :1.40474: AVG IPC :0.54354: L2-Pf-HR :0.99985: L2-HR :0.85054: (Sim:2h10m39s) 
CPU  0 inst:  365000005 cyc:  667673251 now IPC :1.44682: AVG IPC :0.54448: L2-Pf-HR :0.99985: L2-HR :0.85059: (Sim:2h11m5s) 
CPU  0 inst:  366000004 cyc:  668359807 now IPC :1.45654: AVG IPC :0.54542: L2-Pf-HR :0.99986: L2-HR :0.85064: (Sim:2h11m31s) 
CPU  0 inst:  367000000 cyc:  669051838 now IPC :1.44502: AVG IPC :0.54635: L2-Pf-HR :0.99986: L2-HR :0.85068: (Sim:2h11m58s) 
CPU  0 inst:  368000001 cyc:  669735992 now IPC :1.46166: AVG IPC :0.54729: L2-Pf-HR :0.99985: L2-HR :0.85072: (Sim:2h12m22s) 
CPU  0 inst:  369000002 cyc:  670386939 now IPC :1.53622: AVG IPC :0.54825: L2-Pf-HR :0.99985: L2-HR :0.85081: (Sim:2h12m38s) 
CPU  0 inst:  370000000 cyc:  671035777 now IPC :1.54121: AVG IPC :0.54921: L2-Pf-HR :0.99985: L2-HR :0.85091: (Sim:2h13m3s) 
CPU  0 inst:  371000005 cyc:  671694133 now IPC :1.51894: AVG IPC :0.55016: L2-Pf-HR :0.99985: L2-HR :0.85099: (Sim:2h13m29s) 
CPU  0 inst:  372000002 cyc:  672360653 now IPC :1.50033: AVG IPC :0.55110: L2-Pf-HR :0.99984: L2-HR :0.85106: (Sim:2h13m54s) 
CPU  0 inst:  373000002 cyc:  673007104 now IPC :1.54691: AVG IPC :0.55206: L2-Pf-HR :0.99984: L2-HR :0.85115: (Sim:2h14m20s) 
CPU  0 inst:  374000000 cyc:  673668228 now IPC :1.51257: AVG IPC :0.55301: L2-Pf-HR :0.99984: L2-HR :0.85123: (Sim:2h14m46s) 
CPU  0 inst:  375000005 cyc:  674323345 now IPC :1.52645: AVG IPC :0.55395: L2-Pf-HR :0.99984: L2-HR :0.85131: (Sim:2h15m11s) 
CPU  0 inst:  376000000 cyc:  674972350 now IPC :1.54081: AVG IPC :0.55490: L2-Pf-HR :0.99983: L2-HR :0.85138: (Sim:2h15m36s) 
CPU  0 inst:  377000003 cyc:  675619535 now IPC :1.54516: AVG IPC :0.55585: L2-Pf-HR :0.99983: L2-HR :0.85144: (Sim:2h16m1s) 
CPU  0 inst:  378000001 cyc:  676268776 now IPC :1.54026: AVG IPC :0.55680: L2-Pf-HR :0.99983: L2-HR :0.85150: (Sim:2h16m26s) 
CPU  0 inst:  379000002 cyc:  676919031 now IPC :1.53786: AVG IPC :0.55774: L2-Pf-HR :0.99982: L2-HR :0.85156: (Sim:2h16m51s) 
CPU  0 inst:  380000001 cyc:  677581147 now IPC :1.51031: AVG IPC :0.55868: L2-Pf-HR :0.99982: L2-HR :0.85160: (Sim:2h17m17s) 
CPU  0 inst:  381000001 cyc:  678281327 now IPC :1.42820: AVG IPC :0.55957: L2-Pf-HR :0.99982: L2-HR :0.85162: (Sim:2h17m43s) 
CPU  0 inst:  382000005 cyc:  678987086 now IPC :1.41692: AVG IPC :0.56047: L2-Pf-HR :0.99982: L2-HR :0.85165: (Sim:2h18m9s) 
CPU  0 inst:  383000005 cyc:  679676452 now IPC :1.45061: AVG IPC :0.56137: L2-Pf-HR :0.99982: L2-HR :0.85170: (Sim:2h18m35s) 
CPU  0 inst:  384000005 cyc:  680373876 now IPC :1.43385: AVG IPC :0.56227: L2-Pf-HR :0.99982: L2-HR :0.85172: (Sim:2h19m1s) 
CPU  0 inst:  385000003 cyc:  681027087 now IPC :1.53090: AVG IPC :0.56320: L2-Pf-HR :0.99981: L2-HR :0.85179: (Sim:2h19m27s) 
CPU  0 inst:  386000005 cyc:  681680156 now IPC :1.53123: AVG IPC :0.56413: L2-Pf-HR :0.99981: L2-HR :0.85188: (Sim:2h19m53s) 
CPU  0 inst:  387000000 cyc:  682330091 now IPC :1.53861: AVG IPC :0.56506: L2-Pf-HR :0.99981: L2-HR :0.85197: (Sim:2h20m6s) 
CPU  0 inst:  388000001 cyc:  682982689 now IPC :1.53234: AVG IPC :0.56598: L2-Pf-HR :0.99981: L2-HR :0.85204: (Sim:2h20m19s) 
CPU  0 inst:  389000000 cyc:  683642094 now IPC :1.51652: AVG IPC :0.56690: L2-Pf-HR :0.99980: L2-HR :0.85210: (Sim:2h20m30s) 
CPU  0 inst:  390000001 cyc:  684288995 now IPC :1.54583: AVG IPC :0.56783: L2-Pf-HR :0.99980: L2-HR :0.85219: (Sim:2h20m42s) 
CPU  0 inst:  391000004 cyc:  684943488 now IPC :1.52790: AVG IPC :0.56874: L2-Pf-HR :0.99980: L2-HR :0.85228: (Sim:2h20m54s) 
CPU  0 inst:  392000004 cyc:  685584558 now IPC :1.55989: AVG IPC :0.56967: L2-Pf-HR :0.99980: L2-HR :0.85238: (Sim:2h21m18s) 
CPU  0 inst:  393000004 cyc:  686252246 now IPC :1.49771: AVG IPC :0.57058: L2-Pf-HR :0.99979: L2-HR :0.85240: (Sim:2h21m44s) 
CPU  0 inst:  394000000 cyc:  686890089 now IPC :1.56778: AVG IPC :0.57150: L2-Pf-HR :0.99979: L2-HR :0.85247: (Sim:2h22m10s) 
CPU  0 inst:  395000000 cyc:  687532486 now IPC :1.55667: AVG IPC :0.57243: L2-Pf-HR :0.99979: L2-HR :0.85253: (Sim:2h22m23s) 
CPU  0 inst:  396000001 cyc:  688177775 now IPC :1.54969: AVG IPC :0.57334: L2-Pf-HR :0.99979: L2-HR :0.85260: (Sim:2h22m36s) 
CPU  0 inst:  397000002 cyc:  688872140 now IPC :1.44017: AVG IPC :0.57422: L2-Pf-HR :0.99978: L2-HR :0.85260: (Sim:2h22m48s) 
CPU  0 inst:  398000000 cyc:  689559729 now IPC :1.45435: AVG IPC :0.57510: L2-Pf-HR :0.99978: L2-HR :0.85264: (Sim:2h23m1s) 
CPU  0 inst:  399000002 cyc:  690249631 now IPC :1.44948: AVG IPC :0.57597: L2-Pf-HR :0.99978: L2-HR :0.85268: (Sim:2h23m13s) 
CPU  0 inst:  400000005 cyc:  690937012 now IPC :1.45480: AVG IPC :0.57685: L2-Pf-HR :0.99978: L2-HR :0.85272: (Sim:2h23m25s) 
CPU  0 inst:  401000002 cyc:  691639147 now IPC :1.42422: AVG IPC :0.57771: L2-Pf-HR :0.99978: L2-HR :0.85273: (Sim:2h23m38s) 
CPU  0 inst:  402000005 cyc:  692286536 now IPC :1.54467: AVG IPC :0.57862: L2-Pf-HR :0.99978: L2-HR :0.85282: (Sim:2h23m51s) 
CPU  0 inst:  403000003 cyc:  692932857 now IPC :1.54722: AVG IPC :0.57952: L2-Pf-HR :0.99978: L2-HR :0.85291: (Sim:2h24m3s) 
CPU  0 inst:  404000003 cyc:  693578792 now IPC :1.54814: AVG IPC :0.58042: L2-Pf-HR :0.99978: L2-HR :0.85300: (Sim:2h24m16s) 
CPU  0 inst:  405000003 cyc:  694253343 now IPC :1.48247: AVG IPC :0.58130: L2-Pf-HR :0.99978: L2-HR :0.85305: (Sim:2h24m29s) 
CPU  0 inst:  406000005 cyc:  694899054 now IPC :1.54868: AVG IPC :0.58220: L2-Pf-HR :0.99978: L2-HR :0.85313: (Sim:2h24m41s) 
CPU  0 inst:  407000002 cyc:  695545318 now IPC :1.54735: AVG IPC :0.58310: L2-Pf-HR :0.99978: L2-HR :0.85322: (Sim:2h24m53s) 
CPU  0 inst:  408000003 cyc:  696201581 now IPC :1.52378: AVG IPC :0.58399: L2-Pf-HR :0.99978: L2-HR :0.85330: (Sim:2h25m6s) 
CPU  0 inst:  409000000 cyc:  696849102 now IPC :1.54435: AVG IPC :0.58488: L2-Pf-HR :0.99977: L2-HR :0.85338: (Sim:2h25m17s) 
CPU  0 inst:  410000001 cyc:  697500961 now IPC :1.53408: AVG IPC :0.58577: L2-Pf-HR :0.99977: L2-HR :0.85342: (Sim:2h25m29s) 
CPU  0 inst:  411000004 cyc:  698144566 now IPC :1.55375: AVG IPC :0.58666: L2-Pf-HR :0.99977: L2-HR :0.85348: (Sim:2h25m42s) 
CPU  0 inst:  412000001 cyc:  698798920 now IPC :1.52822: AVG IPC :0.58755: L2-Pf-HR :0.99977: L2-HR :0.85353: (Sim:2h25m54s) 
CPU  0 inst:  413000000 cyc:  699453366 now IPC :1.52801: AVG IPC :0.58843: L2-Pf-HR :0.99977: L2-HR :0.85357: (Sim:2h26m6s) 
CPU  0 inst:  414000000 cyc:  700141461 now IPC :1.45329: AVG IPC :0.58928: L2-Pf-HR :0.99977: L2-HR :0.85360: (Sim:2h26m18s) 
CPU  0 inst:  415000001 cyc:  700841742 now IPC :1.42800: AVG IPC :0.59012: L2-Pf-HR :0.99977: L2-HR :0.85362: (Sim:2h26m30s) 
CPU  0 inst:  416000000 cyc:  701537641 now IPC :1.43699: AVG IPC :0.59096: L2-Pf-HR :0.99977: L2-HR :0.85365: (Sim:2h26m42s) 
CPU  0 inst:  417000002 cyc:  702220918 now IPC :1.46354: AVG IPC :0.59181: L2-Pf-HR :0.99977: L2-HR :0.85369: (Sim:2h26m55s) 
CPU  0 inst:  418000002 cyc:  702903168 now IPC :1.46574: AVG IPC :0.59266: L2-Pf-HR :0.99976: L2-HR :0.85371: (Sim:2h27m7s) 
CPU  0 inst:  419000000 cyc:  703547944 now IPC :1.55092: AVG IPC :0.59354: L2-Pf-HR :0.99976: L2-HR :0.85379: (Sim:2h27m20s) 
CPU  0 inst:  420000000 cyc:  704197819 now IPC :1.53876: AVG IPC :0.59441: L2-Pf-HR :0.99976: L2-HR :0.85387: (Sim:2h27m33s) 
CPU  0 inst:  421000003 cyc:  704841603 now IPC :1.55332: AVG IPC :0.59529: L2-Pf-HR :0.99976: L2-HR :0.85395: (Sim:2h27m46s) 
CPU  0 inst:  422000005 cyc:  705516829 now IPC :1.48099: AVG IPC :0.59614: L2-Pf-HR :0.99975: L2-HR :0.85399: (Sim:2h28m10s) 
CPU  0 inst:  423000000 cyc:  706158876 now IPC :1.55751: AVG IPC :0.59701: L2-Pf-HR :0.99975: L2-HR :0.85407: (Sim:2h28m35s) 
CPU  0 inst:  424000005 cyc:  706804980 now IPC :1.54775: AVG IPC :0.59788: L2-Pf-HR :0.99975: L2-HR :0.85416: (Sim:2h29m1s) 
CPU  0 inst:  425000000 cyc:  707447863 now IPC :1.55549: AVG IPC :0.59875: L2-Pf-HR :0.99975: L2-HR :0.85424: (Sim:2h29m25s) 
CPU  0 inst:  426000002 cyc:  708122184 now IPC :1.48298: AVG IPC :0.59960: L2-Pf-HR :0.99974: L2-HR :0.85428: (Sim:2h29m51s) 
CPU  0 inst:  427000001 cyc:  708752252 now IPC :1.58713: AVG IPC :0.60048: L2-Pf-HR :0.99974: L2-HR :0.85433: (Sim:2h30m16s) 
CPU  0 inst:  428000004 cyc:  709385412 now IPC :1.57938: AVG IPC :0.60135: L2-Pf-HR :0.99974: L2-HR :0.85439: (Sim:2h30m41s) 
CPU  0 inst:  429000002 cyc:  710027882 now IPC :1.55649: AVG IPC :0.60222: L2-Pf-HR :0.99974: L2-HR :0.85445: (Sim:2h31m6s) 
CPU  0 inst:  430000003 cyc:  710706778 now IPC :1.47298: AVG IPC :0.60305: L2-Pf-HR :0.99974: L2-HR :0.85447: (Sim:2h31m32s) 
CPU  0 inst:  431000001 cyc:  711403048 now IPC :1.43622: AVG IPC :0.60387: L2-Pf-HR :0.99974: L2-HR :0.85450: (Sim:2h31m58s) 
CPU  0 inst:  432000001 cyc:  712088986 now IPC :1.45786: AVG IPC :0.60469: L2-Pf-HR :0.99974: L2-HR :0.85453: (Sim:2h32m24s) 
CPU  0 inst:  433000004 cyc:  712781503 now IPC :1.44401: AVG IPC :0.60551: L2-Pf-HR :0.99974: L2-HR :0.85457: (Sim:2h32m49s) 
CPU  0 inst:  434000002 cyc:  713490667 now IPC :1.41011: AVG IPC :0.60631: L2-Pf-HR :0.99974: L2-HR :0.85459: (Sim:2h33m14s) 
CPU  0 inst:  435000003 cyc:  714157308 now IPC :1.50006: AVG IPC :0.60714: L2-Pf-HR :0.99974: L2-HR :0.85464: (Sim:2h33m39s) 
CPU  0 inst:  436000002 cyc:  714797753 now IPC :1.56141: AVG IPC :0.60800: L2-Pf-HR :0.99974: L2-HR :0.85473: (Sim:2h34m4s) 
CPU  0 inst:  437000004 cyc:  715453915 now IPC :1.52402: AVG IPC :0.60884: L2-Pf-HR :0.99974: L2-HR :0.85481: (Sim:2h34m30s) 
CPU  0 inst:  438000002 cyc:  716110426 now IPC :1.52320: AVG IPC :0.60968: L2-Pf-HR :0.99973: L2-HR :0.85489: (Sim:2h34m55s) 
CPU  0 inst:  439000005 cyc:  716787621 now IPC :1.47668: AVG IPC :0.61050: L2-Pf-HR :0.99973: L2-HR :0.85492: (Sim:2h35m20s) 
CPU  0 inst:  440000005 cyc:  717430531 now IPC :1.55543: AVG IPC :0.61135: L2-Pf-HR :0.99973: L2-HR :0.85501: (Sim:2h35m45s) 
CPU  0 inst:  441000001 cyc:  718074989 now IPC :1.55169: AVG IPC :0.61219: L2-Pf-HR :0.99973: L2-HR :0.85509: (Sim:2h36m10s) 
CPU  0 inst:  442000001 cyc:  718744455 now IPC :1.49373: AVG IPC :0.61302: L2-Pf-HR :0.99973: L2-HR :0.85516: (Sim:2h36m35s) 
CPU  0 inst:  443000004 cyc:  719411390 now IPC :1.49940: AVG IPC :0.61384: L2-Pf-HR :0.99971: L2-HR :0.85520: (Sim:2h37m0s) 
CPU  0 inst:  444000003 cyc:  720044893 now IPC :1.57852: AVG IPC :0.61469: L2-Pf-HR :0.99971: L2-HR :0.85526: (Sim:2h37m25s) 
CPU  0 inst:  445000005 cyc:  720685284 now IPC :1.56155: AVG IPC :0.61553: L2-Pf-HR :0.99971: L2-HR :0.85531: (Sim:2h37m50s) 
CPU  0 inst:  446000000 cyc:  721349297 now IPC :1.50599: AVG IPC :0.61635: L2-Pf-HR :0.99971: L2-HR :0.85535: (Sim:2h38m16s) 
CPU  0 inst:  447000005 cyc:  722021929 now IPC :1.48670: AVG IPC :0.61716: L2-Pf-HR :0.99971: L2-HR :0.85538: (Sim:2h38m41s) 
CPU  0 inst:  448000005 cyc:  722717661 now IPC :1.43734: AVG IPC :0.61795: L2-Pf-HR :0.99971: L2-HR :0.85540: (Sim:2h39m8s) 
CPU  0 inst:  449000000 cyc:  723435585 now IPC :1.39290: AVG IPC :0.61872: L2-Pf-HR :0.99971: L2-HR :0.85542: (Sim:2h39m34s) 
CPU  0 inst:  450000004 cyc:  724134569 now IPC :1.43065: AVG IPC :0.61951: L2-Pf-HR :0.99971: L2-HR :0.85545: (Sim:2h40m0s) 
CPU  0 inst:  451000000 cyc:  724827753 now IPC :1.44261: AVG IPC :0.62030: L2-Pf-HR :0.99971: L2-HR :0.85547: (Sim:2h40m26s) 
CPU  0 inst:  452000003 cyc:  725483974 now IPC :1.52388: AVG IPC :0.62112: L2-Pf-HR :0.99971: L2-HR :0.85553: (Sim:2h40m52s) 
CPU  0 inst:  453000000 cyc:  726148806 now IPC :1.50413: AVG IPC :0.62193: L2-Pf-HR :0.99971: L2-HR :0.85560: (Sim:2h41m18s) 
CPU  0 inst:  454000002 cyc:  726797142 now IPC :1.54241: AVG IPC :0.62275: L2-Pf-HR :0.99971: L2-HR :0.85568: (Sim:2h41m44s) 
CPU  0 inst:  455000004 cyc:  727464867 now IPC :1.49763: AVG IPC :0.62355: L2-Pf-HR :0.99970: L2-HR :0.85574: (Sim:2h42m10s) 
CPU  0 inst:  456000000 cyc:  728127065 now IPC :1.51012: AVG IPC :0.62436: L2-Pf-HR :0.99970: L2-HR :0.85579: (Sim:2h42m36s) 
CPU  0 inst:  457000000 cyc:  728780925 now IPC :1.52938: AVG IPC :0.62517: L2-Pf-HR :0.99970: L2-HR :0.85587: (Sim:2h43m2s) 
CPU  0 inst:  458000005 cyc:  729431276 now IPC :1.53764: AVG IPC :0.62599: L2-Pf-HR :0.99970: L2-HR :0.85594: (Sim:2h43m21s) 
CPU  0 inst:  459000001 cyc:  730096147 now IPC :1.50405: AVG IPC :0.62679: L2-Pf-HR :0.99970: L2-HR :0.85600: (Sim:2h43m34s) 
CPU  0 inst:  460000001 cyc:  730752969 now IPC :1.52248: AVG IPC :0.62759: L2-Pf-HR :0.99969: L2-HR :0.85603: (Sim:2h43m46s) 
CPU  0 inst:  461000003 cyc:  731388038 now IPC :1.57464: AVG IPC :0.62842: L2-Pf-HR :0.99969: L2-HR :0.85609: (Sim:2h43m58s) 
CPU  0 inst:  462000000 cyc:  732033213 now IPC :1.54996: AVG IPC :0.62923: L2-Pf-HR :0.99969: L2-HR :0.85614: (Sim:2h44m10s) 
CPU  0 inst:  463000004 cyc:  732671857 now IPC :1.56582: AVG IPC :0.63005: L2-Pf-HR :0.99969: L2-HR :0.85620: (Sim:2h44m22s) 
CPU  0 inst:  464000003 cyc:  733388219 now IPC :1.39594: AVG IPC :0.63080: L2-Pf-HR :0.99969: L2-HR :0.85619: (Sim:2h44m36s) 
CPU  0 inst:  465000000 cyc:  734072857 now IPC :1.46062: AVG IPC :0.63157: L2-Pf-HR :0.99969: L2-HR :0.85622: (Sim:2h44m49s) 
CPU  0 inst:  466000002 cyc:  734763001 now IPC :1.44898: AVG IPC :0.63234: L2-Pf-HR :0.99969: L2-HR :0.85625: (Sim:2h45m0s) 
CPU  0 inst:  467000001 cyc:  735450393 now IPC :1.45477: AVG IPC :0.63311: L2-Pf-HR :0.99969: L2-HR :0.85628: (Sim:2h45m12s) 
CPU  0 inst:  468000005 cyc:  736162078 now IPC :1.40512: AVG IPC :0.63386: L2-Pf-HR :0.99968: L2-HR :0.85629: (Sim:2h45m24s) 
CPU  0 inst:  469000004 cyc:  736802650 now IPC :1.56110: AVG IPC :0.63466: L2-Pf-HR :0.99968: L2-HR :0.85637: (Sim:2h45m36s) 
CPU  0 inst:  470000005 cyc:  737449998 now IPC :1.54477: AVG IPC :0.63546: L2-Pf-HR :0.99968: L2-HR :0.85644: (Sim:2h45m48s) 
CPU  0 inst:  471000004 cyc:  738091386 now IPC :1.55912: AVG IPC :0.63627: L2-Pf-HR :0.99968: L2-HR :0.85652: (Sim:2h46m0s) 
CPU  0 inst:  472000001 cyc:  738783473 now IPC :1.44490: AVG IPC :0.63703: L2-Pf-HR :0.99968: L2-HR :0.85655: (Sim:2h46m12s) 
CPU  0 inst:  473000001 cyc:  739421633 now IPC :1.56701: AVG IPC :0.63783: L2-Pf-HR :0.99967: L2-HR :0.85662: (Sim:2h46m24s) 
CPU  0 inst:  474000000 cyc:  740067597 now IPC :1.54807: AVG IPC :0.63863: L2-Pf-HR :0.99967: L2-HR :0.85670: (Sim:2h46m36s) 
CPU  0 inst:  475000001 cyc:  740711763 now IPC :1.55240: AVG IPC :0.63942: L2-Pf-HR :0.99967: L2-HR :0.85677: (Sim:2h46m48s) 
CPU  0 inst:  476000001 cyc:  741400724 now IPC :1.45146: AVG IPC :0.64018: L2-Pf-HR :0.99967: L2-HR :0.85680: (Sim:2h47m0s) 
CPU  0 inst:  477000005 cyc:  742035969 now IPC :1.57420: AVG IPC :0.64098: L2-Pf-HR :0.99967: L2-HR :0.85685: (Sim:2h47m12s) 
CPU  0 inst:  478000000 cyc:  742667559 now IPC :1.58330: AVG IPC :0.64178: L2-Pf-HR :0.99966: L2-HR :0.85691: (Sim:2h47m23s) 
CPU  0 inst:  479000004 cyc:  743313123 now IPC :1.54904: AVG IPC :0.64257: L2-Pf-HR :0.99966: L2-HR :0.85695: (Sim:2h47m35s) 
CPU  0 inst:  480000000 cyc:  743975044 now IPC :1.51075: AVG IPC :0.64334: L2-Pf-HR :0.99966: L2-HR :0.85699: (Sim:2h47m47s) 
CPU  0 inst:  481000002 cyc:  744690856 now IPC :1.39702: AVG IPC :0.64407: L2-Pf-HR :0.99966: L2-HR :0.85700: (Sim:2h47m59s) 
CPU  0 inst:  482000001 cyc:  745392620 now IPC :1.42498: AVG IPC :0.64480: L2-Pf-HR :0.99966: L2-HR :0.85702: (Sim:2h48m11s) 
CPU  0 inst:  483000005 cyc:  746097544 now IPC :1.41860: AVG IPC :0.64554: L2-Pf-HR :0.99966: L2-HR :0.85703: (Sim:2h48m24s) 
CPU  0 inst:  484000002 cyc:  746795168 now IPC :1.43343: AVG IPC :0.64627: L2-Pf-HR :0.99966: L2-HR :0.85704: (Sim:2h48m36s) 
CPU  0 inst:  485000000 cyc:  747455447 now IPC :1.51451: AVG IPC :0.64704: L2-Pf-HR :0.99966: L2-HR :0.85709: (Sim:2h48m48s) 
CPU  0 inst:  486000002 cyc:  748120014 now IPC :1.50474: AVG IPC :0.64780: L2-Pf-HR :0.99966: L2-HR :0.85715: (Sim:2h49m0s) 
CPU  0 inst:  487000005 cyc:  748769113 now IPC :1.54060: AVG IPC :0.64858: L2-Pf-HR :0.99966: L2-HR :0.85722: (Sim:2h49m14s) 
CPU  0 inst:  488000003 cyc:  749411990 now IPC :1.55550: AVG IPC :0.64936: L2-Pf-HR :0.99966: L2-HR :0.85729: (Sim:2h49m40s) 
CPU  0 inst:  489000005 cyc:  750085077 now IPC :1.48570: AVG IPC :0.65011: L2-Pf-HR :0.99965: L2-HR :0.85733: (Sim:2h50m7s) 
CPU  0 inst:  490000002 cyc:  750744193 now IPC :1.51718: AVG IPC :0.65087: L2-Pf-HR :0.99965: L2-HR :0.85740: (Sim:2h50m34s) 
CPU  0 inst:  491000002 cyc:  751388153 now IPC :1.55289: AVG IPC :0.65165: L2-Pf-HR :0.99965: L2-HR :0.85747: (Sim:2h51m1s) 
CPU  0 inst:  492000005 cyc:  752029172 now IPC :1.56002: AVG IPC :0.65242: L2-Pf-HR :0.99965: L2-HR :0.85754: (Sim:2h51m28s) 
CPU  0 inst:  493000004 cyc:  752702388 now IPC :1.48541: AVG IPC :0.65317: L2-Pf-HR :0.99964: L2-HR :0.85757: (Sim:2h51m55s) 
Finished CPU 0 instr: 491000002 cyc: 751721254 AVG IPC: 0.65317 (Sim time: 2h51m55s)

ChampSim completed all CPUs

[ROI Statistics]
Core_0_instructions 491000002
Core_0_cycles 751721254
Core_0_IPC 0.65317

Core_0_branch_prediction_accuracy 99.58586
Core_0_branch_MPKI 0.12051
Core_0_average_ROB_occupancy_at_mispredict 569.06703

Core_0_L1D_total_access 153636303
Core_0_L1D_total_hit 143638470 L1D_total_Hit Ratio: 0.93493
Core_0_L1D_total_miss 9997833
Core_0_L1D_loads 140493138
Core_0_L1D_load_hit 131283039 L1D_load_Hit Ratio: 0.93444
Core_0_L1D_load_miss 9210099
Core_0_L1D_RFOs 12861838
Core_0_L1D_RFO_hit 12074104 L1D_RFO_Hit Ratio: 0.93875
Core_0_L1D_RFO_miss 787734
Core_0_L1D_prefetches 281327
Core_0_L1D_prefetch_hit 281327 L1D_prefetch_Hit Ratio: 1.00000
Core_0_L1D_prefetch_miss 0
Core_0_L1D_writebacks 0
Core_0_L1D_writeback_hit 0 L1D_writeback_Hit Ratio: -nan
Core_0_L1D_writeback_miss 0
Core_0_L1D_prefetch_requested 50280101
Core_0_L1D_prefetch_issued 20594966
Core_0_L1D_prefetch_useful 0 L1D_Useful Ratio: 0.00000
Core_0_L1D_prefetch_useless 0
Core_0_L1D_prefetch_late 0
Core_0_L1D_average_miss_latency 143.45219

Core_0_L1I_total_access 76641669
Core_0_L1I_total_hit 76639691 L1I_total_Hit Ratio: 0.99997
Core_0_L1I_total_miss 1978
Core_0_L1I_loads 76641669
Core_0_L1I_load_hit 76639691 L1I_load_Hit Ratio: 0.99997
Core_0_L1I_load_miss 1978
Core_0_L1I_RFOs 0
Core_0_L1I_RFO_hit 0 L1I_RFO_Hit Ratio: -nan
Core_0_L1I_RFO_miss 0
Core_0_L1I_prefetches 0
Core_0_L1I_prefetch_hit 0 L1I_prefetch_Hit Ratio: -nan
Core_0_L1I_prefetch_miss 0
Core_0_L1I_writebacks 0
Core_0_L1I_writeback_hit 0 L1I_writeback_Hit Ratio: -nan
Core_0_L1I_writeback_miss 0
Core_0_L1I_prefetch_requested 0
Core_0_L1I_prefetch_issued 0
Core_0_L1I_prefetch_useful 0 L1I_Useful Ratio: -nan
Core_0_L1I_prefetch_useless 0
Core_0_L1I_prefetch_late 0
Core_0_L1I_average_miss_latency 279.90698

Core_0_L2C_total_access 29206281
Core_0_L2C_total_hit 25046291 L2C_total_Hit Ratio: 0.85757
Core_0_L2C_total_miss 4159990
Core_0_L2C_loads 9212077
Core_0_L2C_load_hit 5844854 L2C_load_Hit Ratio: 0.63448
Core_0_L2C_load_miss 3367223
Core_0_L2C_RFOs 787734
Core_0_L2C_RFO_hit 778 L2C_RFO_Hit Ratio: 0.00099
Core_0_L2C_RFO_miss 786956
Core_0_L2C_prefetches 16307935
Core_0_L2C_prefetch_hit 16302130 L2C_prefetch_Hit Ratio: 0.99964
Core_0_L2C_prefetch_miss 5805
Core_0_L2C_writebacks 2898535
Core_0_L2C_writeback_hit 2898529 L2C_writeback_Hit Ratio: 1.00000
Core_0_L2C_writeback_miss 6
Core_0_L2C_prefetch_requested 12861189
Core_0_L2C_prefetch_issued 4728
Core_0_L2C_prefetch_useful 5744 L2C_Useful Ratio: 1.21489
Core_0_L2C_prefetch_useless 55
Core_0_L2C_prefetch_late 0
Core_0_L2C_average_miss_latency 298.53536

Core_0_LLC_total_access 6578990
Core_0_LLC_total_hit 2446972 LLC_total_Hit Ratio: 0.37194
Core_0_LLC_total_miss 4132018
Core_0_LLC_loads 3367223
Core_0_LLC_load_hit 43187 LLC_load_Hit Ratio: 0.01283
Core_0_LLC_load_miss 3324036
Core_0_LLC_RFOs 786956
Core_0_LLC_RFO_hit 329 LLC_RFO_Hit Ratio: 0.00042
Core_0_LLC_RFO_miss 786627
Core_0_LLC_prefetches 6472
Core_0_LLC_prefetch_hit 6427 LLC_prefetch_Hit Ratio: 0.99305
Core_0_LLC_prefetch_miss 45
Core_0_LLC_writebacks 2418339
Core_0_LLC_writeback_hit 2397029 LLC_writeback_Hit Ratio: 0.99119
Core_0_LLC_writeback_miss 21310
Core_0_LLC_prefetch_requested 0
Core_0_LLC_prefetch_issued 0
Core_0_LLC_prefetch_useful 1 LLC_Useful Ratio: inf
Core_0_LLC_prefetch_useless 40
Core_0_LLC_prefetch_late 0
Core_0_LLC_average_miss_latency 260.17900

Core_0_major_page_fault 0
Core_0_minor_page_fault 28665

CPU 0 L1D next line prefetcher final stats
Prefetcher final stats
Training Unit Size: 4735
Addr table size: 1762847 1762852


Triggers: 3383724
No Prediction: 1768050 52.25160
Stream end: 13839
No translation: 1008363 29.80039
Predictions: 4728 0.13973


Stream divergence: 20954 0.61926
Stream divergence -- new stream: 0
Channel_0_RQ_row_buffer_hit 2248364
Channel_0_RQ_row_buffer_miss 1862344
Channel_0_WQ_row_buffer_hit 1069800
Channel_0_WQ_row_buffer_miss 1335149
Channel_0_WQ_full 7189
Channel_0_dbus_congested 1749246

avg_congested_cycle 8

EzSearch AVG IPC :0.65317: L2-Pf-HR :0.99964 : L2-HR :0.85757 Uful:1.21489
     > Finished combination: TraceType=770-tot Sim:491000000 Prefetcher=L2isb_ideal L1=isb_ideal
