TRACE: [21000000]_FE_[Pythia-70M]_[h8]_[s256]_[d64] Warmup: 2000000 NumTraces: 21000000
L1:bingo_dpc3_PHT1k:L2:bingo_dpc3_PHT1k
*************************************************
   ChampSim Multicore Out-of-Order Simulator
   Last compiled: Oct 27 2024 02:31:36
*************************************************

trace_0 770-tot_memTraces_v3/memTraces[21000000]_FE_[Pythia-70M]_[h8]_[s256]_[d64].champsim.xz
Bingo PHT WAYS: 16 and PHT_SIZE: 1024
Bingo2 PHT WAYS: 16 and PHT_SIZE: 1024
MAIN.cc ln 751 stats print skipped
CPU  0 inst:    1000001 cyc:     498951 now IPC :2.00421: AVG IPC :2.00421: L2-Pf-HR :0.81823: L2-HR :0.61154: (Sim:0h0m20s) 
CPU  0 inst:    2000003 cyc:     986165 now IPC :2.05249: AVG IPC :2.02806: L2-Pf-HR :0.77422: L2-HR :0.71336: (Sim:0h0m41s) 

Warmup complete CPU  0 instructions:    2000003 cycles:     986165 (Simulation time: 0 hr 0 min 41 sec) 

CPU  0 inst:    3000000 cyc:    1557146 now IPC :1.75137: AVG IPC :1.75137: L2-Pf-HR :0.77272: L2-HR :0.78942: (Sim:0h0m59s) 
CPU  0 inst:    4000001 cyc:    2100629 now IPC :1.83999: AVG IPC :1.79458: L2-Pf-HR :0.76695: L2-HR :0.79608: (Sim:0h1m15s) 
CPU  0 inst:    5000000 cyc:    2645109 now IPC :1.83661: AVG IPC :1.80838: L2-Pf-HR :0.76274: L2-HR :0.79802: (Sim:0h1m32s) 
CPU  0 inst:    6000005 cyc:    3179453 now IPC :1.87146: AVG IPC :1.82375: L2-Pf-HR :0.76351: L2-HR :0.80131: (Sim:0h1m50s) 
CPU  0 inst:    7000002 cyc:    3714558 now IPC :1.86879: AVG IPC :1.83258: L2-Pf-HR :0.76220: L2-HR :0.80254: (Sim:0h2m8s) 
CPU  0 inst:    8000000 cyc:    4260848 now IPC :1.83053: AVG IPC :1.83224: L2-Pf-HR :0.75935: L2-HR :0.80117: (Sim:0h2m26s) 
CPU  0 inst:    9000000 cyc:    5119119 now IPC :1.16513: AVG IPC :1.69370: L2-Pf-HR :0.81357: L2-HR :0.84957: (Sim:0h2m43s) 
CPU  0 inst:   10000000 cyc:    8088763 now IPC :0.33674: AVG IPC :1.12635: L2-Pf-HR :0.78528: L2-HR :0.83472: (Sim:0h3m7s) 
CPU  0 inst:   11000000 cyc:   11055262 now IPC :0.33710: AVG IPC :0.89382: L2-Pf-HR :0.76056: L2-HR :0.82187: (Sim:0h3m33s) 
CPU  0 inst:   12000000 cyc:   14022197 now IPC :0.33705: AVG IPC :0.76710: L2-Pf-HR :0.73890: L2-HR :0.81025: (Sim:0h3m59s) 
CPU  0 inst:   13000000 cyc:   16989542 now IPC :0.33700: AVG IPC :0.68735: L2-Pf-HR :0.70851: L2-HR :0.79311: (Sim:0h4m26s) 
CPU  0 inst:   14000000 cyc:   17617083 now IPC :1.59352: AVG IPC :0.72155: L2-Pf-HR :0.70728: L2-HR :0.78626: (Sim:0h4m46s) 
CPU  0 inst:   15000000 cyc:   18139844 now IPC :1.91292: AVG IPC :0.75785: L2-Pf-HR :0.70620: L2-HR :0.78431: (Sim:0h5m5s) 
CPU  0 inst:   16000003 cyc:   18660044 now IPC :1.92234: AVG IPC :0.79213: L2-Pf-HR :0.70715: L2-HR :0.78372: (Sim:0h5m25s) 
CPU  0 inst:   17000001 cyc:   19176680 now IPC :1.93559: AVG IPC :0.82461: L2-Pf-HR :0.71191: L2-HR :0.78576: (Sim:0h5m46s) 
CPU  0 inst:   18000003 cyc:   19693681 now IPC :1.93424: AVG IPC :0.85527: L2-Pf-HR :0.71752: L2-HR :0.78856: (Sim:0h6m7s) 
Finished CPU 0 instr: 16000000 cyc: 18707516 AVG IPC: 0.85527 (Sim time: 0h6m7s)

ChampSim completed all CPUs

[ROI Statistics]
Core_0_instructions 16000000
Core_0_cycles 18707516
Core_0_IPC 0.85527

Core_0_branch_prediction_accuracy 98.24556
Core_0_branch_MPKI 0.63131
Core_0_average_ROB_occupancy_at_mispredict 315.25116

Core_0_L1D_total_access 5344021
Core_0_L1D_total_hit 5071453 L1D_total_Hit Ratio: 0.94900
Core_0_L1D_total_miss 272568
Core_0_L1D_loads 4549436
Core_0_L1D_load_hit 4450918 L1D_load_Hit Ratio: 0.97835
Core_0_L1D_load_miss 98518
Core_0_L1D_RFOs 568340
Core_0_L1D_RFO_hit 565607 L1D_RFO_Hit Ratio: 0.99519
Core_0_L1D_RFO_miss 2733
Core_0_L1D_prefetches 226245
Core_0_L1D_prefetch_hit 54928 L1D_prefetch_Hit Ratio: 0.24278
Core_0_L1D_prefetch_miss 171317
Core_0_L1D_writebacks 0
Core_0_L1D_writeback_hit 0 L1D_writeback_Hit Ratio: -nan
Core_0_L1D_writeback_miss 0
Core_0_L1D_prefetch_requested 319946
Core_0_L1D_prefetch_issued 319946
Core_0_L1D_prefetch_useful 188617 L1D_Useful Ratio: 0.58953
Core_0_L1D_prefetch_useless 4735
Core_0_L1D_prefetch_late 38453
Core_0_L1D_average_miss_latency 584558.07448

Core_0_L1I_total_access 2450728
Core_0_L1I_total_hit 2448871 L1I_total_Hit Ratio: 0.99924
Core_0_L1I_total_miss 1857
Core_0_L1I_loads 2450728
Core_0_L1I_load_hit 2448871 L1I_load_Hit Ratio: 0.99924
Core_0_L1I_load_miss 1857
Core_0_L1I_RFOs 0
Core_0_L1I_RFO_hit 0 L1I_RFO_Hit Ratio: -nan
Core_0_L1I_RFO_miss 0
Core_0_L1I_prefetches 0
Core_0_L1I_prefetch_hit 0 L1I_prefetch_Hit Ratio: -nan
Core_0_L1I_prefetch_miss 0
Core_0_L1I_writebacks 0
Core_0_L1I_writeback_hit 0 L1I_writeback_Hit Ratio: -nan
Core_0_L1I_writeback_miss 0
Core_0_L1I_prefetch_requested 0
Core_0_L1I_prefetch_issued 0
Core_0_L1I_prefetch_useful 0 L1I_Useful Ratio: -nan
Core_0_L1I_prefetch_useless 0
Core_0_L1I_prefetch_late 0
Core_0_L1I_average_miss_latency 180.96284

Core_0_L2C_total_access 433195
Core_0_L2C_total_hit 341599 L2C_total_Hit Ratio: 0.78856
Core_0_L2C_total_miss 91596
Core_0_L2C_loads 63056
Core_0_L2C_load_hit 46039 L2C_load_Hit Ratio: 0.73013
Core_0_L2C_load_miss 17017
Core_0_L2C_RFOs 2733
Core_0_L2C_RFO_hit 307 L2C_RFO_Hit Ratio: 0.11233
Core_0_L2C_RFO_miss 2426
Core_0_L2C_prefetches 255426
Core_0_L2C_prefetch_hit 183274 L2C_prefetch_Hit Ratio: 0.71752
Core_0_L2C_prefetch_miss 72152
Core_0_L2C_writebacks 111980
Core_0_L2C_writeback_hit 111979 L2C_writeback_Hit Ratio: 0.99999
Core_0_L2C_writeback_miss 1
Core_0_L2C_prefetch_requested 65089
Core_0_L2C_prefetch_issued 65089
Core_0_L2C_prefetch_useful 25933 L2C_Useful Ratio: 0.39842
Core_0_L2C_prefetch_useless 15463
Core_0_L2C_prefetch_late 2148
Core_0_L2C_average_miss_latency 168.94597

Core_0_LLC_total_access 112895
Core_0_LLC_total_hit 30816 LLC_total_Hit Ratio: 0.27296
Core_0_LLC_total_miss 82079
Core_0_LLC_loads 14890
Core_0_LLC_load_hit 1563 LLC_load_Hit Ratio: 0.10497
Core_0_LLC_load_miss 13327
Core_0_LLC_RFOs 2426
Core_0_LLC_RFO_hit 76 LLC_RFO_Hit Ratio: 0.03133
Core_0_LLC_RFO_miss 2350
Core_0_LLC_prefetches 74279
Core_0_LLC_prefetch_hit 7877 LLC_prefetch_Hit Ratio: 0.10605
Core_0_LLC_prefetch_miss 66402
Core_0_LLC_writebacks 21300
Core_0_LLC_writeback_hit 21300 LLC_writeback_Hit Ratio: 1.00000
Core_0_LLC_writeback_miss 0
Core_0_LLC_prefetch_requested 0
Core_0_LLC_prefetch_issued 0
Core_0_LLC_prefetch_useful 422 LLC_Useful Ratio: inf
Core_0_LLC_prefetch_useless 0
Core_0_LLC_prefetch_late 0
Core_0_LLC_average_miss_latency 145.87502

Core_0_major_page_fault 0
Core_0_minor_page_fault 2382

[Bingo] PHT Access: 20560
[Bingo] PHT Hit PC+Addr: 3440
[Bingo] PHT Hit PC+Offs: 15468
[Bingo] PHT Miss: 1652
[Bingo] Prefetch PC+Addr: 0
[Bingo] Prefetch PC+Offs: 0
[Bingo] Useful PC+Addr: 0
[Bingo] Useful PC+Offs: 0
[Bingo] Useless PC+Addr: 0
[Bingo] Useless PC+Offs: 0
[Bingo] L1 Prefetch per Region: 16.55231
[Bingo] L2 Prefetch per Region: 0.83282
[Bingo] L3 Prefetch per Region: 0.00000
[Bingo] No Prefetch per Region: 14.61487
[Bingo] Number of Voters Mean: 14.22537
[Bingo] Number of Voters SD: 6.93000
PHT read accesses: 294366
PHT write accesses: 19754
AT read accesses: 4233947
AT write accesses: 4233932
FT read accesses: 734913
FT write accesses: 20560
PS read accesses: 154618
PS write accesses: 18908
PHT tag read accesses: 880079
PHT tag write accesses: 23194
AT tag read accesses: 78257687
AT tag write accesses: 4253674
FT tag read accesses: 11091736
FT tag write accesses: 398222
PS tag read accesses: 73777317
PS tag write accesses: 172940
[Bingo2] PHT Access: 10068
[Bingo2] PHT Hit PC+Addr: 569
[Bingo2] PHT Hit PC+Offs: 6851
[Bingo2] PHT Miss: 2648
[Bingo2] Prefetch PC+Addr: 0
[Bingo2] Prefetch PC+Offs: 0
[Bingo2] Useful PC+Addr: 0
[Bingo2] Useful PC+Offs: 0
[Bingo2] Useless PC+Addr: 0
[Bingo2] Useless PC+Offs: 0
[Bingo2] L1 Prefetch per Region: 0.00000
[Bingo2] L2 Prefetch per Region: 9.92291
[Bingo2] L3 Prefetch per Region: 0.00000
[Bingo2] No Prefetch per Region: 22.07709
[Bingo2] Number of Voters Mean: 14.82265
[Bingo2] Number of Voters SD: 6.08924
PHT read accesses: 146266
PHT write accesses: 8097
AT read accesses: 51040
AT write accesses: 59042
FT read accesses: 28386
FT write accesses: 10068
PS read accesses: 20052
PS write accesses: 7420
PHT tag read accesses: 410086
PHT tag write accesses: 8666
AT tag read accesses: 2072150
AT tag write accesses: 59137
FT tag read accesses: 1387438
FT tag write accesses: 28314
PS tag read accesses: 1278411
PS tag write accesses: 27078
Channel_0_RQ_row_buffer_hit 78096
Channel_0_RQ_row_buffer_miss 3983
Channel_0_WQ_row_buffer_hit 0
Channel_0_WQ_row_buffer_miss 0
Channel_0_WQ_full 0
Channel_0_dbus_congested 53156

avg_congested_cycle 8

EzSearch AVG IPC :0.85527: L2-Pf-HR :0.71752 : L2-HR :0.78856 Uful:0.39842
     > Finished combination: TraceType=770-tot Sim:16000000 Prefetcher=L2bingo_dpc3_PHT1k L1=bingo_dpc3_PHT1k
