TRACE: [75000000]_FE_[GPT-Neo_1_3B]_[h16]_[s256]_[d128] Warmup: 2000000 NumTraces: 75000000
L1:no:L2:no
*************************************************
   ChampSim Multicore Out-of-Order Simulator
   Last compiled: Oct 26 2024 17:00:29
*************************************************

trace_0 770-tot_memTraces_v3/memTraces[75000000]_FE_[GPT-Neo_1_3B]_[h16]_[s256]_[d128].champsim.xz
MAIN.cc ln 751 stats print skipped
CPU  0 inst:    1000000 cyc:     499521 now IPC :2.00192: AVG IPC :2.00192: L2-Pf-HR :-nan: L2-HR :0.55989: (Sim:0h0m8s) 
CPU  0 inst:    2000002 cyc:     984840 now IPC :2.06050: AVG IPC :2.03079: L2-Pf-HR :-nan: L2-HR :0.66693: (Sim:0h0m16s) 

Warmup complete CPU  0 instructions:    2000002 cycles:     984840 (Simulation time: 0 hr 0 min 16 sec) 

CPU  0 inst:    3000002 cyc:    1615307 now IPC :1.58613: AVG IPC :1.58613: L2-Pf-HR :-nan: L2-HR :0.76842: (Sim:0h0m23s) 
CPU  0 inst:    4000001 cyc:    2185186 now IPC :1.75476: AVG IPC :1.66619: L2-Pf-HR :-nan: L2-HR :0.78940: (Sim:0h0m29s) 
CPU  0 inst:    5000000 cyc:    2802906 now IPC :1.61885: AVG IPC :1.65010: L2-Pf-HR :-nan: L2-HR :0.78544: (Sim:0h0m36s) 
CPU  0 inst:    6000002 cyc:    3380760 now IPC :1.73054: AVG IPC :1.66950: L2-Pf-HR :-nan: L2-HR :0.78908: (Sim:0h0m42s) 
CPU  0 inst:    7000004 cyc:    3999481 now IPC :1.61624: AVG IPC :1.65857: L2-Pf-HR :-nan: L2-HR :0.78728: (Sim:0h0m48s) 
CPU  0 inst:    8000000 cyc:    4568744 now IPC :1.75665: AVG IPC :1.67415: L2-Pf-HR :-nan: L2-HR :0.79045: (Sim:0h0m55s) 
CPU  0 inst:    9000005 cyc:    5193877 now IPC :1.59967: AVG IPC :1.66309: L2-Pf-HR :-nan: L2-HR :0.78768: (Sim:0h1m1s) 
CPU  0 inst:   10000004 cyc:    5762905 now IPC :1.75738: AVG IPC :1.67432: L2-Pf-HR :-nan: L2-HR :0.79099: (Sim:0h1m8s) 
CPU  0 inst:   11000000 cyc:    6380518 now IPC :1.61913: AVG IPC :1.66800: L2-Pf-HR :-nan: L2-HR :0.78899: (Sim:0h1m14s) 
CPU  0 inst:   12000005 cyc:    6956970 now IPC :1.73476: AVG IPC :1.67444: L2-Pf-HR :-nan: L2-HR :0.79101: (Sim:0h1m21s) 
CPU  0 inst:   13000001 cyc:    7575203 now IPC :1.61751: AVG IPC :1.66910: L2-Pf-HR :-nan: L2-HR :0.78964: (Sim:0h1m27s) 
CPU  0 inst:   14000001 cyc:    8143819 now IPC :1.75866: AVG IPC :1.67622: L2-Pf-HR :-nan: L2-HR :0.79167: (Sim:0h1m34s) 
CPU  0 inst:   15000001 cyc:    8768874 now IPC :1.59986: AVG IPC :1.67009: L2-Pf-HR :-nan: L2-HR :0.78985: (Sim:0h1m40s) 
CPU  0 inst:   16000001 cyc:    9339256 now IPC :1.75321: AVG IPC :1.67576: L2-Pf-HR :-nan: L2-HR :0.79156: (Sim:0h1m47s) 
CPU  0 inst:   17000004 cyc:    9956263 now IPC :1.62073: AVG IPC :1.67198: L2-Pf-HR :-nan: L2-HR :0.79055: (Sim:0h1m53s) 
CPU  0 inst:   18000005 cyc:   10533905 now IPC :1.73118: AVG IPC :1.67556: L2-Pf-HR :-nan: L2-HR :0.79124: (Sim:0h2m0s) 
CPU  0 inst:   19000004 cyc:   11151446 now IPC :1.61932: AVG IPC :1.67214: L2-Pf-HR :-nan: L2-HR :0.79064: (Sim:0h2m6s) 
CPU  0 inst:   20000002 cyc:   11729447 now IPC :1.73010: AVG IPC :1.67526: L2-Pf-HR :-nan: L2-HR :0.79102: (Sim:0h2m13s) 
CPU  0 inst:   21000002 cyc:   12346311 now IPC :1.62110: AVG IPC :1.67232: L2-Pf-HR :-nan: L2-HR :0.79041: (Sim:0h2m19s) 
CPU  0 inst:   22000004 cyc:   12917416 now IPC :1.75100: AVG IPC :1.67608: L2-Pf-HR :-nan: L2-HR :0.79156: (Sim:0h2m26s) 
CPU  0 inst:   23000000 cyc:   13540319 now IPC :1.60538: AVG IPC :1.67258: L2-Pf-HR :-nan: L2-HR :0.79039: (Sim:0h2m33s) 
CPU  0 inst:   24000002 cyc:   14114119 now IPC :1.74277: AVG IPC :1.67564: L2-Pf-HR :-nan: L2-HR :0.79151: (Sim:0h2m39s) 
CPU  0 inst:   25000001 cyc:   14728357 now IPC :1.62803: AVG IPC :1.67352: L2-Pf-HR :-nan: L2-HR :0.79083: (Sim:0h2m46s) 
CPU  0 inst:   26000005 cyc:   15309940 now IPC :1.71945: AVG IPC :1.67538: L2-Pf-HR :-nan: L2-HR :0.79146: (Sim:0h2m53s) 
CPU  0 inst:   27000005 cyc:   15920937 now IPC :1.63667: AVG IPC :1.67380: L2-Pf-HR :-nan: L2-HR :0.79085: (Sim:0h3m0s) 
CPU  0 inst:   28000001 cyc:   16496084 now IPC :1.73868: AVG IPC :1.67620: L2-Pf-HR :-nan: L2-HR :0.79175: (Sim:0h3m6s) 
CPU  0 inst:   29000000 cyc:   17113310 now IPC :1.62015: AVG IPC :1.67406: L2-Pf-HR :-nan: L2-HR :0.79074: (Sim:0h3m13s) 
CPU  0 inst:   30000005 cyc:   17696103 now IPC :1.71588: AVG IPC :1.67552: L2-Pf-HR :-nan: L2-HR :0.79155: (Sim:0h3m20s) 
CPU  0 inst:   31000005 cyc:   18282169 now IPC :1.70629: AVG IPC :1.67656: L2-Pf-HR :-nan: L2-HR :0.79254: (Sim:0h3m27s) 
CPU  0 inst:   32000001 cyc:   18906869 now IPC :1.60076: AVG IPC :1.67392: L2-Pf-HR :-nan: L2-HR :0.79136: (Sim:0h3m34s) 
CPU  0 inst:   33000000 cyc:   19482920 now IPC :1.73596: AVG IPC :1.67585: L2-Pf-HR :-nan: L2-HR :0.79248: (Sim:0h3m40s) 
CPU  0 inst:   34000001 cyc:   21048247 now IPC :0.63884: AVG IPC :1.59494: L2-Pf-HR :-nan: L2-HR :0.73731: (Sim:0h3m49s) 
CPU  0 inst:   35000001 cyc:   24229209 now IPC :0.31437: AVG IPC :1.41970: L2-Pf-HR :-nan: L2-HR :0.72645: (Sim:0h4m1s) 
CPU  0 inst:   36000001 cyc:   27440739 now IPC :0.31138: AVG IPC :1.28516: L2-Pf-HR :-nan: L2-HR :0.71477: (Sim:0h4m14s) 
CPU  0 inst:   37000001 cyc:   30689038 now IPC :0.30785: AVG IPC :1.17828: L2-Pf-HR :-nan: L2-HR :0.70347: (Sim:0h4m26s) 
CPU  0 inst:   38000001 cyc:   34034457 now IPC :0.29892: AVG IPC :1.08927: L2-Pf-HR :-nan: L2-HR :0.69275: (Sim:0h4m39s) 
CPU  0 inst:   39000001 cyc:   37557587 now IPC :0.28384: AVG IPC :1.01168: L2-Pf-HR :-nan: L2-HR :0.68263: (Sim:0h4m52s) 
CPU  0 inst:   40000001 cyc:   41155506 now IPC :0.27794: AVG IPC :0.94596: L2-Pf-HR :-nan: L2-HR :0.67306: (Sim:0h5m5s) 
CPU  0 inst:   41000001 cyc:   44519722 now IPC :0.29725: AVG IPC :0.89583: L2-Pf-HR :-nan: L2-HR :0.66405: (Sim:0h5m17s) 
CPU  0 inst:   42000001 cyc:   47954083 now IPC :0.29117: AVG IPC :0.85162: L2-Pf-HR :-nan: L2-HR :0.65378: (Sim:0h5m30s) 
CPU  0 inst:   43000004 cyc:   48771760 now IPC :1.22298: AVG IPC :0.85798: L2-Pf-HR :-nan: L2-HR :0.65434: (Sim:0h5m44s) 
CPU  0 inst:   44000000 cyc:   49375905 now IPC :1.65523: AVG IPC :0.86793: L2-Pf-HR :-nan: L2-HR :0.65890: (Sim:0h5m54s) 
CPU  0 inst:   45000005 cyc:   50058774 now IPC :1.46442: AVG IPC :0.87623: L2-Pf-HR :-nan: L2-HR :0.66227: (Sim:0h6m4s) 
CPU  0 inst:   46000004 cyc:   50639671 now IPC :1.72147: AVG IPC :0.88612: L2-Pf-HR :-nan: L2-HR :0.66590: (Sim:0h6m12s) 
CPU  0 inst:   47000000 cyc:   51341176 now IPC :1.42550: AVG IPC :0.89363: L2-Pf-HR :-nan: L2-HR :0.66952: (Sim:0h6m24s) 
CPU  0 inst:   48000004 cyc:   51945886 now IPC :1.65369: AVG IPC :0.90265: L2-Pf-HR :-nan: L2-HR :0.67266: (Sim:0h6m35s) 
CPU  0 inst:   49000002 cyc:   52623445 now IPC :1.47588: AVG IPC :0.91017: L2-Pf-HR :-nan: L2-HR :0.67639: (Sim:0h6m45s) 
CPU  0 inst:   50000002 cyc:   53226871 now IPC :1.65720: AVG IPC :0.91880: L2-Pf-HR :-nan: L2-HR :0.67906: (Sim:0h6m56s) 
CPU  0 inst:   51000003 cyc:   53888346 now IPC :1.51177: AVG IPC :0.92621: L2-Pf-HR :-nan: L2-HR :0.68241: (Sim:0h7m6s) 
CPU  0 inst:   52000003 cyc:   54515903 now IPC :1.59348: AVG IPC :0.93404: L2-Pf-HR :-nan: L2-HR :0.68492: (Sim:0h7m18s) 
CPU  0 inst:   53000001 cyc:   55257719 now IPC :1.34804: AVG IPC :0.93970: L2-Pf-HR :-nan: L2-HR :0.68795: (Sim:0h7m29s) 
CPU  0 inst:   54000001 cyc:   55848606 now IPC :1.69237: AVG IPC :0.94780: L2-Pf-HR :-nan: L2-HR :0.69065: (Sim:0h7m39s) 
CPU  0 inst:   55000000 cyc:   56533223 now IPC :1.46067: AVG IPC :0.95412: L2-Pf-HR :-nan: L2-HR :0.69319: (Sim:0h7m50s) 
CPU  0 inst:   56000005 cyc:   57143633 now IPC :1.63825: AVG IPC :0.96156: L2-Pf-HR :-nan: L2-HR :0.69562: (Sim:0h8m1s) 
CPU  0 inst:   57000005 cyc:   57838792 now IPC :1.43852: AVG IPC :0.96739: L2-Pf-HR :-nan: L2-HR :0.69799: (Sim:0h8m12s) 
CPU  0 inst:   58000000 cyc:   58469747 now IPC :1.58489: AVG IPC :0.97417: L2-Pf-HR :-nan: L2-HR :0.70023: (Sim:0h8m24s) 
CPU  0 inst:   59000001 cyc:   59160846 now IPC :1.44697: AVG IPC :0.97979: L2-Pf-HR :-nan: L2-HR :0.70245: (Sim:0h8m35s) 
CPU  0 inst:   60000004 cyc:   59798010 now IPC :1.56946: AVG IPC :0.98617: L2-Pf-HR :-nan: L2-HR :0.70454: (Sim:0h8m47s) 
CPU  0 inst:   61000004 cyc:   60488203 now IPC :1.44887: AVG IPC :0.99154: L2-Pf-HR :-nan: L2-HR :0.70658: (Sim:0h8m59s) 
CPU  0 inst:   62000000 cyc:   61089971 now IPC :1.66176: AVG IPC :0.99825: L2-Pf-HR :-nan: L2-HR :0.70864: (Sim:0h9m9s) 
CPU  0 inst:   63000002 cyc:   61713015 now IPC :1.60503: AVG IPC :1.00448: L2-Pf-HR :-nan: L2-HR :0.71100: (Sim:0h9m20s) 
CPU  0 inst:   64000001 cyc:   62421484 now IPC :1.41149: AVG IPC :1.00917: L2-Pf-HR :-nan: L2-HR :0.71245: (Sim:0h9m32s) 
CPU  0 inst:   65000004 cyc:   63033151 now IPC :1.63488: AVG IPC :1.01534: L2-Pf-HR :-nan: L2-HR :0.71474: (Sim:0h9m43s) 
CPU  0 inst:   66000005 cyc:   63736192 now IPC :1.42239: AVG IPC :1.01990: L2-Pf-HR :-nan: L2-HR :0.71601: (Sim:0h9m56s) 
CPU  0 inst:   67000003 cyc:   64346768 now IPC :1.63779: AVG IPC :1.02585: L2-Pf-HR :-nan: L2-HR :0.71785: (Sim:0h10m6s) 
CPU  0 inst:   68000005 cyc:   65003440 now IPC :1.52283: AVG IPC :1.03095: L2-Pf-HR :-nan: L2-HR :0.71959: (Sim:0h10m16s) 
CPU  0 inst:   69000003 cyc:   65614832 now IPC :1.63561: AVG IPC :1.03667: L2-Pf-HR :-nan: L2-HR :0.72101: (Sim:0h10m27s) 
CPU  0 inst:   70000003 cyc:   66229115 now IPC :1.62791: AVG IPC :1.04224: L2-Pf-HR :-nan: L2-HR :0.72269: (Sim:0h10m35s) 
CPU  0 inst:   71000004 cyc:   66825980 now IPC :1.67542: AVG IPC :1.04798: L2-Pf-HR :-nan: L2-HR :0.72410: (Sim:0h10m45s) 
CPU  0 inst:   72000005 cyc:   67461627 now IPC :1.57320: AVG IPC :1.05300: L2-Pf-HR :-nan: L2-HR :0.72562: (Sim:0h10m55s) 
Finished CPU 0 instr: 70000003 cyc: 66476787 AVG IPC: 1.05300 (Sim time: 0h10m55s)

ChampSim completed all CPUs

[ROI Statistics]
Core_0_instructions 70000003
Core_0_cycles 66476787
Core_0_IPC 1.05300

Core_0_branch_prediction_accuracy 97.65568
Core_0_branch_MPKI 0.58861
Core_0_average_ROB_occupancy_at_mispredict 494.24389

Core_0_L1D_total_access 17764123
Core_0_L1D_total_hit 16509001 L1D_total_Hit Ratio: 0.92935
Core_0_L1D_total_miss 1255122
Core_0_L1D_loads 16181504
Core_0_L1D_load_hit 15000752 L1D_load_Hit Ratio: 0.92703
Core_0_L1D_load_miss 1180752
Core_0_L1D_RFOs 1582619
Core_0_L1D_RFO_hit 1508249 L1D_RFO_Hit Ratio: 0.95301
Core_0_L1D_RFO_miss 74370
Core_0_L1D_prefetches 0
Core_0_L1D_prefetch_hit 0 L1D_prefetch_Hit Ratio: -nan
Core_0_L1D_prefetch_miss 0
Core_0_L1D_writebacks 0
Core_0_L1D_writeback_hit 0 L1D_writeback_Hit Ratio: -nan
Core_0_L1D_writeback_miss 0
Core_0_L1D_prefetch_requested 0
Core_0_L1D_prefetch_issued 0
Core_0_L1D_prefetch_useful 0 L1D_Useful Ratio: -nan
Core_0_L1D_prefetch_useless 0
Core_0_L1D_prefetch_late 0
Core_0_L1D_average_miss_latency 99.45820

Core_0_L1I_total_access 9002933
Core_0_L1I_total_hit 9001046 L1I_total_Hit Ratio: 0.99979
Core_0_L1I_total_miss 1887
Core_0_L1I_loads 9002933
Core_0_L1I_load_hit 9001046 L1I_load_Hit Ratio: 0.99979
Core_0_L1I_load_miss 1887
Core_0_L1I_RFOs 0
Core_0_L1I_RFO_hit 0 L1I_RFO_Hit Ratio: -nan
Core_0_L1I_RFO_miss 0
Core_0_L1I_prefetches 0
Core_0_L1I_prefetch_hit 0 L1I_prefetch_Hit Ratio: -nan
Core_0_L1I_prefetch_miss 0
Core_0_L1I_writebacks 0
Core_0_L1I_writeback_hit 0 L1I_writeback_Hit Ratio: -nan
Core_0_L1I_writeback_miss 0
Core_0_L1I_prefetch_requested 0
Core_0_L1I_prefetch_issued 0
Core_0_L1I_prefetch_useful 0 L1I_Useful Ratio: -nan
Core_0_L1I_prefetch_useless 0
Core_0_L1I_prefetch_late 0
Core_0_L1I_average_miss_latency 253.94648

Core_0_L2C_total_access 1616043
Core_0_L2C_total_hit 1172639 L2C_total_Hit Ratio: 0.72562
Core_0_L2C_total_miss 443404
Core_0_L2C_loads 1182632
Core_0_L2C_load_hit 805353 L2C_load_Hit Ratio: 0.68098
Core_0_L2C_load_miss 377279
Core_0_L2C_RFOs 74359
Core_0_L2C_RFO_hit 8239 L2C_RFO_Hit Ratio: 0.11080
Core_0_L2C_RFO_miss 66120
Core_0_L2C_prefetches 0
Core_0_L2C_prefetch_hit 0 L2C_prefetch_Hit Ratio: -nan
Core_0_L2C_prefetch_miss 0
Core_0_L2C_writebacks 359052
Core_0_L2C_writeback_hit 359047 L2C_writeback_Hit Ratio: 0.99999
Core_0_L2C_writeback_miss 5
Core_0_L2C_prefetch_requested 0
Core_0_L2C_prefetch_issued 0
Core_0_L2C_prefetch_useful 0 L2C_Useful Ratio: -nan
Core_0_L2C_prefetch_useless 0
Core_0_L2C_prefetch_late 0
Core_0_L2C_average_miss_latency 227.60884

Core_0_LLC_total_access 654961
Core_0_LLC_total_hit 354209 LLC_total_Hit Ratio: 0.54081
Core_0_LLC_total_miss 300752
Core_0_LLC_loads 377279
Core_0_LLC_load_hit 144489 LLC_load_Hit Ratio: 0.38298
Core_0_LLC_load_miss 232790
Core_0_LLC_RFOs 66120
Core_0_LLC_RFO_hit 82 LLC_RFO_Hit Ratio: 0.00124
Core_0_LLC_RFO_miss 66038
Core_0_LLC_prefetches 0
Core_0_LLC_prefetch_hit 0 LLC_prefetch_Hit Ratio: -nan
Core_0_LLC_prefetch_miss 0
Core_0_LLC_writebacks 211562
Core_0_LLC_writeback_hit 209638 LLC_writeback_Hit Ratio: 0.99091
Core_0_LLC_writeback_miss 1924
Core_0_LLC_prefetch_requested 0
Core_0_LLC_prefetch_issued 0
Core_0_LLC_prefetch_useful 0 LLC_Useful Ratio: -nan
Core_0_LLC_prefetch_useless 0
Core_0_LLC_prefetch_late 0
Core_0_LLC_average_miss_latency 276.26547

Core_0_major_page_fault 0
Core_0_minor_page_fault 5060

Channel_0_RQ_row_buffer_hit 244965
Channel_0_RQ_row_buffer_miss 53857
Channel_0_WQ_row_buffer_hit 60902
Channel_0_WQ_row_buffer_miss 38570
Channel_0_WQ_full 0
Channel_0_dbus_congested 54308

avg_congested_cycle 7

EzSearch AVG IPC :1.05300: L2-Pf-HR :-nan : L2-HR :0.72562 Uful:-nan
     > Finished combination: TraceType=770-tot Sim:70000000 Prefetcher=L2no L1=no
