TRACE: [409000000][GPT-Neo_2_7B]_[h32][s512][d80] Warmup: 2000000 NumTraces: 409000000
L1:no:L2:spp_berti_src
Initialize SIGNATURE TABLE
ST_SET: 1
ST_WAY: 256
ST_TAG_BIT: 16
ST_TAG_MASK: ffff

Initialize PATTERN TABLE
PT_SET: 512
PT_WAY: 4
SIG_DELTA_BIT: 7
C_SIG_BIT: 4
C_DELTA_BIT: 4

Initialize PREFETCH FILTER
FILTER_SET: 1024
*************************************************
   ChampSim Multicore Out-of-Order Simulator
   Last compiled: Oct 27 2024 00:45:33
*************************************************

trace_0 770-tot_memTraces_v3/memTraces[409000000][GPT-Neo_2_7B]_[h32][s512][d80].champsim.xz
ST_WAYS: 256
PT_SETS: 512
MAIN.cc ln 751 stats print skipped
CPU  0 inst:    1000003 cyc:     498320 now IPC :2.00675: AVG IPC :2.00675: L2-Pf-HR :0.96948: L2-HR :0.84273: (Sim:0h0m19s) 
CPU  0 inst:    2000002 cyc:     981428 now IPC :2.06993: AVG IPC :2.03785: L2-Pf-HR :0.97052: L2-HR :0.88120: (Sim:0h0m41s) 

Warmup complete CPU  0 instructions:    2000002 cycles:     981428 (Simulation time: 0 hr 0 min 41 sec) 

CPU  0 inst:    3000000 cyc:    1466240 now IPC :2.06265: AVG IPC :2.06265: L2-Pf-HR :0.98618: L2-HR :0.92386: (Sim:0h0m58s) 
CPU  0 inst:    4000000 cyc:    1985231 now IPC :1.92682: AVG IPC :1.99242: L2-Pf-HR :0.98856: L2-HR :0.92163: (Sim:0h1m16s) 
CPU  0 inst:    5000005 cyc:    2460481 now IPC :2.10417: AVG IPC :2.02833: L2-Pf-HR :0.98796: L2-HR :0.90904: (Sim:0h1m33s) 
CPU  0 inst:    6000002 cyc:    3019654 now IPC :1.78835: AVG IPC :1.96249: L2-Pf-HR :0.99017: L2-HR :0.90728: (Sim:0h1m51s) 
CPU  0 inst:    7000004 cyc:    3498847 now IPC :2.08685: AVG IPC :1.98616: L2-Pf-HR :0.99100: L2-HR :0.91265: (Sim:0h2m9s) 
CPU  0 inst:    8000000 cyc:    3978627 now IPC :2.08428: AVG IPC :2.00187: L2-Pf-HR :0.99017: L2-HR :0.91624: (Sim:0h2m26s) 
CPU  0 inst:    9000002 cyc:    4472648 now IPC :2.02421: AVG IPC :2.00503: L2-Pf-HR :0.98959: L2-HR :0.92020: (Sim:0h2m44s) 
CPU  0 inst:   10000003 cyc:    4968510 now IPC :2.01669: AVG IPC :2.00648: L2-Pf-HR :0.98954: L2-HR :0.91502: (Sim:0h3m1s) 
CPU  0 inst:   11000003 cyc:    5519096 now IPC :1.81625: AVG IPC :1.98340: L2-Pf-HR :0.99030: L2-HR :0.91337: (Sim:0h3m19s) 
CPU  0 inst:   12000004 cyc:    6000588 now IPC :2.07688: AVG IPC :1.99237: L2-Pf-HR :0.99070: L2-HR :0.91507: (Sim:0h3m37s) 
CPU  0 inst:   13000000 cyc:    6483569 now IPC :2.07047: AVG IPC :1.99922: L2-Pf-HR :0.99104: L2-HR :0.91713: (Sim:0h3m54s) 
CPU  0 inst:   14000001 cyc:    6971475 now IPC :2.04958: AVG IPC :2.00332: L2-Pf-HR :0.99016: L2-HR :0.91855: (Sim:0h4m11s) 
CPU  0 inst:   15000002 cyc:    7477494 now IPC :1.97621: AVG IPC :2.00121: L2-Pf-HR :0.99029: L2-HR :0.91682: (Sim:0h4m29s) 
CPU  0 inst:   16000000 cyc:    8033827 now IPC :1.79748: AVG IPC :1.98514: L2-Pf-HR :0.99050: L2-HR :0.91525: (Sim:0h4m47s) 
CPU  0 inst:   17000004 cyc:    8523831 now IPC :2.04081: AVG IPC :1.98876: L2-Pf-HR :0.98967: L2-HR :0.91625: (Sim:0h5m5s) 
CPU  0 inst:   18000000 cyc:    9017331 now IPC :2.02633: AVG IPC :1.99106: L2-Pf-HR :0.98893: L2-HR :0.91719: (Sim:0h5m22s) 
CPU  0 inst:   19000005 cyc:    9502785 now IPC :2.05994: AVG IPC :1.99499: L2-Pf-HR :0.98907: L2-HR :0.91844: (Sim:0h5m40s) 
CPU  0 inst:   20000004 cyc:   10006320 now IPC :1.98596: AVG IPC :1.99448: L2-Pf-HR :0.98924: L2-HR :0.91753: (Sim:0h5m57s) 
CPU  0 inst:   21000003 cyc:   10551586 now IPC :1.83397: AVG IPC :1.98534: L2-Pf-HR :0.98944: L2-HR :0.91594: (Sim:0h6m15s) 
CPU  0 inst:   22000001 cyc:   11033860 now IPC :2.07351: AVG IPC :1.98957: L2-Pf-HR :0.98977: L2-HR :0.91702: (Sim:0h6m33s) 
CPU  0 inst:   23000003 cyc:   11518979 now IPC :2.06135: AVG IPC :1.99287: L2-Pf-HR :0.98951: L2-HR :0.91771: (Sim:0h6m50s) 
CPU  0 inst:   24000005 cyc:   12005141 now IPC :2.05693: AVG IPC :1.99570: L2-Pf-HR :0.98921: L2-HR :0.91859: (Sim:0h7m8s) 
CPU  0 inst:   25000004 cyc:   12515593 now IPC :1.95905: AVG IPC :1.99408: L2-Pf-HR :0.98937: L2-HR :0.91824: (Sim:0h7m25s) 
CPU  0 inst:   26000004 cyc:   13067539 now IPC :1.81177: AVG IPC :1.98575: L2-Pf-HR :0.98955: L2-HR :0.91680: (Sim:0h7m43s) 
CPU  0 inst:   27000001 cyc:   13561202 now IPC :2.02567: AVG IPC :1.98732: L2-Pf-HR :0.98928: L2-HR :0.91743: (Sim:0h8m1s) 
CPU  0 inst:   28000004 cyc:   14050935 now IPC :2.04194: AVG IPC :1.98936: L2-Pf-HR :0.98906: L2-HR :0.91796: (Sim:0h8m18s) 
CPU  0 inst:   29000002 cyc:   14534873 now IPC :2.06638: AVG IPC :1.99211: L2-Pf-HR :0.98932: L2-HR :0.91865: (Sim:0h8m36s) 
CPU  0 inst:   30000002 cyc:   15058576 now IPC :1.90948: AVG IPC :1.98904: L2-Pf-HR :0.98946: L2-HR :0.91854: (Sim:0h8m54s) 
CPU  0 inst:   31000001 cyc:   15622603 now IPC :1.77296: AVG IPC :1.98072: L2-Pf-HR :0.98956: L2-HR :0.91733: (Sim:0h9m12s) 
CPU  0 inst:   32000001 cyc:   16122188 now IPC :2.00166: AVG IPC :1.98141: L2-Pf-HR :0.98973: L2-HR :0.91785: (Sim:0h9m29s) 
CPU  0 inst:   33000000 cyc:   16610407 now IPC :2.04826: AVG IPC :1.98349: L2-Pf-HR :0.98991: L2-HR :0.91846: (Sim:0h9m47s) 
CPU  0 inst:   34000002 cyc:   17101670 now IPC :2.03557: AVG IPC :1.98508: L2-Pf-HR :0.98975: L2-HR :0.91906: (Sim:0h10m5s) 
CPU  0 inst:   35000004 cyc:   17636662 now IPC :1.86919: AVG IPC :1.98136: L2-Pf-HR :0.98975: L2-HR :0.91891: (Sim:0h10m23s) 
CPU  0 inst:   36000001 cyc:   18224985 now IPC :1.69974: AVG IPC :1.97175: L2-Pf-HR :0.98979: L2-HR :0.91764: (Sim:0h10m41s) 
CPU  0 inst:   37000001 cyc:   18759806 now IPC :1.86978: AVG IPC :1.96868: L2-Pf-HR :0.98960: L2-HR :0.91802: (Sim:0h10m59s) 
CPU  0 inst:   38000000 cyc:   19275474 now IPC :1.93923: AVG IPC :1.96785: L2-Pf-HR :0.98924: L2-HR :0.91834: (Sim:0h11m17s) 
CPU  0 inst:   39000002 cyc:   19787181 now IPC :1.95425: AVG IPC :1.96748: L2-Pf-HR :0.98912: L2-HR :0.91888: (Sim:0h11m35s) 
CPU  0 inst:   40000002 cyc:   20322713 now IPC :1.86730: AVG IPC :1.96471: L2-Pf-HR :0.98914: L2-HR :0.91883: (Sim:0h11m53s) 
CPU  0 inst:   41000005 cyc:   20896702 now IPC :1.74220: AVG IPC :1.95830: L2-Pf-HR :0.98917: L2-HR :0.91763: (Sim:0h12m11s) 
CPU  0 inst:   42000004 cyc:   21433905 now IPC :1.86149: AVG IPC :1.95575: L2-Pf-HR :0.98906: L2-HR :0.91791: (Sim:0h12m29s) 
CPU  0 inst:   43000003 cyc:   21945507 now IPC :1.95464: AVG IPC :1.95573: L2-Pf-HR :0.98874: L2-HR :0.91815: (Sim:0h12m47s) 
CPU  0 inst:   44000004 cyc:   22439116 now IPC :2.02590: AVG IPC :1.95734: L2-Pf-HR :0.98879: L2-HR :0.91871: (Sim:0h13m5s) 
CPU  0 inst:   45000005 cyc:   22984850 now IPC :1.83240: AVG IPC :1.95424: L2-Pf-HR :0.98882: L2-HR :0.91884: (Sim:0h13m23s) 
CPU  0 inst:   46000002 cyc:   23534651 now IPC :1.81883: AVG IPC :1.95094: L2-Pf-HR :0.98881: L2-HR :0.91764: (Sim:0h13m41s) 
CPU  0 inst:   47000004 cyc:   24082581 now IPC :1.82505: AVG IPC :1.94795: L2-Pf-HR :0.98872: L2-HR :0.91794: (Sim:0h13m59s) 
CPU  0 inst:   48000005 cyc:   24596366 now IPC :1.94634: AVG IPC :1.94792: L2-Pf-HR :0.98846: L2-HR :0.91813: (Sim:0h14m17s) 
CPU  0 inst:   49000005 cyc:   25095413 now IPC :2.00382: AVG IPC :1.94908: L2-Pf-HR :0.98844: L2-HR :0.91854: (Sim:0h14m35s) 
CPU  0 inst:   50000002 cyc:   25634909 now IPC :1.85358: AVG IPC :1.94699: L2-Pf-HR :0.98852: L2-HR :0.91875: (Sim:0h14m53s) 
CPU  0 inst:   51000003 cyc:   26119427 now IPC :2.06391: AVG IPC :1.94924: L2-Pf-HR :0.98848: L2-HR :0.91809: (Sim:0h15m10s) 
CPU  0 inst:   52000001 cyc:   26743105 now IPC :1.60339: AVG IPC :1.94087: L2-Pf-HR :0.98849: L2-HR :0.91783: (Sim:0h15m29s) 
CPU  0 inst:   53000003 cyc:   27265040 now IPC :1.91595: AVG IPC :1.94037: L2-Pf-HR :0.98829: L2-HR :0.91804: (Sim:0h15m47s) 
CPU  0 inst:   54000002 cyc:   27766604 now IPC :1.99376: AVG IPC :1.94137: L2-Pf-HR :0.98835: L2-HR :0.91855: (Sim:0h16m5s) 
CPU  0 inst:   55000001 cyc:   28307569 now IPC :1.84855: AVG IPC :1.93953: L2-Pf-HR :0.98852: L2-HR :0.91888: (Sim:0h16m23s) 
CPU  0 inst:   56000002 cyc:   28798613 now IPC :2.03648: AVG IPC :1.94125: L2-Pf-HR :0.98849: L2-HR :0.91827: (Sim:0h16m40s) 
CPU  0 inst:   57000003 cyc:   29389794 now IPC :1.69153: AVG IPC :1.93605: L2-Pf-HR :0.98853: L2-HR :0.91808: (Sim:0h16m59s) 
CPU  0 inst:   58000003 cyc:   29900056 now IPC :1.95978: AVG IPC :1.93647: L2-Pf-HR :0.98831: L2-HR :0.91828: (Sim:0h17m17s) 
CPU  0 inst:   59000005 cyc:   30399064 now IPC :2.00398: AVG IPC :1.93761: L2-Pf-HR :0.98837: L2-HR :0.91873: (Sim:0h17m34s) 
CPU  0 inst:   60000005 cyc:   30940004 now IPC :1.84863: AVG IPC :1.93601: L2-Pf-HR :0.98831: L2-HR :0.91895: (Sim:0h17m53s) 
CPU  0 inst:   61000005 cyc:   31431257 now IPC :2.03561: AVG IPC :1.93761: L2-Pf-HR :0.98828: L2-HR :0.91840: (Sim:0h18m10s) 
CPU  0 inst:   62000001 cyc:   32035399 now IPC :1.65523: AVG IPC :1.93212: L2-Pf-HR :0.98832: L2-HR :0.91809: (Sim:0h18m29s) 
CPU  0 inst:   63000005 cyc:   32548723 now IPC :1.94810: AVG IPC :1.93238: L2-Pf-HR :0.98812: L2-HR :0.91824: (Sim:0h18m46s) 
CPU  0 inst:   64000005 cyc:   33059097 now IPC :1.95935: AVG IPC :1.93281: L2-Pf-HR :0.98816: L2-HR :0.91866: (Sim:0h19m4s) 
CPU  0 inst:   65000004 cyc:   33570799 now IPC :1.95426: AVG IPC :1.93315: L2-Pf-HR :0.98832: L2-HR :0.91918: (Sim:0h19m22s) 
CPU  0 inst:   66000003 cyc:   34095369 now IPC :1.90632: AVG IPC :1.93272: L2-Pf-HR :0.98833: L2-HR :0.91857: (Sim:0h19m40s) 
CPU  0 inst:   67000001 cyc:   34678266 now IPC :1.71557: AVG IPC :1.92896: L2-Pf-HR :0.98839: L2-HR :0.91835: (Sim:0h19m59s) 
CPU  0 inst:   68000002 cyc:   35198630 now IPC :1.92173: AVG IPC :1.92885: L2-Pf-HR :0.98822: L2-HR :0.91847: (Sim:0h20m17s) 
CPU  0 inst:   69000001 cyc:   35719935 now IPC :1.91826: AVG IPC :1.92870: L2-Pf-HR :0.98808: L2-HR :0.91867: (Sim:0h20m34s) 
CPU  0 inst:   70000004 cyc:   36230861 now IPC :1.95724: AVG IPC :1.92911: L2-Pf-HR :0.98806: L2-HR :0.91894: (Sim:0h20m52s) 
CPU  0 inst:   71000001 cyc:   36757340 now IPC :1.89941: AVG IPC :1.92867: L2-Pf-HR :0.98809: L2-HR :0.91862: (Sim:0h21m10s) 
CPU  0 inst:   72000001 cyc:   37362737 now IPC :1.65181: AVG IPC :1.92406: L2-Pf-HR :0.98816: L2-HR :0.91822: (Sim:0h21m29s) 
CPU  0 inst:   73000003 cyc:   37876772 now IPC :1.94540: AVG IPC :1.92436: L2-Pf-HR :0.98800: L2-HR :0.91837: (Sim:0h21m47s) 
CPU  0 inst:   74000002 cyc:   38383330 now IPC :1.97411: AVG IPC :1.92504: L2-Pf-HR :0.98785: L2-HR :0.91854: (Sim:0h22m4s) 
CPU  0 inst:   75000004 cyc:   38878253 now IPC :2.02052: AVG IPC :1.92628: L2-Pf-HR :0.98790: L2-HR :0.91881: (Sim:0h22m22s) 
CPU  0 inst:   76000005 cyc:   39405861 now IPC :1.89535: AVG IPC :1.92586: L2-Pf-HR :0.98796: L2-HR :0.91864: (Sim:0h22m40s) 
CPU  0 inst:   77000004 cyc:   40004043 now IPC :1.67173: AVG IPC :1.92196: L2-Pf-HR :0.98803: L2-HR :0.91826: (Sim:0h22m59s) 
CPU  0 inst:   78000000 cyc:   40494747 now IPC :2.03788: AVG IPC :1.92340: L2-Pf-HR :0.98815: L2-HR :0.91852: (Sim:0h23m16s) 
CPU  0 inst:   79000000 cyc:   40992225 now IPC :2.01014: AVG IPC :1.92448: L2-Pf-HR :0.98818: L2-HR :0.91876: (Sim:0h23m34s) 
CPU  0 inst:   80000004 cyc:   41502104 now IPC :1.96126: AVG IPC :1.92494: L2-Pf-HR :0.98805: L2-HR :0.91892: (Sim:0h23m52s) 
CPU  0 inst:   81000000 cyc:   42040477 now IPC :1.85744: AVG IPC :1.92406: L2-Pf-HR :0.98811: L2-HR :0.91881: (Sim:0h24m10s) 
CPU  0 inst:   82000004 cyc:   42643580 now IPC :1.65810: AVG IPC :1.92021: L2-Pf-HR :0.98819: L2-HR :0.91842: (Sim:0h24m29s) 
CPU  0 inst:   83000000 cyc:   43153286 now IPC :1.96191: AVG IPC :1.92071: L2-Pf-HR :0.98803: L2-HR :0.91851: (Sim:0h24m47s) 
CPU  0 inst:   84000004 cyc:   43671504 now IPC :1.92970: AVG IPC :1.92082: L2-Pf-HR :0.98792: L2-HR :0.91866: (Sim:0h25m4s) 
CPU  0 inst:   85000001 cyc:   44177172 now IPC :1.97758: AVG IPC :1.92149: L2-Pf-HR :0.98789: L2-HR :0.91882: (Sim:0h25m22s) 
CPU  0 inst:   86000000 cyc:   44712681 now IPC :1.86738: AVG IPC :1.92082: L2-Pf-HR :0.98794: L2-HR :0.91877: (Sim:0h25m40s) 
CPU  0 inst:   87000004 cyc:   45295281 now IPC :1.71645: AVG IPC :1.91814: L2-Pf-HR :0.98800: L2-HR :0.91839: (Sim:0h25m59s) 
CPU  0 inst:   88000003 cyc:   45812099 now IPC :1.93492: AVG IPC :1.91833: L2-Pf-HR :0.98790: L2-HR :0.91845: (Sim:0h26m17s) 
CPU  0 inst:   89000002 cyc:   46326773 now IPC :1.94298: AVG IPC :1.91861: L2-Pf-HR :0.98780: L2-HR :0.91858: (Sim:0h26m34s) 
CPU  0 inst:   90000004 cyc:   46822189 now IPC :2.01851: AVG IPC :1.91969: L2-Pf-HR :0.98783: L2-HR :0.91882: (Sim:0h26m52s) 
CPU  0 inst:   91000000 cyc:   47357231 now IPC :1.86900: AVG IPC :1.91910: L2-Pf-HR :0.98785: L2-HR :0.91877: (Sim:0h27m10s) 
CPU  0 inst:   92000001 cyc:   47927336 now IPC :1.75406: AVG IPC :1.91710: L2-Pf-HR :0.98789: L2-HR :0.91835: (Sim:0h27m29s) 
CPU  0 inst:   93000003 cyc:   48431190 now IPC :1.98471: AVG IPC :1.91782: L2-Pf-HR :0.98784: L2-HR :0.91847: (Sim:0h27m46s) 
CPU  0 inst:   94000004 cyc:   48943054 now IPC :1.95365: AVG IPC :1.91820: L2-Pf-HR :0.98773: L2-HR :0.91861: (Sim:0h28m4s) 
CPU  0 inst:   95000004 cyc:   49445138 now IPC :1.99170: AVG IPC :1.91896: L2-Pf-HR :0.98777: L2-HR :0.91886: (Sim:0h28m22s) 
CPU  0 inst:   96000002 cyc:   49976187 now IPC :1.88306: AVG IPC :1.91857: L2-Pf-HR :0.98779: L2-HR :0.91883: (Sim:0h28m40s) 
CPU  0 inst:   97000001 cyc:   50539744 now IPC :1.77444: AVG IPC :1.91693: L2-Pf-HR :0.98781: L2-HR :0.91834: (Sim:0h28m58s) 
CPU  0 inst:   98000003 cyc:   51072302 now IPC :1.87773: AVG IPC :1.91652: L2-Pf-HR :0.98778: L2-HR :0.91847: (Sim:0h29m16s) 
CPU  0 inst:   99000002 cyc:   51579867 now IPC :1.97019: AVG IPC :1.91706: L2-Pf-HR :0.98767: L2-HR :0.91857: (Sim:0h29m34s) 
CPU  0 inst:  100000004 cyc:   52077860 now IPC :2.00806: AVG IPC :1.91794: L2-Pf-HR :0.98770: L2-HR :0.91882: (Sim:0h29m52s) 
CPU  0 inst:  101000000 cyc:   52606085 now IPC :1.89313: AVG IPC :1.91769: L2-Pf-HR :0.98773: L2-HR :0.91884: (Sim:0h30m10s) 
CPU  0 inst:  102000001 cyc:   53162442 now IPC :1.79741: AVG IPC :1.91641: L2-Pf-HR :0.98773: L2-HR :0.91831: (Sim:0h30m28s) 
CPU  0 inst:  103000003 cyc:   53733949 now IPC :1.74976: AVG IPC :1.91460: L2-Pf-HR :0.98772: L2-HR :0.91846: (Sim:0h30m46s) 
CPU  0 inst:  104000002 cyc:   54257299 now IPC :1.91077: AVG IPC :1.91456: L2-Pf-HR :0.98763: L2-HR :0.91856: (Sim:0h31m4s) 
CPU  0 inst:  105000004 cyc:   54767871 now IPC :1.95859: AVG IPC :1.91498: L2-Pf-HR :0.98768: L2-HR :0.91877: (Sim:0h31m22s) 
CPU  0 inst:  106000005 cyc:   55314805 now IPC :1.82838: AVG IPC :1.91411: L2-Pf-HR :0.98767: L2-HR :0.91886: (Sim:0h31m41s) 
CPU  0 inst:  107000000 cyc:   55805160 now IPC :2.03933: AVG IPC :1.91523: L2-Pf-HR :0.98766: L2-HR :0.91855: (Sim:0h31m58s) 
CPU  0 inst:  108000000 cyc:   56408874 now IPC :1.65641: AVG IPC :1.91241: L2-Pf-HR :0.98768: L2-HR :0.91845: (Sim:0h32m17s) 
CPU  0 inst:  109000002 cyc:   56926062 now IPC :1.93354: AVG IPC :1.91261: L2-Pf-HR :0.98758: L2-HR :0.91852: (Sim:0h32m35s) 
CPU  0 inst:  110000004 cyc:   57423244 now IPC :2.01134: AVG IPC :1.91347: L2-Pf-HR :0.98762: L2-HR :0.91877: (Sim:0h32m50s) 
CPU  0 inst:  111000003 cyc:   57967173 now IPC :1.83847: AVG IPC :1.91276: L2-Pf-HR :0.98771: L2-HR :0.91893: (Sim:0h33m6s) 
CPU  0 inst:  112000003 cyc:   58448680 now IPC :2.07681: AVG IPC :1.91413: L2-Pf-HR :0.98770: L2-HR :0.91863: (Sim:0h33m22s) 
CPU  0 inst:  113000000 cyc:   59065287 now IPC :1.62177: AVG IPC :1.91103: L2-Pf-HR :0.98772: L2-HR :0.91849: (Sim:0h33m40s) 
CPU  0 inst:  114000001 cyc:   59585537 now IPC :1.92215: AVG IPC :1.91113: L2-Pf-HR :0.98763: L2-HR :0.91857: (Sim:0h33m57s) 
CPU  0 inst:  115000004 cyc:   60098616 now IPC :1.94902: AVG IPC :1.91146: L2-Pf-HR :0.98761: L2-HR :0.91876: (Sim:0h34m14s) 
CPU  0 inst:  116000004 cyc:   60624478 now IPC :1.90164: AVG IPC :1.91137: L2-Pf-HR :0.98767: L2-HR :0.91895: (Sim:0h34m31s) 
CPU  0 inst:  117000000 cyc:   61101555 now IPC :2.09609: AVG IPC :1.91284: L2-Pf-HR :0.98767: L2-HR :0.91867: (Sim:0h34m47s) 
CPU  0 inst:  118000002 cyc:   61712550 now IPC :1.63668: AVG IPC :1.91006: L2-Pf-HR :0.98769: L2-HR :0.91850: (Sim:0h35m4s) 
CPU  0 inst:  119000005 cyc:   62221892 now IPC :1.96332: AVG IPC :1.91050: L2-Pf-HR :0.98759: L2-HR :0.91858: (Sim:0h35m20s) 
CPU  0 inst:  120000001 cyc:   62734793 now IPC :1.94969: AVG IPC :1.91083: L2-Pf-HR :0.98754: L2-HR :0.91873: (Sim:0h35m37s) 
CPU  0 inst:  121000004 cyc:   63247156 now IPC :1.95175: AVG IPC :1.91116: L2-Pf-HR :0.98760: L2-HR :0.91899: (Sim:0h35m54s) 
CPU  0 inst:  122000001 cyc:   63760508 now IPC :1.94798: AVG IPC :1.91146: L2-Pf-HR :0.98759: L2-HR :0.91867: (Sim:0h36m11s) 
CPU  0 inst:  123000000 cyc:   64356121 now IPC :1.67894: AVG IPC :1.90928: L2-Pf-HR :0.98761: L2-HR :0.91848: (Sim:0h36m29s) 
CPU  0 inst:  124000005 cyc:   64873632 now IPC :1.93234: AVG IPC :1.90947: L2-Pf-HR :0.98753: L2-HR :0.91854: (Sim:0h36m45s) 
CPU  0 inst:  125000001 cyc:   65376117 now IPC :1.99010: AVG IPC :1.91010: L2-Pf-HR :0.98753: L2-HR :0.91868: (Sim:0h37m1s) 
CPU  0 inst:  126000003 cyc:   65886263 now IPC :1.96023: AVG IPC :1.91049: L2-Pf-HR :0.98751: L2-HR :0.91883: (Sim:0h37m17s) 
CPU  0 inst:  127000000 cyc:   66415683 now IPC :1.88885: AVG IPC :1.91031: L2-Pf-HR :0.98755: L2-HR :0.91866: (Sim:0h37m35s) 
CPU  0 inst:  128000003 cyc:   67027020 now IPC :1.63576: AVG IPC :1.90777: L2-Pf-HR :0.98760: L2-HR :0.91845: (Sim:0h37m52s) 
CPU  0 inst:  129000005 cyc:   67513017 now IPC :2.05763: AVG IPC :1.90887: L2-Pf-HR :0.98766: L2-HR :0.91861: (Sim:0h38m9s) 
CPU  0 inst:  130000001 cyc:   68008440 now IPC :2.01847: AVG IPC :1.90968: L2-Pf-HR :0.98774: L2-HR :0.91879: (Sim:0h38m26s) 
CPU  0 inst:  131000005 cyc:   68513051 now IPC :1.98173: AVG IPC :1.91022: L2-Pf-HR :0.98766: L2-HR :0.91888: (Sim:0h38m41s) 
CPU  0 inst:  132000000 cyc:   69047542 now IPC :1.87093: AVG IPC :1.90991: L2-Pf-HR :0.98769: L2-HR :0.91876: (Sim:0h38m58s) 
CPU  0 inst:  133000005 cyc:   69643870 now IPC :1.67694: AVG IPC :1.90788: L2-Pf-HR :0.98774: L2-HR :0.91855: (Sim:0h39m15s) 
CPU  0 inst:  134000005 cyc:   70141004 now IPC :2.01153: AVG IPC :1.90863: L2-Pf-HR :0.98781: L2-HR :0.91871: (Sim:0h39m32s) 
CPU  0 inst:  135000001 cyc:   70631925 now IPC :2.03698: AVG IPC :1.90953: L2-Pf-HR :0.98783: L2-HR :0.91884: (Sim:0h39m49s) 
CPU  0 inst:  136000003 cyc:   71146870 now IPC :1.94196: AVG IPC :1.90977: L2-Pf-HR :0.98776: L2-HR :0.91893: (Sim:0h40m6s) 
CPU  0 inst:  137000003 cyc:   71675405 now IPC :1.89202: AVG IPC :1.90964: L2-Pf-HR :0.98780: L2-HR :0.91886: (Sim:0h40m23s) 
CPU  0 inst:  138000001 cyc:   72269447 now IPC :1.68338: AVG IPC :1.90775: L2-Pf-HR :0.98784: L2-HR :0.91862: (Sim:0h40m38s) 
CPU  0 inst:  139000005 cyc:   72779361 now IPC :1.96112: AVG IPC :1.90813: L2-Pf-HR :0.98776: L2-HR :0.91869: (Sim:0h40m54s) 
CPU  0 inst:  140000004 cyc:   73305586 now IPC :1.90033: AVG IPC :1.90808: L2-Pf-HR :0.98769: L2-HR :0.91876: (Sim:0h41m11s) 
CPU  0 inst:  141000003 cyc:   73822064 now IPC :1.93619: AVG IPC :1.90828: L2-Pf-HR :0.98767: L2-HR :0.91886: (Sim:0h41m28s) 
CPU  0 inst:  142000001 cyc:   74359021 now IPC :1.86234: AVG IPC :1.90794: L2-Pf-HR :0.98770: L2-HR :0.91882: (Sim:0h41m45s) 
CPU  0 inst:  143000000 cyc:   74947942 now IPC :1.69802: AVG IPC :1.90627: L2-Pf-HR :0.98773: L2-HR :0.91856: (Sim:0h42m3s) 
CPU  0 inst:  144000005 cyc:   75477877 now IPC :1.88703: AVG IPC :1.90613: L2-Pf-HR :0.98771: L2-HR :0.91863: (Sim:0h42m20s) 
CPU  0 inst:  145000001 cyc:   75996162 now IPC :1.92943: AVG IPC :1.90629: L2-Pf-HR :0.98766: L2-HR :0.91870: (Sim:0h42m37s) 
CPU  0 inst:  146000003 cyc:   76493013 now IPC :2.01268: AVG IPC :1.90699: L2-Pf-HR :0.98771: L2-HR :0.91887: (Sim:0h42m54s) 
CPU  0 inst:  147000005 cyc:   77034663 now IPC :1.84621: AVG IPC :1.90656: L2-Pf-HR :0.98773: L2-HR :0.91883: (Sim:0h43m10s) 
CPU  0 inst:  148000000 cyc:   77617926 now IPC :1.71448: AVG IPC :1.90510: L2-Pf-HR :0.98775: L2-HR :0.91855: (Sim:0h43m27s) 
CPU  0 inst:  149000005 cyc:   78135912 now IPC :1.93056: AVG IPC :1.90527: L2-Pf-HR :0.98772: L2-HR :0.91864: (Sim:0h43m44s) 
CPU  0 inst:  150000001 cyc:   78654910 now IPC :1.92678: AVG IPC :1.90541: L2-Pf-HR :0.98765: L2-HR :0.91871: (Sim:0h44m1s) 
CPU  0 inst:  151000000 cyc:   79169942 now IPC :1.94162: AVG IPC :1.90565: L2-Pf-HR :0.98763: L2-HR :0.91884: (Sim:0h44m18s) 
CPU  0 inst:  152000001 cyc:   79704684 now IPC :1.87006: AVG IPC :1.90541: L2-Pf-HR :0.98765: L2-HR :0.91882: (Sim:0h44m35s) 
CPU  0 inst:  153000003 cyc:   80277613 now IPC :1.74542: AVG IPC :1.90425: L2-Pf-HR :0.98766: L2-HR :0.91852: (Sim:0h44m53s) 
CPU  0 inst:  154000005 cyc:   80805552 now IPC :1.89416: AVG IPC :1.90419: L2-Pf-HR :0.98765: L2-HR :0.91859: (Sim:0h45m8s) 
CPU  0 inst:  155000001 cyc:   81314649 now IPC :1.96425: AVG IPC :1.90457: L2-Pf-HR :0.98758: L2-HR :0.91865: (Sim:0h45m24s) 
CPU  0 inst:  156000005 cyc:   81812638 now IPC :2.00808: AVG IPC :1.90520: L2-Pf-HR :0.98761: L2-HR :0.91882: (Sim:0h45m41s) 
CPU  0 inst:  157000005 cyc:   82350854 now IPC :1.85799: AVG IPC :1.90489: L2-Pf-HR :0.98766: L2-HR :0.91886: (Sim:0h45m59s) 
CPU  0 inst:  158000000 cyc:   82896189 now IPC :1.83373: AVG IPC :1.90442: L2-Pf-HR :0.98765: L2-HR :0.91852: (Sim:0h46m16s) 
CPU  0 inst:  159000005 cyc:   83454861 now IPC :1.78997: AVG IPC :1.90364: L2-Pf-HR :0.98764: L2-HR :0.91860: (Sim:0h46m33s) 
CPU  0 inst:  160000001 cyc:   83980634 now IPC :1.90195: AVG IPC :1.90363: L2-Pf-HR :0.98757: L2-HR :0.91864: (Sim:0h46m50s) 
CPU  0 inst:  161000000 cyc:   84485567 now IPC :1.98046: AVG IPC :1.90410: L2-Pf-HR :0.98761: L2-HR :0.91879: (Sim:0h47m6s) 
CPU  0 inst:  162000002 cyc:   85022199 now IPC :1.86348: AVG IPC :1.90384: L2-Pf-HR :0.98767: L2-HR :0.91890: (Sim:0h47m23s) 
CPU  0 inst:  163000005 cyc:   85511413 now IPC :2.04410: AVG IPC :1.90465: L2-Pf-HR :0.98767: L2-HR :0.91870: (Sim:0h47m40s) 
CPU  0 inst:  164000002 cyc:   89755512 now IPC :0.23562: AVG IPC :1.82486: L2-Pf-HR :0.98746: L2-HR :0.90832: (Sim:0h48m23s) 
CPU  0 inst:  165000001 cyc:   94686175 now IPC :0.20281: AVG IPC :1.73951: L2-Pf-HR :0.98725: L2-HR :0.89804: (Sim:0h49m10s) 
CPU  0 inst:  166000003 cyc:   99768506 now IPC :0.19676: AVG IPC :1.66014: L2-Pf-HR :0.98703: L2-HR :0.88826: (Sim:0h49m59s) 
CPU  0 inst:  167000002 cyc:  104842534 now IPC :0.19708: AVG IPC :1.58866: L2-Pf-HR :0.98682: L2-HR :0.87896: (Sim:0h50m33s) 
CPU  0 inst:  168000001 cyc:  109477445 now IPC :0.21575: AVG IPC :1.53001: L2-Pf-HR :0.98655: L2-HR :0.87177: (Sim:0h50m54s) 
CPU  0 inst:  169000000 cyc:  112829521 now IPC :0.29832: AVG IPC :1.49310: L2-Pf-HR :0.98597: L2-HR :0.87041: (Sim:0h51m9s) 
CPU  0 inst:  170000000 cyc:  116182038 now IPC :0.29828: AVG IPC :1.45833: L2-Pf-HR :0.98540: L2-HR :0.86907: (Sim:0h51m24s) 
CPU  0 inst:  171000000 cyc:  119534188 now IPC :0.29832: AVG IPC :1.42553: L2-Pf-HR :0.98482: L2-HR :0.86773: (Sim:0h51m39s) 
CPU  0 inst:  172000001 cyc:  122888099 now IPC :0.29816: AVG IPC :1.39451: L2-Pf-HR :0.98425: L2-HR :0.86640: (Sim:0h51m54s) 
CPU  0 inst:  173000003 cyc:  126241728 now IPC :0.29819: AVG IPC :1.36516: L2-Pf-HR :0.98368: L2-HR :0.86508: (Sim:0h52m9s) 
CPU  0 inst:  174000002 cyc:  129593773 now IPC :0.29833: AVG IPC :1.33735: L2-Pf-HR :0.98310: L2-HR :0.86377: (Sim:0h52m24s) 
CPU  0 inst:  175000005 cyc:  132946416 now IPC :0.29827: AVG IPC :1.31095: L2-Pf-HR :0.98253: L2-HR :0.86246: (Sim:0h52m39s) 
CPU  0 inst:  176000001 cyc:  136299198 now IPC :0.29826: AVG IPC :1.28586: L2-Pf-HR :0.98196: L2-HR :0.86116: (Sim:0h52m54s) 
CPU  0 inst:  177000000 cyc:  139647886 now IPC :0.29862: AVG IPC :1.26202: L2-Pf-HR :0.98139: L2-HR :0.85987: (Sim:0h53m9s) 
CPU  0 inst:  178000000 cyc:  142997560 now IPC :0.29854: AVG IPC :1.23930: L2-Pf-HR :0.98082: L2-HR :0.85858: (Sim:0h53m23s) 
CPU  0 inst:  179000000 cyc:  146348914 now IPC :0.29839: AVG IPC :1.21760: L2-Pf-HR :0.98025: L2-HR :0.85730: (Sim:0h53m38s) 
CPU  0 inst:  180000001 cyc:  149696327 now IPC :0.29874: AVG IPC :1.19692: L2-Pf-HR :0.97968: L2-HR :0.85604: (Sim:0h53m53s) 
CPU  0 inst:  181000003 cyc:  153045026 now IPC :0.29862: AVG IPC :1.17714: L2-Pf-HR :0.97912: L2-HR :0.85477: (Sim:0h54m8s) 
CPU  0 inst:  182000003 cyc:  156392043 now IPC :0.29877: AVG IPC :1.15822: L2-Pf-HR :0.97855: L2-HR :0.85352: (Sim:0h54m23s) 
CPU  0 inst:  183000002 cyc:  159741707 now IPC :0.29854: AVG IPC :1.14008: L2-Pf-HR :0.97798: L2-HR :0.85227: (Sim:0h54m37s) 
CPU  0 inst:  184000004 cyc:  163091589 now IPC :0.29852: AVG IPC :1.12269: L2-Pf-HR :0.97742: L2-HR :0.85103: (Sim:0h54m52s) 
CPU  0 inst:  185000000 cyc:  166439516 now IPC :0.29869: AVG IPC :1.10602: L2-Pf-HR :0.97685: L2-HR :0.84979: (Sim:0h55m7s) 
CPU  0 inst:  186000004 cyc:  169786655 now IPC :0.29876: AVG IPC :1.09001: L2-Pf-HR :0.97629: L2-HR :0.84856: (Sim:0h55m22s) 
CPU  0 inst:  187000000 cyc:  173134072 now IPC :0.29874: AVG IPC :1.07463: L2-Pf-HR :0.97573: L2-HR :0.84734: (Sim:0h55m36s) 
CPU  0 inst:  188000001 cyc:  176485135 now IPC :0.29841: AVG IPC :1.05981: L2-Pf-HR :0.97516: L2-HR :0.84612: (Sim:0h55m51s) 
CPU  0 inst:  189000003 cyc:  179833424 now IPC :0.29866: AVG IPC :1.04556: L2-Pf-HR :0.97460: L2-HR :0.84492: (Sim:0h56m6s) 
CPU  0 inst:  190000003 cyc:  183182832 now IPC :0.29856: AVG IPC :1.03183: L2-Pf-HR :0.97404: L2-HR :0.84371: (Sim:0h56m21s) 
CPU  0 inst:  191000002 cyc:  186530647 now IPC :0.29870: AVG IPC :1.01860: L2-Pf-HR :0.97348: L2-HR :0.84252: (Sim:0h56m36s) 
CPU  0 inst:  192000002 cyc:  189877898 now IPC :0.29875: AVG IPC :1.00584: L2-Pf-HR :0.97292: L2-HR :0.84133: (Sim:0h56m50s) 
CPU  0 inst:  193000001 cyc:  193228617 now IPC :0.29844: AVG IPC :0.99351: L2-Pf-HR :0.97236: L2-HR :0.84015: (Sim:0h57m5s) 
CPU  0 inst:  194000002 cyc:  196575646 now IPC :0.29877: AVG IPC :0.98162: L2-Pf-HR :0.97180: L2-HR :0.83898: (Sim:0h57m20s) 
CPU  0 inst:  195000001 cyc:  199921529 now IPC :0.29887: AVG IPC :0.97014: L2-Pf-HR :0.97124: L2-HR :0.83781: (Sim:0h57m35s) 
CPU  0 inst:  196000002 cyc:  203269117 now IPC :0.29872: AVG IPC :0.95903: L2-Pf-HR :0.97069: L2-HR :0.83664: (Sim:0h57m49s) 
CPU  0 inst:  197000003 cyc:  206618563 now IPC :0.29856: AVG IPC :0.94827: L2-Pf-HR :0.97013: L2-HR :0.83549: (Sim:0h58m4s) 
CPU  0 inst:  198000003 cyc:  209967460 now IPC :0.29861: AVG IPC :0.93786: L2-Pf-HR :0.96957: L2-HR :0.83434: (Sim:0h58m19s) 
CPU  0 inst:  199000002 cyc:  213317683 now IPC :0.29849: AVG IPC :0.92777: L2-Pf-HR :0.96902: L2-HR :0.83319: (Sim:0h58m33s) 
CPU  0 inst:  200000002 cyc:  216667061 now IPC :0.29856: AVG IPC :0.91800: L2-Pf-HR :0.96846: L2-HR :0.83205: (Sim:0h58m48s) 
CPU  0 inst:  201000001 cyc:  220012782 now IPC :0.29889: AVG IPC :0.90855: L2-Pf-HR :0.96791: L2-HR :0.83092: (Sim:0h59m3s) 
CPU  0 inst:  202000000 cyc:  223364127 now IPC :0.29839: AVG IPC :0.89935: L2-Pf-HR :0.96736: L2-HR :0.82980: (Sim:0h59m18s) 
CPU  0 inst:  203000004 cyc:  226713067 now IPC :0.29860: AVG IPC :0.89044: L2-Pf-HR :0.96681: L2-HR :0.82868: (Sim:0h59m32s) 
CPU  0 inst:  204000005 cyc:  230060485 now IPC :0.29874: AVG IPC :0.88179: L2-Pf-HR :0.96625: L2-HR :0.82756: (Sim:0h59m47s) 
CPU  0 inst:  205000002 cyc:  233408347 now IPC :0.29870: AVG IPC :0.87339: L2-Pf-HR :0.96570: L2-HR :0.82645: (Sim:1h0m2s) 
CPU  0 inst:  206000003 cyc:  236757301 now IPC :0.29860: AVG IPC :0.86523: L2-Pf-HR :0.96515: L2-HR :0.82535: (Sim:1h0m16s) 
CPU  0 inst:  207000002 cyc:  240106992 now IPC :0.29853: AVG IPC :0.85729: L2-Pf-HR :0.96460: L2-HR :0.82425: (Sim:1h0m31s) 
CPU  0 inst:  208000002 cyc:  243455316 now IPC :0.29866: AVG IPC :0.84958: L2-Pf-HR :0.96405: L2-HR :0.82316: (Sim:1h0m45s) 
CPU  0 inst:  209000001 cyc:  246803111 now IPC :0.29870: AVG IPC :0.84207: L2-Pf-HR :0.96350: L2-HR :0.82208: (Sim:1h1m0s) 
CPU  0 inst:  210000000 cyc:  250150908 now IPC :0.29870: AVG IPC :0.83477: L2-Pf-HR :0.96295: L2-HR :0.82100: (Sim:1h1m14s) 
CPU  0 inst:  211000000 cyc:  253502239 now IPC :0.29839: AVG IPC :0.82765: L2-Pf-HR :0.96240: L2-HR :0.81992: (Sim:1h1m29s) 
CPU  0 inst:  212000000 cyc:  256848277 now IPC :0.29886: AVG IPC :0.82074: L2-Pf-HR :0.96185: L2-HR :0.81886: (Sim:1h1m44s) 
CPU  0 inst:  213000002 cyc:  260197460 now IPC :0.29858: AVG IPC :0.81399: L2-Pf-HR :0.96131: L2-HR :0.81779: (Sim:1h1m58s) 
CPU  0 inst:  214000003 cyc:  263544333 now IPC :0.29879: AVG IPC :0.80743: L2-Pf-HR :0.96076: L2-HR :0.81674: (Sim:1h2m13s) 
CPU  0 inst:  215000000 cyc:  266892176 now IPC :0.29870: AVG IPC :0.80102: L2-Pf-HR :0.96021: L2-HR :0.81568: (Sim:1h2m28s) 
CPU  0 inst:  216000002 cyc:  270238335 now IPC :0.29885: AVG IPC :0.79478: L2-Pf-HR :0.95967: L2-HR :0.81464: (Sim:1h2m42s) 
CPU  0 inst:  217000001 cyc:  273588097 now IPC :0.29853: AVG IPC :0.78868: L2-Pf-HR :0.95913: L2-HR :0.81360: (Sim:1h2m57s) 
CPU  0 inst:  218000000 cyc:  276935783 now IPC :0.29871: AVG IPC :0.78274: L2-Pf-HR :0.95858: L2-HR :0.81256: (Sim:1h3m12s) 
CPU  0 inst:  219000000 cyc:  280282915 now IPC :0.29876: AVG IPC :0.77694: L2-Pf-HR :0.95804: L2-HR :0.81153: (Sim:1h3m26s) 
CPU  0 inst:  220000000 cyc:  283632232 now IPC :0.29857: AVG IPC :0.77127: L2-Pf-HR :0.95750: L2-HR :0.81050: (Sim:1h3m41s) 
CPU  0 inst:  221000001 cyc:  286981685 now IPC :0.29856: AVG IPC :0.76573: L2-Pf-HR :0.95696: L2-HR :0.80948: (Sim:1h3m56s) 
CPU  0 inst:  222000003 cyc:  290329257 now IPC :0.29872: AVG IPC :0.76033: L2-Pf-HR :0.95641: L2-HR :0.80847: (Sim:1h4m11s) 
CPU  0 inst:  223000002 cyc:  293678711 now IPC :0.29856: AVG IPC :0.75505: L2-Pf-HR :0.95588: L2-HR :0.80746: (Sim:1h4m26s) 
CPU  0 inst:  224000001 cyc:  297025345 now IPC :0.29881: AVG IPC :0.74989: L2-Pf-HR :0.95533: L2-HR :0.80645: (Sim:1h4m40s) 
CPU  0 inst:  225000004 cyc:  300374421 now IPC :0.29859: AVG IPC :0.74484: L2-Pf-HR :0.95479: L2-HR :0.80545: (Sim:1h4m55s) 
CPU  0 inst:  226000000 cyc:  303725090 now IPC :0.29845: AVG IPC :0.73990: L2-Pf-HR :0.95426: L2-HR :0.80446: (Sim:1h5m22s) 
CPU  0 inst:  227000000 cyc:  307074026 now IPC :0.29860: AVG IPC :0.73507: L2-Pf-HR :0.95371: L2-HR :0.80347: (Sim:1h5m54s) 
CPU  0 inst:  228000000 cyc:  310421884 now IPC :0.29870: AVG IPC :0.73035: L2-Pf-HR :0.95318: L2-HR :0.80248: (Sim:1h6m20s) 
CPU  0 inst:  229000001 cyc:  313769139 now IPC :0.29875: AVG IPC :0.72573: L2-Pf-HR :0.95264: L2-HR :0.80150: (Sim:1h6m35s) 
CPU  0 inst:  230000003 cyc:  317116798 now IPC :0.29872: AVG IPC :0.72121: L2-Pf-HR :0.95210: L2-HR :0.80053: (Sim:1h6m50s) 
CPU  0 inst:  231000003 cyc:  320462457 now IPC :0.29889: AVG IPC :0.71679: L2-Pf-HR :0.95157: L2-HR :0.79956: (Sim:1h7m4s) 
CPU  0 inst:  232000002 cyc:  323812518 now IPC :0.29850: AVG IPC :0.71245: L2-Pf-HR :0.95103: L2-HR :0.79859: (Sim:1h7m19s) 
CPU  0 inst:  233000004 cyc:  324854557 now IPC :0.95966: AVG IPC :0.71324: L2-Pf-HR :0.95139: L2-HR :0.79900: (Sim:1h7m30s) 
CPU  0 inst:  234000000 cyc:  325409774 now IPC :1.80109: AVG IPC :0.71510: L2-Pf-HR :0.95199: L2-HR :0.80037: (Sim:1h7m38s) 
CPU  0 inst:  235000002 cyc:  325985031 now IPC :1.73836: AVG IPC :0.71692: L2-Pf-HR :0.95249: L2-HR :0.80164: (Sim:1h7m46s) 
CPU  0 inst:  236000003 cyc:  326501854 now IPC :1.93490: AVG IPC :0.71885: L2-Pf-HR :0.95312: L2-HR :0.80320: (Sim:1h7m55s) 
CPU  0 inst:  237000000 cyc:  327014931 now IPC :1.94902: AVG IPC :0.72078: L2-Pf-HR :0.95360: L2-HR :0.80439: (Sim:1h8m3s) 
CPU  0 inst:  238000003 cyc:  327671588 now IPC :1.52287: AVG IPC :0.72240: L2-Pf-HR :0.95396: L2-HR :0.80525: (Sim:1h8m11s) 
CPU  0 inst:  239000005 cyc:  328166423 now IPC :2.02088: AVG IPC :0.72436: L2-Pf-HR :0.95455: L2-HR :0.80663: (Sim:1h8m19s) 
CPU  0 inst:  240000001 cyc:  328813364 now IPC :1.54573: AVG IPC :0.72598: L2-Pf-HR :0.95495: L2-HR :0.80762: (Sim:1h8m28s) 
CPU  0 inst:  241000000 cyc:  329270672 now IPC :2.18671: AVG IPC :0.72802: L2-Pf-HR :0.95554: L2-HR :0.80910: (Sim:1h8m35s) 
CPU  0 inst:  242000004 cyc:  329837267 now IPC :1.76494: AVG IPC :0.72980: L2-Pf-HR :0.95602: L2-HR :0.81032: (Sim:1h8m44s) 
CPU  0 inst:  243000003 cyc:  330323491 now IPC :2.05666: AVG IPC :0.73176: L2-Pf-HR :0.95645: L2-HR :0.81150: (Sim:1h8m53s) 
CPU  0 inst:  244000004 cyc:  330954706 now IPC :1.58425: AVG IPC :0.73339: L2-Pf-HR :0.95682: L2-HR :0.81234: (Sim:1h9m9s) 
CPU  0 inst:  245000001 cyc:  331503036 now IPC :1.82371: AVG IPC :0.73520: L2-Pf-HR :0.95732: L2-HR :0.81359: (Sim:1h9m27s) 
CPU  0 inst:  246000000 cyc:  332093049 now IPC :1.69488: AVG IPC :0.73691: L2-Pf-HR :0.95769: L2-HR :0.81461: (Sim:1h9m45s) 
CPU  0 inst:  247000001 cyc:  332613772 now IPC :1.92041: AVG IPC :0.73877: L2-Pf-HR :0.95819: L2-HR :0.81598: (Sim:1h10m3s) 
CPU  0 inst:  248000000 cyc:  333123671 now IPC :1.96117: AVG IPC :0.74065: L2-Pf-HR :0.95856: L2-HR :0.81696: (Sim:1h10m20s) 
CPU  0 inst:  249000004 cyc:  333771860 now IPC :1.54277: AVG IPC :0.74221: L2-Pf-HR :0.95881: L2-HR :0.81766: (Sim:1h10m33s) 
CPU  0 inst:  250000002 cyc:  334255714 now IPC :2.06674: AVG IPC :0.74413: L2-Pf-HR :0.95927: L2-HR :0.81881: (Sim:1h10m41s) 
CPU  0 inst:  251000002 cyc:  334910349 now IPC :1.52757: AVG IPC :0.74567: L2-Pf-HR :0.95959: L2-HR :0.81967: (Sim:1h10m49s) 
CPU  0 inst:  252000001 cyc:  335372402 now IPC :2.16425: AVG IPC :0.74763: L2-Pf-HR :0.96005: L2-HR :0.82093: (Sim:1h10m57s) 
CPU  0 inst:  253000005 cyc:  335942890 now IPC :1.75289: AVG IPC :0.74934: L2-Pf-HR :0.96043: L2-HR :0.82199: (Sim:1h11m6s) 
CPU  0 inst:  254000000 cyc:  336437798 now IPC :2.02057: AVG IPC :0.75122: L2-Pf-HR :0.96080: L2-HR :0.82308: (Sim:1h11m14s) 
CPU  0 inst:  255000001 cyc:  337037404 now IPC :1.66776: AVG IPC :0.75285: L2-Pf-HR :0.96105: L2-HR :0.82371: (Sim:1h11m22s) 
CPU  0 inst:  256000003 cyc:  337589622 now IPC :1.81088: AVG IPC :0.75459: L2-Pf-HR :0.96146: L2-HR :0.82481: (Sim:1h11m30s) 
CPU  0 inst:  257000001 cyc:  338166040 now IPC :1.73485: AVG IPC :0.75626: L2-Pf-HR :0.96173: L2-HR :0.82560: (Sim:1h11m39s) 
CPU  0 inst:  258000005 cyc:  338684359 now IPC :1.92932: AVG IPC :0.75806: L2-Pf-HR :0.96217: L2-HR :0.82684: (Sim:1h11m47s) 
CPU  0 inst:  259000000 cyc:  339189915 now IPC :1.97801: AVG IPC :0.75989: L2-Pf-HR :0.96245: L2-HR :0.82766: (Sim:1h11m55s) 
CPU  0 inst:  260000004 cyc:  339808493 now IPC :1.61662: AVG IPC :0.76145: L2-Pf-HR :0.96265: L2-HR :0.82822: (Sim:1h12m3s) 
CPU  0 inst:  261000002 cyc:  340285950 now IPC :2.09443: AVG IPC :0.76333: L2-Pf-HR :0.96302: L2-HR :0.82921: (Sim:1h12m11s) 
CPU  0 inst:  262000000 cyc:  340925104 now IPC :1.56457: AVG IPC :0.76483: L2-Pf-HR :0.96327: L2-HR :0.82992: (Sim:1h12m20s) 
CPU  0 inst:  263000002 cyc:  341382827 now IPC :2.18473: AVG IPC :0.76674: L2-Pf-HR :0.96365: L2-HR :0.83101: (Sim:1h12m28s) 
CPU  0 inst:  264000004 cyc:  341929615 now IPC :1.82887: AVG IPC :0.76845: L2-Pf-HR :0.96397: L2-HR :0.83194: (Sim:1h12m36s) 
CPU  0 inst:  265000000 cyc:  342419009 now IPC :2.04334: AVG IPC :0.77027: L2-Pf-HR :0.96429: L2-HR :0.83293: (Sim:1h12m43s) 
CPU  0 inst:  266000000 cyc:  342972740 now IPC :1.80593: AVG IPC :0.77195: L2-Pf-HR :0.96445: L2-HR :0.83337: (Sim:1h12m52s) 
CPU  0 inst:  267000005 cyc:  343488661 now IPC :1.93829: AVG IPC :0.77371: L2-Pf-HR :0.96480: L2-HR :0.83435: (Sim:1h12m59s) 
CPU  0 inst:  268000005 cyc:  344033792 now IPC :1.83442: AVG IPC :0.77539: L2-Pf-HR :0.96500: L2-HR :0.83498: (Sim:1h13m7s) 
CPU  0 inst:  269000003 cyc:  344529510 now IPC :2.01727: AVG IPC :0.77718: L2-Pf-HR :0.96538: L2-HR :0.83609: (Sim:1h13m15s) 
CPU  0 inst:  270000002 cyc:  345025321 now IPC :2.01690: AVG IPC :0.77897: L2-Pf-HR :0.96560: L2-HR :0.83679: (Sim:1h13m23s) 
CPU  0 inst:  271000005 cyc:  345615615 now IPC :1.69408: AVG IPC :0.78054: L2-Pf-HR :0.96576: L2-HR :0.83726: (Sim:1h13m32s) 
CPU  0 inst:  272000003 cyc:  346092515 now IPC :2.09687: AVG IPC :0.78236: L2-Pf-HR :0.96606: L2-HR :0.83811: (Sim:1h13m40s) 
CPU  0 inst:  273000004 cyc:  346643734 now IPC :1.81416: AVG IPC :0.78400: L2-Pf-HR :0.96629: L2-HR :0.83879: (Sim:1h13m47s) 
CPU  0 inst:  274000000 cyc:  347146859 now IPC :1.98757: AVG IPC :0.78575: L2-Pf-HR :0.96657: L2-HR :0.83965: (Sim:1h13m56s) 
CPU  0 inst:  275000003 cyc:  347645369 now IPC :2.00598: AVG IPC :0.78751: L2-Pf-HR :0.96684: L2-HR :0.84054: (Sim:1h14m3s) 
CPU  0 inst:  276000004 cyc:  348152114 now IPC :1.97338: AVG IPC :0.78924: L2-Pf-HR :0.96709: L2-HR :0.84131: (Sim:1h14m11s) 
CPU  0 inst:  277000001 cyc:  348737428 now IPC :1.70848: AVG IPC :0.79078: L2-Pf-HR :0.96724: L2-HR :0.84171: (Sim:1h14m20s) 
CPU  0 inst:  278000004 cyc:  349254297 now IPC :1.93473: AVG IPC :0.79248: L2-Pf-HR :0.96755: L2-HR :0.84260: (Sim:1h14m28s) 
CPU  0 inst:  279000001 cyc:  349778151 now IPC :1.90892: AVG IPC :0.79416: L2-Pf-HR :0.96772: L2-HR :0.84311: (Sim:1h14m35s) 
CPU  0 inst:  280000001 cyc:  350253365 now IPC :2.10432: AVG IPC :0.79594: L2-Pf-HR :0.96804: L2-HR :0.84414: (Sim:1h14m43s) 
CPU  0 inst:  281000000 cyc:  350770345 now IPC :1.93431: AVG IPC :0.79762: L2-Pf-HR :0.96822: L2-HR :0.84471: (Sim:1h14m51s) 
CPU  0 inst:  282000003 cyc:  351290861 now IPC :1.92118: AVG IPC :0.79929: L2-Pf-HR :0.96839: L2-HR :0.84525: (Sim:1h14m59s) 
CPU  0 inst:  283000003 cyc:  351812662 now IPC :1.91644: AVG IPC :0.80095: L2-Pf-HR :0.96862: L2-HR :0.84589: (Sim:1h15m7s) 
CPU  0 inst:  284000003 cyc:  352338854 now IPC :1.90045: AVG IPC :0.80260: L2-Pf-HR :0.96885: L2-HR :0.84660: (Sim:1h15m14s) 
CPU  0 inst:  285000001 cyc:  352871904 now IPC :1.87599: AVG IPC :0.80423: L2-Pf-HR :0.96906: L2-HR :0.84725: (Sim:1h15m22s) 
CPU  0 inst:  286000002 cyc:  353366498 now IPC :2.02186: AVG IPC :0.80594: L2-Pf-HR :0.96930: L2-HR :0.84806: (Sim:1h15m30s) 
CPU  0 inst:  287000000 cyc:  353868502 now IPC :1.99201: AVG IPC :0.80762: L2-Pf-HR :0.96950: L2-HR :0.84870: (Sim:1h15m38s) 
CPU  0 inst:  288000003 cyc:  354457035 now IPC :1.69915: AVG IPC :0.80911: L2-Pf-HR :0.96963: L2-HR :0.84908: (Sim:1h15m46s) 
CPU  0 inst:  289000001 cyc:  354942984 now IPC :2.05783: AVG IPC :0.81082: L2-Pf-HR :0.96990: L2-HR :0.84992: (Sim:1h15m54s) 
CPU  0 inst:  290000005 cyc:  355514553 now IPC :1.74958: AVG IPC :0.81234: L2-Pf-HR :0.97001: L2-HR :0.85029: (Sim:1h16m2s) 
CPU  0 inst:  291000001 cyc:  355980390 now IPC :2.14667: AVG IPC :0.81409: L2-Pf-HR :0.97028: L2-HR :0.85117: (Sim:1h16m9s) 
CPU  0 inst:  292000003 cyc:  356507981 now IPC :1.89541: AVG IPC :0.81569: L2-Pf-HR :0.97046: L2-HR :0.85173: (Sim:1h16m17s) 
CPU  0 inst:  293000000 cyc:  356988587 now IPC :2.08070: AVG IPC :0.81740: L2-Pf-HR :0.97063: L2-HR :0.85232: (Sim:1h16m25s) 
CPU  0 inst:  294000003 cyc:  357548662 now IPC :1.78548: AVG IPC :0.81892: L2-Pf-HR :0.97078: L2-HR :0.85275: (Sim:1h16m33s) 
CPU  0 inst:  295000005 cyc:  358062216 now IPC :1.94722: AVG IPC :0.82054: L2-Pf-HR :0.97098: L2-HR :0.85340: (Sim:1h16m41s) 
CPU  0 inst:  296000001 cyc:  358599299 now IPC :1.86190: AVG IPC :0.82211: L2-Pf-HR :0.97113: L2-HR :0.85395: (Sim:1h16m49s) 
CPU  0 inst:  297000003 cyc:  359097168 now IPC :2.00856: AVG IPC :0.82376: L2-Pf-HR :0.97134: L2-HR :0.85468: (Sim:1h16m56s) 
CPU  0 inst:  298000001 cyc:  359599488 now IPC :1.99076: AVG IPC :0.82539: L2-Pf-HR :0.97151: L2-HR :0.85522: (Sim:1h17m4s) 
CPU  0 inst:  299000002 cyc:  360204528 now IPC :1.65278: AVG IPC :0.82678: L2-Pf-HR :0.97162: L2-HR :0.85554: (Sim:1h17m13s) 
CPU  0 inst:  300000005 cyc:  360697266 now IPC :2.02948: AVG IPC :0.82843: L2-Pf-HR :0.97183: L2-HR :0.85624: (Sim:1h17m21s) 
CPU  0 inst:  301000000 cyc:  361263643 now IPC :1.76560: AVG IPC :0.82990: L2-Pf-HR :0.97195: L2-HR :0.85661: (Sim:1h17m30s) 
CPU  0 inst:  302000005 cyc:  361718496 now IPC :2.19852: AVG IPC :0.83163: L2-Pf-HR :0.97216: L2-HR :0.85735: (Sim:1h17m37s) 
CPU  0 inst:  303000003 cyc:  362257172 now IPC :1.85640: AVG IPC :0.83316: L2-Pf-HR :0.97232: L2-HR :0.85789: (Sim:1h17m45s) 
CPU  0 inst:  304000002 cyc:  362738014 now IPC :2.07968: AVG IPC :0.83482: L2-Pf-HR :0.97247: L2-HR :0.85846: (Sim:1h17m53s) 
CPU  0 inst:  305000005 cyc:  363298536 now IPC :1.78406: AVG IPC :0.83628: L2-Pf-HR :0.97261: L2-HR :0.85882: (Sim:1h18m1s) 
CPU  0 inst:  306000000 cyc:  363829253 now IPC :1.88423: AVG IPC :0.83782: L2-Pf-HR :0.97279: L2-HR :0.85940: (Sim:1h18m9s) 
CPU  0 inst:  307000005 cyc:  364356687 now IPC :1.89598: AVG IPC :0.83935: L2-Pf-HR :0.97292: L2-HR :0.85987: (Sim:1h18m17s) 
CPU  0 inst:  308000004 cyc:  364854095 now IPC :2.01042: AVG IPC :0.84095: L2-Pf-HR :0.97311: L2-HR :0.86056: (Sim:1h18m25s) 
CPU  0 inst:  309000002 cyc:  365352489 now IPC :2.00644: AVG IPC :0.84255: L2-Pf-HR :0.97325: L2-HR :0.86103: (Sim:1h18m33s) 
CPU  0 inst:  310000003 cyc:  365928571 now IPC :1.73587: AVG IPC :0.84396: L2-Pf-HR :0.97333: L2-HR :0.86130: (Sim:1h18m42s) 
CPU  0 inst:  311000001 cyc:  366397156 now IPC :2.13408: AVG IPC :0.84561: L2-Pf-HR :0.97351: L2-HR :0.86188: (Sim:1h18m49s) 
CPU  0 inst:  312000004 cyc:  366994321 now IPC :1.67458: AVG IPC :0.84696: L2-Pf-HR :0.97362: L2-HR :0.86223: (Sim:1h18m58s) 
CPU  0 inst:  313000001 cyc:  367452144 now IPC :2.18424: AVG IPC :0.84864: L2-Pf-HR :0.97382: L2-HR :0.86292: (Sim:1h19m6s) 
CPU  0 inst:  314000001 cyc:  367993781 now IPC :1.84625: AVG IPC :0.85011: L2-Pf-HR :0.97396: L2-HR :0.86342: (Sim:1h19m14s) 
CPU  0 inst:  315000001 cyc:  368475399 now IPC :2.07633: AVG IPC :0.85171: L2-Pf-HR :0.97410: L2-HR :0.86397: (Sim:1h19m21s) 
CPU  0 inst:  316000000 cyc:  369036670 now IPC :1.78167: AVG IPC :0.85313: L2-Pf-HR :0.97420: L2-HR :0.86423: (Sim:1h19m30s) 
CPU  0 inst:  317000005 cyc:  369554903 now IPC :1.92964: AVG IPC :0.85465: L2-Pf-HR :0.97436: L2-HR :0.86477: (Sim:1h19m37s) 
CPU  0 inst:  318000000 cyc:  370079899 now IPC :1.90477: AVG IPC :0.85614: L2-Pf-HR :0.97445: L2-HR :0.86515: (Sim:1h19m46s) 
CPU  0 inst:  319000005 cyc:  370574760 now IPC :2.02078: AVG IPC :0.85770: L2-Pf-HR :0.97464: L2-HR :0.86581: (Sim:1h19m53s) 
CPU  0 inst:  320000000 cyc:  371071920 now IPC :2.01141: AVG IPC :0.85925: L2-Pf-HR :0.97476: L2-HR :0.86622: (Sim:1h20m1s) 
CPU  0 inst:  321000004 cyc:  371656657 now IPC :1.71018: AVG IPC :0.86059: L2-Pf-HR :0.97484: L2-HR :0.86646: (Sim:1h20m10s) 
CPU  0 inst:  322000002 cyc:  372126928 now IPC :2.12643: AVG IPC :0.86220: L2-Pf-HR :0.97499: L2-HR :0.86697: (Sim:1h20m18s) 
CPU  0 inst:  323000002 cyc:  372717773 now IPC :1.69249: AVG IPC :0.86352: L2-Pf-HR :0.97509: L2-HR :0.86728: (Sim:1h20m26s) 
CPU  0 inst:  324000003 cyc:  373171391 now IPC :2.20450: AVG IPC :0.86515: L2-Pf-HR :0.97525: L2-HR :0.86790: (Sim:1h20m34s) 
CPU  0 inst:  325000005 cyc:  373720044 now IPC :1.82265: AVG IPC :0.86656: L2-Pf-HR :0.97539: L2-HR :0.86834: (Sim:1h20m42s) 
CPU  0 inst:  326000003 cyc:  374204785 now IPC :2.06295: AVG IPC :0.86811: L2-Pf-HR :0.97553: L2-HR :0.86888: (Sim:1h20m50s) 
CPU  0 inst:  327000004 cyc:  374775029 now IPC :1.75364: AVG IPC :0.86946: L2-Pf-HR :0.97560: L2-HR :0.86909: (Sim:1h20m58s) 
CPU  0 inst:  328000004 cyc:  375304066 now IPC :1.89023: AVG IPC :0.87091: L2-Pf-HR :0.97576: L2-HR :0.86960: (Sim:1h21m6s) 
CPU  0 inst:  329000004 cyc:  375826683 now IPC :1.91345: AVG IPC :0.87236: L2-Pf-HR :0.97584: L2-HR :0.86991: (Sim:1h21m15s) 
CPU  0 inst:  330000003 cyc:  376322392 now IPC :2.01731: AVG IPC :0.87387: L2-Pf-HR :0.97601: L2-HR :0.87053: (Sim:1h21m23s) 
CPU  0 inst:  331000000 cyc:  376817751 now IPC :2.01873: AVG IPC :0.87538: L2-Pf-HR :0.97611: L2-HR :0.87090: (Sim:1h21m31s) 
CPU  0 inst:  332000005 cyc:  377394686 now IPC :1.73331: AVG IPC :0.87670: L2-Pf-HR :0.97618: L2-HR :0.87110: (Sim:1h21m39s) 
CPU  0 inst:  333000003 cyc:  377865823 now IPC :2.12252: AVG IPC :0.87825: L2-Pf-HR :0.97632: L2-HR :0.87157: (Sim:1h21m47s) 
CPU  0 inst:  334000002 cyc:  378443501 now IPC :1.73107: AVG IPC :0.87956: L2-Pf-HR :0.97641: L2-HR :0.87187: (Sim:1h21m55s) 
CPU  0 inst:  335000000 cyc:  378911217 now IPC :2.13805: AVG IPC :0.88112: L2-Pf-HR :0.97655: L2-HR :0.87239: (Sim:1h22m3s) 
CPU  0 inst:  336000000 cyc:  379424657 now IPC :1.94765: AVG IPC :0.88256: L2-Pf-HR :0.97667: L2-HR :0.87286: (Sim:1h22m10s) 
CPU  0 inst:  337000002 cyc:  379920042 now IPC :2.01864: AVG IPC :0.88405: L2-Pf-HR :0.97679: L2-HR :0.87331: (Sim:1h22m18s) 
CPU  0 inst:  338000000 cyc:  380498918 now IPC :1.72748: AVG IPC :0.88533: L2-Pf-HR :0.97686: L2-HR :0.87347: (Sim:1h22m26s) 
CPU  0 inst:  339000005 cyc:  381022505 now IPC :1.90991: AVG IPC :0.88675: L2-Pf-HR :0.97701: L2-HR :0.87396: (Sim:1h22m34s) 
CPU  0 inst:  340000005 cyc:  381541888 now IPC :1.92536: AVG IPC :0.88816: L2-Pf-HR :0.97709: L2-HR :0.87421: (Sim:1h22m42s) 
CPU  0 inst:  341000000 cyc:  382018565 now IPC :2.09785: AVG IPC :0.88968: L2-Pf-HR :0.97725: L2-HR :0.87484: (Sim:1h22m50s) 
CPU  0 inst:  342000004 cyc:  382527137 now IPC :1.96630: AVG IPC :0.89111: L2-Pf-HR :0.97733: L2-HR :0.87511: (Sim:1h22m58s) 
CPU  0 inst:  343000005 cyc:  383065735 now IPC :1.85667: AVG IPC :0.89247: L2-Pf-HR :0.97738: L2-HR :0.87535: (Sim:1h23m6s) 
CPU  0 inst:  344000003 cyc:  383574851 now IPC :1.96418: AVG IPC :0.89390: L2-Pf-HR :0.97749: L2-HR :0.87573: (Sim:1h23m14s) 
CPU  0 inst:  345000000 cyc:  384108864 now IPC :1.87261: AVG IPC :0.89526: L2-Pf-HR :0.97759: L2-HR :0.87611: (Sim:1h23m22s) 
CPU  0 inst:  346000004 cyc:  384624906 now IPC :1.93783: AVG IPC :0.89667: L2-Pf-HR :0.97769: L2-HR :0.87646: (Sim:1h23m30s) 
CPU  0 inst:  347000003 cyc:  385123404 now IPC :2.00602: AVG IPC :0.89811: L2-Pf-HR :0.97779: L2-HR :0.87692: (Sim:1h23m39s) 
CPU  0 inst:  348000004 cyc:  385632781 now IPC :1.96318: AVG IPC :0.89952: L2-Pf-HR :0.97789: L2-HR :0.87728: (Sim:1h23m48s) 
CPU  0 inst:  349000001 cyc:  386225510 now IPC :1.68711: AVG IPC :0.90073: L2-Pf-HR :0.97793: L2-HR :0.87744: (Sim:1h23m56s) 
CPU  0 inst:  350000000 cyc:  386712508 now IPC :2.05339: AVG IPC :0.90218: L2-Pf-HR :0.97807: L2-HR :0.87795: (Sim:1h24m6s) 
CPU  0 inst:  351000000 cyc:  387269734 now IPC :1.79460: AVG IPC :0.90347: L2-Pf-HR :0.97811: L2-HR :0.87811: (Sim:1h24m14s) 
CPU  0 inst:  352000004 cyc:  387738346 now IPC :2.13397: AVG IPC :0.90496: L2-Pf-HR :0.97825: L2-HR :0.87864: (Sim:1h24m22s) 
CPU  0 inst:  353000005 cyc:  388265226 now IPC :1.89797: AVG IPC :0.90631: L2-Pf-HR :0.97833: L2-HR :0.87893: (Sim:1h24m30s) 
CPU  0 inst:  354000000 cyc:  388748092 now IPC :2.07096: AVG IPC :0.90776: L2-Pf-HR :0.97841: L2-HR :0.87927: (Sim:1h24m38s) 
CPU  0 inst:  355000004 cyc:  389309907 now IPC :1.77995: AVG IPC :0.90902: L2-Pf-HR :0.97849: L2-HR :0.87950: (Sim:1h24m47s) 
CPU  0 inst:  356000002 cyc:  389829659 now IPC :1.92399: AVG IPC :0.91038: L2-Pf-HR :0.97859: L2-HR :0.87986: (Sim:1h24m54s) 
CPU  0 inst:  357000000 cyc:  390367838 now IPC :1.85811: AVG IPC :0.91169: L2-Pf-HR :0.97869: L2-HR :0.88018: (Sim:1h25m3s) 
CPU  0 inst:  358000002 cyc:  390863694 now IPC :2.01672: AVG IPC :0.91310: L2-Pf-HR :0.97880: L2-HR :0.88061: (Sim:1h25m11s) 
CPU  0 inst:  359000000 cyc:  391365766 now IPC :1.99174: AVG IPC :0.91448: L2-Pf-HR :0.97888: L2-HR :0.88092: (Sim:1h25m19s) 
CPU  0 inst:  360000003 cyc:  391956201 now IPC :1.69367: AVG IPC :0.91566: L2-Pf-HR :0.97892: L2-HR :0.88108: (Sim:1h25m27s) 
CPU  0 inst:  361000004 cyc:  392440023 now IPC :2.06688: AVG IPC :0.91708: L2-Pf-HR :0.97904: L2-HR :0.88150: (Sim:1h25m35s) 
CPU  0 inst:  362000001 cyc:  393005959 now IPC :1.76698: AVG IPC :0.91831: L2-Pf-HR :0.97909: L2-HR :0.88167: (Sim:1h25m43s) 
CPU  0 inst:  363000001 cyc:  393463653 now IPC :2.18487: AVG IPC :0.91979: L2-Pf-HR :0.97921: L2-HR :0.88215: (Sim:1h25m51s) 
CPU  0 inst:  364000005 cyc:  393999055 now IPC :1.86776: AVG IPC :0.92108: L2-Pf-HR :0.97929: L2-HR :0.88245: (Sim:1h26m0s) 
CPU  0 inst:  365000004 cyc:  394479896 now IPC :2.07969: AVG IPC :0.92249: L2-Pf-HR :0.97937: L2-HR :0.88279: (Sim:1h26m10s) 
CPU  0 inst:  366000005 cyc:  395038811 now IPC :1.78918: AVG IPC :0.92372: L2-Pf-HR :0.97942: L2-HR :0.88298: (Sim:1h26m20s) 
CPU  0 inst:  367000003 cyc:  395560901 now IPC :1.91537: AVG IPC :0.92504: L2-Pf-HR :0.97951: L2-HR :0.88331: (Sim:1h26m28s) 
CPU  0 inst:  368000004 cyc:  396098253 now IPC :1.86098: AVG IPC :0.92631: L2-Pf-HR :0.97957: L2-HR :0.88357: (Sim:1h26m36s) 
CPU  0 inst:  369000000 cyc:  396596495 now IPC :2.00705: AVG IPC :0.92767: L2-Pf-HR :0.97967: L2-HR :0.88399: (Sim:1h26m44s) 
CPU  0 inst:  370000001 cyc:  397097952 now IPC :1.99419: AVG IPC :0.92902: L2-Pf-HR :0.97974: L2-HR :0.88427: (Sim:1h26m51s) 
CPU  0 inst:  371000003 cyc:  397679227 now IPC :1.72036: AVG IPC :0.93018: L2-Pf-HR :0.97979: L2-HR :0.88440: (Sim:1h26m59s) 
CPU  0 inst:  372000000 cyc:  398151608 now IPC :2.11693: AVG IPC :0.93159: L2-Pf-HR :0.97989: L2-HR :0.88475: (Sim:1h27m7s) 
CPU  0 inst:  373000005 cyc:  398737567 now IPC :1.70661: AVG IPC :0.93273: L2-Pf-HR :0.97994: L2-HR :0.88493: (Sim:1h27m15s) 
CPU  0 inst:  374000000 cyc:  399190755 now IPC :2.20658: AVG IPC :0.93418: L2-Pf-HR :0.98005: L2-HR :0.88536: (Sim:1h27m23s) 
CPU  0 inst:  375000003 cyc:  399736461 now IPC :1.83249: AVG IPC :0.93541: L2-Pf-HR :0.98012: L2-HR :0.88565: (Sim:1h27m31s) 
CPU  0 inst:  376000001 cyc:  400218293 now IPC :2.07541: AVG IPC :0.93679: L2-Pf-HR :0.98020: L2-HR :0.88599: (Sim:1h27m38s) 
CPU  0 inst:  377000003 cyc:  400788855 now IPC :1.75266: AVG IPC :0.93795: L2-Pf-HR :0.98024: L2-HR :0.88612: (Sim:1h27m47s) 
CPU  0 inst:  378000005 cyc:  401313896 now IPC :1.90462: AVG IPC :0.93922: L2-Pf-HR :0.98033: L2-HR :0.88644: (Sim:1h27m55s) 
CPU  0 inst:  379000005 cyc:  401835036 now IPC :1.91887: AVG IPC :0.94049: L2-Pf-HR :0.98037: L2-HR :0.88666: (Sim:1h28m3s) 
CPU  0 inst:  380000001 cyc:  402332453 now IPC :2.01038: AVG IPC :0.94182: L2-Pf-HR :0.98047: L2-HR :0.88707: (Sim:1h28m13s) 
CPU  0 inst:  381000002 cyc:  402829514 now IPC :2.01183: AVG IPC :0.94314: L2-Pf-HR :0.98053: L2-HR :0.88732: (Sim:1h28m29s) 
CPU  0 inst:  382000003 cyc:  403403435 now IPC :1.74240: AVG IPC :0.94428: L2-Pf-HR :0.98057: L2-HR :0.88743: (Sim:1h28m46s) 
CPU  0 inst:  383000001 cyc:  403873832 now IPC :2.12586: AVG IPC :0.94566: L2-Pf-HR :0.98065: L2-HR :0.88776: (Sim:1h29m2s) 
CPU  0 inst:  384000000 cyc:  404468087 now IPC :1.68278: AVG IPC :0.94675: L2-Pf-HR :0.98071: L2-HR :0.88792: (Sim:1h29m19s) 
CPU  0 inst:  385000004 cyc:  404923082 now IPC :2.19784: AVG IPC :0.94816: L2-Pf-HR :0.98080: L2-HR :0.88831: (Sim:1h29m35s) 
CPU  0 inst:  386000001 cyc:  405468212 now IPC :1.83442: AVG IPC :0.94935: L2-Pf-HR :0.98087: L2-HR :0.88858: (Sim:1h29m52s) 
CPU  0 inst:  387000002 cyc:  405951291 now IPC :2.07006: AVG IPC :0.95069: L2-Pf-HR :0.98095: L2-HR :0.88892: (Sim:1h30m8s) 
CPU  0 inst:  388000001 cyc:  406512642 now IPC :1.78141: AVG IPC :0.95184: L2-Pf-HR :0.98099: L2-HR :0.88902: (Sim:1h30m25s) 
CPU  0 inst:  389000003 cyc:  407034702 now IPC :1.91549: AVG IPC :0.95308: L2-Pf-HR :0.98107: L2-HR :0.88934: (Sim:1h30m41s) 
CPU  0 inst:  390000003 cyc:  407574976 now IPC :1.85091: AVG IPC :0.95427: L2-Pf-HR :0.98112: L2-HR :0.88952: (Sim:1h30m58s) 
CPU  0 inst:  391000005 cyc:  408073195 now IPC :2.00715: AVG IPC :0.95556: L2-Pf-HR :0.98121: L2-HR :0.88991: (Sim:1h31m14s) 
CPU  0 inst:  392000002 cyc:  408570267 now IPC :2.01178: AVG IPC :0.95685: L2-Pf-HR :0.98127: L2-HR :0.89014: (Sim:1h31m30s) 
CPU  0 inst:  393000004 cyc:  409145778 now IPC :1.73759: AVG IPC :0.95795: L2-Pf-HR :0.98131: L2-HR :0.89024: (Sim:1h31m47s) 
CPU  0 inst:  394000002 cyc:  409617511 now IPC :2.11984: AVG IPC :0.95929: L2-Pf-HR :0.98139: L2-HR :0.89054: (Sim:1h32m3s) 
CPU  0 inst:  395000000 cyc:  410195957 now IPC :1.72877: AVG IPC :0.96038: L2-Pf-HR :0.98145: L2-HR :0.89068: (Sim:1h32m20s) 
CPU  0 inst:  396000005 cyc:  410654660 now IPC :2.18007: AVG IPC :0.96174: L2-Pf-HR :0.98154: L2-HR :0.89105: (Sim:1h32m37s) 
CPU  0 inst:  397000005 cyc:  411172568 now IPC :1.93084: AVG IPC :0.96297: L2-Pf-HR :0.98161: L2-HR :0.89133: (Sim:1h32m53s) 
CPU  0 inst:  398000002 cyc:  411659094 now IPC :2.05538: AVG IPC :0.96426: L2-Pf-HR :0.98168: L2-HR :0.89165: (Sim:1h33m9s) 
CPU  0 inst:  399000001 cyc:  412222590 now IPC :1.77463: AVG IPC :0.96537: L2-Pf-HR :0.98170: L2-HR :0.89170: (Sim:1h33m25s) 
CPU  0 inst:  400000000 cyc:  412737956 now IPC :1.94037: AVG IPC :0.96659: L2-Pf-HR :0.98178: L2-HR :0.89201: (Sim:1h33m42s) 
CPU  0 inst:  401000004 cyc:  413279139 now IPC :1.84781: AVG IPC :0.96775: L2-Pf-HR :0.98182: L2-HR :0.89215: (Sim:1h33m59s) 
CPU  0 inst:  402000004 cyc:  413770913 now IPC :2.03345: AVG IPC :0.96902: L2-Pf-HR :0.98191: L2-HR :0.89253: (Sim:1h34m15s) 
CPU  0 inst:  403000003 cyc:  414277299 now IPC :1.97478: AVG IPC :0.97025: L2-Pf-HR :0.98196: L2-HR :0.89272: (Sim:1h34m31s) 
CPU  0 inst:  404000005 cyc:  414853553 now IPC :1.73535: AVG IPC :0.97131: L2-Pf-HR :0.98198: L2-HR :0.89283: (Sim:1h34m48s) 
CPU  0 inst:  405000003 cyc:  415336164 now IPC :2.07206: AVG IPC :0.97260: L2-Pf-HR :0.98205: L2-HR :0.89310: (Sim:1h35m5s) 
CPU  0 inst:  406000002 cyc:  415888581 now IPC :1.81022: AVG IPC :0.97371: L2-Pf-HR :0.98210: L2-HR :0.89331: (Sim:1h35m21s) 
Finished CPU 0 instr: 404000000 cyc: 414907153 AVG IPC: 0.97371 (Sim time: 1h35m21s)

ChampSim completed all CPUs

[ROI Statistics]
Core_0_instructions 404000000
Core_0_cycles 414907153
Core_0_IPC 0.97371

Core_0_branch_prediction_accuracy 98.90148
Core_0_branch_MPKI 0.32729
Core_0_average_ROB_occupancy_at_mispredict 535.80835

Core_0_L1D_total_access 106523514
Core_0_L1D_total_hit 99050980 L1D_total_Hit Ratio: 0.92985
Core_0_L1D_total_miss 7472534
Core_0_L1D_loads 95327127
Core_0_L1D_load_hit 88454246 L1D_load_Hit Ratio: 0.92790
Core_0_L1D_load_miss 6872881
Core_0_L1D_RFOs 11196387
Core_0_L1D_RFO_hit 10596734 L1D_RFO_Hit Ratio: 0.94644
Core_0_L1D_RFO_miss 599653
Core_0_L1D_prefetches 0
Core_0_L1D_prefetch_hit 0 L1D_prefetch_Hit Ratio: -nan
Core_0_L1D_prefetch_miss 0
Core_0_L1D_writebacks 0
Core_0_L1D_writeback_hit 0 L1D_writeback_Hit Ratio: -nan
Core_0_L1D_writeback_miss 0
Core_0_L1D_prefetch_requested 0
Core_0_L1D_prefetch_issued 0
Core_0_L1D_prefetch_useful 0 L1D_Useful Ratio: -nan
Core_0_L1D_prefetch_useless 0
Core_0_L1D_prefetch_late 0
Core_0_L1D_average_miss_latency 93.58010

Core_0_L1I_total_access 59461662
Core_0_L1I_total_hit 59459727 L1I_total_Hit Ratio: 0.99997
Core_0_L1I_total_miss 1935
Core_0_L1I_loads 59461662
Core_0_L1I_load_hit 59459727 L1I_load_Hit Ratio: 0.99997
Core_0_L1I_load_miss 1935
Core_0_L1I_RFOs 0
Core_0_L1I_RFO_hit 0 L1I_RFO_Hit Ratio: -nan
Core_0_L1I_RFO_miss 0
Core_0_L1I_prefetches 0
Core_0_L1I_prefetch_hit 0 L1I_prefetch_Hit Ratio: -nan
Core_0_L1I_prefetch_miss 0
Core_0_L1I_writebacks 0
Core_0_L1I_writeback_hit 0 L1I_writeback_Hit Ratio: -nan
Core_0_L1I_writeback_miss 0
Core_0_L1I_prefetch_requested 0
Core_0_L1I_prefetch_issued 0
Core_0_L1I_prefetch_useful 0 L1I_Useful Ratio: -nan
Core_0_L1I_prefetch_useless 0
Core_0_L1I_prefetch_late 0
Core_0_L1I_average_miss_latency 259.82067

Core_0_L2C_total_access 27558788
Core_0_L2C_total_hit 24618404 L2C_total_Hit Ratio: 0.89331
Core_0_L2C_total_miss 2940384
Core_0_L2C_loads 6874741
Core_0_L2C_load_hit 4768183 L2C_load_Hit Ratio: 0.69358
Core_0_L2C_load_miss 2106558
Core_0_L2C_RFOs 599653
Core_0_L2C_RFO_hit 74859 L2C_RFO_Hit Ratio: 0.12484
Core_0_L2C_RFO_miss 524794
Core_0_L2C_prefetches 17264603
Core_0_L2C_prefetch_hit 16955577 L2C_prefetch_Hit Ratio: 0.98210
Core_0_L2C_prefetch_miss 309026
Core_0_L2C_writebacks 2819791
Core_0_L2C_writeback_hit 2819785 L2C_writeback_Hit Ratio: 1.00000
Core_0_L2C_writeback_miss 6
Core_0_L2C_prefetch_requested 41837269
Core_0_L2C_prefetch_issued 39337600
Core_0_L2C_prefetch_useful 311322 L2C_Useful Ratio: 0.00791
Core_0_L2C_prefetch_useless 138
Core_0_L2C_prefetch_late 409414
Core_0_L2C_average_miss_latency 199.92629

Core_0_LLC_total_access 10234623
Core_0_LLC_total_hit 7286282 LLC_total_Hit Ratio: 0.71192
Core_0_LLC_total_miss 2948341
Core_0_LLC_loads 1697166
Core_0_LLC_load_hit 783130 LLC_load_Hit Ratio: 0.46143
Core_0_LLC_load_miss 914036
Core_0_LLC_RFOs 524794
Core_0_LLC_RFO_hit 52 LLC_RFO_Hit Ratio: 0.00010
Core_0_LLC_RFO_miss 524742
Core_0_LLC_prefetches 6361991
Core_0_LLC_prefetch_hit 4856984 LLC_prefetch_Hit Ratio: 0.76344
Core_0_LLC_prefetch_miss 1505007
Core_0_LLC_writebacks 1650672
Core_0_LLC_writeback_hit 1646116 LLC_writeback_Hit Ratio: 0.99724
Core_0_LLC_writeback_miss 4556
Core_0_LLC_prefetch_requested 0
Core_0_LLC_prefetch_issued 0
Core_0_LLC_prefetch_useful 789965 LLC_Useful Ratio: inf
Core_0_LLC_prefetch_useless 700553
Core_0_LLC_prefetch_late 465576
Core_0_LLC_average_miss_latency 273.53610

Core_0_major_page_fault 0
Core_0_minor_page_fault 22520

 All Calls: 6909747
 Critical Calls: 6909747
------------------
Depth Distribution
------------------
depth 0: 0
depth 1: 6142557
depth 2: 5836864
depth 3: 5474077
depth 4: 5179508
depth 5: 4576254
depth 6: 3467097
depth 7: 2665065
depth 8: 2067725
depth 9: 1510769
depth 10: 1070498
depth 11: 678632
depth 12: 391878
depth 13: 178307
depth 14: 49774
depth 15: 48458
depth 16: 137
depth 17: 0
depth 18: 0
depth 19: 0
depth 20: 0
depth 21: 0
depth 22: 0
depth 23: 0
depth 24: 0
depth 25: 0
depth 26: 0
depth 27: 0
depth 28: 0
depth 29: 0
Total: 39337600
-----------------------------
-----------------------------
	Captured at Filter
-----------------------------
depth 0: 0
depth 1: 341791
depth 2: 321830
depth 3: 332478
depth 4: 262780
depth 5: 239089
depth 6: 185341
depth 7: 139017
depth 8: 101661
depth 9: 69349
depth 10: 38027
depth 11: 18642
depth 12: 7097
depth 13: 1585
depth 14: 205
depth 15: 242
depth 16: 3
depth 17: 0
depth 18: 0
depth 19: 0
depth 20: 0
depth 21: 0
depth 22: 0
depth 23: 0
depth 24: 0
depth 25: 0
depth 26: 0
depth 27: 0
depth 28: 0
depth 29: 0
-----------------------------
-----------------------------
		Lost at Page
-----------------------------
depth 0: 0
depth 1: 175441
depth 2: 262820
depth 3: 338699
depth 4: 383668
depth 5: 442455
depth 6: 446150
depth 7: 420963
depth 8: 378759
depth 9: 320140
depth 10: 246305
depth 11: 168272
depth 12: 101557
depth 13: 47372
depth 14: 13941
depth 15: 14920
depth 16: 7
depth 17: 0
depth 18: 0
depth 19: 0
depth 20: 0
depth 21: 0
depth 22: 0
depth 23: 0
depth 24: 0
depth 25: 0
depth 26: 0
depth 27: 0
depth 28: 0
depth 29: 0
-----------------------------
-----------------------------
	Lost due to PQ Size
-----------------------------
2499669
-----------------------------
ST read accesses: 6806421
ST write accesses: 68323
PT read accesses: 273008448
PT write accesses: 10181278
FILTER read accesses: 53544019
FILTER write accesses: 10560334
GHR read accesses: 23327964
GHR write accesses: 3752659
GHR counter read accesses: 230374464
GHR counter write accesses: 14734622
ST tag read accesses: 2683731928
ST tag write accesses: 71787374
Channel_0_RQ_row_buffer_hit 1551118
Channel_0_RQ_row_buffer_miss 1392667
Channel_0_WQ_row_buffer_hit 640989
Channel_0_WQ_row_buffer_miss 1002720
Channel_0_WQ_full 1971
Channel_0_dbus_congested 2364850

avg_congested_cycle 8

EzSearch AVG IPC :0.97371: L2-Pf-HR :0.98210 : L2-HR :0.89331 Uful:0.00791
     > Finished combination: TraceType=770-tot Sim:404000000 Prefetcher=L2spp_berti_src L1=no
