TRACE: [42000000]_FE_[OPT-350M]_[h16]_[s256]_[d64] Warmup: 2000000 NumTraces: 42000000
L1:ipcp:L2:ipcp
*************************************************
   ChampSim Multicore Out-of-Order Simulator
   Last compiled: Oct 27 2024 02:25:15
*************************************************

trace_0 770-tot_memTraces_v3/memTraces[42000000]_FE_[OPT-350M]_[h16]_[s256]_[d64].champsim.xz
MAIN.cc ln 751 stats print skipped
CPU  0 inst:    1000002 cyc:     499949 now IPC :2.00021: AVG IPC :2.00021: L2-Pf-HR :0.83530: L2-HR :0.73332: (Sim:0h0m21s) 
CPU  0 inst:    2000000 cyc:     987996 now IPC :2.04898: AVG IPC :2.02430: L2-Pf-HR :0.88972: L2-HR :0.78823: (Sim:0h0m43s) 

Warmup complete CPU  0 instructions:    2000002 cycles:     987997 (Simulation time: 0 hr 0 min 43 sec) 

CPU  0 inst:    3000003 cyc:    1594111 now IPC :1.64986: AVG IPC :1.64986: L2-Pf-HR :0.92459: L2-HR :0.80800: (Sim:0h1m1s) 
CPU  0 inst:    4000003 cyc:    2199664 now IPC :1.65138: AVG IPC :1.65062: L2-Pf-HR :0.92711: L2-HR :0.80793: (Sim:0h1m20s) 
CPU  0 inst:    5000005 cyc:    2801942 now IPC :1.66037: AVG IPC :1.65386: L2-Pf-HR :0.92803: L2-HR :0.80865: (Sim:0h1m38s) 
CPU  0 inst:    6000000 cyc:    3407928 now IPC :1.65019: AVG IPC :1.65294: L2-Pf-HR :0.92785: L2-HR :0.80935: (Sim:0h1m56s) 
CPU  0 inst:    7000002 cyc:    4006978 now IPC :1.66931: AVG IPC :1.65619: L2-Pf-HR :0.92722: L2-HR :0.81001: (Sim:0h2m15s) 
CPU  0 inst:    8000003 cyc:    4609827 now IPC :1.65879: AVG IPC :1.65662: L2-Pf-HR :0.92675: L2-HR :0.80911: (Sim:0h2m30s) 
CPU  0 inst:    9000005 cyc:    5208983 now IPC :1.66902: AVG IPC :1.65838: L2-Pf-HR :0.92657: L2-HR :0.80915: (Sim:0h2m38s) 
CPU  0 inst:   10000005 cyc:    5815549 now IPC :1.64863: AVG IPC :1.65716: L2-Pf-HR :0.92686: L2-HR :0.80914: (Sim:0h2m46s) 
CPU  0 inst:   11000002 cyc:    6422999 now IPC :1.64622: AVG IPC :1.65593: L2-Pf-HR :0.92749: L2-HR :0.80924: (Sim:0h2m55s) 
CPU  0 inst:   12000001 cyc:    7023892 now IPC :1.66419: AVG IPC :1.65675: L2-Pf-HR :0.92734: L2-HR :0.80907: (Sim:0h3m3s) 
CPU  0 inst:   13000005 cyc:    7631371 now IPC :1.64615: AVG IPC :1.65579: L2-Pf-HR :0.92754: L2-HR :0.80919: (Sim:0h3m11s) 
CPU  0 inst:   14000001 cyc:    8232942 now IPC :1.66231: AVG IPC :1.65633: L2-Pf-HR :0.92742: L2-HR :0.80934: (Sim:0h3m19s) 
CPU  0 inst:   15000000 cyc:    8837500 now IPC :1.65410: AVG IPC :1.65616: L2-Pf-HR :0.92692: L2-HR :0.80908: (Sim:0h3m28s) 
CPU  0 inst:   16000002 cyc:    9439689 now IPC :1.66061: AVG IPC :1.65647: L2-Pf-HR :0.92747: L2-HR :0.80943: (Sim:0h3m37s) 
CPU  0 inst:   17000002 cyc:   10070418 now IPC :1.58547: AVG IPC :1.65154: L2-Pf-HR :0.92687: L2-HR :0.80858: (Sim:0h3m46s) 
CPU  0 inst:   18000000 cyc:   11549236 now IPC :0.67621: AVG IPC :1.51497: L2-Pf-HR :0.84770: L2-HR :0.74737: (Sim:0h4m0s) 
CPU  0 inst:   19000000 cyc:   14515800 now IPC :0.33709: AVG IPC :1.25667: L2-Pf-HR :0.82280: L2-HR :0.73862: (Sim:0h4m15s) 
CPU  0 inst:   20000000 cyc:   17482372 now IPC :0.33709: AVG IPC :1.09128: L2-Pf-HR :0.79912: L2-HR :0.72965: (Sim:0h4m28s) 
CPU  0 inst:   21000000 cyc:   20449046 now IPC :0.33708: AVG IPC :0.97631: L2-Pf-HR :0.77782: L2-HR :0.72121: (Sim:0h4m41s) 
CPU  0 inst:   22000000 cyc:   23415744 now IPC :0.33708: AVG IPC :0.89175: L2-Pf-HR :0.75922: L2-HR :0.71361: (Sim:0h4m54s) 
CPU  0 inst:   23000000 cyc:   26382413 now IPC :0.33708: AVG IPC :0.82695: L2-Pf-HR :0.74277: L2-HR :0.70665: (Sim:0h5m7s) 
CPU  0 inst:   24000000 cyc:   29349051 now IPC :0.33708: AVG IPC :0.77571: L2-Pf-HR :0.72803: L2-HR :0.70026: (Sim:0h5m20s) 
CPU  0 inst:   25000000 cyc:   32317956 now IPC :0.33682: AVG IPC :0.73412: L2-Pf-HR :0.71427: L2-HR :0.69408: (Sim:0h5m33s) 
CPU  0 inst:   26000001 cyc:   35056295 now IPC :0.36519: AVG IPC :0.70447: L2-Pf-HR :0.70076: L2-HR :0.68734: (Sim:0h5m45s) 
CPU  0 inst:   27000000 cyc:   35621474 now IPC :1.76935: AVG IPC :0.72184: L2-Pf-HR :0.70612: L2-HR :0.69055: (Sim:0h5m55s) 
CPU  0 inst:   28000004 cyc:   36170700 now IPC :1.82075: AVG IPC :0.73900: L2-Pf-HR :0.71117: L2-HR :0.69372: (Sim:0h6m4s) 
CPU  0 inst:   29000004 cyc:   36728831 now IPC :1.79169: AVG IPC :0.75544: L2-Pf-HR :0.71662: L2-HR :0.69723: (Sim:0h6m13s) 
CPU  0 inst:   30000003 cyc:   37258460 now IPC :1.88811: AVG IPC :0.77198: L2-Pf-HR :0.72175: L2-HR :0.70075: (Sim:0h6m23s) 
CPU  0 inst:   31000005 cyc:   37814776 now IPC :1.79754: AVG IPC :0.78747: L2-Pf-HR :0.72583: L2-HR :0.70363: (Sim:0h6m33s) 
CPU  0 inst:   32000003 cyc:   38343878 now IPC :1.88999: AVG IPC :0.80309: L2-Pf-HR :0.72983: L2-HR :0.70657: (Sim:0h6m46s) 
CPU  0 inst:   33000002 cyc:   38884830 now IPC :1.84859: AVG IPC :0.81801: L2-Pf-HR :0.73333: L2-HR :0.70918: (Sim:0h6m56s) 
CPU  0 inst:   34000001 cyc:   39418642 now IPC :1.87332: AVG IPC :0.83267: L2-Pf-HR :0.73648: L2-HR :0.71161: (Sim:0h7m6s) 
CPU  0 inst:   35000005 cyc:   39954729 now IPC :1.86538: AVG IPC :0.84688: L2-Pf-HR :0.74025: L2-HR :0.71451: (Sim:0h7m16s) 
CPU  0 inst:   36000000 cyc:   40489414 now IPC :1.87025: AVG IPC :0.86073: L2-Pf-HR :0.74376: L2-HR :0.71732: (Sim:0h7m25s) 
CPU  0 inst:   37000000 cyc:   41027278 now IPC :1.85921: AVG IPC :0.87414: L2-Pf-HR :0.74659: L2-HR :0.71968: (Sim:0h7m46s) 
CPU  0 inst:   38000001 cyc:   41566762 now IPC :1.85362: AVG IPC :0.88716: L2-Pf-HR :0.74934: L2-HR :0.72200: (Sim:0h8m8s) 
CPU  0 inst:   39000004 cyc:   42104707 now IPC :1.85893: AVG IPC :0.89988: L2-Pf-HR :0.75170: L2-HR :0.72410: (Sim:0h8m22s) 
Finished CPU 0 instr: 37000002 cyc: 41116710 AVG IPC: 0.89988 (Sim time: 0h8m22s)

ChampSim completed all CPUs

[ROI Statistics]
Core_0_instructions 37000002
Core_0_cycles 41116710
Core_0_IPC 0.89988

Core_0_branch_prediction_accuracy 98.43855
Core_0_branch_MPKI 0.50535
Core_0_average_ROB_occupancy_at_mispredict 336.31116

Core_0_L1D_total_access 19146042
Core_0_L1D_total_hit 18602867 L1D_total_Hit Ratio: 0.97163
Core_0_L1D_total_miss 543175
Core_0_L1D_loads 10627284
Core_0_L1D_load_hit 10403297 L1D_load_Hit Ratio: 0.97892
Core_0_L1D_load_miss 223987
Core_0_L1D_RFOs 1163844
Core_0_L1D_RFO_hit 1122276 L1D_RFO_Hit Ratio: 0.96428
Core_0_L1D_RFO_miss 41568
Core_0_L1D_prefetches 7354914
Core_0_L1D_prefetch_hit 7077294 L1D_prefetch_Hit Ratio: 0.96225
Core_0_L1D_prefetch_miss 277620
Core_0_L1D_writebacks 0
Core_0_L1D_writeback_hit 0 L1D_writeback_Hit Ratio: -nan
Core_0_L1D_writeback_miss 0
Core_0_L1D_prefetch_requested 21099760
Core_0_L1D_prefetch_issued 10687381
Core_0_L1D_prefetch_useful 280269 L1D_Useful Ratio: 0.02622
Core_0_L1D_prefetch_useless 6686
Core_0_L1D_prefetch_late 33170
Core_0_L1D_average_miss_latency 783658.59858

Core_0_L1I_total_access 5434273
Core_0_L1I_total_hit 5432442 L1I_total_Hit Ratio: 0.99966
Core_0_L1I_total_miss 1831
Core_0_L1I_loads 5434273
Core_0_L1I_load_hit 5432442 L1I_load_Hit Ratio: 0.99966
Core_0_L1I_load_miss 1831
Core_0_L1I_RFOs 0
Core_0_L1I_RFO_hit 0 L1I_RFO_Hit Ratio: -nan
Core_0_L1I_RFO_miss 0
Core_0_L1I_prefetches 0
Core_0_L1I_prefetch_hit 0 L1I_prefetch_Hit Ratio: -nan
Core_0_L1I_prefetch_miss 0
Core_0_L1I_writebacks 0
Core_0_L1I_writeback_hit 0 L1I_writeback_Hit Ratio: -nan
Core_0_L1I_writeback_miss 0
Core_0_L1I_prefetch_requested 0
Core_0_L1I_prefetch_issued 0
Core_0_L1I_prefetch_useful 0 L1I_Useful Ratio: -nan
Core_0_L1I_prefetch_useless 0
Core_0_L1I_prefetch_late 0
Core_0_L1I_average_miss_latency 200.76789

Core_0_L2C_total_access 1297440
Core_0_L2C_total_hit 939475 L2C_total_Hit Ratio: 0.72410
Core_0_L2C_total_miss 357965
Core_0_L2C_loads 192710
Core_0_L2C_load_hit 69564 L2C_load_Hit Ratio: 0.36098
Core_0_L2C_load_miss 123146
Core_0_L2C_RFOs 41563
Core_0_L2C_RFO_hit 11619 L2C_RFO_Hit Ratio: 0.27955
Core_0_L2C_RFO_miss 29944
Core_0_L2C_prefetches 825074
Core_0_L2C_prefetch_hit 620205 L2C_prefetch_Hit Ratio: 0.75170
Core_0_L2C_prefetch_miss 204869
Core_0_L2C_writebacks 238093
Core_0_L2C_writeback_hit 238087 L2C_writeback_Hit Ratio: 0.99997
Core_0_L2C_writeback_miss 6
Core_0_L2C_prefetch_requested 1193814
Core_0_L2C_prefetch_issued 1173485
Core_0_L2C_prefetch_useful 29508 L2C_Useful Ratio: 0.02515
Core_0_L2C_prefetch_useless 130396
Core_0_L2C_prefetch_late 12759
Core_0_L2C_average_miss_latency 129.62469

Core_0_LLC_total_access 552837
Core_0_LLC_total_hit 358876 LLC_total_Hit Ratio: 0.64915
Core_0_LLC_total_miss 193961
Core_0_LLC_loads 110465
Core_0_LLC_load_hit 34850 LLC_load_Hit Ratio: 0.31548
Core_0_LLC_load_miss 75615
Core_0_LLC_RFOs 29944
Core_0_LLC_RFO_hit 32 LLC_RFO_Hit Ratio: 0.00107
Core_0_LLC_RFO_miss 29912
Core_0_LLC_prefetches 217550
Core_0_LLC_prefetch_hit 129121 LLC_prefetch_Hit Ratio: 0.59352
Core_0_LLC_prefetch_miss 88429
Core_0_LLC_writebacks 194878
Core_0_LLC_writeback_hit 194873 LLC_writeback_Hit Ratio: 0.99997
Core_0_LLC_writeback_miss 5
Core_0_LLC_prefetch_requested 0
Core_0_LLC_prefetch_issued 0
Core_0_LLC_prefetch_useful 6300 LLC_Useful Ratio: inf
Core_0_LLC_prefetch_useless 26832
Core_0_LLC_prefetch_late 0
Core_0_LLC_average_miss_latency 166.30342

Core_0_major_page_fault 0
Core_0_minor_page_fault 3913


Channel_0_RQ_row_buffer_hit 162971
Channel_0_RQ_row_buffer_miss 30985
Channel_0_WQ_row_buffer_hit 19506
Channel_0_WQ_row_buffer_miss 21086
Channel_0_WQ_full 0
Channel_0_dbus_congested 81551

avg_congested_cycle 8

EzSearch AVG IPC :0.89988: L2-Pf-HR :0.75170 : L2-HR :0.72410 Uful:0.02515
     > Finished combination: TraceType=770-tot Sim:37000000 Prefetcher=L2ipcp L1=ipcp
