TRACE: [83000000][Pythia-70M]_[h8][s512][d64] Warmup: 2000000 NumTraces: 83000000
L1:isb_ideal:L2:isb_ideal
*************************************************
   ChampSim Multicore Out-of-Order Simulator
   Last compiled: Oct 20 2024 05:12:04
*************************************************

trace_0 770-tot_memTraces_v3/memTraces[83000000][Pythia-70M]_[h8][s512][d64].champsim.xz
L1D: Ideal ISB Prefetching
Ideal ISB Prefetching
MAIN.cc ln 751 stats print skipped
CPU  0 inst:    1000002 cyc:     503001 now IPC :1.98807: AVG IPC :1.98807: L2-Pf-HR :0.99113: L2-HR :0.87049: (Sim:0h0m5s) 
CPU  0 inst:    2000001 cyc:     978160 now IPC :2.10456: AVG IPC :2.04466: L2-Pf-HR :0.99058: L2-HR :0.89998: (Sim:0h0m10s) 

Warmup complete CPU  0 instructions:    2000001 cycles:     978160 (Simulation time: 0 hr 0 min 10 sec) 

CPU  0 inst:    3000002 cyc:    1726387 now IPC :1.33649: AVG IPC :1.33649: L2-Pf-HR :0.99076: L2-HR :0.93073: (Sim:0h0m14s) 
CPU  0 inst:    4000000 cyc:    2457905 now IPC :1.36702: AVG IPC :1.35158: L2-Pf-HR :0.98787: L2-HR :0.93689: (Sim:0h0m19s) 
CPU  0 inst:    5000000 cyc:    3266974 now IPC :1.23599: AVG IPC :1.31072: L2-Pf-HR :0.98401: L2-HR :0.93125: (Sim:0h0m24s) 
CPU  0 inst:    6000003 cyc:    4032563 now IPC :1.30619: AVG IPC :1.30959: L2-Pf-HR :0.98438: L2-HR :0.93157: (Sim:0h0m29s) 
CPU  0 inst:    7000000 cyc:    4796883 now IPC :1.30835: AVG IPC :1.30934: L2-Pf-HR :0.98446: L2-HR :0.93159: (Sim:0h0m34s) 
CPU  0 inst:    8000000 cyc:    5597209 now IPC :1.24949: AVG IPC :1.29897: L2-Pf-HR :0.98440: L2-HR :0.93313: (Sim:0h0m39s) 
CPU  0 inst:    9000002 cyc:    6476113 now IPC :1.13778: AVG IPC :1.27320: L2-Pf-HR :0.98335: L2-HR :0.93156: (Sim:0h0m44s) 
CPU  0 inst:   10000002 cyc:    7278829 now IPC :1.24577: AVG IPC :1.26971: L2-Pf-HR :0.98375: L2-HR :0.93177: (Sim:0h0m49s) 
CPU  0 inst:   11000001 cyc:    8081285 now IPC :1.24617: AVG IPC :1.26705: L2-Pf-HR :0.98392: L2-HR :0.93179: (Sim:0h0m54s) 
CPU  0 inst:   12000000 cyc:    8891847 now IPC :1.23371: AVG IPC :1.26363: L2-Pf-HR :0.98389: L2-HR :0.93243: (Sim:0h0m59s) 
CPU  0 inst:   13000000 cyc:    9763694 now IPC :1.14699: AVG IPC :1.25206: L2-Pf-HR :0.98329: L2-HR :0.93163: (Sim:0h1m4s) 
CPU  0 inst:   14000000 cyc:   10563372 now IPC :1.25050: AVG IPC :1.25193: L2-Pf-HR :0.98356: L2-HR :0.93171: (Sim:0h1m9s) 
CPU  0 inst:   15000003 cyc:   11365341 now IPC :1.24693: AVG IPC :1.25154: L2-Pf-HR :0.98370: L2-HR :0.93170: (Sim:0h1m14s) 
CPU  0 inst:   16000000 cyc:   12180677 now IPC :1.22648: AVG IPC :1.24972: L2-Pf-HR :0.98377: L2-HR :0.93204: (Sim:0h1m19s) 
CPU  0 inst:   17000002 cyc:   13051373 now IPC :1.14851: AVG IPC :1.24242: L2-Pf-HR :0.98332: L2-HR :0.93153: (Sim:0h1m24s) 
CPU  0 inst:   18000003 cyc:   13849345 now IPC :1.25318: AVG IPC :1.24309: L2-Pf-HR :0.98347: L2-HR :0.93148: (Sim:0h1m28s) 
CPU  0 inst:   19000002 cyc:   14644781 now IPC :1.25717: AVG IPC :1.24391: L2-Pf-HR :0.98358: L2-HR :0.93144: (Sim:0h1m32s) 
CPU  0 inst:   20000000 cyc:   15456424 now IPC :1.23207: AVG IPC :1.24324: L2-Pf-HR :0.98365: L2-HR :0.93165: (Sim:0h1m35s) 
CPU  0 inst:   21000000 cyc:   16328334 now IPC :1.14691: AVG IPC :1.23777: L2-Pf-HR :0.98334: L2-HR :0.93135: (Sim:0h1m39s) 
CPU  0 inst:   22000000 cyc:   17128656 now IPC :1.24950: AVG IPC :1.23835: L2-Pf-HR :0.98344: L2-HR :0.93133: (Sim:0h1m42s) 
CPU  0 inst:   23000000 cyc:   17921405 now IPC :1.26143: AVG IPC :1.23943: L2-Pf-HR :0.98354: L2-HR :0.93131: (Sim:0h1m45s) 
CPU  0 inst:   24000000 cyc:   18736964 now IPC :1.22615: AVG IPC :1.23882: L2-Pf-HR :0.98359: L2-HR :0.93138: (Sim:0h1m49s) 
CPU  0 inst:   25000002 cyc:   19609866 now IPC :1.14561: AVG IPC :1.23445: L2-Pf-HR :0.98341: L2-HR :0.93128: (Sim:0h1m52s) 
CPU  0 inst:   26000002 cyc:   20416937 now IPC :1.23905: AVG IPC :1.23465: L2-Pf-HR :0.98357: L2-HR :0.93132: (Sim:0h1m56s) 
CPU  0 inst:   27000002 cyc:   21225051 now IPC :1.23745: AVG IPC :1.23476: L2-Pf-HR :0.98366: L2-HR :0.93128: (Sim:0h1m59s) 
CPU  0 inst:   28000000 cyc:   22049656 now IPC :1.21270: AVG IPC :1.23389: L2-Pf-HR :0.98372: L2-HR :0.93128: (Sim:0h2m2s) 
CPU  0 inst:   29000000 cyc:   22911368 now IPC :1.16048: AVG IPC :1.23101: L2-Pf-HR :0.98354: L2-HR :0.93122: (Sim:0h2m6s) 
CPU  0 inst:   30000001 cyc:   23714651 now IPC :1.24489: AVG IPC :1.23150: L2-Pf-HR :0.98367: L2-HR :0.93124: (Sim:0h2m9s) 
CPU  0 inst:   31000001 cyc:   24509811 now IPC :1.25761: AVG IPC :1.23238: L2-Pf-HR :0.98375: L2-HR :0.93122: (Sim:0h2m13s) 
CPU  0 inst:   32000000 cyc:   25322173 now IPC :1.23098: AVG IPC :1.23234: L2-Pf-HR :0.98381: L2-HR :0.93117: (Sim:0h2m16s) 
CPU  0 inst:   33000000 cyc:   26188795 now IPC :1.15391: AVG IPC :1.22964: L2-Pf-HR :0.98402: L2-HR :0.93150: (Sim:0h2m20s) 
CPU  0 inst:   34000000 cyc:   32396780 now IPC :0.16108: AVG IPC :1.01850: L2-Pf-HR :0.98402: L2-HR :0.90604: (Sim:0h2m34s) 
CPU  0 inst:   35000001 cyc:   37921932 now IPC :0.18099: AVG IPC :0.89325: L2-Pf-HR :0.98402: L2-HR :0.89810: (Sim:0h2m43s) 
CPU  0 inst:   36000000 cyc:   43323563 now IPC :0.18513: AVG IPC :0.80292: L2-Pf-HR :0.98402: L2-HR :0.89447: (Sim:0h2m50s) 
CPU  0 inst:   37000002 cyc:   48418935 now IPC :0.19626: AVG IPC :0.73776: L2-Pf-HR :0.98402: L2-HR :0.89088: (Sim:0h3m0s) 
CPU  0 inst:   38000000 cyc:   53537421 now IPC :0.19537: AVG IPC :0.68494: L2-Pf-HR :0.98402: L2-HR :0.88734: (Sim:0h3m11s) 
CPU  0 inst:   39000000 cyc:   58695542 now IPC :0.19387: AVG IPC :0.64105: L2-Pf-HR :0.98402: L2-HR :0.88385: (Sim:0h3m22s) 
CPU  0 inst:   40000000 cyc:   63502220 now IPC :0.20804: AVG IPC :0.60777: L2-Pf-HR :0.98402: L2-HR :0.88040: (Sim:0h3m32s) 
CPU  0 inst:   41000001 cyc:   68394213 now IPC :0.20442: AVG IPC :0.57850: L2-Pf-HR :0.98402: L2-HR :0.87699: (Sim:0h3m43s) 
CPU  0 inst:   42000001 cyc:   73409034 now IPC :0.19941: AVG IPC :0.55225: L2-Pf-HR :0.98402: L2-HR :0.87362: (Sim:0h3m54s) 
CPU  0 inst:   43000001 cyc:   78458450 now IPC :0.19804: AVG IPC :0.52917: L2-Pf-HR :0.98402: L2-HR :0.87029: (Sim:0h4m4s) 
CPU  0 inst:   44000000 cyc:   83346267 now IPC :0.20459: AVG IPC :0.50991: L2-Pf-HR :0.98402: L2-HR :0.86701: (Sim:0h4m15s) 
CPU  0 inst:   45000002 cyc:   88326601 now IPC :0.20079: AVG IPC :0.49228: L2-Pf-HR :0.98402: L2-HR :0.86376: (Sim:0h4m26s) 
CPU  0 inst:   46000000 cyc:   93398333 now IPC :0.19717: AVG IPC :0.47609: L2-Pf-HR :0.98402: L2-HR :0.86056: (Sim:0h4m36s) 
CPU  0 inst:   47000000 cyc:   98482147 now IPC :0.19670: AVG IPC :0.46152: L2-Pf-HR :0.98402: L2-HR :0.85739: (Sim:0h4m47s) 
CPU  0 inst:   48000000 cyc:  103394006 now IPC :0.20359: AVG IPC :0.44915: L2-Pf-HR :0.98402: L2-HR :0.85426: (Sim:0h4m58s) 
CPU  0 inst:   49000000 cyc:  108639319 now IPC :0.19065: AVG IPC :0.43655: L2-Pf-HR :0.98402: L2-HR :0.85117: (Sim:0h5m9s) 
CPU  0 inst:   50000003 cyc:  113694509 now IPC :0.19782: AVG IPC :0.42585: L2-Pf-HR :0.98402: L2-HR :0.84811: (Sim:0h5m20s) 
CPU  0 inst:   51000001 cyc:  116140196 now IPC :0.40888: AVG IPC :0.42549: L2-Pf-HR :0.98425: L2-HR :0.84876: (Sim:0h5m29s) 
CPU  0 inst:   52000000 cyc:  117102848 now IPC :1.03880: AVG IPC :0.43057: L2-Pf-HR :0.98456: L2-HR :0.85184: (Sim:0h5m37s) 
CPU  0 inst:   53000002 cyc:  118116782 now IPC :0.98626: AVG IPC :0.43538: L2-Pf-HR :0.98480: L2-HR :0.85462: (Sim:0h5m44s) 
CPU  0 inst:   54000001 cyc:  119016972 now IPC :1.11088: AVG IPC :0.44053: L2-Pf-HR :0.98484: L2-HR :0.85718: (Sim:0h5m52s) 
CPU  0 inst:   55000002 cyc:  120063967 now IPC :0.95512: AVG IPC :0.44506: L2-Pf-HR :0.98506: L2-HR :0.85961: (Sim:0h6m0s) 
CPU  0 inst:   56000000 cyc:  121009726 now IPC :1.05735: AVG IPC :0.44988: L2-Pf-HR :0.98534: L2-HR :0.86210: (Sim:0h6m8s) 
CPU  0 inst:   57000001 cyc:  121979341 now IPC :1.03134: AVG IPC :0.45454: L2-Pf-HR :0.98556: L2-HR :0.86430: (Sim:0h6m16s) 
CPU  0 inst:   58000001 cyc:  122849050 now IPC :1.14981: AVG IPC :0.45950: L2-Pf-HR :0.98560: L2-HR :0.86639: (Sim:0h6m24s) 
CPU  0 inst:   59000000 cyc:  123727283 now IPC :1.13865: AVG IPC :0.46436: L2-Pf-HR :0.98575: L2-HR :0.86842: (Sim:0h6m32s) 
CPU  0 inst:   60000000 cyc:  124627713 now IPC :1.11058: AVG IPC :0.46907: L2-Pf-HR :0.98599: L2-HR :0.87049: (Sim:0h6m40s) 
CPU  0 inst:   61000002 cyc:  125582482 now IPC :1.04738: AVG IPC :0.47350: L2-Pf-HR :0.98620: L2-HR :0.87222: (Sim:0h6m48s) 
CPU  0 inst:   62000001 cyc:  126403581 now IPC :1.21788: AVG IPC :0.47837: L2-Pf-HR :0.98624: L2-HR :0.87403: (Sim:0h6m54s) 
CPU  0 inst:   63000002 cyc:  127259458 now IPC :1.16839: AVG IPC :0.48305: L2-Pf-HR :0.98636: L2-HR :0.87574: (Sim:0h7m0s) 
CPU  0 inst:   64000000 cyc:  128144080 now IPC :1.13042: AVG IPC :0.48755: L2-Pf-HR :0.98658: L2-HR :0.87749: (Sim:0h7m5s) 
CPU  0 inst:   65000003 cyc:  129079452 now IPC :1.06910: AVG IPC :0.49180: L2-Pf-HR :0.98677: L2-HR :0.87893: (Sim:0h7m11s) 
CPU  0 inst:   66000000 cyc:  129925707 now IPC :1.18167: AVG IPC :0.49633: L2-Pf-HR :0.98683: L2-HR :0.88046: (Sim:0h7m16s) 
CPU  0 inst:   67000003 cyc:  130718301 now IPC :1.26168: AVG IPC :0.50100: L2-Pf-HR :0.98687: L2-HR :0.88203: (Sim:0h7m22s) 
CPU  0 inst:   68000000 cyc:  131658293 now IPC :1.06384: AVG IPC :0.50505: L2-Pf-HR :0.98708: L2-HR :0.88340: (Sim:0h7m27s) 
CPU  0 inst:   69000000 cyc:  132579446 now IPC :1.08560: AVG IPC :0.50911: L2-Pf-HR :0.98727: L2-HR :0.88470: (Sim:0h7m32s) 
CPU  0 inst:   70000000 cyc:  133452393 now IPC :1.14554: AVG IPC :0.51331: L2-Pf-HR :0.98734: L2-HR :0.88595: (Sim:0h7m38s) 
CPU  0 inst:   71000002 cyc:  134241580 now IPC :1.26713: AVG IPC :0.51777: L2-Pf-HR :0.98737: L2-HR :0.88727: (Sim:0h7m43s) 
CPU  0 inst:   72000000 cyc:  135159319 now IPC :1.08963: AVG IPC :0.52168: L2-Pf-HR :0.98753: L2-HR :0.88845: (Sim:0h7m48s) 
CPU  0 inst:   73000002 cyc:  136085076 now IPC :1.08020: AVG IPC :0.52551: L2-Pf-HR :0.98771: L2-HR :0.88961: (Sim:0h7m54s) 
CPU  0 inst:   74000000 cyc:  136969437 now IPC :1.13076: AVG IPC :0.52945: L2-Pf-HR :0.98780: L2-HR :0.89069: (Sim:0h8m0s) 
CPU  0 inst:   75000003 cyc:  137775491 now IPC :1.24062: AVG IPC :0.53364: L2-Pf-HR :0.98780: L2-HR :0.89181: (Sim:0h8m5s) 
CPU  0 inst:   76000000 cyc:  138688736 now IPC :1.09499: AVG IPC :0.53736: L2-Pf-HR :0.98793: L2-HR :0.89280: (Sim:0h8m10s) 
CPU  0 inst:   77000003 cyc:  139613389 now IPC :1.08149: AVG IPC :0.54099: L2-Pf-HR :0.98809: L2-HR :0.89381: (Sim:0h8m16s) 
CPU  0 inst:   78000002 cyc:  140484208 now IPC :1.14834: AVG IPC :0.54478: L2-Pf-HR :0.98820: L2-HR :0.89480: (Sim:0h8m21s) 
CPU  0 inst:   79000000 cyc:  141291345 now IPC :1.23894: AVG IPC :0.54877: L2-Pf-HR :0.98818: L2-HR :0.89578: (Sim:0h8m27s) 
CPU  0 inst:   80000000 cyc:  142201528 now IPC :1.09868: AVG IPC :0.55232: L2-Pf-HR :0.98829: L2-HR :0.89660: (Sim:0h8m33s) 
Finished CPU 0 instr: 78000000 cyc: 141223406 AVG IPC: 0.55232 (Sim time: 0h8m33s)

ChampSim completed all CPUs

[ROI Statistics]
Core_0_instructions 78000000
Core_0_cycles 141223406
Core_0_IPC 0.55232

Core_0_branch_prediction_accuracy 99.16542
Core_0_branch_MPKI 0.25491
Core_0_average_ROB_occupancy_at_mispredict 231.23880

Core_0_L1D_total_access 23555827
Core_0_L1D_total_hit 20550007 L1D_total_Hit Ratio: 0.87240
Core_0_L1D_total_miss 3005820
Core_0_L1D_loads 21307675
Core_0_L1D_load_hit 18434220 L1D_load_Hit Ratio: 0.86514
Core_0_L1D_load_miss 2873455
Core_0_L1D_RFOs 2162044
Core_0_L1D_RFO_hit 2029679 L1D_RFO_Hit Ratio: 0.93878
Core_0_L1D_RFO_miss 132365
Core_0_L1D_prefetches 86108
Core_0_L1D_prefetch_hit 86108 L1D_prefetch_Hit Ratio: 1.00000
Core_0_L1D_prefetch_miss 0
Core_0_L1D_writebacks 0
Core_0_L1D_writeback_hit 0 L1D_writeback_Hit Ratio: -nan
Core_0_L1D_writeback_miss 0
Core_0_L1D_prefetch_requested 15617531
Core_0_L1D_prefetch_issued 4684826
Core_0_L1D_prefetch_useful 0 L1D_Useful Ratio: 0.00000
Core_0_L1D_prefetch_useless 0
Core_0_L1D_prefetch_late 0
Core_0_L1D_average_miss_latency 83.57220

Core_0_L1I_total_access 19685333
Core_0_L1I_total_hit 19680421 L1I_total_Hit Ratio: 0.99975
Core_0_L1I_total_miss 4912
Core_0_L1I_loads 19685333
Core_0_L1I_load_hit 19680421 L1I_load_Hit Ratio: 0.99975
Core_0_L1I_load_miss 4912
Core_0_L1I_RFOs 0
Core_0_L1I_RFO_hit 0 L1I_RFO_Hit Ratio: -nan
Core_0_L1I_RFO_miss 0
Core_0_L1I_prefetches 0
Core_0_L1I_prefetch_hit 0 L1I_prefetch_Hit Ratio: -nan
Core_0_L1I_prefetch_miss 0
Core_0_L1I_writebacks 0
Core_0_L1I_writeback_hit 0 L1I_writeback_Hit Ratio: -nan
Core_0_L1I_writeback_miss 0
Core_0_L1I_prefetch_requested 0
Core_0_L1I_prefetch_issued 0
Core_0_L1I_prefetch_useful 0 L1I_Useful Ratio: -nan
Core_0_L1I_prefetch_useless 0
Core_0_L1I_prefetch_late 0
Core_0_L1I_average_miss_latency 263.34304

Core_0_L2C_total_access 7760853
Core_0_L2C_total_hit 6958402 L2C_total_Hit Ratio: 0.89660
Core_0_L2C_total_miss 802451
Core_0_L2C_loads 2878367
Core_0_L2C_load_hit 2258375 L2C_load_Hit Ratio: 0.78460
Core_0_L2C_load_miss 619992
Core_0_L2C_RFOs 132365
Core_0_L2C_RFO_hit 808 L2C_RFO_Hit Ratio: 0.00610
Core_0_L2C_RFO_miss 131557
Core_0_L2C_prefetches 4258586
Core_0_L2C_prefetch_hit 4208700 L2C_prefetch_Hit Ratio: 0.98829
Core_0_L2C_prefetch_miss 49886
Core_0_L2C_writebacks 491535
Core_0_L2C_writeback_hit 490519 L2C_writeback_Hit Ratio: 0.99793
Core_0_L2C_writeback_miss 1016
Core_0_L2C_prefetch_requested 2468569
Core_0_L2C_prefetch_issued 42780
Core_0_L2C_prefetch_useful 51194 L2C_Useful Ratio: 1.19668
Core_0_L2C_prefetch_useless 86
Core_0_L2C_prefetch_late 472
Core_0_L2C_average_miss_latency 262.44674

Core_0_LLC_total_access 1293698
Core_0_LLC_total_hit 594122 LLC_total_Hit Ratio: 0.45924
Core_0_LLC_total_miss 699576
Core_0_LLC_loads 619520
Core_0_LLC_load_hit 51366 LLC_load_Hit Ratio: 0.08291
Core_0_LLC_load_miss 568154
Core_0_LLC_RFOs 131557
Core_0_LLC_RFO_hit 285 LLC_RFO_Hit Ratio: 0.00217
Core_0_LLC_RFO_miss 131272
Core_0_LLC_prefetches 69569
Core_0_LLC_prefetch_hit 69535 LLC_prefetch_Hit Ratio: 0.99951
Core_0_LLC_prefetch_miss 34
Core_0_LLC_writebacks 473052
Core_0_LLC_writeback_hit 472936 LLC_writeback_Hit Ratio: 0.99975
Core_0_LLC_writeback_miss 116
Core_0_LLC_prefetch_requested 0
Core_0_LLC_prefetch_issued 0
Core_0_LLC_prefetch_useful 9 LLC_Useful Ratio: inf
Core_0_LLC_prefetch_useless 24
Core_0_LLC_prefetch_late 1
Core_0_LLC_average_miss_latency 266.49405

Core_0_major_page_fault 0
Core_0_minor_page_fault 6067

CPU 0 L1D next line prefetcher final stats
Prefetcher final stats
Training Unit Size: 4828
Addr table size: 315042 315044


Triggers: 638910
No Prediction: 323435 50.62294
Stream end: 10705
No translation: 8341386 1305.56510
Predictions: 42780 6.69578


Stream divergence: 10664 1.66909
Stream divergence -- new stream: 0
Channel_0_RQ_row_buffer_hit 359479
Channel_0_RQ_row_buffer_miss 339981
Channel_0_WQ_row_buffer_hit 174717
Channel_0_WQ_row_buffer_miss 233384
Channel_0_WQ_full 0
Channel_0_dbus_congested 352645

avg_congested_cycle 11

EzSearch AVG IPC :0.55232: L2-Pf-HR :0.98829 : L2-HR :0.89660 Uful:1.19668
     > Finished combination: TraceType=770-tot Sim:78000000 Prefetcher=L2isb_ideal L1=isb_ideal
