TRACE: [597000000][OPT-6_7B]_[h32][s512][d128] Warmup: 2000000 NumTraces: 597000000
L1:bingo_dpc3:L2:bingo_dpc3
*************************************************
   ChampSim Multicore Out-of-Order Simulator
   Last compiled: Oct 26 2024 17:05:31
*************************************************

trace_0 770-tot_memTraces_v3/memTraces[597000000][OPT-6_7B]_[h32][s512][d128].champsim.xz
Bingo PHT WAYS: 16 and PHT_SIZE: 16384
Bingo2 PHT WAYS: 16 and PHT_SIZE: 16384
MAIN.cc ln 751 stats print skipped
CPU  0 inst:    1000000 cyc:     498111 now IPC :2.00758: AVG IPC :2.00758: L2-Pf-HR :0.73659: L2-HR :0.62317: (Sim:0h0m7s) 
CPU  0 inst:    2000001 cyc:     982700 now IPC :2.06361: AVG IPC :2.03521: L2-Pf-HR :0.81891: L2-HR :0.72370: (Sim:0h0m16s) 

Warmup complete CPU  0 instructions:    2000001 cycles:     982700 (Simulation time: 0 hr 0 min 16 sec) 

CPU  0 inst:    3000003 cyc:    1534718 now IPC :1.81154: AVG IPC :1.81154: L2-Pf-HR :0.90271: L2-HR :0.83378: (Sim:0h0m23s) 
CPU  0 inst:    4000005 cyc:    2083816 now IPC :1.82117: AVG IPC :1.81634: L2-Pf-HR :0.90311: L2-HR :0.83621: (Sim:0h0m30s) 
CPU  0 inst:    5000003 cyc:    2633341 now IPC :1.81975: AVG IPC :1.81748: L2-Pf-HR :0.90260: L2-HR :0.83491: (Sim:0h0m37s) 
CPU  0 inst:    6000000 cyc:    3180382 now IPC :1.82801: AVG IPC :1.82010: L2-Pf-HR :0.90258: L2-HR :0.83473: (Sim:0h0m44s) 
CPU  0 inst:    7000000 cyc:    3729674 now IPC :1.82053: AVG IPC :1.82018: L2-Pf-HR :0.90154: L2-HR :0.84146: (Sim:0h0m51s) 
CPU  0 inst:    8000000 cyc:    4255863 now IPC :1.90046: AVG IPC :1.83309: L2-Pf-HR :0.90174: L2-HR :0.84342: (Sim:0h0m58s) 
CPU  0 inst:    9000002 cyc:    4840036 now IPC :1.71183: AVG IPC :1.81472: L2-Pf-HR :0.87539: L2-HR :0.82924: (Sim:0h1m6s) 
CPU  0 inst:   10000004 cyc:    5351109 now IPC :1.95667: AVG IPC :1.83133: L2-Pf-HR :0.88308: L2-HR :0.83857: (Sim:0h1m13s) 
CPU  0 inst:   11000000 cyc:    5873028 now IPC :1.91600: AVG IPC :1.84037: L2-Pf-HR :0.88833: L2-HR :0.84380: (Sim:0h1m20s) 
CPU  0 inst:   12000005 cyc:    6381805 now IPC :1.96551: AVG IPC :1.85216: L2-Pf-HR :0.88819: L2-HR :0.84586: (Sim:0h1m27s) 
CPU  0 inst:   13000004 cyc:    6895807 now IPC :1.94552: AVG IPC :1.86027: L2-Pf-HR :0.89249: L2-HR :0.84947: (Sim:0h1m34s) 
CPU  0 inst:   14000000 cyc:    7407154 now IPC :1.95561: AVG IPC :1.86786: L2-Pf-HR :0.89724: L2-HR :0.85368: (Sim:0h1m41s) 
CPU  0 inst:   15000003 cyc:    7959376 now IPC :1.81087: AVG IPC :1.86335: L2-Pf-HR :0.89848: L2-HR :0.85552: (Sim:0h1m48s) 
CPU  0 inst:   16000005 cyc:    8491816 now IPC :1.87815: AVG IPC :1.86440: L2-Pf-HR :0.89875: L2-HR :0.85565: (Sim:0h1m55s) 
CPU  0 inst:   17000002 cyc:    9069063 now IPC :1.73236: AVG IPC :1.85497: L2-Pf-HR :0.88724: L2-HR :0.84845: (Sim:0h2m2s) 
CPU  0 inst:   18000004 cyc:    9579361 now IPC :1.95964: AVG IPC :1.86119: L2-Pf-HR :0.88816: L2-HR :0.85042: (Sim:0h2m9s) 
CPU  0 inst:   19000001 cyc:   10088928 now IPC :1.96244: AVG IPC :1.86685: L2-Pf-HR :0.89092: L2-HR :0.85320: (Sim:0h2m16s) 
CPU  0 inst:   20000002 cyc:   10592887 now IPC :1.98429: AVG IPC :1.87301: L2-Pf-HR :0.89052: L2-HR :0.85420: (Sim:0h2m23s) 
CPU  0 inst:   21000004 cyc:   11105963 now IPC :1.94903: AVG IPC :1.87687: L2-Pf-HR :0.89228: L2-HR :0.85608: (Sim:0h2m30s) 
CPU  0 inst:   22000001 cyc:   11622802 now IPC :1.93483: AVG IPC :1.87968: L2-Pf-HR :0.89497: L2-HR :0.85845: (Sim:0h2m37s) 
CPU  0 inst:   23000003 cyc:   12169164 now IPC :1.83029: AVG IPC :1.87727: L2-Pf-HR :0.89595: L2-HR :0.85941: (Sim:0h2m44s) 
CPU  0 inst:   24000002 cyc:   12693925 now IPC :1.90563: AVG IPC :1.87854: L2-Pf-HR :0.89613: L2-HR :0.85924: (Sim:0h2m50s) 
CPU  0 inst:   25000005 cyc:   13273062 now IPC :1.72671: AVG IPC :1.87139: L2-Pf-HR :0.88955: L2-HR :0.85482: (Sim:0h2m58s) 
CPU  0 inst:   26000001 cyc:   13787476 now IPC :1.94395: AVG IPC :1.87430: L2-Pf-HR :0.89016: L2-HR :0.85571: (Sim:0h3m6s) 
CPU  0 inst:   27000003 cyc:   14300040 now IPC :1.95098: AVG IPC :1.87725: L2-Pf-HR :0.89201: L2-HR :0.85742: (Sim:0h3m14s) 
CPU  0 inst:   28000003 cyc:   14811899 now IPC :1.95366: AVG IPC :1.88008: L2-Pf-HR :0.89270: L2-HR :0.85830: (Sim:0h3m21s) 
CPU  0 inst:   29000005 cyc:   15327907 now IPC :1.93796: AVG IPC :1.88216: L2-Pf-HR :0.89388: L2-HR :0.85923: (Sim:0h3m30s) 
CPU  0 inst:   30000003 cyc:   15847094 now IPC :1.92608: AVG IPC :1.88370: L2-Pf-HR :0.89488: L2-HR :0.86012: (Sim:0h3m38s) 
CPU  0 inst:   31000004 cyc:   16393606 now IPC :1.82979: AVG IPC :1.88178: L2-Pf-HR :0.89575: L2-HR :0.86081: (Sim:0h3m45s) 
CPU  0 inst:   32000001 cyc:   16918818 now IPC :1.90399: AVG IPC :1.88252: L2-Pf-HR :0.89586: L2-HR :0.86056: (Sim:0h3m52s) 
CPU  0 inst:   33000000 cyc:   17500601 now IPC :1.71885: AVG IPC :1.87675: L2-Pf-HR :0.89138: L2-HR :0.85743: (Sim:0h3m59s) 
CPU  0 inst:   34000005 cyc:   18020352 now IPC :1.92401: AVG IPC :1.87819: L2-Pf-HR :0.89203: L2-HR :0.85805: (Sim:0h4m6s) 
CPU  0 inst:   35000002 cyc:   18528213 now IPC :1.96904: AVG IPC :1.88082: L2-Pf-HR :0.89311: L2-HR :0.85910: (Sim:0h4m13s) 
CPU  0 inst:   36000001 cyc:   19047936 now IPC :1.92410: AVG IPC :1.88207: L2-Pf-HR :0.89315: L2-HR :0.85918: (Sim:0h4m20s) 
CPU  0 inst:   37000001 cyc:   19560098 now IPC :1.95251: AVG IPC :1.88401: L2-Pf-HR :0.89438: L2-HR :0.86013: (Sim:0h4m27s) 
CPU  0 inst:   38000000 cyc:   20077813 now IPC :1.93156: AVG IPC :1.88530: L2-Pf-HR :0.89530: L2-HR :0.86097: (Sim:0h4m34s) 
CPU  0 inst:   39000001 cyc:   20625433 now IPC :1.82609: AVG IPC :1.88365: L2-Pf-HR :0.89600: L2-HR :0.86148: (Sim:0h4m41s) 
CPU  0 inst:   40000004 cyc:   21154530 now IPC :1.89002: AVG IPC :1.88382: L2-Pf-HR :0.89610: L2-HR :0.86134: (Sim:0h4m48s) 
CPU  0 inst:   41000000 cyc:   21757541 now IPC :1.65834: AVG IPC :1.87727: L2-Pf-HR :0.89236: L2-HR :0.85869: (Sim:0h4m55s) 
CPU  0 inst:   42000001 cyc:   22283069 now IPC :1.90285: AVG IPC :1.87790: L2-Pf-HR :0.89290: L2-HR :0.85930: (Sim:0h5m2s) 
CPU  0 inst:   43000003 cyc:   22806616 now IPC :1.91005: AVG IPC :1.87867: L2-Pf-HR :0.89357: L2-HR :0.86012: (Sim:0h5m9s) 
CPU  0 inst:   44000004 cyc:   23351695 now IPC :1.83460: AVG IPC :1.87760: L2-Pf-HR :0.89397: L2-HR :0.86042: (Sim:0h5m16s) 
CPU  0 inst:   45000001 cyc:   23891711 now IPC :1.85179: AVG IPC :1.87699: L2-Pf-HR :0.89481: L2-HR :0.86106: (Sim:0h5m23s) 
CPU  0 inst:   46000003 cyc:   24437335 now IPC :1.83277: AVG IPC :1.87596: L2-Pf-HR :0.89546: L2-HR :0.86161: (Sim:0h5m31s) 
CPU  0 inst:   47000001 cyc:   25012555 now IPC :1.73846: AVG IPC :1.87267: L2-Pf-HR :0.89586: L2-HR :0.86189: (Sim:0h5m38s) 
CPU  0 inst:   48000002 cyc:   25562479 now IPC :1.81843: AVG IPC :1.87146: L2-Pf-HR :0.89596: L2-HR :0.86182: (Sim:0h5m45s) 
CPU  0 inst:   49000002 cyc:   26194083 now IPC :1.58327: AVG IPC :1.86424: L2-Pf-HR :0.89280: L2-HR :0.85953: (Sim:0h5m52s) 
CPU  0 inst:   50000001 cyc:   26734372 now IPC :1.85086: AVG IPC :1.86396: L2-Pf-HR :0.89379: L2-HR :0.86025: (Sim:0h5m59s) 
CPU  0 inst:   51000000 cyc:   27279502 now IPC :1.83442: AVG IPC :1.86334: L2-Pf-HR :0.89451: L2-HR :0.86070: (Sim:0h6m6s) 
CPU  0 inst:   52000002 cyc:   27827475 now IPC :1.82491: AVG IPC :1.86256: L2-Pf-HR :0.89486: L2-HR :0.86079: (Sim:0h6m14s) 
CPU  0 inst:   53000001 cyc:   28370770 now IPC :1.84062: AVG IPC :1.86212: L2-Pf-HR :0.89553: L2-HR :0.86125: (Sim:0h6m21s) 
CPU  0 inst:   54000003 cyc:   28928449 now IPC :1.79315: AVG IPC :1.86075: L2-Pf-HR :0.89634: L2-HR :0.86161: (Sim:0h6m28s) 
CPU  0 inst:   55000004 cyc:   29519222 now IPC :1.69270: AVG IPC :1.85727: L2-Pf-HR :0.89667: L2-HR :0.86180: (Sim:0h6m36s) 
CPU  0 inst:   56000001 cyc:   30077834 now IPC :1.79015: AVG IPC :1.85598: L2-Pf-HR :0.89676: L2-HR :0.86176: (Sim:0h6m43s) 
CPU  0 inst:   57000002 cyc:   30723451 now IPC :1.54891: AVG IPC :1.84931: L2-Pf-HR :0.89414: L2-HR :0.85975: (Sim:0h6m50s) 
CPU  0 inst:   58000004 cyc:   31254398 now IPC :1.88343: AVG IPC :1.84991: L2-Pf-HR :0.89440: L2-HR :0.86010: (Sim:0h6m58s) 
CPU  0 inst:   59000004 cyc:   31783908 now IPC :1.88854: AVG IPC :1.85058: L2-Pf-HR :0.89481: L2-HR :0.86054: (Sim:0h7m5s) 
CPU  0 inst:   60000005 cyc:   32326260 now IPC :1.84382: AVG IPC :1.85046: L2-Pf-HR :0.89490: L2-HR :0.86068: (Sim:0h7m12s) 
CPU  0 inst:   61000001 cyc:   32867913 now IPC :1.84619: AVG IPC :1.85039: L2-Pf-HR :0.89562: L2-HR :0.86134: (Sim:0h7m19s) 
CPU  0 inst:   62000003 cyc:   33438096 now IPC :1.75383: AVG IPC :1.84869: L2-Pf-HR :0.89640: L2-HR :0.86174: (Sim:0h7m26s) 
CPU  0 inst:   63000000 cyc:   34025536 now IPC :1.70230: AVG IPC :1.84609: L2-Pf-HR :0.89679: L2-HR :0.86198: (Sim:0h7m34s) 
CPU  0 inst:   64000001 cyc:   34579986 now IPC :1.80359: AVG IPC :1.84539: L2-Pf-HR :0.89686: L2-HR :0.86191: (Sim:0h7m41s) 
CPU  0 inst:   65000000 cyc:   35236263 now IPC :1.52375: AVG IPC :1.83922: L2-Pf-HR :0.89428: L2-HR :0.85995: (Sim:0h7m48s) 
CPU  0 inst:   66000001 cyc:   35778133 now IPC :1.84546: AVG IPC :1.83932: L2-Pf-HR :0.89477: L2-HR :0.86037: (Sim:0h7m55s) 
CPU  0 inst:   67000002 cyc:   36324464 now IPC :1.83039: AVG IPC :1.83918: L2-Pf-HR :0.89549: L2-HR :0.86088: (Sim:0h8m3s) 
CPU  0 inst:   68000003 cyc:   36867691 now IPC :1.84085: AVG IPC :1.83921: L2-Pf-HR :0.89574: L2-HR :0.86113: (Sim:0h8m10s) 
CPU  0 inst:   69000005 cyc:   37409487 now IPC :1.84572: AVG IPC :1.83931: L2-Pf-HR :0.89634: L2-HR :0.86159: (Sim:0h8m17s) 
CPU  0 inst:   70000001 cyc:   37963958 now IPC :1.80351: AVG IPC :1.83877: L2-Pf-HR :0.89690: L2-HR :0.86181: (Sim:0h8m24s) 
CPU  0 inst:   71000000 cyc:   38544874 now IPC :1.72142: AVG IPC :1.83695: L2-Pf-HR :0.89734: L2-HR :0.86219: (Sim:0h8m32s) 
CPU  0 inst:   72000000 cyc:   39096518 now IPC :1.81276: AVG IPC :1.83660: L2-Pf-HR :0.89739: L2-HR :0.86209: (Sim:0h8m39s) 
CPU  0 inst:   73000000 cyc:   39750851 now IPC :1.52827: AVG IPC :1.83140: L2-Pf-HR :0.89560: L2-HR :0.86070: (Sim:0h8m47s) 
CPU  0 inst:   74000001 cyc:   40296634 now IPC :1.83223: AVG IPC :1.83141: L2-Pf-HR :0.89577: L2-HR :0.86096: (Sim:0h8m54s) 
CPU  0 inst:   75000000 cyc:   40838244 now IPC :1.84635: AVG IPC :1.83161: L2-Pf-HR :0.89582: L2-HR :0.86110: (Sim:0h9m1s) 
CPU  0 inst:   76000003 cyc:   41360193 now IPC :1.91590: AVG IPC :1.83270: L2-Pf-HR :0.89603: L2-HR :0.86149: (Sim:0h9m8s) 
CPU  0 inst:   77000000 cyc:   41900248 now IPC :1.85166: AVG IPC :1.83295: L2-Pf-HR :0.89656: L2-HR :0.86188: (Sim:0h9m16s) 
CPU  0 inst:   78000002 cyc:   42447488 now IPC :1.82736: AVG IPC :1.83288: L2-Pf-HR :0.89715: L2-HR :0.86216: (Sim:0h9m23s) 
CPU  0 inst:   79000000 cyc:   43026701 now IPC :1.72648: AVG IPC :1.83141: L2-Pf-HR :0.89745: L2-HR :0.86243: (Sim:0h9m30s) 
CPU  0 inst:   80000001 cyc:   43579376 now IPC :1.80938: AVG IPC :1.83113: L2-Pf-HR :0.89748: L2-HR :0.86234: (Sim:0h9m38s) 
CPU  0 inst:   81000002 cyc:   44239170 now IPC :1.51563: AVG IPC :1.82632: L2-Pf-HR :0.89570: L2-HR :0.86093: (Sim:0h9m45s) 
CPU  0 inst:   82000002 cyc:   44766310 now IPC :1.89703: AVG IPC :1.82717: L2-Pf-HR :0.89626: L2-HR :0.86141: (Sim:0h9m52s) 
CPU  0 inst:   83000002 cyc:   45304832 now IPC :1.85693: AVG IPC :1.82753: L2-Pf-HR :0.89648: L2-HR :0.86161: (Sim:0h10m0s) 
CPU  0 inst:   84000005 cyc:   45844437 now IPC :1.85321: AVG IPC :1.82784: L2-Pf-HR :0.89659: L2-HR :0.86184: (Sim:0h10m7s) 
CPU  0 inst:   85000001 cyc:   46402706 now IPC :1.79124: AVG IPC :1.82739: L2-Pf-HR :0.89699: L2-HR :0.86211: (Sim:0h10m14s) 
CPU  0 inst:   86000005 cyc:   46954589 now IPC :1.81199: AVG IPC :1.82720: L2-Pf-HR :0.89747: L2-HR :0.86241: (Sim:0h10m21s) 
CPU  0 inst:   87000002 cyc:   47546742 now IPC :1.68875: AVG IPC :1.82544: L2-Pf-HR :0.89769: L2-HR :0.86259: (Sim:0h10m29s) 
CPU  0 inst:   88000000 cyc:   48102543 now IPC :1.79920: AVG IPC :1.82513: L2-Pf-HR :0.89773: L2-HR :0.86254: (Sim:0h10m36s) 
CPU  0 inst:   89000004 cyc:   48735495 now IPC :1.57990: AVG IPC :1.82188: L2-Pf-HR :0.89578: L2-HR :0.86112: (Sim:0h10m43s) 
CPU  0 inst:   90000004 cyc:   49294025 now IPC :1.79041: AVG IPC :1.82152: L2-Pf-HR :0.89607: L2-HR :0.86135: (Sim:0h10m51s) 
CPU  0 inst:   91000005 cyc:   49834359 now IPC :1.85071: AVG IPC :1.82184: L2-Pf-HR :0.89615: L2-HR :0.86159: (Sim:0h10m58s) 
CPU  0 inst:   92000005 cyc:   50382392 now IPC :1.82471: AVG IPC :1.82187: L2-Pf-HR :0.89649: L2-HR :0.86195: (Sim:0h11m5s) 
CPU  0 inst:   93000000 cyc:   50945000 now IPC :1.77743: AVG IPC :1.82137: L2-Pf-HR :0.89698: L2-HR :0.86225: (Sim:0h11m13s) 
CPU  0 inst:   94000002 cyc:   51504482 now IPC :1.78737: AVG IPC :1.82100: L2-Pf-HR :0.89744: L2-HR :0.86242: (Sim:0h11m20s) 
CPU  0 inst:   95000000 cyc:   52074737 now IPC :1.75360: AVG IPC :1.82024: L2-Pf-HR :0.89771: L2-HR :0.86260: (Sim:0h11m27s) 
CPU  0 inst:   96000002 cyc:   52621608 now IPC :1.82859: AVG IPC :1.82033: L2-Pf-HR :0.89776: L2-HR :0.86259: (Sim:0h11m34s) 
CPU  0 inst:   97000005 cyc:   53278277 now IPC :1.52284: AVG IPC :1.81660: L2-Pf-HR :0.89624: L2-HR :0.86139: (Sim:0h11m42s) 
CPU  0 inst:   98000004 cyc:   53831142 now IPC :1.80876: AVG IPC :1.81652: L2-Pf-HR :0.89649: L2-HR :0.86163: (Sim:0h11m49s) 
CPU  0 inst:   99000000 cyc:   54377471 now IPC :1.83039: AVG IPC :1.81666: L2-Pf-HR :0.89646: L2-HR :0.86175: (Sim:0h11m56s) 
CPU  0 inst:  100000002 cyc:   54918392 now IPC :1.84870: AVG IPC :1.81698: L2-Pf-HR :0.89659: L2-HR :0.86194: (Sim:0h12m4s) 
CPU  0 inst:  101000001 cyc:   55454058 now IPC :1.86683: AVG IPC :1.81747: L2-Pf-HR :0.89699: L2-HR :0.86228: (Sim:0h12m11s) 
CPU  0 inst:  102000004 cyc:   55992551 now IPC :1.85704: AVG IPC :1.81786: L2-Pf-HR :0.89717: L2-HR :0.86245: (Sim:0h12m18s) 
CPU  0 inst:  103000004 cyc:   56549262 now IPC :1.79626: AVG IPC :1.81764: L2-Pf-HR :0.89748: L2-HR :0.86279: (Sim:0h12m26s) 
CPU  0 inst:  104000002 cyc:   57101321 now IPC :1.81140: AVG IPC :1.81758: L2-Pf-HR :0.89752: L2-HR :0.86275: (Sim:0h12m33s) 
CPU  0 inst:  105000001 cyc:   57759227 now IPC :1.51997: AVG IPC :1.81413: L2-Pf-HR :0.89604: L2-HR :0.86159: (Sim:0h12m40s) 
CPU  0 inst:  106000004 cyc:   58299252 now IPC :1.85177: AVG IPC :1.81448: L2-Pf-HR :0.89599: L2-HR :0.86167: (Sim:0h12m48s) 
CPU  0 inst:  107000000 cyc:   58841468 now IPC :1.84428: AVG IPC :1.81476: L2-Pf-HR :0.89617: L2-HR :0.86196: (Sim:0h12m55s) 
CPU  0 inst:  108000003 cyc:   59393380 now IPC :1.81189: AVG IPC :1.81474: L2-Pf-HR :0.89628: L2-HR :0.86211: (Sim:0h13m2s) 
CPU  0 inst:  109000001 cyc:   59926902 now IPC :1.87433: AVG IPC :1.81528: L2-Pf-HR :0.89667: L2-HR :0.86245: (Sim:0h13m10s) 
CPU  0 inst:  110000001 cyc:   60470943 now IPC :1.83810: AVG IPC :1.81548: L2-Pf-HR :0.89701: L2-HR :0.86262: (Sim:0h13m17s) 
CPU  0 inst:  111000004 cyc:   61043727 now IPC :1.74586: AVG IPC :1.81482: L2-Pf-HR :0.89730: L2-HR :0.86290: (Sim:0h13m24s) 
CPU  0 inst:  112000002 cyc:   61587877 now IPC :1.83772: AVG IPC :1.81503: L2-Pf-HR :0.89734: L2-HR :0.86284: (Sim:0h13m32s) 
CPU  0 inst:  113000001 cyc:   62262550 now IPC :1.48220: AVG IPC :1.81136: L2-Pf-HR :0.89610: L2-HR :0.86187: (Sim:0h13m39s) 
CPU  0 inst:  114000004 cyc:   62803981 now IPC :1.84696: AVG IPC :1.81167: L2-Pf-HR :0.89619: L2-HR :0.86205: (Sim:0h13m47s) 
CPU  0 inst:  115000000 cyc:   63340294 now IPC :1.86458: AVG IPC :1.81213: L2-Pf-HR :0.89626: L2-HR :0.86226: (Sim:0h13m54s) 
CPU  0 inst:  116000002 cyc:   63892338 now IPC :1.81145: AVG IPC :1.81212: L2-Pf-HR :0.89638: L2-HR :0.86239: (Sim:0h14m1s) 
CPU  0 inst:  117000005 cyc:   64438216 now IPC :1.83192: AVG IPC :1.81229: L2-Pf-HR :0.89664: L2-HR :0.86262: (Sim:0h14m11s) 
CPU  0 inst:  118000003 cyc:   64995404 now IPC :1.79472: AVG IPC :1.81214: L2-Pf-HR :0.89681: L2-HR :0.86273: (Sim:0h14m18s) 
CPU  0 inst:  119000004 cyc:   65563950 now IPC :1.75887: AVG IPC :1.81167: L2-Pf-HR :0.89713: L2-HR :0.86305: (Sim:0h14m27s) 
CPU  0 inst:  120000003 cyc:   66109631 now IPC :1.83257: AVG IPC :1.81185: L2-Pf-HR :0.89717: L2-HR :0.86298: (Sim:0h14m34s) 
CPU  0 inst:  121000004 cyc:   66764547 now IPC :1.52691: AVG IPC :1.80901: L2-Pf-HR :0.89601: L2-HR :0.86206: (Sim:0h14m48s) 
CPU  0 inst:  122000001 cyc:   67285034 now IPC :1.92127: AVG IPC :1.80989: L2-Pf-HR :0.89608: L2-HR :0.86226: (Sim:0h15m5s) 
CPU  0 inst:  123000000 cyc:   67819331 now IPC :1.87162: AVG IPC :1.81038: L2-Pf-HR :0.89626: L2-HR :0.86244: (Sim:0h15m21s) 
CPU  0 inst:  124000005 cyc:   68348362 now IPC :1.89026: AVG IPC :1.81101: L2-Pf-HR :0.89640: L2-HR :0.86262: (Sim:0h15m38s) 
CPU  0 inst:  125000001 cyc:   68891857 now IPC :1.83994: AVG IPC :1.81124: L2-Pf-HR :0.89652: L2-HR :0.86271: (Sim:0h15m55s) 
CPU  0 inst:  126000001 cyc:   69439577 now IPC :1.82575: AVG IPC :1.81136: L2-Pf-HR :0.89691: L2-HR :0.86297: (Sim:0h16m11s) 
CPU  0 inst:  127000005 cyc:   70020641 now IPC :1.72099: AVG IPC :1.81060: L2-Pf-HR :0.89718: L2-HR :0.86324: (Sim:0h16m29s) 
CPU  0 inst:  128000001 cyc:   70576156 now IPC :1.80012: AVG IPC :1.81052: L2-Pf-HR :0.89721: L2-HR :0.86320: (Sim:0h16m45s) 
CPU  0 inst:  129000002 cyc:   71216512 now IPC :1.56163: AVG IPC :1.80825: L2-Pf-HR :0.89620: L2-HR :0.86237: (Sim:0h16m58s) 
CPU  0 inst:  130000003 cyc:   71761127 now IPC :1.83616: AVG IPC :1.80846: L2-Pf-HR :0.89609: L2-HR :0.86246: (Sim:0h17m6s) 
CPU  0 inst:  131000000 cyc:   72311838 now IPC :1.81583: AVG IPC :1.80852: L2-Pf-HR :0.89630: L2-HR :0.86265: (Sim:0h17m14s) 
CPU  0 inst:  132000004 cyc:   72859577 now IPC :1.82569: AVG IPC :1.80865: L2-Pf-HR :0.89650: L2-HR :0.86286: (Sim:0h17m22s) 
CPU  0 inst:  133000003 cyc:   73417558 now IPC :1.79217: AVG IPC :1.80852: L2-Pf-HR :0.89661: L2-HR :0.86284: (Sim:0h17m29s) 
CPU  0 inst:  134000000 cyc:   73973203 now IPC :1.79970: AVG IPC :1.80845: L2-Pf-HR :0.89697: L2-HR :0.86303: (Sim:0h17m37s) 
CPU  0 inst:  135000000 cyc:   74551336 now IPC :1.72971: AVG IPC :1.80784: L2-Pf-HR :0.89726: L2-HR :0.86326: (Sim:0h17m45s) 
CPU  0 inst:  136000001 cyc:   75105687 now IPC :1.80391: AVG IPC :1.80781: L2-Pf-HR :0.89730: L2-HR :0.86325: (Sim:0h17m53s) 
CPU  0 inst:  137000005 cyc:   75753695 now IPC :1.54320: AVG IPC :1.80551: L2-Pf-HR :0.89637: L2-HR :0.86248: (Sim:0h18m1s) 
CPU  0 inst:  138000004 cyc:   76302620 now IPC :1.82174: AVG IPC :1.80563: L2-Pf-HR :0.89632: L2-HR :0.86253: (Sim:0h18m8s) 
CPU  0 inst:  139000000 cyc:   76847896 now IPC :1.83393: AVG IPC :1.80583: L2-Pf-HR :0.89636: L2-HR :0.86262: (Sim:0h18m16s) 
CPU  0 inst:  140000005 cyc:   77375687 now IPC :1.89470: AVG IPC :1.80645: L2-Pf-HR :0.89628: L2-HR :0.86271: (Sim:0h18m24s) 
CPU  0 inst:  141000001 cyc:   77912267 now IPC :1.86365: AVG IPC :1.80685: L2-Pf-HR :0.89657: L2-HR :0.86296: (Sim:0h18m32s) 
CPU  0 inst:  142000000 cyc:   78452242 now IPC :1.85194: AVG IPC :1.80716: L2-Pf-HR :0.89683: L2-HR :0.86314: (Sim:0h18m39s) 
CPU  0 inst:  143000005 cyc:   79028113 now IPC :1.73651: AVG IPC :1.80664: L2-Pf-HR :0.89708: L2-HR :0.86337: (Sim:0h18m47s) 
CPU  0 inst:  144000000 cyc:   79578108 now IPC :1.81819: AVG IPC :1.80672: L2-Pf-HR :0.89713: L2-HR :0.86336: (Sim:0h18m55s) 
CPU  0 inst:  145000005 cyc:   80245501 now IPC :1.49838: AVG IPC :1.80413: L2-Pf-HR :0.89619: L2-HR :0.86260: (Sim:0h19m3s) 
CPU  0 inst:  146000004 cyc:   80788195 now IPC :1.84266: AVG IPC :1.80439: L2-Pf-HR :0.89622: L2-HR :0.86267: (Sim:0h19m10s) 
CPU  0 inst:  147000000 cyc:   81328744 now IPC :1.84996: AVG IPC :1.80469: L2-Pf-HR :0.89629: L2-HR :0.86275: (Sim:0h19m18s) 
CPU  0 inst:  148000002 cyc:   81856579 now IPC :1.89454: AVG IPC :1.80528: L2-Pf-HR :0.89637: L2-HR :0.86288: (Sim:0h19m26s) 
CPU  0 inst:  149000004 cyc:   82382270 now IPC :1.90226: AVG IPC :1.80591: L2-Pf-HR :0.89651: L2-HR :0.86303: (Sim:0h19m33s) 
CPU  0 inst:  150000003 cyc:   82913355 now IPC :1.88294: AVG IPC :1.80641: L2-Pf-HR :0.89676: L2-HR :0.86323: (Sim:0h19m41s) 
CPU  0 inst:  151000005 cyc:   83484270 now IPC :1.75158: AVG IPC :1.80603: L2-Pf-HR :0.89697: L2-HR :0.86342: (Sim:0h19m49s) 
CPU  0 inst:  152000001 cyc:   84043077 now IPC :1.78952: AVG IPC :1.80592: L2-Pf-HR :0.89701: L2-HR :0.86340: (Sim:0h19m56s) 
CPU  0 inst:  153000002 cyc:   84684809 now IPC :1.55828: AVG IPC :1.80402: L2-Pf-HR :0.89614: L2-HR :0.86271: (Sim:0h20m4s) 
CPU  0 inst:  154000001 cyc:   85243853 now IPC :1.78877: AVG IPC :1.80392: L2-Pf-HR :0.89617: L2-HR :0.86273: (Sim:0h20m12s) 
CPU  0 inst:  155000000 cyc:   85776822 now IPC :1.87628: AVG IPC :1.80437: L2-Pf-HR :0.89631: L2-HR :0.86286: (Sim:0h20m20s) 
CPU  0 inst:  156000001 cyc:   86316321 now IPC :1.85357: AVG IPC :1.80468: L2-Pf-HR :0.89639: L2-HR :0.86293: (Sim:0h20m28s) 
CPU  0 inst:  157000001 cyc:   86858124 now IPC :1.84569: AVG IPC :1.80494: L2-Pf-HR :0.89659: L2-HR :0.86306: (Sim:0h20m35s) 
CPU  0 inst:  158000000 cyc:   87395247 now IPC :1.86177: AVG IPC :1.80529: L2-Pf-HR :0.89681: L2-HR :0.86327: (Sim:0h20m43s) 
CPU  0 inst:  159000001 cyc:   87984365 now IPC :1.69745: AVG IPC :1.80456: L2-Pf-HR :0.89701: L2-HR :0.86345: (Sim:0h20m51s) 
CPU  0 inst:  160000005 cyc:   88532131 now IPC :1.82560: AVG IPC :1.80469: L2-Pf-HR :0.89705: L2-HR :0.86342: (Sim:0h20m58s) 
CPU  0 inst:  161000005 cyc:   89161655 now IPC :1.58850: AVG IPC :1.80315: L2-Pf-HR :0.89622: L2-HR :0.86280: (Sim:0h21m6s) 
CPU  0 inst:  162000001 cyc:   89726481 now IPC :1.77045: AVG IPC :1.80294: L2-Pf-HR :0.89609: L2-HR :0.86268: (Sim:0h21m14s) 
CPU  0 inst:  163000003 cyc:   90261962 now IPC :1.86748: AVG IPC :1.80333: L2-Pf-HR :0.89633: L2-HR :0.86290: (Sim:0h21m27s) 
CPU  0 inst:  164000003 cyc:   90801764 now IPC :1.85253: AVG IPC :1.80363: L2-Pf-HR :0.89653: L2-HR :0.86307: (Sim:0h21m40s) 
CPU  0 inst:  165000005 cyc:   91348467 now IPC :1.82915: AVG IPC :1.80378: L2-Pf-HR :0.89672: L2-HR :0.86320: (Sim:0h21m47s) 
CPU  0 inst:  166000002 cyc:   91908624 now IPC :1.78521: AVG IPC :1.80367: L2-Pf-HR :0.89692: L2-HR :0.86332: (Sim:0h21m55s) 
CPU  0 inst:  167000000 cyc:   92506193 now IPC :1.67344: AVG IPC :1.80282: L2-Pf-HR :0.89710: L2-HR :0.86344: (Sim:0h22m3s) 
CPU  0 inst:  168000002 cyc:   93062671 now IPC :1.79702: AVG IPC :1.80278: L2-Pf-HR :0.89714: L2-HR :0.86342: (Sim:0h22m11s) 
CPU  0 inst:  169000002 cyc:   93722180 now IPC :1.51628: AVG IPC :1.80074: L2-Pf-HR :0.89643: L2-HR :0.86286: (Sim:0h22m19s) 
CPU  0 inst:  170000004 cyc:   94295956 now IPC :1.74284: AVG IPC :1.80039: L2-Pf-HR :0.89638: L2-HR :0.86281: (Sim:0h22m26s) 
CPU  0 inst:  171000004 cyc:   94849833 now IPC :1.80545: AVG IPC :1.80042: L2-Pf-HR :0.89646: L2-HR :0.86289: (Sim:0h22m34s) 
CPU  0 inst:  172000002 cyc:   95388865 now IPC :1.85517: AVG IPC :1.80073: L2-Pf-HR :0.89652: L2-HR :0.86298: (Sim:0h22m42s) 
CPU  0 inst:  173000000 cyc:   95913544 now IPC :1.90592: AVG IPC :1.80131: L2-Pf-HR :0.89650: L2-HR :0.86308: (Sim:0h22m49s) 
CPU  0 inst:  174000003 cyc:   96438083 now IPC :1.90644: AVG IPC :1.80189: L2-Pf-HR :0.89669: L2-HR :0.86329: (Sim:0h22m57s) 
CPU  0 inst:  175000004 cyc:   97015998 now IPC :1.73036: AVG IPC :1.80146: L2-Pf-HR :0.89693: L2-HR :0.86353: (Sim:0h23m5s) 
CPU  0 inst:  176000001 cyc:   97572437 now IPC :1.79714: AVG IPC :1.80143: L2-Pf-HR :0.89699: L2-HR :0.86354: (Sim:0h23m12s) 
CPU  0 inst:  177000004 cyc:   98219805 now IPC :1.54472: AVG IPC :1.79972: L2-Pf-HR :0.89636: L2-HR :0.86303: (Sim:0h23m20s) 
CPU  0 inst:  178000004 cyc:   98786229 now IPC :1.76546: AVG IPC :1.79953: L2-Pf-HR :0.89629: L2-HR :0.86297: (Sim:0h23m32s) 
CPU  0 inst:  179000000 cyc:   99319221 now IPC :1.87619: AVG IPC :1.79994: L2-Pf-HR :0.89634: L2-HR :0.86304: (Sim:0h23m49s) 
CPU  0 inst:  180000004 cyc:   99852469 now IPC :1.87531: AVG IPC :1.80035: L2-Pf-HR :0.89642: L2-HR :0.86315: (Sim:0h24m5s) 
CPU  0 inst:  181000001 cyc:  100396631 now IPC :1.83768: AVG IPC :1.80055: L2-Pf-HR :0.89654: L2-HR :0.86327: (Sim:0h24m22s) 
CPU  0 inst:  182000000 cyc:  100954058 now IPC :1.79396: AVG IPC :1.80052: L2-Pf-HR :0.89679: L2-HR :0.86340: (Sim:0h24m39s) 
CPU  0 inst:  183000000 cyc:  101536543 now IPC :1.71678: AVG IPC :1.80003: L2-Pf-HR :0.89701: L2-HR :0.86355: (Sim:0h24m56s) 
CPU  0 inst:  184000003 cyc:  102093482 now IPC :1.79553: AVG IPC :1.80001: L2-Pf-HR :0.89708: L2-HR :0.86356: (Sim:0h25m13s) 
CPU  0 inst:  185000005 cyc:  102731730 now IPC :1.56679: AVG IPC :1.79854: L2-Pf-HR :0.89651: L2-HR :0.86310: (Sim:0h25m30s) 
CPU  0 inst:  186000000 cyc:  103313335 now IPC :1.71937: AVG IPC :1.79809: L2-Pf-HR :0.89629: L2-HR :0.86292: (Sim:0h25m47s) 
CPU  0 inst:  187000003 cyc:  103854582 now IPC :1.84759: AVG IPC :1.79835: L2-Pf-HR :0.89643: L2-HR :0.86305: (Sim:0h26m3s) 
CPU  0 inst:  188000001 cyc:  104393403 now IPC :1.85590: AVG IPC :1.79865: L2-Pf-HR :0.89659: L2-HR :0.86321: (Sim:0h26m20s) 
CPU  0 inst:  189000004 cyc:  104931610 now IPC :1.85803: AVG IPC :1.79896: L2-Pf-HR :0.89667: L2-HR :0.86332: (Sim:0h26m37s) 
CPU  0 inst:  190000002 cyc:  105477534 now IPC :1.83175: AVG IPC :1.79913: L2-Pf-HR :0.89679: L2-HR :0.86340: (Sim:0h26m54s) 
CPU  0 inst:  191000005 cyc:  106052052 now IPC :1.74059: AVG IPC :1.79881: L2-Pf-HR :0.89696: L2-HR :0.86356: (Sim:0h27m11s) 
CPU  0 inst:  192000004 cyc:  106607456 now IPC :1.80049: AVG IPC :1.79882: L2-Pf-HR :0.89703: L2-HR :0.86357: (Sim:0h27m27s) 
CPU  0 inst:  193000002 cyc:  107231860 now IPC :1.60152: AVG IPC :1.79766: L2-Pf-HR :0.89652: L2-HR :0.86317: (Sim:0h27m44s) 
CPU  0 inst:  194000004 cyc:  107801841 now IPC :1.75445: AVG IPC :1.79743: L2-Pf-HR :0.89631: L2-HR :0.86302: (Sim:0h28m1s) 
CPU  0 inst:  195000003 cyc:  108328891 now IPC :1.89735: AVG IPC :1.79792: L2-Pf-HR :0.89646: L2-HR :0.86318: (Sim:0h28m18s) 
CPU  0 inst:  196000002 cyc:  108856406 now IPC :1.89568: AVG IPC :1.79840: L2-Pf-HR :0.89655: L2-HR :0.86332: (Sim:0h28m35s) 
CPU  0 inst:  197000001 cyc:  109410617 now IPC :1.80437: AVG IPC :1.79843: L2-Pf-HR :0.89661: L2-HR :0.86340: (Sim:0h28m51s) 
CPU  0 inst:  198000000 cyc:  109968782 now IPC :1.79158: AVG IPC :1.79839: L2-Pf-HR :0.89682: L2-HR :0.86356: (Sim:0h29m8s) 
CPU  0 inst:  199000005 cyc:  110545770 now IPC :1.73315: AVG IPC :1.79805: L2-Pf-HR :0.89696: L2-HR :0.86370: (Sim:0h29m25s) 
CPU  0 inst:  200000001 cyc:  111100114 now IPC :1.80393: AVG IPC :1.79808: L2-Pf-HR :0.89704: L2-HR :0.86371: (Sim:0h29m42s) 
CPU  0 inst:  201000003 cyc:  111694644 now IPC :1.68200: AVG IPC :1.79746: L2-Pf-HR :0.89678: L2-HR :0.86346: (Sim:0h29m58s) 
CPU  0 inst:  202000000 cyc:  112314011 now IPC :1.61455: AVG IPC :1.79644: L2-Pf-HR :0.89635: L2-HR :0.86315: (Sim:0h30m16s) 
CPU  0 inst:  203000000 cyc:  112854729 now IPC :1.84939: AVG IPC :1.79670: L2-Pf-HR :0.89641: L2-HR :0.86323: (Sim:0h30m32s) 
CPU  0 inst:  204000002 cyc:  113384755 now IPC :1.88670: AVG IPC :1.79712: L2-Pf-HR :0.89659: L2-HR :0.86342: (Sim:0h30m49s) 
CPU  0 inst:  205000001 cyc:  113941690 now IPC :1.79554: AVG IPC :1.79711: L2-Pf-HR :0.89667: L2-HR :0.86348: (Sim:0h31m6s) 
CPU  0 inst:  206000001 cyc:  114493350 now IPC :1.81271: AVG IPC :1.79719: L2-Pf-HR :0.89681: L2-HR :0.86359: (Sim:0h31m22s) 
CPU  0 inst:  207000005 cyc:  115056623 now IPC :1.77535: AVG IPC :1.79708: L2-Pf-HR :0.89708: L2-HR :0.86379: (Sim:0h31m39s) 
CPU  0 inst:  208000003 cyc:  115636293 now IPC :1.72512: AVG IPC :1.79672: L2-Pf-HR :0.89702: L2-HR :0.86370: (Sim:0h31m56s) 
CPU  0 inst:  209000005 cyc:  116194072 now IPC :1.79283: AVG IPC :1.79670: L2-Pf-HR :0.89696: L2-HR :0.86362: (Sim:0h32m13s) 
CPU  0 inst:  210000002 cyc:  116805900 now IPC :1.63444: AVG IPC :1.79584: L2-Pf-HR :0.89633: L2-HR :0.86317: (Sim:0h32m30s) 
CPU  0 inst:  211000000 cyc:  117337306 now IPC :1.88180: AVG IPC :1.79623: L2-Pf-HR :0.89641: L2-HR :0.86329: (Sim:0h32m46s) 
CPU  0 inst:  212000000 cyc:  117859308 now IPC :1.91570: AVG IPC :1.79677: L2-Pf-HR :0.89642: L2-HR :0.86339: (Sim:0h33m3s) 
CPU  0 inst:  213000002 cyc:  118402507 now IPC :1.84095: AVG IPC :1.79697: L2-Pf-HR :0.89656: L2-HR :0.86350: (Sim:0h33m20s) 
CPU  0 inst:  214000001 cyc:  118939899 now IPC :1.86084: AVG IPC :1.79726: L2-Pf-HR :0.89666: L2-HR :0.86359: (Sim:0h33m36s) 
CPU  0 inst:  215000003 cyc:  119478700 now IPC :1.85598: AVG IPC :1.79753: L2-Pf-HR :0.89690: L2-HR :0.86383: (Sim:0h33m53s) 
CPU  0 inst:  216000000 cyc:  120065664 now IPC :1.70368: AVG IPC :1.79707: L2-Pf-HR :0.89687: L2-HR :0.86377: (Sim:0h34m10s) 
CPU  0 inst:  217000000 cyc:  120621512 now IPC :1.79905: AVG IPC :1.79708: L2-Pf-HR :0.89689: L2-HR :0.86375: (Sim:0h34m27s) 
CPU  0 inst:  218000005 cyc:  121267571 now IPC :1.54785: AVG IPC :1.79574: L2-Pf-HR :0.89619: L2-HR :0.86322: (Sim:0h34m44s) 
CPU  0 inst:  219000004 cyc:  121806916 now IPC :1.85410: AVG IPC :1.79600: L2-Pf-HR :0.89629: L2-HR :0.86333: (Sim:0h35m1s) 
CPU  0 inst:  220000001 cyc:  122344176 now IPC :1.86129: AVG IPC :1.79629: L2-Pf-HR :0.89631: L2-HR :0.86342: (Sim:0h35m18s) 
CPU  0 inst:  221000002 cyc:  122890096 now IPC :1.83177: AVG IPC :1.79645: L2-Pf-HR :0.89648: L2-HR :0.86354: (Sim:0h35m34s) 
CPU  0 inst:  222000003 cyc:  123432895 now IPC :1.84230: AVG IPC :1.79665: L2-Pf-HR :0.89664: L2-HR :0.86364: (Sim:0h35m51s) 
CPU  0 inst:  223000001 cyc:  123978975 now IPC :1.83123: AVG IPC :1.79680: L2-Pf-HR :0.89690: L2-HR :0.86381: (Sim:0h36m8s) 
CPU  0 inst:  224000001 cyc:  124570823 now IPC :1.68962: AVG IPC :1.79629: L2-Pf-HR :0.89691: L2-HR :0.86379: (Sim:0h36m24s) 
CPU  0 inst:  225000000 cyc:  125125180 now IPC :1.80389: AVG IPC :1.79632: L2-Pf-HR :0.89692: L2-HR :0.86375: (Sim:0h36m41s) 
CPU  0 inst:  226000003 cyc:  125774595 now IPC :1.53985: AVG IPC :1.79499: L2-Pf-HR :0.89634: L2-HR :0.86329: (Sim:0h36m58s) 
CPU  0 inst:  227000005 cyc:  126298793 now IPC :1.90768: AVG IPC :1.79546: L2-Pf-HR :0.89631: L2-HR :0.86336: (Sim:0h37m15s) 
CPU  0 inst:  228000002 cyc:  126848991 now IPC :1.81752: AVG IPC :1.79556: L2-Pf-HR :0.89646: L2-HR :0.86350: (Sim:0h37m32s) 
CPU  0 inst:  229000000 cyc:  127386142 now IPC :1.86167: AVG IPC :1.79584: L2-Pf-HR :0.89650: L2-HR :0.86356: (Sim:0h37m48s) 
CPU  0 inst:  230000000 cyc:  127927837 now IPC :1.84606: AVG IPC :1.79605: L2-Pf-HR :0.89665: L2-HR :0.86369: (Sim:0h38m5s) 
CPU  0 inst:  231000003 cyc:  128478310 now IPC :1.81662: AVG IPC :1.79614: L2-Pf-HR :0.89684: L2-HR :0.86382: (Sim:0h38m22s) 
CPU  0 inst:  232000002 cyc:  129063364 now IPC :1.70924: AVG IPC :1.79574: L2-Pf-HR :0.89687: L2-HR :0.86384: (Sim:0h38m39s) 
CPU  0 inst:  233000000 cyc:  129619954 now IPC :1.79665: AVG IPC :1.79575: L2-Pf-HR :0.89689: L2-HR :0.86381: (Sim:0h38m55s) 
CPU  0 inst:  234000001 cyc:  130266964 now IPC :1.54557: AVG IPC :1.79450: L2-Pf-HR :0.89625: L2-HR :0.86331: (Sim:0h39m13s) 
CPU  0 inst:  235000000 cyc:  130815701 now IPC :1.82236: AVG IPC :1.79461: L2-Pf-HR :0.89634: L2-HR :0.86344: (Sim:0h39m29s) 
CPU  0 inst:  236000005 cyc:  131367201 now IPC :1.81325: AVG IPC :1.79469: L2-Pf-HR :0.89640: L2-HR :0.86349: (Sim:0h39m46s) 
CPU  0 inst:  237000000 cyc:  131905304 now IPC :1.85837: AVG IPC :1.79495: L2-Pf-HR :0.89650: L2-HR :0.86358: (Sim:0h40m3s) 
CPU  0 inst:  238000005 cyc:  132448572 now IPC :1.84072: AVG IPC :1.79514: L2-Pf-HR :0.89660: L2-HR :0.86365: (Sim:0h40m20s) 
CPU  0 inst:  239000004 cyc:  132993255 now IPC :1.83593: AVG IPC :1.79531: L2-Pf-HR :0.89680: L2-HR :0.86380: (Sim:0h40m36s) 
CPU  0 inst:  240000002 cyc:  133566003 now IPC :1.74597: AVG IPC :1.79510: L2-Pf-HR :0.89684: L2-HR :0.86383: (Sim:0h40m53s) 
CPU  0 inst:  241000004 cyc:  134114341 now IPC :1.82370: AVG IPC :1.79522: L2-Pf-HR :0.89686: L2-HR :0.86381: (Sim:0h41m10s) 
CPU  0 inst:  242000001 cyc:  134772304 now IPC :1.51984: AVG IPC :1.79386: L2-Pf-HR :0.89633: L2-HR :0.86340: (Sim:0h41m27s) 
CPU  0 inst:  243000003 cyc:  135329945 now IPC :1.79327: AVG IPC :1.79386: L2-Pf-HR :0.89632: L2-HR :0.86340: (Sim:0h41m44s) 
CPU  0 inst:  244000005 cyc:  135885936 now IPC :1.79859: AVG IPC :1.79388: L2-Pf-HR :0.89645: L2-HR :0.86349: (Sim:0h42m0s) 
CPU  0 inst:  245000001 cyc:  136429836 now IPC :1.83857: AVG IPC :1.79406: L2-Pf-HR :0.89651: L2-HR :0.86354: (Sim:0h42m17s) 
CPU  0 inst:  246000000 cyc:  136982155 now IPC :1.81055: AVG IPC :1.79412: L2-Pf-HR :0.89669: L2-HR :0.86364: (Sim:0h42m34s) 
CPU  0 inst:  247000003 cyc:  137529794 now IPC :1.82603: AVG IPC :1.79425: L2-Pf-HR :0.89689: L2-HR :0.86374: (Sim:0h42m51s) 
CPU  0 inst:  248000002 cyc:  138101854 now IPC :1.74807: AVG IPC :1.79406: L2-Pf-HR :0.89692: L2-HR :0.86376: (Sim:0h43m7s) 
CPU  0 inst:  249000002 cyc:  138653880 now IPC :1.81151: AVG IPC :1.79413: L2-Pf-HR :0.89694: L2-HR :0.86374: (Sim:0h43m24s) 
CPU  0 inst:  250000004 cyc:  139331381 now IPC :1.47602: AVG IPC :1.79257: L2-Pf-HR :0.89627: L2-HR :0.86324: (Sim:0h43m41s) 
CPU  0 inst:  251000003 cyc:  139865471 now IPC :1.87234: AVG IPC :1.79288: L2-Pf-HR :0.89634: L2-HR :0.86336: (Sim:0h43m58s) 
CPU  0 inst:  252000000 cyc:  140408677 now IPC :1.84092: AVG IPC :1.79307: L2-Pf-HR :0.89651: L2-HR :0.86351: (Sim:0h44m15s) 
CPU  0 inst:  253000003 cyc:  140946312 now IPC :1.86000: AVG IPC :1.79332: L2-Pf-HR :0.89656: L2-HR :0.86359: (Sim:0h44m32s) 
CPU  0 inst:  254000003 cyc:  141510044 now IPC :1.77389: AVG IPC :1.79325: L2-Pf-HR :0.89664: L2-HR :0.86361: (Sim:0h44m49s) 
CPU  0 inst:  255000000 cyc:  142066142 now IPC :1.79824: AVG IPC :1.79326: L2-Pf-HR :0.89684: L2-HR :0.86375: (Sim:0h45m5s) 
CPU  0 inst:  256000002 cyc:  142637048 now IPC :1.75161: AVG IPC :1.79310: L2-Pf-HR :0.89690: L2-HR :0.86379: (Sim:0h45m22s) 
CPU  0 inst:  257000005 cyc:  143184854 now IPC :1.82547: AVG IPC :1.79322: L2-Pf-HR :0.89691: L2-HR :0.86376: (Sim:0h45m39s) 
CPU  0 inst:  258000000 cyc:  146530259 now IPC :0.29892: AVG IPC :1.75888: L2-Pf-HR :0.89076: L2-HR :0.85344: (Sim:0h46m14s) 
CPU  0 inst:  259000002 cyc:  151233540 now IPC :0.21262: AVG IPC :1.71047: L2-Pf-HR :0.88231: L2-HR :0.84113: (Sim:0h46m59s) 
CPU  0 inst:  260000001 cyc:  156333084 now IPC :0.19610: AVG IPC :1.66076: L2-Pf-HR :0.87400: L2-HR :0.82977: (Sim:0h47m47s) 
CPU  0 inst:  261000000 cyc:  161433474 now IPC :0.19606: AVG IPC :1.61420: L2-Pf-HR :0.86598: L2-HR :0.81924: (Sim:0h48m36s) 
CPU  0 inst:  262000001 cyc:  166412820 now IPC :0.20083: AVG IPC :1.57166: L2-Pf-HR :0.85842: L2-HR :0.80976: (Sim:0h49m22s) 
CPU  0 inst:  263000003 cyc:  169794859 now IPC :0.29568: AVG IPC :1.54610: L2-Pf-HR :0.85626: L2-HR :0.80809: (Sim:0h49m55s) 
CPU  0 inst:  264000001 cyc:  172951031 now IPC :0.31684: AVG IPC :1.52354: L2-Pf-HR :0.85381: L2-HR :0.80641: (Sim:0h50m27s) 
CPU  0 inst:  265000003 cyc:  176108750 now IPC :0.31668: AVG IPC :1.50178: L2-Pf-HR :0.85139: L2-HR :0.80474: (Sim:0h50m59s) 
CPU  0 inst:  266000003 cyc:  179265983 now IPC :0.31673: AVG IPC :1.48079: L2-Pf-HR :0.84897: L2-HR :0.80309: (Sim:0h51m30s) 
CPU  0 inst:  267000002 cyc:  182422084 now IPC :0.31685: AVG IPC :1.46054: L2-Pf-HR :0.84657: L2-HR :0.80144: (Sim:0h51m55s) 
CPU  0 inst:  268000002 cyc:  185579259 now IPC :0.31674: AVG IPC :1.44098: L2-Pf-HR :0.84418: L2-HR :0.79981: (Sim:0h52m10s) 
CPU  0 inst:  269000001 cyc:  188736755 now IPC :0.31671: AVG IPC :1.42207: L2-Pf-HR :0.84180: L2-HR :0.79819: (Sim:0h52m24s) 
CPU  0 inst:  270000000 cyc:  191893408 now IPC :0.31679: AVG IPC :1.40380: L2-Pf-HR :0.83944: L2-HR :0.79658: (Sim:0h52m39s) 
CPU  0 inst:  271000001 cyc:  195049920 now IPC :0.31681: AVG IPC :1.38612: L2-Pf-HR :0.83708: L2-HR :0.79498: (Sim:0h52m53s) 
CPU  0 inst:  272000000 cyc:  198205398 now IPC :0.31691: AVG IPC :1.36901: L2-Pf-HR :0.83474: L2-HR :0.79339: (Sim:0h53m8s) 
CPU  0 inst:  273000003 cyc:  201361434 now IPC :0.31685: AVG IPC :1.35244: L2-Pf-HR :0.83241: L2-HR :0.79181: (Sim:0h53m22s) 
CPU  0 inst:  274000003 cyc:  204519051 now IPC :0.31669: AVG IPC :1.33637: L2-Pf-HR :0.83009: L2-HR :0.79025: (Sim:0h53m43s) 
CPU  0 inst:  275000002 cyc:  207676258 now IPC :0.31674: AVG IPC :1.32080: L2-Pf-HR :0.82779: L2-HR :0.78869: (Sim:0h54m3s) 
CPU  0 inst:  276000002 cyc:  210832301 now IPC :0.31685: AVG IPC :1.30570: L2-Pf-HR :0.82550: L2-HR :0.78715: (Sim:0h54m17s) 
CPU  0 inst:  277000001 cyc:  213989647 now IPC :0.31672: AVG IPC :1.29104: L2-Pf-HR :0.82322: L2-HR :0.78561: (Sim:0h54m34s) 
CPU  0 inst:  278000000 cyc:  217147343 now IPC :0.31669: AVG IPC :1.27680: L2-Pf-HR :0.82096: L2-HR :0.78409: (Sim:0h54m51s) 
CPU  0 inst:  279000000 cyc:  220303628 now IPC :0.31683: AVG IPC :1.26299: L2-Pf-HR :0.81871: L2-HR :0.78257: (Sim:0h55m6s) 
CPU  0 inst:  280000003 cyc:  223460759 now IPC :0.31674: AVG IPC :1.24956: L2-Pf-HR :0.81647: L2-HR :0.78107: (Sim:0h55m23s) 
CPU  0 inst:  281000003 cyc:  226616577 now IPC :0.31688: AVG IPC :1.23652: L2-Pf-HR :0.81424: L2-HR :0.77958: (Sim:0h55m38s) 
CPU  0 inst:  282000001 cyc:  229772490 now IPC :0.31686: AVG IPC :1.22383: L2-Pf-HR :0.81202: L2-HR :0.77809: (Sim:0h55m52s) 
CPU  0 inst:  283000002 cyc:  232929363 now IPC :0.31677: AVG IPC :1.21149: L2-Pf-HR :0.80982: L2-HR :0.77662: (Sim:0h56m7s) 
CPU  0 inst:  284000002 cyc:  236086555 now IPC :0.31674: AVG IPC :1.19947: L2-Pf-HR :0.80763: L2-HR :0.77515: (Sim:0h56m21s) 
CPU  0 inst:  285000001 cyc:  239242630 now IPC :0.31685: AVG IPC :1.18778: L2-Pf-HR :0.80545: L2-HR :0.77370: (Sim:0h56m36s) 
CPU  0 inst:  286000000 cyc:  242400015 now IPC :0.31672: AVG IPC :1.17639: L2-Pf-HR :0.80328: L2-HR :0.77225: (Sim:0h56m50s) 
CPU  0 inst:  287000000 cyc:  245557711 now IPC :0.31669: AVG IPC :1.16529: L2-Pf-HR :0.80112: L2-HR :0.77082: (Sim:0h57m19s) 
CPU  0 inst:  288000000 cyc:  248713894 now IPC :0.31684: AVG IPC :1.15448: L2-Pf-HR :0.79898: L2-HR :0.76939: (Sim:0h57m49s) 
CPU  0 inst:  289000001 cyc:  251871053 now IPC :0.31674: AVG IPC :1.14394: L2-Pf-HR :0.79685: L2-HR :0.76797: (Sim:0h58m19s) 
CPU  0 inst:  290000003 cyc:  255027731 now IPC :0.31679: AVG IPC :1.13366: L2-Pf-HR :0.79472: L2-HR :0.76656: (Sim:0h58m49s) 
CPU  0 inst:  291000003 cyc:  258183609 now IPC :0.31687: AVG IPC :1.12364: L2-Pf-HR :0.79261: L2-HR :0.76516: (Sim:0h59m20s) 
CPU  0 inst:  292000002 cyc:  261340202 now IPC :0.31680: AVG IPC :1.11385: L2-Pf-HR :0.79051: L2-HR :0.76377: (Sim:0h59m50s) 
CPU  0 inst:  293000001 cyc:  264496867 now IPC :0.31679: AVG IPC :1.10430: L2-Pf-HR :0.78842: L2-HR :0.76239: (Sim:1h0m20s) 
CPU  0 inst:  294000000 cyc:  267652954 now IPC :0.31685: AVG IPC :1.09499: L2-Pf-HR :0.78634: L2-HR :0.76102: (Sim:1h0m50s) 
CPU  0 inst:  295000000 cyc:  270810412 now IPC :0.31671: AVG IPC :1.08588: L2-Pf-HR :0.78428: L2-HR :0.75966: (Sim:1h1m21s) 
CPU  0 inst:  296000000 cyc:  273968082 now IPC :0.31669: AVG IPC :1.07698: L2-Pf-HR :0.78222: L2-HR :0.75830: (Sim:1h1m51s) 
CPU  0 inst:  297000001 cyc:  277124145 now IPC :0.31685: AVG IPC :1.06829: L2-Pf-HR :0.78018: L2-HR :0.75696: (Sim:1h2m21s) 
CPU  0 inst:  298000003 cyc:  280281313 now IPC :0.31674: AVG IPC :1.05980: L2-Pf-HR :0.77814: L2-HR :0.75562: (Sim:1h2m51s) 
CPU  0 inst:  299000003 cyc:  283438460 now IPC :0.31674: AVG IPC :1.05149: L2-Pf-HR :0.77612: L2-HR :0.75429: (Sim:1h3m22s) 
CPU  0 inst:  300000003 cyc:  286595202 now IPC :0.31678: AVG IPC :1.04337: L2-Pf-HR :0.77411: L2-HR :0.75297: (Sim:1h3m52s) 
CPU  0 inst:  301000000 cyc:  289751192 now IPC :0.31686: AVG IPC :1.03543: L2-Pf-HR :0.77211: L2-HR :0.75166: (Sim:1h4m22s) 
CPU  0 inst:  302000000 cyc:  292907491 now IPC :0.31683: AVG IPC :1.02766: L2-Pf-HR :0.77011: L2-HR :0.75035: (Sim:1h4m52s) 
CPU  0 inst:  303000000 cyc:  296063314 now IPC :0.31687: AVG IPC :1.02006: L2-Pf-HR :0.76813: L2-HR :0.74906: (Sim:1h5m22s) 
CPU  0 inst:  304000000 cyc:  299220839 now IPC :0.31670: AVG IPC :1.01261: L2-Pf-HR :0.76616: L2-HR :0.74777: (Sim:1h5m38s) 
CPU  0 inst:  305000001 cyc:  302378311 now IPC :0.31671: AVG IPC :1.00532: L2-Pf-HR :0.76419: L2-HR :0.74649: (Sim:1h5m53s) 
CPU  0 inst:  306000003 cyc:  305534430 now IPC :0.31685: AVG IPC :0.99819: L2-Pf-HR :0.76224: L2-HR :0.74522: (Sim:1h6m7s) 
CPU  0 inst:  307000003 cyc:  308691545 now IPC :0.31674: AVG IPC :0.99120: L2-Pf-HR :0.76030: L2-HR :0.74395: (Sim:1h6m22s) 
CPU  0 inst:  308000002 cyc:  311848854 now IPC :0.31673: AVG IPC :0.98435: L2-Pf-HR :0.75837: L2-HR :0.74270: (Sim:1h6m37s) 
CPU  0 inst:  309000002 cyc:  315005801 now IPC :0.31676: AVG IPC :0.97764: L2-Pf-HR :0.75645: L2-HR :0.74145: (Sim:1h7m9s) 
CPU  0 inst:  310000003 cyc:  318162522 now IPC :0.31678: AVG IPC :0.97106: L2-Pf-HR :0.75453: L2-HR :0.74020: (Sim:1h7m41s) 
CPU  0 inst:  311000002 cyc:  321317947 now IPC :0.31691: AVG IPC :0.96461: L2-Pf-HR :0.75263: L2-HR :0.73897: (Sim:1h8m12s) 
CPU  0 inst:  312000003 cyc:  324473963 now IPC :0.31686: AVG IPC :0.95829: L2-Pf-HR :0.75074: L2-HR :0.73774: (Sim:1h8m43s) 
CPU  0 inst:  313000001 cyc:  327631375 now IPC :0.31671: AVG IPC :0.95209: L2-Pf-HR :0.74885: L2-HR :0.73652: (Sim:1h9m14s) 
CPU  0 inst:  314000003 cyc:  330788618 now IPC :0.31673: AVG IPC :0.94601: L2-Pf-HR :0.74698: L2-HR :0.73531: (Sim:1h9m45s) 
CPU  0 inst:  315000003 cyc:  333944680 now IPC :0.31685: AVG IPC :0.94005: L2-Pf-HR :0.74511: L2-HR :0.73411: (Sim:1h10m17s) 
CPU  0 inst:  316000000 cyc:  337101886 now IPC :0.31673: AVG IPC :0.93419: L2-Pf-HR :0.74326: L2-HR :0.73291: (Sim:1h10m48s) 
CPU  0 inst:  317000002 cyc:  340259386 now IPC :0.31671: AVG IPC :0.92845: L2-Pf-HR :0.74142: L2-HR :0.73172: (Sim:1h11m19s) 
CPU  0 inst:  318000001 cyc:  343416061 now IPC :0.31679: AVG IPC :0.92281: L2-Pf-HR :0.73958: L2-HR :0.73054: (Sim:1h11m50s) 
CPU  0 inst:  319000000 cyc:  346573220 now IPC :0.31674: AVG IPC :0.91727: L2-Pf-HR :0.73775: L2-HR :0.72936: (Sim:1h12m21s) 
CPU  0 inst:  320000003 cyc:  349729171 now IPC :0.31686: AVG IPC :0.91184: L2-Pf-HR :0.73593: L2-HR :0.72819: (Sim:1h12m52s) 
CPU  0 inst:  321000000 cyc:  352884642 now IPC :0.31691: AVG IPC :0.90650: L2-Pf-HR :0.73412: L2-HR :0.72703: (Sim:1h13m24s) 
CPU  0 inst:  322000001 cyc:  356041944 now IPC :0.31673: AVG IPC :0.90126: L2-Pf-HR :0.73232: L2-HR :0.72587: (Sim:1h13m55s) 
CPU  0 inst:  323000003 cyc:  359198894 now IPC :0.31676: AVG IPC :0.89611: L2-Pf-HR :0.73052: L2-HR :0.72472: (Sim:1h14m26s) 
CPU  0 inst:  324000002 cyc:  362354920 now IPC :0.31685: AVG IPC :0.89105: L2-Pf-HR :0.72874: L2-HR :0.72358: (Sim:1h14m57s) 
CPU  0 inst:  325000002 cyc:  365512277 now IPC :0.31672: AVG IPC :0.88607: L2-Pf-HR :0.72697: L2-HR :0.72245: (Sim:1h15m28s) 
CPU  0 inst:  326000001 cyc:  368670022 now IPC :0.31668: AVG IPC :0.88118: L2-Pf-HR :0.72520: L2-HR :0.72132: (Sim:1h16m0s) 
CPU  0 inst:  327000001 cyc:  370181467 now IPC :0.66162: AVG IPC :0.88028: L2-Pf-HR :0.72417: L2-HR :0.72047: (Sim:1h16m26s) 
CPU  0 inst:  328000000 cyc:  370690592 now IPC :1.96415: AVG IPC :0.88178: L2-Pf-HR :0.72476: L2-HR :0.72089: (Sim:1h16m46s) 
CPU  0 inst:  329000004 cyc:  371235484 now IPC :1.83523: AVG IPC :0.88318: L2-Pf-HR :0.72540: L2-HR :0.72137: (Sim:1h17m5s) 
CPU  0 inst:  330000002 cyc:  371809574 now IPC :1.74188: AVG IPC :0.88451: L2-Pf-HR :0.72582: L2-HR :0.72177: (Sim:1h17m24s) 
CPU  0 inst:  331000004 cyc:  372272582 now IPC :2.15979: AVG IPC :0.88610: L2-Pf-HR :0.72660: L2-HR :0.72233: (Sim:1h17m43s) 
CPU  0 inst:  332000002 cyc:  372775266 now IPC :1.98932: AVG IPC :0.88759: L2-Pf-HR :0.72743: L2-HR :0.72298: (Sim:1h18m1s) 
CPU  0 inst:  333000003 cyc:  373292578 now IPC :1.93307: AVG IPC :0.88904: L2-Pf-HR :0.72821: L2-HR :0.72360: (Sim:1h18m19s) 
CPU  0 inst:  334000002 cyc:  373755303 now IPC :2.16111: AVG IPC :0.89062: L2-Pf-HR :0.72899: L2-HR :0.72420: (Sim:1h18m38s) 
CPU  0 inst:  335000000 cyc:  374406190 now IPC :1.53636: AVG IPC :0.89175: L2-Pf-HR :0.72923: L2-HR :0.72464: (Sim:1h18m58s) 
CPU  0 inst:  336000000 cyc:  374878262 now IPC :2.11832: AVG IPC :0.89330: L2-Pf-HR :0.72982: L2-HR :0.72511: (Sim:1h19m15s) 
CPU  0 inst:  337000002 cyc:  375360942 now IPC :2.07177: AVG IPC :0.89482: L2-Pf-HR :0.73053: L2-HR :0.72563: (Sim:1h19m34s) 
CPU  0 inst:  338000000 cyc:  376020455 now IPC :1.51627: AVG IPC :0.89591: L2-Pf-HR :0.73063: L2-HR :0.72595: (Sim:1h19m53s) 
CPU  0 inst:  339000003 cyc:  376488560 now IPC :2.13628: AVG IPC :0.89746: L2-Pf-HR :0.73154: L2-HR :0.72661: (Sim:1h20m12s) 
CPU  0 inst:  340000004 cyc:  376955033 now IPC :2.14375: AVG IPC :0.89900: L2-Pf-HR :0.73232: L2-HR :0.72715: (Sim:1h20m31s) 
CPU  0 inst:  341000004 cyc:  377453898 now IPC :2.00455: AVG IPC :0.90047: L2-Pf-HR :0.73307: L2-HR :0.72775: (Sim:1h20m48s) 
CPU  0 inst:  342000002 cyc:  377994232 now IPC :1.85070: AVG IPC :0.90183: L2-Pf-HR :0.73378: L2-HR :0.72834: (Sim:1h21m7s) 
CPU  0 inst:  343000005 cyc:  378478160 now IPC :2.06643: AVG IPC :0.90332: L2-Pf-HR :0.73460: L2-HR :0.72898: (Sim:1h21m25s) 
CPU  0 inst:  344000005 cyc:  379112624 now IPC :1.57613: AVG IPC :0.90445: L2-Pf-HR :0.73466: L2-HR :0.72924: (Sim:1h21m44s) 
CPU  0 inst:  345000004 cyc:  379600996 now IPC :2.04762: AVG IPC :0.90593: L2-Pf-HR :0.73536: L2-HR :0.72972: (Sim:1h22m3s) 
CPU  0 inst:  346000004 cyc:  380124781 now IPC :1.90918: AVG IPC :0.90731: L2-Pf-HR :0.73598: L2-HR :0.73020: (Sim:1h22m20s) 
CPU  0 inst:  347000001 cyc:  380719282 now IPC :1.68208: AVG IPC :0.90852: L2-Pf-HR :0.73631: L2-HR :0.73067: (Sim:1h22m39s) 
CPU  0 inst:  348000001 cyc:  381181491 now IPC :2.16352: AVG IPC :0.91005: L2-Pf-HR :0.73711: L2-HR :0.73123: (Sim:1h22m57s) 
CPU  0 inst:  349000004 cyc:  381692191 now IPC :1.95810: AVG IPC :0.91146: L2-Pf-HR :0.73786: L2-HR :0.73180: (Sim:1h23m15s) 
CPU  0 inst:  350000004 cyc:  382220353 now IPC :1.89336: AVG IPC :0.91282: L2-Pf-HR :0.73847: L2-HR :0.73232: (Sim:1h23m33s) 
CPU  0 inst:  351000000 cyc:  382688319 now IPC :2.13690: AVG IPC :0.91432: L2-Pf-HR :0.73925: L2-HR :0.73291: (Sim:1h23m52s) 
CPU  0 inst:  352000002 cyc:  383330919 now IPC :1.55618: AVG IPC :0.91540: L2-Pf-HR :0.73943: L2-HR :0.73324: (Sim:1h24m12s) 
CPU  0 inst:  353000000 cyc:  383813292 now IPC :2.07308: AVG IPC :0.91685: L2-Pf-HR :0.74003: L2-HR :0.73372: (Sim:1h24m29s) 
CPU  0 inst:  354000002 cyc:  384291832 now IPC :2.08969: AVG IPC :0.91832: L2-Pf-HR :0.74076: L2-HR :0.73424: (Sim:1h24m47s) 
CPU  0 inst:  355000004 cyc:  384946346 now IPC :1.52785: AVG IPC :0.91936: L2-Pf-HR :0.74083: L2-HR :0.73452: (Sim:1h25m8s) 
CPU  0 inst:  356000005 cyc:  385424030 now IPC :2.09344: AVG IPC :0.92082: L2-Pf-HR :0.74165: L2-HR :0.73510: (Sim:1h25m29s) 
CPU  0 inst:  357000002 cyc:  385903923 now IPC :2.08379: AVG IPC :0.92227: L2-Pf-HR :0.74236: L2-HR :0.73561: (Sim:1h25m50s) 
CPU  0 inst:  358000005 cyc:  386429821 now IPC :1.90152: AVG IPC :0.92360: L2-Pf-HR :0.74291: L2-HR :0.73609: (Sim:1h26m7s) 
CPU  0 inst:  359000000 cyc:  386954803 now IPC :1.90482: AVG IPC :0.92494: L2-Pf-HR :0.74358: L2-HR :0.73666: (Sim:1h26m28s) 
CPU  0 inst:  360000000 cyc:  387445415 now IPC :2.03827: AVG IPC :0.92635: L2-Pf-HR :0.74430: L2-HR :0.73723: (Sim:1h26m45s) 
CPU  0 inst:  361000003 cyc:  388053631 now IPC :1.64416: AVG IPC :0.92748: L2-Pf-HR :0.74442: L2-HR :0.73744: (Sim:1h27m5s) 
CPU  0 inst:  362000001 cyc:  388523417 now IPC :2.12862: AVG IPC :0.92893: L2-Pf-HR :0.74503: L2-HR :0.73789: (Sim:1h27m23s) 
CPU  0 inst:  363000002 cyc:  389055603 now IPC :1.87904: AVG IPC :0.93024: L2-Pf-HR :0.74558: L2-HR :0.73831: (Sim:1h27m40s) 
CPU  0 inst:  364000004 cyc:  389617310 now IPC :1.78029: AVG IPC :0.93147: L2-Pf-HR :0.74599: L2-HR :0.73875: (Sim:1h28m0s) 
CPU  0 inst:  365000001 cyc:  390082355 now IPC :2.15032: AVG IPC :0.93292: L2-Pf-HR :0.74669: L2-HR :0.73924: (Sim:1h28m19s) 
CPU  0 inst:  366000003 cyc:  390591329 now IPC :1.96474: AVG IPC :0.93427: L2-Pf-HR :0.74730: L2-HR :0.73975: (Sim:1h28m38s) 
CPU  0 inst:  367000003 cyc:  391095466 now IPC :1.98359: AVG IPC :0.93563: L2-Pf-HR :0.74785: L2-HR :0.74023: (Sim:1h28m56s) 
CPU  0 inst:  368000003 cyc:  391566563 now IPC :2.12270: AVG IPC :0.93706: L2-Pf-HR :0.74859: L2-HR :0.74080: (Sim:1h29m14s) 
CPU  0 inst:  369000003 cyc:  392158924 now IPC :1.68816: AVG IPC :0.93820: L2-Pf-HR :0.74869: L2-HR :0.74101: (Sim:1h29m33s) 
CPU  0 inst:  370000002 cyc:  392616456 now IPC :2.18564: AVG IPC :0.93965: L2-Pf-HR :0.74928: L2-HR :0.74150: (Sim:1h29m49s) 
CPU  0 inst:  371000004 cyc:  393126351 now IPC :1.96119: AVG IPC :0.94098: L2-Pf-HR :0.74991: L2-HR :0.74194: (Sim:1h30m9s) 
CPU  0 inst:  372000005 cyc:  393693109 now IPC :1.76442: AVG IPC :0.94217: L2-Pf-HR :0.75012: L2-HR :0.74221: (Sim:1h30m27s) 
CPU  0 inst:  373000001 cyc:  394149972 now IPC :2.18883: AVG IPC :0.94362: L2-Pf-HR :0.75087: L2-HR :0.74274: (Sim:1h30m45s) 
CPU  0 inst:  374000002 cyc:  394616410 now IPC :2.14391: AVG IPC :0.94504: L2-Pf-HR :0.75160: L2-HR :0.74327: (Sim:1h31m4s) 
CPU  0 inst:  375000002 cyc:  395146655 now IPC :1.88592: AVG IPC :0.94631: L2-Pf-HR :0.75203: L2-HR :0.74365: (Sim:1h31m22s) 
CPU  0 inst:  376000004 cyc:  395603222 now IPC :2.19026: AVG IPC :0.94775: L2-Pf-HR :0.75272: L2-HR :0.74422: (Sim:1h31m40s) 
CPU  0 inst:  377000001 cyc:  396077688 now IPC :2.10763: AVG IPC :0.94914: L2-Pf-HR :0.75335: L2-HR :0.74473: (Sim:1h31m57s) 
CPU  0 inst:  378000003 cyc:  396657046 now IPC :1.72605: AVG IPC :0.95028: L2-Pf-HR :0.75345: L2-HR :0.74491: (Sim:1h32m16s) 
CPU  0 inst:  379000001 cyc:  397106884 now IPC :2.22302: AVG IPC :0.95172: L2-Pf-HR :0.75399: L2-HR :0.74533: (Sim:1h32m33s) 
CPU  0 inst:  380000003 cyc:  397622600 now IPC :1.93906: AVG IPC :0.95301: L2-Pf-HR :0.75451: L2-HR :0.74571: (Sim:1h32m50s) 
CPU  0 inst:  381000000 cyc:  398161711 now IPC :1.85490: AVG IPC :0.95423: L2-Pf-HR :0.75492: L2-HR :0.74611: (Sim:1h33m10s) 
CPU  0 inst:  382000001 cyc:  398627547 now IPC :2.14668: AVG IPC :0.95563: L2-Pf-HR :0.75559: L2-HR :0.74657: (Sim:1h33m29s) 
CPU  0 inst:  383000000 cyc:  399106371 now IPC :2.08845: AVG IPC :0.95699: L2-Pf-HR :0.75618: L2-HR :0.74707: (Sim:1h33m46s) 
CPU  0 inst:  384000005 cyc:  399605146 now IPC :2.00492: AVG IPC :0.95830: L2-Pf-HR :0.75669: L2-HR :0.74750: (Sim:1h34m4s) 
CPU  0 inst:  385000002 cyc:  400083770 now IPC :2.08932: AVG IPC :0.95966: L2-Pf-HR :0.75736: L2-HR :0.74803: (Sim:1h34m22s) 
CPU  0 inst:  386000001 cyc:  400649263 now IPC :1.76837: AVG IPC :0.96080: L2-Pf-HR :0.75745: L2-HR :0.74818: (Sim:1h34m40s) 
CPU  0 inst:  387000002 cyc:  401098664 now IPC :2.22519: AVG IPC :0.96222: L2-Pf-HR :0.75799: L2-HR :0.74864: (Sim:1h34m56s) 
CPU  0 inst:  388000000 cyc:  401605013 now IPC :1.97492: AVG IPC :0.96350: L2-Pf-HR :0.75850: L2-HR :0.74903: (Sim:1h35m15s) 
CPU  0 inst:  389000004 cyc:  402158482 now IPC :1.80679: AVG IPC :0.96466: L2-Pf-HR :0.75872: L2-HR :0.74929: (Sim:1h35m33s) 
CPU  0 inst:  390000001 cyc:  402624741 now IPC :2.14472: AVG IPC :0.96603: L2-Pf-HR :0.75940: L2-HR :0.74977: (Sim:1h35m53s) 
CPU  0 inst:  391000003 cyc:  403105481 now IPC :2.08013: AVG IPC :0.96737: L2-Pf-HR :0.76006: L2-HR :0.75025: (Sim:1h36m12s) 
CPU  0 inst:  392000001 cyc:  403614995 now IPC :1.96265: AVG IPC :0.96863: L2-Pf-HR :0.76040: L2-HR :0.75059: (Sim:1h36m29s) 
CPU  0 inst:  393000000 cyc:  404071032 now IPC :2.19280: AVG IPC :0.97001: L2-Pf-HR :0.76101: L2-HR :0.75110: (Sim:1h36m47s) 
CPU  0 inst:  394000001 cyc:  404569842 now IPC :2.00477: AVG IPC :0.97129: L2-Pf-HR :0.76151: L2-HR :0.75150: (Sim:1h37m5s) 
CPU  0 inst:  395000000 cyc:  405120956 now IPC :1.81450: AVG IPC :0.97244: L2-Pf-HR :0.76166: L2-HR :0.75169: (Sim:1h37m23s) 
CPU  0 inst:  396000000 cyc:  405564609 now IPC :2.25401: AVG IPC :0.97384: L2-Pf-HR :0.76215: L2-HR :0.75209: (Sim:1h37m39s) 
CPU  0 inst:  397000000 cyc:  406073354 now IPC :1.96562: AVG IPC :0.97509: L2-Pf-HR :0.76254: L2-HR :0.75242: (Sim:1h37m56s) 
CPU  0 inst:  398000002 cyc:  406613762 now IPC :1.85046: AVG IPC :0.97626: L2-Pf-HR :0.76296: L2-HR :0.75279: (Sim:1h38m15s) 
CPU  0 inst:  399000000 cyc:  407078922 now IPC :2.14979: AVG IPC :0.97760: L2-Pf-HR :0.76355: L2-HR :0.75321: (Sim:1h38m34s) 
CPU  0 inst:  400000000 cyc:  407561207 now IPC :2.07346: AVG IPC :0.97890: L2-Pf-HR :0.76411: L2-HR :0.75367: (Sim:1h38m50s) 
CPU  0 inst:  401000002 cyc:  408074783 now IPC :1.94714: AVG IPC :0.98012: L2-Pf-HR :0.76457: L2-HR :0.75406: (Sim:1h39m8s) 
CPU  0 inst:  402000002 cyc:  408555359 now IPC :2.08084: AVG IPC :0.98142: L2-Pf-HR :0.76517: L2-HR :0.75456: (Sim:1h39m25s) 
CPU  0 inst:  403000001 cyc:  409128904 now IPC :1.74354: AVG IPC :0.98249: L2-Pf-HR :0.76510: L2-HR :0.75468: (Sim:1h39m33s) 
CPU  0 inst:  404000001 cyc:  409581458 now IPC :2.20968: AVG IPC :0.98385: L2-Pf-HR :0.76560: L2-HR :0.75508: (Sim:1h39m41s) 
CPU  0 inst:  405000002 cyc:  410091225 now IPC :1.96168: AVG IPC :0.98507: L2-Pf-HR :0.76608: L2-HR :0.75544: (Sim:1h39m50s) 
CPU  0 inst:  406000004 cyc:  410612855 now IPC :1.91707: AVG IPC :0.98626: L2-Pf-HR :0.76628: L2-HR :0.75568: (Sim:1h39m58s) 
CPU  0 inst:  407000002 cyc:  411077566 now IPC :2.15187: AVG IPC :0.98758: L2-Pf-HR :0.76692: L2-HR :0.75613: (Sim:1h40m7s) 
CPU  0 inst:  408000002 cyc:  411561059 now IPC :2.06828: AVG IPC :0.98885: L2-Pf-HR :0.76755: L2-HR :0.75659: (Sim:1h40m15s) 
CPU  0 inst:  409000002 cyc:  412048958 now IPC :2.04960: AVG IPC :0.99011: L2-Pf-HR :0.76791: L2-HR :0.75694: (Sim:1h40m23s) 
CPU  0 inst:  410000002 cyc:  412510196 now IPC :2.16808: AVG IPC :0.99143: L2-Pf-HR :0.76848: L2-HR :0.75739: (Sim:1h40m32s) 
CPU  0 inst:  411000001 cyc:  413054016 now IPC :1.83884: AVG IPC :0.99255: L2-Pf-HR :0.76877: L2-HR :0.75771: (Sim:1h40m39s) 
CPU  0 inst:  412000000 cyc:  413575681 now IPC :1.91694: AVG IPC :0.99372: L2-Pf-HR :0.76901: L2-HR :0.75793: (Sim:1h40m49s) 
CPU  0 inst:  413000001 cyc:  414031489 now IPC :2.19391: AVG IPC :0.99504: L2-Pf-HR :0.76945: L2-HR :0.75828: (Sim:1h40m56s) 
CPU  0 inst:  414000002 cyc:  414550483 now IPC :1.92681: AVG IPC :0.99621: L2-Pf-HR :0.76983: L2-HR :0.75858: (Sim:1h41m4s) 
CPU  0 inst:  415000000 cyc:  415084837 now IPC :1.87141: AVG IPC :0.99734: L2-Pf-HR :0.77009: L2-HR :0.75894: (Sim:1h41m15s) 
CPU  0 inst:  416000005 cyc:  415536230 now IPC :2.21538: AVG IPC :0.99866: L2-Pf-HR :0.77067: L2-HR :0.75937: (Sim:1h41m33s) 
CPU  0 inst:  417000000 cyc:  416015113 now IPC :2.08818: AVG IPC :0.99992: L2-Pf-HR :0.77117: L2-HR :0.75979: (Sim:1h41m49s) 
CPU  0 inst:  418000001 cyc:  416518615 now IPC :1.98609: AVG IPC :1.00112: L2-Pf-HR :0.77161: L2-HR :0.76016: (Sim:1h42m7s) 
CPU  0 inst:  419000002 cyc:  416997023 now IPC :2.09027: AVG IPC :1.00237: L2-Pf-HR :0.77218: L2-HR :0.76063: (Sim:1h42m24s) 
CPU  0 inst:  420000005 cyc:  417583071 now IPC :1.70635: AVG IPC :1.00336: L2-Pf-HR :0.77206: L2-HR :0.76071: (Sim:1h42m43s) 
CPU  0 inst:  421000000 cyc:  418031307 now IPC :2.23096: AVG IPC :1.00468: L2-Pf-HR :0.77254: L2-HR :0.76111: (Sim:1h42m59s) 
CPU  0 inst:  422000002 cyc:  418542811 now IPC :1.95502: AVG IPC :1.00584: L2-Pf-HR :0.77294: L2-HR :0.76142: (Sim:1h43m17s) 
CPU  0 inst:  423000000 cyc:  419070726 now IPC :1.89424: AVG IPC :1.00696: L2-Pf-HR :0.77308: L2-HR :0.76165: (Sim:1h43m35s) 
CPU  0 inst:  424000003 cyc:  419533453 now IPC :2.16111: AVG IPC :1.00824: L2-Pf-HR :0.77364: L2-HR :0.76206: (Sim:1h43m53s) 
CPU  0 inst:  425000004 cyc:  420017338 now IPC :2.06661: AVG IPC :1.00946: L2-Pf-HR :0.77415: L2-HR :0.76249: (Sim:1h44m10s) 
CPU  0 inst:  426000001 cyc:  420504428 now IPC :2.05300: AVG IPC :1.01067: L2-Pf-HR :0.77450: L2-HR :0.76280: (Sim:1h44m27s) 
CPU  0 inst:  427000002 cyc:  420965668 now IPC :2.16807: AVG IPC :1.01195: L2-Pf-HR :0.77499: L2-HR :0.76320: (Sim:1h44m44s) 
CPU  0 inst:  428000002 cyc:  421547118 now IPC :1.71984: AVG IPC :1.01292: L2-Pf-HR :0.77516: L2-HR :0.76344: (Sim:1h45m3s) 
CPU  0 inst:  429000000 cyc:  422054364 now IPC :1.97143: AVG IPC :1.01408: L2-Pf-HR :0.77548: L2-HR :0.76368: (Sim:1h45m21s) 
CPU  0 inst:  430000003 cyc:  422526555 now IPC :2.11779: AVG IPC :1.01532: L2-Pf-HR :0.77586: L2-HR :0.76400: (Sim:1h45m40s) 
CPU  0 inst:  431000000 cyc:  423051916 now IPC :1.90345: AVG IPC :1.01642: L2-Pf-HR :0.77613: L2-HR :0.76422: (Sim:1h45m56s) 
CPU  0 inst:  432000005 cyc:  423574442 now IPC :1.91379: AVG IPC :1.01753: L2-Pf-HR :0.77647: L2-HR :0.76456: (Sim:1h46m16s) 
CPU  0 inst:  433000003 cyc:  424027504 now IPC :2.20720: AVG IPC :1.01880: L2-Pf-HR :0.77694: L2-HR :0.76491: (Sim:1h46m33s) 
CPU  0 inst:  434000000 cyc:  424502484 now IPC :2.10535: AVG IPC :1.02002: L2-Pf-HR :0.77736: L2-HR :0.76529: (Sim:1h46m49s) 
CPU  0 inst:  435000000 cyc:  425006961 now IPC :1.98225: AVG IPC :1.02117: L2-Pf-HR :0.77775: L2-HR :0.76563: (Sim:1h47m7s) 
CPU  0 inst:  436000003 cyc:  425477342 now IPC :2.12594: AVG IPC :1.02239: L2-Pf-HR :0.77825: L2-HR :0.76605: (Sim:1h47m23s) 
CPU  0 inst:  437000004 cyc:  426061002 now IPC :1.71333: AVG IPC :1.02334: L2-Pf-HR :0.77816: L2-HR :0.76608: (Sim:1h47m41s) 
CPU  0 inst:  438000002 cyc:  426505917 now IPC :2.24762: AVG IPC :1.02462: L2-Pf-HR :0.77860: L2-HR :0.76646: (Sim:1h47m57s) 
CPU  0 inst:  439000001 cyc:  427013326 now IPC :1.97079: AVG IPC :1.02575: L2-Pf-HR :0.77899: L2-HR :0.76678: (Sim:1h48m13s) 
CPU  0 inst:  440000003 cyc:  427564431 now IPC :1.81454: AVG IPC :1.02677: L2-Pf-HR :0.77917: L2-HR :0.76699: (Sim:1h48m32s) 
CPU  0 inst:  441000003 cyc:  428018846 now IPC :2.20063: AVG IPC :1.02802: L2-Pf-HR :0.77965: L2-HR :0.76736: (Sim:1h48m49s) 
CPU  0 inst:  442000003 cyc:  428504639 now IPC :2.05849: AVG IPC :1.02919: L2-Pf-HR :0.78009: L2-HR :0.76771: (Sim:1h49m6s) 
CPU  0 inst:  443000005 cyc:  429007070 now IPC :1.99033: AVG IPC :1.03032: L2-Pf-HR :0.78041: L2-HR :0.76801: (Sim:1h49m23s) 
CPU  0 inst:  444000001 cyc:  429461400 now IPC :2.20103: AVG IPC :1.03156: L2-Pf-HR :0.78086: L2-HR :0.76838: (Sim:1h49m40s) 
CPU  0 inst:  445000003 cyc:  430028694 now IPC :1.76276: AVG IPC :1.03252: L2-Pf-HR :0.78089: L2-HR :0.76853: (Sim:1h49m58s) 
CPU  0 inst:  446000002 cyc:  430497188 now IPC :2.13450: AVG IPC :1.03373: L2-Pf-HR :0.78123: L2-HR :0.76882: (Sim:1h50m14s) 
CPU  0 inst:  447000003 cyc:  430949118 now IPC :2.21273: AVG IPC :1.03496: L2-Pf-HR :0.78161: L2-HR :0.76917: (Sim:1h50m30s) 
CPU  0 inst:  448000004 cyc:  431500949 now IPC :1.81215: AVG IPC :1.03596: L2-Pf-HR :0.78172: L2-HR :0.76929: (Sim:1h50m46s) 
CPU  0 inst:  449000000 cyc:  431985686 now IPC :2.06297: AVG IPC :1.03712: L2-Pf-HR :0.78219: L2-HR :0.76967: (Sim:1h51m5s) 
CPU  0 inst:  450000001 cyc:  432437599 now IPC :2.21282: AVG IPC :1.03835: L2-Pf-HR :0.78266: L2-HR :0.77002: (Sim:1h51m22s) 
CPU  0 inst:  451000003 cyc:  432912710 now IPC :2.10478: AVG IPC :1.03952: L2-Pf-HR :0.78305: L2-HR :0.77037: (Sim:1h51m38s) 
CPU  0 inst:  452000000 cyc:  433421202 now IPC :1.96659: AVG IPC :1.04061: L2-Pf-HR :0.78342: L2-HR :0.77070: (Sim:1h51m57s) 
CPU  0 inst:  453000004 cyc:  433890505 now IPC :2.13083: AVG IPC :1.04179: L2-Pf-HR :0.78387: L2-HR :0.77108: (Sim:1h52m13s) 
CPU  0 inst:  454000002 cyc:  434505885 now IPC :1.62501: AVG IPC :1.04262: L2-Pf-HR :0.78380: L2-HR :0.77110: (Sim:1h52m32s) 
CPU  0 inst:  455000003 cyc:  434957273 now IPC :2.21539: AVG IPC :1.04384: L2-Pf-HR :0.78421: L2-HR :0.77146: (Sim:1h52m48s) 
CPU  0 inst:  456000000 cyc:  435461578 now IPC :1.98292: AVG IPC :1.04493: L2-Pf-HR :0.78449: L2-HR :0.77172: (Sim:1h53m4s) 
CPU  0 inst:  457000004 cyc:  436013943 now IPC :1.81040: AVG IPC :1.04590: L2-Pf-HR :0.78470: L2-HR :0.77194: (Sim:1h53m23s) 
CPU  0 inst:  458000004 cyc:  436466522 now IPC :2.20956: AVG IPC :1.04711: L2-Pf-HR :0.78518: L2-HR :0.77230: (Sim:1h53m40s) 
CPU  0 inst:  459000005 cyc:  436951620 now IPC :2.06144: AVG IPC :1.04824: L2-Pf-HR :0.78564: L2-HR :0.77267: (Sim:1h53m57s) 
CPU  0 inst:  460000004 cyc:  437454761 now IPC :1.98751: AVG IPC :1.04932: L2-Pf-HR :0.78594: L2-HR :0.77295: (Sim:1h54m14s) 
CPU  0 inst:  461000004 cyc:  437909265 now IPC :2.20020: AVG IPC :1.05052: L2-Pf-HR :0.78639: L2-HR :0.77331: (Sim:1h54m31s) 
CPU  0 inst:  462000003 cyc:  438490103 now IPC :1.72165: AVG IPC :1.05141: L2-Pf-HR :0.78656: L2-HR :0.77347: (Sim:1h54m49s) 
CPU  0 inst:  463000003 cyc:  438957297 now IPC :2.14044: AVG IPC :1.05257: L2-Pf-HR :0.78684: L2-HR :0.77370: (Sim:1h55m6s) 
CPU  0 inst:  464000005 cyc:  439418561 now IPC :2.16796: AVG IPC :1.05375: L2-Pf-HR :0.78722: L2-HR :0.77402: (Sim:1h55m22s) 
CPU  0 inst:  465000000 cyc:  440005346 now IPC :1.70419: AVG IPC :1.05462: L2-Pf-HR :0.78725: L2-HR :0.77409: (Sim:1h55m40s) 
CPU  0 inst:  466000003 cyc:  440458110 now IPC :2.20866: AVG IPC :1.05580: L2-Pf-HR :0.78776: L2-HR :0.77447: (Sim:1h55m57s) 
CPU  0 inst:  467000003 cyc:  440911284 now IPC :2.20666: AVG IPC :1.05699: L2-Pf-HR :0.78816: L2-HR :0.77478: (Sim:1h56m15s) 
CPU  0 inst:  468000000 cyc:  441397474 now IPC :2.05680: AVG IPC :1.05809: L2-Pf-HR :0.78854: L2-HR :0.77512: (Sim:1h56m25s) 
CPU  0 inst:  469000000 cyc:  441902560 now IPC :1.97986: AVG IPC :1.05915: L2-Pf-HR :0.78890: L2-HR :0.77544: (Sim:1h56m34s) 
CPU  0 inst:  470000005 cyc:  442375454 now IPC :2.11465: AVG IPC :1.06028: L2-Pf-HR :0.78932: L2-HR :0.77579: (Sim:1h56m41s) 
CPU  0 inst:  471000002 cyc:  442950397 now IPC :1.73930: AVG IPC :1.06116: L2-Pf-HR :0.78915: L2-HR :0.77585: (Sim:1h56m50s) 
CPU  0 inst:  472000000 cyc:  443415660 now IPC :2.14932: AVG IPC :1.06231: L2-Pf-HR :0.78949: L2-HR :0.77612: (Sim:1h56m58s) 
CPU  0 inst:  473000004 cyc:  443923994 now IPC :1.96722: AVG IPC :1.06335: L2-Pf-HR :0.78978: L2-HR :0.77636: (Sim:1h57m6s) 
CPU  0 inst:  474000000 cyc:  444458582 now IPC :1.87059: AVG IPC :1.06432: L2-Pf-HR :0.78997: L2-HR :0.77657: (Sim:1h57m15s) 
CPU  0 inst:  475000002 cyc:  444913206 now IPC :2.19962: AVG IPC :1.06548: L2-Pf-HR :0.79043: L2-HR :0.77691: (Sim:1h57m23s) 
CPU  0 inst:  476000002 cyc:  445399575 now IPC :2.05605: AVG IPC :1.06657: L2-Pf-HR :0.79085: L2-HR :0.77725: (Sim:1h57m31s) 
CPU  0 inst:  477000002 cyc:  445898899 now IPC :2.00271: AVG IPC :1.06762: L2-Pf-HR :0.79114: L2-HR :0.77752: (Sim:1h57m47s) 
CPU  0 inst:  478000000 cyc:  446361032 now IPC :2.16387: AVG IPC :1.06875: L2-Pf-HR :0.79157: L2-HR :0.77786: (Sim:1h58m5s) 
CPU  0 inst:  479000004 cyc:  446943751 now IPC :1.71610: AVG IPC :1.06960: L2-Pf-HR :0.79149: L2-HR :0.77796: (Sim:1h58m24s) 
CPU  0 inst:  480000001 cyc:  447407259 now IPC :2.15745: AVG IPC :1.07073: L2-Pf-HR :0.79178: L2-HR :0.77821: (Sim:1h58m41s) 
CPU  0 inst:  481000003 cyc:  447887942 now IPC :2.08038: AVG IPC :1.07182: L2-Pf-HR :0.79210: L2-HR :0.77848: (Sim:1h58m58s) 
CPU  0 inst:  482000004 cyc:  448448393 now IPC :1.78428: AVG IPC :1.07271: L2-Pf-HR :0.79205: L2-HR :0.77858: (Sim:1h59m17s) 
CPU  0 inst:  483000000 cyc:  448902549 now IPC :2.20188: AVG IPC :1.07385: L2-Pf-HR :0.79247: L2-HR :0.77890: (Sim:1h59m35s) 
CPU  0 inst:  484000000 cyc:  449362384 now IPC :2.17469: AVG IPC :1.07498: L2-Pf-HR :0.79288: L2-HR :0.77921: (Sim:1h59m53s) 
CPU  0 inst:  485000000 cyc:  449873447 now IPC :1.95671: AVG IPC :1.07599: L2-Pf-HR :0.79311: L2-HR :0.77943: (Sim:2h0m5s) 
CPU  0 inst:  486000002 cyc:  450348049 now IPC :2.10703: AVG IPC :1.07707: L2-Pf-HR :0.79353: L2-HR :0.77980: (Sim:2h0m14s) 
CPU  0 inst:  487000005 cyc:  450821746 now IPC :2.11106: AVG IPC :1.07816: L2-Pf-HR :0.79394: L2-HR :0.78014: (Sim:2h0m21s) 
CPU  0 inst:  488000004 cyc:  451393114 now IPC :1.75018: AVG IPC :1.07902: L2-Pf-HR :0.79383: L2-HR :0.78018: (Sim:2h0m30s) 
CPU  0 inst:  489000000 cyc:  451884782 now IPC :2.03388: AVG IPC :1.08006: L2-Pf-HR :0.79415: L2-HR :0.78041: (Sim:2h0m39s) 
CPU  0 inst:  490000002 cyc:  452393012 now IPC :1.96762: AVG IPC :1.08106: L2-Pf-HR :0.79442: L2-HR :0.78064: (Sim:2h0m47s) 
CPU  0 inst:  491000003 cyc:  452914702 now IPC :1.91685: AVG IPC :1.08202: L2-Pf-HR :0.79453: L2-HR :0.78084: (Sim:2h0m55s) 
CPU  0 inst:  492000002 cyc:  453378069 now IPC :2.15811: AVG IPC :1.08312: L2-Pf-HR :0.79495: L2-HR :0.78113: (Sim:2h1m5s) 
CPU  0 inst:  493000001 cyc:  453851705 now IPC :2.11132: AVG IPC :1.08420: L2-Pf-HR :0.79530: L2-HR :0.78146: (Sim:2h1m12s) 
CPU  0 inst:  494000005 cyc:  454342325 now IPC :2.03825: AVG IPC :1.08523: L2-Pf-HR :0.79556: L2-HR :0.78171: (Sim:2h1m20s) 
CPU  0 inst:  495000001 cyc:  454812809 now IPC :2.12546: AVG IPC :1.08631: L2-Pf-HR :0.79596: L2-HR :0.78204: (Sim:2h1m28s) 
CPU  0 inst:  496000005 cyc:  455377865 now IPC :1.76974: AVG IPC :1.08716: L2-Pf-HR :0.79586: L2-HR :0.78206: (Sim:2h1m37s) 
CPU  0 inst:  497000000 cyc:  455844873 now IPC :2.14128: AVG IPC :1.08824: L2-Pf-HR :0.79618: L2-HR :0.78231: (Sim:2h1m45s) 
CPU  0 inst:  498000003 cyc:  456341606 now IPC :2.01316: AVG IPC :1.08925: L2-Pf-HR :0.79645: L2-HR :0.78253: (Sim:2h1m53s) 
CPU  0 inst:  499000001 cyc:  456884161 now IPC :1.84313: AVG IPC :1.09015: L2-Pf-HR :0.79649: L2-HR :0.78263: (Sim:2h2m1s) 
CPU  0 inst:  500000001 cyc:  457337347 now IPC :2.20660: AVG IPC :1.09126: L2-Pf-HR :0.79687: L2-HR :0.78293: (Sim:2h2m10s) 
CPU  0 inst:  501000001 cyc:  457807656 now IPC :2.12626: AVG IPC :1.09232: L2-Pf-HR :0.79725: L2-HR :0.78322: (Sim:2h2m18s) 
CPU  0 inst:  502000000 cyc:  458324994 now IPC :1.93297: AVG IPC :1.09327: L2-Pf-HR :0.79741: L2-HR :0.78340: (Sim:2h2m26s) 
CPU  0 inst:  503000000 cyc:  458779779 now IPC :2.19884: AVG IPC :1.09437: L2-Pf-HR :0.79782: L2-HR :0.78375: (Sim:2h2m34s) 
CPU  0 inst:  504000000 cyc:  459253949 now IPC :2.10895: AVG IPC :1.09542: L2-Pf-HR :0.79818: L2-HR :0.78405: (Sim:2h2m42s) 
CPU  0 inst:  505000005 cyc:  459844806 now IPC :1.69247: AVG IPC :1.09619: L2-Pf-HR :0.79809: L2-HR :0.78406: (Sim:2h2m51s) 
CPU  0 inst:  506000003 cyc:  460298003 now IPC :2.20654: AVG IPC :1.09729: L2-Pf-HR :0.79840: L2-HR :0.78432: (Sim:2h2m58s) 
CPU  0 inst:  507000005 cyc:  460823541 now IPC :1.90282: AVG IPC :1.09821: L2-Pf-HR :0.79864: L2-HR :0.78452: (Sim:2h3m6s) 
CPU  0 inst:  508000000 cyc:  461365799 now IPC :1.84413: AVG IPC :1.09908: L2-Pf-HR :0.79878: L2-HR :0.78471: (Sim:2h3m15s) 
CPU  0 inst:  509000005 cyc:  461830764 now IPC :2.15071: AVG IPC :1.10015: L2-Pf-HR :0.79916: L2-HR :0.78498: (Sim:2h3m24s) 
CPU  0 inst:  510000001 cyc:  462317311 now IPC :2.05529: AVG IPC :1.10115: L2-Pf-HR :0.79948: L2-HR :0.78528: (Sim:2h3m31s) 
CPU  0 inst:  511000003 cyc:  462826485 now IPC :1.96397: AVG IPC :1.10210: L2-Pf-HR :0.79974: L2-HR :0.78551: (Sim:2h3m40s) 
CPU  0 inst:  512000001 cyc:  463307433 now IPC :2.07922: AVG IPC :1.10312: L2-Pf-HR :0.80013: L2-HR :0.78584: (Sim:2h3m48s) 
CPU  0 inst:  513000004 cyc:  463880454 now IPC :1.74514: AVG IPC :1.10392: L2-Pf-HR :0.80006: L2-HR :0.78586: (Sim:2h3m56s) 
CPU  0 inst:  514000004 cyc:  464330697 now IPC :2.22102: AVG IPC :1.10500: L2-Pf-HR :0.80034: L2-HR :0.78611: (Sim:2h4m4s) 
CPU  0 inst:  515000000 cyc:  464827039 now IPC :2.01473: AVG IPC :1.10597: L2-Pf-HR :0.80061: L2-HR :0.78634: (Sim:2h4m11s) 
CPU  0 inst:  516000002 cyc:  465366191 now IPC :1.85477: AVG IPC :1.10684: L2-Pf-HR :0.80067: L2-HR :0.78644: (Sim:2h4m19s) 
CPU  0 inst:  517000005 cyc:  465829697 now IPC :2.15748: AVG IPC :1.10789: L2-Pf-HR :0.80108: L2-HR :0.78675: (Sim:2h4m28s) 
CPU  0 inst:  518000005 cyc:  466296226 now IPC :2.14349: AVG IPC :1.10893: L2-Pf-HR :0.80150: L2-HR :0.78707: (Sim:2h4m36s) 
CPU  0 inst:  519000000 cyc:  466810039 now IPC :1.94622: AVG IPC :1.10985: L2-Pf-HR :0.80164: L2-HR :0.78723: (Sim:2h4m44s) 
CPU  0 inst:  520000003 cyc:  467273357 now IPC :2.15835: AVG IPC :1.11090: L2-Pf-HR :0.80201: L2-HR :0.78754: (Sim:2h4m53s) 
CPU  0 inst:  521000000 cyc:  467794198 now IPC :1.91997: AVG IPC :1.11180: L2-Pf-HR :0.80222: L2-HR :0.78774: (Sim:2h5m0s) 
CPU  0 inst:  522000003 cyc:  468326485 now IPC :1.87869: AVG IPC :1.11267: L2-Pf-HR :0.80228: L2-HR :0.78785: (Sim:2h5m8s) 
CPU  0 inst:  523000001 cyc:  468781114 now IPC :2.19959: AVG IPC :1.11373: L2-Pf-HR :0.80252: L2-HR :0.78807: (Sim:2h5m16s) 
CPU  0 inst:  524000002 cyc:  469292068 now IPC :1.95713: AVG IPC :1.11465: L2-Pf-HR :0.80276: L2-HR :0.78825: (Sim:2h5m24s) 
CPU  0 inst:  525000000 cyc:  469839662 now IPC :1.82617: AVG IPC :1.11548: L2-Pf-HR :0.80297: L2-HR :0.78846: (Sim:2h5m32s) 
CPU  0 inst:  526000000 cyc:  470303541 now IPC :2.15573: AVG IPC :1.11651: L2-Pf-HR :0.80334: L2-HR :0.78873: (Sim:2h5m41s) 
CPU  0 inst:  527000002 cyc:  470779741 now IPC :2.09996: AVG IPC :1.11750: L2-Pf-HR :0.80367: L2-HR :0.78901: (Sim:2h5m49s) 
CPU  0 inst:  528000004 cyc:  471293767 now IPC :1.94543: AVG IPC :1.11841: L2-Pf-HR :0.80392: L2-HR :0.78924: (Sim:2h5m57s) 
CPU  0 inst:  529000000 cyc:  471769221 now IPC :2.10324: AVG IPC :1.11940: L2-Pf-HR :0.80429: L2-HR :0.78955: (Sim:2h6m5s) 
CPU  0 inst:  530000002 cyc:  472346270 now IPC :1.73296: AVG IPC :1.12015: L2-Pf-HR :0.80424: L2-HR :0.78955: (Sim:2h6m13s) 
CPU  0 inst:  531000002 cyc:  472794327 now IPC :2.23186: AVG IPC :1.12121: L2-Pf-HR :0.80453: L2-HR :0.78981: (Sim:2h6m21s) 
CPU  0 inst:  532000003 cyc:  473301887 now IPC :1.97021: AVG IPC :1.12212: L2-Pf-HR :0.80476: L2-HR :0.79000: (Sim:2h6m29s) 
CPU  0 inst:  533000002 cyc:  473824006 now IPC :1.91527: AVG IPC :1.12300: L2-Pf-HR :0.80484: L2-HR :0.79010: (Sim:2h6m37s) 
CPU  0 inst:  534000005 cyc:  474288278 now IPC :2.15392: AVG IPC :1.12401: L2-Pf-HR :0.80522: L2-HR :0.79038: (Sim:2h6m46s) 
CPU  0 inst:  535000001 cyc:  474777515 now IPC :2.04399: AVG IPC :1.12496: L2-Pf-HR :0.80556: L2-HR :0.79067: (Sim:2h6m54s) 
CPU  0 inst:  536000003 cyc:  475261002 now IPC :2.06831: AVG IPC :1.12592: L2-Pf-HR :0.80575: L2-HR :0.79086: (Sim:2h7m2s) 
CPU  0 inst:  537000003 cyc:  475728728 now IPC :2.13800: AVG IPC :1.12692: L2-Pf-HR :0.80607: L2-HR :0.79113: (Sim:2h7m10s) 
CPU  0 inst:  538000001 cyc:  476312145 now IPC :1.71404: AVG IPC :1.12764: L2-Pf-HR :0.80619: L2-HR :0.79125: (Sim:2h7m19s) 
CPU  0 inst:  539000005 cyc:  476808814 now IPC :2.01342: AVG IPC :1.12856: L2-Pf-HR :0.80631: L2-HR :0.79137: (Sim:2h7m29s) 
CPU  0 inst:  540000000 cyc:  477249373 now IPC :2.26983: AVG IPC :1.12962: L2-Pf-HR :0.80657: L2-HR :0.79160: (Sim:2h7m36s) 
CPU  0 inst:  541000001 cyc:  477770201 now IPC :1.92002: AVG IPC :1.13048: L2-Pf-HR :0.80675: L2-HR :0.79178: (Sim:2h7m43s) 
CPU  0 inst:  542000005 cyc:  478313204 now IPC :1.84162: AVG IPC :1.13129: L2-Pf-HR :0.80695: L2-HR :0.79194: (Sim:2h7m53s) 
CPU  0 inst:  543000003 cyc:  478767366 now IPC :2.20185: AVG IPC :1.13231: L2-Pf-HR :0.80731: L2-HR :0.79221: (Sim:2h8m1s) 
CPU  0 inst:  544000005 cyc:  479241983 now IPC :2.10697: AVG IPC :1.13328: L2-Pf-HR :0.80760: L2-HR :0.79248: (Sim:2h8m9s) 
CPU  0 inst:  545000003 cyc:  479752420 now IPC :1.95910: AVG IPC :1.13416: L2-Pf-HR :0.80782: L2-HR :0.79268: (Sim:2h8m17s) 
CPU  0 inst:  546000001 cyc:  480227290 now IPC :2.10584: AVG IPC :1.13512: L2-Pf-HR :0.80814: L2-HR :0.79296: (Sim:2h8m25s) 
CPU  0 inst:  547000000 cyc:  480795640 now IPC :1.75948: AVG IPC :1.13586: L2-Pf-HR :0.80802: L2-HR :0.79296: (Sim:2h8m33s) 
CPU  0 inst:  548000004 cyc:  481257567 now IPC :2.16485: AVG IPC :1.13685: L2-Pf-HR :0.80829: L2-HR :0.79317: (Sim:2h8m42s) 
CPU  0 inst:  549000001 cyc:  481770379 now IPC :1.95003: AVG IPC :1.13772: L2-Pf-HR :0.80851: L2-HR :0.79334: (Sim:2h8m50s) 
CPU  0 inst:  550000000 cyc:  482318918 now IPC :1.82302: AVG IPC :1.13850: L2-Pf-HR :0.80849: L2-HR :0.79345: (Sim:2h8m58s) 
CPU  0 inst:  551000000 cyc:  482783097 now IPC :2.15434: AVG IPC :1.13948: L2-Pf-HR :0.80884: L2-HR :0.79372: (Sim:2h9m7s) 
CPU  0 inst:  552000004 cyc:  483267121 now IPC :2.06602: AVG IPC :1.14041: L2-Pf-HR :0.80916: L2-HR :0.79397: (Sim:2h9m15s) 
CPU  0 inst:  553000000 cyc:  483764306 now IPC :2.01132: AVG IPC :1.14130: L2-Pf-HR :0.80935: L2-HR :0.79415: (Sim:2h9m22s) 
CPU  0 inst:  554000004 cyc:  484229541 now IPC :2.14946: AVG IPC :1.14227: L2-Pf-HR :0.80966: L2-HR :0.79441: (Sim:2h9m31s) 
CPU  0 inst:  555000000 cyc:  484802722 now IPC :1.74464: AVG IPC :1.14299: L2-Pf-HR :0.80961: L2-HR :0.79449: (Sim:2h9m39s) 
CPU  0 inst:  556000005 cyc:  485275327 now IPC :2.11594: AVG IPC :1.14394: L2-Pf-HR :0.80979: L2-HR :0.79465: (Sim:2h9m47s) 
CPU  0 inst:  557000000 cyc:  485734126 now IPC :2.17959: AVG IPC :1.14492: L2-Pf-HR :0.81004: L2-HR :0.79486: (Sim:2h9m55s) 
CPU  0 inst:  558000002 cyc:  486291503 now IPC :1.79412: AVG IPC :1.14566: L2-Pf-HR :0.81009: L2-HR :0.79493: (Sim:2h10m2s) 
CPU  0 inst:  559000002 cyc:  486786906 now IPC :2.01856: AVG IPC :1.14655: L2-Pf-HR :0.81031: L2-HR :0.79517: (Sim:2h10m11s) 
CPU  0 inst:  560000001 cyc:  487238568 now IPC :2.21404: AVG IPC :1.14754: L2-Pf-HR :0.81062: L2-HR :0.79541: (Sim:2h10m20s) 
CPU  0 inst:  561000004 cyc:  487712727 now IPC :2.10900: AVG IPC :1.14848: L2-Pf-HR :0.81088: L2-HR :0.79565: (Sim:2h10m27s) 
CPU  0 inst:  562000005 cyc:  488226126 now IPC :1.94780: AVG IPC :1.14932: L2-Pf-HR :0.81109: L2-HR :0.79586: (Sim:2h10m36s) 
CPU  0 inst:  563000003 cyc:  488707710 now IPC :2.07648: AVG IPC :1.15024: L2-Pf-HR :0.81139: L2-HR :0.79612: (Sim:2h10m44s) 
CPU  0 inst:  564000003 cyc:  489278038 now IPC :1.75338: AVG IPC :1.15094: L2-Pf-HR :0.81123: L2-HR :0.79609: (Sim:2h10m53s) 
CPU  0 inst:  565000003 cyc:  489735799 now IPC :2.18455: AVG IPC :1.15191: L2-Pf-HR :0.81147: L2-HR :0.79630: (Sim:2h11m0s) 
CPU  0 inst:  566000001 cyc:  490247095 now IPC :1.95581: AVG IPC :1.15275: L2-Pf-HR :0.81169: L2-HR :0.79649: (Sim:2h11m8s) 
CPU  0 inst:  567000005 cyc:  490774865 now IPC :1.89477: AVG IPC :1.15355: L2-Pf-HR :0.81169: L2-HR :0.79659: (Sim:2h11m17s) 
CPU  0 inst:  568000003 cyc:  491228222 now IPC :2.20576: AVG IPC :1.15452: L2-Pf-HR :0.81201: L2-HR :0.79683: (Sim:2h11m25s) 
CPU  0 inst:  569000002 cyc:  491721281 now IPC :2.02815: AVG IPC :1.15540: L2-Pf-HR :0.81229: L2-HR :0.79708: (Sim:2h11m33s) 
CPU  0 inst:  570000001 cyc:  492214130 now IPC :2.02902: AVG IPC :1.15628: L2-Pf-HR :0.81248: L2-HR :0.79726: (Sim:2h11m41s) 
CPU  0 inst:  571000002 cyc:  492668264 now IPC :2.20200: AVG IPC :1.15724: L2-Pf-HR :0.81278: L2-HR :0.79751: (Sim:2h11m50s) 
CPU  0 inst:  572000000 cyc:  493249411 now IPC :1.72073: AVG IPC :1.15791: L2-Pf-HR :0.81277: L2-HR :0.79758: (Sim:2h11m58s) 
CPU  0 inst:  573000001 cyc:  493719697 now IPC :2.12637: AVG IPC :1.15883: L2-Pf-HR :0.81293: L2-HR :0.79772: (Sim:2h12m6s) 
CPU  0 inst:  574000001 cyc:  494174006 now IPC :2.20114: AVG IPC :1.15979: L2-Pf-HR :0.81317: L2-HR :0.79795: (Sim:2h12m13s) 
CPU  0 inst:  575000005 cyc:  494772573 now IPC :1.67066: AVG IPC :1.16041: L2-Pf-HR :0.81312: L2-HR :0.79795: (Sim:2h12m22s) 
CPU  0 inst:  576000002 cyc:  495225876 now IPC :2.20602: AVG IPC :1.16137: L2-Pf-HR :0.81346: L2-HR :0.79822: (Sim:2h12m30s) 
CPU  0 inst:  577000002 cyc:  495679082 now IPC :2.20650: AVG IPC :1.16233: L2-Pf-HR :0.81374: L2-HR :0.79843: (Sim:2h12m38s) 
CPU  0 inst:  578000002 cyc:  496154988 now IPC :2.10126: AVG IPC :1.16323: L2-Pf-HR :0.81396: L2-HR :0.79865: (Sim:2h12m45s) 
CPU  0 inst:  579000002 cyc:  496674873 now IPC :1.92350: AVG IPC :1.16403: L2-Pf-HR :0.81418: L2-HR :0.79885: (Sim:2h12m54s) 
CPU  0 inst:  580000001 cyc:  497143008 now IPC :2.13613: AVG IPC :1.16495: L2-Pf-HR :0.81448: L2-HR :0.79911: (Sim:2h13m2s) 
CPU  0 inst:  581000002 cyc:  497722432 now IPC :1.72585: AVG IPC :1.16560: L2-Pf-HR :0.81441: L2-HR :0.79910: (Sim:2h13m10s) 
CPU  0 inst:  582000002 cyc:  498180191 now IPC :2.18456: AVG IPC :1.16654: L2-Pf-HR :0.81462: L2-HR :0.79929: (Sim:2h13m18s) 
CPU  0 inst:  583000003 cyc:  498688766 now IPC :1.96628: AVG IPC :1.16736: L2-Pf-HR :0.81480: L2-HR :0.79944: (Sim:2h13m26s) 
CPU  0 inst:  584000005 cyc:  499221578 now IPC :1.87684: AVG IPC :1.16811: L2-Pf-HR :0.81487: L2-HR :0.79955: (Sim:2h13m35s) 
CPU  0 inst:  585000000 cyc:  499678220 now IPC :2.18989: AVG IPC :1.16905: L2-Pf-HR :0.81518: L2-HR :0.79978: (Sim:2h13m43s) 
CPU  0 inst:  586000002 cyc:  500180186 now IPC :1.99217: AVG IPC :1.16988: L2-Pf-HR :0.81544: L2-HR :0.80000: (Sim:2h13m51s) 
CPU  0 inst:  587000001 cyc:  500675502 now IPC :2.01891: AVG IPC :1.17072: L2-Pf-HR :0.81562: L2-HR :0.80017: (Sim:2h13m59s) 
CPU  0 inst:  588000001 cyc:  501133082 now IPC :2.18541: AVG IPC :1.17165: L2-Pf-HR :0.81592: L2-HR :0.80042: (Sim:2h14m8s) 
CPU  0 inst:  589000003 cyc:  501732643 now IPC :1.66789: AVG IPC :1.17224: L2-Pf-HR :0.81590: L2-HR :0.80045: (Sim:2h14m16s) 
CPU  0 inst:  590000004 cyc:  502200917 now IPC :2.13550: AVG IPC :1.17314: L2-Pf-HR :0.81609: L2-HR :0.80062: (Sim:2h14m24s) 
CPU  0 inst:  591000002 cyc:  502665787 now IPC :2.15113: AVG IPC :1.17405: L2-Pf-HR :0.81633: L2-HR :0.80083: (Sim:2h14m32s) 
CPU  0 inst:  592000001 cyc:  503240004 now IPC :1.74150: AVG IPC :1.17470: L2-Pf-HR :0.81630: L2-HR :0.80083: (Sim:2h14m40s) 
CPU  0 inst:  593000003 cyc:  503692282 now IPC :2.21103: AVG IPC :1.17563: L2-Pf-HR :0.81663: L2-HR :0.80108: (Sim:2h14m49s) 
CPU  0 inst:  594000000 cyc:  504147444 now IPC :2.19701: AVG IPC :1.17655: L2-Pf-HR :0.81693: L2-HR :0.80131: (Sim:2h14m57s) 
Finished CPU 0 instr: 592000005 cyc: 503164746 AVG IPC: 1.17655 (Sim time: 2h14m57s)

ChampSim completed all CPUs

[ROI Statistics]
Core_0_instructions 592000005
Core_0_cycles 503164746
Core_0_IPC 1.17655

Core_0_branch_prediction_accuracy 98.24511
Core_0_branch_MPKI 0.42508
Core_0_average_ROB_occupancy_at_mispredict 576.10943

Core_0_L1D_total_access 159253894
Core_0_L1D_total_hit 148641439 L1D_total_Hit Ratio: 0.93336
Core_0_L1D_total_miss 10612455
Core_0_L1D_loads 138899727
Core_0_L1D_load_hit 135758069 L1D_load_Hit Ratio: 0.97738
Core_0_L1D_load_miss 3141658
Core_0_L1D_RFOs 12042562
Core_0_L1D_RFO_hit 11668003 L1D_RFO_Hit Ratio: 0.96890
Core_0_L1D_RFO_miss 374559
Core_0_L1D_prefetches 8311605
Core_0_L1D_prefetch_hit 1215367 L1D_prefetch_Hit Ratio: 0.14623
Core_0_L1D_prefetch_miss 7096238
Core_0_L1D_writebacks 0
Core_0_L1D_writeback_hit 0 L1D_writeback_Hit Ratio: -nan
Core_0_L1D_writeback_miss 0
Core_0_L1D_prefetch_requested 9538782
Core_0_L1D_prefetch_issued 9538782
Core_0_L1D_prefetch_useful 7070617 L1D_Useful Ratio: 0.74125
Core_0_L1D_prefetch_useless 50843
Core_0_L1D_prefetch_late 695191
Core_0_L1D_average_miss_latency 16321827.99184

Core_0_L1I_total_access 84095066
Core_0_L1I_total_hit 84093125 L1I_total_Hit Ratio: 0.99998
Core_0_L1I_total_miss 1941
Core_0_L1I_loads 84095066
Core_0_L1I_load_hit 84093125 L1I_load_Hit Ratio: 0.99998
Core_0_L1I_load_miss 1941
Core_0_L1I_RFOs 0
Core_0_L1I_RFO_hit 0 L1I_RFO_Hit Ratio: -nan
Core_0_L1I_RFO_miss 0
Core_0_L1I_prefetches 0
Core_0_L1I_prefetch_hit 0 L1I_prefetch_Hit Ratio: -nan
Core_0_L1I_prefetch_miss 0
Core_0_L1I_writebacks 0
Core_0_L1I_writeback_hit 0 L1I_writeback_Hit Ratio: -nan
Core_0_L1I_writeback_miss 0
Core_0_L1I_prefetch_requested 0
Core_0_L1I_prefetch_issued 0
Core_0_L1I_prefetch_useful 0 L1I_Useful Ratio: -nan
Core_0_L1I_prefetch_useless 0
Core_0_L1I_prefetch_late 0
Core_0_L1I_average_miss_latency 257.37867

Core_0_L2C_total_access 15823384
Core_0_L2C_total_hit 12679440 L2C_total_Hit Ratio: 0.80131
Core_0_L2C_total_miss 3143944
Core_0_L2C_loads 2448816
Core_0_L2C_load_hit 1379289 L2C_load_Hit Ratio: 0.56325
Core_0_L2C_load_miss 1069527
Core_0_L2C_RFOs 374515
Core_0_L2C_RFO_hit 94831 L2C_RFO_Hit Ratio: 0.25321
Core_0_L2C_RFO_miss 279684
Core_0_L2C_prefetches 9803247
Core_0_L2C_prefetch_hit 8008520 L2C_prefetch_Hit Ratio: 0.81693
Core_0_L2C_prefetch_miss 1794727
Core_0_L2C_writebacks 3196806
Core_0_L2C_writeback_hit 3196800 L2C_writeback_Hit Ratio: 1.00000
Core_0_L2C_writeback_miss 6
Core_0_L2C_prefetch_requested 4326635
Core_0_L2C_prefetch_issued 4326635
Core_0_L2C_prefetch_useful 410470 L2C_Useful Ratio: 0.09487
Core_0_L2C_prefetch_useless 1370501
Core_0_L2C_prefetch_late 472606
Core_0_L2C_average_miss_latency 361.56661

Core_0_LLC_total_access 4843253
Core_0_LLC_total_hit 1692087 LLC_total_Hit Ratio: 0.34937
Core_0_LLC_total_miss 3151166
Core_0_LLC_loads 596992
Core_0_LLC_load_hit 2 LLC_load_Hit Ratio: 0.00000
Core_0_LLC_load_miss 596990
Core_0_LLC_RFOs 279684
Core_0_LLC_RFO_hit 0 LLC_RFO_Hit Ratio: 0.00000
Core_0_LLC_RFO_miss 279684
Core_0_LLC_prefetches 2267262
Core_0_LLC_prefetch_hit 0 LLC_prefetch_Hit Ratio: 0.00000
Core_0_LLC_prefetch_miss 2267262
Core_0_LLC_writebacks 1699315
Core_0_LLC_writeback_hit 1692085 LLC_writeback_Hit Ratio: 0.99575
Core_0_LLC_writeback_miss 7230
Core_0_LLC_prefetch_requested 0
Core_0_LLC_prefetch_issued 0
Core_0_LLC_prefetch_useful 0 LLC_Useful Ratio: -nan
Core_0_LLC_prefetch_useless 2174610
Core_0_LLC_prefetch_late 0
Core_0_LLC_average_miss_latency 367.01717

Core_0_major_page_fault 0
Core_0_minor_page_fault 25625

[Bingo] PHT Access: 817835
[Bingo] PHT Hit PC+Addr: 41069
[Bingo] PHT Hit PC+Offs: 755423
[Bingo] PHT Miss: 21343
[Bingo] Prefetch PC+Addr: 0
[Bingo] Prefetch PC+Offs: 0
[Bingo] Useful PC+Addr: 0
[Bingo] Useful PC+Offs: 0
[Bingo] Useless PC+Addr: 0
[Bingo] Useless PC+Offs: 0
[Bingo] L1 Prefetch per Region: 14.39735
[Bingo] L2 Prefetch per Region: 0.04642
[Bingo] L3 Prefetch per Region: 0.00000
[Bingo] No Prefetch per Region: 17.55622
[Bingo] Number of Voters Mean: 15.79025
[Bingo] Number of Voters SD: 1.69756
PHT read accesses: 12356259
PHT write accesses: 794856
AT read accesses: 134852231
AT write accesses: 134852411
FT read accesses: 13232580
FT write accesses: 817835
PS read accesses: 6042429
PS write accesses: 796492
PHT tag read accesses: 37530197
PHT tag write accesses: 835925
AT tag read accesses: 2444271727
AT tag write accesses: 135647084
FT tag read accesses: 309137386
FT tag write accesses: 7842868
PS tag read accesses: 2273706245
PS tag write accesses: 6835533
[Bingo2] PHT Access: 613310
[Bingo2] PHT Hit PC+Addr: 36814
[Bingo2] PHT Hit PC+Offs: 558723
[Bingo2] PHT Miss: 17773
[Bingo2] Prefetch PC+Addr: 0
[Bingo2] Prefetch PC+Offs: 0
[Bingo2] Useful PC+Addr: 0
[Bingo2] Useful PC+Offs: 0
[Bingo2] Useless PC+Addr: 0
[Bingo2] Useless PC+Offs: 0
[Bingo2] L1 Prefetch per Region: 0.00000
[Bingo2] L2 Prefetch per Region: 10.87723
[Bingo2] L3 Prefetch per Region: 0.00000
[Bingo2] No Prefetch per Region: 21.12277
[Bingo2] Number of Voters Mean: 15.67535
[Bingo2] Number of Voters SD: 1.88859
PHT read accesses: 9210365
PHT write accesses: 379977
AT read accesses: 1817113
AT write accesses: 2196957
FT read accesses: 1177055
FT write accesses: 613310
PS read accesses: 1427531
PS write accesses: 595537
PHT tag read accesses: 21405491
PHT tag write accesses: 416791
AT tag read accesses: 106929086
AT tag write accesses: 2197090
FT tag read accesses: 88255361
FT tag write accesses: 1391862
PS tag read accesses: 59676012
PS tag write accesses: 1951403
Channel_0_RQ_row_buffer_hit 1798656
Channel_0_RQ_row_buffer_miss 1345280
Channel_0_WQ_row_buffer_hit 688711
Channel_0_WQ_row_buffer_miss 999946
Channel_0_WQ_full 3185
Channel_0_dbus_congested 3013524

avg_congested_cycle 8

EzSearch AVG IPC :1.17655: L2-Pf-HR :0.81693 : L2-HR :0.80131 Uful:0.09487
     > Finished combination: TraceType=770-tot Sim:592000000 Prefetcher=L2bingo_dpc3 L1=bingo_dpc3
