TRACE: [298000000][GPT-Neo_1_3B]_[h16][s512][d128] Warmup: 2000000 NumTraces: 298000000
L1:bingo_dpc3:L2:bingo_dpc3
*************************************************
   ChampSim Multicore Out-of-Order Simulator
   Last compiled: Oct 26 2024 20:21:10
*************************************************

trace_0 770-tot_memTraces_v3/memTraces[298000000][GPT-Neo_1_3B]_[h16][s512][d128].champsim.xz
Bingo PHT WAYS: 16 and PHT_SIZE: 16384
Bingo2 PHT WAYS: 16 and PHT_SIZE: 16384
MAIN.cc ln 751 stats print skipped
CPU  0 inst:    1000003 cyc:     498181 now IPC :2.00731: AVG IPC :2.00731: L2-Pf-HR :0.74424: L2-HR :0.62679: (Sim:0h0m19s) 
CPU  0 inst:    2000001 cyc:     982843 now IPC :2.06329: AVG IPC :2.03491: L2-Pf-HR :0.82292: L2-HR :0.72762: (Sim:0h0m35s) 

Warmup complete CPU  0 instructions:    2000001 cycles:     982843 (Simulation time: 0 hr 0 min 35 sec) 

CPU  0 inst:    3000000 cyc:    1533471 now IPC :1.81611: AVG IPC :1.81611: L2-Pf-HR :0.90159: L2-HR :0.83615: (Sim:0h0m43s) 
CPU  0 inst:    4000002 cyc:    2079531 now IPC :1.83130: AVG IPC :1.82367: L2-Pf-HR :0.90292: L2-HR :0.83835: (Sim:0h0m51s) 
CPU  0 inst:    5000004 cyc:    2630041 now IPC :1.81650: AVG IPC :1.82128: L2-Pf-HR :0.90284: L2-HR :0.83706: (Sim:0h1m1s) 
CPU  0 inst:    6000003 cyc:    3176038 now IPC :1.83151: AVG IPC :1.82382: L2-Pf-HR :0.90240: L2-HR :0.83647: (Sim:0h1m8s) 
CPU  0 inst:    7000000 cyc:    3716491 now IPC :1.85029: AVG IPC :1.82906: L2-Pf-HR :0.90412: L2-HR :0.84836: (Sim:0h1m16s) 
CPU  0 inst:    8000001 cyc:    4232142 now IPC :1.93930: AVG IPC :1.84655: L2-Pf-HR :0.90773: L2-HR :0.85554: (Sim:0h1m23s) 
CPU  0 inst:    9000005 cyc:    4809530 now IPC :1.73194: AVG IPC :1.82926: L2-Pf-HR :0.88631: L2-HR :0.84331: (Sim:0h1m31s) 
CPU  0 inst:   10000001 cyc:    5312493 now IPC :1.98821: AVG IPC :1.84772: L2-Pf-HR :0.88738: L2-HR :0.84810: (Sim:0h1m39s) 
CPU  0 inst:   11000000 cyc:    5824810 now IPC :1.95191: AVG IPC :1.85875: L2-Pf-HR :0.89326: L2-HR :0.85409: (Sim:0h1m46s) 
CPU  0 inst:   12000001 cyc:    6342703 now IPC :1.93090: AVG IPC :1.86572: L2-Pf-HR :0.89460: L2-HR :0.85570: (Sim:0h1m53s) 
CPU  0 inst:   13000004 cyc:    6858471 now IPC :1.93886: AVG IPC :1.87214: L2-Pf-HR :0.89832: L2-HR :0.85863: (Sim:0h2m1s) 
CPU  0 inst:   14000001 cyc:    7383588 now IPC :1.90433: AVG IPC :1.87478: L2-Pf-HR :0.90174: L2-HR :0.86060: (Sim:0h2m9s) 
CPU  0 inst:   15000000 cyc:    7928974 now IPC :1.83356: AVG IPC :1.87155: L2-Pf-HR :0.90362: L2-HR :0.86319: (Sim:0h2m17s) 
CPU  0 inst:   16000005 cyc:    8457370 now IPC :1.89253: AVG IPC :1.87303: L2-Pf-HR :0.90576: L2-HR :0.86497: (Sim:0h2m24s) 
CPU  0 inst:   17000005 cyc:    9036320 now IPC :1.72726: AVG IPC :1.86255: L2-Pf-HR :0.89471: L2-HR :0.85754: (Sim:0h2m32s) 
CPU  0 inst:   18000005 cyc:    9535593 now IPC :2.00291: AVG IPC :1.87074: L2-Pf-HR :0.89727: L2-HR :0.86059: (Sim:0h2m40s) 
CPU  0 inst:   19000004 cyc:   10049054 now IPC :1.94757: AVG IPC :1.87509: L2-Pf-HR :0.89883: L2-HR :0.86215: (Sim:0h2m47s) 
CPU  0 inst:   20000003 cyc:   10559948 now IPC :1.95735: AVG IPC :1.87948: L2-Pf-HR :0.89873: L2-HR :0.86289: (Sim:0h2m56s) 
CPU  0 inst:   21000004 cyc:   11072000 now IPC :1.95293: AVG IPC :1.88321: L2-Pf-HR :0.89898: L2-HR :0.86357: (Sim:0h3m4s) 
CPU  0 inst:   22000005 cyc:   11587447 now IPC :1.94007: AVG IPC :1.88597: L2-Pf-HR :0.90130: L2-HR :0.86571: (Sim:0h3m13s) 
CPU  0 inst:   23000000 cyc:   12129649 now IPC :1.84432: AVG IPC :1.88395: L2-Pf-HR :0.90225: L2-HR :0.86707: (Sim:0h3m21s) 
CPU  0 inst:   24000000 cyc:   12652002 now IPC :1.91441: AVG IPC :1.88531: L2-Pf-HR :0.90340: L2-HR :0.86800: (Sim:0h3m29s) 
CPU  0 inst:   25000005 cyc:   13225621 now IPC :1.74333: AVG IPC :1.87866: L2-Pf-HR :0.89723: L2-HR :0.86369: (Sim:0h3m37s) 
CPU  0 inst:   26000001 cyc:   13740078 now IPC :1.94379: AVG IPC :1.88129: L2-Pf-HR :0.89814: L2-HR :0.86457: (Sim:0h3m45s) 
CPU  0 inst:   27000004 cyc:   14258142 now IPC :1.93027: AVG IPC :1.88320: L2-Pf-HR :0.89971: L2-HR :0.86577: (Sim:0h3m52s) 
CPU  0 inst:   28000003 cyc:   14778322 now IPC :1.92241: AVG IPC :1.88468: L2-Pf-HR :0.90022: L2-HR :0.86615: (Sim:0h4m0s) 
CPU  0 inst:   29000001 cyc:   15293861 now IPC :1.93971: AVG IPC :1.88666: L2-Pf-HR :0.90106: L2-HR :0.86677: (Sim:0h4m8s) 
CPU  0 inst:   30000000 cyc:   15808344 now IPC :1.94370: AVG IPC :1.88864: L2-Pf-HR :0.90210: L2-HR :0.86772: (Sim:0h4m15s) 
CPU  0 inst:   31000003 cyc:   16349700 now IPC :1.84722: AVG IPC :1.88718: L2-Pf-HR :0.90258: L2-HR :0.86852: (Sim:0h4m23s) 
CPU  0 inst:   32000002 cyc:   16869090 now IPC :1.92533: AVG IPC :1.88843: L2-Pf-HR :0.90340: L2-HR :0.86922: (Sim:0h4m30s) 
CPU  0 inst:   33000004 cyc:   17445585 now IPC :1.73462: AVG IPC :1.88304: L2-Pf-HR :0.89915: L2-HR :0.86625: (Sim:0h4m38s) 
CPU  0 inst:   34000001 cyc:   17970528 now IPC :1.90496: AVG IPC :1.88372: L2-Pf-HR :0.89962: L2-HR :0.86665: (Sim:0h4m46s) 
CPU  0 inst:   35000004 cyc:   18480923 now IPC :1.95927: AVG IPC :1.88592: L2-Pf-HR :0.90035: L2-HR :0.86739: (Sim:0h4m54s) 
CPU  0 inst:   36000000 cyc:   18997104 now IPC :1.93730: AVG IPC :1.88739: L2-Pf-HR :0.90017: L2-HR :0.86740: (Sim:0h5m1s) 
CPU  0 inst:   37000001 cyc:   19505517 now IPC :1.96691: AVG IPC :1.88958: L2-Pf-HR :0.90054: L2-HR :0.86801: (Sim:0h5m9s) 
CPU  0 inst:   38000003 cyc:   20016869 now IPC :1.95560: AVG IPC :1.89135: L2-Pf-HR :0.90134: L2-HR :0.86890: (Sim:0h5m16s) 
CPU  0 inst:   39000001 cyc:   20576768 now IPC :1.78603: AVG IPC :1.88834: L2-Pf-HR :0.90219: L2-HR :0.86953: (Sim:0h5m24s) 
CPU  0 inst:   40000002 cyc:   21119346 now IPC :1.84305: AVG IPC :1.88712: L2-Pf-HR :0.90297: L2-HR :0.86997: (Sim:0h5m32s) 
CPU  0 inst:   41000004 cyc:   21713762 now IPC :1.68233: AVG IPC :1.88125: L2-Pf-HR :0.90001: L2-HR :0.86768: (Sim:0h5m40s) 
CPU  0 inst:   42000000 cyc:   22248660 now IPC :1.86951: AVG IPC :1.88095: L2-Pf-HR :0.89981: L2-HR :0.86747: (Sim:0h5m47s) 
CPU  0 inst:   43000000 cyc:   22773336 now IPC :1.90594: AVG IPC :1.88155: L2-Pf-HR :0.89979: L2-HR :0.86762: (Sim:0h5m55s) 
CPU  0 inst:   44000000 cyc:   23303779 now IPC :1.88522: AVG IPC :1.88164: L2-Pf-HR :0.90044: L2-HR :0.86809: (Sim:0h6m3s) 
CPU  0 inst:   45000000 cyc:   23845859 now IPC :1.84475: AVG IPC :1.88077: L2-Pf-HR :0.90165: L2-HR :0.86885: (Sim:0h6m10s) 
CPU  0 inst:   46000000 cyc:   24397090 now IPC :1.81412: AVG IPC :1.87920: L2-Pf-HR :0.90253: L2-HR :0.86939: (Sim:0h6m18s) 
CPU  0 inst:   47000001 cyc:   24973107 now IPC :1.73606: AVG IPC :1.87576: L2-Pf-HR :0.90299: L2-HR :0.86979: (Sim:0h6m26s) 
CPU  0 inst:   48000002 cyc:   25516279 now IPC :1.84104: AVG IPC :1.87499: L2-Pf-HR :0.90340: L2-HR :0.87020: (Sim:0h6m34s) 
CPU  0 inst:   49000005 cyc:   26160269 now IPC :1.55282: AVG IPC :1.86675: L2-Pf-HR :0.90071: L2-HR :0.86813: (Sim:0h6m42s) 
CPU  0 inst:   50000003 cyc:   26690928 now IPC :1.88445: AVG IPC :1.86712: L2-Pf-HR :0.90112: L2-HR :0.86853: (Sim:0h6m50s) 
CPU  0 inst:   51000002 cyc:   27236400 now IPC :1.83327: AVG IPC :1.86641: L2-Pf-HR :0.90182: L2-HR :0.86901: (Sim:0h6m57s) 
CPU  0 inst:   52000002 cyc:   27795505 now IPC :1.78857: AVG IPC :1.86479: L2-Pf-HR :0.90202: L2-HR :0.86892: (Sim:0h7m5s) 
CPU  0 inst:   53000001 cyc:   28339105 now IPC :1.83959: AVG IPC :1.86429: L2-Pf-HR :0.90252: L2-HR :0.86938: (Sim:0h7m14s) 
CPU  0 inst:   54000003 cyc:   28905269 now IPC :1.76628: AVG IPC :1.86230: L2-Pf-HR :0.90318: L2-HR :0.86961: (Sim:0h7m22s) 
CPU  0 inst:   55000002 cyc:   29489591 now IPC :1.71138: AVG IPC :1.85921: L2-Pf-HR :0.90366: L2-HR :0.86993: (Sim:0h7m38s) 
CPU  0 inst:   56000001 cyc:   30043043 now IPC :1.80684: AVG IPC :1.85821: L2-Pf-HR :0.90419: L2-HR :0.87029: (Sim:0h7m54s) 
CPU  0 inst:   57000002 cyc:   30716473 now IPC :1.48494: AVG IPC :1.84976: L2-Pf-HR :0.90155: L2-HR :0.86823: (Sim:0h8m12s) 
CPU  0 inst:   58000003 cyc:   31253321 now IPC :1.86273: AVG IPC :1.84999: L2-Pf-HR :0.90192: L2-HR :0.86852: (Sim:0h8m24s) 
CPU  0 inst:   59000003 cyc:   31780830 now IPC :1.89570: AVG IPC :1.85077: L2-Pf-HR :0.90238: L2-HR :0.86897: (Sim:0h8m32s) 
CPU  0 inst:   60000002 cyc:   32319635 now IPC :1.85596: AVG IPC :1.85086: L2-Pf-HR :0.90255: L2-HR :0.86911: (Sim:0h8m42s) 
CPU  0 inst:   61000004 cyc:   32855161 now IPC :1.86733: AVG IPC :1.85114: L2-Pf-HR :0.90307: L2-HR :0.86959: (Sim:0h8m52s) 
CPU  0 inst:   62000003 cyc:   33401941 now IPC :1.82889: AVG IPC :1.85076: L2-Pf-HR :0.90332: L2-HR :0.86967: (Sim:0h8m59s) 
CPU  0 inst:   63000003 cyc:   33979342 now IPC :1.73190: AVG IPC :1.84868: L2-Pf-HR :0.90369: L2-HR :0.87014: (Sim:0h9m8s) 
CPU  0 inst:   64000004 cyc:   34528891 now IPC :1.81968: AVG IPC :1.84821: L2-Pf-HR :0.90400: L2-HR :0.87044: (Sim:0h9m22s) 
CPU  0 inst:   65000005 cyc:   35197580 now IPC :1.49547: AVG IPC :1.84131: L2-Pf-HR :0.90180: L2-HR :0.86878: (Sim:0h9m40s) 
CPU  0 inst:   66000003 cyc:   35734362 now IPC :1.86295: AVG IPC :1.84165: L2-Pf-HR :0.90189: L2-HR :0.86882: (Sim:0h9m57s) 
CPU  0 inst:   67000003 cyc:   36273103 now IPC :1.85618: AVG IPC :1.84187: L2-Pf-HR :0.90220: L2-HR :0.86908: (Sim:0h10m13s) 
CPU  0 inst:   68000000 cyc:   36810441 now IPC :1.86102: AVG IPC :1.84216: L2-Pf-HR :0.90294: L2-HR :0.86963: (Sim:0h10m29s) 
CPU  0 inst:   69000004 cyc:   37368838 now IPC :1.79085: AVG IPC :1.84137: L2-Pf-HR :0.90330: L2-HR :0.86983: (Sim:0h10m46s) 
CPU  0 inst:   70000002 cyc:   37930176 now IPC :1.78145: AVG IPC :1.84046: L2-Pf-HR :0.90375: L2-HR :0.86994: (Sim:0h11m3s) 
CPU  0 inst:   71000000 cyc:   38501548 now IPC :1.75017: AVG IPC :1.83908: L2-Pf-HR :0.90403: L2-HR :0.87025: (Sim:0h11m19s) 
CPU  0 inst:   72000004 cyc:   39040823 now IPC :1.85435: AVG IPC :1.83930: L2-Pf-HR :0.90436: L2-HR :0.87053: (Sim:0h11m36s) 
CPU  0 inst:   73000003 cyc:   39713097 now IPC :1.48749: AVG IPC :1.83319: L2-Pf-HR :0.90237: L2-HR :0.86902: (Sim:0h11m53s) 
CPU  0 inst:   74000000 cyc:   40256505 now IPC :1.84023: AVG IPC :1.83329: L2-Pf-HR :0.90267: L2-HR :0.86929: (Sim:0h12m10s) 
CPU  0 inst:   75000000 cyc:   40790533 now IPC :1.87256: AVG IPC :1.83382: L2-Pf-HR :0.90286: L2-HR :0.86956: (Sim:0h12m26s) 
CPU  0 inst:   76000000 cyc:   41317966 now IPC :1.89598: AVG IPC :1.83463: L2-Pf-HR :0.90306: L2-HR :0.86990: (Sim:0h12m43s) 
CPU  0 inst:   77000001 cyc:   41874448 now IPC :1.79701: AVG IPC :1.83412: L2-Pf-HR :0.90349: L2-HR :0.87013: (Sim:0h12m59s) 
CPU  0 inst:   78000003 cyc:   42430855 now IPC :1.79725: AVG IPC :1.83362: L2-Pf-HR :0.90376: L2-HR :0.87011: (Sim:0h13m16s) 
CPU  0 inst:   79000000 cyc:   42992137 now IPC :1.78163: AVG IPC :1.83293: L2-Pf-HR :0.90398: L2-HR :0.87044: (Sim:0h13m33s) 
CPU  0 inst:   80000004 cyc:   43537912 now IPC :1.83226: AVG IPC :1.83292: L2-Pf-HR :0.90428: L2-HR :0.87070: (Sim:0h13m49s) 
CPU  0 inst:   81000003 cyc:   44201146 now IPC :1.50776: AVG IPC :1.82793: L2-Pf-HR :0.90252: L2-HR :0.86931: (Sim:0h14m7s) 
CPU  0 inst:   82000001 cyc:   44733742 now IPC :1.87759: AVG IPC :1.82853: L2-Pf-HR :0.90261: L2-HR :0.86948: (Sim:0h14m23s) 
CPU  0 inst:   83000005 cyc:   45249620 now IPC :1.93845: AVG IPC :1.82981: L2-Pf-HR :0.90298: L2-HR :0.86989: (Sim:0h14m39s) 
CPU  0 inst:   84000002 cyc:   45790901 now IPC :1.84746: AVG IPC :1.83003: L2-Pf-HR :0.90306: L2-HR :0.87001: (Sim:0h14m56s) 
CPU  0 inst:   85000002 cyc:   46331503 now IPC :1.84979: AVG IPC :1.83026: L2-Pf-HR :0.90295: L2-HR :0.86996: (Sim:0h15m13s) 
CPU  0 inst:   86000000 cyc:   46867689 now IPC :1.86502: AVG IPC :1.83067: L2-Pf-HR :0.90345: L2-HR :0.87034: (Sim:0h15m29s) 
CPU  0 inst:   87000000 cyc:   47428580 now IPC :1.78288: AVG IPC :1.83009: L2-Pf-HR :0.90363: L2-HR :0.87063: (Sim:0h15m46s) 
CPU  0 inst:   88000005 cyc:   47980338 now IPC :1.81240: AVG IPC :1.82988: L2-Pf-HR :0.90396: L2-HR :0.87086: (Sim:0h16m2s) 
CPU  0 inst:   89000003 cyc:   48601680 now IPC :1.60942: AVG IPC :1.82701: L2-Pf-HR :0.90259: L2-HR :0.86980: (Sim:0h16m19s) 
CPU  0 inst:   90000001 cyc:   49143282 now IPC :1.84637: AVG IPC :1.82723: L2-Pf-HR :0.90265: L2-HR :0.86990: (Sim:0h16m36s) 
CPU  0 inst:   91000000 cyc:   49689537 now IPC :1.83065: AVG IPC :1.82726: L2-Pf-HR :0.90305: L2-HR :0.87017: (Sim:0h16m52s) 
CPU  0 inst:   92000002 cyc:   50241869 now IPC :1.81051: AVG IPC :1.82708: L2-Pf-HR :0.90310: L2-HR :0.87021: (Sim:0h17m9s) 
CPU  0 inst:   93000004 cyc:   50793879 now IPC :1.81157: AVG IPC :1.82690: L2-Pf-HR :0.90337: L2-HR :0.87036: (Sim:0h17m26s) 
CPU  0 inst:   94000000 cyc:   51344510 now IPC :1.81609: AVG IPC :1.82679: L2-Pf-HR :0.90352: L2-HR :0.87042: (Sim:0h17m43s) 
CPU  0 inst:   95000003 cyc:   51911015 now IPC :1.76521: AVG IPC :1.82610: L2-Pf-HR :0.90374: L2-HR :0.87068: (Sim:0h17m59s) 
CPU  0 inst:   96000005 cyc:   52463501 now IPC :1.81000: AVG IPC :1.82593: L2-Pf-HR :0.90401: L2-HR :0.87090: (Sim:0h18m16s) 
CPU  0 inst:   97000005 cyc:   53118967 now IPC :1.52563: AVG IPC :1.82215: L2-Pf-HR :0.90264: L2-HR :0.86984: (Sim:0h18m33s) 
CPU  0 inst:   98000005 cyc:   53662452 now IPC :1.83998: AVG IPC :1.82234: L2-Pf-HR :0.90271: L2-HR :0.86991: (Sim:0h18m50s) 
CPU  0 inst:   99000000 cyc:   54191409 now IPC :1.89050: AVG IPC :1.82301: L2-Pf-HR :0.90285: L2-HR :0.87013: (Sim:0h19m6s) 
CPU  0 inst:  100000005 cyc:   54741854 now IPC :1.81672: AVG IPC :1.82295: L2-Pf-HR :0.90307: L2-HR :0.87028: (Sim:0h19m23s) 
CPU  0 inst:  101000004 cyc:   55294945 now IPC :1.80802: AVG IPC :1.82280: L2-Pf-HR :0.90325: L2-HR :0.87036: (Sim:0h19m31s) 
CPU  0 inst:  102000000 cyc:   55848353 now IPC :1.80698: AVG IPC :1.82264: L2-Pf-HR :0.90349: L2-HR :0.87049: (Sim:0h19m39s) 
CPU  0 inst:  103000003 cyc:   56413243 now IPC :1.77026: AVG IPC :1.82210: L2-Pf-HR :0.90378: L2-HR :0.87080: (Sim:0h19m48s) 
CPU  0 inst:  104000005 cyc:   56966421 now IPC :1.80774: AVG IPC :1.82196: L2-Pf-HR :0.90408: L2-HR :0.87099: (Sim:0h20m5s) 
CPU  0 inst:  105000002 cyc:   57610983 now IPC :1.55144: AVG IPC :1.81888: L2-Pf-HR :0.90286: L2-HR :0.87002: (Sim:0h20m22s) 
CPU  0 inst:  106000001 cyc:   58148140 now IPC :1.86165: AVG IPC :1.81929: L2-Pf-HR :0.90310: L2-HR :0.87020: (Sim:0h20m38s) 
CPU  0 inst:  107000003 cyc:   58695780 now IPC :1.82602: AVG IPC :1.81935: L2-Pf-HR :0.90326: L2-HR :0.87040: (Sim:0h20m55s) 
CPU  0 inst:  108000000 cyc:   59251729 now IPC :1.79872: AVG IPC :1.81915: L2-Pf-HR :0.90326: L2-HR :0.87042: (Sim:0h21m11s) 
CPU  0 inst:  109000003 cyc:   59786241 now IPC :1.87087: AVG IPC :1.81962: L2-Pf-HR :0.90341: L2-HR :0.87062: (Sim:0h21m27s) 
CPU  0 inst:  110000003 cyc:   60345547 now IPC :1.78793: AVG IPC :1.81932: L2-Pf-HR :0.90356: L2-HR :0.87067: (Sim:0h21m44s) 
CPU  0 inst:  111000004 cyc:   60908942 now IPC :1.77496: AVG IPC :1.81891: L2-Pf-HR :0.90370: L2-HR :0.87088: (Sim:0h22m0s) 
CPU  0 inst:  112000002 cyc:   61461162 now IPC :1.81087: AVG IPC :1.81883: L2-Pf-HR :0.90395: L2-HR :0.87104: (Sim:0h22m17s) 
CPU  0 inst:  113000002 cyc:   62092597 now IPC :1.58369: AVG IPC :1.81640: L2-Pf-HR :0.90276: L2-HR :0.87015: (Sim:0h22m34s) 
CPU  0 inst:  114000001 cyc:   62625133 now IPC :1.87781: AVG IPC :1.81693: L2-Pf-HR :0.90285: L2-HR :0.87028: (Sim:0h22m50s) 
CPU  0 inst:  115000000 cyc:   63155728 now IPC :1.88467: AVG IPC :1.81751: L2-Pf-HR :0.90287: L2-HR :0.87040: (Sim:0h23m6s) 
CPU  0 inst:  116000005 cyc:   63694764 now IPC :1.85517: AVG IPC :1.81784: L2-Pf-HR :0.90309: L2-HR :0.87058: (Sim:0h23m22s) 
CPU  0 inst:  117000000 cyc:   64222691 now IPC :1.89419: AVG IPC :1.81847: L2-Pf-HR :0.90315: L2-HR :0.87071: (Sim:0h23m39s) 
CPU  0 inst:  118000000 cyc:   64781741 now IPC :1.78875: AVG IPC :1.81821: L2-Pf-HR :0.90330: L2-HR :0.87079: (Sim:0h23m55s) 
CPU  0 inst:  119000001 cyc:   65358463 now IPC :1.73394: AVG IPC :1.81746: L2-Pf-HR :0.90350: L2-HR :0.87103: (Sim:0h24m12s) 
CPU  0 inst:  120000000 cyc:   65909812 now IPC :1.81373: AVG IPC :1.81743: L2-Pf-HR :0.90376: L2-HR :0.87118: (Sim:0h24m28s) 
CPU  0 inst:  121000005 cyc:   66539301 now IPC :1.58860: AVG IPC :1.81523: L2-Pf-HR :0.90272: L2-HR :0.87038: (Sim:0h24m45s) 
CPU  0 inst:  122000005 cyc:   67081690 now IPC :1.84370: AVG IPC :1.81546: L2-Pf-HR :0.90267: L2-HR :0.87035: (Sim:0h25m2s) 
CPU  0 inst:  123000000 cyc:   67615633 now IPC :1.87285: AVG IPC :1.81592: L2-Pf-HR :0.90283: L2-HR :0.87052: (Sim:0h25m19s) 
CPU  0 inst:  124000000 cyc:   68160554 now IPC :1.83513: AVG IPC :1.81608: L2-Pf-HR :0.90316: L2-HR :0.87071: (Sim:0h25m36s) 
CPU  0 inst:  125000004 cyc:   68711762 now IPC :1.81420: AVG IPC :1.81606: L2-Pf-HR :0.90326: L2-HR :0.87072: (Sim:0h25m53s) 
CPU  0 inst:  126000004 cyc:   69273838 now IPC :1.77912: AVG IPC :1.81576: L2-Pf-HR :0.90356: L2-HR :0.87081: (Sim:0h26m10s) 
CPU  0 inst:  127000002 cyc:   69843439 now IPC :1.75561: AVG IPC :1.81526: L2-Pf-HR :0.90376: L2-HR :0.87101: (Sim:0h26m28s) 
CPU  0 inst:  128000001 cyc:   70394674 now IPC :1.81411: AVG IPC :1.81525: L2-Pf-HR :0.90399: L2-HR :0.87114: (Sim:0h26m45s) 
CPU  0 inst:  129000000 cyc:   72208361 now IPC :0.55136: AVG IPC :1.78307: L2-Pf-HR :0.89964: L2-HR :0.86273: (Sim:0h27m9s) 
CPU  0 inst:  130000000 cyc:   76429555 now IPC :0.23690: AVG IPC :1.69656: L2-Pf-HR :0.88411: L2-HR :0.83922: (Sim:0h27m53s) 
CPU  0 inst:  131000005 cyc:   81525039 now IPC :0.19625: AVG IPC :1.60164: L2-Pf-HR :0.86890: L2-HR :0.81900: (Sim:0h28m41s) 
CPU  0 inst:  132000004 cyc:   84911855 now IPC :0.29526: AVG IPC :1.54893: L2-Pf-HR :0.86437: L2-HR :0.81496: (Sim:0h29m14s) 
CPU  0 inst:  133000000 cyc:   88067951 now IPC :0.31685: AVG IPC :1.50428: L2-Pf-HR :0.85978: L2-HR :0.81171: (Sim:0h29m46s) 
CPU  0 inst:  134000000 cyc:   91224635 now IPC :0.31679: AVG IPC :1.46274: L2-Pf-HR :0.85523: L2-HR :0.80850: (Sim:0h30m18s) 
CPU  0 inst:  135000004 cyc:   94380459 now IPC :0.31688: AVG IPC :1.42402: L2-Pf-HR :0.85074: L2-HR :0.80534: (Sim:0h30m50s) 
CPU  0 inst:  136000000 cyc:   97537236 now IPC :0.31678: AVG IPC :1.38782: L2-Pf-HR :0.84630: L2-HR :0.80221: (Sim:0h31m22s) 
CPU  0 inst:  137000000 cyc:  100693675 now IPC :0.31681: AVG IPC :1.35392: L2-Pf-HR :0.84190: L2-HR :0.79913: (Sim:0h31m54s) 
CPU  0 inst:  138000000 cyc:  103850109 now IPC :0.31681: AVG IPC :1.32209: L2-Pf-HR :0.83755: L2-HR :0.79609: (Sim:0h32m26s) 
CPU  0 inst:  139000000 cyc:  107007430 now IPC :0.31672: AVG IPC :1.29215: L2-Pf-HR :0.83325: L2-HR :0.79309: (Sim:0h32m58s) 
CPU  0 inst:  140000000 cyc:  110163476 now IPC :0.31685: AVG IPC :1.26396: L2-Pf-HR :0.82898: L2-HR :0.79013: (Sim:0h33m30s) 
CPU  0 inst:  141000002 cyc:  113319222 now IPC :0.31688: AVG IPC :1.23736: L2-Pf-HR :0.82475: L2-HR :0.78720: (Sim:0h34m2s) 
CPU  0 inst:  142000001 cyc:  116475779 now IPC :0.31680: AVG IPC :1.21220: L2-Pf-HR :0.82056: L2-HR :0.78432: (Sim:0h34m34s) 
CPU  0 inst:  143000001 cyc:  119631696 now IPC :0.31687: AVG IPC :1.18838: L2-Pf-HR :0.81641: L2-HR :0.78146: (Sim:0h34m51s) 
CPU  0 inst:  144000000 cyc:  122787194 now IPC :0.31691: AVG IPC :1.16580: L2-Pf-HR :0.81231: L2-HR :0.77865: (Sim:0h35m5s) 
CPU  0 inst:  145000000 cyc:  125943888 now IPC :0.31679: AVG IPC :1.14436: L2-Pf-HR :0.80824: L2-HR :0.77587: (Sim:0h35m20s) 
CPU  0 inst:  146000000 cyc:  129100608 now IPC :0.31678: AVG IPC :1.12397: L2-Pf-HR :0.80422: L2-HR :0.77312: (Sim:0h35m34s) 
CPU  0 inst:  147000000 cyc:  132257185 now IPC :0.31680: AVG IPC :1.10456: L2-Pf-HR :0.80024: L2-HR :0.77041: (Sim:0h35m48s) 
CPU  0 inst:  148000000 cyc:  135414172 now IPC :0.31676: AVG IPC :1.08606: L2-Pf-HR :0.79630: L2-HR :0.76774: (Sim:0h36m3s) 
CPU  0 inst:  149000000 cyc:  138570296 now IPC :0.31684: AVG IPC :1.06841: L2-Pf-HR :0.79239: L2-HR :0.76509: (Sim:0h36m17s) 
CPU  0 inst:  150000000 cyc:  141726227 now IPC :0.31686: AVG IPC :1.05156: L2-Pf-HR :0.78853: L2-HR :0.76248: (Sim:0h36m31s) 
CPU  0 inst:  151000002 cyc:  144883579 now IPC :0.31672: AVG IPC :1.03544: L2-Pf-HR :0.78470: L2-HR :0.75989: (Sim:0h36m45s) 
CPU  0 inst:  152000000 cyc:  148039021 now IPC :0.31691: AVG IPC :1.02002: L2-Pf-HR :0.78091: L2-HR :0.75734: (Sim:0h36m59s) 
CPU  0 inst:  153000002 cyc:  151194297 now IPC :0.31693: AVG IPC :1.00525: L2-Pf-HR :0.77716: L2-HR :0.75482: (Sim:0h37m14s) 
CPU  0 inst:  154000000 cyc:  154350550 now IPC :0.31683: AVG IPC :0.99108: L2-Pf-HR :0.77343: L2-HR :0.75233: (Sim:0h37m28s) 
CPU  0 inst:  155000000 cyc:  157507433 now IPC :0.31677: AVG IPC :0.97748: L2-Pf-HR :0.76975: L2-HR :0.74987: (Sim:0h37m42s) 
CPU  0 inst:  156000000 cyc:  160663987 now IPC :0.31680: AVG IPC :0.96442: L2-Pf-HR :0.76610: L2-HR :0.74743: (Sim:0h37m56s) 
CPU  0 inst:  157000000 cyc:  163820866 now IPC :0.31677: AVG IPC :0.95187: L2-Pf-HR :0.76249: L2-HR :0.74503: (Sim:0h38m11s) 
CPU  0 inst:  158000000 cyc:  166976987 now IPC :0.31684: AVG IPC :0.93979: L2-Pf-HR :0.75890: L2-HR :0.74265: (Sim:0h38m25s) 
CPU  0 inst:  159000000 cyc:  170133109 now IPC :0.31684: AVG IPC :0.92817: L2-Pf-HR :0.75536: L2-HR :0.74030: (Sim:0h38m39s) 
CPU  0 inst:  160000004 cyc:  173290956 now IPC :0.31667: AVG IPC :0.91696: L2-Pf-HR :0.75185: L2-HR :0.73798: (Sim:0h38m53s) 
CPU  0 inst:  161000002 cyc:  176446792 now IPC :0.31687: AVG IPC :0.90617: L2-Pf-HR :0.74837: L2-HR :0.73568: (Sim:0h39m7s) 
CPU  0 inst:  162000001 cyc:  179601468 now IPC :0.31699: AVG IPC :0.89576: L2-Pf-HR :0.74491: L2-HR :0.73341: (Sim:0h39m23s) 
CPU  0 inst:  163000002 cyc:  182757981 now IPC :0.31681: AVG IPC :0.88571: L2-Pf-HR :0.74149: L2-HR :0.73117: (Sim:0h39m37s) 
CPU  0 inst:  164000002 cyc:  184192455 now IPC :0.69712: AVG IPC :0.88423: L2-Pf-HR :0.73929: L2-HR :0.72949: (Sim:0h39m48s) 
CPU  0 inst:  165000005 cyc:  184705686 now IPC :1.94845: AVG IPC :0.88721: L2-Pf-HR :0.74030: L2-HR :0.73019: (Sim:0h39m58s) 
CPU  0 inst:  166000000 cyc:  185232088 now IPC :1.89968: AVG IPC :0.89010: L2-Pf-HR :0.74155: L2-HR :0.73114: (Sim:0h40m6s) 
CPU  0 inst:  167000001 cyc:  185820521 now IPC :1.69943: AVG IPC :0.89268: L2-Pf-HR :0.74250: L2-HR :0.73200: (Sim:0h40m16s) 
CPU  0 inst:  168000000 cyc:  186282511 now IPC :2.16455: AVG IPC :0.89585: L2-Pf-HR :0.74380: L2-HR :0.73297: (Sim:0h40m24s) 
CPU  0 inst:  169000002 cyc:  186792497 now IPC :1.96084: AVG IPC :0.89877: L2-Pf-HR :0.74512: L2-HR :0.73412: (Sim:0h40m41s) 
CPU  0 inst:  170000003 cyc:  187314264 now IPC :1.91657: AVG IPC :0.90162: L2-Pf-HR :0.74671: L2-HR :0.73539: (Sim:0h40m59s) 
CPU  0 inst:  171000001 cyc:  187787158 now IPC :2.11463: AVG IPC :0.90469: L2-Pf-HR :0.74810: L2-HR :0.73647: (Sim:0h41m18s) 
CPU  0 inst:  172000003 cyc:  188410248 now IPC :1.60491: AVG IPC :0.90702: L2-Pf-HR :0.74872: L2-HR :0.73719: (Sim:0h41m38s) 
CPU  0 inst:  173000001 cyc:  188889767 now IPC :2.08542: AVG IPC :0.91003: L2-Pf-HR :0.74961: L2-HR :0.73794: (Sim:0h41m56s) 
CPU  0 inst:  174000003 cyc:  189351331 now IPC :2.16655: AVG IPC :0.91310: L2-Pf-HR :0.75092: L2-HR :0.73901: (Sim:0h42m13s) 
CPU  0 inst:  175000000 cyc:  190016911 now IPC :1.50244: AVG IPC :0.91518: L2-Pf-HR :0.75162: L2-HR :0.73965: (Sim:0h42m28s) 
CPU  0 inst:  176000003 cyc:  190483907 now IPC :2.14135: AVG IPC :0.91820: L2-Pf-HR :0.75311: L2-HR :0.74075: (Sim:0h42m37s) 
CPU  0 inst:  177000002 cyc:  190950839 now IPC :2.14164: AVG IPC :0.92121: L2-Pf-HR :0.75439: L2-HR :0.74170: (Sim:0h42m46s) 
CPU  0 inst:  178000001 cyc:  191449170 now IPC :2.00670: AVG IPC :0.92405: L2-Pf-HR :0.75575: L2-HR :0.74282: (Sim:0h42m54s) 
CPU  0 inst:  179000005 cyc:  191991472 now IPC :1.84400: AVG IPC :0.92666: L2-Pf-HR :0.75700: L2-HR :0.74392: (Sim:0h43m3s) 
CPU  0 inst:  180000003 cyc:  192476467 now IPC :2.06187: AVG IPC :0.92953: L2-Pf-HR :0.75838: L2-HR :0.74509: (Sim:0h43m11s) 
CPU  0 inst:  181000001 cyc:  193079310 now IPC :1.65880: AVG IPC :0.93182: L2-Pf-HR :0.75849: L2-HR :0.74538: (Sim:0h43m20s) 
CPU  0 inst:  182000002 cyc:  193578820 now IPC :2.00196: AVG IPC :0.93460: L2-Pf-HR :0.75950: L2-HR :0.74612: (Sim:0h43m30s) 
CPU  0 inst:  183000003 cyc:  194108173 now IPC :1.88910: AVG IPC :0.93722: L2-Pf-HR :0.76058: L2-HR :0.74695: (Sim:0h43m38s) 
CPU  0 inst:  184000004 cyc:  194676974 now IPC :1.75809: AVG IPC :0.93963: L2-Pf-HR :0.76146: L2-HR :0.74777: (Sim:0h43m47s) 
CPU  0 inst:  185000002 cyc:  195143649 now IPC :2.14281: AVG IPC :0.94252: L2-Pf-HR :0.76268: L2-HR :0.74868: (Sim:0h43m56s) 
CPU  0 inst:  186000005 cyc:  195651276 now IPC :1.96996: AVG IPC :0.94520: L2-Pf-HR :0.76388: L2-HR :0.74965: (Sim:0h44m5s) 
CPU  0 inst:  187000002 cyc:  196164330 now IPC :1.94911: AVG IPC :0.94784: L2-Pf-HR :0.76504: L2-HR :0.75063: (Sim:0h44m13s) 
CPU  0 inst:  188000004 cyc:  196629932 now IPC :2.14776: AVG IPC :0.95069: L2-Pf-HR :0.76624: L2-HR :0.75161: (Sim:0h44m22s) 
CPU  0 inst:  189000002 cyc:  197270393 now IPC :1.56137: AVG IPC :0.95268: L2-Pf-HR :0.76624: L2-HR :0.75211: (Sim:0h44m31s) 
CPU  0 inst:  190000002 cyc:  197755395 now IPC :2.06185: AVG IPC :0.95542: L2-Pf-HR :0.76697: L2-HR :0.75275: (Sim:0h44m40s) 
CPU  0 inst:  191000005 cyc:  198239730 now IPC :2.06469: AVG IPC :0.95814: L2-Pf-HR :0.76803: L2-HR :0.75358: (Sim:0h44m48s) 
CPU  0 inst:  192000001 cyc:  198883892 now IPC :1.55240: AVG IPC :0.96008: L2-Pf-HR :0.76829: L2-HR :0.75413: (Sim:0h44m57s) 
CPU  0 inst:  193000002 cyc:  199353460 now IPC :2.12962: AVG IPC :0.96284: L2-Pf-HR :0.76956: L2-HR :0.75507: (Sim:0h45m6s) 
CPU  0 inst:  194000002 cyc:  199826725 now IPC :2.11298: AVG IPC :0.96558: L2-Pf-HR :0.77067: L2-HR :0.75593: (Sim:0h45m15s) 
CPU  0 inst:  195000002 cyc:  200351425 now IPC :1.90585: AVG IPC :0.96806: L2-Pf-HR :0.77165: L2-HR :0.75677: (Sim:0h45m23s) 
CPU  0 inst:  196000003 cyc:  200844255 now IPC :2.02910: AVG IPC :0.97067: L2-Pf-HR :0.77278: L2-HR :0.75773: (Sim:0h45m32s) 
CPU  0 inst:  197000005 cyc:  201323500 now IPC :2.08662: AVG IPC :0.97334: L2-Pf-HR :0.77392: L2-HR :0.75871: (Sim:0h45m40s) 
CPU  0 inst:  198000001 cyc:  201942984 now IPC :1.61424: AVG IPC :0.97532: L2-Pf-HR :0.77363: L2-HR :0.75885: (Sim:0h45m49s) 
CPU  0 inst:  199000002 cyc:  202406935 now IPC :2.15540: AVG IPC :0.97804: L2-Pf-HR :0.77443: L2-HR :0.75955: (Sim:0h45m57s) 
CPU  0 inst:  200000003 cyc:  202935270 now IPC :1.89274: AVG IPC :0.98043: L2-Pf-HR :0.77532: L2-HR :0.76024: (Sim:0h46m5s) 
CPU  0 inst:  201000000 cyc:  203519623 now IPC :1.71129: AVG IPC :0.98254: L2-Pf-HR :0.77585: L2-HR :0.76096: (Sim:0h46m14s) 
CPU  0 inst:  202000000 cyc:  203991440 now IPC :2.11947: AVG IPC :0.98518: L2-Pf-HR :0.77689: L2-HR :0.76176: (Sim:0h46m24s) 
CPU  0 inst:  203000005 cyc:  204492555 now IPC :1.99556: AVG IPC :0.98767: L2-Pf-HR :0.77788: L2-HR :0.76257: (Sim:0h46m33s) 
CPU  0 inst:  204000005 cyc:  205002757 now IPC :1.96001: AVG IPC :0.99010: L2-Pf-HR :0.77883: L2-HR :0.76340: (Sim:0h46m41s) 
CPU  0 inst:  205000005 cyc:  205472294 now IPC :2.12976: AVG IPC :0.99272: L2-Pf-HR :0.77992: L2-HR :0.76427: (Sim:0h46m49s) 
CPU  0 inst:  206000004 cyc:  206079379 now IPC :1.64721: AVG IPC :0.99465: L2-Pf-HR :0.77977: L2-HR :0.76453: (Sim:0h46m58s) 
CPU  0 inst:  207000004 cyc:  206553650 now IPC :2.10850: AVG IPC :0.99722: L2-Pf-HR :0.78050: L2-HR :0.76514: (Sim:0h47m6s) 
CPU  0 inst:  208000000 cyc:  207069654 now IPC :1.93796: AVG IPC :0.99958: L2-Pf-HR :0.78132: L2-HR :0.76580: (Sim:0h47m14s) 
CPU  0 inst:  209000003 cyc:  207659396 now IPC :1.69566: AVG IPC :1.00156: L2-Pf-HR :0.78169: L2-HR :0.76627: (Sim:0h47m23s) 
CPU  0 inst:  210000000 cyc:  208120813 now IPC :2.16723: AVG IPC :1.00416: L2-Pf-HR :0.78272: L2-HR :0.76705: (Sim:0h47m32s) 
CPU  0 inst:  211000003 cyc:  208592390 now IPC :2.12055: AVG IPC :1.00670: L2-Pf-HR :0.78379: L2-HR :0.76786: (Sim:0h47m40s) 
CPU  0 inst:  212000000 cyc:  209118463 now IPC :1.90087: AVG IPC :1.00896: L2-Pf-HR :0.78445: L2-HR :0.76856: (Sim:0h47m48s) 
CPU  0 inst:  213000002 cyc:  209573177 now IPC :2.19919: AVG IPC :1.01155: L2-Pf-HR :0.78544: L2-HR :0.76939: (Sim:0h47m57s) 
CPU  0 inst:  214000003 cyc:  210045640 now IPC :2.11657: AVG IPC :1.01405: L2-Pf-HR :0.78643: L2-HR :0.77025: (Sim:0h48m5s) 
CPU  0 inst:  215000005 cyc:  210630349 now IPC :1.71026: AVG IPC :1.01599: L2-Pf-HR :0.78606: L2-HR :0.77026: (Sim:0h48m22s) 
CPU  0 inst:  216000000 cyc:  211079203 now IPC :2.22788: AVG IPC :1.01858: L2-Pf-HR :0.78682: L2-HR :0.77092: (Sim:0h48m39s) 
CPU  0 inst:  217000005 cyc:  211596683 now IPC :1.93245: AVG IPC :1.02083: L2-Pf-HR :0.78757: L2-HR :0.77150: (Sim:0h48m56s) 
CPU  0 inst:  218000003 cyc:  212129368 now IPC :1.87728: AVG IPC :1.02299: L2-Pf-HR :0.78807: L2-HR :0.77205: (Sim:0h49m15s) 
CPU  0 inst:  219000002 cyc:  212592803 now IPC :2.15780: AVG IPC :1.02547: L2-Pf-HR :0.78885: L2-HR :0.77263: (Sim:0h49m35s) 
CPU  0 inst:  220000004 cyc:  213072166 now IPC :2.08611: AVG IPC :1.02787: L2-Pf-HR :0.78963: L2-HR :0.77335: (Sim:0h49m52s) 
CPU  0 inst:  221000001 cyc:  213575178 now IPC :1.98802: AVG IPC :1.03014: L2-Pf-HR :0.79043: L2-HR :0.77404: (Sim:0h50m10s) 
CPU  0 inst:  222000004 cyc:  214054664 now IPC :2.08557: AVG IPC :1.03252: L2-Pf-HR :0.79134: L2-HR :0.77482: (Sim:0h50m28s) 
CPU  0 inst:  223000004 cyc:  214641247 now IPC :1.70479: AVG IPC :1.03436: L2-Pf-HR :0.79110: L2-HR :0.77488: (Sim:0h50m46s) 
CPU  0 inst:  224000004 cyc:  215091107 now IPC :2.22291: AVG IPC :1.03686: L2-Pf-HR :0.79183: L2-HR :0.77554: (Sim:0h51m3s) 
CPU  0 inst:  225000000 cyc:  215597739 now IPC :1.97381: AVG IPC :1.03907: L2-Pf-HR :0.79256: L2-HR :0.77611: (Sim:0h51m22s) 
CPU  0 inst:  226000004 cyc:  216142897 now IPC :1.83434: AVG IPC :1.04109: L2-Pf-HR :0.79298: L2-HR :0.77648: (Sim:0h51m41s) 
CPU  0 inst:  227000002 cyc:  216602906 now IPC :2.17387: AVG IPC :1.04350: L2-Pf-HR :0.79372: L2-HR :0.77709: (Sim:0h52m0s) 
CPU  0 inst:  228000003 cyc:  217059876 now IPC :2.18833: AVG IPC :1.04592: L2-Pf-HR :0.79463: L2-HR :0.77785: (Sim:0h52m17s) 
CPU  0 inst:  229000000 cyc:  217572722 now IPC :1.94990: AVG IPC :1.04806: L2-Pf-HR :0.79517: L2-HR :0.77842: (Sim:0h52m35s) 
CPU  0 inst:  230000004 cyc:  218031950 now IPC :2.17758: AVG IPC :1.05045: L2-Pf-HR :0.79602: L2-HR :0.77913: (Sim:0h52m53s) 
CPU  0 inst:  231000005 cyc:  218541831 now IPC :1.96124: AVG IPC :1.05259: L2-Pf-HR :0.79665: L2-HR :0.77976: (Sim:0h53m10s) 
CPU  0 inst:  232000003 cyc:  219081843 now IPC :1.85181: AVG IPC :1.05457: L2-Pf-HR :0.79654: L2-HR :0.77987: (Sim:0h53m29s) 
CPU  0 inst:  233000003 cyc:  219523072 now IPC :2.26640: AVG IPC :1.05701: L2-Pf-HR :0.79719: L2-HR :0.78046: (Sim:0h53m46s) 
CPU  0 inst:  234000001 cyc:  220047200 now IPC :1.90793: AVG IPC :1.05905: L2-Pf-HR :0.79786: L2-HR :0.78092: (Sim:0h54m3s) 
CPU  0 inst:  235000000 cyc:  220578197 now IPC :1.88325: AVG IPC :1.06104: L2-Pf-HR :0.79834: L2-HR :0.78143: (Sim:0h54m23s) 
CPU  0 inst:  236000005 cyc:  221047570 now IPC :2.13051: AVG IPC :1.06332: L2-Pf-HR :0.79909: L2-HR :0.78198: (Sim:0h54m44s) 
CPU  0 inst:  237000000 cyc:  221523872 now IPC :2.09950: AVG IPC :1.06556: L2-Pf-HR :0.79982: L2-HR :0.78264: (Sim:0h55m1s) 
CPU  0 inst:  238000000 cyc:  222026919 now IPC :1.98789: AVG IPC :1.06766: L2-Pf-HR :0.80050: L2-HR :0.78324: (Sim:0h55m20s) 
CPU  0 inst:  239000001 cyc:  222502299 now IPC :2.10358: AVG IPC :1.06988: L2-Pf-HR :0.80131: L2-HR :0.78394: (Sim:0h55m39s) 
CPU  0 inst:  240000004 cyc:  223095922 now IPC :1.68458: AVG IPC :1.07153: L2-Pf-HR :0.80110: L2-HR :0.78395: (Sim:0h55m58s) 
CPU  0 inst:  241000002 cyc:  223546482 now IPC :2.21946: AVG IPC :1.07385: L2-Pf-HR :0.80169: L2-HR :0.78449: (Sim:0h56m15s) 
CPU  0 inst:  242000005 cyc:  224073530 now IPC :1.89737: AVG IPC :1.07580: L2-Pf-HR :0.80224: L2-HR :0.78498: (Sim:0h56m34s) 
CPU  0 inst:  243000003 cyc:  224637050 now IPC :1.77456: AVG IPC :1.07756: L2-Pf-HR :0.80258: L2-HR :0.78529: (Sim:0h56m53s) 
CPU  0 inst:  244000004 cyc:  225100227 now IPC :2.15900: AVG IPC :1.07979: L2-Pf-HR :0.80331: L2-HR :0.78586: (Sim:0h57m12s) 
CPU  0 inst:  245000002 cyc:  225583016 now IPC :2.07129: AVG IPC :1.08192: L2-Pf-HR :0.80399: L2-HR :0.78645: (Sim:0h57m31s) 
CPU  0 inst:  246000001 cyc:  226078299 now IPC :2.01905: AVG IPC :1.08398: L2-Pf-HR :0.80458: L2-HR :0.78699: (Sim:0h57m49s) 
CPU  0 inst:  247000000 cyc:  226538739 now IPC :2.17183: AVG IPC :1.08621: L2-Pf-HR :0.80532: L2-HR :0.78760: (Sim:0h58m8s) 
CPU  0 inst:  248000004 cyc:  227098857 now IPC :1.78535: AVG IPC :1.08794: L2-Pf-HR :0.80560: L2-HR :0.78793: (Sim:0h58m27s) 
CPU  0 inst:  249000002 cyc:  227569714 now IPC :2.12378: AVG IPC :1.09009: L2-Pf-HR :0.80582: L2-HR :0.78823: (Sim:0h58m43s) 
CPU  0 inst:  250000001 cyc:  228019490 now IPC :2.22333: AVG IPC :1.09233: L2-Pf-HR :0.80628: L2-HR :0.78866: (Sim:0h59m1s) 
CPU  0 inst:  251000001 cyc:  228541246 now IPC :1.91660: AVG IPC :1.09422: L2-Pf-HR :0.80683: L2-HR :0.78908: (Sim:0h59m18s) 
CPU  0 inst:  252000003 cyc:  229065351 now IPC :1.90802: AVG IPC :1.09609: L2-Pf-HR :0.80724: L2-HR :0.78946: (Sim:0h59m39s) 
CPU  0 inst:  253000005 cyc:  229518697 now IPC :2.20583: AVG IPC :1.09830: L2-Pf-HR :0.80795: L2-HR :0.79001: (Sim:0h59m58s) 
CPU  0 inst:  254000002 cyc:  229995780 now IPC :2.09607: AVG IPC :1.10037: L2-Pf-HR :0.80862: L2-HR :0.79060: (Sim:1h0m15s) 
CPU  0 inst:  255000003 cyc:  230497161 now IPC :1.99449: AVG IPC :1.10233: L2-Pf-HR :0.80921: L2-HR :0.79112: (Sim:1h0m34s) 
CPU  0 inst:  256000003 cyc:  230974204 now IPC :2.09625: AVG IPC :1.10439: L2-Pf-HR :0.80991: L2-HR :0.79175: (Sim:1h0m52s) 
CPU  0 inst:  257000000 cyc:  231576589 now IPC :1.66006: AVG IPC :1.10584: L2-Pf-HR :0.80946: L2-HR :0.79172: (Sim:1h1m13s) 
CPU  0 inst:  258000004 cyc:  232035878 now IPC :2.17729: AVG IPC :1.10797: L2-Pf-HR :0.80997: L2-HR :0.79218: (Sim:1h1m31s) 
CPU  0 inst:  259000000 cyc:  232553786 now IPC :1.93084: AVG IPC :1.10981: L2-Pf-HR :0.81047: L2-HR :0.79259: (Sim:1h1m50s) 
CPU  0 inst:  260000002 cyc:  233088516 now IPC :1.87011: AVG IPC :1.11156: L2-Pf-HR :0.81077: L2-HR :0.79288: (Sim:1h2m10s) 
CPU  0 inst:  261000005 cyc:  233558910 now IPC :2.12588: AVG IPC :1.11361: L2-Pf-HR :0.81146: L2-HR :0.79341: (Sim:1h2m29s) 
CPU  0 inst:  262000001 cyc:  234057765 now IPC :2.00458: AVG IPC :1.11552: L2-Pf-HR :0.81208: L2-HR :0.79394: (Sim:1h2m48s) 
CPU  0 inst:  263000000 cyc:  234546479 now IPC :2.04618: AVG IPC :1.11747: L2-Pf-HR :0.81261: L2-HR :0.79442: (Sim:1h3m6s) 
CPU  0 inst:  264000000 cyc:  235014633 now IPC :2.13605: AVG IPC :1.11951: L2-Pf-HR :0.81324: L2-HR :0.79494: (Sim:1h3m26s) 
CPU  0 inst:  265000000 cyc:  235590065 now IPC :1.73782: AVG IPC :1.12102: L2-Pf-HR :0.81328: L2-HR :0.79519: (Sim:1h3m45s) 
CPU  0 inst:  266000002 cyc:  236074819 now IPC :2.06291: AVG IPC :1.12296: L2-Pf-HR :0.81350: L2-HR :0.79540: (Sim:1h4m3s) 
CPU  0 inst:  267000000 cyc:  236530119 now IPC :2.19635: AVG IPC :1.12504: L2-Pf-HR :0.81398: L2-HR :0.79583: (Sim:1h4m20s) 
CPU  0 inst:  268000000 cyc:  237084134 now IPC :1.80501: AVG IPC :1.12664: L2-Pf-HR :0.81426: L2-HR :0.79610: (Sim:1h4m38s) 
CPU  0 inst:  269000005 cyc:  237592691 now IPC :1.96636: AVG IPC :1.12844: L2-Pf-HR :0.81461: L2-HR :0.79655: (Sim:1h4m59s) 
CPU  0 inst:  270000004 cyc:  238046853 now IPC :2.20186: AVG IPC :1.13050: L2-Pf-HR :0.81522: L2-HR :0.79702: (Sim:1h5m18s) 
CPU  0 inst:  271000000 cyc:  238524887 now IPC :2.09189: AVG IPC :1.13243: L2-Pf-HR :0.81578: L2-HR :0.79754: (Sim:1h5m35s) 
CPU  0 inst:  272000000 cyc:  239030638 now IPC :1.97726: AVG IPC :1.13423: L2-Pf-HR :0.81629: L2-HR :0.79800: (Sim:1h5m54s) 
CPU  0 inst:  273000000 cyc:  239506247 now IPC :2.10257: AVG IPC :1.13616: L2-Pf-HR :0.81690: L2-HR :0.79857: (Sim:1h6m13s) 
CPU  0 inst:  274000005 cyc:  240082503 now IPC :1.73535: AVG IPC :1.13760: L2-Pf-HR :0.81652: L2-HR :0.79850: (Sim:1h6m32s) 
CPU  0 inst:  275000003 cyc:  240526551 now IPC :2.25200: AVG IPC :1.13967: L2-Pf-HR :0.81697: L2-HR :0.79892: (Sim:1h6m49s) 
CPU  0 inst:  276000003 cyc:  241049615 now IPC :1.91181: AVG IPC :1.14135: L2-Pf-HR :0.81739: L2-HR :0.79926: (Sim:1h7m7s) 
CPU  0 inst:  277000004 cyc:  241600418 now IPC :1.81553: AVG IPC :1.14289: L2-Pf-HR :0.81751: L2-HR :0.79951: (Sim:1h7m27s) 
CPU  0 inst:  278000000 cyc:  242052668 now IPC :2.21116: AVG IPC :1.14490: L2-Pf-HR :0.81809: L2-HR :0.79997: (Sim:1h7m46s) 
CPU  0 inst:  279000000 cyc:  242539544 now IPC :2.05391: AVG IPC :1.14673: L2-Pf-HR :0.81856: L2-HR :0.80044: (Sim:1h8m5s) 
CPU  0 inst:  280000001 cyc:  243036740 now IPC :2.01128: AVG IPC :1.14850: L2-Pf-HR :0.81903: L2-HR :0.80086: (Sim:1h8m23s) 
CPU  0 inst:  281000003 cyc:  243491326 now IPC :2.19981: AVG IPC :1.15048: L2-Pf-HR :0.81959: L2-HR :0.80133: (Sim:1h8m41s) 
CPU  0 inst:  282000000 cyc:  244097091 now IPC :1.65080: AVG IPC :1.15172: L2-Pf-HR :0.81951: L2-HR :0.80147: (Sim:1h9m2s) 
CPU  0 inst:  283000003 cyc:  244577770 now IPC :2.08040: AVG IPC :1.15355: L2-Pf-HR :0.81979: L2-HR :0.80173: (Sim:1h9m15s) 
CPU  0 inst:  284000001 cyc:  245039217 now IPC :2.16709: AVG IPC :1.15547: L2-Pf-HR :0.82021: L2-HR :0.80212: (Sim:1h9m24s) 
CPU  0 inst:  285000005 cyc:  245656137 now IPC :1.62096: AVG IPC :1.15664: L2-Pf-HR :0.82028: L2-HR :0.80222: (Sim:1h9m40s) 
CPU  0 inst:  286000005 cyc:  246124417 now IPC :2.13547: AVG IPC :1.15851: L2-Pf-HR :0.82088: L2-HR :0.80268: (Sim:1h10m0s) 
CPU  0 inst:  287000005 cyc:  246577523 now IPC :2.20699: AVG IPC :1.16045: L2-Pf-HR :0.82139: L2-HR :0.80308: (Sim:1h10m19s) 
CPU  0 inst:  288000000 cyc:  247061209 now IPC :2.06745: AVG IPC :1.16223: L2-Pf-HR :0.82184: L2-HR :0.80354: (Sim:1h10m36s) 
CPU  0 inst:  289000004 cyc:  247574935 now IPC :1.94657: AVG IPC :1.16387: L2-Pf-HR :0.82230: L2-HR :0.80397: (Sim:1h10m55s) 
CPU  0 inst:  290000001 cyc:  248046257 now IPC :2.12169: AVG IPC :1.16569: L2-Pf-HR :0.82286: L2-HR :0.80448: (Sim:1h11m13s) 
CPU  0 inst:  291000000 cyc:  248648359 now IPC :1.66085: AVG IPC :1.16690: L2-Pf-HR :0.82251: L2-HR :0.80432: (Sim:1h11m33s) 
CPU  0 inst:  292000002 cyc:  249100610 now IPC :2.21117: AVG IPC :1.16880: L2-Pf-HR :0.82294: L2-HR :0.80474: (Sim:1h11m50s) 
CPU  0 inst:  293000005 cyc:  249620019 now IPC :1.92527: AVG IPC :1.17038: L2-Pf-HR :0.82336: L2-HR :0.80506: (Sim:1h12m8s) 
CPU  0 inst:  294000002 cyc:  250163807 now IPC :1.83895: AVG IPC :1.17184: L2-Pf-HR :0.82357: L2-HR :0.80529: (Sim:1h12m28s) 
CPU  0 inst:  295000003 cyc:  250618667 now IPC :2.19848: AVG IPC :1.17371: L2-Pf-HR :0.82409: L2-HR :0.80570: (Sim:1h12m47s) 
Finished CPU 0 instr: 293000002 cyc: 249635824 AVG IPC: 1.17371 (Sim time: 1h12m47s)

ChampSim completed all CPUs

[ROI Statistics]
Core_0_instructions 293000002
Core_0_cycles 249635824
Core_0_IPC 1.17371

Core_0_branch_prediction_accuracy 98.23791
Core_0_branch_MPKI 0.42863
Core_0_average_ROB_occupancy_at_mispredict 572.05067

Core_0_L1D_total_access 78858711
Core_0_L1D_total_hit 73326104 L1D_total_Hit Ratio: 0.92984
Core_0_L1D_total_miss 5532607
Core_0_L1D_loads 68770147
Core_0_L1D_load_hit 67165507 L1D_load_Hit Ratio: 0.97667
Core_0_L1D_load_miss 1604640
Core_0_L1D_RFOs 5989667
Core_0_L1D_RFO_hit 5803600 L1D_RFO_Hit Ratio: 0.96894
Core_0_L1D_RFO_miss 186067
Core_0_L1D_prefetches 4098897
Core_0_L1D_prefetch_hit 356997 L1D_prefetch_Hit Ratio: 0.08710
Core_0_L1D_prefetch_miss 3741900
Core_0_L1D_writebacks 0
Core_0_L1D_writeback_hit 0 L1D_writeback_Hit Ratio: -nan
Core_0_L1D_writeback_miss 0
Core_0_L1D_prefetch_requested 4736665
Core_0_L1D_prefetch_issued 4736665
Core_0_L1D_prefetch_useful 3722775 L1D_Useful Ratio: 0.78595
Core_0_L1D_prefetch_useless 44676
Core_0_L1D_prefetch_late 344789
Core_0_L1D_average_miss_latency 7672169.69363

Core_0_L1I_total_access 41667761
Core_0_L1I_total_hit 41665780 L1I_total_Hit Ratio: 0.99995
Core_0_L1I_total_miss 1981
Core_0_L1I_loads 41667761
Core_0_L1I_load_hit 41665780 L1I_load_Hit Ratio: 0.99995
Core_0_L1I_load_miss 1981
Core_0_L1I_RFOs 0
Core_0_L1I_RFO_hit 0 L1I_RFO_Hit Ratio: -nan
Core_0_L1I_RFO_miss 0
Core_0_L1I_prefetches 0
Core_0_L1I_prefetch_hit 0 L1I_prefetch_Hit Ratio: -nan
Core_0_L1I_prefetch_miss 0
Core_0_L1I_writebacks 0
Core_0_L1I_writeback_hit 0 L1I_writeback_Hit Ratio: -nan
Core_0_L1I_writeback_miss 0
Core_0_L1I_prefetch_requested 0
Core_0_L1I_prefetch_issued 0
Core_0_L1I_prefetch_useful 0 L1I_Useful Ratio: -nan
Core_0_L1I_prefetch_useless 0
Core_0_L1I_prefetch_late 0
Core_0_L1I_average_miss_latency 263.84503

Core_0_L2C_total_access 8083677
Core_0_L2C_total_hit 6513006 L2C_total_Hit Ratio: 0.80570
Core_0_L2C_total_miss 1570671
Core_0_L2C_loads 1262289
Core_0_L2C_load_hit 721992 L2C_load_Hit Ratio: 0.57197
Core_0_L2C_load_miss 540297
Core_0_L2C_RFOs 186053
Core_0_L2C_RFO_hit 45695 L2C_RFO_Hit Ratio: 0.24560
Core_0_L2C_RFO_miss 140358
Core_0_L2C_prefetches 5059344
Core_0_L2C_prefetch_hit 4169334 L2C_prefetch_Hit Ratio: 0.82409
Core_0_L2C_prefetch_miss 890010
Core_0_L2C_writebacks 1575991
Core_0_L2C_writeback_hit 1575985 L2C_writeback_Hit Ratio: 1.00000
Core_0_L2C_writeback_miss 6
Core_0_L2C_prefetch_requested 2339545
Core_0_L2C_prefetch_issued 2339545
Core_0_L2C_prefetch_useful 205782 L2C_Useful Ratio: 0.08796
Core_0_L2C_prefetch_useless 669157
Core_0_L2C_prefetch_late 231529
Core_0_L2C_average_miss_latency 350.27292

Core_0_LLC_total_access 2417962
Core_0_LLC_total_hit 840069 LLC_total_Hit Ratio: 0.34743
Core_0_LLC_total_miss 1577893
Core_0_LLC_loads 308854
Core_0_LLC_load_hit 3 LLC_load_Hit Ratio: 0.00001
Core_0_LLC_load_miss 308851
Core_0_LLC_RFOs 140358
Core_0_LLC_RFO_hit 1 LLC_RFO_Hit Ratio: 0.00001
Core_0_LLC_RFO_miss 140357
Core_0_LLC_prefetches 1121453
Core_0_LLC_prefetch_hit 0 LLC_prefetch_Hit Ratio: 0.00000
Core_0_LLC_prefetch_miss 1121453
Core_0_LLC_writebacks 847297
Core_0_LLC_writeback_hit 840065 LLC_writeback_Hit Ratio: 0.99146
Core_0_LLC_writeback_miss 7232
Core_0_LLC_prefetch_requested 0
Core_0_LLC_prefetch_issued 0
Core_0_LLC_prefetch_useful 1 LLC_Useful Ratio: inf
Core_0_LLC_prefetch_useless 1031237
Core_0_LLC_prefetch_late 0
Core_0_LLC_average_miss_latency 351.97023

Core_0_major_page_fault 0
Core_0_minor_page_fault 13331

[Bingo] PHT Access: 396316
[Bingo] PHT Hit PC+Addr: 16475
[Bingo] PHT Hit PC+Offs: 368080
[Bingo] PHT Miss: 11761
[Bingo] Prefetch PC+Addr: 0
[Bingo] Prefetch PC+Offs: 0
[Bingo] Useful PC+Addr: 0
[Bingo] Useful PC+Offs: 0
[Bingo] Useless PC+Addr: 0
[Bingo] Useless PC+Offs: 0
[Bingo] L1 Prefetch per Region: 14.68909
[Bingo] L2 Prefetch per Region: 0.13991
[Bingo] L3 Prefetch per Region: 0.00000
[Bingo] No Prefetch per Region: 17.17100
[Bingo] Number of Voters Mean: 15.80971
[Bingo] Number of Voters SD: 1.96595
PHT read accesses: 6011968
PHT write accesses: 385050
AT read accesses: 66730252
AT write accesses: 66730320
FT read accesses: 6575093
FT write accesses: 396316
PS read accesses: 2985282
PS write accesses: 384555
PHT tag read accesses: 18222497
PHT tag write accesses: 401525
AT tag read accesses: 1214170524
AT tag write accesses: 67115279
FT tag read accesses: 157345459
FT tag write accesses: 3881893
PS tag read accesses: 1124829446
PS tag write accesses: 3365870
[Bingo2] PHT Access: 302047
[Bingo2] PHT Hit PC+Addr: 20043
[Bingo2] PHT Hit PC+Offs: 268409
[Bingo2] PHT Miss: 13595
[Bingo2] Prefetch PC+Addr: 0
[Bingo2] Prefetch PC+Offs: 0
[Bingo2] Useful PC+Addr: 0
[Bingo2] Useful PC+Offs: 0
[Bingo2] Useless PC+Addr: 0
[Bingo2] Useless PC+Offs: 0
[Bingo2] L1 Prefetch per Region: 0.00000
[Bingo2] L2 Prefetch per Region: 12.55319
[Bingo2] L3 Prefetch per Region: 0.00000
[Bingo2] No Prefetch per Region: 19.44681
[Bingo2] Number of Voters Mean: 15.72560
[Bingo2] Number of Voters SD: 1.85846
PHT read accesses: 4470054
PHT write accesses: 188100
AT read accesses: 945288
AT write accesses: 1133258
FT read accesses: 594573
FT write accesses: 302047
PS read accesses: 708518
PS write accesses: 288452
PHT tag read accesses: 10551508
PHT tag write accesses: 208143
AT tag read accesses: 53561907
AT tag write accesses: 1133388
FT tag read accesses: 43553344
FT tag write accesses: 693436
PS tag read accesses: 30019459
PS tag write accesses: 955124
Channel_0_RQ_row_buffer_hit 901668
Channel_0_RQ_row_buffer_miss 668993
Channel_0_WQ_row_buffer_hit 337632
Channel_0_WQ_row_buffer_miss 501916
Channel_0_WQ_full 6185
Channel_0_dbus_congested 1520281

avg_congested_cycle 8

EzSearch AVG IPC :1.17371: L2-Pf-HR :0.82409 : L2-HR :0.80570 Uful:0.08796
     > Finished combination: TraceType=770-tot Sim:293000000 Prefetcher=L2bingo_dpc3 L1=bingo_dpc3
