TRACE: [331000000][Pythia-70M]_[h8][s1024][d64] Warmup: 2000000 NumTraces: 331000000
L1:bingo_dpc3_PHT1k:L2:bingo_dpc3_PHT1k
*************************************************
   ChampSim Multicore Out-of-Order Simulator
   Last compiled: Oct 26 2024 21:07:14
*************************************************

trace_0 770-tot_memTraces_v3/memTraces[331000000][Pythia-70M]_[h8][s1024][d64].champsim.xz
Bingo PHT WAYS: 16 and PHT_SIZE: 1024
Bingo2 PHT WAYS: 16 and PHT_SIZE: 1024
MAIN.cc ln 751 stats print skipped
CPU  0 inst:    1000000 cyc:     497188 now IPC :2.01131: AVG IPC :2.01131: L2-Pf-HR :0.79948: L2-HR :0.66317: (Sim:0h0m20s) 
CPU  0 inst:    2000003 cyc:     979149 now IPC :2.07486: AVG IPC :2.04259: L2-Pf-HR :0.82299: L2-HR :0.73855: (Sim:0h0m43s) 

Warmup complete CPU  0 instructions:    2000003 cycles:     979149 (Simulation time: 0 hr 0 min 43 sec) 

CPU  0 inst:    3000005 cyc:    1593859 now IPC :1.62679: AVG IPC :1.62679: L2-Pf-HR :0.92455: L2-HR :0.81075: (Sim:0h1m1s) 
CPU  0 inst:    4000001 cyc:    2205959 now IPC :1.63371: AVG IPC :1.63024: L2-Pf-HR :0.92049: L2-HR :0.80674: (Sim:0h1m20s) 
CPU  0 inst:    5000000 cyc:    2795842 now IPC :1.69525: AVG IPC :1.65135: L2-Pf-HR :0.90365: L2-HR :0.80651: (Sim:0h1m38s) 
CPU  0 inst:    6000000 cyc:    3411341 now IPC :1.62470: AVG IPC :1.64461: L2-Pf-HR :0.90558: L2-HR :0.80236: (Sim:0h1m57s) 
CPU  0 inst:    7000004 cyc:    4068386 now IPC :1.52197: AVG IPC :1.61852: L2-Pf-HR :0.91680: L2-HR :0.80468: (Sim:0h2m16s) 
CPU  0 inst:    8000001 cyc:    4660725 now IPC :1.68822: AVG IPC :1.62974: L2-Pf-HR :0.92709: L2-HR :0.80901: (Sim:0h2m34s) 
CPU  0 inst:    9000001 cyc:    5253861 now IPC :1.68595: AVG IPC :1.63754: L2-Pf-HR :0.93482: L2-HR :0.81256: (Sim:0h2m53s) 
CPU  0 inst:   10000001 cyc:    5848010 now IPC :1.68308: AVG IPC :1.64309: L2-Pf-HR :0.94127: L2-HR :0.81440: (Sim:0h3m11s) 
CPU  0 inst:   11000001 cyc:    6438564 now IPC :1.69333: AVG IPC :1.64853: L2-Pf-HR :0.94554: L2-HR :0.81709: (Sim:0h3m29s) 
CPU  0 inst:   12000002 cyc:    7029519 now IPC :1.69218: AVG IPC :1.65279: L2-Pf-HR :0.94886: L2-HR :0.81790: (Sim:0h3m48s) 
CPU  0 inst:   13000000 cyc:    7662703 now IPC :1.57932: AVG IPC :1.64583: L2-Pf-HR :0.95007: L2-HR :0.81742: (Sim:0h4m6s) 
CPU  0 inst:   14000003 cyc:    8254892 now IPC :1.68866: AVG IPC :1.64932: L2-Pf-HR :0.95272: L2-HR :0.81799: (Sim:0h4m25s) 
CPU  0 inst:   15000000 cyc:    8843971 now IPC :1.69756: AVG IPC :1.65293: L2-Pf-HR :0.95457: L2-HR :0.81878: (Sim:0h4m43s) 
CPU  0 inst:   16000001 cyc:    9422142 now IPC :1.72959: AVG IPC :1.65818: L2-Pf-HR :0.95403: L2-HR :0.81974: (Sim:0h5m1s) 
CPU  0 inst:   17000003 cyc:   10083605 now IPC :1.51180: AVG IPC :1.64754: L2-Pf-HR :0.95297: L2-HR :0.81792: (Sim:0h5m20s) 
CPU  0 inst:   18000000 cyc:   10683601 now IPC :1.66667: AVG IPC :1.64873: L2-Pf-HR :0.95299: L2-HR :0.81848: (Sim:0h5m39s) 
CPU  0 inst:   19000001 cyc:   11285000 now IPC :1.66279: AVG IPC :1.64955: L2-Pf-HR :0.95307: L2-HR :0.81833: (Sim:0h5m58s) 
CPU  0 inst:   20000002 cyc:   11886164 now IPC :1.66344: AVG IPC :1.65031: L2-Pf-HR :0.95344: L2-HR :0.81882: (Sim:0h6m16s) 
CPU  0 inst:   21000003 cyc:   12486206 now IPC :1.66655: AVG IPC :1.65116: L2-Pf-HR :0.95350: L2-HR :0.81874: (Sim:0h6m35s) 
CPU  0 inst:   22000005 cyc:   13086239 now IPC :1.66658: AVG IPC :1.65192: L2-Pf-HR :0.95354: L2-HR :0.81878: (Sim:0h6m54s) 
CPU  0 inst:   23000001 cyc:   13752990 now IPC :1.49980: AVG IPC :1.64398: L2-Pf-HR :0.95359: L2-HR :0.81811: (Sim:0h7m13s) 
CPU  0 inst:   24000002 cyc:   14366412 now IPC :1.63020: AVG IPC :1.64335: L2-Pf-HR :0.95503: L2-HR :0.81879: (Sim:0h7m31s) 
CPU  0 inst:   25000001 cyc:   14978477 now IPC :1.63381: AVG IPC :1.64294: L2-Pf-HR :0.95644: L2-HR :0.81924: (Sim:0h7m50s) 
CPU  0 inst:   26000004 cyc:   15587470 now IPC :1.64206: AVG IPC :1.64290: L2-Pf-HR :0.95763: L2-HR :0.82000: (Sim:0h8m9s) 
CPU  0 inst:   27000005 cyc:   16195275 now IPC :1.64527: AVG IPC :1.64299: L2-Pf-HR :0.95856: L2-HR :0.82031: (Sim:0h8m27s) 
CPU  0 inst:   28000000 cyc:   16800656 now IPC :1.65184: AVG IPC :1.64333: L2-Pf-HR :0.95938: L2-HR :0.82095: (Sim:0h8m46s) 
CPU  0 inst:   29000004 cyc:   17489942 now IPC :1.45078: AVG IPC :1.63529: L2-Pf-HR :0.95968: L2-HR :0.82040: (Sim:0h9m5s) 
CPU  0 inst:   30000004 cyc:   18137748 now IPC :1.54367: AVG IPC :1.63183: L2-Pf-HR :0.96063: L2-HR :0.82065: (Sim:0h9m24s) 
CPU  0 inst:   31000005 cyc:   18778295 now IPC :1.56117: AVG IPC :1.62929: L2-Pf-HR :0.96122: L2-HR :0.82097: (Sim:0h9m43s) 
CPU  0 inst:   32000002 cyc:   19398216 now IPC :1.61310: AVG IPC :1.62875: L2-Pf-HR :0.96069: L2-HR :0.82115: (Sim:0h10m2s) 
CPU  0 inst:   33000000 cyc:   20121940 now IPC :1.38174: AVG IPC :1.61941: L2-Pf-HR :0.96019: L2-HR :0.82054: (Sim:0h10m21s) 
CPU  0 inst:   34000000 cyc:   20778655 now IPC :1.52273: AVG IPC :1.61620: L2-Pf-HR :0.95996: L2-HR :0.82043: (Sim:0h10m40s) 
CPU  0 inst:   35000000 cyc:   21436957 now IPC :1.51906: AVG IPC :1.61308: L2-Pf-HR :0.95995: L2-HR :0.82057: (Sim:0h11m0s) 
CPU  0 inst:   36000004 cyc:   22096720 now IPC :1.51570: AVG IPC :1.61003: L2-Pf-HR :0.95997: L2-HR :0.82051: (Sim:0h11m19s) 
CPU  0 inst:   37000000 cyc:   22755492 now IPC :1.51797: AVG IPC :1.60725: L2-Pf-HR :0.95988: L2-HR :0.82061: (Sim:0h11m38s) 
CPU  0 inst:   38000001 cyc:   23416870 now IPC :1.51200: AVG IPC :1.60444: L2-Pf-HR :0.95978: L2-HR :0.82049: (Sim:0h11m57s) 
CPU  0 inst:   39000000 cyc:   24162508 now IPC :1.34113: AVG IPC :1.59597: L2-Pf-HR :0.95960: L2-HR :0.82004: (Sim:0h12m17s) 
CPU  0 inst:   40000002 cyc:   24815483 now IPC :1.53146: AVG IPC :1.59420: L2-Pf-HR :0.96027: L2-HR :0.82036: (Sim:0h12m36s) 
CPU  0 inst:   41000000 cyc:   25467857 now IPC :1.53286: AVG IPC :1.59257: L2-Pf-HR :0.96099: L2-HR :0.82074: (Sim:0h12m56s) 
CPU  0 inst:   42000005 cyc:   26121887 now IPC :1.52899: AVG IPC :1.59092: L2-Pf-HR :0.96170: L2-HR :0.82091: (Sim:0h13m15s) 
CPU  0 inst:   43000000 cyc:   26770525 now IPC :1.54168: AVG IPC :1.58968: L2-Pf-HR :0.96213: L2-HR :0.82137: (Sim:0h13m34s) 
CPU  0 inst:   44000000 cyc:   27421000 now IPC :1.53734: AVG IPC :1.58839: L2-Pf-HR :0.96261: L2-HR :0.82153: (Sim:0h13m53s) 
CPU  0 inst:   45000000 cyc:   28129964 now IPC :1.41051: AVG IPC :1.58375: L2-Pf-HR :0.96264: L2-HR :0.82127: (Sim:0h14m12s) 
CPU  0 inst:   46000005 cyc:   28786604 now IPC :1.52291: AVG IPC :1.58231: L2-Pf-HR :0.96314: L2-HR :0.82151: (Sim:0h14m31s) 
CPU  0 inst:   47000002 cyc:   29442985 now IPC :1.52350: AVG IPC :1.58095: L2-Pf-HR :0.96348: L2-HR :0.82158: (Sim:0h14m50s) 
CPU  0 inst:   48000004 cyc:   30081721 now IPC :1.56560: AVG IPC :1.58062: L2-Pf-HR :0.96306: L2-HR :0.82180: (Sim:0h15m9s) 
CPU  0 inst:   49000005 cyc:   30824456 now IPC :1.34638: AVG IPC :1.57479: L2-Pf-HR :0.96256: L2-HR :0.82118: (Sim:0h15m29s) 
CPU  0 inst:   50000003 cyc:   31483165 now IPC :1.51812: AVG IPC :1.57356: L2-Pf-HR :0.96236: L2-HR :0.82133: (Sim:0h15m48s) 
CPU  0 inst:   51000004 cyc:   32143112 now IPC :1.51527: AVG IPC :1.57233: L2-Pf-HR :0.96224: L2-HR :0.82127: (Sim:0h16m8s) 
CPU  0 inst:   52000001 cyc:   32803444 now IPC :1.51439: AVG IPC :1.57113: L2-Pf-HR :0.96227: L2-HR :0.82129: (Sim:0h16m27s) 
CPU  0 inst:   53000000 cyc:   33460788 now IPC :1.52127: AVG IPC :1.57012: L2-Pf-HR :0.96214: L2-HR :0.82126: (Sim:0h16m46s) 
CPU  0 inst:   54000001 cyc:   34123168 now IPC :1.50971: AVG IPC :1.56891: L2-Pf-HR :0.96205: L2-HR :0.82126: (Sim:0h17m5s) 
CPU  0 inst:   55000005 cyc:   34870928 now IPC :1.33733: AVG IPC :1.56380: L2-Pf-HR :0.96182: L2-HR :0.82083: (Sim:0h17m25s) 
CPU  0 inst:   56000004 cyc:   35529969 now IPC :1.51735: AVG IPC :1.56292: L2-Pf-HR :0.96228: L2-HR :0.82108: (Sim:0h17m44s) 
CPU  0 inst:   57000001 cyc:   36188498 now IPC :1.51853: AVG IPC :1.56209: L2-Pf-HR :0.96276: L2-HR :0.82124: (Sim:0h18m3s) 
CPU  0 inst:   58000001 cyc:   36846517 now IPC :1.51971: AVG IPC :1.56131: L2-Pf-HR :0.96319: L2-HR :0.82156: (Sim:0h18m23s) 
CPU  0 inst:   59000001 cyc:   37498644 now IPC :1.53344: AVG IPC :1.56081: L2-Pf-HR :0.96340: L2-HR :0.82167: (Sim:0h18m42s) 
CPU  0 inst:   60000004 cyc:   38152115 now IPC :1.53029: AVG IPC :1.56027: L2-Pf-HR :0.96372: L2-HR :0.82194: (Sim:0h19m1s) 
CPU  0 inst:   61000002 cyc:   38858072 now IPC :1.41651: AVG IPC :1.55759: L2-Pf-HR :0.96376: L2-HR :0.82175: (Sim:0h19m20s) 
CPU  0 inst:   62000002 cyc:   39502449 now IPC :1.55189: AVG IPC :1.55750: L2-Pf-HR :0.96413: L2-HR :0.82184: (Sim:0h19m39s) 
CPU  0 inst:   63000001 cyc:   40148345 now IPC :1.54824: AVG IPC :1.55735: L2-Pf-HR :0.96443: L2-HR :0.82187: (Sim:0h19m58s) 
CPU  0 inst:   64000000 cyc:   40780880 now IPC :1.58094: AVG IPC :1.55772: L2-Pf-HR :0.96428: L2-HR :0.82208: (Sim:0h20m17s) 
CPU  0 inst:   65000002 cyc:   41512455 now IPC :1.36692: AVG IPC :1.55428: L2-Pf-HR :0.96405: L2-HR :0.82166: (Sim:0h20m37s) 
CPU  0 inst:   66000004 cyc:   42166215 now IPC :1.52962: AVG IPC :1.55389: L2-Pf-HR :0.96395: L2-HR :0.82165: (Sim:0h20m56s) 
CPU  0 inst:   67000004 cyc:   42819267 now IPC :1.53127: AVG IPC :1.55353: L2-Pf-HR :0.96382: L2-HR :0.82167: (Sim:0h21m15s) 
CPU  0 inst:   68000005 cyc:   43472329 now IPC :1.53125: AVG IPC :1.55319: L2-Pf-HR :0.96374: L2-HR :0.82165: (Sim:0h21m34s) 
CPU  0 inst:   69000000 cyc:   44125417 now IPC :1.53118: AVG IPC :1.55286: L2-Pf-HR :0.96360: L2-HR :0.82164: (Sim:0h21m54s) 
CPU  0 inst:   70000004 cyc:   44777449 now IPC :1.53367: AVG IPC :1.55257: L2-Pf-HR :0.96347: L2-HR :0.82161: (Sim:0h22m13s) 
CPU  0 inst:   71000001 cyc:   45517923 now IPC :1.35048: AVG IPC :1.54921: L2-Pf-HR :0.96323: L2-HR :0.82127: (Sim:0h22m33s) 
CPU  0 inst:   72000005 cyc:   46169656 now IPC :1.53438: AVG IPC :1.54900: L2-Pf-HR :0.96358: L2-HR :0.82141: (Sim:0h22m52s) 
CPU  0 inst:   73000001 cyc:   46821238 now IPC :1.53472: AVG IPC :1.54879: L2-Pf-HR :0.96390: L2-HR :0.82162: (Sim:0h23m11s) 
CPU  0 inst:   74000002 cyc:   47475127 now IPC :1.52931: AVG IPC :1.54852: L2-Pf-HR :0.96427: L2-HR :0.82169: (Sim:0h23m30s) 
CPU  0 inst:   75000000 cyc:   48123205 now IPC :1.54302: AVG IPC :1.54845: L2-Pf-HR :0.96443: L2-HR :0.82192: (Sim:0h23m49s) 
CPU  0 inst:   76000003 cyc:   48769577 now IPC :1.54710: AVG IPC :1.54843: L2-Pf-HR :0.96462: L2-HR :0.82206: (Sim:0h24m8s) 
CPU  0 inst:   77000003 cyc:   49469234 now IPC :1.42927: AVG IPC :1.54671: L2-Pf-HR :0.96464: L2-HR :0.82195: (Sim:0h24m27s) 
CPU  0 inst:   78000004 cyc:   50120763 now IPC :1.53485: AVG IPC :1.54655: L2-Pf-HR :0.96491: L2-HR :0.82197: (Sim:0h24m47s) 
CPU  0 inst:   79000000 cyc:   50770432 now IPC :1.53924: AVG IPC :1.54646: L2-Pf-HR :0.96521: L2-HR :0.82209: (Sim:0h25m6s) 
CPU  0 inst:   80000002 cyc:   51402712 now IPC :1.58158: AVG IPC :1.54690: L2-Pf-HR :0.96494: L2-HR :0.82214: (Sim:0h25m24s) 
CPU  0 inst:   81000001 cyc:   52125405 now IPC :1.38371: AVG IPC :1.54459: L2-Pf-HR :0.96471: L2-HR :0.82181: (Sim:0h25m44s) 
CPU  0 inst:   82000003 cyc:   52795140 now IPC :1.49313: AVG IPC :1.54392: L2-Pf-HR :0.96464: L2-HR :0.82190: (Sim:0h26m3s) 
CPU  0 inst:   83000000 cyc:   53464784 now IPC :1.49333: AVG IPC :1.54328: L2-Pf-HR :0.96447: L2-HR :0.82185: (Sim:0h26m23s) 
CPU  0 inst:   84000002 cyc:   54136489 now IPC :1.48875: AVG IPC :1.54259: L2-Pf-HR :0.96441: L2-HR :0.82186: (Sim:0h26m41s) 
CPU  0 inst:   85000004 cyc:   54808363 now IPC :1.48838: AVG IPC :1.54191: L2-Pf-HR :0.96434: L2-HR :0.82185: (Sim:0h26m59s) 
CPU  0 inst:   86000004 cyc:   55477995 now IPC :1.49336: AVG IPC :1.54132: L2-Pf-HR :0.96422: L2-HR :0.82183: (Sim:0h27m17s) 
CPU  0 inst:   87000002 cyc:   56215034 now IPC :1.35678: AVG IPC :1.53885: L2-Pf-HR :0.96405: L2-HR :0.82152: (Sim:0h27m37s) 
CPU  0 inst:   88000003 cyc:   56888281 now IPC :1.48534: AVG IPC :1.53821: L2-Pf-HR :0.96433: L2-HR :0.82167: (Sim:0h27m56s) 
CPU  0 inst:   89000003 cyc:   57545897 now IPC :1.52064: AVG IPC :1.53801: L2-Pf-HR :0.96459: L2-HR :0.82174: (Sim:0h28m15s) 
CPU  0 inst:   90000004 cyc:   58204058 now IPC :1.51939: AVG IPC :1.53779: L2-Pf-HR :0.96484: L2-HR :0.82194: (Sim:0h28m34s) 
CPU  0 inst:   91000001 cyc:   58861578 now IPC :1.52086: AVG IPC :1.53760: L2-Pf-HR :0.96511: L2-HR :0.82200: (Sim:0h28m53s) 
CPU  0 inst:   92000004 cyc:   59515236 now IPC :1.52986: AVG IPC :1.53751: L2-Pf-HR :0.96527: L2-HR :0.82215: (Sim:0h29m12s) 
CPU  0 inst:   93000002 cyc:   60225353 now IPC :1.40822: AVG IPC :1.53596: L2-Pf-HR :0.96527: L2-HR :0.82206: (Sim:0h29m31s) 
CPU  0 inst:   94000001 cyc:   60885737 now IPC :1.51427: AVG IPC :1.53572: L2-Pf-HR :0.96548: L2-HR :0.82208: (Sim:0h29m50s) 
CPU  0 inst:   95000005 cyc:   61542108 now IPC :1.52353: AVG IPC :1.53559: L2-Pf-HR :0.96569: L2-HR :0.82215: (Sim:0h30m9s) 
CPU  0 inst:   96000000 cyc:   62184875 now IPC :1.55577: AVG IPC :1.53580: L2-Pf-HR :0.96558: L2-HR :0.82217: (Sim:0h30m27s) 
CPU  0 inst:   97000000 cyc:   62885681 now IPC :1.42693: AVG IPC :1.53457: L2-Pf-HR :0.96535: L2-HR :0.82195: (Sim:0h30m47s) 
CPU  0 inst:   98000002 cyc:   63577646 now IPC :1.44516: AVG IPC :1.53358: L2-Pf-HR :0.96534: L2-HR :0.82199: (Sim:0h31m6s) 
CPU  0 inst:   99000002 cyc:   64243109 now IPC :1.50271: AVG IPC :1.53326: L2-Pf-HR :0.96519: L2-HR :0.82198: (Sim:0h31m25s) 
CPU  0 inst:  100000001 cyc:   64911037 now IPC :1.49717: AVG IPC :1.53288: L2-Pf-HR :0.96513: L2-HR :0.82197: (Sim:0h31m44s) 
CPU  0 inst:  101000003 cyc:   65578639 now IPC :1.49790: AVG IPC :1.53252: L2-Pf-HR :0.96504: L2-HR :0.82197: (Sim:0h32m3s) 
CPU  0 inst:  102000001 cyc:   66240265 now IPC :1.51142: AVG IPC :1.53231: L2-Pf-HR :0.96485: L2-HR :0.82197: (Sim:0h32m22s) 
CPU  0 inst:  103000003 cyc:   66917453 now IPC :1.47670: AVG IPC :1.53173: L2-Pf-HR :0.96482: L2-HR :0.82198: (Sim:0h32m33s) 
CPU  0 inst:  104000000 cyc:   67637398 now IPC :1.38899: AVG IPC :1.53019: L2-Pf-HR :0.96477: L2-HR :0.82178: (Sim:0h32m41s) 
CPU  0 inst:  105000001 cyc:   68276730 now IPC :1.56413: AVG IPC :1.53052: L2-Pf-HR :0.96499: L2-HR :0.82193: (Sim:0h32m49s) 
CPU  0 inst:  106000005 cyc:   68919529 now IPC :1.55570: AVG IPC :1.53075: L2-Pf-HR :0.96522: L2-HR :0.82198: (Sim:0h32m56s) 
CPU  0 inst:  107000005 cyc:   69557729 now IPC :1.56691: AVG IPC :1.53109: L2-Pf-HR :0.96537: L2-HR :0.82213: (Sim:0h33m4s) 
CPU  0 inst:  108000002 cyc:   70192977 now IPC :1.57418: AVG IPC :1.53149: L2-Pf-HR :0.96548: L2-HR :0.82221: (Sim:0h33m12s) 
CPU  0 inst:  109000004 cyc:   70841175 now IPC :1.54274: AVG IPC :1.53159: L2-Pf-HR :0.96567: L2-HR :0.82235: (Sim:0h33m20s) 
CPU  0 inst:  110000004 cyc:   71535252 now IPC :1.44076: AVG IPC :1.53070: L2-Pf-HR :0.96570: L2-HR :0.82219: (Sim:0h33m28s) 
CPU  0 inst:  111000001 cyc:   72180663 now IPC :1.54940: AVG IPC :1.53087: L2-Pf-HR :0.96587: L2-HR :0.82221: (Sim:0h33m36s) 
CPU  0 inst:  112000004 cyc:   72815456 now IPC :1.57532: AVG IPC :1.53126: L2-Pf-HR :0.96583: L2-HR :0.82229: (Sim:0h33m44s) 
CPU  0 inst:  113000003 cyc:   73452565 now IPC :1.56959: AVG IPC :1.53160: L2-Pf-HR :0.96584: L2-HR :0.82236: (Sim:0h33m52s) 
CPU  0 inst:  114000003 cyc:   74199196 now IPC :1.33935: AVG IPC :1.52964: L2-Pf-HR :0.96554: L2-HR :0.82210: (Sim:0h34m0s) 
CPU  0 inst:  115000000 cyc:   74853047 now IPC :1.52940: AVG IPC :1.52963: L2-Pf-HR :0.96546: L2-HR :0.82210: (Sim:0h34m8s) 
CPU  0 inst:  116000002 cyc:   75509999 now IPC :1.52218: AVG IPC :1.52957: L2-Pf-HR :0.96537: L2-HR :0.82207: (Sim:0h34m16s) 
CPU  0 inst:  117000002 cyc:   76167837 now IPC :1.52013: AVG IPC :1.52949: L2-Pf-HR :0.96530: L2-HR :0.82207: (Sim:0h34m24s) 
CPU  0 inst:  118000002 cyc:   76824235 now IPC :1.52347: AVG IPC :1.52943: L2-Pf-HR :0.96519: L2-HR :0.82204: (Sim:0h34m32s) 
CPU  0 inst:  119000005 cyc:   77483562 now IPC :1.51670: AVG IPC :1.52932: L2-Pf-HR :0.96514: L2-HR :0.82202: (Sim:0h34m40s) 
CPU  0 inst:  120000005 cyc:   78232250 now IPC :1.33567: AVG IPC :1.52745: L2-Pf-HR :0.96516: L2-HR :0.82190: (Sim:0h34m49s) 
CPU  0 inst:  121000004 cyc:   78894901 now IPC :1.50909: AVG IPC :1.52729: L2-Pf-HR :0.96535: L2-HR :0.82196: (Sim:0h34m57s) 
CPU  0 inst:  122000005 cyc:   79557944 now IPC :1.50820: AVG IPC :1.52713: L2-Pf-HR :0.96553: L2-HR :0.82210: (Sim:0h35m5s) 
CPU  0 inst:  123000000 cyc:   80222299 now IPC :1.50521: AVG IPC :1.52695: L2-Pf-HR :0.96573: L2-HR :0.82215: (Sim:0h35m12s) 
CPU  0 inst:  124000003 cyc:   80876197 now IPC :1.52930: AVG IPC :1.52697: L2-Pf-HR :0.96575: L2-HR :0.82225: (Sim:0h35m20s) 
CPU  0 inst:  125000003 cyc:   81535239 now IPC :1.51735: AVG IPC :1.52689: L2-Pf-HR :0.96589: L2-HR :0.82233: (Sim:0h35m28s) 
CPU  0 inst:  126000001 cyc:   82239944 now IPC :1.41903: AVG IPC :1.52595: L2-Pf-HR :0.96593: L2-HR :0.82221: (Sim:0h35m37s) 
CPU  0 inst:  127000001 cyc:   82898858 now IPC :1.51765: AVG IPC :1.52588: L2-Pf-HR :0.96607: L2-HR :0.82226: (Sim:0h35m45s) 
CPU  0 inst:  128000004 cyc:   83552584 now IPC :1.52970: AVG IPC :1.52591: L2-Pf-HR :0.96612: L2-HR :0.82231: (Sim:0h35m53s) 
CPU  0 inst:  129000001 cyc:   84193648 now IPC :1.55990: AVG IPC :1.52618: L2-Pf-HR :0.96596: L2-HR :0.82236: (Sim:0h36m0s) 
CPU  0 inst:  130000005 cyc:   88236896 now IPC :0.24733: AVG IPC :1.46692: L2-Pf-HR :0.94989: L2-HR :0.80677: (Sim:0h36m19s) 
CPU  0 inst:  131000001 cyc:   93261650 now IPC :0.19901: AVG IPC :1.39788: L2-Pf-HR :0.92927: L2-HR :0.78938: (Sim:0h37m9s) 
CPU  0 inst:  132000003 cyc:   98366751 now IPC :0.19588: AVG IPC :1.33487: L2-Pf-HR :0.90999: L2-HR :0.77412: (Sim:0h37m59s) 
CPU  0 inst:  133000005 cyc:  103467656 now IPC :0.19604: AVG IPC :1.27819: L2-Pf-HR :0.89186: L2-HR :0.76062: (Sim:0h38m49s) 
CPU  0 inst:  134000000 cyc:  108460120 now IPC :0.20030: AVG IPC :1.22812: L2-Pf-HR :0.87567: L2-HR :0.74906: (Sim:0h39m37s) 
CPU  0 inst:  135000000 cyc:  111881328 now IPC :0.29229: AVG IPC :1.19925: L2-Pf-HR :0.87140: L2-HR :0.74679: (Sim:0h40m14s) 
CPU  0 inst:  136000002 cyc:  115154986 now IPC :0.30547: AVG IPC :1.17363: L2-Pf-HR :0.86680: L2-HR :0.74450: (Sim:0h40m50s) 
CPU  0 inst:  137000000 cyc:  118428715 now IPC :0.30546: AVG IPC :1.14943: L2-Pf-HR :0.86225: L2-HR :0.74223: (Sim:0h41m26s) 
CPU  0 inst:  138000000 cyc:  121703927 now IPC :0.30532: AVG IPC :1.12653: L2-Pf-HR :0.85776: L2-HR :0.74000: (Sim:0h41m41s) 
CPU  0 inst:  139000000 cyc:  124978856 now IPC :0.30535: AVG IPC :1.10484: L2-Pf-HR :0.85331: L2-HR :0.73778: (Sim:0h41m57s) 
CPU  0 inst:  140000002 cyc:  128252234 now IPC :0.30550: AVG IPC :1.08428: L2-Pf-HR :0.84889: L2-HR :0.73559: (Sim:0h42m27s) 
CPU  0 inst:  141000004 cyc:  131525200 now IPC :0.30553: AVG IPC :1.06476: L2-Pf-HR :0.84452: L2-HR :0.73343: (Sim:0h43m1s) 
CPU  0 inst:  142000004 cyc:  134797364 now IPC :0.30561: AVG IPC :1.04620: L2-Pf-HR :0.84019: L2-HR :0.73128: (Sim:0h43m34s) 
CPU  0 inst:  143000000 cyc:  138069297 now IPC :0.30563: AVG IPC :1.02852: L2-Pf-HR :0.83591: L2-HR :0.72916: (Sim:0h44m7s) 
CPU  0 inst:  144000003 cyc:  141339946 now IPC :0.30575: AVG IPC :1.01168: L2-Pf-HR :0.83166: L2-HR :0.72706: (Sim:0h44m40s) 
CPU  0 inst:  145000002 cyc:  144612428 now IPC :0.30558: AVG IPC :0.99559: L2-Pf-HR :0.82747: L2-HR :0.72498: (Sim:0h45m13s) 
CPU  0 inst:  146000000 cyc:  147885716 now IPC :0.30550: AVG IPC :0.98021: L2-Pf-HR :0.82331: L2-HR :0.72293: (Sim:0h45m45s) 
CPU  0 inst:  147000000 cyc:  151157701 now IPC :0.30562: AVG IPC :0.96552: L2-Pf-HR :0.81920: L2-HR :0.72090: (Sim:0h46m18s) 
CPU  0 inst:  148000003 cyc:  154428386 now IPC :0.30575: AVG IPC :0.95145: L2-Pf-HR :0.81511: L2-HR :0.71889: (Sim:0h46m52s) 
CPU  0 inst:  149000002 cyc:  157698701 now IPC :0.30578: AVG IPC :0.93798: L2-Pf-HR :0.81107: L2-HR :0.71690: (Sim:0h47m27s) 
CPU  0 inst:  150000000 cyc:  160969898 now IPC :0.30570: AVG IPC :0.92505: L2-Pf-HR :0.80707: L2-HR :0.71492: (Sim:0h48m2s) 
CPU  0 inst:  151000000 cyc:  164240609 now IPC :0.30574: AVG IPC :0.91265: L2-Pf-HR :0.80311: L2-HR :0.71297: (Sim:0h48m38s) 
CPU  0 inst:  152000002 cyc:  167512284 now IPC :0.30565: AVG IPC :0.90072: L2-Pf-HR :0.79919: L2-HR :0.71104: (Sim:0h49m13s) 
CPU  0 inst:  153000000 cyc:  170784711 now IPC :0.30558: AVG IPC :0.88925: L2-Pf-HR :0.79532: L2-HR :0.70914: (Sim:0h49m48s) 
CPU  0 inst:  154000000 cyc:  174057341 now IPC :0.30556: AVG IPC :0.87822: L2-Pf-HR :0.79148: L2-HR :0.70725: (Sim:0h50m23s) 
CPU  0 inst:  155000000 cyc:  177328032 now IPC :0.30575: AVG IPC :0.86760: L2-Pf-HR :0.78767: L2-HR :0.70537: (Sim:0h50m59s) 
CPU  0 inst:  156000000 cyc:  180599628 now IPC :0.30566: AVG IPC :0.85736: L2-Pf-HR :0.78389: L2-HR :0.70352: (Sim:0h51m34s) 
CPU  0 inst:  157000002 cyc:  183870185 now IPC :0.30576: AVG IPC :0.84750: L2-Pf-HR :0.78015: L2-HR :0.70168: (Sim:0h52m9s) 
CPU  0 inst:  158000000 cyc:  187140643 now IPC :0.30577: AVG IPC :0.83798: L2-Pf-HR :0.77644: L2-HR :0.69986: (Sim:0h52m45s) 
CPU  0 inst:  159000004 cyc:  190411739 now IPC :0.30571: AVG IPC :0.82879: L2-Pf-HR :0.77278: L2-HR :0.69806: (Sim:0h53m20s) 
CPU  0 inst:  160000001 cyc:  193684527 now IPC :0.30555: AVG IPC :0.81990: L2-Pf-HR :0.76917: L2-HR :0.69628: (Sim:0h53m55s) 
CPU  0 inst:  161000000 cyc:  196958005 now IPC :0.30549: AVG IPC :0.81131: L2-Pf-HR :0.76558: L2-HR :0.69452: (Sim:0h54m27s) 
CPU  0 inst:  162000004 cyc:  200229150 now IPC :0.30570: AVG IPC :0.80301: L2-Pf-HR :0.76201: L2-HR :0.69277: (Sim:0h54m42s) 
CPU  0 inst:  163000004 cyc:  203500838 now IPC :0.30565: AVG IPC :0.79498: L2-Pf-HR :0.75848: L2-HR :0.69104: (Sim:0h54m57s) 
CPU  0 inst:  164000000 cyc:  206771234 now IPC :0.30577: AVG IPC :0.78720: L2-Pf-HR :0.75498: L2-HR :0.68932: (Sim:0h55m12s) 
CPU  0 inst:  165000003 cyc:  210042357 now IPC :0.30571: AVG IPC :0.77967: L2-Pf-HR :0.75151: L2-HR :0.68762: (Sim:0h55m26s) 
CPU  0 inst:  166000002 cyc:  213312484 now IPC :0.30580: AVG IPC :0.77237: L2-Pf-HR :0.74807: L2-HR :0.68594: (Sim:0h55m41s) 
CPU  0 inst:  167000001 cyc:  216583983 now IPC :0.30567: AVG IPC :0.76529: L2-Pf-HR :0.74467: L2-HR :0.68428: (Sim:0h55m56s) 
CPU  0 inst:  168000002 cyc:  219857776 now IPC :0.30546: AVG IPC :0.75841: L2-Pf-HR :0.74131: L2-HR :0.68263: (Sim:0h56m10s) 
CPU  0 inst:  169000003 cyc:  223129753 now IPC :0.30563: AVG IPC :0.75174: L2-Pf-HR :0.73798: L2-HR :0.68100: (Sim:0h56m25s) 
CPU  0 inst:  170000002 cyc:  226401542 now IPC :0.30564: AVG IPC :0.74527: L2-Pf-HR :0.73466: L2-HR :0.67938: (Sim:0h56m40s) 
CPU  0 inst:  171000000 cyc:  229671643 now IPC :0.30580: AVG IPC :0.73898: L2-Pf-HR :0.73137: L2-HR :0.67777: (Sim:0h56m55s) 
CPU  0 inst:  172000000 cyc:  232942030 now IPC :0.30577: AVG IPC :0.73288: L2-Pf-HR :0.72811: L2-HR :0.67618: (Sim:0h57m9s) 
CPU  0 inst:  173000000 cyc:  236212919 now IPC :0.30573: AVG IPC :0.72694: L2-Pf-HR :0.72489: L2-HR :0.67460: (Sim:0h57m24s) 
CPU  0 inst:  174000002 cyc:  239483650 now IPC :0.30574: AVG IPC :0.72116: L2-Pf-HR :0.72169: L2-HR :0.67304: (Sim:0h57m39s) 
CPU  0 inst:  175000000 cyc:  242755440 now IPC :0.30564: AVG IPC :0.71554: L2-Pf-HR :0.71854: L2-HR :0.67150: (Sim:0h57m54s) 
CPU  0 inst:  176000000 cyc:  246029831 now IPC :0.30540: AVG IPC :0.71006: L2-Pf-HR :0.71540: L2-HR :0.66997: (Sim:0h58m8s) 
CPU  0 inst:  177000000 cyc:  249300781 now IPC :0.30572: AVG IPC :0.70473: L2-Pf-HR :0.71229: L2-HR :0.66845: (Sim:0h58m23s) 
CPU  0 inst:  178000002 cyc:  252571976 now IPC :0.30570: AVG IPC :0.69954: L2-Pf-HR :0.70920: L2-HR :0.66694: (Sim:0h58m38s) 
CPU  0 inst:  179000004 cyc:  255843033 now IPC :0.30571: AVG IPC :0.69449: L2-Pf-HR :0.70614: L2-HR :0.66545: (Sim:0h58m53s) 
CPU  0 inst:  180000004 cyc:  259113966 now IPC :0.30572: AVG IPC :0.68956: L2-Pf-HR :0.70311: L2-HR :0.66397: (Sim:0h59m8s) 
CPU  0 inst:  181000000 cyc:  262385109 now IPC :0.30570: AVG IPC :0.68476: L2-Pf-HR :0.70010: L2-HR :0.66251: (Sim:0h59m22s) 
CPU  0 inst:  182000000 cyc:  265656810 now IPC :0.30565: AVG IPC :0.68007: L2-Pf-HR :0.69712: L2-HR :0.66105: (Sim:0h59m37s) 
CPU  0 inst:  183000000 cyc:  268930073 now IPC :0.30551: AVG IPC :0.67550: L2-Pf-HR :0.69418: L2-HR :0.65962: (Sim:0h59m52s) 
CPU  0 inst:  184000004 cyc:  272201158 now IPC :0.30571: AVG IPC :0.67104: L2-Pf-HR :0.69124: L2-HR :0.65819: (Sim:1h0m6s) 
CPU  0 inst:  185000000 cyc:  275471941 now IPC :0.30574: AVG IPC :0.66668: L2-Pf-HR :0.68834: L2-HR :0.65678: (Sim:1h0m21s) 
CPU  0 inst:  186000003 cyc:  278742186 now IPC :0.30579: AVG IPC :0.66244: L2-Pf-HR :0.68546: L2-HR :0.65537: (Sim:1h0m36s) 
CPU  0 inst:  187000002 cyc:  282012010 now IPC :0.30583: AVG IPC :0.65829: L2-Pf-HR :0.68260: L2-HR :0.65398: (Sim:1h0m51s) 
CPU  0 inst:  188000000 cyc:  285283063 now IPC :0.30571: AVG IPC :0.65423: L2-Pf-HR :0.67977: L2-HR :0.65260: (Sim:1h1m5s) 
CPU  0 inst:  189000000 cyc:  288553446 now IPC :0.30577: AVG IPC :0.65027: L2-Pf-HR :0.67695: L2-HR :0.65124: (Sim:1h1m20s) 
CPU  0 inst:  190000000 cyc:  291824958 now IPC :0.30567: AVG IPC :0.64639: L2-Pf-HR :0.67418: L2-HR :0.64989: (Sim:1h1m35s) 
CPU  0 inst:  191000000 cyc:  295098804 now IPC :0.30545: AVG IPC :0.64260: L2-Pf-HR :0.67142: L2-HR :0.64854: (Sim:1h1m50s) 
CPU  0 inst:  192000000 cyc:  298369345 now IPC :0.30576: AVG IPC :0.63889: L2-Pf-HR :0.66867: L2-HR :0.64721: (Sim:1h2m4s) 
CPU  0 inst:  193000000 cyc:  301640064 now IPC :0.30574: AVG IPC :0.63527: L2-Pf-HR :0.66595: L2-HR :0.64589: (Sim:1h2m19s) 
CPU  0 inst:  194000000 cyc:  304911180 now IPC :0.30571: AVG IPC :0.63172: L2-Pf-HR :0.66326: L2-HR :0.64458: (Sim:1h2m33s) 
CPU  0 inst:  195000002 cyc:  308182486 now IPC :0.30569: AVG IPC :0.62825: L2-Pf-HR :0.66058: L2-HR :0.64328: (Sim:1h2m48s) 
CPU  0 inst:  196000004 cyc:  311453027 now IPC :0.30576: AVG IPC :0.62485: L2-Pf-HR :0.65792: L2-HR :0.64199: (Sim:1h3m3s) 
CPU  0 inst:  197000002 cyc:  314724347 now IPC :0.30569: AVG IPC :0.62152: L2-Pf-HR :0.65529: L2-HR :0.64072: (Sim:1h3m18s) 
CPU  0 inst:  198000004 cyc:  317011268 now IPC :0.43727: AVG IPC :0.62019: L2-Pf-HR :0.65407: L2-HR :0.63997: (Sim:1h3m30s) 
CPU  0 inst:  199000000 cyc:  317602536 now IPC :1.69127: AVG IPC :0.62219: L2-Pf-HR :0.65473: L2-HR :0.64050: (Sim:1h3m40s) 
CPU  0 inst:  200000001 cyc:  318195189 now IPC :1.68733: AVG IPC :0.62418: L2-Pf-HR :0.65540: L2-HR :0.64105: (Sim:1h3m49s) 
CPU  0 inst:  201000005 cyc:  318790488 now IPC :1.67983: AVG IPC :0.62616: L2-Pf-HR :0.65607: L2-HR :0.64161: (Sim:1h3m58s) 
CPU  0 inst:  202000001 cyc:  319422763 now IPC :1.58158: AVG IPC :0.62805: L2-Pf-HR :0.65675: L2-HR :0.64206: (Sim:1h4m7s) 
CPU  0 inst:  203000000 cyc:  319981180 now IPC :1.79077: AVG IPC :0.63009: L2-Pf-HR :0.65782: L2-HR :0.64285: (Sim:1h4m16s) 
CPU  0 inst:  204000000 cyc:  320542519 now IPC :1.78145: AVG IPC :0.63211: L2-Pf-HR :0.65882: L2-HR :0.64363: (Sim:1h4m25s) 
CPU  0 inst:  205000003 cyc:  321105866 now IPC :1.77511: AVG IPC :0.63412: L2-Pf-HR :0.65977: L2-HR :0.64439: (Sim:1h4m34s) 
CPU  0 inst:  206000001 cyc:  321708393 now IPC :1.65967: AVG IPC :0.63605: L2-Pf-HR :0.66054: L2-HR :0.64501: (Sim:1h4m43s) 
CPU  0 inst:  207000005 cyc:  322255079 now IPC :1.82921: AVG IPC :0.63808: L2-Pf-HR :0.66152: L2-HR :0.64571: (Sim:1h4m52s) 
CPU  0 inst:  208000001 cyc:  322802501 now IPC :1.82674: AVG IPC :0.64010: L2-Pf-HR :0.66242: L2-HR :0.64638: (Sim:1h5m1s) 
CPU  0 inst:  209000001 cyc:  323353770 now IPC :1.81400: AVG IPC :0.64211: L2-Pf-HR :0.66333: L2-HR :0.64705: (Sim:1h5m10s) 
CPU  0 inst:  210000001 cyc:  323912239 now IPC :1.79061: AVG IPC :0.64410: L2-Pf-HR :0.66405: L2-HR :0.64763: (Sim:1h5m19s) 
CPU  0 inst:  211000000 cyc:  324497896 now IPC :1.70748: AVG IPC :0.64602: L2-Pf-HR :0.66484: L2-HR :0.64824: (Sim:1h5m28s) 
CPU  0 inst:  212000002 cyc:  325053827 now IPC :1.79879: AVG IPC :0.64800: L2-Pf-HR :0.66572: L2-HR :0.64890: (Sim:1h5m38s) 
CPU  0 inst:  213000004 cyc:  325615505 now IPC :1.78038: AVG IPC :0.64996: L2-Pf-HR :0.66657: L2-HR :0.64956: (Sim:1h5m47s) 
CPU  0 inst:  214000003 cyc:  326176585 now IPC :1.78228: AVG IPC :0.65191: L2-Pf-HR :0.66741: L2-HR :0.65021: (Sim:1h6m6s) 
CPU  0 inst:  215000002 cyc:  326793896 now IPC :1.61993: AVG IPC :0.65375: L2-Pf-HR :0.66789: L2-HR :0.65062: (Sim:1h6m24s) 
CPU  0 inst:  216000005 cyc:  327385014 now IPC :1.69171: AVG IPC :0.65563: L2-Pf-HR :0.66842: L2-HR :0.65108: (Sim:1h6m35s) 
CPU  0 inst:  217000000 cyc:  327975124 now IPC :1.69459: AVG IPC :0.65750: L2-Pf-HR :0.66894: L2-HR :0.65156: (Sim:1h6m56s) 
CPU  0 inst:  218000004 cyc:  328559285 now IPC :1.71186: AVG IPC :0.65938: L2-Pf-HR :0.66943: L2-HR :0.65202: (Sim:1h7m17s) 
CPU  0 inst:  219000004 cyc:  329158814 now IPC :1.66798: AVG IPC :0.66122: L2-Pf-HR :0.66987: L2-HR :0.65250: (Sim:1h7m36s) 
CPU  0 inst:  220000003 cyc:  329721782 now IPC :1.77630: AVG IPC :0.66313: L2-Pf-HR :0.67061: L2-HR :0.65314: (Sim:1h7m55s) 
CPU  0 inst:  221000004 cyc:  330286185 now IPC :1.77179: AVG IPC :0.66503: L2-Pf-HR :0.67130: L2-HR :0.65377: (Sim:1h8m14s) 
CPU  0 inst:  222000002 cyc:  330844542 now IPC :1.79097: AVG IPC :0.66694: L2-Pf-HR :0.67192: L2-HR :0.65436: (Sim:1h8m33s) 
CPU  0 inst:  223000002 cyc:  331410646 now IPC :1.76646: AVG IPC :0.66882: L2-Pf-HR :0.67258: L2-HR :0.65498: (Sim:1h8m52s) 
CPU  0 inst:  224000001 cyc:  331944474 now IPC :1.87326: AVG IPC :0.67077: L2-Pf-HR :0.67344: L2-HR :0.65563: (Sim:1h9m10s) 
CPU  0 inst:  225000002 cyc:  332487666 now IPC :1.84097: AVG IPC :0.67268: L2-Pf-HR :0.67417: L2-HR :0.65623: (Sim:1h9m30s) 
CPU  0 inst:  226000001 cyc:  333019204 now IPC :1.88133: AVG IPC :0.67462: L2-Pf-HR :0.67487: L2-HR :0.65681: (Sim:1h9m49s) 
CPU  0 inst:  227000005 cyc:  333576502 now IPC :1.79438: AVG IPC :0.67649: L2-Pf-HR :0.67557: L2-HR :0.65742: (Sim:1h10m9s) 
CPU  0 inst:  228000001 cyc:  334136893 now IPC :1.78446: AVG IPC :0.67836: L2-Pf-HR :0.67628: L2-HR :0.65797: (Sim:1h10m27s) 
CPU  0 inst:  229000002 cyc:  334700606 now IPC :1.77395: AVG IPC :0.68021: L2-Pf-HR :0.67691: L2-HR :0.65851: (Sim:1h10m47s) 
CPU  0 inst:  230000002 cyc:  335261482 now IPC :1.78293: AVG IPC :0.68206: L2-Pf-HR :0.67754: L2-HR :0.65906: (Sim:1h11m7s) 
CPU  0 inst:  231000002 cyc:  335821191 now IPC :1.78664: AVG IPC :0.68390: L2-Pf-HR :0.67826: L2-HR :0.65968: (Sim:1h11m26s) 
CPU  0 inst:  232000000 cyc:  336410099 now IPC :1.69805: AVG IPC :0.68569: L2-Pf-HR :0.67859: L2-HR :0.66001: (Sim:1h11m46s) 
CPU  0 inst:  233000002 cyc:  336985696 now IPC :1.73733: AVG IPC :0.68749: L2-Pf-HR :0.67891: L2-HR :0.66036: (Sim:1h12m5s) 
CPU  0 inst:  234000000 cyc:  337558941 now IPC :1.74445: AVG IPC :0.68929: L2-Pf-HR :0.67932: L2-HR :0.66077: (Sim:1h12m24s) 
CPU  0 inst:  235000001 cyc:  338138617 now IPC :1.72510: AVG IPC :0.69107: L2-Pf-HR :0.67964: L2-HR :0.66112: (Sim:1h12m43s) 
CPU  0 inst:  236000004 cyc:  338702234 now IPC :1.77426: AVG IPC :0.69288: L2-Pf-HR :0.68009: L2-HR :0.66158: (Sim:1h13m2s) 
CPU  0 inst:  237000000 cyc:  339246985 now IPC :1.83569: AVG IPC :0.69472: L2-Pf-HR :0.68070: L2-HR :0.66214: (Sim:1h13m21s) 
CPU  0 inst:  238000004 cyc:  339790670 now IPC :1.83931: AVG IPC :0.69655: L2-Pf-HR :0.68131: L2-HR :0.66270: (Sim:1h13m40s) 
CPU  0 inst:  239000002 cyc:  340334233 now IPC :1.83971: AVG IPC :0.69838: L2-Pf-HR :0.68192: L2-HR :0.66325: (Sim:1h13m58s) 
CPU  0 inst:  240000003 cyc:  340883999 now IPC :1.81896: AVG IPC :0.70020: L2-Pf-HR :0.68237: L2-HR :0.66373: (Sim:1h14m19s) 
CPU  0 inst:  241000005 cyc:  341410640 now IPC :1.89883: AVG IPC :0.70205: L2-Pf-HR :0.68300: L2-HR :0.66428: (Sim:1h14m36s) 
CPU  0 inst:  242000002 cyc:  341934718 now IPC :1.90811: AVG IPC :0.70390: L2-Pf-HR :0.68364: L2-HR :0.66485: (Sim:1h14m55s) 
CPU  0 inst:  243000003 cyc:  342458443 now IPC :1.90940: AVG IPC :0.70575: L2-Pf-HR :0.68428: L2-HR :0.66540: (Sim:1h15m14s) 
CPU  0 inst:  244000000 cyc:  343015095 now IPC :1.79645: AVG IPC :0.70753: L2-Pf-HR :0.68468: L2-HR :0.66584: (Sim:1h15m34s) 
CPU  0 inst:  245000000 cyc:  343559116 now IPC :1.83816: AVG IPC :0.70932: L2-Pf-HR :0.68528: L2-HR :0.66635: (Sim:1h15m52s) 
CPU  0 inst:  246000002 cyc:  344104371 now IPC :1.83401: AVG IPC :0.71111: L2-Pf-HR :0.68589: L2-HR :0.66687: (Sim:1h16m11s) 
CPU  0 inst:  247000003 cyc:  344649224 now IPC :1.83536: AVG IPC :0.71289: L2-Pf-HR :0.68650: L2-HR :0.66740: (Sim:1h16m30s) 
CPU  0 inst:  248000000 cyc:  345226527 now IPC :1.73219: AVG IPC :0.71460: L2-Pf-HR :0.68685: L2-HR :0.66779: (Sim:1h16m50s) 
CPU  0 inst:  249000005 cyc:  345796945 now IPC :1.75311: AVG IPC :0.71632: L2-Pf-HR :0.68721: L2-HR :0.66813: (Sim:1h17m10s) 
CPU  0 inst:  250000003 cyc:  346369269 now IPC :1.74726: AVG IPC :0.71803: L2-Pf-HR :0.68756: L2-HR :0.66849: (Sim:1h17m29s) 
CPU  0 inst:  251000004 cyc:  346939711 now IPC :1.75303: AVG IPC :0.71974: L2-Pf-HR :0.68789: L2-HR :0.66885: (Sim:1h17m49s) 
CPU  0 inst:  252000000 cyc:  347524536 now IPC :1.70991: AVG IPC :0.72141: L2-Pf-HR :0.68805: L2-HR :0.66913: (Sim:1h18m9s) 
CPU  0 inst:  253000005 cyc:  348069356 now IPC :1.83548: AVG IPC :0.72315: L2-Pf-HR :0.68853: L2-HR :0.66959: (Sim:1h18m28s) 
CPU  0 inst:  254000000 cyc:  348617474 now IPC :1.82442: AVG IPC :0.72489: L2-Pf-HR :0.68904: L2-HR :0.67007: (Sim:1h18m47s) 
CPU  0 inst:  255000000 cyc:  349165858 now IPC :1.82354: AVG IPC :0.72662: L2-Pf-HR :0.68953: L2-HR :0.67055: (Sim:1h19m6s) 
CPU  0 inst:  256000002 cyc:  349718932 now IPC :1.80808: AVG IPC :0.72834: L2-Pf-HR :0.68993: L2-HR :0.67099: (Sim:1h19m25s) 
CPU  0 inst:  257000003 cyc:  350253482 now IPC :1.87073: AVG IPC :0.73009: L2-Pf-HR :0.69048: L2-HR :0.67149: (Sim:1h19m45s) 
CPU  0 inst:  258000004 cyc:  350783300 now IPC :1.88744: AVG IPC :0.73184: L2-Pf-HR :0.69104: L2-HR :0.67200: (Sim:1h20m5s) 
CPU  0 inst:  259000000 cyc:  351312460 now IPC :1.88978: AVG IPC :0.73359: L2-Pf-HR :0.69152: L2-HR :0.67247: (Sim:1h20m24s) 
CPU  0 inst:  260000004 cyc:  351841214 now IPC :1.89125: AVG IPC :0.73533: L2-Pf-HR :0.69198: L2-HR :0.67292: (Sim:1h20m43s) 
CPU  0 inst:  261000000 cyc:  352394225 now IPC :1.80828: AVG IPC :0.73702: L2-Pf-HR :0.69247: L2-HR :0.67338: (Sim:1h21m3s) 
CPU  0 inst:  262000001 cyc:  352941843 now IPC :1.82609: AVG IPC :0.73871: L2-Pf-HR :0.69296: L2-HR :0.67383: (Sim:1h21m23s) 
CPU  0 inst:  263000003 cyc:  353492207 now IPC :1.81698: AVG IPC :0.74040: L2-Pf-HR :0.69341: L2-HR :0.67426: (Sim:1h21m42s) 
CPU  0 inst:  264000003 cyc:  354042027 now IPC :1.81878: AVG IPC :0.74208: L2-Pf-HR :0.69389: L2-HR :0.67472: (Sim:1h22m1s) 
CPU  0 inst:  265000005 cyc:  354619832 now IPC :1.73069: AVG IPC :0.74369: L2-Pf-HR :0.69427: L2-HR :0.67508: (Sim:1h22m21s) 
CPU  0 inst:  266000002 cyc:  355198987 now IPC :1.72665: AVG IPC :0.74530: L2-Pf-HR :0.69446: L2-HR :0.67534: (Sim:1h22m39s) 
CPU  0 inst:  267000000 cyc:  355776106 now IPC :1.73274: AVG IPC :0.74691: L2-Pf-HR :0.69470: L2-HR :0.67564: (Sim:1h23m0s) 
CPU  0 inst:  268000004 cyc:  356348801 now IPC :1.74614: AVG IPC :0.74852: L2-Pf-HR :0.69497: L2-HR :0.67596: (Sim:1h23m18s) 
CPU  0 inst:  269000000 cyc:  356919837 now IPC :1.75120: AVG IPC :0.75012: L2-Pf-HR :0.69516: L2-HR :0.67625: (Sim:1h23m39s) 
CPU  0 inst:  270000003 cyc:  357470688 now IPC :1.81538: AVG IPC :0.75177: L2-Pf-HR :0.69561: L2-HR :0.67668: (Sim:1h23m58s) 
CPU  0 inst:  271000004 cyc:  358020547 now IPC :1.81865: AVG IPC :0.75341: L2-Pf-HR :0.69609: L2-HR :0.67716: (Sim:1h24m19s) 
CPU  0 inst:  272000000 cyc:  358570035 now IPC :1.81987: AVG IPC :0.75505: L2-Pf-HR :0.69657: L2-HR :0.67762: (Sim:1h24m37s) 
CPU  0 inst:  273000000 cyc:  359125473 now IPC :1.80038: AVG IPC :0.75667: L2-Pf-HR :0.69688: L2-HR :0.67801: (Sim:1h24m58s) 
CPU  0 inst:  274000001 cyc:  359656167 now IPC :1.88433: AVG IPC :0.75834: L2-Pf-HR :0.69740: L2-HR :0.67847: (Sim:1h25m16s) 
CPU  0 inst:  275000000 cyc:  360189064 now IPC :1.87653: AVG IPC :0.76000: L2-Pf-HR :0.69788: L2-HR :0.67893: (Sim:1h25m36s) 
CPU  0 inst:  276000005 cyc:  360722074 now IPC :1.87615: AVG IPC :0.76166: L2-Pf-HR :0.69836: L2-HR :0.67939: (Sim:1h25m57s) 
CPU  0 inst:  277000000 cyc:  361272676 now IPC :1.81618: AVG IPC :0.76327: L2-Pf-HR :0.69867: L2-HR :0.67974: (Sim:1h26m17s) 
CPU  0 inst:  278000005 cyc:  361814538 now IPC :1.84550: AVG IPC :0.76489: L2-Pf-HR :0.69913: L2-HR :0.68017: (Sim:1h26m38s) 
CPU  0 inst:  279000001 cyc:  362358928 now IPC :1.83691: AVG IPC :0.76651: L2-Pf-HR :0.69961: L2-HR :0.68061: (Sim:1h26m59s) 
CPU  0 inst:  280000001 cyc:  362906469 now IPC :1.82635: AVG IPC :0.76811: L2-Pf-HR :0.70009: L2-HR :0.68105: (Sim:1h27m20s) 
CPU  0 inst:  281000002 cyc:  363460393 now IPC :1.80530: AVG IPC :0.76969: L2-Pf-HR :0.70048: L2-HR :0.68146: (Sim:1h27m41s) 
CPU  0 inst:  282000001 cyc:  364043639 now IPC :1.71454: AVG IPC :0.77121: L2-Pf-HR :0.70068: L2-HR :0.68170: (Sim:1h28m2s) 
CPU  0 inst:  283000000 cyc:  364615132 now IPC :1.74980: AVG IPC :0.77275: L2-Pf-HR :0.70090: L2-HR :0.68198: (Sim:1h28m23s) 
CPU  0 inst:  284000002 cyc:  365186031 now IPC :1.75163: AVG IPC :0.77429: L2-Pf-HR :0.70114: L2-HR :0.68227: (Sim:1h28m44s) 
CPU  0 inst:  285000003 cyc:  365756515 now IPC :1.75290: AVG IPC :0.77582: L2-Pf-HR :0.70137: L2-HR :0.68254: (Sim:1h29m5s) 
CPU  0 inst:  286000002 cyc:  366327083 now IPC :1.75264: AVG IPC :0.77734: L2-Pf-HR :0.70154: L2-HR :0.68282: (Sim:1h29m26s) 
CPU  0 inst:  287000002 cyc:  366875105 now IPC :1.82474: AVG IPC :0.77891: L2-Pf-HR :0.70195: L2-HR :0.68326: (Sim:1h29m47s) 
CPU  0 inst:  288000001 cyc:  367424919 now IPC :1.81880: AVG IPC :0.78047: L2-Pf-HR :0.70237: L2-HR :0.68371: (Sim:1h30m8s) 
CPU  0 inst:  289000003 cyc:  367974841 now IPC :1.81844: AVG IPC :0.78203: L2-Pf-HR :0.70276: L2-HR :0.68413: (Sim:1h30m29s) 
CPU  0 inst:  290000002 cyc:  368523662 now IPC :1.82209: AVG IPC :0.78358: L2-Pf-HR :0.70305: L2-HR :0.68449: (Sim:1h30m50s) 
CPU  0 inst:  291000001 cyc:  369051196 now IPC :1.89561: AVG IPC :0.78517: L2-Pf-HR :0.70350: L2-HR :0.68490: (Sim:1h31m11s) 
CPU  0 inst:  292000002 cyc:  369581126 now IPC :1.88704: AVG IPC :0.78676: L2-Pf-HR :0.70391: L2-HR :0.68530: (Sim:1h31m32s) 
CPU  0 inst:  293000001 cyc:  370111508 now IPC :1.88543: AVG IPC :0.78834: L2-Pf-HR :0.70428: L2-HR :0.68567: (Sim:1h31m53s) 
CPU  0 inst:  294000004 cyc:  370665080 now IPC :1.80646: AVG IPC :0.78986: L2-Pf-HR :0.70457: L2-HR :0.68600: (Sim:1h32m14s) 
CPU  0 inst:  295000001 cyc:  371208589 now IPC :1.83989: AVG IPC :0.79140: L2-Pf-HR :0.70499: L2-HR :0.68639: (Sim:1h32m35s) 
CPU  0 inst:  296000003 cyc:  371755021 now IPC :1.83006: AVG IPC :0.79293: L2-Pf-HR :0.70537: L2-HR :0.68676: (Sim:1h32m56s) 
CPU  0 inst:  297000005 cyc:  372304295 now IPC :1.82059: AVG IPC :0.79445: L2-Pf-HR :0.70570: L2-HR :0.68710: (Sim:1h33m16s) 
CPU  0 inst:  298000003 cyc:  372871535 now IPC :1.76292: AVG IPC :0.79593: L2-Pf-HR :0.70604: L2-HR :0.68745: (Sim:1h33m25s) 
CPU  0 inst:  299000005 cyc:  373445854 now IPC :1.74120: AVG IPC :0.79739: L2-Pf-HR :0.70622: L2-HR :0.68767: (Sim:1h33m45s) 
CPU  0 inst:  300000000 cyc:  374024294 now IPC :1.72878: AVG IPC :0.79883: L2-Pf-HR :0.70633: L2-HR :0.68787: (Sim:1h34m6s) 
CPU  0 inst:  301000003 cyc:  374601159 now IPC :1.73351: AVG IPC :0.80027: L2-Pf-HR :0.70648: L2-HR :0.68811: (Sim:1h34m27s) 
CPU  0 inst:  302000003 cyc:  375179468 now IPC :1.72918: AVG IPC :0.80171: L2-Pf-HR :0.70665: L2-HR :0.68835: (Sim:1h34m47s) 
CPU  0 inst:  303000003 cyc:  375729983 now IPC :1.81648: AVG IPC :0.80320: L2-Pf-HR :0.70689: L2-HR :0.68865: (Sim:1h35m8s) 
CPU  0 inst:  304000000 cyc:  376280005 now IPC :1.81810: AVG IPC :0.80469: L2-Pf-HR :0.70722: L2-HR :0.68902: (Sim:1h35m28s) 
CPU  0 inst:  305000001 cyc:  376830789 now IPC :1.81560: AVG IPC :0.80617: L2-Pf-HR :0.70760: L2-HR :0.68941: (Sim:1h35m49s) 
CPU  0 inst:  306000002 cyc:  377385486 now IPC :1.80279: AVG IPC :0.80764: L2-Pf-HR :0.70786: L2-HR :0.68973: (Sim:1h36m9s) 
CPU  0 inst:  307000004 cyc:  377925885 now IPC :1.85049: AVG IPC :0.80913: L2-Pf-HR :0.70821: L2-HR :0.69009: (Sim:1h36m30s) 
CPU  0 inst:  308000002 cyc:  378456460 now IPC :1.88474: AVG IPC :0.81064: L2-Pf-HR :0.70859: L2-HR :0.69047: (Sim:1h36m50s) 
CPU  0 inst:  309000002 cyc:  378987479 now IPC :1.88317: AVG IPC :0.81215: L2-Pf-HR :0.70896: L2-HR :0.69085: (Sim:1h37m10s) 
CPU  0 inst:  310000005 cyc:  379520729 now IPC :1.87530: AVG IPC :0.81365: L2-Pf-HR :0.70932: L2-HR :0.69122: (Sim:1h37m30s) 
CPU  0 inst:  311000002 cyc:  380075643 now IPC :1.80208: AVG IPC :0.81510: L2-Pf-HR :0.70953: L2-HR :0.69149: (Sim:1h37m51s) 
CPU  0 inst:  312000001 cyc:  380621280 now IPC :1.83272: AVG IPC :0.81656: L2-Pf-HR :0.70988: L2-HR :0.69184: (Sim:1h38m11s) 
CPU  0 inst:  313000005 cyc:  381165824 now IPC :1.83641: AVG IPC :0.81802: L2-Pf-HR :0.71026: L2-HR :0.69222: (Sim:1h38m32s) 
CPU  0 inst:  314000000 cyc:  381713112 now IPC :1.82718: AVG IPC :0.81947: L2-Pf-HR :0.71065: L2-HR :0.69259: (Sim:1h38m52s) 
CPU  0 inst:  315000005 cyc:  382297572 now IPC :1.71099: AVG IPC :0.82084: L2-Pf-HR :0.71080: L2-HR :0.69280: (Sim:1h39m13s) 
CPU  0 inst:  316000000 cyc:  382868022 now IPC :1.75299: AVG IPC :0.82223: L2-Pf-HR :0.71098: L2-HR :0.69303: (Sim:1h39m33s) 
CPU  0 inst:  317000005 cyc:  383440436 now IPC :1.74700: AVG IPC :0.82361: L2-Pf-HR :0.71114: L2-HR :0.69326: (Sim:1h39m54s) 
CPU  0 inst:  318000003 cyc:  384008300 now IPC :1.76098: AVG IPC :0.82500: L2-Pf-HR :0.71131: L2-HR :0.69349: (Sim:1h40m14s) 
CPU  0 inst:  319000003 cyc:  384590638 now IPC :1.71722: AVG IPC :0.82636: L2-Pf-HR :0.71136: L2-HR :0.69367: (Sim:1h40m35s) 
CPU  0 inst:  320000004 cyc:  385134253 now IPC :1.83954: AVG IPC :0.82779: L2-Pf-HR :0.71168: L2-HR :0.69400: (Sim:1h40m55s) 
CPU  0 inst:  321000003 cyc:  385684296 now IPC :1.81804: AVG IPC :0.82921: L2-Pf-HR :0.71200: L2-HR :0.69435: (Sim:1h41m16s) 
CPU  0 inst:  322000004 cyc:  386231004 now IPC :1.82913: AVG IPC :0.83063: L2-Pf-HR :0.71232: L2-HR :0.69470: (Sim:1h41m36s) 
CPU  0 inst:  323000001 cyc:  386792925 now IPC :1.77960: AVG IPC :0.83201: L2-Pf-HR :0.71252: L2-HR :0.69498: (Sim:1h41m57s) 
CPU  0 inst:  324000005 cyc:  387321536 now IPC :1.89176: AVG IPC :0.83346: L2-Pf-HR :0.71288: L2-HR :0.69532: (Sim:1h42m17s) 
CPU  0 inst:  325000000 cyc:  387852747 now IPC :1.88248: AVG IPC :0.83490: L2-Pf-HR :0.71322: L2-HR :0.69566: (Sim:1h42m38s) 
CPU  0 inst:  326000005 cyc:  388380679 now IPC :1.89419: AVG IPC :0.83634: L2-Pf-HR :0.71355: L2-HR :0.69600: (Sim:1h42m58s) 
CPU  0 inst:  327000003 cyc:  388918185 now IPC :1.86044: AVG IPC :0.83776: L2-Pf-HR :0.71378: L2-HR :0.69628: (Sim:1h43m18s) 
CPU  0 inst:  328000005 cyc:  389474964 now IPC :1.79605: AVG IPC :0.83913: L2-Pf-HR :0.71406: L2-HR :0.69657: (Sim:1h43m39s) 
Finished CPU 0 instr: 326000002 cyc: 388495815 AVG IPC: 0.83913 (Sim time: 1h43m39s)

ChampSim completed all CPUs

[ROI Statistics]
Core_0_instructions 326000002
Core_0_cycles 388495815
Core_0_IPC 0.83913

Core_0_branch_prediction_accuracy 99.57883
Core_0_branch_MPKI 0.12289
Core_0_average_ROB_occupancy_at_mispredict 561.20398

Core_0_L1D_total_access 109182602
Core_0_L1D_total_hit 102458508 L1D_total_Hit Ratio: 0.93841
Core_0_L1D_total_miss 6724094
Core_0_L1D_loads 94743385
Core_0_L1D_load_hit 92528477 L1D_load_Hit Ratio: 0.97662
Core_0_L1D_load_miss 2214908
Core_0_L1D_RFOs 8642893
Core_0_L1D_RFO_hit 8263538 L1D_RFO_Hit Ratio: 0.95611
Core_0_L1D_RFO_miss 379355
Core_0_L1D_prefetches 5796324
Core_0_L1D_prefetch_hit 1666493 L1D_prefetch_Hit Ratio: 0.28751
Core_0_L1D_prefetch_miss 4129831
Core_0_L1D_writebacks 0
Core_0_L1D_writeback_hit 0 L1D_writeback_Hit Ratio: -nan
Core_0_L1D_writeback_miss 0
Core_0_L1D_prefetch_requested 6616518
Core_0_L1D_prefetch_issued 6616518
Core_0_L1D_prefetch_useful 4069259 L1D_Useful Ratio: 0.61502
Core_0_L1D_prefetch_useless 86465
Core_0_L1D_prefetch_late 274314
Core_0_L1D_average_miss_latency 5540551.97357

Core_0_L1I_total_access 52209215
Core_0_L1I_total_hit 52207250 L1I_total_Hit Ratio: 0.99996
Core_0_L1I_total_miss 1965
Core_0_L1I_loads 52209215
Core_0_L1I_load_hit 52207250 L1I_load_Hit Ratio: 0.99996
Core_0_L1I_load_miss 1965
Core_0_L1I_RFOs 0
Core_0_L1I_RFO_hit 0 L1I_RFO_Hit Ratio: -nan
Core_0_L1I_RFO_miss 0
Core_0_L1I_prefetches 0
Core_0_L1I_prefetch_hit 0 L1I_prefetch_Hit Ratio: -nan
Core_0_L1I_prefetch_miss 0
Core_0_L1I_writebacks 0
Core_0_L1I_writeback_hit 0 L1I_writeback_Hit Ratio: -nan
Core_0_L1I_writeback_miss 0
Core_0_L1I_prefetch_requested 0
Core_0_L1I_prefetch_issued 0
Core_0_L1I_prefetch_useful 0 L1I_Useful Ratio: -nan
Core_0_L1I_prefetch_useless 0
Core_0_L1I_prefetch_late 0
Core_0_L1I_average_miss_latency 281.94351

Core_0_L2C_total_access 9133874
Core_0_L2C_total_hit 6362343 L2C_total_Hit Ratio: 0.69657
Core_0_L2C_total_miss 2771531
Core_0_L2C_loads 1943552
Core_0_L2C_load_hit 947635 L2C_load_Hit Ratio: 0.48758
Core_0_L2C_load_miss 995917
Core_0_L2C_RFOs 379355
Core_0_L2C_RFO_hit 195 L2C_RFO_Hit Ratio: 0.00051
Core_0_L2C_RFO_miss 379160
Core_0_L2C_prefetches 4883637
Core_0_L2C_prefetch_hit 3487191 L2C_prefetch_Hit Ratio: 0.71406
Core_0_L2C_prefetch_miss 1396446
Core_0_L2C_writebacks 1927330
Core_0_L2C_writeback_hit 1927322 L2C_writeback_Hit Ratio: 1.00000
Core_0_L2C_writeback_miss 8
Core_0_L2C_prefetch_requested 1383608
Core_0_L2C_prefetch_issued 1383608
Core_0_L2C_prefetch_useful 111846 L2C_Useful Ratio: 0.08084
Core_0_L2C_prefetch_useless 1243738
Core_0_L2C_prefetch_late 317856
Core_0_L2C_average_miss_latency 340.50166

Core_0_LLC_total_access 4383412
Core_0_LLC_total_hit 1630156 LLC_total_Hit Ratio: 0.37189
Core_0_LLC_total_miss 2753256
Core_0_LLC_loads 678062
Core_0_LLC_load_hit 21905 LLC_load_Hit Ratio: 0.03231
Core_0_LLC_load_miss 656157
Core_0_LLC_RFOs 379160
Core_0_LLC_RFO_hit 180 LLC_RFO_Hit Ratio: 0.00047
Core_0_LLC_RFO_miss 378980
Core_0_LLC_prefetches 1714301
Core_0_LLC_prefetch_hit 13441 LLC_prefetch_Hit Ratio: 0.00784
Core_0_LLC_prefetch_miss 1700860
Core_0_LLC_writebacks 1611889
Core_0_LLC_writeback_hit 1594630 LLC_writeback_Hit Ratio: 0.98929
Core_0_LLC_writeback_miss 17259
Core_0_LLC_prefetch_requested 0
Core_0_LLC_prefetch_issued 0
Core_0_LLC_prefetch_useful 20141 LLC_Useful Ratio: inf
Core_0_LLC_prefetch_useless 1579053
Core_0_LLC_prefetch_late 0
Core_0_LLC_average_miss_latency 351.23864

Core_0_major_page_fault 0
Core_0_minor_page_fault 19454

[Bingo] PHT Access: 845323
[Bingo] PHT Hit PC+Addr: 270171
[Bingo] PHT Hit PC+Offs: 507507
[Bingo] PHT Miss: 67645
[Bingo] Prefetch PC+Addr: 0
[Bingo] Prefetch PC+Offs: 0
[Bingo] Useful PC+Addr: 0
[Bingo] Useful PC+Offs: 0
[Bingo] Useless PC+Addr: 0
[Bingo] Useless PC+Offs: 0
[Bingo] L1 Prefetch per Region: 10.18094
[Bingo] L2 Prefetch per Region: 0.33812
[Bingo] L3 Prefetch per Region: 0.00000
[Bingo] No Prefetch per Region: 21.48094
[Bingo] Number of Voters Mean: 13.24336
[Bingo] Number of Voters SD: 4.84227
PHT read accesses: 11741903
PHT write accesses: 809651
AT read accesses: 89639034
AT write accesses: 89639066
FT read accesses: 13835932
FT write accesses: 845323
PS read accesses: 7112568
PS write accesses: 777678
PHT tag read accesses: 33346976
PHT tag write accesses: 1079822
AT tag read accesses: 1663678057
AT tag write accesses: 90448686
FT tag read accesses: 252822769
FT tag write accesses: 8184796
PS tag read accesses: 1551615544
PS tag write accesses: 7878677
[Bingo2] PHT Access: 477417
[Bingo2] PHT Hit PC+Addr: 5533
[Bingo2] PHT Hit PC+Offs: 329477
[Bingo2] PHT Miss: 142407
[Bingo2] Prefetch PC+Addr: 0
[Bingo2] Prefetch PC+Offs: 0
[Bingo2] Useful PC+Addr: 0
[Bingo2] Useful PC+Offs: 0
[Bingo2] Useless PC+Addr: 0
[Bingo2] Useless PC+Offs: 0
[Bingo2] L1 Prefetch per Region: 0.00000
[Bingo2] L2 Prefetch per Region: 5.93502
[Bingo2] L3 Prefetch per Region: 0.00000
[Bingo2] No Prefetch per Region: 26.06498
[Bingo2] Number of Voters Mean: 13.05762
[Bingo2] Number of Voters SD: 4.93143
PHT read accesses: 7593233
PHT write accesses: 379129
AT read accesses: 1404586
AT write accesses: 1783468
FT read accesses: 1261704
FT write accesses: 477417
PS read accesses: 754854
PS write accesses: 335010
PHT tag read accesses: 19672334
PHT tag write accesses: 384662
AT tag read accesses: 92857268
AT tag write accesses: 1783715
FT tag read accesses: 76427140
FT tag write accesses: 1298196
PS tag read accesses: 43870730
PS tag write accesses: 1087647
Channel_0_RQ_row_buffer_hit 1579613
Channel_0_RQ_row_buffer_miss 1156384
Channel_0_WQ_row_buffer_hit 663254
Channel_0_WQ_row_buffer_miss 939004
Channel_0_WQ_full 9734
Channel_0_dbus_congested 2531731

avg_congested_cycle 8

EzSearch AVG IPC :0.83913: L2-Pf-HR :0.71406 : L2-HR :0.69657 Uful:0.08084
     > Finished combination: TraceType=770-tot Sim:326000000 Prefetcher=L2bingo_dpc3_PHT1k L1=bingo_dpc3_PHT1k
