TRACE: [298000000][GPT-Neo_1_3B]_[h16][s512][d128] Warmup: 2000000 NumTraces: 298000000
L1:bingo_dpc3_PHT1k:L2:bingo_dpc3_PHT1k
*************************************************
   ChampSim Multicore Out-of-Order Simulator
   Last compiled: Oct 26 2024 20:23:14
*************************************************

trace_0 770-tot_memTraces_v3/memTraces[298000000][GPT-Neo_1_3B]_[h16][s512][d128].champsim.xz
Bingo PHT WAYS: 16 and PHT_SIZE: 1024
Bingo2 PHT WAYS: 16 and PHT_SIZE: 1024
MAIN.cc ln 751 stats print skipped
CPU  0 inst:    1000003 cyc:     498175 now IPC :2.00733: AVG IPC :2.00733: L2-Pf-HR :0.74605: L2-HR :0.62679: (Sim:0h0m19s) 
CPU  0 inst:    2000001 cyc:     982842 now IPC :2.06327: AVG IPC :2.03492: L2-Pf-HR :0.81587: L2-HR :0.71951: (Sim:0h0m39s) 

Warmup complete CPU  0 instructions:    2000001 cycles:     982842 (Simulation time: 0 hr 0 min 39 sec) 

CPU  0 inst:    3000000 cyc:    1534598 now IPC :1.81239: AVG IPC :1.81239: L2-Pf-HR :0.89834: L2-HR :0.82923: (Sim:0h0m56s) 
CPU  0 inst:    4000002 cyc:    2083191 now IPC :1.82285: AVG IPC :1.81761: L2-Pf-HR :0.90008: L2-HR :0.83026: (Sim:0h1m12s) 
CPU  0 inst:    5000004 cyc:    2633661 now IPC :1.81663: AVG IPC :1.81728: L2-Pf-HR :0.89834: L2-HR :0.82811: (Sim:0h1m28s) 
CPU  0 inst:    6000003 cyc:    3181270 now IPC :1.82612: AVG IPC :1.81948: L2-Pf-HR :0.89767: L2-HR :0.82732: (Sim:0h1m45s) 
CPU  0 inst:    7000000 cyc:    3736955 now IPC :1.79958: AVG IPC :1.81547: L2-Pf-HR :0.90945: L2-HR :0.83901: (Sim:0h2m1s) 
CPU  0 inst:    8000001 cyc:    4260072 now IPC :1.91162: AVG IPC :1.83081: L2-Pf-HR :0.91536: L2-HR :0.84769: (Sim:0h2m17s) 
CPU  0 inst:    9000005 cyc:    4846239 now IPC :1.70601: AVG IPC :1.81188: L2-Pf-HR :0.89388: L2-HR :0.83698: (Sim:0h2m34s) 
CPU  0 inst:   10000001 cyc:    5356939 now IPC :1.95809: AVG IPC :1.82895: L2-Pf-HR :0.89412: L2-HR :0.84213: (Sim:0h2m50s) 
CPU  0 inst:   11000000 cyc:    5873736 now IPC :1.93499: AVG IPC :1.84015: L2-Pf-HR :0.89718: L2-HR :0.84681: (Sim:0h3m6s) 
CPU  0 inst:   12000001 cyc:    6388845 now IPC :1.94134: AVG IPC :1.84980: L2-Pf-HR :0.90061: L2-HR :0.85057: (Sim:0h3m23s) 
CPU  0 inst:   13000004 cyc:    6910029 now IPC :1.91871: AVG IPC :1.85586: L2-Pf-HR :0.90376: L2-HR :0.85339: (Sim:0h3m39s) 
CPU  0 inst:   14000001 cyc:    7435263 now IPC :1.90391: AVG IPC :1.85977: L2-Pf-HR :0.90705: L2-HR :0.85536: (Sim:0h3m55s) 
CPU  0 inst:   15000000 cyc:    7990183 now IPC :1.80206: AVG IPC :1.85520: L2-Pf-HR :0.91088: L2-HR :0.85734: (Sim:0h4m11s) 
CPU  0 inst:   16000005 cyc:    8518523 now IPC :1.89273: AVG IPC :1.85783: L2-Pf-HR :0.91360: L2-HR :0.85962: (Sim:0h4m28s) 
CPU  0 inst:   17000005 cyc:    9103062 now IPC :1.71075: AVG IPC :1.84724: L2-Pf-HR :0.90297: L2-HR :0.85338: (Sim:0h4m44s) 
CPU  0 inst:   18000005 cyc:    9611272 now IPC :1.96769: AVG IPC :1.85434: L2-Pf-HR :0.90235: L2-HR :0.85484: (Sim:0h5m0s) 
CPU  0 inst:   19000004 cyc:   10117789 now IPC :1.97427: AVG IPC :1.86099: L2-Pf-HR :0.90357: L2-HR :0.85685: (Sim:0h5m17s) 
CPU  0 inst:   20000004 cyc:   10630186 now IPC :1.95161: AVG IPC :1.86580: L2-Pf-HR :0.90509: L2-HR :0.85861: (Sim:0h5m33s) 
CPU  0 inst:   21000004 cyc:   11156880 now IPC :1.89864: AVG IPC :1.86750: L2-Pf-HR :0.90536: L2-HR :0.85883: (Sim:0h5m49s) 
CPU  0 inst:   22000005 cyc:   11665433 now IPC :1.96637: AVG IPC :1.87221: L2-Pf-HR :0.90686: L2-HR :0.86074: (Sim:0h6m5s) 
CPU  0 inst:   23000000 cyc:   12217484 now IPC :1.81142: AVG IPC :1.86922: L2-Pf-HR :0.90883: L2-HR :0.86166: (Sim:0h6m22s) 
CPU  0 inst:   24000000 cyc:   12742191 now IPC :1.90583: AVG IPC :1.87085: L2-Pf-HR :0.91045: L2-HR :0.86284: (Sim:0h6m38s) 
CPU  0 inst:   25000005 cyc:   13323109 now IPC :1.72142: AVG IPC :1.86382: L2-Pf-HR :0.90431: L2-HR :0.85886: (Sim:0h6m55s) 
CPU  0 inst:   26000001 cyc:   13844509 now IPC :1.91791: AVG IPC :1.86601: L2-Pf-HR :0.90451: L2-HR :0.85939: (Sim:0h7m12s) 
CPU  0 inst:   27000004 cyc:   14358121 now IPC :1.94700: AVG IPC :1.86912: L2-Pf-HR :0.90542: L2-HR :0.86046: (Sim:0h7m29s) 
CPU  0 inst:   28000003 cyc:   14876573 now IPC :1.92882: AVG IPC :1.87135: L2-Pf-HR :0.90685: L2-HR :0.86149: (Sim:0h7m46s) 
CPU  0 inst:   29000001 cyc:   15403559 now IPC :1.89758: AVG IPC :1.87231: L2-Pf-HR :0.90728: L2-HR :0.86150: (Sim:0h8m4s) 
CPU  0 inst:   30000000 cyc:   15923062 now IPC :1.92491: AVG IPC :1.87414: L2-Pf-HR :0.90828: L2-HR :0.86232: (Sim:0h8m21s) 
CPU  0 inst:   31000003 cyc:   16476017 now IPC :1.80847: AVG IPC :1.87179: L2-Pf-HR :0.90964: L2-HR :0.86282: (Sim:0h8m38s) 
CPU  0 inst:   32000002 cyc:   16997998 now IPC :1.91578: AVG IPC :1.87323: L2-Pf-HR :0.91080: L2-HR :0.86370: (Sim:0h8m56s) 
CPU  0 inst:   33000004 cyc:   17585451 now IPC :1.70227: AVG IPC :1.86718: L2-Pf-HR :0.90605: L2-HR :0.86066: (Sim:0h9m13s) 
CPU  0 inst:   34000001 cyc:   18095970 now IPC :1.95879: AVG IPC :1.86991: L2-Pf-HR :0.90625: L2-HR :0.86141: (Sim:0h9m30s) 
CPU  0 inst:   35000004 cyc:   18608460 now IPC :1.95126: AVG IPC :1.87227: L2-Pf-HR :0.90656: L2-HR :0.86212: (Sim:0h9m48s) 
CPU  0 inst:   36000000 cyc:   19123843 now IPC :1.94030: AVG IPC :1.87421: L2-Pf-HR :0.90712: L2-HR :0.86277: (Sim:0h10m5s) 
CPU  0 inst:   37000001 cyc:   19644366 now IPC :1.92115: AVG IPC :1.87552: L2-Pf-HR :0.90774: L2-HR :0.86329: (Sim:0h10m22s) 
CPU  0 inst:   38000003 cyc:   20169164 now IPC :1.90550: AVG IPC :1.87634: L2-Pf-HR :0.90811: L2-HR :0.86374: (Sim:0h10m40s) 
CPU  0 inst:   39000001 cyc:   20737315 now IPC :1.76009: AVG IPC :1.87299: L2-Pf-HR :0.90941: L2-HR :0.86415: (Sim:0h10m57s) 
CPU  0 inst:   40000002 cyc:   21279784 now IPC :1.84343: AVG IPC :1.87220: L2-Pf-HR :0.91042: L2-HR :0.86474: (Sim:0h11m15s) 
CPU  0 inst:   41000004 cyc:   21883506 now IPC :1.65639: AVG IPC :1.86597: L2-Pf-HR :0.90656: L2-HR :0.86203: (Sim:0h11m33s) 
CPU  0 inst:   42000000 cyc:   22412904 now IPC :1.88893: AVG IPC :1.86654: L2-Pf-HR :0.90702: L2-HR :0.86255: (Sim:0h11m50s) 
CPU  0 inst:   43000000 cyc:   22947919 now IPC :1.86911: AVG IPC :1.86660: L2-Pf-HR :0.90761: L2-HR :0.86309: (Sim:0h12m7s) 
CPU  0 inst:   44000000 cyc:   23483969 now IPC :1.86550: AVG IPC :1.86657: L2-Pf-HR :0.90793: L2-HR :0.86342: (Sim:0h12m25s) 
CPU  0 inst:   45000000 cyc:   24027337 now IPC :1.84037: AVG IPC :1.86596: L2-Pf-HR :0.90879: L2-HR :0.86400: (Sim:0h12m42s) 
CPU  0 inst:   46000000 cyc:   24582550 now IPC :1.80111: AVG IPC :1.86443: L2-Pf-HR :0.90938: L2-HR :0.86431: (Sim:0h13m0s) 
CPU  0 inst:   47000001 cyc:   25169898 now IPC :1.70257: AVG IPC :1.86050: L2-Pf-HR :0.91040: L2-HR :0.86453: (Sim:0h13m18s) 
CPU  0 inst:   48000002 cyc:   25717533 now IPC :1.82604: AVG IPC :1.85974: L2-Pf-HR :0.91102: L2-HR :0.86507: (Sim:0h13m35s) 
CPU  0 inst:   49000005 cyc:   26357325 now IPC :1.56301: AVG IPC :1.85225: L2-Pf-HR :0.90833: L2-HR :0.86306: (Sim:0h13m53s) 
CPU  0 inst:   50000003 cyc:   26885691 now IPC :1.89262: AVG IPC :1.85308: L2-Pf-HR :0.90828: L2-HR :0.86341: (Sim:0h14m11s) 
CPU  0 inst:   51000002 cyc:   27423521 now IPC :1.85932: AVG IPC :1.85321: L2-Pf-HR :0.90856: L2-HR :0.86386: (Sim:0h14m28s) 
CPU  0 inst:   52000002 cyc:   27972101 now IPC :1.82289: AVG IPC :1.85259: L2-Pf-HR :0.90903: L2-HR :0.86426: (Sim:0h14m46s) 
CPU  0 inst:   53000001 cyc:   28525140 now IPC :1.80819: AVG IPC :1.85170: L2-Pf-HR :0.90968: L2-HR :0.86469: (Sim:0h15m3s) 
CPU  0 inst:   54000003 cyc:   29088096 now IPC :1.77634: AVG IPC :1.85019: L2-Pf-HR :0.91004: L2-HR :0.86483: (Sim:0h15m21s) 
CPU  0 inst:   55000002 cyc:   29677010 now IPC :1.69804: AVG IPC :1.84707: L2-Pf-HR :0.91094: L2-HR :0.86509: (Sim:0h15m39s) 
CPU  0 inst:   56000001 cyc:   30230355 now IPC :1.80719: AVG IPC :1.84631: L2-Pf-HR :0.91159: L2-HR :0.86555: (Sim:0h15m56s) 
CPU  0 inst:   57000002 cyc:   30897141 now IPC :1.49973: AVG IPC :1.83859: L2-Pf-HR :0.90916: L2-HR :0.86376: (Sim:0h16m15s) 
CPU  0 inst:   58000003 cyc:   31432443 now IPC :1.86811: AVG IPC :1.83910: L2-Pf-HR :0.90910: L2-HR :0.86400: (Sim:0h16m32s) 
CPU  0 inst:   59000003 cyc:   31967307 now IPC :1.86963: AVG IPC :1.83963: L2-Pf-HR :0.90909: L2-HR :0.86423: (Sim:0h16m50s) 
CPU  0 inst:   60000002 cyc:   32504615 now IPC :1.86113: AVG IPC :1.84000: L2-Pf-HR :0.90956: L2-HR :0.86468: (Sim:0h17m7s) 
CPU  0 inst:   61000004 cyc:   33055332 now IPC :1.81582: AVG IPC :1.83958: L2-Pf-HR :0.91008: L2-HR :0.86503: (Sim:0h17m25s) 
CPU  0 inst:   62000003 cyc:   33608948 now IPC :1.80630: AVG IPC :1.83902: L2-Pf-HR :0.91032: L2-HR :0.86510: (Sim:0h17m42s) 
CPU  0 inst:   63000003 cyc:   34194866 now IPC :1.70672: AVG IPC :1.83668: L2-Pf-HR :0.91103: L2-HR :0.86542: (Sim:0h18m0s) 
CPU  0 inst:   64000004 cyc:   34750282 now IPC :1.80045: AVG IPC :1.83609: L2-Pf-HR :0.91151: L2-HR :0.86576: (Sim:0h18m17s) 
CPU  0 inst:   65000005 cyc:   35404135 now IPC :1.52940: AVG IPC :1.83026: L2-Pf-HR :0.90960: L2-HR :0.86439: (Sim:0h18m36s) 
CPU  0 inst:   66000003 cyc:   35934690 now IPC :1.88481: AVG IPC :1.83109: L2-Pf-HR :0.90937: L2-HR :0.86442: (Sim:0h18m53s) 
CPU  0 inst:   67000003 cyc:   36481482 now IPC :1.82885: AVG IPC :1.83106: L2-Pf-HR :0.90951: L2-HR :0.86456: (Sim:0h19m11s) 
CPU  0 inst:   68000000 cyc:   37024809 now IPC :1.84051: AVG IPC :1.83120: L2-Pf-HR :0.91000: L2-HR :0.86495: (Sim:0h19m28s) 
CPU  0 inst:   69000004 cyc:   37580133 now IPC :1.80076: AVG IPC :1.83074: L2-Pf-HR :0.91038: L2-HR :0.86523: (Sim:0h19m46s) 
CPU  0 inst:   70000002 cyc:   38139022 now IPC :1.78926: AVG IPC :1.83011: L2-Pf-HR :0.91075: L2-HR :0.86539: (Sim:0h20m3s) 
CPU  0 inst:   71000000 cyc:   38722049 now IPC :1.71518: AVG IPC :1.82834: L2-Pf-HR :0.91143: L2-HR :0.86558: (Sim:0h20m21s) 
CPU  0 inst:   72000004 cyc:   39268647 now IPC :1.82951: AVG IPC :1.82835: L2-Pf-HR :0.91187: L2-HR :0.86588: (Sim:0h20m39s) 
CPU  0 inst:   73000003 cyc:   39934573 now IPC :1.50167: AVG IPC :1.82277: L2-Pf-HR :0.91008: L2-HR :0.86459: (Sim:0h20m57s) 
CPU  0 inst:   74000000 cyc:   40488057 now IPC :1.80673: AVG IPC :1.82254: L2-Pf-HR :0.91005: L2-HR :0.86464: (Sim:0h21m14s) 
CPU  0 inst:   75000000 cyc:   41035523 now IPC :1.82660: AVG IPC :1.82260: L2-Pf-HR :0.91025: L2-HR :0.86488: (Sim:0h21m32s) 
CPU  0 inst:   76000000 cyc:   41570608 now IPC :1.86886: AVG IPC :1.82321: L2-Pf-HR :0.91033: L2-HR :0.86514: (Sim:0h21m49s) 
CPU  0 inst:   77000001 cyc:   42117427 now IPC :1.82876: AVG IPC :1.82328: L2-Pf-HR :0.91078: L2-HR :0.86551: (Sim:0h22m7s) 
CPU  0 inst:   78000003 cyc:   42669940 now IPC :1.80992: AVG IPC :1.82311: L2-Pf-HR :0.91096: L2-HR :0.86559: (Sim:0h22m24s) 
CPU  0 inst:   79000000 cyc:   43250935 now IPC :1.72118: AVG IPC :1.82171: L2-Pf-HR :0.91150: L2-HR :0.86580: (Sim:0h22m42s) 
CPU  0 inst:   80000004 cyc:   43802424 now IPC :1.81328: AVG IPC :1.82160: L2-Pf-HR :0.91188: L2-HR :0.86606: (Sim:0h23m0s) 
CPU  0 inst:   81000003 cyc:   44454231 now IPC :1.53419: AVG IPC :1.81729: L2-Pf-HR :0.91006: L2-HR :0.86477: (Sim:0h23m18s) 
CPU  0 inst:   82000003 cyc:   44992531 now IPC :1.85770: AVG IPC :1.81778: L2-Pf-HR :0.90982: L2-HR :0.86477: (Sim:0h23m36s) 
CPU  0 inst:   83000005 cyc:   45522407 now IPC :1.88724: AVG IPC :1.81861: L2-Pf-HR :0.91018: L2-HR :0.86520: (Sim:0h23m53s) 
CPU  0 inst:   84000002 cyc:   46056120 now IPC :1.87366: AVG IPC :1.81926: L2-Pf-HR :0.90999: L2-HR :0.86532: (Sim:0h24m10s) 
CPU  0 inst:   85000002 cyc:   46598569 now IPC :1.84349: AVG IPC :1.81955: L2-Pf-HR :0.91023: L2-HR :0.86552: (Sim:0h24m28s) 
CPU  0 inst:   86000000 cyc:   47138990 now IPC :1.85041: AVG IPC :1.81991: L2-Pf-HR :0.91043: L2-HR :0.86575: (Sim:0h24m45s) 
CPU  0 inst:   87000000 cyc:   47713468 now IPC :1.74071: AVG IPC :1.81894: L2-Pf-HR :0.91096: L2-HR :0.86598: (Sim:0h25m3s) 
CPU  0 inst:   88000005 cyc:   48268497 now IPC :1.80172: AVG IPC :1.81873: L2-Pf-HR :0.91138: L2-HR :0.86623: (Sim:0h25m21s) 
CPU  0 inst:   89000003 cyc:   48890430 now IPC :1.60789: AVG IPC :1.81600: L2-Pf-HR :0.90977: L2-HR :0.86510: (Sim:0h25m39s) 
CPU  0 inst:   90000001 cyc:   49445501 now IPC :1.80157: AVG IPC :1.81583: L2-Pf-HR :0.90984: L2-HR :0.86523: (Sim:0h25m56s) 
CPU  0 inst:   91000000 cyc:   49977465 now IPC :1.87982: AVG IPC :1.81653: L2-Pf-HR :0.90993: L2-HR :0.86552: (Sim:0h26m14s) 
CPU  0 inst:   92000002 cyc:   50521001 now IPC :1.83981: AVG IPC :1.81678: L2-Pf-HR :0.90979: L2-HR :0.86558: (Sim:0h26m31s) 
CPU  0 inst:   93000004 cyc:   51066751 now IPC :1.83234: AVG IPC :1.81695: L2-Pf-HR :0.91004: L2-HR :0.86581: (Sim:0h26m49s) 
CPU  0 inst:   94000000 cyc:   51611651 now IPC :1.83519: AVG IPC :1.81715: L2-Pf-HR :0.91032: L2-HR :0.86602: (Sim:0h27m6s) 
CPU  0 inst:   95000003 cyc:   52195111 now IPC :1.71392: AVG IPC :1.81597: L2-Pf-HR :0.91076: L2-HR :0.86613: (Sim:0h27m24s) 
CPU  0 inst:   96000005 cyc:   52750312 now IPC :1.80115: AVG IPC :1.81581: L2-Pf-HR :0.91112: L2-HR :0.86639: (Sim:0h27m41s) 
CPU  0 inst:   97000005 cyc:   53399563 now IPC :1.54024: AVG IPC :1.81240: L2-Pf-HR :0.90969: L2-HR :0.86533: (Sim:0h28m0s) 
CPU  0 inst:   98000005 cyc:   53953158 now IPC :1.80637: AVG IPC :1.81234: L2-Pf-HR :0.90979: L2-HR :0.86544: (Sim:0h28m17s) 
CPU  0 inst:   99000000 cyc:   54487680 now IPC :1.87082: AVG IPC :1.81292: L2-Pf-HR :0.90984: L2-HR :0.86566: (Sim:0h28m35s) 
CPU  0 inst:  100000005 cyc:   55028028 now IPC :1.85067: AVG IPC :1.81330: L2-Pf-HR :0.91011: L2-HR :0.86594: (Sim:0h28m52s) 
CPU  0 inst:  101000004 cyc:   55578280 now IPC :1.81735: AVG IPC :1.81334: L2-Pf-HR :0.91035: L2-HR :0.86611: (Sim:0h29m10s) 
CPU  0 inst:  102000000 cyc:   56142782 now IPC :1.77147: AVG IPC :1.81291: L2-Pf-HR :0.91051: L2-HR :0.86615: (Sim:0h29m27s) 
CPU  0 inst:  103000003 cyc:   56727473 now IPC :1.71031: AVG IPC :1.81183: L2-Pf-HR :0.91089: L2-HR :0.86624: (Sim:0h29m45s) 
CPU  0 inst:  104000005 cyc:   57280985 now IPC :1.80665: AVG IPC :1.81178: L2-Pf-HR :0.91125: L2-HR :0.86647: (Sim:0h30m3s) 
CPU  0 inst:  105000002 cyc:   57927106 now IPC :1.54769: AVG IPC :1.80879: L2-Pf-HR :0.90986: L2-HR :0.86545: (Sim:0h30m21s) 
CPU  0 inst:  106000001 cyc:   58455111 now IPC :1.89392: AVG IPC :1.80957: L2-Pf-HR :0.90995: L2-HR :0.86562: (Sim:0h30m38s) 
CPU  0 inst:  107000003 cyc:   58997473 now IPC :1.84379: AVG IPC :1.80989: L2-Pf-HR :0.90985: L2-HR :0.86577: (Sim:0h30m56s) 
CPU  0 inst:  108000000 cyc:   59540153 now IPC :1.84270: AVG IPC :1.81019: L2-Pf-HR :0.91006: L2-HR :0.86603: (Sim:0h31m13s) 
CPU  0 inst:  109000003 cyc:   60095659 now IPC :1.80017: AVG IPC :1.81010: L2-Pf-HR :0.91029: L2-HR :0.86615: (Sim:0h31m31s) 
CPU  0 inst:  110000003 cyc:   60659866 now IPC :1.77240: AVG IPC :1.80974: L2-Pf-HR :0.91038: L2-HR :0.86611: (Sim:0h31m49s) 
CPU  0 inst:  111000000 cyc:   61236372 now IPC :1.73458: AVG IPC :1.80902: L2-Pf-HR :0.91078: L2-HR :0.86628: (Sim:0h32m6s) 
CPU  0 inst:  112000002 cyc:   61790505 now IPC :1.80462: AVG IPC :1.80898: L2-Pf-HR :0.91111: L2-HR :0.86646: (Sim:0h32m24s) 
CPU  0 inst:  113000002 cyc:   62422806 now IPC :1.58153: AVG IPC :1.80664: L2-Pf-HR :0.90982: L2-HR :0.86555: (Sim:0h32m42s) 
CPU  0 inst:  114000001 cyc:   62963442 now IPC :1.84967: AVG IPC :1.80702: L2-Pf-HR :0.90985: L2-HR :0.86569: (Sim:0h32m59s) 
CPU  0 inst:  115000000 cyc:   63497473 now IPC :1.87255: AVG IPC :1.80758: L2-Pf-HR :0.90996: L2-HR :0.86594: (Sim:0h33m16s) 
CPU  0 inst:  116000005 cyc:   64041887 now IPC :1.83685: AVG IPC :1.80783: L2-Pf-HR :0.91002: L2-HR :0.86605: (Sim:0h33m33s) 
CPU  0 inst:  117000000 cyc:   64586971 now IPC :1.83457: AVG IPC :1.80806: L2-Pf-HR :0.91021: L2-HR :0.86621: (Sim:0h33m50s) 
CPU  0 inst:  118000000 cyc:   65148541 now IPC :1.78072: AVG IPC :1.80782: L2-Pf-HR :0.91022: L2-HR :0.86620: (Sim:0h34m8s) 
CPU  0 inst:  119000001 cyc:   65736932 now IPC :1.69955: AVG IPC :1.80684: L2-Pf-HR :0.91055: L2-HR :0.86637: (Sim:0h34m25s) 
CPU  0 inst:  120000000 cyc:   66290980 now IPC :1.80490: AVG IPC :1.80682: L2-Pf-HR :0.91084: L2-HR :0.86654: (Sim:0h34m42s) 
CPU  0 inst:  121000005 cyc:   66919101 now IPC :1.59206: AVG IPC :1.80477: L2-Pf-HR :0.90981: L2-HR :0.86576: (Sim:0h35m0s) 
CPU  0 inst:  122000005 cyc:   67465808 now IPC :1.82913: AVG IPC :1.80497: L2-Pf-HR :0.90956: L2-HR :0.86569: (Sim:0h35m17s) 
CPU  0 inst:  123000000 cyc:   68004144 now IPC :1.85757: AVG IPC :1.80540: L2-Pf-HR :0.90970: L2-HR :0.86591: (Sim:0h35m34s) 
CPU  0 inst:  124000000 cyc:   68540151 now IPC :1.86565: AVG IPC :1.80587: L2-Pf-HR :0.90997: L2-HR :0.86615: (Sim:0h35m51s) 
CPU  0 inst:  125000004 cyc:   69095035 now IPC :1.80219: AVG IPC :1.80584: L2-Pf-HR :0.91019: L2-HR :0.86624: (Sim:0h36m8s) 
CPU  0 inst:  126000004 cyc:   69660107 now IPC :1.76969: AVG IPC :1.80555: L2-Pf-HR :0.91037: L2-HR :0.86626: (Sim:0h36m25s) 
CPU  0 inst:  127000002 cyc:   70241518 now IPC :1.71995: AVG IPC :1.80483: L2-Pf-HR :0.91072: L2-HR :0.86637: (Sim:0h36m43s) 
CPU  0 inst:  128000001 cyc:   70791830 now IPC :1.81715: AVG IPC :1.80493: L2-Pf-HR :0.91102: L2-HR :0.86654: (Sim:0h37m0s) 
CPU  0 inst:  129000004 cyc:   72606001 now IPC :0.55122: AVG IPC :1.77317: L2-Pf-HR :0.90637: L2-HR :0.85800: (Sim:0h37m24s) 
CPU  0 inst:  130000000 cyc:   76822107 now IPC :0.23718: AVG IPC :1.68778: L2-Pf-HR :0.88959: L2-HR :0.83407: (Sim:0h38m9s) 
CPU  0 inst:  131000005 cyc:   81920197 now IPC :0.19615: AVG IPC :1.59383: L2-Pf-HR :0.87300: L2-HR :0.81360: (Sim:0h38m58s) 
CPU  0 inst:  132000004 cyc:   85307873 now IPC :0.29519: AVG IPC :1.54165: L2-Pf-HR :0.86811: L2-HR :0.80950: (Sim:0h39m32s) 
CPU  0 inst:  133000000 cyc:   88463969 now IPC :0.31685: AVG IPC :1.49747: L2-Pf-HR :0.86315: L2-HR :0.80620: (Sim:0h40m5s) 
CPU  0 inst:  134000000 cyc:   91620653 now IPC :0.31679: AVG IPC :1.45635: L2-Pf-HR :0.85824: L2-HR :0.80293: (Sim:0h40m38s) 
CPU  0 inst:  135000004 cyc:   94776477 now IPC :0.31688: AVG IPC :1.41801: L2-Pf-HR :0.85340: L2-HR :0.79972: (Sim:0h41m11s) 
CPU  0 inst:  136000000 cyc:   97933254 now IPC :0.31678: AVG IPC :1.38215: L2-Pf-HR :0.84861: L2-HR :0.79654: (Sim:0h41m44s) 
CPU  0 inst:  137000000 cyc:  101089693 now IPC :0.31681: AVG IPC :1.34856: L2-Pf-HR :0.84387: L2-HR :0.79341: (Sim:0h42m17s) 
CPU  0 inst:  138000000 cyc:  104246127 now IPC :0.31681: AVG IPC :1.31702: L2-Pf-HR :0.83919: L2-HR :0.79032: (Sim:0h42m50s) 
CPU  0 inst:  139000000 cyc:  107403448 now IPC :0.31672: AVG IPC :1.28734: L2-Pf-HR :0.83456: L2-HR :0.78727: (Sim:0h43m23s) 
CPU  0 inst:  140000000 cyc:  110559494 now IPC :0.31685: AVG IPC :1.25939: L2-Pf-HR :0.82998: L2-HR :0.78427: (Sim:0h43m56s) 
CPU  0 inst:  141000002 cyc:  113715240 now IPC :0.31688: AVG IPC :1.23301: L2-Pf-HR :0.82543: L2-HR :0.78129: (Sim:0h44m28s) 
CPU  0 inst:  142000001 cyc:  116871797 now IPC :0.31680: AVG IPC :1.20805: L2-Pf-HR :0.82094: L2-HR :0.77837: (Sim:0h45m1s) 
CPU  0 inst:  143000001 cyc:  120027714 now IPC :0.31687: AVG IPC :1.18443: L2-Pf-HR :0.81649: L2-HR :0.77548: (Sim:0h45m34s) 
CPU  0 inst:  144000000 cyc:  123183212 now IPC :0.31691: AVG IPC :1.16203: L2-Pf-HR :0.81209: L2-HR :0.77262: (Sim:0h46m7s) 
CPU  0 inst:  145000000 cyc:  126339906 now IPC :0.31679: AVG IPC :1.14074: L2-Pf-HR :0.80774: L2-HR :0.76980: (Sim:0h46m40s) 
CPU  0 inst:  146000000 cyc:  129496626 now IPC :0.31678: AVG IPC :1.12050: L2-Pf-HR :0.80344: L2-HR :0.76702: (Sim:0h47m13s) 
CPU  0 inst:  147000000 cyc:  132653203 now IPC :0.31680: AVG IPC :1.10123: L2-Pf-HR :0.79918: L2-HR :0.76428: (Sim:0h47m46s) 
CPU  0 inst:  148000000 cyc:  135810190 now IPC :0.31676: AVG IPC :1.08287: L2-Pf-HR :0.79497: L2-HR :0.76157: (Sim:0h48m19s) 
CPU  0 inst:  149000000 cyc:  138966314 now IPC :0.31684: AVG IPC :1.06534: L2-Pf-HR :0.79080: L2-HR :0.75889: (Sim:0h48m51s) 
CPU  0 inst:  150000000 cyc:  142122245 now IPC :0.31686: AVG IPC :1.04861: L2-Pf-HR :0.78668: L2-HR :0.75625: (Sim:0h49m24s) 
CPU  0 inst:  151000002 cyc:  145279597 now IPC :0.31672: AVG IPC :1.03259: L2-Pf-HR :0.78260: L2-HR :0.75363: (Sim:0h49m57s) 
CPU  0 inst:  152000000 cyc:  148435039 now IPC :0.31691: AVG IPC :1.01728: L2-Pf-HR :0.77856: L2-HR :0.75106: (Sim:0h50m30s) 
CPU  0 inst:  153000002 cyc:  151590315 now IPC :0.31693: AVG IPC :1.00261: L2-Pf-HR :0.77456: L2-HR :0.74851: (Sim:0h51m3s) 
CPU  0 inst:  154000000 cyc:  154746568 now IPC :0.31683: AVG IPC :0.98853: L2-Pf-HR :0.77060: L2-HR :0.74599: (Sim:0h51m36s) 
CPU  0 inst:  155000000 cyc:  157903451 now IPC :0.31677: AVG IPC :0.97502: L2-Pf-HR :0.76668: L2-HR :0.74350: (Sim:0h52m9s) 
CPU  0 inst:  156000000 cyc:  161060005 now IPC :0.31680: AVG IPC :0.96204: L2-Pf-HR :0.76280: L2-HR :0.74104: (Sim:0h52m42s) 
CPU  0 inst:  157000000 cyc:  164216884 now IPC :0.31677: AVG IPC :0.94956: L2-Pf-HR :0.75896: L2-HR :0.73862: (Sim:0h53m15s) 
CPU  0 inst:  158000000 cyc:  167373005 now IPC :0.31684: AVG IPC :0.93756: L2-Pf-HR :0.75516: L2-HR :0.73622: (Sim:0h53m48s) 
CPU  0 inst:  159000000 cyc:  170529127 now IPC :0.31684: AVG IPC :0.92600: L2-Pf-HR :0.75140: L2-HR :0.73385: (Sim:0h54m21s) 
CPU  0 inst:  160000004 cyc:  173686974 now IPC :0.31667: AVG IPC :0.91486: L2-Pf-HR :0.74768: L2-HR :0.73150: (Sim:0h54m54s) 
CPU  0 inst:  161000002 cyc:  176842810 now IPC :0.31687: AVG IPC :0.90413: L2-Pf-HR :0.74399: L2-HR :0.72918: (Sim:0h55m27s) 
CPU  0 inst:  162000001 cyc:  179997486 now IPC :0.31699: AVG IPC :0.89378: L2-Pf-HR :0.74034: L2-HR :0.72690: (Sim:0h56m0s) 
CPU  0 inst:  163000002 cyc:  183153999 now IPC :0.31681: AVG IPC :0.88378: L2-Pf-HR :0.73672: L2-HR :0.72464: (Sim:0h56m33s) 
CPU  0 inst:  164000002 cyc:  184605177 now IPC :0.68910: AVG IPC :0.88225: L2-Pf-HR :0.73495: L2-HR :0.72306: (Sim:0h56m57s) 
CPU  0 inst:  165000005 cyc:  185119330 now IPC :1.94495: AVG IPC :0.88521: L2-Pf-HR :0.73593: L2-HR :0.72375: (Sim:0h57m18s) 
CPU  0 inst:  166000000 cyc:  185646840 now IPC :1.89569: AVG IPC :0.88810: L2-Pf-HR :0.73718: L2-HR :0.72472: (Sim:0h57m36s) 
CPU  0 inst:  167000001 cyc:  186235173 now IPC :1.69972: AVG IPC :0.89068: L2-Pf-HR :0.73820: L2-HR :0.72562: (Sim:0h57m56s) 
CPU  0 inst:  168000000 cyc:  186697079 now IPC :2.16494: AVG IPC :0.89385: L2-Pf-HR :0.73959: L2-HR :0.72663: (Sim:0h58m14s) 
CPU  0 inst:  169000002 cyc:  187207635 now IPC :1.95865: AVG IPC :0.89677: L2-Pf-HR :0.74110: L2-HR :0.72785: (Sim:0h58m32s) 
CPU  0 inst:  170000003 cyc:  187728060 now IPC :1.92151: AVG IPC :0.89962: L2-Pf-HR :0.74268: L2-HR :0.72911: (Sim:0h58m51s) 
CPU  0 inst:  171000001 cyc:  188200811 now IPC :2.11527: AVG IPC :0.90269: L2-Pf-HR :0.74418: L2-HR :0.73024: (Sim:0h59m10s) 
CPU  0 inst:  172000003 cyc:  188823519 now IPC :1.60589: AVG IPC :0.90502: L2-Pf-HR :0.74512: L2-HR :0.73117: (Sim:0h59m31s) 
CPU  0 inst:  173000001 cyc:  189326270 now IPC :1.98905: AVG IPC :0.90792: L2-Pf-HR :0.74614: L2-HR :0.73192: (Sim:0h59m48s) 
CPU  0 inst:  174000003 cyc:  189796945 now IPC :2.12461: AVG IPC :0.91095: L2-Pf-HR :0.74725: L2-HR :0.73290: (Sim:1h0m6s) 
CPU  0 inst:  175000000 cyc:  190460621 now IPC :1.50675: AVG IPC :0.91304: L2-Pf-HR :0.74793: L2-HR :0.73358: (Sim:1h0m26s) 
CPU  0 inst:  176000003 cyc:  190927597 now IPC :2.14144: AVG IPC :0.91606: L2-Pf-HR :0.74953: L2-HR :0.73473: (Sim:1h0m46s) 
CPU  0 inst:  177000002 cyc:  191395386 now IPC :2.13771: AVG IPC :0.91906: L2-Pf-HR :0.75084: L2-HR :0.73569: (Sim:1h1m6s) 
CPU  0 inst:  178000001 cyc:  191897022 now IPC :1.99348: AVG IPC :0.92188: L2-Pf-HR :0.75234: L2-HR :0.73686: (Sim:1h1m23s) 
CPU  0 inst:  179000005 cyc:  192435968 now IPC :1.85548: AVG IPC :0.92451: L2-Pf-HR :0.75376: L2-HR :0.73805: (Sim:1h1m43s) 
CPU  0 inst:  180000003 cyc:  192922192 now IPC :2.05666: AVG IPC :0.92738: L2-Pf-HR :0.75523: L2-HR :0.73930: (Sim:1h2m1s) 
CPU  0 inst:  181000001 cyc:  193527752 now IPC :1.65136: AVG IPC :0.92965: L2-Pf-HR :0.75583: L2-HR :0.73984: (Sim:1h2m21s) 
CPU  0 inst:  182000002 cyc:  194039150 now IPC :1.95543: AVG IPC :0.93237: L2-Pf-HR :0.75661: L2-HR :0.74044: (Sim:1h2m42s) 
CPU  0 inst:  183000003 cyc:  194575328 now IPC :1.86505: AVG IPC :0.93495: L2-Pf-HR :0.75766: L2-HR :0.74126: (Sim:1h3m0s) 
CPU  0 inst:  184000004 cyc:  195143696 now IPC :1.75943: AVG IPC :0.93737: L2-Pf-HR :0.75863: L2-HR :0.74213: (Sim:1h3m20s) 
CPU  0 inst:  185000002 cyc:  195610827 now IPC :2.14072: AVG IPC :0.94026: L2-Pf-HR :0.75987: L2-HR :0.74305: (Sim:1h3m39s) 
CPU  0 inst:  186000005 cyc:  196118822 now IPC :1.96853: AVG IPC :0.94293: L2-Pf-HR :0.76121: L2-HR :0.74407: (Sim:1h3m59s) 
CPU  0 inst:  187000002 cyc:  196631783 now IPC :1.94946: AVG IPC :0.94557: L2-Pf-HR :0.76244: L2-HR :0.74510: (Sim:1h4m17s) 
CPU  0 inst:  188000004 cyc:  197098008 now IPC :2.14489: AVG IPC :0.94842: L2-Pf-HR :0.76364: L2-HR :0.74609: (Sim:1h4m35s) 
CPU  0 inst:  189000002 cyc:  197733972 now IPC :1.57241: AVG IPC :0.95044: L2-Pf-HR :0.76402: L2-HR :0.74677: (Sim:1h4m55s) 
CPU  0 inst:  190000002 cyc:  198242833 now IPC :1.96517: AVG IPC :0.95306: L2-Pf-HR :0.76475: L2-HR :0.74735: (Sim:1h5m15s) 
CPU  0 inst:  191000005 cyc:  198733946 now IPC :2.03620: AVG IPC :0.95575: L2-Pf-HR :0.76568: L2-HR :0.74813: (Sim:1h5m34s) 
CPU  0 inst:  192000001 cyc:  199382482 now IPC :1.54193: AVG IPC :0.95766: L2-Pf-HR :0.76610: L2-HR :0.74871: (Sim:1h5m54s) 
CPU  0 inst:  193000002 cyc:  199852211 now IPC :2.12889: AVG IPC :0.96043: L2-Pf-HR :0.76745: L2-HR :0.74969: (Sim:1h6m13s) 
CPU  0 inst:  194000002 cyc:  200325400 now IPC :2.11332: AVG IPC :0.96317: L2-Pf-HR :0.76857: L2-HR :0.75055: (Sim:1h6m33s) 
CPU  0 inst:  195000002 cyc:  200848555 now IPC :1.91148: AVG IPC :0.96565: L2-Pf-HR :0.76967: L2-HR :0.75146: (Sim:1h6m51s) 
CPU  0 inst:  196000003 cyc:  201341080 now IPC :2.03036: AVG IPC :0.96827: L2-Pf-HR :0.77086: L2-HR :0.75246: (Sim:1h7m10s) 
CPU  0 inst:  197000005 cyc:  201821141 now IPC :2.08307: AVG IPC :0.97093: L2-Pf-HR :0.77208: L2-HR :0.75352: (Sim:1h7m28s) 
CPU  0 inst:  198000001 cyc:  202436314 now IPC :1.62555: AVG IPC :0.97293: L2-Pf-HR :0.77229: L2-HR :0.75393: (Sim:1h7m47s) 
CPU  0 inst:  199000002 cyc:  202930552 now IPC :2.02332: AVG IPC :0.97550: L2-Pf-HR :0.77290: L2-HR :0.75439: (Sim:1h8m6s) 
CPU  0 inst:  200000003 cyc:  203462910 now IPC :1.87844: AVG IPC :0.97787: L2-Pf-HR :0.77373: L2-HR :0.75506: (Sim:1h8m23s) 
CPU  0 inst:  201000000 cyc:  204048620 now IPC :1.70732: AVG IPC :0.97998: L2-Pf-HR :0.77438: L2-HR :0.75580: (Sim:1h8m44s) 
CPU  0 inst:  202000000 cyc:  204519428 now IPC :2.12401: AVG IPC :0.98262: L2-Pf-HR :0.77540: L2-HR :0.75658: (Sim:1h9m4s) 
CPU  0 inst:  203000005 cyc:  205020934 now IPC :1.99400: AVG IPC :0.98511: L2-Pf-HR :0.77649: L2-HR :0.75744: (Sim:1h9m24s) 
CPU  0 inst:  204000005 cyc:  205531017 now IPC :1.96047: AVG IPC :0.98754: L2-Pf-HR :0.77750: L2-HR :0.75831: (Sim:1h9m42s) 
CPU  0 inst:  205000005 cyc:  206001055 now IPC :2.12749: AVG IPC :0.99016: L2-Pf-HR :0.77864: L2-HR :0.75923: (Sim:1h9m50s) 
CPU  0 inst:  206000004 cyc:  206603581 now IPC :1.65968: AVG IPC :0.99212: L2-Pf-HR :0.77889: L2-HR :0.75969: (Sim:1h9m59s) 
CPU  0 inst:  207000004 cyc:  207100838 now IPC :2.01103: AVG IPC :0.99458: L2-Pf-HR :0.77953: L2-HR :0.76019: (Sim:1h10m7s) 
CPU  0 inst:  208000000 cyc:  207624132 now IPC :1.91096: AVG IPC :0.99690: L2-Pf-HR :0.78019: L2-HR :0.76077: (Sim:1h10m15s) 
CPU  0 inst:  209000003 cyc:  208215515 now IPC :1.69096: AVG IPC :0.99888: L2-Pf-HR :0.78061: L2-HR :0.76126: (Sim:1h10m23s) 
CPU  0 inst:  210000000 cyc:  208676917 now IPC :2.16730: AVG IPC :1.00147: L2-Pf-HR :0.78168: L2-HR :0.76206: (Sim:1h10m32s) 
CPU  0 inst:  211000003 cyc:  209148095 now IPC :2.12235: AVG IPC :1.00401: L2-Pf-HR :0.78269: L2-HR :0.76284: (Sim:1h10m51s) 
CPU  0 inst:  212000000 cyc:  209675272 now IPC :1.89689: AVG IPC :1.00627: L2-Pf-HR :0.78345: L2-HR :0.76358: (Sim:1h11m6s) 
CPU  0 inst:  213000002 cyc:  210129969 now IPC :2.19927: AVG IPC :1.00886: L2-Pf-HR :0.78449: L2-HR :0.76444: (Sim:1h11m14s) 
CPU  0 inst:  214000003 cyc:  210603666 now IPC :2.11106: AVG IPC :1.01135: L2-Pf-HR :0.78546: L2-HR :0.76533: (Sim:1h11m22s) 
CPU  0 inst:  215000005 cyc:  211186781 now IPC :1.71493: AVG IPC :1.01330: L2-Pf-HR :0.78544: L2-HR :0.76551: (Sim:1h11m30s) 
CPU  0 inst:  216000000 cyc:  211651993 now IPC :2.14955: AVG IPC :1.01581: L2-Pf-HR :0.78597: L2-HR :0.76599: (Sim:1h11m38s) 
CPU  0 inst:  217000005 cyc:  212169364 now IPC :1.93286: AVG IPC :1.01806: L2-Pf-HR :0.78673: L2-HR :0.76659: (Sim:1h11m45s) 
CPU  0 inst:  218000003 cyc:  212702034 now IPC :1.87733: AVG IPC :1.02022: L2-Pf-HR :0.78726: L2-HR :0.76719: (Sim:1h11m54s) 
CPU  0 inst:  219000002 cyc:  213165483 now IPC :2.15773: AVG IPC :1.02270: L2-Pf-HR :0.78803: L2-HR :0.76776: (Sim:1h12m3s) 
CPU  0 inst:  220000004 cyc:  213647054 now IPC :2.07654: AVG IPC :1.02509: L2-Pf-HR :0.78887: L2-HR :0.76851: (Sim:1h12m10s) 
CPU  0 inst:  221000001 cyc:  214149223 now IPC :1.99136: AVG IPC :1.02737: L2-Pf-HR :0.78974: L2-HR :0.76924: (Sim:1h12m18s) 
CPU  0 inst:  222000004 cyc:  214628638 now IPC :2.08588: AVG IPC :1.02974: L2-Pf-HR :0.79064: L2-HR :0.77004: (Sim:1h12m26s) 
CPU  0 inst:  223000004 cyc:  215208388 now IPC :1.72488: AVG IPC :1.03162: L2-Pf-HR :0.79081: L2-HR :0.77030: (Sim:1h12m34s) 
CPU  0 inst:  224000004 cyc:  215681582 now IPC :2.11330: AVG IPC :1.03401: L2-Pf-HR :0.79137: L2-HR :0.77082: (Sim:1h12m42s) 
CPU  0 inst:  225000000 cyc:  216190127 now IPC :1.96639: AVG IPC :1.03621: L2-Pf-HR :0.79198: L2-HR :0.77133: (Sim:1h12m50s) 
CPU  0 inst:  226000004 cyc:  216732744 now IPC :1.84293: AVG IPC :1.03824: L2-Pf-HR :0.79241: L2-HR :0.77175: (Sim:1h12m58s) 
CPU  0 inst:  227000002 cyc:  217192705 now IPC :2.17409: AVG IPC :1.04066: L2-Pf-HR :0.79318: L2-HR :0.77238: (Sim:1h13m6s) 
CPU  0 inst:  228000003 cyc:  217649682 now IPC :2.18830: AVG IPC :1.04308: L2-Pf-HR :0.79409: L2-HR :0.77314: (Sim:1h13m13s) 
CPU  0 inst:  229000000 cyc:  218163875 now IPC :1.94479: AVG IPC :1.04521: L2-Pf-HR :0.79474: L2-HR :0.77375: (Sim:1h13m21s) 
CPU  0 inst:  230000004 cyc:  218623021 now IPC :2.17797: AVG IPC :1.04760: L2-Pf-HR :0.79564: L2-HR :0.77450: (Sim:1h13m29s) 
CPU  0 inst:  231000005 cyc:  219134004 now IPC :1.95701: AVG IPC :1.04973: L2-Pf-HR :0.79635: L2-HR :0.77517: (Sim:1h13m37s) 
CPU  0 inst:  232000003 cyc:  219676175 now IPC :1.84443: AVG IPC :1.05170: L2-Pf-HR :0.79630: L2-HR :0.77532: (Sim:1h13m45s) 
CPU  0 inst:  233000003 cyc:  220115498 now IPC :2.27623: AVG IPC :1.05416: L2-Pf-HR :0.79689: L2-HR :0.77588: (Sim:1h13m52s) 
CPU  0 inst:  234000001 cyc:  220640150 now IPC :1.90602: AVG IPC :1.05619: L2-Pf-HR :0.79756: L2-HR :0.77638: (Sim:1h13m59s) 
CPU  0 inst:  235000000 cyc:  221171536 now IPC :1.88187: AVG IPC :1.05818: L2-Pf-HR :0.79814: L2-HR :0.77692: (Sim:1h14m8s) 
CPU  0 inst:  236000005 cyc:  221640992 now IPC :2.13014: AVG IPC :1.06046: L2-Pf-HR :0.79887: L2-HR :0.77746: (Sim:1h14m17s) 
CPU  0 inst:  237000000 cyc:  222116003 now IPC :2.10520: AVG IPC :1.06271: L2-Pf-HR :0.79965: L2-HR :0.77814: (Sim:1h14m24s) 
CPU  0 inst:  238000000 cyc:  222619233 now IPC :1.98716: AVG IPC :1.06481: L2-Pf-HR :0.80036: L2-HR :0.77876: (Sim:1h14m32s) 
CPU  0 inst:  239000001 cyc:  223095178 now IPC :2.10109: AVG IPC :1.06703: L2-Pf-HR :0.80113: L2-HR :0.77946: (Sim:1h14m40s) 
CPU  0 inst:  240000004 cyc:  223695874 now IPC :1.66474: AVG IPC :1.06864: L2-Pf-HR :0.80128: L2-HR :0.77966: (Sim:1h14m49s) 
CPU  0 inst:  241000002 cyc:  224179644 now IPC :2.06709: AVG IPC :1.07080: L2-Pf-HR :0.80162: L2-HR :0.77999: (Sim:1h14m57s) 
CPU  0 inst:  242000005 cyc:  224698022 now IPC :1.92910: AVG IPC :1.07279: L2-Pf-HR :0.80212: L2-HR :0.78050: (Sim:1h15m5s) 
CPU  0 inst:  243000003 cyc:  225258021 now IPC :1.78571: AVG IPC :1.07457: L2-Pf-HR :0.80244: L2-HR :0.78085: (Sim:1h15m13s) 
CPU  0 inst:  244000004 cyc:  225721187 now IPC :2.15906: AVG IPC :1.07681: L2-Pf-HR :0.80321: L2-HR :0.78144: (Sim:1h15m22s) 
CPU  0 inst:  245000002 cyc:  226204998 now IPC :2.06692: AVG IPC :1.07893: L2-Pf-HR :0.80392: L2-HR :0.78203: (Sim:1h15m29s) 
CPU  0 inst:  246000001 cyc:  226699736 now IPC :2.02127: AVG IPC :1.08100: L2-Pf-HR :0.80458: L2-HR :0.78261: (Sim:1h15m37s) 
CPU  0 inst:  247000000 cyc:  227160294 now IPC :2.17128: AVG IPC :1.08322: L2-Pf-HR :0.80538: L2-HR :0.78326: (Sim:1h15m45s) 
CPU  0 inst:  248000004 cyc:  227721478 now IPC :1.78195: AVG IPC :1.08495: L2-Pf-HR :0.80579: L2-HR :0.78367: (Sim:1h15m53s) 
CPU  0 inst:  249000002 cyc:  228218022 now IPC :2.01392: AVG IPC :1.08698: L2-Pf-HR :0.80612: L2-HR :0.78398: (Sim:1h16m1s) 
CPU  0 inst:  250000001 cyc:  228677836 now IPC :2.17479: AVG IPC :1.08918: L2-Pf-HR :0.80645: L2-HR :0.78432: (Sim:1h16m9s) 
CPU  0 inst:  251000001 cyc:  229200534 now IPC :1.91315: AVG IPC :1.09106: L2-Pf-HR :0.80697: L2-HR :0.78474: (Sim:1h16m16s) 
CPU  0 inst:  252000003 cyc:  229724273 now IPC :1.90935: AVG IPC :1.09294: L2-Pf-HR :0.80740: L2-HR :0.78516: (Sim:1h16m25s) 
CPU  0 inst:  253000005 cyc:  230177969 now IPC :2.20412: AVG IPC :1.09514: L2-Pf-HR :0.80809: L2-HR :0.78569: (Sim:1h16m44s) 
CPU  0 inst:  254000002 cyc:  230654320 now IPC :2.09929: AVG IPC :1.09722: L2-Pf-HR :0.80879: L2-HR :0.78630: (Sim:1h17m1s) 
CPU  0 inst:  255000003 cyc:  231155260 now IPC :1.99625: AVG IPC :1.09918: L2-Pf-HR :0.80940: L2-HR :0.78684: (Sim:1h17m20s) 
CPU  0 inst:  256000003 cyc:  231632921 now IPC :2.09353: AVG IPC :1.10124: L2-Pf-HR :0.81009: L2-HR :0.78748: (Sim:1h17m38s) 
CPU  0 inst:  257000000 cyc:  232233476 now IPC :1.66512: AVG IPC :1.10270: L2-Pf-HR :0.80998: L2-HR :0.78761: (Sim:1h17m59s) 
CPU  0 inst:  258000004 cyc:  232717208 now IPC :2.06727: AVG IPC :1.10471: L2-Pf-HR :0.81039: L2-HR :0.78796: (Sim:1h18m17s) 
CPU  0 inst:  259000000 cyc:  233246105 now IPC :1.89072: AVG IPC :1.10650: L2-Pf-HR :0.81079: L2-HR :0.78832: (Sim:1h18m36s) 
CPU  0 inst:  260000002 cyc:  233779551 now IPC :1.87461: AVG IPC :1.10826: L2-Pf-HR :0.81108: L2-HR :0.78863: (Sim:1h18m55s) 
CPU  0 inst:  261000005 cyc:  234250085 now IPC :2.12525: AVG IPC :1.11031: L2-Pf-HR :0.81177: L2-HR :0.78916: (Sim:1h19m14s) 
CPU  0 inst:  262000001 cyc:  234750913 now IPC :1.99669: AVG IPC :1.11221: L2-Pf-HR :0.81241: L2-HR :0.78969: (Sim:1h19m33s) 
CPU  0 inst:  263000000 cyc:  235239370 now IPC :2.04726: AVG IPC :1.11416: L2-Pf-HR :0.81298: L2-HR :0.79020: (Sim:1h19m51s) 
CPU  0 inst:  264000000 cyc:  235707666 now IPC :2.13540: AVG IPC :1.11620: L2-Pf-HR :0.81364: L2-HR :0.79073: (Sim:1h20m10s) 
CPU  0 inst:  265000000 cyc:  236284802 now IPC :1.73269: AVG IPC :1.11771: L2-Pf-HR :0.81376: L2-HR :0.79105: (Sim:1h20m22s) 
CPU  0 inst:  266000002 cyc:  236780203 now IPC :2.01857: AVG IPC :1.11961: L2-Pf-HR :0.81411: L2-HR :0.79131: (Sim:1h20m29s) 
CPU  0 inst:  267000000 cyc:  237246392 now IPC :2.14505: AVG IPC :1.12163: L2-Pf-HR :0.81441: L2-HR :0.79165: (Sim:1h20m37s) 
CPU  0 inst:  268000001 cyc:  237801759 now IPC :1.80061: AVG IPC :1.12322: L2-Pf-HR :0.81474: L2-HR :0.79191: (Sim:1h20m45s) 
CPU  0 inst:  269000005 cyc:  238311026 now IPC :1.96361: AVG IPC :1.12502: L2-Pf-HR :0.81510: L2-HR :0.79238: (Sim:1h20m54s) 
CPU  0 inst:  270000004 cyc:  238764902 now IPC :2.20324: AVG IPC :1.12708: L2-Pf-HR :0.81570: L2-HR :0.79285: (Sim:1h21m2s) 
CPU  0 inst:  271000000 cyc:  239242762 now IPC :2.09265: AVG IPC :1.12902: L2-Pf-HR :0.81630: L2-HR :0.79339: (Sim:1h21m9s) 
CPU  0 inst:  272000000 cyc:  239747474 now IPC :1.98133: AVG IPC :1.13082: L2-Pf-HR :0.81684: L2-HR :0.79388: (Sim:1h21m17s) 
CPU  0 inst:  273000000 cyc:  240223744 now IPC :2.09965: AVG IPC :1.13275: L2-Pf-HR :0.81747: L2-HR :0.79447: (Sim:1h21m25s) 
CPU  0 inst:  274000005 cyc:  240800664 now IPC :1.73335: AVG IPC :1.13419: L2-Pf-HR :0.81740: L2-HR :0.79457: (Sim:1h21m33s) 
CPU  0 inst:  275000003 cyc:  241272540 now IPC :2.11920: AVG IPC :1.13613: L2-Pf-HR :0.81774: L2-HR :0.79487: (Sim:1h21m41s) 
CPU  0 inst:  276000003 cyc:  241801059 now IPC :1.89208: AVG IPC :1.13779: L2-Pf-HR :0.81811: L2-HR :0.79517: (Sim:1h21m49s) 
CPU  0 inst:  277000004 cyc:  242351667 now IPC :1.81618: AVG IPC :1.13934: L2-Pf-HR :0.81823: L2-HR :0.79544: (Sim:1h21m57s) 
CPU  0 inst:  278000000 cyc:  242803919 now IPC :2.21115: AVG IPC :1.14134: L2-Pf-HR :0.81882: L2-HR :0.79590: (Sim:1h22m5s) 
CPU  0 inst:  279000000 cyc:  243291630 now IPC :2.05039: AVG IPC :1.14317: L2-Pf-HR :0.81934: L2-HR :0.79639: (Sim:1h22m13s) 
CPU  0 inst:  280000001 cyc:  243789026 now IPC :2.01047: AVG IPC :1.14495: L2-Pf-HR :0.81984: L2-HR :0.79683: (Sim:1h22m21s) 
CPU  0 inst:  281000003 cyc:  244243609 now IPC :2.19982: AVG IPC :1.14692: L2-Pf-HR :0.82043: L2-HR :0.79732: (Sim:1h22m29s) 
CPU  0 inst:  282000000 cyc:  244842109 now IPC :1.67084: AVG IPC :1.14820: L2-Pf-HR :0.82049: L2-HR :0.79755: (Sim:1h22m38s) 
CPU  0 inst:  283000003 cyc:  245345151 now IPC :1.98791: AVG IPC :1.14993: L2-Pf-HR :0.82081: L2-HR :0.79778: (Sim:1h22m46s) 
CPU  0 inst:  284000001 cyc:  245821755 now IPC :2.09817: AVG IPC :1.15178: L2-Pf-HR :0.82114: L2-HR :0.79812: (Sim:1h22m54s) 
CPU  0 inst:  285000005 cyc:  246434272 now IPC :1.63261: AVG IPC :1.15298: L2-Pf-HR :0.82118: L2-HR :0.79822: (Sim:1h23m4s) 
CPU  0 inst:  286000005 cyc:  246902492 now IPC :2.13575: AVG IPC :1.15485: L2-Pf-HR :0.82181: L2-HR :0.79871: (Sim:1h23m12s) 
CPU  0 inst:  287000005 cyc:  247355668 now IPC :2.20665: AVG IPC :1.15678: L2-Pf-HR :0.82233: L2-HR :0.79912: (Sim:1h23m20s) 
CPU  0 inst:  288000000 cyc:  247839471 now IPC :2.06695: AVG IPC :1.15857: L2-Pf-HR :0.82281: L2-HR :0.79960: (Sim:1h23m30s) 
CPU  0 inst:  289000004 cyc:  248353258 now IPC :1.94634: AVG IPC :1.16020: L2-Pf-HR :0.82329: L2-HR :0.80005: (Sim:1h23m49s) 
CPU  0 inst:  290000001 cyc:  248825127 now IPC :2.11923: AVG IPC :1.16203: L2-Pf-HR :0.82384: L2-HR :0.80058: (Sim:1h24m5s) 
CPU  0 inst:  291000000 cyc:  249413279 now IPC :1.70024: AVG IPC :1.16330: L2-Pf-HR :0.82382: L2-HR :0.80062: (Sim:1h24m23s) 
CPU  0 inst:  292000002 cyc:  249901170 now IPC :2.04964: AVG IPC :1.16504: L2-Pf-HR :0.82408: L2-HR :0.80084: (Sim:1h24m41s) 
CPU  0 inst:  293000005 cyc:  250421376 now IPC :1.92232: AVG IPC :1.16662: L2-Pf-HR :0.82444: L2-HR :0.80115: (Sim:1h24m58s) 
CPU  0 inst:  294000002 cyc:  250965821 now IPC :1.83673: AVG IPC :1.16808: L2-Pf-HR :0.82465: L2-HR :0.80140: (Sim:1h25m17s) 
CPU  0 inst:  295000003 cyc:  251420824 now IPC :2.19779: AVG IPC :1.16995: L2-Pf-HR :0.82515: L2-HR :0.80180: (Sim:1h25m35s) 
Finished CPU 0 instr: 293000002 cyc: 250437982 AVG IPC: 1.16995 (Sim time: 1h25m35s)

ChampSim completed all CPUs

[ROI Statistics]
Core_0_instructions 293000002
Core_0_cycles 250437982
Core_0_IPC 1.16995

Core_0_branch_prediction_accuracy 98.23791
Core_0_branch_MPKI 0.42863
Core_0_average_ROB_occupancy_at_mispredict 572.09179

Core_0_L1D_total_access 78755225
Core_0_L1D_total_hit 73232980 L1D_total_Hit Ratio: 0.92988
Core_0_L1D_total_miss 5522245
Core_0_L1D_loads 68765016
Core_0_L1D_load_hit 67092741 L1D_load_Hit Ratio: 0.97568
Core_0_L1D_load_miss 1672275
Core_0_L1D_RFOs 5988761
Core_0_L1D_RFO_hit 5802214 L1D_RFO_Hit Ratio: 0.96885
Core_0_L1D_RFO_miss 186547
Core_0_L1D_prefetches 4001448
Core_0_L1D_prefetch_hit 338025 L1D_prefetch_Hit Ratio: 0.08448
Core_0_L1D_prefetch_miss 3663423
Core_0_L1D_writebacks 0
Core_0_L1D_writeback_hit 0 L1D_writeback_Hit Ratio: -nan
Core_0_L1D_writeback_miss 0
Core_0_L1D_prefetch_requested 4573772
Core_0_L1D_prefetch_issued 4573772
Core_0_L1D_prefetch_useful 3654136 L1D_Useful Ratio: 0.79893
Core_0_L1D_prefetch_useless 34768
Core_0_L1D_prefetch_late 309795
Core_0_L1D_average_miss_latency 7034575.09503

Core_0_L1I_total_access 41650202
Core_0_L1I_total_hit 41648221 L1I_total_Hit Ratio: 0.99995
Core_0_L1I_total_miss 1981
Core_0_L1I_loads 41650202
Core_0_L1I_load_hit 41648221 L1I_load_Hit Ratio: 0.99995
Core_0_L1I_load_miss 1981
Core_0_L1I_RFOs 0
Core_0_L1I_RFO_hit 0 L1I_RFO_Hit Ratio: -nan
Core_0_L1I_RFO_miss 0
Core_0_L1I_prefetches 0
Core_0_L1I_prefetch_hit 0 L1I_prefetch_Hit Ratio: -nan
Core_0_L1I_prefetch_miss 0
Core_0_L1I_writebacks 0
Core_0_L1I_writeback_hit 0 L1I_writeback_Hit Ratio: -nan
Core_0_L1I_writeback_miss 0
Core_0_L1I_prefetch_requested 0
Core_0_L1I_prefetch_issued 0
Core_0_L1I_prefetch_useful 0 L1I_Useful Ratio: -nan
Core_0_L1I_prefetch_useless 0
Core_0_L1I_prefetch_late 0
Core_0_L1I_average_miss_latency 272.73751

Core_0_L2C_total_access 7923237
Core_0_L2C_total_hit 6352849 L2C_total_Hit Ratio: 0.80180
Core_0_L2C_total_miss 1570388
Core_0_L2C_loads 1364862
Core_0_L2C_load_hit 773416 L2C_load_Hit Ratio: 0.56666
Core_0_L2C_load_miss 591446
Core_0_L2C_RFOs 186531
Core_0_L2C_RFO_hit 46149 L2C_RFO_Hit Ratio: 0.24741
Core_0_L2C_RFO_miss 140382
Core_0_L2C_prefetches 4795896
Core_0_L2C_prefetch_hit 3957342 L2C_prefetch_Hit Ratio: 0.82515
Core_0_L2C_prefetch_miss 838554
Core_0_L2C_writebacks 1575948
Core_0_L2C_writeback_hit 1575942 L2C_writeback_Hit Ratio: 1.00000
Core_0_L2C_writeback_miss 6
Core_0_L2C_prefetch_requested 1811252
Core_0_L2C_prefetch_issued 1811252
Core_0_L2C_prefetch_useful 180343 L2C_Useful Ratio: 0.09957
Core_0_L2C_prefetch_useless 644419
Core_0_L2C_prefetch_late 218437
Core_0_L2C_average_miss_latency 350.65070

Core_0_LLC_total_access 2417677
Core_0_LLC_total_hit 840066 LLC_total_Hit Ratio: 0.34747
Core_0_LLC_total_miss 1577611
Core_0_LLC_loads 373096
Core_0_LLC_load_hit 2 LLC_load_Hit Ratio: 0.00001
Core_0_LLC_load_miss 373094
Core_0_LLC_RFOs 140382
Core_0_LLC_RFO_hit 1 LLC_RFO_Hit Ratio: 0.00001
Core_0_LLC_RFO_miss 140381
Core_0_LLC_prefetches 1056904
Core_0_LLC_prefetch_hit 0 LLC_prefetch_Hit Ratio: 0.00000
Core_0_LLC_prefetch_miss 1056904
Core_0_LLC_writebacks 847295
Core_0_LLC_writeback_hit 840063 LLC_writeback_Hit Ratio: 0.99146
Core_0_LLC_writeback_miss 7232
Core_0_LLC_prefetch_requested 0
Core_0_LLC_prefetch_issued 0
Core_0_LLC_prefetch_useful 0 LLC_Useful Ratio: -nan
Core_0_LLC_prefetch_useless 976911
Core_0_LLC_prefetch_late 0
Core_0_LLC_average_miss_latency 351.55948

Core_0_major_page_fault 0
Core_0_minor_page_fault 13331

[Bingo] PHT Access: 396395
[Bingo] PHT Hit PC+Addr: 10023
[Bingo] PHT Hit PC+Offs: 340434
[Bingo] PHT Miss: 45938
[Bingo] Prefetch PC+Addr: 0
[Bingo] Prefetch PC+Offs: 0
[Bingo] Useful PC+Addr: 0
[Bingo] Useful PC+Offs: 0
[Bingo] Useless PC+Addr: 0
[Bingo] Useless PC+Offs: 0
[Bingo] L1 Prefetch per Region: 15.35022
[Bingo] L2 Prefetch per Region: 0.11336
[Bingo] L3 Prefetch per Region: 0.00000
[Bingo] No Prefetch per Region: 16.53642
[Bingo] Number of Voters Mean: 14.31445
[Bingo] Number of Voters SD: 4.02467
PHT read accesses: 6268844
PHT write accesses: 385105
AT read accesses: 66747759
AT write accesses: 66747830
FT read accesses: 6575551
FT write accesses: 396395
PS read accesses: 2642882
PS write accesses: 350457
PHT tag read accesses: 18438955
PHT tag write accesses: 395128
AT tag read accesses: 1214291899
AT tag write accesses: 67132841
FT tag read accesses: 157186492
FT tag write accesses: 3882241
PS tag read accesses: 1123134424
PS tag write accesses: 2991619
[Bingo2] PHT Access: 304503
[Bingo2] PHT Hit PC+Addr: 10172
[Bingo2] PHT Hit PC+Offs: 210362
[Bingo2] PHT Miss: 83969
[Bingo2] Prefetch PC+Addr: 0
[Bingo2] Prefetch PC+Offs: 0
[Bingo2] Useful PC+Addr: 0
[Bingo2] Useful PC+Offs: 0
[Bingo2] Useless PC+Addr: 0
[Bingo2] Useless PC+Offs: 0
[Bingo2] L1 Prefetch per Region: 0.00000
[Bingo2] L2 Prefetch per Region: 12.57530
[Bingo2] L3 Prefetch per Region: 0.00000
[Bingo2] No Prefetch per Region: 19.42470
[Bingo2] Number of Voters Mean: 13.30879
[Bingo2] Number of Voters SD: 4.56829
PHT read accesses: 4794146
PHT write accesses: 192439
AT read accesses: 1044936
AT write accesses: 1237246
FT read accesses: 608524
FT write accesses: 304503
PS read accesses: 564860
PS write accesses: 220534
PHT tag read accesses: 10894406
PHT tag write accesses: 202611
AT tag read accesses: 55406827
AT tag write accesses: 1237375
FT tag read accesses: 43796286
FT tag write accesses: 705036
PS tag read accesses: 29467136
PS tag write accesses: 768890
Channel_0_RQ_row_buffer_hit 907841
Channel_0_RQ_row_buffer_miss 662538
Channel_0_WQ_row_buffer_hit 339664
Channel_0_WQ_row_buffer_miss 499882
Channel_0_WQ_full 6367
Channel_0_dbus_congested 1490007

avg_congested_cycle 8

EzSearch AVG IPC :1.16995: L2-Pf-HR :0.82515 : L2-HR :0.80180 Uful:0.09957
     > Finished combination: TraceType=770-tot Sim:293000000 Prefetcher=L2bingo_dpc3_PHT1k L1=bingo_dpc3_PHT1k
