TRACE: [1622000000][GPT-Neo-2_7B]_[h32][s1024][d80] Warmup: 2000000 NumTraces: 1622000000
L1:no:L2:spp_berti_src
Initialize SIGNATURE TABLE
ST_SET: 1
ST_WAY: 256
ST_TAG_BIT: 16
ST_TAG_MASK: ffff

Initialize PATTERN TABLE
PT_SET: 512
PT_WAY: 4
SIG_DELTA_BIT: 7
C_SIG_BIT: 4
C_DELTA_BIT: 4

Initialize PREFETCH FILTER
FILTER_SET: 1024
*************************************************
   ChampSim Multicore Out-of-Order Simulator
   Last compiled: Oct 26 2024 17:20:12
*************************************************

trace_0 770-tot_memTraces_v3/memTraces[1622000000][GPT-Neo-2_7B]_[h32][s1024][d80].champsim.xz
ST_WAYS: 256
PT_SETS: 512
MAIN.cc ln 751 stats print skipped
CPU  0 inst:    1000005 cyc:     497828 now IPC :2.00874: AVG IPC :2.00874: L2-Pf-HR :0.96109: L2-HR :0.82367: (Sim:0h0m19s) 
CPU  0 inst:    2000001 cyc:     980914 now IPC :2.07002: AVG IPC :2.03892: L2-Pf-HR :0.98037: L2-HR :0.87891: (Sim:0h0m40s) 

Warmup complete CPU  0 instructions:    2000001 cycles:     980914 (Simulation time: 0 hr 0 min 40 sec) 

CPU  0 inst:    3000004 cyc:    1482150 now IPC :1.99507: AVG IPC :1.99507: L2-Pf-HR :0.97378: L2-HR :0.91663: (Sim:0h0m57s) 
CPU  0 inst:    4000005 cyc:    1959877 now IPC :2.09325: AVG IPC :2.04298: L2-Pf-HR :0.97008: L2-HR :0.91429: (Sim:0h1m13s) 
CPU  0 inst:    5000001 cyc:    2430864 now IPC :2.12319: AVG IPC :2.06904: L2-Pf-HR :0.97403: L2-HR :0.91659: (Sim:0h1m30s) 
CPU  0 inst:    6000000 cyc:    2913907 now IPC :2.07021: AVG IPC :2.06933: L2-Pf-HR :0.97603: L2-HR :0.91752: (Sim:0h1m47s) 
CPU  0 inst:    7000002 cyc:    3414957 now IPC :1.99581: AVG IPC :2.05420: L2-Pf-HR :0.97745: L2-HR :0.91787: (Sim:0h2m3s) 
CPU  0 inst:    8000002 cyc:    3995064 now IPC :1.72382: AVG IPC :1.99061: L2-Pf-HR :0.97976: L2-HR :0.91644: (Sim:0h2m21s) 
CPU  0 inst:    9000001 cyc:    4464466 now IPC :2.13037: AVG IPC :2.00944: L2-Pf-HR :0.97769: L2-HR :0.91660: (Sim:0h2m37s) 
CPU  0 inst:   10000000 cyc:    4917965 now IPC :2.20507: AVG IPC :2.03198: L2-Pf-HR :0.97509: L2-HR :0.91779: (Sim:0h2m53s) 
CPU  0 inst:   11000001 cyc:    5383317 now IPC :2.14891: AVG IPC :2.04434: L2-Pf-HR :0.97162: L2-HR :0.91741: (Sim:0h3m10s) 
CPU  0 inst:   12000003 cyc:    5836637 now IPC :2.20595: AVG IPC :2.05943: L2-Pf-HR :0.96859: L2-HR :0.91762: (Sim:0h3m26s) 
CPU  0 inst:   13000000 cyc:    6286663 now IPC :2.22209: AVG IPC :2.07322: L2-Pf-HR :0.96581: L2-HR :0.91773: (Sim:0h3m43s) 
CPU  0 inst:   14000001 cyc:    6738972 now IPC :2.21088: AVG IPC :2.08404: L2-Pf-HR :0.96493: L2-HR :0.91873: (Sim:0h4m0s) 
CPU  0 inst:   15000001 cyc:    7195231 now IPC :2.19174: AVG IPC :2.09194: L2-Pf-HR :0.96466: L2-HR :0.91974: (Sim:0h4m16s) 
CPU  0 inst:   16000005 cyc:    7730411 now IPC :1.86854: AVG IPC :2.07423: L2-Pf-HR :0.96478: L2-HR :0.91722: (Sim:0h4m33s) 
CPU  0 inst:   17000002 cyc:    8175027 now IPC :2.24913: AVG IPC :2.08504: L2-Pf-HR :0.96154: L2-HR :0.91528: (Sim:0h4m49s) 
CPU  0 inst:   18000002 cyc:    8619108 now IPC :2.25184: AVG IPC :2.09474: L2-Pf-HR :0.95865: L2-HR :0.91311: (Sim:0h5m6s) 
CPU  0 inst:   19000001 cyc:    9063939 now IPC :2.24804: AVG IPC :2.10317: L2-Pf-HR :0.95578: L2-HR :0.91137: (Sim:0h5m22s) 
CPU  0 inst:   20000002 cyc:    9507320 now IPC :2.25540: AVG IPC :2.11109: L2-Pf-HR :0.95356: L2-HR :0.90968: (Sim:0h5m38s) 
CPU  0 inst:   21000000 cyc:   10092407 now IPC :1.70914: AVG IPC :2.08528: L2-Pf-HR :0.95565: L2-HR :0.90873: (Sim:0h5m55s) 
CPU  0 inst:   22000005 cyc:   10558568 now IPC :2.14519: AVG IPC :2.08819: L2-Pf-HR :0.95881: L2-HR :0.91071: (Sim:0h6m12s) 
CPU  0 inst:   23000001 cyc:   11035892 now IPC :2.09500: AVG IPC :2.08852: L2-Pf-HR :0.95950: L2-HR :0.91165: (Sim:0h6m29s) 
CPU  0 inst:   24000003 cyc:   11503863 now IPC :2.13689: AVG IPC :2.09067: L2-Pf-HR :0.96022: L2-HR :0.91259: (Sim:0h6m45s) 
CPU  0 inst:   25000000 cyc:   11976006 now IPC :2.11800: AVG IPC :2.09184: L2-Pf-HR :0.96187: L2-HR :0.91396: (Sim:0h7m2s) 
CPU  0 inst:   26000004 cyc:   12442007 now IPC :2.14593: AVG IPC :2.09404: L2-Pf-HR :0.96172: L2-HR :0.91396: (Sim:0h7m19s) 
CPU  0 inst:   27000003 cyc:   12917411 now IPC :2.10347: AVG IPC :2.09442: L2-Pf-HR :0.96228: L2-HR :0.91450: (Sim:0h7m35s) 
CPU  0 inst:   28000003 cyc:   13494045 now IPC :1.73420: AVG IPC :2.07782: L2-Pf-HR :0.96414: L2-HR :0.91528: (Sim:0h7m52s) 
CPU  0 inst:   29000000 cyc:   13972457 now IPC :2.09024: AVG IPC :2.07827: L2-Pf-HR :0.96426: L2-HR :0.91544: (Sim:0h8m9s) 
CPU  0 inst:   30000004 cyc:   14424577 now IPC :2.21181: AVG IPC :2.08277: L2-Pf-HR :0.96313: L2-HR :0.91542: (Sim:0h8m25s) 
CPU  0 inst:   31000000 cyc:   14875961 now IPC :2.21540: AVG IPC :2.08707: L2-Pf-HR :0.96208: L2-HR :0.91544: (Sim:0h8m42s) 
CPU  0 inst:   32000001 cyc:   15324197 now IPC :2.23097: AVG IPC :2.09157: L2-Pf-HR :0.96118: L2-HR :0.91551: (Sim:0h8m58s) 
CPU  0 inst:   33000002 cyc:   15774266 now IPC :2.22188: AVG IPC :2.09554: L2-Pf-HR :0.96020: L2-HR :0.91546: (Sim:0h9m14s) 
CPU  0 inst:   34000005 cyc:   16225244 now IPC :2.21741: AVG IPC :2.09914: L2-Pf-HR :0.95955: L2-HR :0.91565: (Sim:0h9m31s) 
CPU  0 inst:   35000005 cyc:   16679363 now IPC :2.20207: AVG IPC :2.10212: L2-Pf-HR :0.95964: L2-HR :0.91625: (Sim:0h9m47s) 
CPU  0 inst:   36000004 cyc:   17242648 now IPC :1.77530: AVG IPC :2.09080: L2-Pf-HR :0.95979: L2-HR :0.91526: (Sim:0h10m4s) 
CPU  0 inst:   37000001 cyc:   17696439 now IPC :2.20365: AVG IPC :2.09386: L2-Pf-HR :0.95844: L2-HR :0.91436: (Sim:0h10m21s) 
CPU  0 inst:   38000003 cyc:   18141883 now IPC :2.24496: AVG IPC :2.09778: L2-Pf-HR :0.95712: L2-HR :0.91337: (Sim:0h10m37s) 
CPU  0 inst:   39000002 cyc:   18585847 now IPC :2.25243: AVG IPC :2.10168: L2-Pf-HR :0.95581: L2-HR :0.91256: (Sim:0h10m54s) 
CPU  0 inst:   40000000 cyc:   19032335 now IPC :2.23970: AVG IPC :2.10510: L2-Pf-HR :0.95465: L2-HR :0.91174: (Sim:0h11m10s) 
CPU  0 inst:   41000001 cyc:   19664124 now IPC :1.58281: AVG IPC :2.08744: L2-Pf-HR :0.95560: L2-HR :0.91125: (Sim:0h11m28s) 
CPU  0 inst:   42000003 cyc:   20149774 now IPC :2.05910: AVG IPC :2.08672: L2-Pf-HR :0.95756: L2-HR :0.91240: (Sim:0h11m45s) 
CPU  0 inst:   43000002 cyc:   20632871 now IPC :2.06998: AVG IPC :2.08631: L2-Pf-HR :0.95761: L2-HR :0.91267: (Sim:0h12m2s) 
CPU  0 inst:   44000000 cyc:   21113541 now IPC :2.08043: AVG IPC :2.08617: L2-Pf-HR :0.95856: L2-HR :0.91341: (Sim:0h12m19s) 
CPU  0 inst:   45000000 cyc:   21591107 now IPC :2.09395: AVG IPC :2.08635: L2-Pf-HR :0.95900: L2-HR :0.91379: (Sim:0h12m36s) 
CPU  0 inst:   46000005 cyc:   22067171 now IPC :2.10057: AVG IPC :2.08667: L2-Pf-HR :0.95895: L2-HR :0.91382: (Sim:0h12m53s) 
CPU  0 inst:   47000001 cyc:   22542953 now IPC :2.10179: AVG IPC :2.08700: L2-Pf-HR :0.95877: L2-HR :0.91382: (Sim:0h13m9s) 
CPU  0 inst:   48000004 cyc:   23174286 now IPC :1.58395: AVG IPC :2.07269: L2-Pf-HR :0.95997: L2-HR :0.91428: (Sim:0h13m27s) 
CPU  0 inst:   49000000 cyc:   23652406 now IPC :2.09152: AVG IPC :2.07309: L2-Pf-HR :0.96052: L2-HR :0.91461: (Sim:0h13m44s) 
CPU  0 inst:   50000005 cyc:   24104205 now IPC :2.21338: AVG IPC :2.07583: L2-Pf-HR :0.95998: L2-HR :0.91461: (Sim:0h14m0s) 
CPU  0 inst:   51000001 cyc:   24555762 now IPC :2.21455: AVG IPC :2.07849: L2-Pf-HR :0.95940: L2-HR :0.91465: (Sim:0h14m17s) 
CPU  0 inst:   52000002 cyc:   25005572 now IPC :2.22316: AVG IPC :2.08120: L2-Pf-HR :0.95892: L2-HR :0.91470: (Sim:0h14m34s) 
CPU  0 inst:   53000001 cyc:   25455554 now IPC :2.22231: AVG IPC :2.08379: L2-Pf-HR :0.95844: L2-HR :0.91476: (Sim:0h14m50s) 
CPU  0 inst:   54000000 cyc:   25906350 now IPC :2.21830: AVG IPC :2.08622: L2-Pf-HR :0.95790: L2-HR :0.91483: (Sim:0h15m7s) 
CPU  0 inst:   55000002 cyc:   26363065 now IPC :2.18955: AVG IPC :2.08808: L2-Pf-HR :0.95771: L2-HR :0.91509: (Sim:0h15m24s) 
CPU  0 inst:   56000001 cyc:   26926511 now IPC :1.77479: AVG IPC :2.08128: L2-Pf-HR :0.95781: L2-HR :0.91448: (Sim:0h15m41s) 
CPU  0 inst:   57000004 cyc:   27383265 now IPC :2.18937: AVG IPC :2.08315: L2-Pf-HR :0.95703: L2-HR :0.91389: (Sim:0h15m58s) 
CPU  0 inst:   58000004 cyc:   27827501 now IPC :2.25106: AVG IPC :2.08593: L2-Pf-HR :0.95617: L2-HR :0.91325: (Sim:0h16m14s) 
CPU  0 inst:   59000002 cyc:   28273322 now IPC :2.24305: AVG IPC :2.08849: L2-Pf-HR :0.95535: L2-HR :0.91273: (Sim:0h16m31s) 
CPU  0 inst:   60000004 cyc:   28720251 now IPC :2.23750: AVG IPC :2.09089: L2-Pf-HR :0.95460: L2-HR :0.91219: (Sim:0h16m45s) 
CPU  0 inst:   61000002 cyc:   29355028 now IPC :1.57535: AVG IPC :2.07936: L2-Pf-HR :0.95502: L2-HR :0.91171: (Sim:0h16m53s) 
CPU  0 inst:   62000004 cyc:   29842560 now IPC :2.05115: AVG IPC :2.07888: L2-Pf-HR :0.95579: L2-HR :0.91233: (Sim:0h17m1s) 
CPU  0 inst:   63000000 cyc:   30340430 now IPC :2.00855: AVG IPC :2.07769: L2-Pf-HR :0.95606: L2-HR :0.91254: (Sim:0h17m8s) 
CPU  0 inst:   64000005 cyc:   30835363 now IPC :2.02049: AVG IPC :2.07674: L2-Pf-HR :0.95645: L2-HR :0.91286: (Sim:0h17m16s) 
CPU  0 inst:   65000001 cyc:   31309096 now IPC :2.11089: AVG IPC :2.07728: L2-Pf-HR :0.95750: L2-HR :0.91360: (Sim:0h17m24s) 
CPU  0 inst:   66000003 cyc:   31784487 now IPC :2.10354: AVG IPC :2.07768: L2-Pf-HR :0.95787: L2-HR :0.91378: (Sim:0h17m31s) 
CPU  0 inst:   67000001 cyc:   32270897 now IPC :2.05587: AVG IPC :2.07734: L2-Pf-HR :0.95822: L2-HR :0.91408: (Sim:0h17m39s) 
CPU  0 inst:   68000002 cyc:   32900659 now IPC :1.58790: AVG IPC :2.06769: L2-Pf-HR :0.95913: L2-HR :0.91435: (Sim:0h17m47s) 
CPU  0 inst:   69000001 cyc:   33379463 now IPC :2.08854: AVG IPC :2.06799: L2-Pf-HR :0.95923: L2-HR :0.91445: (Sim:0h17m54s) 
CPU  0 inst:   70000003 cyc:   33829324 now IPC :2.22291: AVG IPC :2.07012: L2-Pf-HR :0.95884: L2-HR :0.91444: (Sim:0h18m2s) 
CPU  0 inst:   71000002 cyc:   34279034 now IPC :2.22365: AVG IPC :2.07219: L2-Pf-HR :0.95846: L2-HR :0.91449: (Sim:0h18m10s) 
CPU  0 inst:   72000004 cyc:   34729603 now IPC :2.21942: AVG IPC :2.07415: L2-Pf-HR :0.95806: L2-HR :0.91450: (Sim:0h18m17s) 
CPU  0 inst:   73000005 cyc:   35179060 now IPC :2.22491: AVG IPC :2.07614: L2-Pf-HR :0.95773: L2-HR :0.91451: (Sim:0h18m25s) 
CPU  0 inst:   74000004 cyc:   35628930 now IPC :2.22286: AVG IPC :2.07804: L2-Pf-HR :0.95739: L2-HR :0.91459: (Sim:0h18m38s) 
CPU  0 inst:   75000004 cyc:   36093904 now IPC :2.15066: AVG IPC :2.07900: L2-Pf-HR :0.95781: L2-HR :0.91505: (Sim:0h18m55s) 
CPU  0 inst:   76000002 cyc:   36651895 now IPC :1.79214: AVG IPC :2.07452: L2-Pf-HR :0.95792: L2-HR :0.91461: (Sim:0h19m12s) 
CPU  0 inst:   77000001 cyc:   37102519 now IPC :2.21914: AVG IPC :2.07632: L2-Pf-HR :0.95730: L2-HR :0.91419: (Sim:0h19m30s) 
CPU  0 inst:   78000000 cyc:   37546206 now IPC :2.25384: AVG IPC :2.07847: L2-Pf-HR :0.95666: L2-HR :0.91372: (Sim:0h19m47s) 
CPU  0 inst:   79000000 cyc:   37992706 now IPC :2.23964: AVG IPC :2.08042: L2-Pf-HR :0.95603: L2-HR :0.91334: (Sim:0h20m4s) 
CPU  0 inst:   80000005 cyc:   38442220 now IPC :2.22464: AVG IPC :2.08215: L2-Pf-HR :0.95556: L2-HR :0.91295: (Sim:0h20m20s) 
CPU  0 inst:   81000003 cyc:   39076464 now IPC :1.57668: AVG IPC :2.07373: L2-Pf-HR :0.95589: L2-HR :0.91259: (Sim:0h20m38s) 
CPU  0 inst:   82000002 cyc:   39571496 now IPC :2.02007: AVG IPC :2.07304: L2-Pf-HR :0.95643: L2-HR :0.91306: (Sim:0h20m56s) 
CPU  0 inst:   83000001 cyc:   40086862 now IPC :1.94037: AVG IPC :2.07130: L2-Pf-HR :0.95667: L2-HR :0.91324: (Sim:0h21m13s) 
CPU  0 inst:   84000003 cyc:   40581705 now IPC :2.02085: AVG IPC :2.07067: L2-Pf-HR :0.95692: L2-HR :0.91346: (Sim:0h21m31s) 
CPU  0 inst:   85000005 cyc:   41053756 now IPC :2.11842: AVG IPC :2.07123: L2-Pf-HR :0.95745: L2-HR :0.91388: (Sim:0h21m48s) 
CPU  0 inst:   86000001 cyc:   41531308 now IPC :2.09400: AVG IPC :2.07150: L2-Pf-HR :0.95761: L2-HR :0.91400: (Sim:0h22m6s) 
CPU  0 inst:   87000000 cyc:   42014869 now IPC :2.06799: AVG IPC :2.07146: L2-Pf-HR :0.95814: L2-HR :0.91434: (Sim:0h22m23s) 
CPU  0 inst:   88000000 cyc:   42645438 now IPC :1.58587: AVG IPC :2.06411: L2-Pf-HR :0.95888: L2-HR :0.91458: (Sim:0h22m41s) 
CPU  0 inst:   89000005 cyc:   43125993 now IPC :2.08094: AVG IPC :2.06430: L2-Pf-HR :0.95878: L2-HR :0.91460: (Sim:0h22m58s) 
CPU  0 inst:   90000001 cyc:   43578390 now IPC :2.21044: AVG IPC :2.06585: L2-Pf-HR :0.95842: L2-HR :0.91458: (Sim:0h23m15s) 
CPU  0 inst:   91000001 cyc:   44037522 now IPC :2.17802: AVG IPC :2.06705: L2-Pf-HR :0.95828: L2-HR :0.91468: (Sim:0h23m32s) 
CPU  0 inst:   92000004 cyc:   44487705 now IPC :2.22133: AVG IPC :2.06864: L2-Pf-HR :0.95798: L2-HR :0.91469: (Sim:0h23m49s) 
CPU  0 inst:   93000003 cyc:   44937470 now IPC :2.22338: AVG IPC :2.07023: L2-Pf-HR :0.95767: L2-HR :0.91471: (Sim:0h24m6s) 
CPU  0 inst:   94000001 cyc:   45387065 now IPC :2.22422: AVG IPC :2.07178: L2-Pf-HR :0.95737: L2-HR :0.91474: (Sim:0h24m24s) 
CPU  0 inst:   95000002 cyc:   45847432 now IPC :2.17218: AVG IPC :2.07282: L2-Pf-HR :0.95748: L2-HR :0.91500: (Sim:0h24m41s) 
CPU  0 inst:   96000000 cyc:   46405944 now IPC :1.79047: AVG IPC :2.06934: L2-Pf-HR :0.95745: L2-HR :0.91462: (Sim:0h24m58s) 
CPU  0 inst:   97000000 cyc:   46851553 now IPC :2.24412: AVG IPC :2.07104: L2-Pf-HR :0.95694: L2-HR :0.91427: (Sim:0h25m15s) 
CPU  0 inst:   98000001 cyc:   47296678 now IPC :2.24656: AVG IPC :2.07273: L2-Pf-HR :0.95644: L2-HR :0.91389: (Sim:0h25m32s) 
CPU  0 inst:   99000002 cyc:   47740733 now IPC :2.25198: AVG IPC :2.07443: L2-Pf-HR :0.95595: L2-HR :0.91362: (Sim:0h25m49s) 
CPU  0 inst:  100000003 cyc:   48192030 now IPC :2.21584: AVG IPC :2.07578: L2-Pf-HR :0.95550: L2-HR :0.91329: (Sim:0h26m6s) 
CPU  0 inst:  101000001 cyc:   48823737 now IPC :1.58301: AVG IPC :2.06928: L2-Pf-HR :0.95585: L2-HR :0.91306: (Sim:0h26m25s) 
CPU  0 inst:  102000003 cyc:   49300625 now IPC :2.09693: AVG IPC :2.06955: L2-Pf-HR :0.95613: L2-HR :0.91329: (Sim:0h26m42s) 
CPU  0 inst:  103000002 cyc:   49782859 now IPC :2.07368: AVG IPC :2.06959: L2-Pf-HR :0.95650: L2-HR :0.91356: (Sim:0h26m59s) 
CPU  0 inst:  104000004 cyc:   50263218 now IPC :2.08178: AVG IPC :2.06971: L2-Pf-HR :0.95694: L2-HR :0.91386: (Sim:0h27m8s) 
CPU  0 inst:  105000002 cyc:   50740568 now IPC :2.09489: AVG IPC :2.06995: L2-Pf-HR :0.95752: L2-HR :0.91421: (Sim:0h27m16s) 
CPU  0 inst:  106000002 cyc:   51239318 now IPC :2.00501: AVG IPC :2.06931: L2-Pf-HR :0.95756: L2-HR :0.91421: (Sim:0h27m24s) 
CPU  0 inst:  107000001 cyc:   51726275 now IPC :2.05357: AVG IPC :2.06915: L2-Pf-HR :0.95772: L2-HR :0.91434: (Sim:0h27m32s) 
CPU  0 inst:  108000000 cyc:   52359216 now IPC :1.57992: AVG IPC :2.06313: L2-Pf-HR :0.95828: L2-HR :0.91455: (Sim:0h27m40s) 
CPU  0 inst:  109000000 cyc:   52850859 now IPC :2.03400: AVG IPC :2.06285: L2-Pf-HR :0.95836: L2-HR :0.91461: (Sim:0h27m48s) 
CPU  0 inst:  110000002 cyc:   53301134 now IPC :2.22087: AVG IPC :2.06421: L2-Pf-HR :0.95809: L2-HR :0.91461: (Sim:0h27m55s) 
CPU  0 inst:  111000005 cyc:   53750593 now IPC :2.22490: AVG IPC :2.06558: L2-Pf-HR :0.95787: L2-HR :0.91462: (Sim:0h28m3s) 
CPU  0 inst:  112000003 cyc:   54200262 now IPC :2.22385: AVG IPC :2.06692: L2-Pf-HR :0.95765: L2-HR :0.91464: (Sim:0h28m11s) 
CPU  0 inst:  113000001 cyc:   54649269 now IPC :2.22713: AVG IPC :2.06826: L2-Pf-HR :0.95739: L2-HR :0.91465: (Sim:0h28m19s) 
CPU  0 inst:  114000000 cyc:   55099927 now IPC :2.21898: AVG IPC :2.06951: L2-Pf-HR :0.95722: L2-HR :0.91473: (Sim:0h28m26s) 
CPU  0 inst:  115000000 cyc:   55569298 now IPC :2.13051: AVG IPC :2.07004: L2-Pf-HR :0.95722: L2-HR :0.91489: (Sim:0h28m34s) 
CPU  0 inst:  116000001 cyc:   56126658 now IPC :1.79417: AVG IPC :2.06725: L2-Pf-HR :0.95716: L2-HR :0.91456: (Sim:0h28m42s) 
CPU  0 inst:  117000002 cyc:   56578387 now IPC :2.21372: AVG IPC :2.06844: L2-Pf-HR :0.95673: L2-HR :0.91429: (Sim:0h28m49s) 
CPU  0 inst:  118000004 cyc:   57023424 now IPC :2.24701: AVG IPC :2.06986: L2-Pf-HR :0.95630: L2-HR :0.91397: (Sim:0h28m57s) 
CPU  0 inst:  119000000 cyc:   57468492 now IPC :2.24684: AVG IPC :2.07125: L2-Pf-HR :0.95591: L2-HR :0.91375: (Sim:0h29m5s) 
CPU  0 inst:  120000000 cyc:   57923420 now IPC :2.19815: AVG IPC :2.07227: L2-Pf-HR :0.95560: L2-HR :0.91348: (Sim:0h29m12s) 
CPU  0 inst:  121000002 cyc:   58566538 now IPC :1.55493: AVG IPC :2.06649: L2-Pf-HR :0.95572: L2-HR :0.91321: (Sim:0h29m20s) 
CPU  0 inst:  122000004 cyc:   59039500 now IPC :2.11434: AVG IPC :2.06688: L2-Pf-HR :0.95614: L2-HR :0.91355: (Sim:0h29m28s) 
CPU  0 inst:  123000001 cyc:   59572773 now IPC :1.87521: AVG IPC :2.06513: L2-Pf-HR :0.95625: L2-HR :0.91362: (Sim:0h29m36s) 
CPU  0 inst:  124000005 cyc:   60066215 now IPC :2.02659: AVG IPC :2.06481: L2-Pf-HR :0.95645: L2-HR :0.91380: (Sim:0h29m44s) 
CPU  0 inst:  125000004 cyc:   60540075 now IPC :2.11033: AVG IPC :2.06517: L2-Pf-HR :0.95701: L2-HR :0.91416: (Sim:0h29m52s) 
CPU  0 inst:  126000003 cyc:   61018251 now IPC :2.09128: AVG IPC :2.06538: L2-Pf-HR :0.95728: L2-HR :0.91427: (Sim:0h29m59s) 
CPU  0 inst:  127000005 cyc:   61514839 now IPC :2.01375: AVG IPC :2.06496: L2-Pf-HR :0.95762: L2-HR :0.91447: (Sim:0h30m7s) 
CPU  0 inst:  128000002 cyc:   62148114 now IPC :1.57909: AVG IPC :2.05993: L2-Pf-HR :0.95809: L2-HR :0.91463: (Sim:0h30m15s) 
CPU  0 inst:  129000004 cyc:   62620169 now IPC :2.11840: AVG IPC :2.06038: L2-Pf-HR :0.95808: L2-HR :0.91465: (Sim:0h30m23s) 
CPU  0 inst:  130000003 cyc:   63069683 now IPC :2.22462: AVG IPC :2.06156: L2-Pf-HR :0.95787: L2-HR :0.91466: (Sim:0h30m30s) 
CPU  0 inst:  131000005 cyc:   63519696 now IPC :2.22216: AVG IPC :2.06272: L2-Pf-HR :0.95765: L2-HR :0.91467: (Sim:0h30m38s) 
CPU  0 inst:  132000001 cyc:   63968178 now IPC :2.22973: AVG IPC :2.06391: L2-Pf-HR :0.95746: L2-HR :0.91467: (Sim:0h30m45s) 
CPU  0 inst:  133000002 cyc:   64418150 now IPC :2.22236: AVG IPC :2.06503: L2-Pf-HR :0.95724: L2-HR :0.91468: (Sim:0h30m53s) 
CPU  0 inst:  134000004 cyc:   64891343 now IPC :2.11331: AVG IPC :2.06539: L2-Pf-HR :0.95740: L2-HR :0.91486: (Sim:0h31m0s) 
CPU  0 inst:  135000001 cyc:   65357297 now IPC :2.14613: AVG IPC :2.06597: L2-Pf-HR :0.95736: L2-HR :0.91498: (Sim:0h31m8s) 
CPU  0 inst:  136000005 cyc:   65927615 now IPC :1.75341: AVG IPC :2.06323: L2-Pf-HR :0.95731: L2-HR :0.91469: (Sim:0h31m16s) 
CPU  0 inst:  137000001 cyc:   66396918 now IPC :2.13081: AVG IPC :2.06372: L2-Pf-HR :0.95698: L2-HR :0.91446: (Sim:0h31m23s) 
CPU  0 inst:  138000004 cyc:   66841820 now IPC :2.24769: AVG IPC :2.06496: L2-Pf-HR :0.95661: L2-HR :0.91420: (Sim:0h31m31s) 
CPU  0 inst:  139000004 cyc:   67286856 now IPC :2.24701: AVG IPC :2.06618: L2-Pf-HR :0.95639: L2-HR :0.91402: (Sim:0h31m38s) 
CPU  0 inst:  140000001 cyc:   67744318 now IPC :2.18597: AVG IPC :2.06700: L2-Pf-HR :0.95609: L2-HR :0.91377: (Sim:0h31m45s) 
CPU  0 inst:  141000000 cyc:   68380397 now IPC :1.57213: AVG IPC :2.06233: L2-Pf-HR :0.95634: L2-HR :0.91362: (Sim:0h31m53s) 
CPU  0 inst:  142000004 cyc:   68856894 now IPC :2.09866: AVG IPC :2.06259: L2-Pf-HR :0.95657: L2-HR :0.91375: (Sim:0h32m1s) 
CPU  0 inst:  143000001 cyc:   69366324 now IPC :1.96297: AVG IPC :2.06184: L2-Pf-HR :0.95652: L2-HR :0.91377: (Sim:0h32m9s) 
CPU  0 inst:  144000000 cyc:   69851315 now IPC :2.06189: AVG IPC :2.06184: L2-Pf-HR :0.95659: L2-HR :0.91386: (Sim:0h32m16s) 
CPU  0 inst:  145000005 cyc:   70325882 now IPC :2.10719: AVG IPC :2.06215: L2-Pf-HR :0.95707: L2-HR :0.91420: (Sim:0h32m24s) 
CPU  0 inst:  146000004 cyc:   70801834 now IPC :2.10105: AVG IPC :2.06242: L2-Pf-HR :0.95715: L2-HR :0.91428: (Sim:0h32m32s) 
CPU  0 inst:  147000000 cyc:   71322798 now IPC :1.91951: AVG IPC :2.06136: L2-Pf-HR :0.95767: L2-HR :0.91457: (Sim:0h32m39s) 
CPU  0 inst:  148000000 cyc:   71951578 now IPC :1.59038: AVG IPC :2.05719: L2-Pf-HR :0.95808: L2-HR :0.91469: (Sim:0h32m47s) 
CPU  0 inst:  149000005 cyc:   72436947 now IPC :2.06030: AVG IPC :2.05721: L2-Pf-HR :0.95817: L2-HR :0.91476: (Sim:0h32m55s) 
CPU  0 inst:  150000002 cyc:   72896052 now IPC :2.17814: AVG IPC :2.05798: L2-Pf-HR :0.95799: L2-HR :0.91475: (Sim:0h33m2s) 
CPU  0 inst:  151000003 cyc:   73346822 now IPC :2.21843: AVG IPC :2.05898: L2-Pf-HR :0.95785: L2-HR :0.91478: (Sim:0h33m16s) 
CPU  0 inst:  152000002 cyc:   73796903 now IPC :2.22182: AVG IPC :2.05999: L2-Pf-HR :0.95769: L2-HR :0.91479: (Sim:0h33m33s) 
CPU  0 inst:  153000000 cyc:   74245654 now IPC :2.22840: AVG IPC :2.06102: L2-Pf-HR :0.95753: L2-HR :0.91480: (Sim:0h33m49s) 
CPU  0 inst:  154000005 cyc:   74697798 now IPC :2.21170: AVG IPC :2.06194: L2-Pf-HR :0.95742: L2-HR :0.91485: (Sim:0h34m6s) 
CPU  0 inst:  155000001 cyc:   75164051 now IPC :2.14475: AVG IPC :2.06246: L2-Pf-HR :0.95742: L2-HR :0.91498: (Sim:0h34m22s) 
CPU  0 inst:  156000002 cyc:   75720913 now IPC :1.79578: AVG IPC :2.06048: L2-Pf-HR :0.95735: L2-HR :0.91472: (Sim:0h34m39s) 
CPU  0 inst:  157000002 cyc:   76166931 now IPC :2.24206: AVG IPC :2.06155: L2-Pf-HR :0.95704: L2-HR :0.91452: (Sim:0h34m56s) 
CPU  0 inst:  158000000 cyc:   76611414 now IPC :2.24980: AVG IPC :2.06266: L2-Pf-HR :0.95673: L2-HR :0.91429: (Sim:0h35m13s) 
CPU  0 inst:  159000002 cyc:   77057643 now IPC :2.24101: AVG IPC :2.06371: L2-Pf-HR :0.95648: L2-HR :0.91412: (Sim:0h35m30s) 
CPU  0 inst:  160000005 cyc:   77514726 now IPC :2.18779: AVG IPC :2.06445: L2-Pf-HR :0.95623: L2-HR :0.91391: (Sim:0h35m48s) 
CPU  0 inst:  161000001 cyc:   78133906 now IPC :1.61503: AVG IPC :2.06084: L2-Pf-HR :0.95642: L2-HR :0.91377: (Sim:0h36m6s) 
CPU  0 inst:  162000003 cyc:   78655727 now IPC :1.91637: AVG IPC :2.05987: L2-Pf-HR :0.95679: L2-HR :0.91395: (Sim:0h36m24s) 
CPU  0 inst:  163000003 cyc:   79190857 now IPC :1.86870: AVG IPC :2.05856: L2-Pf-HR :0.95716: L2-HR :0.91410: (Sim:0h36m42s) 
CPU  0 inst:  164000004 cyc:   79709037 now IPC :1.92983: AVG IPC :2.05771: L2-Pf-HR :0.95757: L2-HR :0.91430: (Sim:0h37m0s) 
CPU  0 inst:  165000000 cyc:   80244095 now IPC :1.86895: AVG IPC :2.05644: L2-Pf-HR :0.95796: L2-HR :0.91449: (Sim:0h37m17s) 
CPU  0 inst:  166000002 cyc:   80754695 now IPC :1.95848: AVG IPC :2.05581: L2-Pf-HR :0.95823: L2-HR :0.91458: (Sim:0h37m35s) 
CPU  0 inst:  167000001 cyc:   81279026 now IPC :1.90719: AVG IPC :2.05484: L2-Pf-HR :0.95857: L2-HR :0.91471: (Sim:0h37m52s) 
CPU  0 inst:  168000000 cyc:   81923194 now IPC :1.55239: AVG IPC :2.05084: L2-Pf-HR :0.95886: L2-HR :0.91473: (Sim:0h38m10s) 
CPU  0 inst:  169000000 cyc:   82402843 now IPC :2.08486: AVG IPC :2.05104: L2-Pf-HR :0.95900: L2-HR :0.91482: (Sim:0h38m27s) 
CPU  0 inst:  170000002 cyc:   82854882 now IPC :2.21220: AVG IPC :2.05193: L2-Pf-HR :0.95883: L2-HR :0.91481: (Sim:0h38m44s) 
CPU  0 inst:  171000004 cyc:   83305072 now IPC :2.22129: AVG IPC :2.05286: L2-Pf-HR :0.95866: L2-HR :0.91481: (Sim:0h39m1s) 
CPU  0 inst:  172000005 cyc:   83754837 now IPC :2.22339: AVG IPC :2.05379: L2-Pf-HR :0.95850: L2-HR :0.91481: (Sim:0h39m18s) 
CPU  0 inst:  173000001 cyc:   84204516 now IPC :2.22380: AVG IPC :2.05471: L2-Pf-HR :0.95833: L2-HR :0.91481: (Sim:0h39m34s) 
CPU  0 inst:  174000000 cyc:   84657420 now IPC :2.20797: AVG IPC :2.05554: L2-Pf-HR :0.95829: L2-HR :0.91488: (Sim:0h39m51s) 
CPU  0 inst:  175000003 cyc:   85126141 now IPC :2.13347: AVG IPC :2.05597: L2-Pf-HR :0.95825: L2-HR :0.91497: (Sim:0h40m8s) 
CPU  0 inst:  176000002 cyc:   85685742 now IPC :1.78699: AVG IPC :2.05419: L2-Pf-HR :0.95821: L2-HR :0.91474: (Sim:0h40m25s) 
CPU  0 inst:  177000001 cyc:   86132691 now IPC :2.23739: AVG IPC :2.05515: L2-Pf-HR :0.95794: L2-HR :0.91457: (Sim:0h40m42s) 
CPU  0 inst:  178000005 cyc:   86576570 now IPC :2.25288: AVG IPC :2.05618: L2-Pf-HR :0.95765: L2-HR :0.91436: (Sim:0h40m51s) 
CPU  0 inst:  179000001 cyc:   87021935 now IPC :2.24534: AVG IPC :2.05716: L2-Pf-HR :0.95743: L2-HR :0.91421: (Sim:0h40m58s) 
CPU  0 inst:  180000000 cyc:   87479478 now IPC :2.18558: AVG IPC :2.05784: L2-Pf-HR :0.95720: L2-HR :0.91403: (Sim:0h41m6s) 
CPU  0 inst:  181000001 cyc:   88115493 now IPC :1.57229: AVG IPC :2.05429: L2-Pf-HR :0.95731: L2-HR :0.91386: (Sim:0h41m21s) 
CPU  0 inst:  182000001 cyc:   88596379 now IPC :2.07949: AVG IPC :2.05443: L2-Pf-HR :0.95758: L2-HR :0.91407: (Sim:0h41m39s) 
CPU  0 inst:  183000000 cyc:   89075300 now IPC :2.08802: AVG IPC :2.05461: L2-Pf-HR :0.95770: L2-HR :0.91416: (Sim:0h41m56s) 
CPU  0 inst:  184000002 cyc:   89552996 now IPC :2.09339: AVG IPC :2.05482: L2-Pf-HR :0.95793: L2-HR :0.91433: (Sim:0h42m13s) 
CPU  0 inst:  185000005 cyc:   90029093 now IPC :2.10042: AVG IPC :2.05507: L2-Pf-HR :0.95820: L2-HR :0.91451: (Sim:0h42m31s) 
CPU  0 inst:  186000003 cyc:   90511779 now IPC :2.07174: AVG IPC :2.05516: L2-Pf-HR :0.95829: L2-HR :0.91462: (Sim:0h42m48s) 
CPU  0 inst:  187000005 cyc:   91006769 now IPC :2.02025: AVG IPC :2.05497: L2-Pf-HR :0.95850: L2-HR :0.91474: (Sim:0h43m6s) 
CPU  0 inst:  188000000 cyc:   91639956 now IPC :1.57930: AVG IPC :2.05164: L2-Pf-HR :0.95883: L2-HR :0.91484: (Sim:0h43m24s) 
CPU  0 inst:  189000001 cyc:   92113752 now IPC :2.11062: AVG IPC :2.05195: L2-Pf-HR :0.95893: L2-HR :0.91489: (Sim:0h43m41s) 
CPU  0 inst:  190000000 cyc:   92565755 now IPC :2.21237: AVG IPC :2.05274: L2-Pf-HR :0.95879: L2-HR :0.91489: (Sim:0h43m58s) 
CPU  0 inst:  191000002 cyc:   93016079 now IPC :2.22063: AVG IPC :2.05356: L2-Pf-HR :0.95864: L2-HR :0.91490: (Sim:0h44m15s) 
CPU  0 inst:  192000000 cyc:   93466009 now IPC :2.22256: AVG IPC :2.05439: L2-Pf-HR :0.95850: L2-HR :0.91490: (Sim:0h44m32s) 
CPU  0 inst:  193000004 cyc:   93914846 now IPC :2.22799: AVG IPC :2.05522: L2-Pf-HR :0.95837: L2-HR :0.91491: (Sim:0h44m49s) 
CPU  0 inst:  194000002 cyc:   94366594 now IPC :2.21362: AVG IPC :2.05599: L2-Pf-HR :0.95828: L2-HR :0.91495: (Sim:0h45m7s) 
CPU  0 inst:  195000001 cyc:   94838010 now IPC :2.12127: AVG IPC :2.05632: L2-Pf-HR :0.95825: L2-HR :0.91505: (Sim:0h45m24s) 
CPU  0 inst:  196000001 cyc:   95380550 now IPC :1.84318: AVG IPC :2.05509: L2-Pf-HR :0.95823: L2-HR :0.91483: (Sim:0h45m41s) 
CPU  0 inst:  197000001 cyc:   95825980 now IPC :2.24502: AVG IPC :2.05598: L2-Pf-HR :0.95799: L2-HR :0.91467: (Sim:0h45m58s) 
CPU  0 inst:  198000000 cyc:   96269410 now IPC :2.25515: AVG IPC :2.05691: L2-Pf-HR :0.95774: L2-HR :0.91449: (Sim:0h46m15s) 
CPU  0 inst:  199000001 cyc:   96714692 now IPC :2.24577: AVG IPC :2.05779: L2-Pf-HR :0.95753: L2-HR :0.91436: (Sim:0h46m32s) 
CPU  0 inst:  200000002 cyc:   97175146 now IPC :2.17177: AVG IPC :2.05834: L2-Pf-HR :0.95736: L2-HR :0.91419: (Sim:0h46m49s) 
CPU  0 inst:  201000000 cyc:   97810566 now IPC :1.57376: AVG IPC :2.05516: L2-Pf-HR :0.95754: L2-HR :0.91410: (Sim:0h47m8s) 
CPU  0 inst:  202000002 cyc:   98292517 now IPC :2.07490: AVG IPC :2.05525: L2-Pf-HR :0.95771: L2-HR :0.91422: (Sim:0h47m25s) 
CPU  0 inst:  203000001 cyc:   98767673 now IPC :2.10457: AVG IPC :2.05549: L2-Pf-HR :0.95781: L2-HR :0.91430: (Sim:0h47m42s) 
CPU  0 inst:  204000003 cyc:   99246315 now IPC :2.08925: AVG IPC :2.05566: L2-Pf-HR :0.95794: L2-HR :0.91440: (Sim:0h48m0s) 
CPU  0 inst:  205000002 cyc:   99720455 now IPC :2.10908: AVG IPC :2.05591: L2-Pf-HR :0.95819: L2-HR :0.91455: (Sim:0h48m17s) 
CPU  0 inst:  206000004 cyc:  100201111 now IPC :2.08049: AVG IPC :2.05603: L2-Pf-HR :0.95824: L2-HR :0.91465: (Sim:0h48m34s) 
CPU  0 inst:  207000000 cyc:  100679790 now IPC :2.08907: AVG IPC :2.05619: L2-Pf-HR :0.95836: L2-HR :0.91475: (Sim:0h48m52s) 
CPU  0 inst:  208000001 cyc:  101312817 now IPC :1.57971: AVG IPC :2.05319: L2-Pf-HR :0.95864: L2-HR :0.91484: (Sim:0h49m10s) 
CPU  0 inst:  209000002 cyc:  101798089 now IPC :2.06070: AVG IPC :2.05322: L2-Pf-HR :0.95872: L2-HR :0.91489: (Sim:0h49m26s) 
CPU  0 inst:  210000001 cyc:  102250919 now IPC :2.20833: AVG IPC :2.05392: L2-Pf-HR :0.95857: L2-HR :0.91489: (Sim:0h49m42s) 
CPU  0 inst:  211000003 cyc:  102701610 now IPC :2.21882: AVG IPC :2.05465: L2-Pf-HR :0.95845: L2-HR :0.91490: (Sim:0h49m59s) 
CPU  0 inst:  212000000 cyc:  103151047 now IPC :2.22500: AVG IPC :2.05540: L2-Pf-HR :0.95832: L2-HR :0.91489: (Sim:0h50m15s) 
CPU  0 inst:  213000003 cyc:  103600246 now IPC :2.22619: AVG IPC :2.05614: L2-Pf-HR :0.95822: L2-HR :0.91490: (Sim:0h50m32s) 
CPU  0 inst:  214000001 cyc:  104069258 now IPC :2.13214: AVG IPC :2.05649: L2-Pf-HR :0.95823: L2-HR :0.91497: (Sim:0h50m48s) 
CPU  0 inst:  215000002 cyc:  104542703 now IPC :2.11218: AVG IPC :2.05674: L2-Pf-HR :0.95822: L2-HR :0.91507: (Sim:0h51m4s) 
CPU  0 inst:  216000001 cyc:  105098983 now IPC :1.79765: AVG IPC :2.05536: L2-Pf-HR :0.95816: L2-HR :0.91487: (Sim:0h51m21s) 
CPU  0 inst:  217000002 cyc:  105544946 now IPC :2.24234: AVG IPC :2.05616: L2-Pf-HR :0.95794: L2-HR :0.91471: (Sim:0h51m37s) 
CPU  0 inst:  218000001 cyc:  105988915 now IPC :2.25241: AVG IPC :2.05699: L2-Pf-HR :0.95771: L2-HR :0.91456: (Sim:0h51m54s) 
CPU  0 inst:  219000003 cyc:  106438473 now IPC :2.22441: AVG IPC :2.05770: L2-Pf-HR :0.95752: L2-HR :0.91443: (Sim:0h52m10s) 
CPU  0 inst:  220000002 cyc:  106902566 now IPC :2.15474: AVG IPC :2.05813: L2-Pf-HR :0.95734: L2-HR :0.91429: (Sim:0h52m26s) 
CPU  0 inst:  221000001 cyc:  107517475 now IPC :1.62626: AVG IPC :2.05563: L2-Pf-HR :0.95745: L2-HR :0.91418: (Sim:0h52m44s) 
CPU  0 inst:  222000005 cyc:  107998061 now IPC :2.08080: AVG IPC :2.05575: L2-Pf-HR :0.95769: L2-HR :0.91434: (Sim:0h53m0s) 
CPU  0 inst:  223000005 cyc:  108510579 now IPC :1.95115: AVG IPC :2.05525: L2-Pf-HR :0.95772: L2-HR :0.91438: (Sim:0h53m17s) 
CPU  0 inst:  224000004 cyc:  109000370 now IPC :2.04169: AVG IPC :2.05519: L2-Pf-HR :0.95780: L2-HR :0.91447: (Sim:0h53m33s) 
CPU  0 inst:  225000000 cyc:  109483069 now IPC :2.07168: AVG IPC :2.05526: L2-Pf-HR :0.95806: L2-HR :0.91464: (Sim:0h53m50s) 
CPU  0 inst:  226000002 cyc:  109954255 now IPC :2.12231: AVG IPC :2.05555: L2-Pf-HR :0.95817: L2-HR :0.91469: (Sim:0h54m7s) 
CPU  0 inst:  227000004 cyc:  110433504 now IPC :2.08660: AVG IPC :2.05568: L2-Pf-HR :0.95833: L2-HR :0.91481: (Sim:0h54m23s) 
CPU  0 inst:  228000003 cyc:  111057542 now IPC :1.60246: AVG IPC :2.05312: L2-Pf-HR :0.95859: L2-HR :0.91488: (Sim:0h54m40s) 
CPU  0 inst:  229000004 cyc:  111537049 now IPC :2.08548: AVG IPC :2.05326: L2-Pf-HR :0.95855: L2-HR :0.91489: (Sim:0h54m57s) 
CPU  0 inst:  230000005 cyc:  111986310 now IPC :2.22588: AVG IPC :2.05395: L2-Pf-HR :0.95843: L2-HR :0.91490: (Sim:0h55m13s) 
CPU  0 inst:  231000004 cyc:  112435877 now IPC :2.22436: AVG IPC :2.05464: L2-Pf-HR :0.95832: L2-HR :0.91491: (Sim:0h55m29s) 
CPU  0 inst:  232000000 cyc:  112885987 now IPC :2.22167: AVG IPC :2.05531: L2-Pf-HR :0.95819: L2-HR :0.91491: (Sim:0h55m46s) 
CPU  0 inst:  233000002 cyc:  113336082 now IPC :2.22176: AVG IPC :2.05598: L2-Pf-HR :0.95806: L2-HR :0.91490: (Sim:0h56m2s) 
CPU  0 inst:  234000000 cyc:  113786454 now IPC :2.22038: AVG IPC :2.05664: L2-Pf-HR :0.95802: L2-HR :0.91496: (Sim:0h56m19s) 
CPU  0 inst:  235000000 cyc:  114269719 now IPC :2.06926: AVG IPC :2.05669: L2-Pf-HR :0.95806: L2-HR :0.91505: (Sim:0h56m36s) 
CPU  0 inst:  236000000 cyc:  114815725 now IPC :1.83148: AVG IPC :2.05561: L2-Pf-HR :0.95800: L2-HR :0.91486: (Sim:0h56m54s) 
CPU  0 inst:  237000000 cyc:  115261394 now IPC :2.24382: AVG IPC :2.05634: L2-Pf-HR :0.95780: L2-HR :0.91471: (Sim:0h57m11s) 
CPU  0 inst:  238000000 cyc:  115705941 now IPC :2.24948: AVG IPC :2.05709: L2-Pf-HR :0.95758: L2-HR :0.91457: (Sim:0h57m28s) 
CPU  0 inst:  239000001 cyc:  116151372 now IPC :2.24502: AVG IPC :2.05782: L2-Pf-HR :0.95738: L2-HR :0.91445: (Sim:0h57m46s) 
CPU  0 inst:  240000000 cyc:  116615798 now IPC :2.15319: AVG IPC :2.05820: L2-Pf-HR :0.95722: L2-HR :0.91431: (Sim:0h58m3s) 
CPU  0 inst:  241000005 cyc:  117245322 now IPC :1.58851: AVG IPC :2.05566: L2-Pf-HR :0.95736: L2-HR :0.91423: (Sim:0h58m22s) 
CPU  0 inst:  242000004 cyc:  117727838 now IPC :2.07247: AVG IPC :2.05573: L2-Pf-HR :0.95754: L2-HR :0.91433: (Sim:0h58m39s) 
CPU  0 inst:  243000000 cyc:  118205586 now IPC :2.09315: AVG IPC :2.05588: L2-Pf-HR :0.95768: L2-HR :0.91444: (Sim:0h58m57s) 
CPU  0 inst:  244000002 cyc:  118685187 now IPC :2.08507: AVG IPC :2.05600: L2-Pf-HR :0.95781: L2-HR :0.91453: (Sim:0h59m15s) 
CPU  0 inst:  245000001 cyc:  119165198 now IPC :2.08328: AVG IPC :2.05611: L2-Pf-HR :0.95797: L2-HR :0.91463: (Sim:0h59m33s) 
CPU  0 inst:  246000003 cyc:  119658208 now IPC :2.02836: AVG IPC :2.05600: L2-Pf-HR :0.95812: L2-HR :0.91476: (Sim:0h59m50s) 
CPU  0 inst:  247000005 cyc:  120144378 now IPC :2.05690: AVG IPC :2.05600: L2-Pf-HR :0.95834: L2-HR :0.91487: (Sim:1h0m8s) 
CPU  0 inst:  248000000 cyc:  120780113 now IPC :1.57297: AVG IPC :2.05344: L2-Pf-HR :0.95857: L2-HR :0.91494: (Sim:1h0m26s) 
CPU  0 inst:  249000003 cyc:  121250538 now IPC :2.12574: AVG IPC :2.05372: L2-Pf-HR :0.95860: L2-HR :0.91495: (Sim:1h0m44s) 
CPU  0 inst:  250000000 cyc:  121700129 now IPC :2.22424: AVG IPC :2.05435: L2-Pf-HR :0.95849: L2-HR :0.91496: (Sim:1h1m1s) 
CPU  0 inst:  251000005 cyc:  122150014 now IPC :2.22280: AVG IPC :2.05498: L2-Pf-HR :0.95838: L2-HR :0.91496: (Sim:1h1m18s) 
CPU  0 inst:  252000001 cyc:  122599919 now IPC :2.22268: AVG IPC :2.05560: L2-Pf-HR :0.95828: L2-HR :0.91497: (Sim:1h1m36s) 
CPU  0 inst:  253000003 cyc:  123052174 now IPC :2.21115: AVG IPC :2.05618: L2-Pf-HR :0.95822: L2-HR :0.91499: (Sim:1h1m53s) 
CPU  0 inst:  254000001 cyc:  123502828 now IPC :2.21899: AVG IPC :2.05677: L2-Pf-HR :0.95814: L2-HR :0.91501: (Sim:1h2m10s) 
CPU  0 inst:  255000000 cyc:  123977114 now IPC :2.10843: AVG IPC :2.05697: L2-Pf-HR :0.95813: L2-HR :0.91510: (Sim:1h2m28s) 
CPU  0 inst:  256000002 cyc:  124525399 now IPC :1.82387: AVG IPC :2.05594: L2-Pf-HR :0.95809: L2-HR :0.91492: (Sim:1h2m45s) 
CPU  0 inst:  257000001 cyc:  124970871 now IPC :2.24481: AVG IPC :2.05662: L2-Pf-HR :0.95791: L2-HR :0.91479: (Sim:1h3m3s) 
CPU  0 inst:  258000003 cyc:  125415057 now IPC :2.25131: AVG IPC :2.05731: L2-Pf-HR :0.95772: L2-HR :0.91466: (Sim:1h3m20s) 
CPU  0 inst:  259000001 cyc:  125860791 now IPC :2.24349: AVG IPC :2.05798: L2-Pf-HR :0.95756: L2-HR :0.91455: (Sim:1h3m37s) 
CPU  0 inst:  260000000 cyc:  126333451 now IPC :2.11568: AVG IPC :2.05820: L2-Pf-HR :0.95741: L2-HR :0.91441: (Sim:1h3m50s) 
CPU  0 inst:  261000003 cyc:  126951388 now IPC :1.61829: AVG IPC :2.05604: L2-Pf-HR :0.95757: L2-HR :0.91436: (Sim:1h3m58s) 
CPU  0 inst:  262000002 cyc:  127430879 now IPC :2.08554: AVG IPC :2.05615: L2-Pf-HR :0.95783: L2-HR :0.91451: (Sim:1h4m6s) 
CPU  0 inst:  263000005 cyc:  127936870 now IPC :1.97633: AVG IPC :2.05583: L2-Pf-HR :0.95783: L2-HR :0.91452: (Sim:1h4m14s) 
CPU  0 inst:  264000003 cyc:  128417981 now IPC :2.07852: AVG IPC :2.05592: L2-Pf-HR :0.95789: L2-HR :0.91457: (Sim:1h4m21s) 
CPU  0 inst:  265000002 cyc:  128896857 now IPC :2.08822: AVG IPC :2.05604: L2-Pf-HR :0.95809: L2-HR :0.91471: (Sim:1h4m29s) 
CPU  0 inst:  266000001 cyc:  129382962 now IPC :2.05717: AVG IPC :2.05604: L2-Pf-HR :0.95826: L2-HR :0.91481: (Sim:1h4m37s) 
CPU  0 inst:  267000000 cyc:  129895531 now IPC :1.95095: AVG IPC :2.05562: L2-Pf-HR :0.95849: L2-HR :0.91494: (Sim:1h4m45s) 
CPU  0 inst:  268000004 cyc:  130531433 now IPC :1.57258: AVG IPC :2.05325: L2-Pf-HR :0.95870: L2-HR :0.91499: (Sim:1h4m54s) 
CPU  0 inst:  269000003 cyc:  131002661 now IPC :2.12211: AVG IPC :2.05350: L2-Pf-HR :0.95873: L2-HR :0.91502: (Sim:1h5m1s) 
CPU  0 inst:  270000001 cyc:  131456182 now IPC :2.20497: AVG IPC :2.05403: L2-Pf-HR :0.95861: L2-HR :0.91502: (Sim:1h5m9s) 
CPU  0 inst:  271000003 cyc:  131905955 now IPC :2.22335: AVG IPC :2.05461: L2-Pf-HR :0.95852: L2-HR :0.91503: (Sim:1h5m17s) 
CPU  0 inst:  272000003 cyc:  132356726 now IPC :2.21842: AVG IPC :2.05517: L2-Pf-HR :0.95841: L2-HR :0.91503: (Sim:1h5m25s) 
CPU  0 inst:  273000004 cyc:  132810535 now IPC :2.20357: AVG IPC :2.05568: L2-Pf-HR :0.95837: L2-HR :0.91504: (Sim:1h5m32s) 
CPU  0 inst:  274000005 cyc:  133260749 now IPC :2.22117: AVG IPC :2.05625: L2-Pf-HR :0.95827: L2-HR :0.91506: (Sim:1h5m40s) 
CPU  0 inst:  275000002 cyc:  133739585 now IPC :2.08839: AVG IPC :2.05636: L2-Pf-HR :0.95826: L2-HR :0.91513: (Sim:1h5m48s) 
CPU  0 inst:  276000001 cyc:  134287294 now IPC :1.82579: AVG IPC :2.05542: L2-Pf-HR :0.95825: L2-HR :0.91496: (Sim:1h5m56s) 
CPU  0 inst:  277000000 cyc:  134732515 now IPC :2.24607: AVG IPC :2.05605: L2-Pf-HR :0.95807: L2-HR :0.91485: (Sim:1h6m3s) 
CPU  0 inst:  278000000 cyc:  135177151 now IPC :2.24903: AVG IPC :2.05669: L2-Pf-HR :0.95790: L2-HR :0.91473: (Sim:1h6m17s) 
CPU  0 inst:  279000003 cyc:  135623593 now IPC :2.23994: AVG IPC :2.05730: L2-Pf-HR :0.95778: L2-HR :0.91463: (Sim:1h6m35s) 
CPU  0 inst:  280000000 cyc:  136104133 now IPC :2.08099: AVG IPC :2.05738: L2-Pf-HR :0.95765: L2-HR :0.91448: (Sim:1h6m47s) 
CPU  0 inst:  281000004 cyc:  136719033 now IPC :1.62629: AVG IPC :2.05543: L2-Pf-HR :0.95776: L2-HR :0.91445: (Sim:1h6m56s) 
CPU  0 inst:  282000000 cyc:  137202688 now IPC :2.06758: AVG IPC :2.05547: L2-Pf-HR :0.95791: L2-HR :0.91453: (Sim:1h7m4s) 
CPU  0 inst:  283000002 cyc:  137702646 now IPC :2.00017: AVG IPC :2.05527: L2-Pf-HR :0.95790: L2-HR :0.91454: (Sim:1h7m11s) 
CPU  0 inst:  284000001 cyc:  138175327 now IPC :2.11559: AVG IPC :2.05548: L2-Pf-HR :0.95799: L2-HR :0.91461: (Sim:1h7m19s) 
CPU  0 inst:  285000000 cyc:  138651152 now IPC :2.10161: AVG IPC :2.05564: L2-Pf-HR :0.95815: L2-HR :0.91472: (Sim:1h7m27s) 
CPU  0 inst:  286000002 cyc:  139130586 now IPC :2.08580: AVG IPC :2.05574: L2-Pf-HR :0.95822: L2-HR :0.91478: (Sim:1h7m35s) 
CPU  0 inst:  287000004 cyc:  139612807 now IPC :2.07374: AVG IPC :2.05580: L2-Pf-HR :0.95834: L2-HR :0.91487: (Sim:1h7m43s) 
CPU  0 inst:  288000005 cyc:  140248833 now IPC :1.57226: AVG IPC :2.05360: L2-Pf-HR :0.95854: L2-HR :0.91492: (Sim:1h7m51s) 
CPU  0 inst:  289000001 cyc:  140728816 now IPC :2.08340: AVG IPC :2.05370: L2-Pf-HR :0.95852: L2-HR :0.91494: (Sim:1h7m59s) 
CPU  0 inst:  290000002 cyc:  141179187 now IPC :2.22039: AVG IPC :2.05423: L2-Pf-HR :0.95841: L2-HR :0.91494: (Sim:1h8m7s) 
CPU  0 inst:  291000001 cyc:  141628804 now IPC :2.22411: AVG IPC :2.05478: L2-Pf-HR :0.95834: L2-HR :0.91495: (Sim:1h8m14s) 
CPU  0 inst:  292000000 cyc:  142078838 now IPC :2.22205: AVG IPC :2.05531: L2-Pf-HR :0.95824: L2-HR :0.91495: (Sim:1h8m22s) 
CPU  0 inst:  293000005 cyc:  142527846 now IPC :2.22714: AVG IPC :2.05586: L2-Pf-HR :0.95815: L2-HR :0.91495: (Sim:1h8m30s) 
CPU  0 inst:  294000000 cyc:  142979158 now IPC :2.21575: AVG IPC :2.05636: L2-Pf-HR :0.95807: L2-HR :0.91495: (Sim:1h8m38s) 
CPU  0 inst:  295000000 cyc:  143458480 now IPC :2.08628: AVG IPC :2.05646: L2-Pf-HR :0.95807: L2-HR :0.91503: (Sim:1h8m45s) 
CPU  0 inst:  296000002 cyc:  144012450 now IPC :1.80516: AVG IPC :2.05549: L2-Pf-HR :0.95803: L2-HR :0.91487: (Sim:1h8m53s) 
CPU  0 inst:  297000000 cyc:  144458112 now IPC :2.24385: AVG IPC :2.05608: L2-Pf-HR :0.95787: L2-HR :0.91476: (Sim:1h9m1s) 
CPU  0 inst:  298000002 cyc:  144902197 now IPC :2.25183: AVG IPC :2.05668: L2-Pf-HR :0.95769: L2-HR :0.91464: (Sim:1h9m9s) 
CPU  0 inst:  299000001 cyc:  145348280 now IPC :2.24173: AVG IPC :2.05725: L2-Pf-HR :0.95755: L2-HR :0.91455: (Sim:1h9m17s) 
CPU  0 inst:  300000003 cyc:  145834802 now IPC :2.05541: AVG IPC :2.05725: L2-Pf-HR :0.95743: L2-HR :0.91439: (Sim:1h9m33s) 
CPU  0 inst:  301000005 cyc:  146428537 now IPC :1.68426: AVG IPC :2.05572: L2-Pf-HR :0.95753: L2-HR :0.91438: (Sim:1h9m51s) 
CPU  0 inst:  302000001 cyc:  146905828 now IPC :2.09515: AVG IPC :2.05585: L2-Pf-HR :0.95771: L2-HR :0.91449: (Sim:1h10m8s) 
CPU  0 inst:  303000003 cyc:  147426846 now IPC :1.91932: AVG IPC :2.05537: L2-Pf-HR :0.95767: L2-HR :0.91449: (Sim:1h10m24s) 
CPU  0 inst:  304000002 cyc:  147919593 now IPC :2.02944: AVG IPC :2.05528: L2-Pf-HR :0.95775: L2-HR :0.91456: (Sim:1h10m40s) 
CPU  0 inst:  305000004 cyc:  148397374 now IPC :2.09301: AVG IPC :2.05540: L2-Pf-HR :0.95794: L2-HR :0.91469: (Sim:1h10m56s) 
CPU  0 inst:  306000001 cyc:  148871886 now IPC :2.10742: AVG IPC :2.05557: L2-Pf-HR :0.95801: L2-HR :0.91474: (Sim:1h11m12s) 
CPU  0 inst:  307000001 cyc:  149352745 now IPC :2.07961: AVG IPC :2.05565: L2-Pf-HR :0.95812: L2-HR :0.91481: (Sim:1h11m29s) 
CPU  0 inst:  308000000 cyc:  149986608 now IPC :1.57763: AVG IPC :2.05361: L2-Pf-HR :0.95830: L2-HR :0.91486: (Sim:1h11m45s) 
CPU  0 inst:  309000005 cyc:  150468898 now IPC :2.07345: AVG IPC :2.05368: L2-Pf-HR :0.95833: L2-HR :0.91488: (Sim:1h12m1s) 
CPU  0 inst:  310000000 cyc:  150918935 now IPC :2.22203: AVG IPC :2.05418: L2-Pf-HR :0.95825: L2-HR :0.91489: (Sim:1h12m18s) 
CPU  0 inst:  311000002 cyc:  151369359 now IPC :2.22013: AVG IPC :2.05468: L2-Pf-HR :0.95816: L2-HR :0.91489: (Sim:1h12m34s) 
CPU  0 inst:  312000001 cyc:  151820535 now IPC :2.21643: AVG IPC :2.05516: L2-Pf-HR :0.95807: L2-HR :0.91490: (Sim:1h12m49s) 
CPU  0 inst:  313000002 cyc:  152269467 now IPC :2.22751: AVG IPC :2.05567: L2-Pf-HR :0.95800: L2-HR :0.91489: (Sim:1h13m6s) 
CPU  0 inst:  314000001 cyc:  152723601 now IPC :2.20199: AVG IPC :2.05611: L2-Pf-HR :0.95795: L2-HR :0.91492: (Sim:1h13m21s) 
CPU  0 inst:  315000001 cyc:  153207373 now IPC :2.06709: AVG IPC :2.05615: L2-Pf-HR :0.95793: L2-HR :0.91498: (Sim:1h13m37s) 
CPU  0 inst:  316000000 cyc:  153755971 now IPC :1.82283: AVG IPC :2.05531: L2-Pf-HR :0.95793: L2-HR :0.91485: (Sim:1h13m53s) 
CPU  0 inst:  317000000 cyc:  154202016 now IPC :2.24193: AVG IPC :2.05585: L2-Pf-HR :0.95778: L2-HR :0.91474: (Sim:1h14m10s) 
CPU  0 inst:  318000004 cyc:  154645886 now IPC :2.25292: AVG IPC :2.05642: L2-Pf-HR :0.95761: L2-HR :0.91463: (Sim:1h14m27s) 
CPU  0 inst:  319000005 cyc:  155091153 now IPC :2.24585: AVG IPC :2.05697: L2-Pf-HR :0.95747: L2-HR :0.91454: (Sim:1h14m42s) 
CPU  0 inst:  320000004 cyc:  155587288 now IPC :2.01558: AVG IPC :2.05684: L2-Pf-HR :0.95736: L2-HR :0.91438: (Sim:1h14m59s) 
CPU  0 inst:  321000003 cyc:  156177974 now IPC :1.69295: AVG IPC :2.05545: L2-Pf-HR :0.95747: L2-HR :0.91439: (Sim:1h15m16s) 
CPU  0 inst:  322000003 cyc:  156656166 now IPC :2.09121: AVG IPC :2.05556: L2-Pf-HR :0.95764: L2-HR :0.91448: (Sim:1h15m33s) 
CPU  0 inst:  323000004 cyc:  157185632 now IPC :1.88870: AVG IPC :2.05500: L2-Pf-HR :0.95760: L2-HR :0.91448: (Sim:1h15m50s) 
CPU  0 inst:  324000000 cyc:  157671741 now IPC :2.05714: AVG IPC :2.05500: L2-Pf-HR :0.95766: L2-HR :0.91455: (Sim:1h16m8s) 
CPU  0 inst:  325000004 cyc:  158166128 now IPC :2.02272: AVG IPC :2.05490: L2-Pf-HR :0.95784: L2-HR :0.91467: (Sim:1h16m25s) 
CPU  0 inst:  326000002 cyc:  158642089 now IPC :2.10101: AVG IPC :2.05504: L2-Pf-HR :0.95790: L2-HR :0.91472: (Sim:1h16m42s) 
CPU  0 inst:  327000003 cyc:  159130851 now IPC :2.04599: AVG IPC :2.05501: L2-Pf-HR :0.95806: L2-HR :0.91481: (Sim:1h17m0s) 
CPU  0 inst:  328000004 cyc:  159756394 now IPC :1.59861: AVG IPC :2.05321: L2-Pf-HR :0.95824: L2-HR :0.91485: (Sim:1h17m18s) 
CPU  0 inst:  329000001 cyc:  160237297 now IPC :2.07942: AVG IPC :2.05329: L2-Pf-HR :0.95829: L2-HR :0.91487: (Sim:1h17m35s) 
CPU  0 inst:  330000001 cyc:  160687766 now IPC :2.21991: AVG IPC :2.05376: L2-Pf-HR :0.95819: L2-HR :0.91488: (Sim:1h17m52s) 
CPU  0 inst:  331000000 cyc:  161138283 now IPC :2.21967: AVG IPC :2.05423: L2-Pf-HR :0.95811: L2-HR :0.91488: (Sim:1h18m9s) 
CPU  0 inst:  332000004 cyc:  161588996 now IPC :2.21872: AVG IPC :2.05469: L2-Pf-HR :0.95803: L2-HR :0.91489: (Sim:1h18m26s) 
CPU  0 inst:  333000002 cyc:  162038615 now IPC :2.22410: AVG IPC :2.05516: L2-Pf-HR :0.95796: L2-HR :0.91488: (Sim:1h18m43s) 
CPU  0 inst:  334000004 cyc:  162495118 now IPC :2.19057: AVG IPC :2.05555: L2-Pf-HR :0.95792: L2-HR :0.91491: (Sim:1h18m59s) 
CPU  0 inst:  335000005 cyc:  162985845 now IPC :2.03779: AVG IPC :2.05549: L2-Pf-HR :0.95793: L2-HR :0.91496: (Sim:1h19m15s) 
CPU  0 inst:  336000001 cyc:  163542841 now IPC :1.79534: AVG IPC :2.05460: L2-Pf-HR :0.95790: L2-HR :0.91485: (Sim:1h19m32s) 
CPU  0 inst:  337000003 cyc:  163998681 now IPC :2.19376: AVG IPC :2.05499: L2-Pf-HR :0.95776: L2-HR :0.91475: (Sim:1h19m49s) 
CPU  0 inst:  338000000 cyc:  164442969 now IPC :2.25079: AVG IPC :2.05552: L2-Pf-HR :0.95761: L2-HR :0.91464: (Sim:1h20m5s) 
CPU  0 inst:  339000004 cyc:  164887940 now IPC :2.24735: AVG IPC :2.05604: L2-Pf-HR :0.95747: L2-HR :0.91455: (Sim:1h20m21s) 
CPU  0 inst:  340000004 cyc:  165392391 now IPC :1.98235: AVG IPC :2.05582: L2-Pf-HR :0.95738: L2-HR :0.91440: (Sim:1h20m38s) 
CPU  0 inst:  341000004 cyc:  165976781 now IPC :1.71119: AVG IPC :2.05460: L2-Pf-HR :0.95748: L2-HR :0.91442: (Sim:1h20m54s) 
CPU  0 inst:  342000000 cyc:  166457985 now IPC :2.07811: AVG IPC :2.05467: L2-Pf-HR :0.95768: L2-HR :0.91453: (Sim:1h21m11s) 
CPU  0 inst:  343000002 cyc:  166934673 now IPC :2.09781: AVG IPC :2.05479: L2-Pf-HR :0.95771: L2-HR :0.91456: (Sim:1h21m28s) 
CPU  0 inst:  344000001 cyc:  167410931 now IPC :2.09970: AVG IPC :2.05492: L2-Pf-HR :0.95777: L2-HR :0.91462: (Sim:1h21m44s) 
CPU  0 inst:  345000003 cyc:  167891171 now IPC :2.08230: AVG IPC :2.05500: L2-Pf-HR :0.95783: L2-HR :0.91465: (Sim:1h22m0s) 
CPU  0 inst:  346000000 cyc:  168370940 now IPC :2.08433: AVG IPC :2.05508: L2-Pf-HR :0.95780: L2-HR :0.91467: (Sim:1h22m17s) 
CPU  0 inst:  347000000 cyc:  168859032 now IPC :2.04879: AVG IPC :2.05506: L2-Pf-HR :0.95789: L2-HR :0.91475: (Sim:1h22m34s) 
CPU  0 inst:  348000004 cyc:  169494699 now IPC :1.57316: AVG IPC :2.05324: L2-Pf-HR :0.95805: L2-HR :0.91478: (Sim:1h22m51s) 
CPU  0 inst:  349000001 cyc:  169982887 now IPC :2.04839: AVG IPC :2.05323: L2-Pf-HR :0.95810: L2-HR :0.91482: (Sim:1h23m8s) 
CPU  0 inst:  350000005 cyc:  170433671 now IPC :2.21837: AVG IPC :2.05367: L2-Pf-HR :0.95802: L2-HR :0.91482: (Sim:1h23m25s) 
CPU  0 inst:  351000001 cyc:  170885682 now IPC :2.21233: AVG IPC :2.05409: L2-Pf-HR :0.95796: L2-HR :0.91483: (Sim:1h23m41s) 
CPU  0 inst:  352000003 cyc:  171334537 now IPC :2.22790: AVG IPC :2.05455: L2-Pf-HR :0.95788: L2-HR :0.91483: (Sim:1h23m58s) 
CPU  0 inst:  353000005 cyc:  171783075 now IPC :2.22947: AVG IPC :2.05501: L2-Pf-HR :0.95780: L2-HR :0.91483: (Sim:1h24m15s) 
CPU  0 inst:  354000004 cyc:  172236090 now IPC :2.20743: AVG IPC :2.05541: L2-Pf-HR :0.95776: L2-HR :0.91484: (Sim:1h24m31s) 
CPU  0 inst:  355000001 cyc:  172730417 now IPC :2.02295: AVG IPC :2.05532: L2-Pf-HR :0.95776: L2-HR :0.91488: (Sim:1h24m48s) 
CPU  0 inst:  356000005 cyc:  173264183 now IPC :1.87349: AVG IPC :2.05476: L2-Pf-HR :0.95774: L2-HR :0.91479: (Sim:1h25m5s) 
CPU  0 inst:  357000004 cyc:  173711482 now IPC :2.23564: AVG IPC :2.05522: L2-Pf-HR :0.95761: L2-HR :0.91469: (Sim:1h25m22s) 
CPU  0 inst:  358000005 cyc:  174156092 now IPC :2.24916: AVG IPC :2.05572: L2-Pf-HR :0.95747: L2-HR :0.91459: (Sim:1h25m39s) 
CPU  0 inst:  359000004 cyc:  174600843 now IPC :2.24845: AVG IPC :2.05622: L2-Pf-HR :0.95734: L2-HR :0.91451: (Sim:1h25m55s) 
CPU  0 inst:  360000000 cyc:  175108839 now IPC :1.96851: AVG IPC :2.05596: L2-Pf-HR :0.95725: L2-HR :0.91435: (Sim:1h26m13s) 
CPU  0 inst:  361000002 cyc:  175693983 now IPC :1.70898: AVG IPC :2.05480: L2-Pf-HR :0.95725: L2-HR :0.91435: (Sim:1h26m30s) 
CPU  0 inst:  362000001 cyc:  176166074 now IPC :2.11823: AVG IPC :2.05497: L2-Pf-HR :0.95733: L2-HR :0.91441: (Sim:1h26m47s) 
CPU  0 inst:  363000000 cyc:  176692065 now IPC :1.90117: AVG IPC :2.05451: L2-Pf-HR :0.95733: L2-HR :0.91441: (Sim:1h27m4s) 
CPU  0 inst:  364000005 cyc:  177188228 now IPC :2.01548: AVG IPC :2.05440: L2-Pf-HR :0.95742: L2-HR :0.91450: (Sim:1h27m22s) 
CPU  0 inst:  365000004 cyc:  177666370 now IPC :2.09143: AVG IPC :2.05450: L2-Pf-HR :0.95755: L2-HR :0.91458: (Sim:1h27m39s) 
CPU  0 inst:  366000000 cyc:  178145115 now IPC :2.08879: AVG IPC :2.05459: L2-Pf-HR :0.95759: L2-HR :0.91462: (Sim:1h27m56s) 
CPU  0 inst:  367000002 cyc:  178626743 now IPC :2.07630: AVG IPC :2.05465: L2-Pf-HR :0.95774: L2-HR :0.91472: (Sim:1h28m14s) 
CPU  0 inst:  368000000 cyc:  179262889 now IPC :1.57196: AVG IPC :2.05293: L2-Pf-HR :0.95790: L2-HR :0.91476: (Sim:1h28m32s) 
CPU  0 inst:  369000001 cyc:  179746906 now IPC :2.06605: AVG IPC :2.05296: L2-Pf-HR :0.95793: L2-HR :0.91478: (Sim:1h28m49s) 
CPU  0 inst:  370000002 cyc:  180195755 now IPC :2.22792: AVG IPC :2.05340: L2-Pf-HR :0.95786: L2-HR :0.91479: (Sim:1h29m6s) 
CPU  0 inst:  371000002 cyc:  180645544 now IPC :2.22326: AVG IPC :2.05383: L2-Pf-HR :0.95780: L2-HR :0.91480: (Sim:1h29m23s) 
CPU  0 inst:  372000001 cyc:  181095604 now IPC :2.22192: AVG IPC :2.05425: L2-Pf-HR :0.95773: L2-HR :0.91480: (Sim:1h29m40s) 
CPU  0 inst:  373000000 cyc:  181546600 now IPC :2.21731: AVG IPC :2.05465: L2-Pf-HR :0.95766: L2-HR :0.91480: (Sim:1h29m57s) 
CPU  0 inst:  374000002 cyc:  182002074 now IPC :2.19552: AVG IPC :2.05501: L2-Pf-HR :0.95763: L2-HR :0.91482: (Sim:1h30m14s) 
CPU  0 inst:  375000002 cyc:  182508611 now IPC :1.97419: AVG IPC :2.05478: L2-Pf-HR :0.95768: L2-HR :0.91486: (Sim:1h30m31s) 
CPU  0 inst:  376000002 cyc:  183047052 now IPC :1.85721: AVG IPC :2.05420: L2-Pf-HR :0.95763: L2-HR :0.91477: (Sim:1h30m48s) 
CPU  0 inst:  377000002 cyc:  183492710 now IPC :2.24387: AVG IPC :2.05466: L2-Pf-HR :0.95750: L2-HR :0.91469: (Sim:1h31m5s) 
CPU  0 inst:  378000005 cyc:  183936589 now IPC :2.25287: AVG IPC :2.05514: L2-Pf-HR :0.95737: L2-HR :0.91459: (Sim:1h31m22s) 
CPU  0 inst:  379000003 cyc:  184382013 now IPC :2.24505: AVG IPC :2.05560: L2-Pf-HR :0.95725: L2-HR :0.91451: (Sim:1h31m38s) 
CPU  0 inst:  380000005 cyc:  184897251 now IPC :1.94085: AVG IPC :2.05528: L2-Pf-HR :0.95719: L2-HR :0.91436: (Sim:1h31m50s) 
CPU  0 inst:  381000003 cyc:  185470381 now IPC :1.74480: AVG IPC :2.05432: L2-Pf-HR :0.95727: L2-HR :0.91439: (Sim:1h32m8s) 
CPU  0 inst:  382000004 cyc:  185948668 now IPC :2.09080: AVG IPC :2.05441: L2-Pf-HR :0.95739: L2-HR :0.91445: (Sim:1h32m25s) 
CPU  0 inst:  383000004 cyc:  186465819 now IPC :1.93367: AVG IPC :2.05408: L2-Pf-HR :0.95740: L2-HR :0.91447: (Sim:1h32m34s) 
CPU  0 inst:  384000000 cyc:  186944310 now IPC :2.08990: AVG IPC :2.05417: L2-Pf-HR :0.95744: L2-HR :0.91450: (Sim:1h32m41s) 
CPU  0 inst:  385000002 cyc:  187422040 now IPC :2.09324: AVG IPC :2.05427: L2-Pf-HR :0.95753: L2-HR :0.91456: (Sim:1h32m49s) 
CPU  0 inst:  386000001 cyc:  187909250 now IPC :2.05250: AVG IPC :2.05426: L2-Pf-HR :0.95758: L2-HR :0.91460: (Sim:1h32m57s) 
CPU  0 inst:  387000003 cyc:  188415314 now IPC :1.97604: AVG IPC :2.05405: L2-Pf-HR :0.95771: L2-HR :0.91468: (Sim:1h33m5s) 
CPU  0 inst:  388000001 cyc:  189051299 now IPC :1.57236: AVG IPC :2.05242: L2-Pf-HR :0.95786: L2-HR :0.91471: (Sim:1h33m13s) 
CPU  0 inst:  389000000 cyc:  189518311 now IPC :2.14127: AVG IPC :2.05264: L2-Pf-HR :0.95784: L2-HR :0.91473: (Sim:1h33m21s) 
CPU  0 inst:  390000002 cyc:  189969332 now IPC :2.21720: AVG IPC :2.05304: L2-Pf-HR :0.95779: L2-HR :0.91474: (Sim:1h33m28s) 
CPU  0 inst:  391000000 cyc:  190419215 now IPC :2.22280: AVG IPC :2.05344: L2-Pf-HR :0.95771: L2-HR :0.91474: (Sim:1h33m36s) 
CPU  0 inst:  392000002 cyc:  190869214 now IPC :2.22223: AVG IPC :2.05384: L2-Pf-HR :0.95763: L2-HR :0.91474: (Sim:1h33m46s) 
CPU  0 inst:  393000000 cyc:  191318171 now IPC :2.22738: AVG IPC :2.05425: L2-Pf-HR :0.95756: L2-HR :0.91474: (Sim:1h34m2s) 
CPU  0 inst:  394000003 cyc:  191770545 now IPC :2.21057: AVG IPC :2.05462: L2-Pf-HR :0.95752: L2-HR :0.91475: (Sim:1h34m15s) 
CPU  0 inst:  395000000 cyc:  192273292 now IPC :1.98907: AVG IPC :2.05445: L2-Pf-HR :0.95759: L2-HR :0.91478: (Sim:1h34m23s) 
CPU  0 inst:  396000001 cyc:  192784814 now IPC :1.95495: AVG IPC :2.05418: L2-Pf-HR :0.95752: L2-HR :0.91470: (Sim:1h34m31s) 
CPU  0 inst:  397000000 cyc:  193230471 now IPC :2.24388: AVG IPC :2.05462: L2-Pf-HR :0.95740: L2-HR :0.91463: (Sim:1h34m39s) 
CPU  0 inst:  398000004 cyc:  193674401 now IPC :2.25262: AVG IPC :2.05508: L2-Pf-HR :0.95727: L2-HR :0.91454: (Sim:1h34m46s) 
CPU  0 inst:  399000003 cyc:  194120684 now IPC :2.24073: AVG IPC :2.05551: L2-Pf-HR :0.95715: L2-HR :0.91446: (Sim:1h34m54s) 
CPU  0 inst:  400000002 cyc:  194656594 now IPC :1.86598: AVG IPC :2.05498: L2-Pf-HR :0.95714: L2-HR :0.91432: (Sim:1h35m2s) 
CPU  0 inst:  401000004 cyc:  195216182 now IPC :1.78703: AVG IPC :2.05421: L2-Pf-HR :0.95723: L2-HR :0.91437: (Sim:1h35m10s) 
CPU  0 inst:  402000002 cyc:  195690334 now IPC :2.10902: AVG IPC :2.05434: L2-Pf-HR :0.95744: L2-HR :0.91448: (Sim:1h35m18s) 
CPU  0 inst:  403000005 cyc:  196169038 now IPC :2.08898: AVG IPC :2.05443: L2-Pf-HR :0.95744: L2-HR :0.91449: (Sim:1h35m26s) 
CPU  0 inst:  404000001 cyc:  196643997 now IPC :2.10544: AVG IPC :2.05455: L2-Pf-HR :0.95747: L2-HR :0.91453: (Sim:1h35m33s) 
CPU  0 inst:  405000004 cyc:  197119013 now IPC :2.10520: AVG IPC :2.05467: L2-Pf-HR :0.95757: L2-HR :0.91459: (Sim:1h35m41s) 
CPU  0 inst:  406000005 cyc:  197596355 now IPC :2.09494: AVG IPC :2.05477: L2-Pf-HR :0.95757: L2-HR :0.91460: (Sim:1h35m51s) 
CPU  0 inst:  407000001 cyc:  198101412 now IPC :1.97997: AVG IPC :2.05458: L2-Pf-HR :0.95765: L2-HR :0.91467: (Sim:1h36m8s) 
CPU  0 inst:  408000002 cyc:  198743345 now IPC :1.55780: AVG IPC :2.05297: L2-Pf-HR :0.95778: L2-HR :0.91469: (Sim:1h36m26s) 
CPU  0 inst:  409000001 cyc:  199214022 now IPC :2.12460: AVG IPC :2.05314: L2-Pf-HR :0.95782: L2-HR :0.91472: (Sim:1h36m43s) 
CPU  0 inst:  410000000 cyc:  199667966 now IPC :2.20291: AVG IPC :2.05348: L2-Pf-HR :0.95780: L2-HR :0.91475: (Sim:1h37m0s) 
CPU  0 inst:  411000001 cyc:  200145532 now IPC :2.09395: AVG IPC :2.05358: L2-Pf-HR :0.95774: L2-HR :0.91475: (Sim:1h37m18s) 
CPU  0 inst:  412000000 cyc:  200595475 now IPC :2.22250: AVG IPC :2.05396: L2-Pf-HR :0.95768: L2-HR :0.91474: (Sim:1h37m34s) 
CPU  0 inst:  413000000 cyc:  201045245 now IPC :2.22336: AVG IPC :2.05434: L2-Pf-HR :0.95760: L2-HR :0.91474: (Sim:1h37m50s) 
CPU  0 inst:  414000003 cyc:  201494936 now IPC :2.22376: AVG IPC :2.05472: L2-Pf-HR :0.95755: L2-HR :0.91475: (Sim:1h38m6s) 
CPU  0 inst:  415000001 cyc:  202007485 now IPC :1.95103: AVG IPC :2.05445: L2-Pf-HR :0.95756: L2-HR :0.91476: (Sim:1h38m22s) 
CPU  0 inst:  416000005 cyc:  202515785 now IPC :1.96735: AVG IPC :2.05423: L2-Pf-HR :0.95748: L2-HR :0.91468: (Sim:1h38m38s) 
CPU  0 inst:  417000001 cyc:  202961721 now IPC :2.24247: AVG IPC :2.05465: L2-Pf-HR :0.95738: L2-HR :0.91461: (Sim:1h38m54s) 
CPU  0 inst:  418000000 cyc:  203406735 now IPC :2.24712: AVG IPC :2.05507: L2-Pf-HR :0.95726: L2-HR :0.91453: (Sim:1h39m9s) 
CPU  0 inst:  419000002 cyc:  203851773 now IPC :2.24700: AVG IPC :2.05549: L2-Pf-HR :0.95715: L2-HR :0.91445: (Sim:1h39m25s) 
CPU  0 inst:  420000003 cyc:  204384689 now IPC :1.87647: AVG IPC :2.05503: L2-Pf-HR :0.95712: L2-HR :0.91432: (Sim:1h39m42s) 
CPU  0 inst:  421000004 cyc:  204944469 now IPC :1.78642: AVG IPC :2.05429: L2-Pf-HR :0.95719: L2-HR :0.91435: (Sim:1h39m59s) 
CPU  0 inst:  422000003 cyc:  205432514 now IPC :2.04899: AVG IPC :2.05428: L2-Pf-HR :0.95731: L2-HR :0.91443: (Sim:1h40m13s) 
CPU  0 inst:  423000003 cyc:  205949128 now IPC :1.93568: AVG IPC :2.05398: L2-Pf-HR :0.95732: L2-HR :0.91444: (Sim:1h40m21s) 
CPU  0 inst:  424000005 cyc:  206429697 now IPC :2.08087: AVG IPC :2.05404: L2-Pf-HR :0.95737: L2-HR :0.91450: (Sim:1h40m29s) 
CPU  0 inst:  425000004 cyc:  206911109 now IPC :2.07722: AVG IPC :2.05409: L2-Pf-HR :0.95753: L2-HR :0.91459: (Sim:1h40m37s) 
CPU  0 inst:  426000001 cyc:  207393302 now IPC :2.07385: AVG IPC :2.05414: L2-Pf-HR :0.95755: L2-HR :0.91461: (Sim:1h40m45s) 
CPU  0 inst:  427000005 cyc:  207879255 now IPC :2.05782: AVG IPC :2.05415: L2-Pf-HR :0.95762: L2-HR :0.91468: (Sim:1h40m55s) 
CPU  0 inst:  428000003 cyc:  208504173 now IPC :1.60021: AVG IPC :2.05278: L2-Pf-HR :0.95775: L2-HR :0.91470: (Sim:1h41m5s) 
CPU  0 inst:  429000005 cyc:  208980732 now IPC :2.09838: AVG IPC :2.05289: L2-Pf-HR :0.95777: L2-HR :0.91473: (Sim:1h41m13s) 
CPU  0 inst:  430000004 cyc:  209447976 now IPC :2.14021: AVG IPC :2.05308: L2-Pf-HR :0.95772: L2-HR :0.91473: (Sim:1h41m21s) 
CPU  0 inst:  431000000 cyc:  209898242 now IPC :2.22090: AVG IPC :2.05344: L2-Pf-HR :0.95765: L2-HR :0.91473: (Sim:1h41m28s) 
CPU  0 inst:  432000004 cyc:  210347150 now IPC :2.22764: AVG IPC :2.05382: L2-Pf-HR :0.95758: L2-HR :0.91473: (Sim:1h41m36s) 
CPU  0 inst:  433000003 cyc:  210796319 now IPC :2.22633: AVG IPC :2.05419: L2-Pf-HR :0.95751: L2-HR :0.91473: (Sim:1h41m44s) 
CPU  0 inst:  434000002 cyc:  211247182 now IPC :2.21797: AVG IPC :2.05454: L2-Pf-HR :0.95752: L2-HR :0.91477: (Sim:1h41m51s) 
CPU  0 inst:  435000002 cyc:  211760969 now IPC :1.94633: AVG IPC :2.05427: L2-Pf-HR :0.95753: L2-HR :0.91477: (Sim:1h41m59s) 
CPU  0 inst:  436000003 cyc:  212258185 now IPC :2.01120: AVG IPC :2.05417: L2-Pf-HR :0.95747: L2-HR :0.91470: (Sim:1h42m7s) 
CPU  0 inst:  437000002 cyc:  212725645 now IPC :2.13922: AVG IPC :2.05436: L2-Pf-HR :0.95738: L2-HR :0.91463: (Sim:1h42m15s) 
CPU  0 inst:  438000001 cyc:  213169278 now IPC :2.25411: AVG IPC :2.05478: L2-Pf-HR :0.95727: L2-HR :0.91455: (Sim:1h42m23s) 
CPU  0 inst:  439000004 cyc:  213615385 now IPC :2.24162: AVG IPC :2.05517: L2-Pf-HR :0.95716: L2-HR :0.91448: (Sim:1h42m30s) 
CPU  0 inst:  440000003 cyc:  214150767 now IPC :1.86782: AVG IPC :2.05470: L2-Pf-HR :0.95710: L2-HR :0.91435: (Sim:1h42m38s) 
CPU  0 inst:  441000003 cyc:  214707550 now IPC :1.79603: AVG IPC :2.05403: L2-Pf-HR :0.95717: L2-HR :0.91438: (Sim:1h42m46s) 
CPU  0 inst:  442000002 cyc:  215190257 now IPC :2.07165: AVG IPC :2.05407: L2-Pf-HR :0.95718: L2-HR :0.91439: (Sim:1h42m54s) 
CPU  0 inst:  443000000 cyc:  215666486 now IPC :2.09983: AVG IPC :2.05417: L2-Pf-HR :0.95718: L2-HR :0.91440: (Sim:1h43m2s) 
CPU  0 inst:  444000000 cyc:  216143465 now IPC :2.09653: AVG IPC :2.05426: L2-Pf-HR :0.95725: L2-HR :0.91446: (Sim:1h43m10s) 
CPU  0 inst:  445000004 cyc:  216626364 now IPC :2.07083: AVG IPC :2.05430: L2-Pf-HR :0.95733: L2-HR :0.91451: (Sim:1h43m18s) 
CPU  0 inst:  446000001 cyc:  217109893 now IPC :2.06812: AVG IPC :2.05433: L2-Pf-HR :0.95736: L2-HR :0.91455: (Sim:1h43m26s) 
CPU  0 inst:  447000003 cyc:  217600871 now IPC :2.03676: AVG IPC :2.05429: L2-Pf-HR :0.95751: L2-HR :0.91466: (Sim:1h43m34s) 
CPU  0 inst:  448000000 cyc:  218241244 now IPC :1.56159: AVG IPC :2.05284: L2-Pf-HR :0.95763: L2-HR :0.91467: (Sim:1h43m42s) 
CPU  0 inst:  449000003 cyc:  218726978 now IPC :2.05875: AVG IPC :2.05285: L2-Pf-HR :0.95766: L2-HR :0.91470: (Sim:1h43m50s) 
CPU  0 inst:  450000002 cyc:  219176428 now IPC :2.22494: AVG IPC :2.05320: L2-Pf-HR :0.95759: L2-HR :0.91470: (Sim:1h43m57s) 
CPU  0 inst:  451000003 cyc:  219626334 now IPC :2.22269: AVG IPC :2.05355: L2-Pf-HR :0.95752: L2-HR :0.91471: (Sim:1h44m5s) 
CPU  0 inst:  452000002 cyc:  220077002 now IPC :2.21893: AVG IPC :2.05389: L2-Pf-HR :0.95747: L2-HR :0.91471: (Sim:1h44m13s) 
CPU  0 inst:  453000001 cyc:  220526321 now IPC :2.22559: AVG IPC :2.05424: L2-Pf-HR :0.95741: L2-HR :0.91471: (Sim:1h44m21s) 
CPU  0 inst:  454000003 cyc:  220978206 now IPC :2.21296: AVG IPC :2.05457: L2-Pf-HR :0.95738: L2-HR :0.91473: (Sim:1h44m28s) 
CPU  0 inst:  455000005 cyc:  221517889 now IPC :1.85294: AVG IPC :2.05408: L2-Pf-HR :0.95747: L2-HR :0.91477: (Sim:1h44m40s) 
CPU  0 inst:  456000004 cyc:  222012072 now IPC :2.02354: AVG IPC :2.05401: L2-Pf-HR :0.95743: L2-HR :0.91470: (Sim:1h44m57s) 
CPU  0 inst:  457000000 cyc:  222458437 now IPC :2.24031: AVG IPC :2.05438: L2-Pf-HR :0.95733: L2-HR :0.91464: (Sim:1h45m14s) 
CPU  0 inst:  458000002 cyc:  222901439 now IPC :2.25733: AVG IPC :2.05479: L2-Pf-HR :0.95722: L2-HR :0.91456: (Sim:1h45m31s) 
CPU  0 inst:  459000005 cyc:  223347577 now IPC :2.24147: AVG IPC :2.05516: L2-Pf-HR :0.95712: L2-HR :0.91449: (Sim:1h45m47s) 
CPU  0 inst:  460000002 cyc:  223891021 now IPC :1.84011: AVG IPC :2.05464: L2-Pf-HR :0.95708: L2-HR :0.91437: (Sim:1h46m5s) 
CPU  0 inst:  461000004 cyc:  224460260 now IPC :1.75673: AVG IPC :2.05388: L2-Pf-HR :0.95715: L2-HR :0.91441: (Sim:1h46m22s) 
CPU  0 inst:  462000000 cyc:  224957750 now IPC :2.01008: AVG IPC :2.05378: L2-Pf-HR :0.95732: L2-HR :0.91450: (Sim:1h46m39s) 
CPU  0 inst:  463000005 cyc:  225447539 now IPC :2.04171: AVG IPC :2.05376: L2-Pf-HR :0.95736: L2-HR :0.91452: (Sim:1h46m57s) 
CPU  0 inst:  464000004 cyc:  225947991 now IPC :1.99819: AVG IPC :2.05363: L2-Pf-HR :0.95744: L2-HR :0.91457: (Sim:1h47m9s) 
CPU  0 inst:  465000003 cyc:  226443395 now IPC :2.01855: AVG IPC :2.05356: L2-Pf-HR :0.95754: L2-HR :0.91463: (Sim:1h47m17s) 
CPU  0 inst:  466000004 cyc:  226925872 now IPC :2.07264: AVG IPC :2.05360: L2-Pf-HR :0.95756: L2-HR :0.91467: (Sim:1h47m25s) 
CPU  0 inst:  467000000 cyc:  227454748 now IPC :1.89079: AVG IPC :2.05322: L2-Pf-HR :0.95768: L2-HR :0.91474: (Sim:1h47m33s) 
CPU  0 inst:  468000001 cyc:  228097142 now IPC :1.55668: AVG IPC :2.05181: L2-Pf-HR :0.95780: L2-HR :0.91476: (Sim:1h47m41s) 
CPU  0 inst:  469000005 cyc:  228585426 now IPC :2.04800: AVG IPC :2.05180: L2-Pf-HR :0.95784: L2-HR :0.91478: (Sim:1h47m49s) 
CPU  0 inst:  470000000 cyc:  229037059 now IPC :2.21418: AVG IPC :2.05213: L2-Pf-HR :0.95778: L2-HR :0.91478: (Sim:1h47m57s) 
CPU  0 inst:  471000003 cyc:  229491807 now IPC :2.19903: AVG IPC :2.05242: L2-Pf-HR :0.95774: L2-HR :0.91480: (Sim:1h48m5s) 
CPU  0 inst:  472000003 cyc:  229945661 now IPC :2.20335: AVG IPC :2.05272: L2-Pf-HR :0.95769: L2-HR :0.91480: (Sim:1h48m12s) 
CPU  0 inst:  473000001 cyc:  230398056 now IPC :2.21045: AVG IPC :2.05303: L2-Pf-HR :0.95764: L2-HR :0.91480: (Sim:1h48m20s) 
CPU  0 inst:  474000000 cyc:  230878307 now IPC :2.08224: AVG IPC :2.05309: L2-Pf-HR :0.95762: L2-HR :0.91481: (Sim:1h48m28s) 
CPU  0 inst:  475000001 cyc:  231409288 now IPC :1.88331: AVG IPC :2.05270: L2-Pf-HR :0.95765: L2-HR :0.91483: (Sim:1h48m36s) 
CPU  0 inst:  476000005 cyc:  231927035 now IPC :1.93145: AVG IPC :2.05243: L2-Pf-HR :0.95760: L2-HR :0.91476: (Sim:1h48m44s) 
CPU  0 inst:  477000002 cyc:  232372437 now IPC :2.24516: AVG IPC :2.05280: L2-Pf-HR :0.95750: L2-HR :0.91470: (Sim:1h48m51s) 
CPU  0 inst:  478000005 cyc:  232815393 now IPC :2.25757: AVG IPC :2.05319: L2-Pf-HR :0.95739: L2-HR :0.91463: (Sim:1h48m59s) 
CPU  0 inst:  479000001 cyc:  233264903 now IPC :2.22464: AVG IPC :2.05352: L2-Pf-HR :0.95731: L2-HR :0.91457: (Sim:1h49m7s) 
CPU  0 inst:  480000000 cyc:  233803891 now IPC :1.85533: AVG IPC :2.05306: L2-Pf-HR :0.95726: L2-HR :0.91445: (Sim:1h49m15s) 
CPU  0 inst:  481000005 cyc:  234375143 now IPC :1.75055: AVG IPC :2.05232: L2-Pf-HR :0.95732: L2-HR :0.91447: (Sim:1h49m23s) 
CPU  0 inst:  482000001 cyc:  234869380 now IPC :2.02331: AVG IPC :2.05226: L2-Pf-HR :0.95744: L2-HR :0.91456: (Sim:1h49m31s) 
CPU  0 inst:  483000003 cyc:  235353275 now IPC :2.06657: AVG IPC :2.05229: L2-Pf-HR :0.95748: L2-HR :0.91457: (Sim:1h49m39s) 
CPU  0 inst:  484000002 cyc:  235827819 now IPC :2.10728: AVG IPC :2.05240: L2-Pf-HR :0.95754: L2-HR :0.91462: (Sim:1h49m47s) 
CPU  0 inst:  485000001 cyc:  236317688 now IPC :2.04136: AVG IPC :2.05238: L2-Pf-HR :0.95764: L2-HR :0.91468: (Sim:1h49m54s) 
CPU  0 inst:  486000000 cyc:  236813233 now IPC :2.01798: AVG IPC :2.05231: L2-Pf-HR :0.95776: L2-HR :0.91476: (Sim:1h50m2s) 
CPU  0 inst:  487000005 cyc:  237331813 now IPC :1.92835: AVG IPC :2.05203: L2-Pf-HR :0.95791: L2-HR :0.91485: (Sim:1h50m10s) 
CPU  0 inst:  488000000 cyc:  237969255 now IPC :1.56876: AVG IPC :2.05073: L2-Pf-HR :0.95802: L2-HR :0.91487: (Sim:1h50m19s) 
CPU  0 inst:  489000001 cyc:  238450060 now IPC :2.07985: AVG IPC :2.05079: L2-Pf-HR :0.95803: L2-HR :0.91488: (Sim:1h50m27s) 
CPU  0 inst:  490000001 cyc:  238902417 now IPC :2.21064: AVG IPC :2.05110: L2-Pf-HR :0.95799: L2-HR :0.91489: (Sim:1h50m34s) 
CPU  0 inst:  491000003 cyc:  239360844 now IPC :2.18138: AVG IPC :2.05135: L2-Pf-HR :0.95796: L2-HR :0.91491: (Sim:1h50m42s) 
CPU  0 inst:  492000004 cyc:  239821609 now IPC :2.17031: AVG IPC :2.05158: L2-Pf-HR :0.95790: L2-HR :0.91490: (Sim:1h50m50s) 
CPU  0 inst:  493000000 cyc:  240277625 now IPC :2.19290: AVG IPC :2.05185: L2-Pf-HR :0.95788: L2-HR :0.91491: (Sim:1h50m58s) 
CPU  0 inst:  494000004 cyc:  240769711 now IPC :2.03217: AVG IPC :2.05181: L2-Pf-HR :0.95787: L2-HR :0.91493: (Sim:1h51m6s) 
CPU  0 inst:  495000005 cyc:  241294727 now IPC :1.90471: AVG IPC :2.05148: L2-Pf-HR :0.95789: L2-HR :0.91493: (Sim:1h51m14s) 
CPU  0 inst:  496000003 cyc:  241794572 now IPC :2.00062: AVG IPC :2.05138: L2-Pf-HR :0.95785: L2-HR :0.91487: (Sim:1h51m22s) 
CPU  0 inst:  497000002 cyc:  242239632 now IPC :2.24689: AVG IPC :2.05174: L2-Pf-HR :0.95776: L2-HR :0.91481: (Sim:1h51m29s) 
CPU  0 inst:  498000001 cyc:  242683106 now IPC :2.25492: AVG IPC :2.05211: L2-Pf-HR :0.95765: L2-HR :0.91474: (Sim:1h51m37s) 
CPU  0 inst:  499000002 cyc:  243129982 now IPC :2.23776: AVG IPC :2.05245: L2-Pf-HR :0.95755: L2-HR :0.91468: (Sim:1h51m45s) 
CPU  0 inst:  500000001 cyc:  243683723 now IPC :1.80590: AVG IPC :2.05189: L2-Pf-HR :0.95752: L2-HR :0.91457: (Sim:1h51m59s) 
CPU  0 inst:  501000003 cyc:  244242579 now IPC :1.78937: AVG IPC :2.05129: L2-Pf-HR :0.95753: L2-HR :0.91458: (Sim:1h52m16s) 
CPU  0 inst:  502000005 cyc:  244745335 now IPC :1.98904: AVG IPC :2.05116: L2-Pf-HR :0.95758: L2-HR :0.91462: (Sim:1h52m34s) 
CPU  0 inst:  503000004 cyc:  245261979 now IPC :1.93557: AVG IPC :2.05092: L2-Pf-HR :0.95758: L2-HR :0.91462: (Sim:1h52m51s) 
CPU  0 inst:  504000005 cyc:  245752648 now IPC :2.03804: AVG IPC :2.05089: L2-Pf-HR :0.95762: L2-HR :0.91464: (Sim:1h53m9s) 
CPU  0 inst:  505000002 cyc:  246230268 now IPC :2.09371: AVG IPC :2.05097: L2-Pf-HR :0.95776: L2-HR :0.91473: (Sim:1h53m26s) 
CPU  0 inst:  506000001 cyc:  246723989 now IPC :2.02543: AVG IPC :2.05092: L2-Pf-HR :0.95781: L2-HR :0.91476: (Sim:1h53m43s) 
CPU  0 inst:  507000003 cyc:  247237544 now IPC :1.94721: AVG IPC :2.05071: L2-Pf-HR :0.95794: L2-HR :0.91484: (Sim:1h54m0s) 
CPU  0 inst:  508000003 cyc:  247876516 now IPC :1.56501: AVG IPC :2.04945: L2-Pf-HR :0.95805: L2-HR :0.91486: (Sim:1h54m19s) 
CPU  0 inst:  509000003 cyc:  248355717 now IPC :2.08681: AVG IPC :2.04952: L2-Pf-HR :0.95804: L2-HR :0.91487: (Sim:1h54m30s) 
CPU  0 inst:  510000005 cyc:  248808122 now IPC :2.21041: AVG IPC :2.04982: L2-Pf-HR :0.95799: L2-HR :0.91488: (Sim:1h54m38s) 
CPU  0 inst:  511000001 cyc:  249264013 now IPC :2.19350: AVG IPC :2.05008: L2-Pf-HR :0.95795: L2-HR :0.91490: (Sim:1h54m46s) 
CPU  0 inst:  512000002 cyc:  249725566 now IPC :2.16660: AVG IPC :2.05030: L2-Pf-HR :0.95790: L2-HR :0.91490: (Sim:1h54m54s) 
CPU  0 inst:  513000004 cyc:  250179748 now IPC :2.20176: AVG IPC :2.05057: L2-Pf-HR :0.95785: L2-HR :0.91489: (Sim:1h55m2s) 
CPU  0 inst:  514000000 cyc:  250656305 now IPC :2.09838: AVG IPC :2.05066: L2-Pf-HR :0.95782: L2-HR :0.91490: (Sim:1h55m9s) 
CPU  0 inst:  515000000 cyc:  251192477 now IPC :1.86507: AVG IPC :2.05027: L2-Pf-HR :0.95787: L2-HR :0.91493: (Sim:1h55m17s) 
CPU  0 inst:  516000002 cyc:  251702596 now IPC :1.96033: AVG IPC :2.05008: L2-Pf-HR :0.95783: L2-HR :0.91487: (Sim:1h55m25s) 
CPU  0 inst:  517000000 cyc:  252147846 now IPC :2.24592: AVG IPC :2.05043: L2-Pf-HR :0.95774: L2-HR :0.91481: (Sim:1h55m33s) 
CPU  0 inst:  518000000 cyc:  252591883 now IPC :2.25206: AVG IPC :2.05079: L2-Pf-HR :0.95764: L2-HR :0.91474: (Sim:1h55m41s) 
CPU  0 inst:  519000005 cyc:  253038660 now IPC :2.23826: AVG IPC :2.05112: L2-Pf-HR :0.95755: L2-HR :0.91469: (Sim:1h55m49s) 
CPU  0 inst:  520000005 cyc:  253587994 now IPC :1.82039: AVG IPC :2.05062: L2-Pf-HR :0.95751: L2-HR :0.91458: (Sim:1h55m57s) 
CPU  0 inst:  521000003 cyc:  254147827 now IPC :1.78624: AVG IPC :2.05003: L2-Pf-HR :0.95752: L2-HR :0.91459: (Sim:1h56m5s) 
CPU  0 inst:  522000000 cyc:  254624599 now IPC :2.09743: AVG IPC :2.05012: L2-Pf-HR :0.95759: L2-HR :0.91463: (Sim:1h56m12s) 
CPU  0 inst:  523000002 cyc:  255161235 now IPC :1.86346: AVG IPC :2.04973: L2-Pf-HR :0.95759: L2-HR :0.91464: (Sim:1h56m21s) 
CPU  0 inst:  524000001 cyc:  255671302 now IPC :1.96052: AVG IPC :2.04955: L2-Pf-HR :0.95763: L2-HR :0.91467: (Sim:1h56m28s) 
CPU  0 inst:  525000003 cyc:  256169059 now IPC :2.00902: AVG IPC :2.04947: L2-Pf-HR :0.95775: L2-HR :0.91475: (Sim:1h56m36s) 
CPU  0 inst:  526000005 cyc:  256659237 now IPC :2.04008: AVG IPC :2.04945: L2-Pf-HR :0.95784: L2-HR :0.91481: (Sim:1h56m44s) 
CPU  0 inst:  527000004 cyc:  257182753 now IPC :1.91016: AVG IPC :2.04917: L2-Pf-HR :0.95791: L2-HR :0.91486: (Sim:1h56m52s) 
CPU  0 inst:  528000002 cyc:  257819928 now IPC :1.56942: AVG IPC :2.04798: L2-Pf-HR :0.95801: L2-HR :0.91487: (Sim:1h57m1s) 
CPU  0 inst:  529000005 cyc:  258314110 now IPC :2.02355: AVG IPC :2.04793: L2-Pf-HR :0.95806: L2-HR :0.91490: (Sim:1h57m9s) 
CPU  0 inst:  530000001 cyc:  258767543 now IPC :2.20539: AVG IPC :2.04821: L2-Pf-HR :0.95801: L2-HR :0.91490: (Sim:1h57m16s) 
CPU  0 inst:  531000002 cyc:  259220697 now IPC :2.20676: AVG IPC :2.04848: L2-Pf-HR :0.95798: L2-HR :0.91492: (Sim:1h57m24s) 
CPU  0 inst:  532000000 cyc:  259680079 now IPC :2.17683: AVG IPC :2.04871: L2-Pf-HR :0.95793: L2-HR :0.91492: (Sim:1h57m32s) 
CPU  0 inst:  533000002 cyc:  260137528 now IPC :2.18604: AVG IPC :2.04895: L2-Pf-HR :0.95790: L2-HR :0.91492: (Sim:1h57m40s) 
CPU  0 inst:  534000002 cyc:  260616641 now IPC :2.08719: AVG IPC :2.04902: L2-Pf-HR :0.95791: L2-HR :0.91494: (Sim:1h57m48s) 
CPU  0 inst:  535000004 cyc:  261165432 now IPC :1.82219: AVG IPC :2.04855: L2-Pf-HR :0.95793: L2-HR :0.91495: (Sim:1h57m56s) 
CPU  0 inst:  536000004 cyc:  261655677 now IPC :2.03980: AVG IPC :2.04853: L2-Pf-HR :0.95787: L2-HR :0.91489: (Sim:1h58m3s) 
CPU  0 inst:  537000004 cyc:  262100863 now IPC :2.24625: AVG IPC :2.04887: L2-Pf-HR :0.95778: L2-HR :0.91484: (Sim:1h58m11s) 
CPU  0 inst:  538000003 cyc:  262544373 now IPC :2.25474: AVG IPC :2.04922: L2-Pf-HR :0.95769: L2-HR :0.91477: (Sim:1h58m19s) 
CPU  0 inst:  539000001 cyc:  263002215 now IPC :2.18416: AVG IPC :2.04945: L2-Pf-HR :0.95765: L2-HR :0.91473: (Sim:1h58m27s) 
CPU  0 inst:  540000000 cyc:  263574360 now IPC :1.74781: AVG IPC :2.04879: L2-Pf-HR :0.95762: L2-HR :0.91462: (Sim:1h58m35s) 
CPU  0 inst:  541000002 cyc:  264113416 now IPC :1.85510: AVG IPC :2.04840: L2-Pf-HR :0.95766: L2-HR :0.91464: (Sim:1h58m43s) 
CPU  0 inst:  542000004 cyc:  264601627 now IPC :2.04830: AVG IPC :2.04840: L2-Pf-HR :0.95773: L2-HR :0.91467: (Sim:1h58m51s) 
CPU  0 inst:  543000003 cyc:  265139827 now IPC :1.85804: AVG IPC :2.04801: L2-Pf-HR :0.95776: L2-HR :0.91468: (Sim:1h58m59s) 
CPU  0 inst:  544000005 cyc:  265639537 now IPC :2.00116: AVG IPC :2.04792: L2-Pf-HR :0.95778: L2-HR :0.91469: (Sim:1h59m7s) 
CPU  0 inst:  545000002 cyc:  266125446 now IPC :2.05799: AVG IPC :2.04794: L2-Pf-HR :0.95786: L2-HR :0.91474: (Sim:1h59m14s) 
CPU  0 inst:  546000000 cyc:  266621174 now IPC :2.01723: AVG IPC :2.04788: L2-Pf-HR :0.95788: L2-HR :0.91475: (Sim:1h59m22s) 
CPU  0 inst:  547000002 cyc:  267125052 now IPC :1.98461: AVG IPC :2.04776: L2-Pf-HR :0.95790: L2-HR :0.91477: (Sim:1h59m30s) 
CPU  0 inst:  548000000 cyc:  267757071 now IPC :1.58223: AVG IPC :2.04666: L2-Pf-HR :0.95801: L2-HR :0.91479: (Sim:1h59m38s) 
CPU  0 inst:  549000005 cyc:  268212151 now IPC :2.19743: AVG IPC :2.04692: L2-Pf-HR :0.95797: L2-HR :0.91480: (Sim:1h59m46s) 
CPU  0 inst:  550000001 cyc:  268674556 now IPC :2.16260: AVG IPC :2.04712: L2-Pf-HR :0.95795: L2-HR :0.91481: (Sim:1h59m54s) 
CPU  0 inst:  551000005 cyc:  269142614 now IPC :2.13650: AVG IPC :2.04727: L2-Pf-HR :0.95790: L2-HR :0.91482: (Sim:2h0m2s) 
CPU  0 inst:  552000003 cyc:  269597330 now IPC :2.19917: AVG IPC :2.04753: L2-Pf-HR :0.95786: L2-HR :0.91483: (Sim:2h0m9s) 
CPU  0 inst:  553000000 cyc:  270049165 now IPC :2.21319: AVG IPC :2.04781: L2-Pf-HR :0.95782: L2-HR :0.91482: (Sim:2h0m17s) 
CPU  0 inst:  554000005 cyc:  270517776 now IPC :2.13398: AVG IPC :2.04796: L2-Pf-HR :0.95778: L2-HR :0.91484: (Sim:2h0m25s) 
CPU  0 inst:  555000002 cyc:  271066085 now IPC :1.82378: AVG IPC :2.04750: L2-Pf-HR :0.95787: L2-HR :0.91487: (Sim:2h0m33s) 
CPU  0 inst:  556000001 cyc:  271552078 now IPC :2.05764: AVG IPC :2.04752: L2-Pf-HR :0.95782: L2-HR :0.91482: (Sim:2h0m41s) 
CPU  0 inst:  557000002 cyc:  272014838 now IPC :2.16095: AVG IPC :2.04771: L2-Pf-HR :0.95777: L2-HR :0.91477: (Sim:2h0m49s) 
CPU  0 inst:  558000001 cyc:  272457658 now IPC :2.25825: AVG IPC :2.04806: L2-Pf-HR :0.95768: L2-HR :0.91470: (Sim:2h0m57s) 
CPU  0 inst:  559000000 cyc:  272903483 now IPC :2.24303: AVG IPC :2.04838: L2-Pf-HR :0.95760: L2-HR :0.91465: (Sim:2h1m5s) 
CPU  0 inst:  560000003 cyc:  273472829 now IPC :1.75641: AVG IPC :2.04777: L2-Pf-HR :0.95758: L2-HR :0.91456: (Sim:2h1m13s) 
CPU  0 inst:  561000003 cyc:  274022725 now IPC :1.81853: AVG IPC :2.04731: L2-Pf-HR :0.95764: L2-HR :0.91459: (Sim:2h1m20s) 
CPU  0 inst:  562000002 cyc:  274502091 now IPC :2.08609: AVG IPC :2.04737: L2-Pf-HR :0.95771: L2-HR :0.91463: (Sim:2h1m28s) 
CPU  0 inst:  563000004 cyc:  275013177 now IPC :1.95662: AVG IPC :2.04720: L2-Pf-HR :0.95775: L2-HR :0.91465: (Sim:2h1m36s) 
CPU  0 inst:  564000005 cyc:  275505103 now IPC :2.03283: AVG IPC :2.04718: L2-Pf-HR :0.95777: L2-HR :0.91466: (Sim:2h1m44s) 
CPU  0 inst:  565000003 cyc:  276009023 now IPC :1.98444: AVG IPC :2.04706: L2-Pf-HR :0.95785: L2-HR :0.91471: (Sim:2h1m52s) 
CPU  0 inst:  566000004 cyc:  276490836 now IPC :2.07550: AVG IPC :2.04711: L2-Pf-HR :0.95787: L2-HR :0.91474: (Sim:2h2m0s) 
CPU  0 inst:  567000003 cyc:  277020528 now IPC :1.88789: AVG IPC :2.04681: L2-Pf-HR :0.95797: L2-HR :0.91480: (Sim:2h2m8s) 
CPU  0 inst:  568000002 cyc:  277656311 now IPC :1.57286: AVG IPC :2.04572: L2-Pf-HR :0.95805: L2-HR :0.91480: (Sim:2h2m16s) 
CPU  0 inst:  569000003 cyc:  278140852 now IPC :2.06381: AVG IPC :2.04575: L2-Pf-HR :0.95806: L2-HR :0.91482: (Sim:2h2m24s) 
CPU  0 inst:  570000000 cyc:  278601151 now IPC :2.17249: AVG IPC :2.04596: L2-Pf-HR :0.95803: L2-HR :0.91484: (Sim:2h2m40s) 
CPU  0 inst:  571000001 cyc:  279062988 now IPC :2.16527: AVG IPC :2.04616: L2-Pf-HR :0.95800: L2-HR :0.91485: (Sim:2h2m57s) 
CPU  0 inst:  572000000 cyc:  279527760 now IPC :2.15159: AVG IPC :2.04633: L2-Pf-HR :0.95796: L2-HR :0.91485: (Sim:2h3m13s) 
CPU  0 inst:  573000001 cyc:  279979599 now IPC :2.21318: AVG IPC :2.04660: L2-Pf-HR :0.95791: L2-HR :0.91485: (Sim:2h3m30s) 
CPU  0 inst:  574000001 cyc:  280446886 now IPC :2.14001: AVG IPC :2.04676: L2-Pf-HR :0.95790: L2-HR :0.91487: (Sim:2h3m46s) 
CPU  0 inst:  575000002 cyc:  281011788 now IPC :1.77022: AVG IPC :2.04620: L2-Pf-HR :0.95796: L2-HR :0.91489: (Sim:2h4m4s) 
CPU  0 inst:  576000005 cyc:  281517168 now IPC :1.97872: AVG IPC :2.04608: L2-Pf-HR :0.95794: L2-HR :0.91484: (Sim:2h4m15s) 
CPU  0 inst:  577000000 cyc:  281962043 now IPC :2.24781: AVG IPC :2.04640: L2-Pf-HR :0.95786: L2-HR :0.91479: (Sim:2h4m23s) 
CPU  0 inst:  578000000 cyc:  282406055 now IPC :2.25219: AVG IPC :2.04673: L2-Pf-HR :0.95777: L2-HR :0.91472: (Sim:2h4m31s) 
CPU  0 inst:  579000000 cyc:  282853520 now IPC :2.23481: AVG IPC :2.04702: L2-Pf-HR :0.95770: L2-HR :0.91467: (Sim:2h4m38s) 
CPU  0 inst:  580000005 cyc:  283415169 now IPC :1.78048: AVG IPC :2.04649: L2-Pf-HR :0.95767: L2-HR :0.91458: (Sim:2h4m47s) 
CPU  0 inst:  581000003 cyc:  283963662 now IPC :1.82317: AVG IPC :2.04606: L2-Pf-HR :0.95771: L2-HR :0.91460: (Sim:2h4m55s) 
CPU  0 inst:  582000000 cyc:  284452871 now IPC :2.04411: AVG IPC :2.04606: L2-Pf-HR :0.95776: L2-HR :0.91465: (Sim:2h5m3s) 
CPU  0 inst:  583000004 cyc:  284972085 now IPC :1.92600: AVG IPC :2.04584: L2-Pf-HR :0.95777: L2-HR :0.91466: (Sim:2h5m11s) 
CPU  0 inst:  584000004 cyc:  285475508 now IPC :1.98640: AVG IPC :2.04573: L2-Pf-HR :0.95785: L2-HR :0.91472: (Sim:2h5m19s) 
CPU  0 inst:  585000000 cyc:  285963192 now IPC :2.05050: AVG IPC :2.04574: L2-Pf-HR :0.95796: L2-HR :0.91478: (Sim:2h5m27s) 
CPU  0 inst:  586000005 cyc:  286453819 now IPC :2.03822: AVG IPC :2.04573: L2-Pf-HR :0.95799: L2-HR :0.91482: (Sim:2h5m35s) 
CPU  0 inst:  587000001 cyc:  286948266 now IPC :2.02245: AVG IPC :2.04569: L2-Pf-HR :0.95809: L2-HR :0.91487: (Sim:2h5m43s) 
CPU  0 inst:  588000000 cyc:  287572322 now IPC :1.60242: AVG IPC :2.04472: L2-Pf-HR :0.95817: L2-HR :0.91488: (Sim:2h5m51s) 
CPU  0 inst:  589000001 cyc:  288036839 now IPC :2.15278: AVG IPC :2.04490: L2-Pf-HR :0.95816: L2-HR :0.91489: (Sim:2h5m59s) 
CPU  0 inst:  590000002 cyc:  288488777 now IPC :2.21270: AVG IPC :2.04516: L2-Pf-HR :0.95812: L2-HR :0.91489: (Sim:2h6m7s) 
CPU  0 inst:  591000004 cyc:  288948613 now IPC :2.17469: AVG IPC :2.04537: L2-Pf-HR :0.95809: L2-HR :0.91490: (Sim:2h6m17s) 
CPU  0 inst:  592000004 cyc:  289410083 now IPC :2.16699: AVG IPC :2.04556: L2-Pf-HR :0.95805: L2-HR :0.91491: (Sim:2h6m33s) 
CPU  0 inst:  593000005 cyc:  289861582 now IPC :2.21485: AVG IPC :2.04583: L2-Pf-HR :0.95800: L2-HR :0.91491: (Sim:2h6m48s) 
CPU  0 inst:  594000001 cyc:  290350286 now IPC :2.04622: AVG IPC :2.04583: L2-Pf-HR :0.95800: L2-HR :0.91492: (Sim:2h7m4s) 
CPU  0 inst:  595000001 cyc:  290899461 now IPC :1.82091: AVG IPC :2.04540: L2-Pf-HR :0.95802: L2-HR :0.91493: (Sim:2h7m14s) 
CPU  0 inst:  596000003 cyc:  291402448 now IPC :1.98813: AVG IPC :2.04530: L2-Pf-HR :0.95800: L2-HR :0.91487: (Sim:2h7m22s) 
CPU  0 inst:  597000001 cyc:  291847279 now IPC :2.24804: AVG IPC :2.04561: L2-Pf-HR :0.95792: L2-HR :0.91483: (Sim:2h7m29s) 
CPU  0 inst:  598000004 cyc:  292292356 now IPC :2.24681: AVG IPC :2.04592: L2-Pf-HR :0.95784: L2-HR :0.91476: (Sim:2h7m37s) 
CPU  0 inst:  599000005 cyc:  292739999 now IPC :2.23393: AVG IPC :2.04621: L2-Pf-HR :0.95776: L2-HR :0.91472: (Sim:2h7m45s) 
CPU  0 inst:  600000002 cyc:  293302398 now IPC :1.77809: AVG IPC :2.04569: L2-Pf-HR :0.95773: L2-HR :0.91463: (Sim:2h7m53s) 
CPU  0 inst:  601000002 cyc:  293848716 now IPC :1.83044: AVG IPC :2.04529: L2-Pf-HR :0.95779: L2-HR :0.91465: (Sim:2h8m1s) 
CPU  0 inst:  602000004 cyc:  294344087 now IPC :2.01869: AVG IPC :2.04525: L2-Pf-HR :0.95793: L2-HR :0.91474: (Sim:2h8m16s) 
CPU  0 inst:  603000003 cyc:  294829481 now IPC :2.06018: AVG IPC :2.04527: L2-Pf-HR :0.95794: L2-HR :0.91474: (Sim:2h8m33s) 
CPU  0 inst:  604000005 cyc:  295308044 now IPC :2.08959: AVG IPC :2.04534: L2-Pf-HR :0.95796: L2-HR :0.91477: (Sim:2h8m51s) 
CPU  0 inst:  605000004 cyc:  295797083 now IPC :2.04482: AVG IPC :2.04534: L2-Pf-HR :0.95798: L2-HR :0.91479: (Sim:2h9m8s) 
CPU  0 inst:  606000003 cyc:  296277113 now IPC :2.08320: AVG IPC :2.04540: L2-Pf-HR :0.95802: L2-HR :0.91482: (Sim:2h9m25s) 
CPU  0 inst:  607000002 cyc:  296760347 now IPC :2.06939: AVG IPC :2.04544: L2-Pf-HR :0.95804: L2-HR :0.91485: (Sim:2h9m42s) 
CPU  0 inst:  608000000 cyc:  297396556 now IPC :1.57181: AVG IPC :2.04443: L2-Pf-HR :0.95811: L2-HR :0.91486: (Sim:2h9m53s) 
CPU  0 inst:  609000003 cyc:  297877010 now IPC :2.08137: AVG IPC :2.04449: L2-Pf-HR :0.95812: L2-HR :0.91487: (Sim:2h10m1s) 
CPU  0 inst:  610000001 cyc:  298329564 now IPC :2.20968: AVG IPC :2.04474: L2-Pf-HR :0.95808: L2-HR :0.91487: (Sim:2h10m9s) 
CPU  0 inst:  611000003 cyc:  298783204 now IPC :2.20440: AVG IPC :2.04498: L2-Pf-HR :0.95804: L2-HR :0.91488: (Sim:2h10m17s) 
CPU  0 inst:  612000000 cyc:  299236741 now IPC :2.20489: AVG IPC :2.04522: L2-Pf-HR :0.95801: L2-HR :0.91489: (Sim:2h10m24s) 
CPU  0 inst:  613000003 cyc:  299692780 now IPC :2.19280: AVG IPC :2.04545: L2-Pf-HR :0.95798: L2-HR :0.91489: (Sim:2h10m32s) 
CPU  0 inst:  614000002 cyc:  300157428 now IPC :2.15216: AVG IPC :2.04562: L2-Pf-HR :0.95794: L2-HR :0.91490: (Sim:2h10m40s) 
CPU  0 inst:  615000002 cyc:  300712645 now IPC :1.80110: AVG IPC :2.04516: L2-Pf-HR :0.95801: L2-HR :0.91493: (Sim:2h10m48s) 
CPU  0 inst:  616000005 cyc:  301208118 now IPC :2.01828: AVG IPC :2.04512: L2-Pf-HR :0.95797: L2-HR :0.91488: (Sim:2h10m56s) 
CPU  0 inst:  617000000 cyc:  301653663 now IPC :2.24443: AVG IPC :2.04541: L2-Pf-HR :0.95790: L2-HR :0.91484: (Sim:2h11m4s) 
CPU  0 inst:  618000005 cyc:  302097893 now IPC :2.25110: AVG IPC :2.04572: L2-Pf-HR :0.95782: L2-HR :0.91477: (Sim:2h11m11s) 
CPU  0 inst:  619000001 cyc:  302544923 now IPC :2.23698: AVG IPC :2.04600: L2-Pf-HR :0.95774: L2-HR :0.91473: (Sim:2h11m19s) 
CPU  0 inst:  620000004 cyc:  303107467 now IPC :1.77764: AVG IPC :2.04550: L2-Pf-HR :0.95770: L2-HR :0.91464: (Sim:2h11m27s) 
CPU  0 inst:  621000003 cyc:  303646901 now IPC :1.85379: AVG IPC :2.04516: L2-Pf-HR :0.95775: L2-HR :0.91466: (Sim:2h11m35s) 
CPU  0 inst:  622000004 cyc:  304126977 now IPC :2.08301: AVG IPC :2.04522: L2-Pf-HR :0.95785: L2-HR :0.91473: (Sim:2h11m43s) 
CPU  0 inst:  623000001 cyc:  304613929 now IPC :2.05358: AVG IPC :2.04523: L2-Pf-HR :0.95790: L2-HR :0.91476: (Sim:2h11m51s) 
CPU  0 inst:  624000003 cyc:  305128088 now IPC :1.94493: AVG IPC :2.04506: L2-Pf-HR :0.95795: L2-HR :0.91479: (Sim:2h11m59s) 
CPU  0 inst:  625000005 cyc:  305625588 now IPC :2.01005: AVG IPC :2.04501: L2-Pf-HR :0.95800: L2-HR :0.91483: (Sim:2h12m7s) 
[...]
CPU  0 inst: 1511000001 cyc: 1601580568 now IPC :2.03371: AVG IPC :0.94277: L2-Pf-HR :0.97191: L2-HR :0.89192: (Sim:6h16m8s) 
CPU  0 inst: 1512000005 cyc: 1602187080 now IPC :1.64878: AVG IPC :0.94304: L2-Pf-HR :0.97191: L2-HR :0.89193: (Sim:6h16m19s) 
CPU  0 inst: 1513000005 cyc: 1602710678 now IPC :1.90986: AVG IPC :0.94336: L2-Pf-HR :0.97194: L2-HR :0.89201: (Sim:6h16m34s) 
CPU  0 inst: 1514000001 cyc: 1603249679 now IPC :1.85528: AVG IPC :0.94366: L2-Pf-HR :0.97196: L2-HR :0.89207: (Sim:6h16m51s) 
CPU  0 inst: 1515000004 cyc: 1603810368 now IPC :1.78353: AVG IPC :0.94396: L2-Pf-HR :0.97199: L2-HR :0.89213: (Sim:6h17m8s) 
CPU  0 inst: 1516000002 cyc: 1604343413 now IPC :1.87601: AVG IPC :0.94427: L2-Pf-HR :0.97201: L2-HR :0.89219: (Sim:6h17m26s) 
CPU  0 inst: 1517000002 cyc: 1604812021 now IPC :2.13398: AVG IPC :0.94461: L2-Pf-HR :0.97205: L2-HR :0.89229: (Sim:6h17m43s) 
CPU  0 inst: 1518000000 cyc: 1605327194 now IPC :1.94109: AVG IPC :0.94493: L2-Pf-HR :0.97207: L2-HR :0.89235: (Sim:6h18m0s) 
CPU  0 inst: 1519000005 cyc: 1605836410 now IPC :1.96381: AVG IPC :0.94526: L2-Pf-HR :0.97209: L2-HR :0.89243: (Sim:6h18m17s) 
CPU  0 inst: 1520000001 cyc: 1606352993 now IPC :1.93579: AVG IPC :0.94558: L2-Pf-HR :0.97212: L2-HR :0.89249: (Sim:6h18m34s) 
CPU  0 inst: 1521000002 cyc: 1606807496 now IPC :2.20021: AVG IPC :0.94593: L2-Pf-HR :0.97215: L2-HR :0.89258: (Sim:6h18m51s) 
CPU  0 inst: 1522000001 cyc: 1607331636 now IPC :1.90789: AVG IPC :0.94624: L2-Pf-HR :0.97217: L2-HR :0.89265: (Sim:6h19m8s) 
CPU  0 inst: 1523000001 cyc: 1607835949 now IPC :1.98290: AVG IPC :0.94657: L2-Pf-HR :0.97220: L2-HR :0.89274: (Sim:6h19m25s) 
CPU  0 inst: 1524000003 cyc: 1608351714 now IPC :1.93887: AVG IPC :0.94689: L2-Pf-HR :0.97222: L2-HR :0.89280: (Sim:6h19m42s) 
CPU  0 inst: 1525000000 cyc: 1608805705 now IPC :2.20268: AVG IPC :0.94724: L2-Pf-HR :0.97225: L2-HR :0.89289: (Sim:6h19m59s) 
CPU  0 inst: 1526000001 cyc: 1609327967 now IPC :1.91475: AVG IPC :0.94756: L2-Pf-HR :0.97227: L2-HR :0.89296: (Sim:6h20m17s) 
CPU  0 inst: 1527000000 cyc: 1609821522 now IPC :2.02611: AVG IPC :0.94789: L2-Pf-HR :0.97230: L2-HR :0.89305: (Sim:6h20m33s) 
CPU  0 inst: 1528000004 cyc: 1610304792 now IPC :2.06924: AVG IPC :0.94822: L2-Pf-HR :0.97233: L2-HR :0.89313: (Sim:6h20m50s) 
CPU  0 inst: 1529000002 cyc: 1610802639 now IPC :2.00865: AVG IPC :0.94855: L2-Pf-HR :0.97235: L2-HR :0.89319: (Sim:6h21m8s) 
CPU  0 inst: 1530000003 cyc: 1611328776 now IPC :1.90065: AVG IPC :0.94886: L2-Pf-HR :0.97237: L2-HR :0.89326: (Sim:6h21m25s) 
CPU  0 inst: 1531000005 cyc: 1611789206 now IPC :2.17189: AVG IPC :0.94921: L2-Pf-HR :0.97241: L2-HR :0.89336: (Sim:6h21m42s) 
CPU  0 inst: 1532000000 cyc: 1612280971 now IPC :2.03348: AVG IPC :0.94954: L2-Pf-HR :0.97243: L2-HR :0.89343: (Sim:6h21m58s) 
CPU  0 inst: 1533000003 cyc: 1612797890 now IPC :1.93454: AVG IPC :0.94986: L2-Pf-HR :0.97245: L2-HR :0.89349: (Sim:6h22m16s) 
CPU  0 inst: 1534000002 cyc: 1613392184 now IPC :1.68267: AVG IPC :0.95013: L2-Pf-HR :0.97246: L2-HR :0.89349: (Sim:6h22m34s) 
CPU  0 inst: 1535000002 cyc: 1613870754 now IPC :2.08956: AVG IPC :0.95047: L2-Pf-HR :0.97249: L2-HR :0.89358: (Sim:6h22m51s) 
CPU  0 inst: 1536000005 cyc: 1614457029 now IPC :1.70569: AVG IPC :0.95074: L2-Pf-HR :0.97251: L2-HR :0.89363: (Sim:6h23m9s) 
CPU  0 inst: 1537000002 cyc: 1615022377 now IPC :1.76882: AVG IPC :0.95103: L2-Pf-HR :0.97254: L2-HR :0.89369: (Sim:6h23m26s) 
CPU  0 inst: 1538000005 cyc: 1615556419 now IPC :1.87252: AVG IPC :0.95133: L2-Pf-HR :0.97255: L2-HR :0.89374: (Sim:6h23m43s) 
CPU  0 inst: 1539000005 cyc: 1616010342 now IPC :2.20302: AVG IPC :0.95169: L2-Pf-HR :0.97259: L2-HR :0.89383: (Sim:6h24m0s) 
CPU  0 inst: 1540000003 cyc: 1616540815 now IPC :1.88511: AVG IPC :0.95199: L2-Pf-HR :0.97261: L2-HR :0.89390: (Sim:6h24m17s) 
CPU  0 inst: 1541000004 cyc: 1617054598 now IPC :1.94635: AVG IPC :0.95231: L2-Pf-HR :0.97264: L2-HR :0.89398: (Sim:6h24m34s) 
CPU  0 inst: 1542000003 cyc: 1617572098 now IPC :1.93237: AVG IPC :0.95262: L2-Pf-HR :0.97266: L2-HR :0.89404: (Sim:6h24m52s) 
CPU  0 inst: 1543000001 cyc: 1618025398 now IPC :2.20604: AVG IPC :0.95297: L2-Pf-HR :0.97269: L2-HR :0.89413: (Sim:6h25m8s) 
CPU  0 inst: 1544000005 cyc: 1618549862 now IPC :1.90672: AVG IPC :0.95328: L2-Pf-HR :0.97271: L2-HR :0.89419: (Sim:6h25m21s) 
CPU  0 inst: 1545000000 cyc: 1619044064 now IPC :2.02345: AVG IPC :0.95361: L2-Pf-HR :0.97274: L2-HR :0.89428: (Sim:6h25m29s) 
CPU  0 inst: 1546000004 cyc: 1619528161 now IPC :2.06571: AVG IPC :0.95394: L2-Pf-HR :0.97277: L2-HR :0.89437: (Sim:6h25m37s) 
CPU  0 inst: 1547000005 cyc: 1620033042 now IPC :1.98067: AVG IPC :0.95426: L2-Pf-HR :0.97279: L2-HR :0.89441: (Sim:6h25m45s) 
CPU  0 inst: 1548000000 cyc: 1620560105 now IPC :1.89730: AVG IPC :0.95457: L2-Pf-HR :0.97281: L2-HR :0.89448: (Sim:6h25m53s) 
CPU  0 inst: 1549000003 cyc: 1621019854 now IPC :2.17511: AVG IPC :0.95492: L2-Pf-HR :0.97284: L2-HR :0.89458: (Sim:6h26m1s) 
CPU  0 inst: 1550000002 cyc: 1621515895 now IPC :2.01596: AVG IPC :0.95524: L2-Pf-HR :0.97286: L2-HR :0.89465: (Sim:6h26m9s) 
CPU  0 inst: 1551000003 cyc: 1622034591 now IPC :1.92791: AVG IPC :0.95555: L2-Pf-HR :0.97288: L2-HR :0.89471: (Sim:6h26m17s) 
CPU  0 inst: 1552000003 cyc: 1622561149 now IPC :1.89913: AVG IPC :0.95586: L2-Pf-HR :0.97290: L2-HR :0.89477: (Sim:6h26m26s) 
CPU  0 inst: 1553000005 cyc: 1623008967 now IPC :2.23305: AVG IPC :0.95621: L2-Pf-HR :0.97293: L2-HR :0.89486: (Sim:6h26m33s) 
CPU  0 inst: 1554000004 cyc: 1623516784 now IPC :1.96921: AVG IPC :0.95653: L2-Pf-HR :0.97295: L2-HR :0.89493: (Sim:6h26m41s) 
CPU  0 inst: 1555000001 cyc: 1624036534 now IPC :1.92400: AVG IPC :0.95684: L2-Pf-HR :0.97298: L2-HR :0.89499: (Sim:6h26m49s) 
CPU  0 inst: 1556000002 cyc: 1624635030 now IPC :1.67086: AVG IPC :0.95710: L2-Pf-HR :0.97298: L2-HR :0.89500: (Sim:6h26m58s) 
CPU  0 inst: 1557000000 cyc: 1625106249 now IPC :2.12215: AVG IPC :0.95744: L2-Pf-HR :0.97301: L2-HR :0.89507: (Sim:6h27m6s) 
CPU  0 inst: 1558000003 cyc: 1625700729 now IPC :1.68215: AVG IPC :0.95770: L2-Pf-HR :0.97303: L2-HR :0.89512: (Sim:6h27m14s) 
CPU  0 inst: 1559000003 cyc: 1626261525 now IPC :1.78318: AVG IPC :0.95799: L2-Pf-HR :0.97305: L2-HR :0.89519: (Sim:6h27m22s) 
CPU  0 inst: 1560000005 cyc: 1626801461 now IPC :1.85208: AVG IPC :0.95829: L2-Pf-HR :0.97307: L2-HR :0.89523: (Sim:6h27m30s) 
CPU  0 inst: 1561000001 cyc: 1627256178 now IPC :2.19916: AVG IPC :0.95863: L2-Pf-HR :0.97310: L2-HR :0.89532: (Sim:6h27m38s) 
CPU  0 inst: 1562000002 cyc: 1627785462 now IPC :1.88935: AVG IPC :0.95894: L2-Pf-HR :0.97313: L2-HR :0.89538: (Sim:6h27m45s) 
CPU  0 inst: 1563000000 cyc: 1628273703 now IPC :2.04816: AVG IPC :0.95926: L2-Pf-HR :0.97316: L2-HR :0.89548: (Sim:6h27m53s) 
CPU  0 inst: 1564000005 cyc: 1628765089 now IPC :2.03507: AVG IPC :0.95959: L2-Pf-HR :0.97318: L2-HR :0.89555: (Sim:6h28m1s) 
CPU  0 inst: 1565000001 cyc: 1629279566 now IPC :1.94371: AVG IPC :0.95990: L2-Pf-HR :0.97320: L2-HR :0.89559: (Sim:6h28m9s) 
CPU  0 inst: 1566000002 cyc: 1629793122 now IPC :1.94721: AVG IPC :0.96021: L2-Pf-HR :0.97322: L2-HR :0.89566: (Sim:6h28m17s) 
CPU  0 inst: 1567000000 cyc: 1630250419 now IPC :2.18676: AVG IPC :0.96055: L2-Pf-HR :0.97326: L2-HR :0.89576: (Sim:6h28m25s) 
CPU  0 inst: 1568000003 cyc: 1630753605 now IPC :1.98734: AVG IPC :0.96087: L2-Pf-HR :0.97328: L2-HR :0.89582: (Sim:6h28m33s) 
CPU  0 inst: 1569000000 cyc: 1631282897 now IPC :1.88931: AVG IPC :0.96117: L2-Pf-HR :0.97330: L2-HR :0.89588: (Sim:6h28m41s) 
CPU  0 inst: 1570000001 cyc: 1631813339 now IPC :1.88522: AVG IPC :0.96147: L2-Pf-HR :0.97331: L2-HR :0.89594: (Sim:6h28m49s) 
CPU  0 inst: 1571000002 cyc: 1632260160 now IPC :2.23803: AVG IPC :0.96182: L2-Pf-HR :0.97334: L2-HR :0.89603: (Sim:6h29m2s) 
CPU  0 inst: 1572000000 cyc: 1632770788 now IPC :1.95837: AVG IPC :0.96213: L2-Pf-HR :0.97336: L2-HR :0.89610: (Sim:6h29m19s) 
CPU  0 inst: 1573000002 cyc: 1633294487 now IPC :1.90950: AVG IPC :0.96244: L2-Pf-HR :0.97338: L2-HR :0.89615: (Sim:6h29m36s) 
CPU  0 inst: 1574000005 cyc: 1633817328 now IPC :1.91263: AVG IPC :0.96274: L2-Pf-HR :0.97340: L2-HR :0.89621: (Sim:6h29m54s) 
CPU  0 inst: 1575000005 cyc: 1634263831 now IPC :2.23963: AVG IPC :0.96309: L2-Pf-HR :0.97343: L2-HR :0.89630: (Sim:6h30m10s) 
CPU  0 inst: 1576000001 cyc: 1634771707 now IPC :1.96898: AVG IPC :0.96340: L2-Pf-HR :0.97346: L2-HR :0.89637: (Sim:6h30m26s) 
CPU  0 inst: 1577000001 cyc: 1635277858 now IPC :1.97570: AVG IPC :0.96372: L2-Pf-HR :0.97348: L2-HR :0.89644: (Sim:6h30m44s) 
CPU  0 inst: 1578000005 cyc: 1635872229 now IPC :1.68246: AVG IPC :0.96398: L2-Pf-HR :0.97349: L2-HR :0.89645: (Sim:6h31m1s) 
CPU  0 inst: 1579000003 cyc: 1636372721 now IPC :1.99803: AVG IPC :0.96429: L2-Pf-HR :0.97351: L2-HR :0.89651: (Sim:6h31m18s) 
CPU  0 inst: 1580000000 cyc: 1636977045 now IPC :1.65474: AVG IPC :0.96455: L2-Pf-HR :0.97353: L2-HR :0.89656: (Sim:6h31m36s) 
CPU  0 inst: 1581000003 cyc: 1637475950 now IPC :2.00440: AVG IPC :0.96487: L2-Pf-HR :0.97356: L2-HR :0.89664: (Sim:6h31m45s) 
CPU  0 inst: 1582000003 cyc: 1638014748 now IPC :1.85598: AVG IPC :0.96516: L2-Pf-HR :0.97358: L2-HR :0.89670: (Sim:6h31m53s) 
CPU  0 inst: 1583000005 cyc: 1638532009 now IPC :1.93326: AVG IPC :0.96547: L2-Pf-HR :0.97361: L2-HR :0.89674: (Sim:6h32m2s) 
CPU  0 inst: 1584000000 cyc: 1639063140 now IPC :1.88277: AVG IPC :0.96576: L2-Pf-HR :0.97362: L2-HR :0.89680: (Sim:6h32m10s) 
CPU  0 inst: 1585000001 cyc: 1639519865 now IPC :2.18950: AVG IPC :0.96610: L2-Pf-HR :0.97365: L2-HR :0.89689: (Sim:6h32m17s) 
CPU  0 inst: 1586000003 cyc: 1640021903 now IPC :1.99189: AVG IPC :0.96642: L2-Pf-HR :0.97368: L2-HR :0.89695: (Sim:6h32m25s) 
CPU  0 inst: 1587000005 cyc: 1640551019 now IPC :1.88995: AVG IPC :0.96672: L2-Pf-HR :0.97370: L2-HR :0.89701: (Sim:6h32m33s) 
CPU  0 inst: 1588000004 cyc: 1641084336 now IPC :1.87506: AVG IPC :0.96701: L2-Pf-HR :0.97372: L2-HR :0.89707: (Sim:6h32m41s) 
CPU  0 inst: 1589000001 cyc: 1641532278 now IPC :2.23243: AVG IPC :0.96736: L2-Pf-HR :0.97375: L2-HR :0.89715: (Sim:6h32m49s) 
CPU  0 inst: 1590000000 cyc: 1642046168 now IPC :1.94594: AVG IPC :0.96766: L2-Pf-HR :0.97378: L2-HR :0.89722: (Sim:6h32m56s) 
CPU  0 inst: 1591000001 cyc: 1642575277 now IPC :1.88997: AVG IPC :0.96796: L2-Pf-HR :0.97380: L2-HR :0.89727: (Sim:6h33m5s) 
CPU  0 inst: 1592000001 cyc: 1643110078 now IPC :1.86985: AVG IPC :0.96826: L2-Pf-HR :0.97382: L2-HR :0.89733: (Sim:6h33m13s) 
CPU  0 inst: 1593000000 cyc: 1643557965 now IPC :2.23270: AVG IPC :0.96860: L2-Pf-HR :0.97384: L2-HR :0.89742: (Sim:6h33m20s) 
CPU  0 inst: 1594000005 cyc: 1644069996 now IPC :1.95302: AVG IPC :0.96891: L2-Pf-HR :0.97387: L2-HR :0.89749: (Sim:6h33m28s) 
CPU  0 inst: 1595000005 cyc: 1644597147 now IPC :1.89699: AVG IPC :0.96920: L2-Pf-HR :0.97389: L2-HR :0.89753: (Sim:6h33m36s) 
CPU  0 inst: 1596000005 cyc: 1645072496 now IPC :2.10372: AVG IPC :0.96953: L2-Pf-HR :0.97392: L2-HR :0.89763: (Sim:6h33m44s) 
CPU  0 inst: 1597000002 cyc: 1645574723 now IPC :1.99113: AVG IPC :0.96984: L2-Pf-HR :0.97393: L2-HR :0.89768: (Sim:6h33m52s) 
CPU  0 inst: 1598000003 cyc: 1646083608 now IPC :1.96508: AVG IPC :0.97015: L2-Pf-HR :0.97395: L2-HR :0.89775: (Sim:6h34m0s) 
CPU  0 inst: 1599000002 cyc: 1646572632 now IPC :2.04489: AVG IPC :0.97047: L2-Pf-HR :0.97398: L2-HR :0.89782: (Sim:6h34m7s) 
CPU  0 inst: 1600000001 cyc: 1647072119 now IPC :2.00205: AVG IPC :0.97078: L2-Pf-HR :0.97399: L2-HR :0.89786: (Sim:6h34m15s) 
CPU  0 inst: 1601000000 cyc: 1647665550 now IPC :1.68511: AVG IPC :0.97104: L2-Pf-HR :0.97401: L2-HR :0.89788: (Sim:6h34m24s) 
CPU  0 inst: 1602000002 cyc: 1648270208 now IPC :1.65383: AVG IPC :0.97129: L2-Pf-HR :0.97402: L2-HR :0.89792: (Sim:6h34m32s) 
CPU  0 inst: 1603000000 cyc: 1648737112 now IPC :2.14176: AVG IPC :0.97162: L2-Pf-HR :0.97405: L2-HR :0.89799: (Sim:6h34m40s) 
CPU  0 inst: 1604000000 cyc: 1649292327 now IPC :1.80110: AVG IPC :0.97190: L2-Pf-HR :0.97407: L2-HR :0.89805: (Sim:6h34m48s) 
CPU  0 inst: 1605000000 cyc: 1649816953 now IPC :1.90612: AVG IPC :0.97220: L2-Pf-HR :0.97409: L2-HR :0.89810: (Sim:6h34m56s) 
CPU  0 inst: 1606000003 cyc: 1650354219 now IPC :1.86128: AVG IPC :0.97249: L2-Pf-HR :0.97411: L2-HR :0.89815: (Sim:6h35m4s) 
CPU  0 inst: 1607000003 cyc: 1650801133 now IPC :2.23757: AVG IPC :0.97283: L2-Pf-HR :0.97414: L2-HR :0.89824: (Sim:6h35m12s) 
CPU  0 inst: 1608000001 cyc: 1651316710 now IPC :1.93957: AVG IPC :0.97314: L2-Pf-HR :0.97416: L2-HR :0.89831: (Sim:6h35m19s) 
CPU  0 inst: 1609000001 cyc: 1651844375 now IPC :1.89514: AVG IPC :0.97343: L2-Pf-HR :0.97418: L2-HR :0.89836: (Sim:6h35m28s) 
CPU  0 inst: 1610000000 cyc: 1652380456 now IPC :1.86539: AVG IPC :0.97372: L2-Pf-HR :0.97420: L2-HR :0.89841: (Sim:6h35m36s) 
CPU  0 inst: 1611000001 cyc: 1652830109 now IPC :2.22394: AVG IPC :0.97406: L2-Pf-HR :0.97423: L2-HR :0.89849: (Sim:6h35m44s) 
CPU  0 inst: 1612000002 cyc: 1653346038 now IPC :1.93825: AVG IPC :0.97436: L2-Pf-HR :0.97425: L2-HR :0.89856: (Sim:6h35m51s) 
CPU  0 inst: 1613000002 cyc: 1653872609 now IPC :1.89908: AVG IPC :0.97466: L2-Pf-HR :0.97428: L2-HR :0.89861: (Sim:6h36m0s) 
CPU  0 inst: 1614000003 cyc: 1654349174 now IPC :2.09835: AVG IPC :0.97498: L2-Pf-HR :0.97431: L2-HR :0.89870: (Sim:6h36m8s) 
CPU  0 inst: 1615000003 cyc: 1654859372 now IPC :1.96002: AVG IPC :0.97528: L2-Pf-HR :0.97432: L2-HR :0.89875: (Sim:6h36m16s) 
CPU  0 inst: 1616000005 cyc: 1655376583 now IPC :1.93345: AVG IPC :0.97558: L2-Pf-HR :0.97435: L2-HR :0.89882: (Sim:6h36m23s) 
CPU  0 inst: 1617000000 cyc: 1655899311 now IPC :1.91303: AVG IPC :0.97588: L2-Pf-HR :0.97437: L2-HR :0.89886: (Sim:6h36m32s) 
CPU  0 inst: 1618000004 cyc: 1656356819 now IPC :2.18576: AVG IPC :0.97621: L2-Pf-HR :0.97439: L2-HR :0.89894: (Sim:6h36m40s) 
CPU  0 inst: 1619000003 cyc: 1656878439 now IPC :1.91710: AVG IPC :0.97651: L2-Pf-HR :0.97441: L2-HR :0.89900: (Sim:6h36m47s) 
Finished CPU 0 instr: 1617000002 cyc: 1655897525 AVG IPC: 0.97651 (Sim time: 6h36m47s)

ChampSim completed all CPUs

[ROI Statistics]
Core_0_instructions 1617000002
Core_0_cycles 1655897525
Core_0_IPC 0.97651

Core_0_branch_prediction_accuracy 99.26547
Core_0_branch_MPKI 0.21633
Core_0_average_ROB_occupancy_at_mispredict 611.57935

Core_0_L1D_total_access 426336429
Core_0_L1D_total_hit 396535371 L1D_total_Hit Ratio: 0.93010
Core_0_L1D_total_miss 29801058
Core_0_L1D_loads 382417241
Core_0_L1D_load_hit 354861116 L1D_load_Hit Ratio: 0.92794
Core_0_L1D_load_miss 27556125
Core_0_L1D_RFOs 43919188
Core_0_L1D_RFO_hit 41674255 L1D_RFO_Hit Ratio: 0.94888
Core_0_L1D_RFO_miss 2244933
Core_0_L1D_prefetches 0
Core_0_L1D_prefetch_hit 0 L1D_prefetch_Hit Ratio: -nan
Core_0_L1D_prefetch_miss 0
Core_0_L1D_writebacks 0
Core_0_L1D_writeback_hit 0 L1D_writeback_Hit Ratio: -nan
Core_0_L1D_writeback_miss 0
Core_0_L1D_prefetch_requested 0
Core_0_L1D_prefetch_issued 0
Core_0_L1D_prefetch_useful 0 L1D_Useful Ratio: -nan
Core_0_L1D_prefetch_useless 0
Core_0_L1D_prefetch_late 0
Core_0_L1D_average_miss_latency 86.04801

Core_0_L1I_total_access 246168459
Core_0_L1I_total_hit 246166548 L1I_total_Hit Ratio: 0.99999
Core_0_L1I_total_miss 1911
Core_0_L1I_loads 246168459
Core_0_L1I_load_hit 246166548 L1I_load_Hit Ratio: 0.99999
Core_0_L1I_load_miss 1911
Core_0_L1I_RFOs 0
Core_0_L1I_RFO_hit 0 L1I_RFO_Hit Ratio: -nan
Core_0_L1I_RFO_miss 0
Core_0_L1I_prefetches 0
Core_0_L1I_prefetch_hit 0 L1I_prefetch_Hit Ratio: -nan
Core_0_L1I_prefetch_miss 0
Core_0_L1I_writebacks 0
Core_0_L1I_writeback_hit 0 L1I_writeback_Hit Ratio: -nan
Core_0_L1I_writeback_miss 0
Core_0_L1I_prefetch_requested 0
Core_0_L1I_prefetch_issued 0
Core_0_L1I_prefetch_useful 0 L1I_Useful Ratio: -nan
Core_0_L1I_prefetch_useless 0
Core_0_L1I_prefetch_late 0
Core_0_L1I_average_miss_latency 267.79540

Core_0_L2C_total_access 113257464
Core_0_L2C_total_hit 101818568 L2C_total_Hit Ratio: 0.89900
Core_0_L2C_total_miss 11438896
Core_0_L2C_loads 27557982
Core_0_L2C_load_hit 20073545 L2C_load_Hit Ratio: 0.72841
Core_0_L2C_load_miss 7484437
Core_0_L2C_RFOs 2244933
Core_0_L2C_RFO_hit 146822 L2C_RFO_Hit Ratio: 0.06540
Core_0_L2C_RFO_miss 2098111
Core_0_L2C_prefetches 72554414
Core_0_L2C_prefetch_hit 70698071 L2C_prefetch_Hit Ratio: 0.97441
Core_0_L2C_prefetch_miss 1856343
Core_0_L2C_writebacks 10900135
Core_0_L2C_writeback_hit 10900130 L2C_writeback_Hit Ratio: 1.00000
Core_0_L2C_writeback_miss 5
Core_0_L2C_prefetch_requested 158990692
Core_0_L2C_prefetch_issued 149319595
Core_0_L2C_prefetch_useful 1810865 L2C_Useful Ratio: 0.01213
Core_0_L2C_prefetch_useless 46489
Core_0_L2C_prefetch_late 1878150
Core_0_L2C_average_miss_latency 191.19564

Core_0_LLC_total_access 41554554
Core_0_LLC_total_hit 30354599 LLC_total_Hit Ratio: 0.73048
Core_0_LLC_total_miss 11199955
Core_0_LLC_loads 5606319
Core_0_LLC_load_hit 3006707 LLC_load_Hit Ratio: 0.53631
Core_0_LLC_load_miss 2599612
Core_0_LLC_RFOs 2098111
Core_0_LLC_RFO_hit 503 LLC_RFO_Hit Ratio: 0.00024
Core_0_LLC_RFO_miss 2097608
Core_0_LLC_prefetches 27326518
Core_0_LLC_prefetch_hit 20880479 LLC_prefetch_Hit Ratio: 0.76411
Core_0_LLC_prefetch_miss 6446039
Core_0_LLC_writebacks 6523606
Core_0_LLC_writeback_hit 6466910 LLC_writeback_Hit Ratio: 0.99131
Core_0_LLC_writeback_miss 56696
Core_0_LLC_prefetch_requested 0
Core_0_LLC_prefetch_issued 0
Core_0_LLC_prefetch_useful 2843348 LLC_Useful Ratio: inf
Core_0_LLC_prefetch_useless 3573232
Core_0_LLC_prefetch_late 1514466
Core_0_LLC_average_miss_latency 281.33939

Core_0_major_page_fault 0
Core_0_minor_page_fault 76848

 All Calls: 27592158
 Critical Calls: 27592158
------------------
Depth Distribution
------------------
depth 0: 0
depth 1: 23546002
depth 2: 22435361
depth 3: 20654924
depth 4: 17474022
depth 5: 13870655
depth 6: 12361795
depth 7: 11127837
depth 8: 9151717
depth 9: 7270347
depth 10: 5303141
depth 11: 3241921
depth 12: 1754156
depth 13: 727782
depth 14: 202314
depth 15: 196961
depth 16: 658
depth 17: 0
depth 18: 1
depth 19: 1
depth 20: 0
depth 21: 0
depth 22: 0
depth 23: 0
depth 24: 0
depth 25: 0
depth 26: 0
depth 27: 0
depth 28: 0
depth 29: 0
Total: 149319595
-----------------------------
-----------------------------
	Captured at Filter
-----------------------------
depth 0: 0
depth 1: 1307037
depth 2: 1229450
depth 3: 1171096
depth 4: 940091
depth 5: 667841
depth 6: 566013
depth 7: 490474
depth 8: 388706
depth 9: 301529
depth 10: 200561
depth 11: 110125
depth 12: 46976
depth 13: 10839
depth 14: 1080
depth 15: 1020
depth 16: 7
depth 17: 1
depth 18: 0
depth 19: 0
depth 20: 0
depth 21: 0
depth 22: 0
depth 23: 0
depth 24: 0
depth 25: 0
depth 26: 0
depth 27: 0
depth 28: 0
depth 29: 0
-----------------------------
-----------------------------
		Lost at Page
-----------------------------
depth 0: 0
depth 1: 577304
depth 2: 975072
depth 3: 1269489
depth 4: 1471812
depth 5: 1501515
depth 6: 1641444
depth 7: 1748282
depth 8: 1645476
depth 9: 1510644
depth 10: 1230509
depth 11: 827841
depth 12: 464519
depth 13: 195022
depth 14: 56905
depth 15: 60823
depth 16: 58
depth 17: 3
depth 18: 3
depth 19: 3
depth 20: 0
depth 21: 0
depth 22: 0
depth 23: 0
depth 24: 0
depth 25: 0
depth 26: 0
depth 27: 0
depth 28: 0
depth 29: 0
-----------------------------
-----------------------------
	Lost due to PQ Size
-----------------------------
9671097
-----------------------------
ST read accesses: 25692768
ST write accesses: 1865214
PT read accesses: 1040255923
PT write accesses: 36414637
FILTER read accesses: 205259102
FILTER write accesses: 42131289
GHR read accesses: 99148076
GHR write accesses: 15165397
GHR counter read accesses: 886818228
GHR counter write accesses: 59367095
ST tag read accesses: 11552519631
ST tag write accesses: 543078066
Channel_0_RQ_row_buffer_hit 5911127
Channel_0_RQ_row_buffer_miss 5232132
Channel_0_WQ_row_buffer_hit 2513460
Channel_0_WQ_row_buffer_miss 3939853
Channel_0_WQ_full 7357
Channel_0_dbus_congested 8747869

avg_congested_cycle 8

EzSearch AVG IPC :0.97651: L2-Pf-HR :0.97441 : L2-HR :0.89900 Uful:0.01213
     > Finished combination: TraceType=770-tot Sim:1617000000 Prefetcher=L2spp_berti_src L1=no
