TRACE: [1183000000][GPT-Neo-1_3B]_[h16][s1024][d128] Warmup: 2000000 NumTraces: 1183000000
L1:next_line:L2:029-TOPTOP-L2-MultiMarkovDelta_ip_stride_v3
*************************************************
   ChampSim Multicore Out-of-Order Simulator
   Last compiled: Oct 21 2024 08:08:41
*************************************************

trace_0 770-tot_memTraces_v3/memTraces[1183000000][GPT-Neo-1_3B]_[h16][s1024][d128].champsim.xz
CPU 0 L1D next line prefetcher
MK1: Size: 256 TMAX: 64 TMIN: 32 MKPTHRESH: 12
MK2: Size: 256 TMAX: 32 TMIN: 16 MKPTHRESH: 30
MK3: Size: 256 TMAX: 16 TMIN: 0 MKPTHRESH: 40
MK4: Size: 32 TMAX: 4 TMIN: 0 MKPTHRESH: 0
Stride Size: 64 Prefetch Degree: 14

CPU 0 L2C prefetcher
MAIN.cc ln 751 stats print skipped
CPU 0 L2C prefetcher initialized


Cache Size: 512
number of cache lines: 8192
CPU  0 inst:    1000000 cyc:     502544 now IPC :1.98988: AVG IPC :1.98988: L2-Pf-HR :0.82365: L2-HR :0.79838: (Sim:0h0m4s) 
CPU  0 inst:    2000003 cyc:     979622 now IPC :2.09610: AVG IPC :2.04161: L2-Pf-HR :0.85907: L2-HR :0.83503: (Sim:0h0m9s) 

Warmup complete CPU  0 instructions:    2000003 cycles:     979622 (Simulation time: 0 hr 0 min 9 sec) 

CPU  0 inst:    3000000 cyc:    1549618 now IPC :1.75439: AVG IPC :1.75439: L2-Pf-HR :0.90531: L2-HR :0.88150: (Sim:0h0m13s) 
CPU  0 inst:    4000000 cyc:    2120282 now IPC :1.75234: AVG IPC :1.75337: L2-Pf-HR :0.90867: L2-HR :0.88521: (Sim:0h0m17s) 
CPU  0 inst:    5000003 cyc:    2692311 now IPC :1.74817: AVG IPC :1.75163: L2-Pf-HR :0.90911: L2-HR :0.88583: (Sim:0h0m21s) 
CPU  0 inst:    6000001 cyc:    3274278 now IPC :1.71831: AVG IPC :1.74318: L2-Pf-HR :0.90972: L2-HR :0.88667: (Sim:0h0m26s) 
CPU  0 inst:    7000000 cyc:    3854878 now IPC :1.72235: AVG IPC :1.73897: L2-Pf-HR :0.90944: L2-HR :0.88653: (Sim:0h0m30s) 
CPU  0 inst:    8000000 cyc:    4436893 now IPC :1.71817: AVG IPC :1.73547: L2-Pf-HR :0.90887: L2-HR :0.88601: (Sim:0h0m34s) 
CPU  0 inst:    9000000 cyc:    5018179 now IPC :1.72032: AVG IPC :1.73329: L2-Pf-HR :0.90900: L2-HR :0.88612: (Sim:0h0m38s) 
CPU  0 inst:   10000000 cyc:    5612158 now IPC :1.68356: AVG IPC :1.72692: L2-Pf-HR :0.90987: L2-HR :0.88688: (Sim:0h0m42s) 
CPU  0 inst:   11000000 cyc:    6210288 now IPC :1.67188: AVG IPC :1.72062: L2-Pf-HR :0.90938: L2-HR :0.88623: (Sim:0h0m47s) 
CPU  0 inst:   12000000 cyc:    6807656 now IPC :1.67401: AVG IPC :1.71584: L2-Pf-HR :0.91231: L2-HR :0.88868: (Sim:0h0m51s) 
CPU  0 inst:   13000003 cyc:    7612593 now IPC :1.24234: AVG IPC :1.65838: L2-Pf-HR :0.90818: L2-HR :0.88498: (Sim:0h0m55s) 
CPU  0 inst:   14000002 cyc:    8175591 now IPC :1.77620: AVG IPC :1.66760: L2-Pf-HR :0.90786: L2-HR :0.88475: (Sim:0h0m59s) 
CPU  0 inst:   15000000 cyc:    8732850 now IPC :1.79449: AVG IPC :1.67672: L2-Pf-HR :0.90825: L2-HR :0.88519: (Sim:0h1m4s) 
CPU  0 inst:   16000000 cyc:    9297890 now IPC :1.76979: AVG IPC :1.68304: L2-Pf-HR :0.90972: L2-HR :0.88671: (Sim:0h1m8s) 
CPU  0 inst:   17000000 cyc:    9863987 now IPC :1.76648: AVG IPC :1.68836: L2-Pf-HR :0.91093: L2-HR :0.88801: (Sim:0h1m12s) 
CPU  0 inst:   18000003 cyc:   10436215 now IPC :1.74756: AVG IPC :1.69194: L2-Pf-HR :0.91192: L2-HR :0.88912: (Sim:0h1m16s) 
CPU  0 inst:   19000001 cyc:   11002261 now IPC :1.76664: AVG IPC :1.69616: L2-Pf-HR :0.91262: L2-HR :0.88991: (Sim:0h1m20s) 
CPU  0 inst:   20000000 cyc:   11563691 now IPC :1.78116: AVG IPC :1.70067: L2-Pf-HR :0.91274: L2-HR :0.89002: (Sim:0h1m24s) 
CPU  0 inst:   21000003 cyc:   12125363 now IPC :1.78040: AVG IPC :1.70469: L2-Pf-HR :0.91318: L2-HR :0.89048: (Sim:0h1m28s) 
CPU  0 inst:   22000000 cyc:   12682666 now IPC :1.79435: AVG IPC :1.70896: L2-Pf-HR :0.91399: L2-HR :0.89132: (Sim:0h1m33s) 
CPU  0 inst:   23000000 cyc:   13236981 now IPC :1.80403: AVG IPC :1.71326: L2-Pf-HR :0.91495: L2-HR :0.89226: (Sim:0h1m37s) 
CPU  0 inst:   24000000 cyc:   13932750 now IPC :1.43726: AVG IPC :1.69843: L2-Pf-HR :0.91540: L2-HR :0.89266: (Sim:0h1m41s) 
CPU  0 inst:   25000001 cyc:   14514168 now IPC :1.71993: AVG IPC :1.69936: L2-Pf-HR :0.91556: L2-HR :0.89278: (Sim:0h1m45s) 
CPU  0 inst:   26000002 cyc:   15074837 now IPC :1.78359: AVG IPC :1.70271: L2-Pf-HR :0.91603: L2-HR :0.89328: (Sim:0h1m49s) 
CPU  0 inst:   27000001 cyc:   15638609 now IPC :1.77376: AVG IPC :1.70544: L2-Pf-HR :0.91674: L2-HR :0.89402: (Sim:0h1m54s) 
CPU  0 inst:   28000000 cyc:   16197870 now IPC :1.78807: AVG IPC :1.70847: L2-Pf-HR :0.91710: L2-HR :0.89442: (Sim:0h1m58s) 
CPU  0 inst:   29000003 cyc:   16760006 now IPC :1.77893: AVG IPC :1.71098: L2-Pf-HR :0.91733: L2-HR :0.89463: (Sim:0h2m2s) 
CPU  0 inst:   30000000 cyc:   17327455 now IPC :1.76227: AVG IPC :1.71277: L2-Pf-HR :0.91770: L2-HR :0.89498: (Sim:0h2m6s) 
CPU  0 inst:   31000002 cyc:   17892137 now IPC :1.77091: AVG IPC :1.71471: L2-Pf-HR :0.91837: L2-HR :0.89565: (Sim:0h2m10s) 
CPU  0 inst:   32000000 cyc:   18696427 now IPC :1.24333: AVG IPC :1.69331: L2-Pf-HR :0.91718: L2-HR :0.89453: (Sim:0h2m15s) 
CPU  0 inst:   33000002 cyc:   19293880 now IPC :1.67378: AVG IPC :1.69267: L2-Pf-HR :0.91673: L2-HR :0.89396: (Sim:0h2m19s) 
CPU  0 inst:   34000000 cyc:   19874528 now IPC :1.72221: AVG IPC :1.69358: L2-Pf-HR :0.91639: L2-HR :0.89359: (Sim:0h2m23s) 
CPU  0 inst:   35000003 cyc:   20451745 now IPC :1.73246: AVG IPC :1.69473: L2-Pf-HR :0.91628: L2-HR :0.89348: (Sim:0h2m27s) 
CPU  0 inst:   36000000 cyc:   21042853 now IPC :1.69173: AVG IPC :1.69464: L2-Pf-HR :0.91619: L2-HR :0.89335: (Sim:0h2m31s) 
CPU  0 inst:   37000000 cyc:   21630784 now IPC :1.70088: AVG IPC :1.69482: L2-Pf-HR :0.91612: L2-HR :0.89327: (Sim:0h2m34s) 
CPU  0 inst:   38000000 cyc:   22213100 now IPC :1.71728: AVG IPC :1.69544: L2-Pf-HR :0.91592: L2-HR :0.89307: (Sim:0h2m37s) 
CPU  0 inst:   39000000 cyc:   22805970 now IPC :1.68671: AVG IPC :1.69520: L2-Pf-HR :0.91581: L2-HR :0.89295: (Sim:0h2m41s) 
CPU  0 inst:   40000000 cyc:   23389542 now IPC :1.71358: AVG IPC :1.69568: L2-Pf-HR :0.91564: L2-HR :0.89275: (Sim:0h2m45s) 
CPU  0 inst:   41000000 cyc:   23983830 now IPC :1.68269: AVG IPC :1.69534: L2-Pf-HR :0.91560: L2-HR :0.89269: (Sim:0h2m49s) 
CPU  0 inst:   42000002 cyc:   24581780 now IPC :1.67238: AVG IPC :1.69476: L2-Pf-HR :0.91557: L2-HR :0.89262: (Sim:0h2m54s) 
CPU  0 inst:   43000002 cyc:   25167950 now IPC :1.70599: AVG IPC :1.69503: L2-Pf-HR :0.91568: L2-HR :0.89267: (Sim:0h2m58s) 
CPU  0 inst:   44000000 cyc:   25986943 now IPC :1.22101: AVG IPC :1.67951: L2-Pf-HR :0.91496: L2-HR :0.89196: (Sim:0h3m3s) 
CPU  0 inst:   45000003 cyc:   26566900 now IPC :1.72427: AVG IPC :1.68052: L2-Pf-HR :0.91496: L2-HR :0.89192: (Sim:0h3m7s) 
CPU  0 inst:   46000002 cyc:   27130949 now IPC :1.77289: AVG IPC :1.68251: L2-Pf-HR :0.91509: L2-HR :0.89207: (Sim:0h3m12s) 
CPU  0 inst:   47000003 cyc:   27688440 now IPC :1.79375: AVG IPC :1.68484: L2-Pf-HR :0.91523: L2-HR :0.89224: (Sim:0h3m16s) 
CPU  0 inst:   48000000 cyc:   28251008 now IPC :1.77756: AVG IPC :1.68675: L2-Pf-HR :0.91543: L2-HR :0.89245: (Sim:0h3m21s) 
CPU  0 inst:   49000000 cyc:   28816781 now IPC :1.76749: AVG IPC :1.68839: L2-Pf-HR :0.91559: L2-HR :0.89264: (Sim:0h3m25s) 
CPU  0 inst:   50000002 cyc:   29383446 now IPC :1.76471: AVG IPC :1.68991: L2-Pf-HR :0.91564: L2-HR :0.89273: (Sim:0h3m29s) 
CPU  0 inst:   51000002 cyc:   29943797 now IPC :1.78460: AVG IPC :1.69175: L2-Pf-HR :0.91563: L2-HR :0.89273: (Sim:0h3m34s) 
CPU  0 inst:   52000000 cyc:   30504343 now IPC :1.78397: AVG IPC :1.69350: L2-Pf-HR :0.91571: L2-HR :0.89281: (Sim:0h3m38s) 
CPU  0 inst:   53000001 cyc:   31069562 now IPC :1.76923: AVG IPC :1.69492: L2-Pf-HR :0.91592: L2-HR :0.89304: (Sim:0h3m42s) 
CPU  0 inst:   54000001 cyc:   31630250 now IPC :1.78352: AVG IPC :1.69654: L2-Pf-HR :0.91608: L2-HR :0.89321: (Sim:0h3m46s) 
CPU  0 inst:   55000000 cyc:   32185784 now IPC :1.80007: AVG IPC :1.69838: L2-Pf-HR :0.91653: L2-HR :0.89362: (Sim:0h3m50s) 
CPU  0 inst:   56000000 cyc:   32906659 now IPC :1.38720: AVG IPC :1.69136: L2-Pf-HR :0.91643: L2-HR :0.89352: (Sim:0h3m55s) 
CPU  0 inst:   57000000 cyc:   33478539 now IPC :1.74862: AVG IPC :1.69236: L2-Pf-HR :0.91652: L2-HR :0.89358: (Sim:0h3m59s) 
CPU  0 inst:   58000000 cyc:   34047005 now IPC :1.75912: AVG IPC :1.69351: L2-Pf-HR :0.91680: L2-HR :0.89387: (Sim:0h4m3s) 
CPU  0 inst:   59000003 cyc:   34616766 now IPC :1.75513: AVG IPC :1.69456: L2-Pf-HR :0.91708: L2-HR :0.89415: (Sim:0h4m7s) 
CPU  0 inst:   60000000 cyc:   35186595 now IPC :1.75491: AVG IPC :1.69556: L2-Pf-HR :0.91728: L2-HR :0.89437: (Sim:0h4m11s) 
CPU  0 inst:   61000001 cyc:   35750821 now IPC :1.77234: AVG IPC :1.69681: L2-Pf-HR :0.91749: L2-HR :0.89458: (Sim:0h4m15s) 
CPU  0 inst:   62000001 cyc:   36313283 now IPC :1.77790: AVG IPC :1.69810: L2-Pf-HR :0.91775: L2-HR :0.89485: (Sim:0h4m20s) 
CPU  0 inst:   63000001 cyc:   36876006 now IPC :1.77707: AVG IPC :1.69934: L2-Pf-HR :0.91807: L2-HR :0.89514: (Sim:0h4m23s) 
CPU  0 inst:   64000000 cyc:   37698425 now IPC :1.21592: AVG IPC :1.68851: L2-Pf-HR :0.91705: L2-HR :0.89413: (Sim:0h4m26s) 
CPU  0 inst:   65000000 cyc:   38275685 now IPC :1.73232: AVG IPC :1.68919: L2-Pf-HR :0.91678: L2-HR :0.89384: (Sim:0h4m31s) 
CPU  0 inst:   66000001 cyc:   38853274 now IPC :1.73134: AVG IPC :1.68983: L2-Pf-HR :0.91668: L2-HR :0.89373: (Sim:0h4m35s) 
CPU  0 inst:   67000001 cyc:   39436127 now IPC :1.71570: AVG IPC :1.69022: L2-Pf-HR :0.91670: L2-HR :0.89375: (Sim:0h4m39s) 
CPU  0 inst:   68000000 cyc:   40015219 now IPC :1.72684: AVG IPC :1.69076: L2-Pf-HR :0.91655: L2-HR :0.89360: (Sim:0h4m43s) 
CPU  0 inst:   69000002 cyc:   40604295 now IPC :1.69758: AVG IPC :1.69087: L2-Pf-HR :0.91643: L2-HR :0.89349: (Sim:0h4m48s) 
CPU  0 inst:   70000002 cyc:   41197790 now IPC :1.68493: AVG IPC :1.69078: L2-Pf-HR :0.91628: L2-HR :0.89335: (Sim:0h4m52s) 
CPU  0 inst:   71000003 cyc:   41782281 now IPC :1.71089: AVG IPC :1.69107: L2-Pf-HR :0.91618: L2-HR :0.89324: (Sim:0h4m56s) 
CPU  0 inst:   72000000 cyc:   42384388 now IPC :1.66083: AVG IPC :1.69063: L2-Pf-HR :0.91609: L2-HR :0.89314: (Sim:0h5m1s) 
CPU  0 inst:   73000003 cyc:   42976242 now IPC :1.68961: AVG IPC :1.69061: L2-Pf-HR :0.91607: L2-HR :0.89312: (Sim:0h5m5s) 
CPU  0 inst:   74000003 cyc:   43578988 now IPC :1.65907: AVG IPC :1.69017: L2-Pf-HR :0.91587: L2-HR :0.89290: (Sim:0h5m9s) 
CPU  0 inst:   75000002 cyc:   44172166 now IPC :1.68583: AVG IPC :1.69011: L2-Pf-HR :0.91620: L2-HR :0.89317: (Sim:0h5m14s) 
CPU  0 inst:   76000000 cyc:   44988819 now IPC :1.22451: AVG IPC :1.68147: L2-Pf-HR :0.91559: L2-HR :0.89261: (Sim:0h5m18s) 
CPU  0 inst:   77000003 cyc:   45558524 now IPC :1.75530: AVG IPC :1.68241: L2-Pf-HR :0.91567: L2-HR :0.89269: (Sim:0h5m22s) 
CPU  0 inst:   78000001 cyc:   46123986 now IPC :1.76846: AVG IPC :1.68349: L2-Pf-HR :0.91574: L2-HR :0.89277: (Sim:0h5m27s) 
CPU  0 inst:   79000003 cyc:   46691187 now IPC :1.76305: AVG IPC :1.68448: L2-Pf-HR :0.91589: L2-HR :0.89293: (Sim:0h5m31s) 
CPU  0 inst:   80000000 cyc:   47257839 now IPC :1.76475: AVG IPC :1.68546: L2-Pf-HR :0.91610: L2-HR :0.89315: (Sim:0h5m35s) 
CPU  0 inst:   81000003 cyc:   47824197 now IPC :1.76567: AVG IPC :1.68643: L2-Pf-HR :0.91624: L2-HR :0.89331: (Sim:0h5m39s) 
CPU  0 inst:   82000002 cyc:   48388052 now IPC :1.77350: AVG IPC :1.68746: L2-Pf-HR :0.91630: L2-HR :0.89340: (Sim:0h5m43s) 
CPU  0 inst:   83000003 cyc:   48949319 now IPC :1.78168: AVG IPC :1.68857: L2-Pf-HR :0.91630: L2-HR :0.89340: (Sim:0h5m48s) 
CPU  0 inst:   84000000 cyc:   49512032 now IPC :1.77710: AVG IPC :1.68959: L2-Pf-HR :0.91634: L2-HR :0.89343: (Sim:0h5m52s) 
CPU  0 inst:   85000003 cyc:   50075815 now IPC :1.77374: AVG IPC :1.69056: L2-Pf-HR :0.91649: L2-HR :0.89359: (Sim:0h5m56s) 
CPU  0 inst:   86000000 cyc:   50639284 now IPC :1.77472: AVG IPC :1.69151: L2-Pf-HR :0.91670: L2-HR :0.89381: (Sim:0h6m0s) 
CPU  0 inst:   87000003 cyc:   51299693 now IPC :1.51422: AVG IPC :1.68919: L2-Pf-HR :0.91677: L2-HR :0.89388: (Sim:0h6m5s) 
CPU  0 inst:   88000000 cyc:   51919479 now IPC :1.61346: AVG IPC :1.68827: L2-Pf-HR :0.91689: L2-HR :0.89397: (Sim:0h6m9s) 
CPU  0 inst:   89000003 cyc:   52491278 now IPC :1.74887: AVG IPC :1.68894: L2-Pf-HR :0.91708: L2-HR :0.89416: (Sim:0h6m13s) 
CPU  0 inst:   90000003 cyc:   53060224 now IPC :1.75764: AVG IPC :1.68969: L2-Pf-HR :0.91728: L2-HR :0.89436: (Sim:0h6m17s) 
CPU  0 inst:   91000001 cyc:   53625943 now IPC :1.76766: AVG IPC :1.69053: L2-Pf-HR :0.91751: L2-HR :0.89460: (Sim:0h6m22s) 
CPU  0 inst:   92000000 cyc:   54191511 now IPC :1.76813: AVG IPC :1.69135: L2-Pf-HR :0.91769: L2-HR :0.89478: (Sim:0h6m26s) 
CPU  0 inst:   93000001 cyc:   54760120 now IPC :1.75868: AVG IPC :1.69206: L2-Pf-HR :0.91783: L2-HR :0.89493: (Sim:0h6m30s) 
CPU  0 inst:   94000000 cyc:   55321206 now IPC :1.78226: AVG IPC :1.69299: L2-Pf-HR :0.91803: L2-HR :0.89512: (Sim:0h6m34s) 
CPU  0 inst:   95000003 cyc:   56093452 now IPC :1.29493: AVG IPC :1.68742: L2-Pf-HR :0.91767: L2-HR :0.89478: (Sim:0h6m39s) 
CPU  0 inst:   96000000 cyc:   56729524 now IPC :1.57214: AVG IPC :1.68610: L2-Pf-HR :0.91741: L2-HR :0.89450: (Sim:0h6m43s) 
CPU  0 inst:   97000002 cyc:   57310944 now IPC :1.71993: AVG IPC :1.68645: L2-Pf-HR :0.91730: L2-HR :0.89439: (Sim:0h6m46s) 
CPU  0 inst:   98000001 cyc:   57902870 now IPC :1.68940: AVG IPC :1.68648: L2-Pf-HR :0.91720: L2-HR :0.89429: (Sim:0h6m49s) 
CPU  0 inst:   99000000 cyc:   58483149 now IPC :1.72331: AVG IPC :1.68685: L2-Pf-HR :0.91716: L2-HR :0.89424: (Sim:0h6m53s) 
CPU  0 inst:  100000000 cyc:   59060168 now IPC :1.73305: AVG IPC :1.68731: L2-Pf-HR :0.91711: L2-HR :0.89419: (Sim:0h6m56s) 
CPU  0 inst:  101000003 cyc:   59647059 now IPC :1.70390: AVG IPC :1.68748: L2-Pf-HR :0.91700: L2-HR :0.89409: (Sim:0h6m59s) 
CPU  0 inst:  102000003 cyc:   60232402 now IPC :1.70840: AVG IPC :1.68768: L2-Pf-HR :0.91692: L2-HR :0.89402: (Sim:0h7m2s) 
CPU  0 inst:  103000000 cyc:   60825513 now IPC :1.68602: AVG IPC :1.68767: L2-Pf-HR :0.91680: L2-HR :0.89389: (Sim:0h7m6s) 
CPU  0 inst:  104000000 cyc:   61413347 now IPC :1.70116: AVG IPC :1.68780: L2-Pf-HR :0.91671: L2-HR :0.89379: (Sim:0h7m10s) 
CPU  0 inst:  105000002 cyc:   62010064 now IPC :1.67584: AVG IPC :1.68768: L2-Pf-HR :0.91672: L2-HR :0.89379: (Sim:0h7m14s) 
CPU  0 inst:  106000003 cyc:   62591649 now IPC :1.71944: AVG IPC :1.68798: L2-Pf-HR :0.91667: L2-HR :0.89373: (Sim:0h7m18s) 
CPU  0 inst:  107000002 cyc:   63401630 now IPC :1.23460: AVG IPC :1.68210: L2-Pf-HR :0.91642: L2-HR :0.89348: (Sim:0h7m22s) 
CPU  0 inst:  108000000 cyc:   64001090 now IPC :1.66816: AVG IPC :1.68197: L2-Pf-HR :0.91643: L2-HR :0.89347: (Sim:0h7m25s) 
CPU  0 inst:  109000002 cyc:   64567286 now IPC :1.76618: AVG IPC :1.68272: L2-Pf-HR :0.91648: L2-HR :0.89351: (Sim:0h7m28s) 
CPU  0 inst:  110000001 cyc:   65136491 now IPC :1.75683: AVG IPC :1.68337: L2-Pf-HR :0.91660: L2-HR :0.89363: (Sim:0h7m32s) 
CPU  0 inst:  111000000 cyc:   65706231 now IPC :1.75518: AVG IPC :1.68401: L2-Pf-HR :0.91670: L2-HR :0.89374: (Sim:0h7m36s) 
CPU  0 inst:  112000000 cyc:   66280627 now IPC :1.74096: AVG IPC :1.68451: L2-Pf-HR :0.91684: L2-HR :0.89388: (Sim:0h7m40s) 
CPU  0 inst:  113000001 cyc:   66845678 now IPC :1.76975: AVG IPC :1.68524: L2-Pf-HR :0.91695: L2-HR :0.89400: (Sim:0h7m45s) 
CPU  0 inst:  114000002 cyc:   67407982 now IPC :1.77840: AVG IPC :1.68603: L2-Pf-HR :0.91701: L2-HR :0.89408: (Sim:0h7m49s) 
CPU  0 inst:  115000003 cyc:   67973875 now IPC :1.76712: AVG IPC :1.68671: L2-Pf-HR :0.91707: L2-HR :0.89413: (Sim:0h7m53s) 
CPU  0 inst:  116000000 cyc:   68542551 now IPC :1.75847: AVG IPC :1.68732: L2-Pf-HR :0.91717: L2-HR :0.89423: (Sim:0h7m55s) 
CPU  0 inst:  117000003 cyc:   69113336 now IPC :1.75198: AVG IPC :1.68786: L2-Pf-HR :0.91730: L2-HR :0.89437: (Sim:0h7m58s) 
CPU  0 inst:  118000000 cyc:   69678567 now IPC :1.76918: AVG IPC :1.68853: L2-Pf-HR :0.91746: L2-HR :0.89452: (Sim:0h8m1s) 
CPU  0 inst:  119000000 cyc:   70388628 now IPC :1.40833: AVG IPC :1.68566: L2-Pf-HR :0.91750: L2-HR :0.89453: (Sim:0h8m4s) 
CPU  0 inst:  120000000 cyc:   70949701 now IPC :1.78230: AVG IPC :1.68644: L2-Pf-HR :0.91756: L2-HR :0.89460: (Sim:0h8m7s) 
CPU  0 inst:  121000003 cyc:   71512451 now IPC :1.77699: AVG IPC :1.68716: L2-Pf-HR :0.91767: L2-HR :0.89472: (Sim:0h8m10s) 
CPU  0 inst:  122000003 cyc:   72086556 now IPC :1.74184: AVG IPC :1.68760: L2-Pf-HR :0.91782: L2-HR :0.89487: (Sim:0h8m13s) 
CPU  0 inst:  123000000 cyc:   72653725 now IPC :1.76314: AVG IPC :1.68820: L2-Pf-HR :0.91793: L2-HR :0.89499: (Sim:0h8m16s) 
CPU  0 inst:  124000000 cyc:   73219432 now IPC :1.76770: AVG IPC :1.68882: L2-Pf-HR :0.91802: L2-HR :0.89508: (Sim:0h8m19s) 
CPU  0 inst:  125000000 cyc:   73784754 now IPC :1.76890: AVG IPC :1.68944: L2-Pf-HR :0.91815: L2-HR :0.89521: (Sim:0h8m22s) 
CPU  0 inst:  126000003 cyc:   74350125 now IPC :1.76876: AVG IPC :1.69005: L2-Pf-HR :0.91830: L2-HR :0.89536: (Sim:0h8m25s) 
CPU  0 inst:  127000000 cyc:   75160645 now IPC :1.23377: AVG IPC :1.68507: L2-Pf-HR :0.91792: L2-HR :0.89498: (Sim:0h8m28s) 
CPU  0 inst:  128000000 cyc:   75738724 now IPC :1.72987: AVG IPC :1.68541: L2-Pf-HR :0.91780: L2-HR :0.89485: (Sim:0h8m31s) 
CPU  0 inst:  129000003 cyc:   76323132 now IPC :1.71114: AVG IPC :1.68561: L2-Pf-HR :0.91772: L2-HR :0.89476: (Sim:0h8m34s) 
CPU  0 inst:  130000002 cyc:   76899012 now IPC :1.73647: AVG IPC :1.68600: L2-Pf-HR :0.91770: L2-HR :0.89475: (Sim:0h8m38s) 
CPU  0 inst:  131000002 cyc:   77480353 now IPC :1.72016: AVG IPC :1.68626: L2-Pf-HR :0.91761: L2-HR :0.89465: (Sim:0h8m41s) 
CPU  0 inst:  132000000 cyc:   78067145 now IPC :1.70418: AVG IPC :1.68639: L2-Pf-HR :0.91756: L2-HR :0.89461: (Sim:0h8m45s) 
CPU  0 inst:  133000003 cyc:   78644663 now IPC :1.73155: AVG IPC :1.68673: L2-Pf-HR :0.91748: L2-HR :0.89453: (Sim:0h8m50s) 
CPU  0 inst:  134000002 cyc:   79235290 now IPC :1.69311: AVG IPC :1.68678: L2-Pf-HR :0.91741: L2-HR :0.89446: (Sim:0h8m55s) 
CPU  0 inst:  135000000 cyc:   79819565 now IPC :1.71152: AVG IPC :1.68696: L2-Pf-HR :0.91737: L2-HR :0.89441: (Sim:0h8m59s) 
CPU  0 inst:  136000000 cyc:   80406470 now IPC :1.70385: AVG IPC :1.68709: L2-Pf-HR :0.91732: L2-HR :0.89436: (Sim:0h9m4s) 
CPU  0 inst:  137000002 cyc:   80998805 now IPC :1.68824: AVG IPC :1.68710: L2-Pf-HR :0.91721: L2-HR :0.89423: (Sim:0h9m9s) 
CPU  0 inst:  138000002 cyc:   81580965 now IPC :1.71774: AVG IPC :1.68732: L2-Pf-HR :0.91732: L2-HR :0.89431: (Sim:0h9m13s) 
CPU  0 inst:  139000002 cyc:   82406510 now IPC :1.21132: AVG IPC :1.68249: L2-Pf-HR :0.91706: L2-HR :0.89407: (Sim:0h9m18s) 
CPU  0 inst:  140000000 cyc:   82984568 now IPC :1.72993: AVG IPC :1.68283: L2-Pf-HR :0.91711: L2-HR :0.89412: (Sim:0h9m22s) 
CPU  0 inst:  141000000 cyc:   83563085 now IPC :1.72856: AVG IPC :1.68315: L2-Pf-HR :0.91717: L2-HR :0.89418: (Sim:0h9m26s) 
CPU  0 inst:  142000002 cyc:   84140406 now IPC :1.73214: AVG IPC :1.68349: L2-Pf-HR :0.91726: L2-HR :0.89427: (Sim:0h9m30s) 
CPU  0 inst:  143000002 cyc:   84713601 now IPC :1.74461: AVG IPC :1.68390: L2-Pf-HR :0.91730: L2-HR :0.89432: (Sim:0h9m33s) 
CPU  0 inst:  144000000 cyc:   85283241 now IPC :1.75549: AVG IPC :1.68439: L2-Pf-HR :0.91738: L2-HR :0.89440: (Sim:0h9m36s) 
CPU  0 inst:  145000001 cyc:   85850146 now IPC :1.76397: AVG IPC :1.68492: L2-Pf-HR :0.91743: L2-HR :0.89446: (Sim:0h9m39s) 
CPU  0 inst:  146000002 cyc:   86418549 now IPC :1.75932: AVG IPC :1.68541: L2-Pf-HR :0.91747: L2-HR :0.89451: (Sim:0h9m43s) 
CPU  0 inst:  147000003 cyc:   86993495 now IPC :1.73930: AVG IPC :1.68577: L2-Pf-HR :0.91749: L2-HR :0.89453: (Sim:0h9m47s) 
CPU  0 inst:  148000000 cyc:   87568773 now IPC :1.73828: AVG IPC :1.68612: L2-Pf-HR :0.91757: L2-HR :0.89462: (Sim:0h9m52s) 
CPU  0 inst:  149000000 cyc:   88143218 now IPC :1.74081: AVG IPC :1.68648: L2-Pf-HR :0.91767: L2-HR :0.89472: (Sim:0h9m56s) 
CPU  0 inst:  150000001 cyc:   88721149 now IPC :1.73031: AVG IPC :1.68677: L2-Pf-HR :0.91786: L2-HR :0.89489: (Sim:0h10m1s) 
CPU  0 inst:  151000003 cyc:   89421678 now IPC :1.42750: AVG IPC :1.68472: L2-Pf-HR :0.91773: L2-HR :0.89477: (Sim:0h10m5s) 
CPU  0 inst:  152000000 cyc:   89975961 now IPC :1.80413: AVG IPC :1.68546: L2-Pf-HR :0.91774: L2-HR :0.89477: (Sim:0h10m9s) 
CPU  0 inst:  153000003 cyc:   90537426 now IPC :1.78106: AVG IPC :1.68606: L2-Pf-HR :0.91785: L2-HR :0.89489: (Sim:0h10m14s) 
CPU  0 inst:  154000002 cyc:   91105633 now IPC :1.75992: AVG IPC :1.68653: L2-Pf-HR :0.91798: L2-HR :0.89502: (Sim:0h10m18s) 
CPU  0 inst:  155000000 cyc:   91668556 now IPC :1.77644: AVG IPC :1.68709: L2-Pf-HR :0.91806: L2-HR :0.89511: (Sim:0h10m22s) 
CPU  0 inst:  156000000 cyc:   92233703 now IPC :1.76945: AVG IPC :1.68760: L2-Pf-HR :0.91814: L2-HR :0.89518: (Sim:0h10m26s) 
CPU  0 inst:  157000003 cyc:   92798608 now IPC :1.77021: AVG IPC :1.68810: L2-Pf-HR :0.91827: L2-HR :0.89531: (Sim:0h10m31s) 
CPU  0 inst:  158000003 cyc:   93537233 now IPC :1.35387: AVG IPC :1.68544: L2-Pf-HR :0.91819: L2-HR :0.89524: (Sim:0h10m35s) 
CPU  0 inst:  159000002 cyc:   94189821 now IPC :1.53236: AVG IPC :1.68437: L2-Pf-HR :0.91802: L2-HR :0.89505: (Sim:0h10m40s) 
CPU  0 inst:  160000000 cyc:   94776299 now IPC :1.70509: AVG IPC :1.68449: L2-Pf-HR :0.91791: L2-HR :0.89494: (Sim:0h10m43s) 
CPU  0 inst:  161000003 cyc:   95355136 now IPC :1.72761: AVG IPC :1.68476: L2-Pf-HR :0.91783: L2-HR :0.89486: (Sim:0h10m46s) 
CPU  0 inst:  162000001 cyc:   95932080 now IPC :1.73327: AVG IPC :1.68505: L2-Pf-HR :0.91780: L2-HR :0.89483: (Sim:0h10m49s) 
CPU  0 inst:  163000000 cyc:   96513518 now IPC :1.71987: AVG IPC :1.68527: L2-Pf-HR :0.91772: L2-HR :0.89475: (Sim:0h10m52s) 
CPU  0 inst:  164000000 cyc:   97092960 now IPC :1.72580: AVG IPC :1.68551: L2-Pf-HR :0.91765: L2-HR :0.89469: (Sim:0h10m55s) 
CPU  0 inst:  165000003 cyc:   97681113 now IPC :1.70024: AVG IPC :1.68560: L2-Pf-HR :0.91760: L2-HR :0.89464: (Sim:0h10m58s) 
CPU  0 inst:  166000000 cyc:   98260993 now IPC :1.72449: AVG IPC :1.68583: L2-Pf-HR :0.91752: L2-HR :0.89456: (Sim:0h11m1s) 
CPU  0 inst:  167000003 cyc:   98846157 now IPC :1.70893: AVG IPC :1.68597: L2-Pf-HR :0.91748: L2-HR :0.89451: (Sim:0h11m4s) 
CPU  0 inst:  168000000 cyc:   99441545 now IPC :1.67957: AVG IPC :1.68593: L2-Pf-HR :0.91743: L2-HR :0.89446: (Sim:0h11m7s) 
CPU  0 inst:  169000000 cyc:  100024363 now IPC :1.71580: AVG IPC :1.68611: L2-Pf-HR :0.91736: L2-HR :0.89438: (Sim:0h11m10s) 
CPU  0 inst:  170000001 cyc:  100793536 now IPC :1.30010: AVG IPC :1.68313: L2-Pf-HR :0.91725: L2-HR :0.89427: (Sim:0h11m13s) 
CPU  0 inst:  171000001 cyc:  101417158 now IPC :1.60354: AVG IPC :1.68264: L2-Pf-HR :0.91720: L2-HR :0.89421: (Sim:0h11m16s) 
CPU  0 inst:  172000000 cyc:  101984946 now IPC :1.76122: AVG IPC :1.68308: L2-Pf-HR :0.91723: L2-HR :0.89424: (Sim:0h11m19s) 
CPU  0 inst:  173000003 cyc:  102551287 now IPC :1.76573: AVG IPC :1.68354: L2-Pf-HR :0.91728: L2-HR :0.89429: (Sim:0h11m22s) 
CPU  0 inst:  174000000 cyc:  103120266 now IPC :1.75753: AVG IPC :1.68395: L2-Pf-HR :0.91736: L2-HR :0.89437: (Sim:0h11m25s) 
CPU  0 inst:  175000000 cyc:  103686445 now IPC :1.76623: AVG IPC :1.68441: L2-Pf-HR :0.91745: L2-HR :0.89447: (Sim:0h11m28s) 
CPU  0 inst:  176000000 cyc:  104250468 now IPC :1.77298: AVG IPC :1.68489: L2-Pf-HR :0.91749: L2-HR :0.89452: (Sim:0h11m31s) 
CPU  0 inst:  177000003 cyc:  104810170 now IPC :1.78667: AVG IPC :1.68544: L2-Pf-HR :0.91749: L2-HR :0.89452: (Sim:0h11m34s) 
CPU  0 inst:  178000001 cyc:  105369011 now IPC :1.78941: AVG IPC :1.68600: L2-Pf-HR :0.91747: L2-HR :0.89451: (Sim:0h11m36s) 
CPU  0 inst:  179000002 cyc:  105931500 now IPC :1.77781: AVG IPC :1.68649: L2-Pf-HR :0.91753: L2-HR :0.89456: (Sim:0h11m39s) 
CPU  0 inst:  180000000 cyc:  106500468 now IPC :1.75756: AVG IPC :1.68687: L2-Pf-HR :0.91757: L2-HR :0.89461: (Sim:0h11m42s) 
CPU  0 inst:  181000001 cyc:  107056275 now IPC :1.79919: AVG IPC :1.68746: L2-Pf-HR :0.91766: L2-HR :0.89470: (Sim:0h11m45s) 
CPU  0 inst:  182000003 cyc:  107767032 now IPC :1.40695: AVG IPC :1.68559: L2-Pf-HR :0.91767: L2-HR :0.89469: (Sim:0h11m48s) 
CPU  0 inst:  183000001 cyc:  108336818 now IPC :1.75504: AVG IPC :1.68596: L2-Pf-HR :0.91770: L2-HR :0.89472: (Sim:0h11m51s) 
CPU  0 inst:  184000000 cyc:  108900287 now IPC :1.77472: AVG IPC :1.68642: L2-Pf-HR :0.91777: L2-HR :0.89480: (Sim:0h11m54s) 
CPU  0 inst:  185000003 cyc:  109468640 now IPC :1.75948: AVG IPC :1.68681: L2-Pf-HR :0.91786: L2-HR :0.89490: (Sim:0h11m58s) 
CPU  0 inst:  186000002 cyc:  110036080 now IPC :1.76230: AVG IPC :1.68720: L2-Pf-HR :0.91794: L2-HR :0.89498: (Sim:0h12m1s) 
CPU  0 inst:  187000000 cyc:  110602558 now IPC :1.76529: AVG IPC :1.68760: L2-Pf-HR :0.91800: L2-HR :0.89505: (Sim:0h12m4s) 
CPU  0 inst:  188000000 cyc:  111165561 now IPC :1.77619: AVG IPC :1.68806: L2-Pf-HR :0.91806: L2-HR :0.89511: (Sim:0h12m7s) 
CPU  0 inst:  189000001 cyc:  111727032 now IPC :1.78104: AVG IPC :1.68853: L2-Pf-HR :0.91816: L2-HR :0.89520: (Sim:0h12m9s) 
CPU  0 inst:  190000002 cyc:  112537581 now IPC :1.23373: AVG IPC :1.68522: L2-Pf-HR :0.91791: L2-HR :0.89496: (Sim:0h12m13s) 
CPU  0 inst:  191000000 cyc:  113124734 now IPC :1.70313: AVG IPC :1.68532: L2-Pf-HR :0.91782: L2-HR :0.89486: (Sim:0h12m15s) 
CPU  0 inst:  192000000 cyc:  113702661 now IPC :1.73032: AVG IPC :1.68555: L2-Pf-HR :0.91776: L2-HR :0.89481: (Sim:0h12m18s) 
CPU  0 inst:  193000000 cyc:  114278823 now IPC :1.73562: AVG IPC :1.68580: L2-Pf-HR :0.91773: L2-HR :0.89477: (Sim:0h12m21s) 
CPU  0 inst:  194000001 cyc:  114857048 now IPC :1.72943: AVG IPC :1.68602: L2-Pf-HR :0.91769: L2-HR :0.89473: (Sim:0h12m24s) 
CPU  0 inst:  195000001 cyc:  115437591 now IPC :1.72253: AVG IPC :1.68621: L2-Pf-HR :0.91766: L2-HR :0.89470: (Sim:0h12m27s) 
CPU  0 inst:  196000000 cyc:  116029261 now IPC :1.69013: AVG IPC :1.68623: L2-Pf-HR :0.91760: L2-HR :0.89464: (Sim:0h12m30s) 
CPU  0 inst:  197000001 cyc:  116616319 now IPC :1.70341: AVG IPC :1.68632: L2-Pf-HR :0.91755: L2-HR :0.89460: (Sim:0h12m33s) 
CPU  0 inst:  198000001 cyc:  117205831 now IPC :1.69632: AVG IPC :1.68637: L2-Pf-HR :0.91750: L2-HR :0.89453: (Sim:0h12m35s) 
CPU  0 inst:  199000003 cyc:  117799050 now IPC :1.68572: AVG IPC :1.68636: L2-Pf-HR :0.91746: L2-HR :0.89449: (Sim:0h12m38s) 
CPU  0 inst:  200000000 cyc:  118384003 now IPC :1.70953: AVG IPC :1.68648: L2-Pf-HR :0.91742: L2-HR :0.89445: (Sim:0h12m41s) 
CPU  0 inst:  201000002 cyc:  118983187 now IPC :1.66894: AVG IPC :1.68639: L2-Pf-HR :0.91746: L2-HR :0.89448: (Sim:0h12m44s) 
CPU  0 inst:  202000001 cyc:  119800954 now IPC :1.22284: AVG IPC :1.68320: L2-Pf-HR :0.91730: L2-HR :0.89432: (Sim:0h12m48s) 
CPU  0 inst:  203000003 cyc:  120376684 now IPC :1.73693: AVG IPC :1.68346: L2-Pf-HR :0.91732: L2-HR :0.89433: (Sim:0h12m51s) 
CPU  0 inst:  204000000 cyc:  120941597 now IPC :1.77018: AVG IPC :1.68387: L2-Pf-HR :0.91735: L2-HR :0.89437: (Sim:0h12m54s) 
CPU  0 inst:  205000000 cyc:  121507413 now IPC :1.76736: AVG IPC :1.68426: L2-Pf-HR :0.91741: L2-HR :0.89443: (Sim:0h12m57s) 
CPU  0 inst:  206000003 cyc:  122072768 now IPC :1.76881: AVG IPC :1.68465: L2-Pf-HR :0.91746: L2-HR :0.89448: (Sim:0h13m0s) 
CPU  0 inst:  207000000 cyc:  122639066 now IPC :1.76585: AVG IPC :1.68503: L2-Pf-HR :0.91751: L2-HR :0.89454: (Sim:0h13m3s) 
CPU  0 inst:  208000000 cyc:  123208281 now IPC :1.75681: AVG IPC :1.68537: L2-Pf-HR :0.91753: L2-HR :0.89456: (Sim:0h13m6s) 
CPU  0 inst:  209000003 cyc:  123774980 now IPC :1.76461: AVG IPC :1.68573: L2-Pf-HR :0.91754: L2-HR :0.89457: (Sim:0h13m8s) 
CPU  0 inst:  210000001 cyc:  124339002 now IPC :1.77298: AVG IPC :1.68613: L2-Pf-HR :0.91758: L2-HR :0.89461: (Sim:0h13m11s) 
CPU  0 inst:  211000000 cyc:  124900655 now IPC :1.78046: AVG IPC :1.68656: L2-Pf-HR :0.91764: L2-HR :0.89467: (Sim:0h13m14s) 
CPU  0 inst:  212000000 cyc:  125464504 now IPC :1.77352: AVG IPC :1.68695: L2-Pf-HR :0.91771: L2-HR :0.89474: (Sim:0h13m17s) 
CPU  0 inst:  213000000 cyc:  126028149 now IPC :1.77417: AVG IPC :1.68734: L2-Pf-HR :0.91785: L2-HR :0.89487: (Sim:0h13m20s) 
CPU  0 inst:  214000001 cyc:  126746320 now IPC :1.39243: AVG IPC :1.68566: L2-Pf-HR :0.91783: L2-HR :0.89485: (Sim:0h13m23s) 
CPU  0 inst:  215000003 cyc:  127316214 now IPC :1.75472: AVG IPC :1.68597: L2-Pf-HR :0.91789: L2-HR :0.89491: (Sim:0h13m26s) 
CPU  0 inst:  216000000 cyc:  127888720 now IPC :1.74670: AVG IPC :1.68625: L2-Pf-HR :0.91798: L2-HR :0.89500: (Sim:0h13m29s) 
CPU  0 inst:  217000003 cyc:  128458555 now IPC :1.75490: AVG IPC :1.68655: L2-Pf-HR :0.91806: L2-HR :0.89509: (Sim:0h13m32s) 
CPU  0 inst:  218000003 cyc:  129022712 now IPC :1.77256: AVG IPC :1.68693: L2-Pf-HR :0.91814: L2-HR :0.89517: (Sim:0h13m35s) 
CPU  0 inst:  219000002 cyc:  129589812 now IPC :1.76336: AVG IPC :1.68727: L2-Pf-HR :0.91820: L2-HR :0.89523: (Sim:0h13m38s) 
CPU  0 inst:  220000000 cyc:  130156382 now IPC :1.76500: AVG IPC :1.68761: L2-Pf-HR :0.91828: L2-HR :0.89531: (Sim:0h13m41s) 
CPU  0 inst:  221000002 cyc:  130721087 now IPC :1.77084: AVG IPC :1.68797: L2-Pf-HR :0.91840: L2-HR :0.89542: (Sim:0h13m44s) 
CPU  0 inst:  222000003 cyc:  131555148 now IPC :1.19895: AVG IPC :1.68485: L2-Pf-HR :0.91809: L2-HR :0.89512: (Sim:0h13m47s) 
CPU  0 inst:  223000000 cyc:  132132571 now IPC :1.73183: AVG IPC :1.68506: L2-Pf-HR :0.91803: L2-HR :0.89506: (Sim:0h13m50s) 
CPU  0 inst:  224000000 cyc:  132714708 now IPC :1.71781: AVG IPC :1.68520: L2-Pf-HR :0.91799: L2-HR :0.89502: (Sim:0h13m53s) 
CPU  0 inst:  225000001 cyc:  133293259 now IPC :1.72846: AVG IPC :1.68539: L2-Pf-HR :0.91795: L2-HR :0.89498: (Sim:0h13m56s) 
CPU  0 inst:  226000001 cyc:  133871457 now IPC :1.72951: AVG IPC :1.68558: L2-Pf-HR :0.91791: L2-HR :0.89493: (Sim:0h13m59s) 
CPU  0 inst:  227000000 cyc:  134461906 now IPC :1.69362: AVG IPC :1.68562: L2-Pf-HR :0.91789: L2-HR :0.89492: (Sim:0h14m2s) 
CPU  0 inst:  228000000 cyc:  135042580 now IPC :1.72214: AVG IPC :1.68578: L2-Pf-HR :0.91783: L2-HR :0.89486: (Sim:0h14m5s) 
CPU  0 inst:  229000003 cyc:  135629117 now IPC :1.70493: AVG IPC :1.68586: L2-Pf-HR :0.91777: L2-HR :0.89480: (Sim:0h14m8s) 
CPU  0 inst:  230000002 cyc:  136221181 now IPC :1.68900: AVG IPC :1.68587: L2-Pf-HR :0.91774: L2-HR :0.89477: (Sim:0h14m13s) 
CPU  0 inst:  231000000 cyc:  136813262 now IPC :1.68895: AVG IPC :1.68589: L2-Pf-HR :0.91774: L2-HR :0.89476: (Sim:0h14m17s) 
CPU  0 inst:  232000000 cyc:  137412808 now IPC :1.66793: AVG IPC :1.68581: L2-Pf-HR :0.91770: L2-HR :0.89471: (Sim:0h14m21s) 
CPU  0 inst:  233000001 cyc:  138072608 now IPC :1.51561: AVG IPC :1.68499: L2-Pf-HR :0.91776: L2-HR :0.89476: (Sim:0h14m26s) 
CPU  0 inst:  234000001 cyc:  138821193 now IPC :1.33585: AVG IPC :1.68309: L2-Pf-HR :0.91761: L2-HR :0.89462: (Sim:0h14m30s) 
CPU  0 inst:  235000002 cyc:  139390765 now IPC :1.75571: AVG IPC :1.68339: L2-Pf-HR :0.91761: L2-HR :0.89462: (Sim:0h14m34s) 
CPU  0 inst:  236000000 cyc:  139951030 now IPC :1.78487: AVG IPC :1.68380: L2-Pf-HR :0.91763: L2-HR :0.89464: (Sim:0h14m39s) 
CPU  0 inst:  237000000 cyc:  140514707 now IPC :1.77407: AVG IPC :1.68416: L2-Pf-HR :0.91770: L2-HR :0.89470: (Sim:0h14m43s) 
CPU  0 inst:  238000003 cyc:  141079909 now IPC :1.76928: AVG IPC :1.68451: L2-Pf-HR :0.91774: L2-HR :0.89475: (Sim:0h14m47s) 
CPU  0 inst:  239000001 cyc:  141648407 now IPC :1.75902: AVG IPC :1.68481: L2-Pf-HR :0.91779: L2-HR :0.89480: (Sim:0h14m51s) 
CPU  0 inst:  240000000 cyc:  142212748 now IPC :1.77198: AVG IPC :1.68516: L2-Pf-HR :0.91784: L2-HR :0.89485: (Sim:0h14m55s) 
CPU  0 inst:  241000001 cyc:  142779876 now IPC :1.76327: AVG IPC :1.68547: L2-Pf-HR :0.91785: L2-HR :0.89486: (Sim:0h14m59s) 
CPU  0 inst:  242000001 cyc:  143341639 now IPC :1.78011: AVG IPC :1.68584: L2-Pf-HR :0.91788: L2-HR :0.89490: (Sim:0h15m4s) 
CPU  0 inst:  243000003 cyc:  143903421 now IPC :1.78005: AVG IPC :1.68621: L2-Pf-HR :0.91796: L2-HR :0.89497: (Sim:0h15m8s) 
CPU  0 inst:  244000000 cyc:  144458662 now IPC :1.80101: AVG IPC :1.68666: L2-Pf-HR :0.91805: L2-HR :0.89506: (Sim:0h15m12s) 
CPU  0 inst:  245000001 cyc:  145165688 now IPC :1.41438: AVG IPC :1.68532: L2-Pf-HR :0.91807: L2-HR :0.89508: (Sim:0h15m17s) 
CPU  0 inst:  246000000 cyc:  145735904 now IPC :1.75372: AVG IPC :1.68559: L2-Pf-HR :0.91809: L2-HR :0.89510: (Sim:0h15m21s) 
CPU  0 inst:  247000003 cyc:  146291598 now IPC :1.79956: AVG IPC :1.68603: L2-Pf-HR :0.91813: L2-HR :0.89514: (Sim:0h15m25s) 
CPU  0 inst:  248000000 cyc:  146860838 now IPC :1.75672: AVG IPC :1.68630: L2-Pf-HR :0.91819: L2-HR :0.89520: (Sim:0h15m29s) 
CPU  0 inst:  249000003 cyc:  147430225 now IPC :1.75628: AVG IPC :1.68658: L2-Pf-HR :0.91824: L2-HR :0.89526: (Sim:0h15m34s) 
CPU  0 inst:  250000000 cyc:  147994041 now IPC :1.77362: AVG IPC :1.68691: L2-Pf-HR :0.91828: L2-HR :0.89530: (Sim:0h15m38s) 
CPU  0 inst:  251000000 cyc:  148557916 now IPC :1.77344: AVG IPC :1.68724: L2-Pf-HR :0.91833: L2-HR :0.89535: (Sim:0h15m42s) 
CPU  0 inst:  252000000 cyc:  149122538 now IPC :1.77110: AVG IPC :1.68756: L2-Pf-HR :0.91840: L2-HR :0.89542: (Sim:0h15m46s) 
CPU  0 inst:  253000000 cyc:  149933218 now IPC :1.23353: AVG IPC :1.68509: L2-Pf-HR :0.91823: L2-HR :0.89526: (Sim:0h15m51s) 
CPU  0 inst:  254000002 cyc:  150518055 now IPC :1.70988: AVG IPC :1.68519: L2-Pf-HR :0.91817: L2-HR :0.89518: (Sim:0h15m55s) 
CPU  0 inst:  255000000 cyc:  151098866 now IPC :1.72173: AVG IPC :1.68533: L2-Pf-HR :0.91810: L2-HR :0.89512: (Sim:0h15m59s) 
CPU  0 inst:  256000000 cyc:  151673127 now IPC :1.74137: AVG IPC :1.68554: L2-Pf-HR :0.91806: L2-HR :0.89508: (Sim:0h16m4s) 
CPU  0 inst:  257000003 cyc:  152253421 now IPC :1.72327: AVG IPC :1.68569: L2-Pf-HR :0.91804: L2-HR :0.89506: (Sim:0h16m8s) 
CPU  0 inst:  258000002 cyc:  152840824 now IPC :1.70241: AVG IPC :1.68575: L2-Pf-HR :0.91801: L2-HR :0.89503: (Sim:0h16m12s) 
CPU  0 inst:  259000001 cyc:  153418924 now IPC :1.72980: AVG IPC :1.68592: L2-Pf-HR :0.91798: L2-HR :0.89500: (Sim:0h16m17s) 
CPU  0 inst:  260000000 cyc:  154008270 now IPC :1.69679: AVG IPC :1.68596: L2-Pf-HR :0.91795: L2-HR :0.89497: (Sim:0h16m21s) 
CPU  0 inst:  261000002 cyc:  154599388 now IPC :1.69171: AVG IPC :1.68598: L2-Pf-HR :0.91789: L2-HR :0.89491: (Sim:0h16m25s) 
CPU  0 inst:  262000001 cyc:  155187433 now IPC :1.70055: AVG IPC :1.68604: L2-Pf-HR :0.91787: L2-HR :0.89489: (Sim:0h16m30s) 
CPU  0 inst:  263000001 cyc:  155790083 now IPC :1.65934: AVG IPC :1.68593: L2-Pf-HR :0.91785: L2-HR :0.89486: (Sim:0h16m34s) 
CPU  0 inst:  264000000 cyc:  156371870 now IPC :1.71884: AVG IPC :1.68606: L2-Pf-HR :0.91785: L2-HR :0.89485: (Sim:0h16m39s) 
CPU  0 inst:  265000000 cyc:  157194309 now IPC :1.21590: AVG IPC :1.68358: L2-Pf-HR :0.91774: L2-HR :0.89475: (Sim:0h16m43s) 
CPU  0 inst:  266000001 cyc:  157767502 now IPC :1.74461: AVG IPC :1.68380: L2-Pf-HR :0.91774: L2-HR :0.89474: (Sim:0h16m47s) 
CPU  0 inst:  267000001 cyc:  158330728 now IPC :1.77549: AVG IPC :1.68413: L2-Pf-HR :0.91773: L2-HR :0.89473: (Sim:0h16m52s) 
CPU  0 inst:  268000000 cyc:  158891023 now IPC :1.78477: AVG IPC :1.68449: L2-Pf-HR :0.91777: L2-HR :0.89477: (Sim:0h16m55s) 
CPU  0 inst:  269000001 cyc:  159452612 now IPC :1.78066: AVG IPC :1.68483: L2-Pf-HR :0.91781: L2-HR :0.89481: (Sim:0h16m57s) 
CPU  0 inst:  270000002 cyc:  160015684 now IPC :1.77597: AVG IPC :1.68515: L2-Pf-HR :0.91786: L2-HR :0.89487: (Sim:0h17m0s) 
CPU  0 inst:  271000002 cyc:  160576888 now IPC :1.78188: AVG IPC :1.68549: L2-Pf-HR :0.91787: L2-HR :0.89488: (Sim:0h17m4s) 
CPU  0 inst:  272000000 cyc:  161143698 now IPC :1.76426: AVG IPC :1.68577: L2-Pf-HR :0.91790: L2-HR :0.89491: (Sim:0h17m8s) 
CPU  0 inst:  273000000 cyc:  161703189 now IPC :1.78734: AVG IPC :1.68612: L2-Pf-HR :0.91792: L2-HR :0.89494: (Sim:0h17m12s) 
CPU  0 inst:  274000001 cyc:  162263187 now IPC :1.78572: AVG IPC :1.68647: L2-Pf-HR :0.91797: L2-HR :0.89498: (Sim:0h17m16s) 
CPU  0 inst:  275000000 cyc:  162822892 now IPC :1.78665: AVG IPC :1.68682: L2-Pf-HR :0.91802: L2-HR :0.89504: (Sim:0h17m20s) 
CPU  0 inst:  276000000 cyc:  163380597 now IPC :1.79306: AVG IPC :1.68718: L2-Pf-HR :0.91812: L2-HR :0.89513: (Sim:0h17m24s) 
CPU  0 inst:  277000003 cyc:  164099335 now IPC :1.39133: AVG IPC :1.68588: L2-Pf-HR :0.91810: L2-HR :0.89511: (Sim:0h17m28s) 
CPU  0 inst:  278000003 cyc:  164673691 now IPC :1.74108: AVG IPC :1.68607: L2-Pf-HR :0.91813: L2-HR :0.89515: (Sim:0h17m33s) 
CPU  0 inst:  279000003 cyc:  165240520 now IPC :1.76420: AVG IPC :1.68634: L2-Pf-HR :0.91819: L2-HR :0.89521: (Sim:0h17m37s) 
CPU  0 inst:  280000000 cyc:  165808091 now IPC :1.76189: AVG IPC :1.68660: L2-Pf-HR :0.91824: L2-HR :0.89525: (Sim:0h17m41s) 
CPU  0 inst:  281000000 cyc:  166377366 now IPC :1.75662: AVG IPC :1.68684: L2-Pf-HR :0.91825: L2-HR :0.89527: (Sim:0h17m44s) 
CPU  0 inst:  282000001 cyc:  166946805 now IPC :1.75612: AVG IPC :1.68708: L2-Pf-HR :0.91826: L2-HR :0.89528: (Sim:0h17m47s) 
CPU  0 inst:  283000001 cyc:  167507151 now IPC :1.78461: AVG IPC :1.68741: L2-Pf-HR :0.91831: L2-HR :0.89534: (Sim:0h17m50s) 
CPU  0 inst:  284000000 cyc:  168066678 now IPC :1.78722: AVG IPC :1.68774: L2-Pf-HR :0.91839: L2-HR :0.89540: (Sim:0h17m53s) 
CPU  0 inst:  285000002 cyc:  168890176 now IPC :1.21433: AVG IPC :1.68542: L2-Pf-HR :0.91816: L2-HR :0.89518: (Sim:0h17m56s) 
CPU  0 inst:  286000000 cyc:  169470265 now IPC :1.72387: AVG IPC :1.68555: L2-Pf-HR :0.91811: L2-HR :0.89512: (Sim:0h17m59s) 
CPU  0 inst:  287000002 cyc:  170056040 now IPC :1.70714: AVG IPC :1.68563: L2-Pf-HR :0.91807: L2-HR :0.89508: (Sim:0h18m2s) 
CPU  0 inst:  288000000 cyc:  170643289 now IPC :1.70285: AVG IPC :1.68569: L2-Pf-HR :0.91805: L2-HR :0.89506: (Sim:0h18m5s) 
CPU  0 inst:  289000003 cyc:  171228064 now IPC :1.71006: AVG IPC :1.68577: L2-Pf-HR :0.91800: L2-HR :0.89502: (Sim:0h18m8s) 
CPU  0 inst:  290000001 cyc:  171814226 now IPC :1.70601: AVG IPC :1.68584: L2-Pf-HR :0.91799: L2-HR :0.89501: (Sim:0h18m11s) 
CPU  0 inst:  291000003 cyc:  172395383 now IPC :1.72071: AVG IPC :1.68596: L2-Pf-HR :0.91796: L2-HR :0.89498: (Sim:0h18m14s) 
CPU  0 inst:  292000000 cyc:  172980878 now IPC :1.70795: AVG IPC :1.68603: L2-Pf-HR :0.91791: L2-HR :0.89493: (Sim:0h18m17s) 
CPU  0 inst:  293000000 cyc:  173581891 now IPC :1.66386: AVG IPC :1.68596: L2-Pf-HR :0.91788: L2-HR :0.89490: (Sim:0h18m20s) 
CPU  0 inst:  294000002 cyc:  174174960 now IPC :1.68615: AVG IPC :1.68596: L2-Pf-HR :0.91786: L2-HR :0.89487: (Sim:0h18m24s) 
CPU  0 inst:  295000001 cyc:  174764604 now IPC :1.69594: AVG IPC :1.68599: L2-Pf-HR :0.91782: L2-HR :0.89484: (Sim:0h18m29s) 
CPU  0 inst:  296000000 cyc:  175366755 now IPC :1.66071: AVG IPC :1.68590: L2-Pf-HR :0.91790: L2-HR :0.89490: (Sim:0h18m33s) 
CPU  0 inst:  297000003 cyc:  176186901 now IPC :1.21930: AVG IPC :1.68372: L2-Pf-HR :0.91776: L2-HR :0.89477: (Sim:0h18m37s) 
CPU  0 inst:  298000003 cyc:  176755082 now IPC :1.76000: AVG IPC :1.68397: L2-Pf-HR :0.91777: L2-HR :0.89478: (Sim:0h18m42s) 
CPU  0 inst:  299000001 cyc:  177321378 now IPC :1.76586: AVG IPC :1.68423: L2-Pf-HR :0.91779: L2-HR :0.89480: (Sim:0h18m44s) 
CPU  0 inst:  300000000 cyc:  177886909 now IPC :1.76825: AVG IPC :1.68450: L2-Pf-HR :0.91781: L2-HR :0.89483: (Sim:0h18m47s) 
CPU  0 inst:  301000001 cyc:  178453937 now IPC :1.76358: AVG IPC :1.68475: L2-Pf-HR :0.91785: L2-HR :0.89487: (Sim:0h18m50s) 
CPU  0 inst:  302000003 cyc:  179019670 now IPC :1.76762: AVG IPC :1.68501: L2-Pf-HR :0.91788: L2-HR :0.89491: (Sim:0h18m53s) 
CPU  0 inst:  303000003 cyc:  179583583 now IPC :1.77332: AVG IPC :1.68529: L2-Pf-HR :0.91788: L2-HR :0.89491: (Sim:0h18m56s) 
CPU  0 inst:  304000000 cyc:  180145410 now IPC :1.77990: AVG IPC :1.68559: L2-Pf-HR :0.91790: L2-HR :0.89493: (Sim:0h18m59s) 
CPU  0 inst:  305000002 cyc:  180709743 now IPC :1.77201: AVG IPC :1.68586: L2-Pf-HR :0.91792: L2-HR :0.89496: (Sim:0h19m2s) 
CPU  0 inst:  306000000 cyc:  181278108 now IPC :1.75943: AVG IPC :1.68609: L2-Pf-HR :0.91796: L2-HR :0.89500: (Sim:0h19m5s) 
CPU  0 inst:  307000001 cyc:  181845765 now IPC :1.76163: AVG IPC :1.68633: L2-Pf-HR :0.91802: L2-HR :0.89506: (Sim:0h19m8s) 
CPU  0 inst:  308000000 cyc:  182526844 now IPC :1.46826: AVG IPC :1.68551: L2-Pf-HR :0.91804: L2-HR :0.89508: (Sim:0h19m12s) 
CPU  0 inst:  309000003 cyc:  183118448 now IPC :1.69032: AVG IPC :1.68553: L2-Pf-HR :0.91804: L2-HR :0.89507: (Sim:0h19m16s) 
CPU  0 inst:  310000002 cyc:  183681948 now IPC :1.77462: AVG IPC :1.68580: L2-Pf-HR :0.91807: L2-HR :0.89510: (Sim:0h19m20s) 
CPU  0 inst:  311000001 cyc:  184248797 now IPC :1.76414: AVG IPC :1.68604: L2-Pf-HR :0.91811: L2-HR :0.89514: (Sim:0h19m24s) 
CPU  0 inst:  312000000 cyc:  184813378 now IPC :1.77122: AVG IPC :1.68631: L2-Pf-HR :0.91815: L2-HR :0.89519: (Sim:0h19m29s) 
CPU  0 inst:  313000003 cyc:  185379243 now IPC :1.76721: AVG IPC :1.68655: L2-Pf-HR :0.91819: L2-HR :0.89523: (Sim:0h19m32s) 
CPU  0 inst:  314000003 cyc:  185947250 now IPC :1.76054: AVG IPC :1.68678: L2-Pf-HR :0.91822: L2-HR :0.89526: (Sim:0h19m35s) 
CPU  0 inst:  315000003 cyc:  186510642 now IPC :1.77496: AVG IPC :1.68705: L2-Pf-HR :0.91826: L2-HR :0.89530: (Sim:0h19m38s) 
CPU  0 inst:  316000000 cyc:  187295290 now IPC :1.27445: AVG IPC :1.68531: L2-Pf-HR :0.91814: L2-HR :0.89519: (Sim:0h19m41s) 
CPU  0 inst:  317000002 cyc:  187905874 now IPC :1.63778: AVG IPC :1.68516: L2-Pf-HR :0.91808: L2-HR :0.89512: (Sim:0h19m44s) 
CPU  0 inst:  318000002 cyc:  188488555 now IPC :1.71620: AVG IPC :1.68525: L2-Pf-HR :0.91803: L2-HR :0.89507: (Sim:0h19m47s) 
CPU  0 inst:  319000000 cyc:  189075513 now IPC :1.70370: AVG IPC :1.68531: L2-Pf-HR :0.91800: L2-HR :0.89504: (Sim:0h19m50s) 
CPU  0 inst:  320000000 cyc:  189666974 now IPC :1.69073: AVG IPC :1.68533: L2-Pf-HR :0.91798: L2-HR :0.89502: (Sim:0h19m53s) 
CPU  0 inst:  321000000 cyc:  190249970 now IPC :1.71528: AVG IPC :1.68542: L2-Pf-HR :0.91794: L2-HR :0.89498: (Sim:0h19m56s) 
CPU  0 inst:  322000000 cyc:  190838672 now IPC :1.69865: AVG IPC :1.68546: L2-Pf-HR :0.91792: L2-HR :0.89496: (Sim:0h20m0s) 
CPU  0 inst:  323000001 cyc:  191420543 now IPC :1.71860: AVG IPC :1.68556: L2-Pf-HR :0.91789: L2-HR :0.89493: (Sim:0h20m5s) 
CPU  0 inst:  324000000 cyc:  192016403 now IPC :1.67824: AVG IPC :1.68554: L2-Pf-HR :0.91784: L2-HR :0.89488: (Sim:0h20m9s) 
CPU  0 inst:  325000002 cyc:  192613766 now IPC :1.67403: AVG IPC :1.68550: L2-Pf-HR :0.91782: L2-HR :0.89486: (Sim:0h20m13s) 
CPU  0 inst:  326000001 cyc:  193205280 now IPC :1.69058: AVG IPC :1.68552: L2-Pf-HR :0.91780: L2-HR :0.89484: (Sim:0h20m18s) 
CPU  0 inst:  327000000 cyc:  193797632 now IPC :1.68818: AVG IPC :1.68553: L2-Pf-HR :0.91779: L2-HR :0.89482: (Sim:0h20m22s) 
CPU  0 inst:  328000000 cyc:  194616923 now IPC :1.22057: AVG IPC :1.68356: L2-Pf-HR :0.91771: L2-HR :0.89475: (Sim:0h20m26s) 
CPU  0 inst:  329000000 cyc:  195195191 now IPC :1.72930: AVG IPC :1.68370: L2-Pf-HR :0.91772: L2-HR :0.89475: (Sim:0h20m31s) 
CPU  0 inst:  330000000 cyc:  195762342 now IPC :1.76320: AVG IPC :1.68393: L2-Pf-HR :0.91773: L2-HR :0.89476: (Sim:0h20m35s) 
CPU  0 inst:  331000003 cyc:  196324734 now IPC :1.77812: AVG IPC :1.68420: L2-Pf-HR :0.91774: L2-HR :0.89478: (Sim:0h20m39s) 
CPU  0 inst:  332000000 cyc:  196895332 now IPC :1.75254: AVG IPC :1.68440: L2-Pf-HR :0.91776: L2-HR :0.89480: (Sim:0h20m42s) 
CPU  0 inst:  333000003 cyc:  197467039 now IPC :1.74915: AVG IPC :1.68459: L2-Pf-HR :0.91780: L2-HR :0.89484: (Sim:0h20m46s) 
CPU  0 inst:  334000001 cyc:  198034184 now IPC :1.76321: AVG IPC :1.68481: L2-Pf-HR :0.91780: L2-HR :0.89485: (Sim:0h20m50s) 
CPU  0 inst:  335000003 cyc:  198593813 now IPC :1.78690: AVG IPC :1.68510: L2-Pf-HR :0.91780: L2-HR :0.89485: (Sim:0h20m55s) 
CPU  0 inst:  336000000 cyc:  199157025 now IPC :1.77552: AVG IPC :1.68536: L2-Pf-HR :0.91779: L2-HR :0.89484: (Sim:0h20m59s) 
CPU  0 inst:  337000003 cyc:  199720549 now IPC :1.77455: AVG IPC :1.68561: L2-Pf-HR :0.91783: L2-HR :0.89488: (Sim:0h21m3s) 
CPU  0 inst:  338000002 cyc:  200290634 now IPC :1.75412: AVG IPC :1.68581: L2-Pf-HR :0.91787: L2-HR :0.89492: (Sim:0h21m7s) 
CPU  0 inst:  339000000 cyc:  200854519 now IPC :1.77341: AVG IPC :1.68605: L2-Pf-HR :0.91793: L2-HR :0.89497: (Sim:0h21m12s) 
CPU  0 inst:  340000000 cyc:  201566930 now IPC :1.40368: AVG IPC :1.68505: L2-Pf-HR :0.91792: L2-HR :0.89496: (Sim:0h21m16s) 
CPU  0 inst:  341000002 cyc:  202137828 now IPC :1.75163: AVG IPC :1.68524: L2-Pf-HR :0.91793: L2-HR :0.89496: (Sim:0h21m21s) 
CPU  0 inst:  342000001 cyc:  202706956 now IPC :1.75707: AVG IPC :1.68544: L2-Pf-HR :0.91797: L2-HR :0.89500: (Sim:0h21m25s) 
CPU  0 inst:  343000000 cyc:  203280567 now IPC :1.74334: AVG IPC :1.68561: L2-Pf-HR :0.91803: L2-HR :0.89507: (Sim:0h21m29s) 
CPU  0 inst:  344000000 cyc:  203844796 now IPC :1.77233: AVG IPC :1.68585: L2-Pf-HR :0.91806: L2-HR :0.89510: (Sim:0h21m34s) 
CPU  0 inst:  345000000 cyc:  204405046 now IPC :1.78492: AVG IPC :1.68612: L2-Pf-HR :0.91807: L2-HR :0.89511: (Sim:0h21m38s) 
CPU  0 inst:  346000000 cyc:  204968018 now IPC :1.77629: AVG IPC :1.68637: L2-Pf-HR :0.91811: L2-HR :0.89515: (Sim:0h21m41s) 
CPU  0 inst:  347000000 cyc:  205532855 now IPC :1.77042: AVG IPC :1.68660: L2-Pf-HR :0.91816: L2-HR :0.89520: (Sim:0h21m45s) 
CPU  0 inst:  348000000 cyc:  206343591 now IPC :1.23345: AVG IPC :1.68481: L2-Pf-HR :0.91799: L2-HR :0.89503: (Sim:0h21m49s) 
CPU  0 inst:  349000001 cyc:  206921131 now IPC :1.73148: AVG IPC :1.68494: L2-Pf-HR :0.91794: L2-HR :0.89498: (Sim:0h21m54s) 
CPU  0 inst:  350000003 cyc:  207506723 now IPC :1.70768: AVG IPC :1.68501: L2-Pf-HR :0.91790: L2-HR :0.89494: (Sim:0h21m58s) 
CPU  0 inst:  351000002 cyc:  208086643 now IPC :1.72437: AVG IPC :1.68512: L2-Pf-HR :0.91786: L2-HR :0.89490: (Sim:0h22m2s) 
CPU  0 inst:  352000000 cyc:  208658520 now IPC :1.74862: AVG IPC :1.68529: L2-Pf-HR :0.91784: L2-HR :0.89488: (Sim:0h22m6s) 
CPU  0 inst:  353000003 cyc:  209241619 now IPC :1.71498: AVG IPC :1.68538: L2-Pf-HR :0.91782: L2-HR :0.89486: (Sim:0h22m11s) 
CPU  0 inst:  354000000 cyc:  209812466 now IPC :1.75178: AVG IPC :1.68556: L2-Pf-HR :0.91777: L2-HR :0.89482: (Sim:0h22m15s) 
CPU  0 inst:  355000003 cyc:  210402280 now IPC :1.69545: AVG IPC :1.68559: L2-Pf-HR :0.91775: L2-HR :0.89479: (Sim:0h22m19s) 
CPU  0 inst:  356000000 cyc:  210991524 now IPC :1.69708: AVG IPC :1.68562: L2-Pf-HR :0.91771: L2-HR :0.89475: (Sim:0h22m23s) 
CPU  0 inst:  357000000 cyc:  211573024 now IPC :1.71969: AVG IPC :1.68571: L2-Pf-HR :0.91768: L2-HR :0.89472: (Sim:0h22m28s) 
CPU  0 inst:  358000000 cyc:  212167512 now IPC :1.68212: AVG IPC :1.68570: L2-Pf-HR :0.91766: L2-HR :0.89470: (Sim:0h22m32s) 
CPU  0 inst:  359000002 cyc:  212750050 now IPC :1.71663: AVG IPC :1.68579: L2-Pf-HR :0.91770: L2-HR :0.89473: (Sim:0h22m36s) 
CPU  0 inst:  360000000 cyc:  213575803 now IPC :1.21101: AVG IPC :1.68394: L2-Pf-HR :0.91759: L2-HR :0.89462: (Sim:0h22m41s) 
CPU  0 inst:  361000003 cyc:  214131739 now IPC :1.79877: AVG IPC :1.68424: L2-Pf-HR :0.91757: L2-HR :0.89461: (Sim:0h22m45s) 
CPU  0 inst:  362000000 cyc:  214690775 now IPC :1.78879: AVG IPC :1.68452: L2-Pf-HR :0.91756: L2-HR :0.89459: (Sim:0h22m49s) 
CPU  0 inst:  363000001 cyc:  215252353 now IPC :1.78070: AVG IPC :1.68477: L2-Pf-HR :0.91758: L2-HR :0.89462: (Sim:0h22m53s) 
CPU  0 inst:  364000000 cyc:  215818247 now IPC :1.76711: AVG IPC :1.68499: L2-Pf-HR :0.91760: L2-HR :0.89465: (Sim:0h22m58s) 
CPU  0 inst:  365000002 cyc:  216385510 now IPC :1.76285: AVG IPC :1.68519: L2-Pf-HR :0.91764: L2-HR :0.89468: (Sim:0h23m2s) 
CPU  0 inst:  366000001 cyc:  216944344 now IPC :1.78944: AVG IPC :1.68546: L2-Pf-HR :0.91765: L2-HR :0.89471: (Sim:0h23m6s) 
CPU  0 inst:  367000000 cyc:  217499293 now IPC :1.80197: AVG IPC :1.68576: L2-Pf-HR :0.91767: L2-HR :0.89472: (Sim:0h23m10s) 
CPU  0 inst:  368000000 cyc:  218062860 now IPC :1.77441: AVG IPC :1.68599: L2-Pf-HR :0.91767: L2-HR :0.89473: (Sim:0h23m14s) 
CPU  0 inst:  369000000 cyc:  218630108 now IPC :1.76290: AVG IPC :1.68619: L2-Pf-HR :0.91769: L2-HR :0.89475: (Sim:0h23m19s) 
CPU  0 inst:  370000002 cyc:  219191540 now IPC :1.78116: AVG IPC :1.68643: L2-Pf-HR :0.91772: L2-HR :0.89478: (Sim:0h23m23s) 
CPU  0 inst:  371000001 cyc:  219781229 now IPC :1.69581: AVG IPC :1.68646: L2-Pf-HR :0.91778: L2-HR :0.89484: (Sim:0h23m27s) 
CPU  0 inst:  372000000 cyc:  220467803 now IPC :1.45651: AVG IPC :1.68574: L2-Pf-HR :0.91778: L2-HR :0.89483: (Sim:0h23m31s) 
CPU  0 inst:  373000000 cyc:  221036742 now IPC :1.75766: AVG IPC :1.68593: L2-Pf-HR :0.91782: L2-HR :0.89487: (Sim:0h23m36s) 
CPU  0 inst:  374000000 cyc:  221602376 now IPC :1.76793: AVG IPC :1.68614: L2-Pf-HR :0.91787: L2-HR :0.89492: (Sim:0h23m40s) 
CPU  0 inst:  375000000 cyc:  222169840 now IPC :1.76223: AVG IPC :1.68633: L2-Pf-HR :0.91791: L2-HR :0.89496: (Sim:0h23m44s) 
CPU  0 inst:  376000000 cyc:  222738334 now IPC :1.75903: AVG IPC :1.68652: L2-Pf-HR :0.91794: L2-HR :0.89500: (Sim:0h23m48s) 
CPU  0 inst:  377000003 cyc:  223302697 now IPC :1.77191: AVG IPC :1.68673: L2-Pf-HR :0.91797: L2-HR :0.89503: (Sim:0h23m53s) 
CPU  0 inst:  378000002 cyc:  223865878 now IPC :1.77563: AVG IPC :1.68696: L2-Pf-HR :0.91801: L2-HR :0.89507: (Sim:0h23m57s) 
CPU  0 inst:  379000002 cyc:  224610212 now IPC :1.34348: AVG IPC :1.68582: L2-Pf-HR :0.91795: L2-HR :0.89501: (Sim:0h24m1s) 
CPU  0 inst:  380000000 cyc:  225254552 now IPC :1.55197: AVG IPC :1.68543: L2-Pf-HR :0.91789: L2-HR :0.89495: (Sim:0h24m6s) 
CPU  0 inst:  381000000 cyc:  225846008 now IPC :1.69074: AVG IPC :1.68545: L2-Pf-HR :0.91786: L2-HR :0.89491: (Sim:0h24m10s) 
CPU  0 inst:  382000002 cyc:  226440084 now IPC :1.68329: AVG IPC :1.68544: L2-Pf-HR :0.91784: L2-HR :0.89490: (Sim:0h24m14s) 
CPU  0 inst:  383000000 cyc:  227025535 now IPC :1.70808: AVG IPC :1.68550: L2-Pf-HR :0.91783: L2-HR :0.89489: (Sim:0h24m18s) 
CPU  0 inst:  384000000 cyc:  227622830 now IPC :1.67421: AVG IPC :1.68547: L2-Pf-HR :0.91781: L2-HR :0.89486: (Sim:0h24m23s) 
CPU  0 inst:  385000003 cyc:  228212740 now IPC :1.69518: AVG IPC :1.68549: L2-Pf-HR :0.91779: L2-HR :0.89484: (Sim:0h24m27s) 
CPU  0 inst:  386000000 cyc:  228811191 now IPC :1.67098: AVG IPC :1.68546: L2-Pf-HR :0.91777: L2-HR :0.89482: (Sim:0h24m31s) 
CPU  0 inst:  387000001 cyc:  229415669 now IPC :1.65432: AVG IPC :1.68537: L2-Pf-HR :0.91775: L2-HR :0.89480: (Sim:0h24m35s) 
CPU  0 inst:  388000000 cyc:  230011550 now IPC :1.67819: AVG IPC :1.68535: L2-Pf-HR :0.91774: L2-HR :0.89479: (Sim:0h24m40s) 
CPU  0 inst:  389000000 cyc:  230611743 now IPC :1.66613: AVG IPC :1.68530: L2-Pf-HR :0.91773: L2-HR :0.89478: (Sim:0h24m44s) 
CPU  0 inst:  390000001 cyc:  231207285 now IPC :1.67914: AVG IPC :1.68529: L2-Pf-HR :0.91771: L2-HR :0.89475: (Sim:0h24m48s) 
CPU  0 inst:  391000003 cyc:  232001317 now IPC :1.25940: AVG IPC :1.68382: L2-Pf-HR :0.91765: L2-HR :0.89470: (Sim:0h24m53s) 
CPU  0 inst:  392000000 cyc:  232614367 now IPC :1.63118: AVG IPC :1.68369: L2-Pf-HR :0.91764: L2-HR :0.89469: (Sim:0h24m57s) 
CPU  0 inst:  393000002 cyc:  233182227 now IPC :1.76100: AVG IPC :1.68387: L2-Pf-HR :0.91765: L2-HR :0.89469: (Sim:0h25m1s) 
CPU  0 inst:  394000003 cyc:  233751346 now IPC :1.75710: AVG IPC :1.68405: L2-Pf-HR :0.91768: L2-HR :0.89472: (Sim:0h25m6s) 
CPU  0 inst:  395000001 cyc:  234319162 now IPC :1.76113: AVG IPC :1.68424: L2-Pf-HR :0.91771: L2-HR :0.89475: (Sim:0h25m10s) 
CPU  0 inst:  396000000 cyc:  234885687 now IPC :1.76515: AVG IPC :1.68444: L2-Pf-HR :0.91774: L2-HR :0.89478: (Sim:0h25m14s) 
CPU  0 inst:  397000002 cyc:  235452017 now IPC :1.76576: AVG IPC :1.68463: L2-Pf-HR :0.91776: L2-HR :0.89481: (Sim:0h25m18s) 
CPU  0 inst:  398000001 cyc:  236015180 now IPC :1.77568: AVG IPC :1.68485: L2-Pf-HR :0.91776: L2-HR :0.89481: (Sim:0h25m22s) 
CPU  0 inst:  399000000 cyc:  236578721 now IPC :1.77449: AVG IPC :1.68507: L2-Pf-HR :0.91775: L2-HR :0.89480: (Sim:0h25m27s) 
CPU  0 inst:  400000000 cyc:  237145112 now IPC :1.76556: AVG IPC :1.68526: L2-Pf-HR :0.91777: L2-HR :0.89483: (Sim:0h25m30s) 
CPU  0 inst:  401000000 cyc:  237714335 now IPC :1.75678: AVG IPC :1.68543: L2-Pf-HR :0.91780: L2-HR :0.89485: (Sim:0h25m33s) 
CPU  0 inst:  402000003 cyc:  238278876 now IPC :1.77136: AVG IPC :1.68564: L2-Pf-HR :0.91784: L2-HR :0.89489: (Sim:0h25m36s) 
CPU  0 inst:  403000003 cyc:  238989339 now IPC :1.40753: AVG IPC :1.68481: L2-Pf-HR :0.91784: L2-HR :0.89488: (Sim:0h25m39s) 
CPU  0 inst:  404000000 cyc:  239554804 now IPC :1.76845: AVG IPC :1.68500: L2-Pf-HR :0.91783: L2-HR :0.89488: (Sim:0h25m42s) 
CPU  0 inst:  405000000 cyc:  240116435 now IPC :1.78053: AVG IPC :1.68523: L2-Pf-HR :0.91786: L2-HR :0.89491: (Sim:0h25m46s) 
CPU  0 inst:  406000003 cyc:  240684909 now IPC :1.75910: AVG IPC :1.68540: L2-Pf-HR :0.91790: L2-HR :0.89495: (Sim:0h25m49s) 
CPU  0 inst:  407000001 cyc:  241250764 now IPC :1.76723: AVG IPC :1.68560: L2-Pf-HR :0.91794: L2-HR :0.89499: (Sim:0h25m52s) 
CPU  0 inst:  408000000 cyc:  241815476 now IPC :1.77081: AVG IPC :1.68580: L2-Pf-HR :0.91797: L2-HR :0.89502: (Sim:0h25m55s) 
CPU  0 inst:  409000001 cyc:  242383569 now IPC :1.76028: AVG IPC :1.68597: L2-Pf-HR :0.91801: L2-HR :0.89507: (Sim:0h25m58s) 
CPU  0 inst:  410000001 cyc:  242946618 now IPC :1.77604: AVG IPC :1.68618: L2-Pf-HR :0.91806: L2-HR :0.89511: (Sim:0h26m1s) 
CPU  0 inst:  411000001 cyc:  243751293 now IPC :1.24274: AVG IPC :1.68471: L2-Pf-HR :0.91794: L2-HR :0.89499: (Sim:0h26m5s) 
CPU  0 inst:  412000000 cyc:  244345193 now IPC :1.68378: AVG IPC :1.68471: L2-Pf-HR :0.91790: L2-HR :0.89495: (Sim:0h26m10s) 
CPU  0 inst:  413000000 cyc:  244930533 now IPC :1.70841: AVG IPC :1.68477: L2-Pf-HR :0.91786: L2-HR :0.89491: (Sim:0h26m14s) 
CPU  0 inst:  414000003 cyc:  245508860 now IPC :1.72913: AVG IPC :1.68487: L2-Pf-HR :0.91784: L2-HR :0.89489: (Sim:0h26m18s) 
CPU  0 inst:  415000003 cyc:  246094901 now IPC :1.70637: AVG IPC :1.68492: L2-Pf-HR :0.91783: L2-HR :0.89488: (Sim:0h26m23s) 
CPU  0 inst:  416000000 cyc:  246680648 now IPC :1.70722: AVG IPC :1.68497: L2-Pf-HR :0.91780: L2-HR :0.89485: (Sim:0h26m27s) 
CPU  0 inst:  417000000 cyc:  247280927 now IPC :1.66589: AVG IPC :1.68493: L2-Pf-HR :0.91776: L2-HR :0.89482: (Sim:0h26m31s) 
CPU  0 inst:  418000000 cyc:  247875411 now IPC :1.68213: AVG IPC :1.68492: L2-Pf-HR :0.91774: L2-HR :0.89480: (Sim:0h26m36s) 
CPU  0 inst:  419000003 cyc:  248468624 now IPC :1.68574: AVG IPC :1.68492: L2-Pf-HR :0.91771: L2-HR :0.89477: (Sim:0h26m40s) 
CPU  0 inst:  420000000 cyc:  249060607 now IPC :1.68923: AVG IPC :1.68493: L2-Pf-HR :0.91771: L2-HR :0.89476: (Sim:0h26m44s) 
CPU  0 inst:  421000003 cyc:  249646863 now IPC :1.70574: AVG IPC :1.68498: L2-Pf-HR :0.91769: L2-HR :0.89474: (Sim:0h26m49s) 
CPU  0 inst:  422000000 cyc:  250244887 now IPC :1.67217: AVG IPC :1.68495: L2-Pf-HR :0.91770: L2-HR :0.89475: (Sim:0h26m53s) 
CPU  0 inst:  423000003 cyc:  251066340 now IPC :1.21736: AVG IPC :1.68342: L2-Pf-HR :0.91762: L2-HR :0.89466: (Sim:0h26m58s) 
CPU  0 inst:  424000000 cyc:  251643061 now IPC :1.73394: AVG IPC :1.68353: L2-Pf-HR :0.91762: L2-HR :0.89467: (Sim:0h27m2s) 
CPU  0 inst:  425000002 cyc:  252213697 now IPC :1.75243: AVG IPC :1.68369: L2-Pf-HR :0.91763: L2-HR :0.89468: (Sim:0h27m6s) 
CPU  0 inst:  426000003 cyc:  252785301 now IPC :1.74946: AVG IPC :1.68384: L2-Pf-HR :0.91765: L2-HR :0.89470: (Sim:0h27m11s) 
CPU  0 inst:  427000002 cyc:  253356017 now IPC :1.75218: AVG IPC :1.68399: L2-Pf-HR :0.91767: L2-HR :0.89472: (Sim:0h27m15s) 
CPU  0 inst:  428000000 cyc:  253925842 now IPC :1.75492: AVG IPC :1.68415: L2-Pf-HR :0.91768: L2-HR :0.89473: (Sim:0h27m19s) 
CPU  0 inst:  429000003 cyc:  254495217 now IPC :1.75632: AVG IPC :1.68431: L2-Pf-HR :0.91768: L2-HR :0.89474: (Sim:0h27m23s) 
CPU  0 inst:  430000000 cyc:  255063138 now IPC :1.76080: AVG IPC :1.68449: L2-Pf-HR :0.91770: L2-HR :0.89476: (Sim:0h27m28s) 
CPU  0 inst:  431000003 cyc:  255629239 now IPC :1.76647: AVG IPC :1.68467: L2-Pf-HR :0.91771: L2-HR :0.89477: (Sim:0h27m32s) 
CPU  0 inst:  432000000 cyc:  256198557 now IPC :1.75648: AVG IPC :1.68483: L2-Pf-HR :0.91773: L2-HR :0.89479: (Sim:0h27m36s) 
CPU  0 inst:  433000002 cyc:  256763633 now IPC :1.76968: AVG IPC :1.68502: L2-Pf-HR :0.91775: L2-HR :0.89481: (Sim:0h27m40s) 
CPU  0 inst:  434000001 cyc:  257332502 now IPC :1.75787: AVG IPC :1.68518: L2-Pf-HR :0.91781: L2-HR :0.89487: (Sim:0h27m45s) 
CPU  0 inst:  435000001 cyc:  258040528 now IPC :1.41238: AVG IPC :1.68443: L2-Pf-HR :0.91779: L2-HR :0.89485: (Sim:0h27m48s) 
CPU  0 inst:  436000000 cyc:  258597770 now IPC :1.79455: AVG IPC :1.68466: L2-Pf-HR :0.91781: L2-HR :0.89488: (Sim:0h27m51s) 
CPU  0 inst:  437000002 cyc:  259158054 now IPC :1.78481: AVG IPC :1.68488: L2-Pf-HR :0.91784: L2-HR :0.89491: (Sim:0h27m54s) 
CPU  0 inst:  438000003 cyc:  259723357 now IPC :1.76896: AVG IPC :1.68506: L2-Pf-HR :0.91787: L2-HR :0.89494: (Sim:0h27m57s) 
CPU  0 inst:  439000001 cyc:  260284602 now IPC :1.78175: AVG IPC :1.68527: L2-Pf-HR :0.91789: L2-HR :0.89496: (Sim:0h28m0s) 
CPU  0 inst:  440000000 cyc:  260848996 now IPC :1.77181: AVG IPC :1.68546: L2-Pf-HR :0.91790: L2-HR :0.89497: (Sim:0h28m3s) 
CPU  0 inst:  441000001 cyc:  261414827 now IPC :1.76731: AVG IPC :1.68564: L2-Pf-HR :0.91794: L2-HR :0.89501: (Sim:0h28m5s) 
CPU  0 inst:  442000000 cyc:  262055213 now IPC :1.56156: AVG IPC :1.68534: L2-Pf-HR :0.91797: L2-HR :0.89505: (Sim:0h28m8s) 
CPU  0 inst:  443000003 cyc:  262808120 now IPC :1.32819: AVG IPC :1.68431: L2-Pf-HR :0.91785: L2-HR :0.89493: (Sim:0h28m11s) 
CPU  0 inst:  444000000 cyc:  263397899 now IPC :1.69555: AVG IPC :1.68433: L2-Pf-HR :0.91783: L2-HR :0.89490: (Sim:0h28m14s) 
CPU  0 inst:  445000003 cyc:  263976647 now IPC :1.72787: AVG IPC :1.68443: L2-Pf-HR :0.91781: L2-HR :0.89488: (Sim:0h28m17s) 
CPU  0 inst:  446000003 cyc:  264558491 now IPC :1.71867: AVG IPC :1.68451: L2-Pf-HR :0.91779: L2-HR :0.89486: (Sim:0h28m20s) 
CPU  0 inst:  447000000 cyc:  265137851 now IPC :1.72604: AVG IPC :1.68460: L2-Pf-HR :0.91777: L2-HR :0.89484: (Sim:0h28m23s) 
CPU  0 inst:  448000000 cyc:  265736135 now IPC :1.67145: AVG IPC :1.68457: L2-Pf-HR :0.91777: L2-HR :0.89484: (Sim:0h28m26s) 
CPU  0 inst:  449000001 cyc:  266327495 now IPC :1.69102: AVG IPC :1.68458: L2-Pf-HR :0.91775: L2-HR :0.89482: (Sim:0h28m29s) 
CPU  0 inst:  450000003 cyc:  266906347 now IPC :1.72756: AVG IPC :1.68467: L2-Pf-HR :0.91773: L2-HR :0.89480: (Sim:0h28m32s) 
CPU  0 inst:  451000001 cyc:  267500213 now IPC :1.68388: AVG IPC :1.68467: L2-Pf-HR :0.91772: L2-HR :0.89478: (Sim:0h28m35s) 
CPU  0 inst:  452000000 cyc:  268091821 now IPC :1.69031: AVG IPC :1.68469: L2-Pf-HR :0.91770: L2-HR :0.89476: (Sim:0h28m38s) 
CPU  0 inst:  453000003 cyc:  268694483 now IPC :1.65931: AVG IPC :1.68463: L2-Pf-HR :0.91768: L2-HR :0.89474: (Sim:0h28m41s) 
CPU  0 inst:  454000001 cyc:  269456216 now IPC :1.31279: AVG IPC :1.68357: L2-Pf-HR :0.91765: L2-HR :0.89471: (Sim:0h28m44s) 
CPU  0 inst:  455000002 cyc:  270100244 now IPC :1.55273: AVG IPC :1.68326: L2-Pf-HR :0.91762: L2-HR :0.89467: (Sim:0h28m47s) 
CPU  0 inst:  456000000 cyc:  270671567 now IPC :1.75032: AVG IPC :1.68340: L2-Pf-HR :0.91761: L2-HR :0.89467: (Sim:0h28m50s) 
CPU  0 inst:  457000001 cyc:  271239527 now IPC :1.76069: AVG IPC :1.68356: L2-Pf-HR :0.91761: L2-HR :0.89467: (Sim:0h28m53s) 
CPU  0 inst:  458000000 cyc:  271804461 now IPC :1.77012: AVG IPC :1.68375: L2-Pf-HR :0.91763: L2-HR :0.89469: (Sim:0h28m55s) 
CPU  0 inst:  459000002 cyc:  272369555 now IPC :1.76962: AVG IPC :1.68392: L2-Pf-HR :0.91766: L2-HR :0.89472: (Sim:0h28m58s) 
CPU  0 inst:  460000000 cyc:  272941235 now IPC :1.74923: AVG IPC :1.68406: L2-Pf-HR :0.91768: L2-HR :0.89475: (Sim:0h29m1s) 
CPU  0 inst:  461000000 cyc:  273510232 now IPC :1.75748: AVG IPC :1.68421: L2-Pf-HR :0.91770: L2-HR :0.89477: (Sim:0h29m4s) 
CPU  0 inst:  462000001 cyc:  274078764 now IPC :1.75892: AVG IPC :1.68437: L2-Pf-HR :0.91771: L2-HR :0.89478: (Sim:0h29m7s) 
CPU  0 inst:  463000002 cyc:  274647083 now IPC :1.75958: AVG IPC :1.68453: L2-Pf-HR :0.91772: L2-HR :0.89479: (Sim:0h29m10s) 
CPU  0 inst:  464000000 cyc:  275208940 now IPC :1.77981: AVG IPC :1.68472: L2-Pf-HR :0.91774: L2-HR :0.89481: (Sim:0h29m13s) 
CPU  0 inst:  465000000 cyc:  275770004 now IPC :1.78233: AVG IPC :1.68492: L2-Pf-HR :0.91778: L2-HR :0.89486: (Sim:0h29m16s) 
CPU  0 inst:  466000002 cyc:  276481239 now IPC :1.40601: AVG IPC :1.68420: L2-Pf-HR :0.91779: L2-HR :0.89486: (Sim:0h29m19s) 
CPU  0 inst:  467000003 cyc:  277047897 now IPC :1.76473: AVG IPC :1.68437: L2-Pf-HR :0.91779: L2-HR :0.89485: (Sim:0h29m21s) 
CPU  0 inst:  468000000 cyc:  277603629 now IPC :1.79942: AVG IPC :1.68460: L2-Pf-HR :0.91780: L2-HR :0.89487: (Sim:0h29m24s) 
CPU  0 inst:  469000001 cyc:  278167185 now IPC :1.77445: AVG IPC :1.68478: L2-Pf-HR :0.91783: L2-HR :0.89490: (Sim:0h29m27s) 
CPU  0 inst:  470000001 cyc:  278732334 now IPC :1.76944: AVG IPC :1.68495: L2-Pf-HR :0.91785: L2-HR :0.89492: (Sim:0h29m30s) 
CPU  0 inst:  471000001 cyc:  279296571 now IPC :1.77230: AVG IPC :1.68513: L2-Pf-HR :0.91788: L2-HR :0.89495: (Sim:0h29m33s) 
CPU  0 inst:  472000000 cyc:  279858345 now IPC :1.78007: AVG IPC :1.68532: L2-Pf-HR :0.91791: L2-HR :0.89498: (Sim:0h29m36s) 
CPU  0 inst:  473000000 cyc:  280421684 now IPC :1.77513: AVG IPC :1.68550: L2-Pf-HR :0.91794: L2-HR :0.89501: (Sim:0h29m39s) 
CPU  0 inst:  474000002 cyc:  281224317 now IPC :1.24590: AVG IPC :1.68424: L2-Pf-HR :0.91784: L2-HR :0.89492: (Sim:0h29m42s) 
CPU  0 inst:  475000000 cyc:  281806032 now IPC :1.71905: AVG IPC :1.68431: L2-Pf-HR :0.91782: L2-HR :0.89489: (Sim:0h29m45s) 
CPU  0 inst:  476000000 cyc:  282383933 now IPC :1.73040: AVG IPC :1.68441: L2-Pf-HR :0.91780: L2-HR :0.89486: (Sim:0h29m48s) 
CPU  0 inst:  477000000 cyc:  282965118 now IPC :1.72062: AVG IPC :1.68448: L2-Pf-HR :0.91779: L2-HR :0.89486: (Sim:0h29m51s) 
CPU  0 inst:  478000000 cyc:  283549044 now IPC :1.71255: AVG IPC :1.68454: L2-Pf-HR :0.91778: L2-HR :0.89484: (Sim:0h29m54s) 
CPU  0 inst:  479000002 cyc:  284131331 now IPC :1.71737: AVG IPC :1.68461: L2-Pf-HR :0.91776: L2-HR :0.89483: (Sim:0h29m56s) 
CPU  0 inst:  480000000 cyc:  284722589 now IPC :1.69131: AVG IPC :1.68462: L2-Pf-HR :0.91776: L2-HR :0.89482: (Sim:0h29m59s) 
CPU  0 inst:  481000002 cyc:  285302689 now IPC :1.72384: AVG IPC :1.68470: L2-Pf-HR :0.91775: L2-HR :0.89481: (Sim:0h30m2s) 
CPU  0 inst:  482000001 cyc:  285894183 now IPC :1.69063: AVG IPC :1.68472: L2-Pf-HR :0.91773: L2-HR :0.89480: (Sim:0h30m5s) 
CPU  0 inst:  483000000 cyc:  286480537 now IPC :1.70545: AVG IPC :1.68476: L2-Pf-HR :0.91774: L2-HR :0.89480: (Sim:0h30m8s) 
CPU  0 inst:  484000000 cyc:  287079986 now IPC :1.66820: AVG IPC :1.68472: L2-Pf-HR :0.91773: L2-HR :0.89478: (Sim:0h30m11s) 
CPU  0 inst:  485000003 cyc:  287673398 now IPC :1.68517: AVG IPC :1.68472: L2-Pf-HR :0.91773: L2-HR :0.89478: (Sim:0h30m14s) 
CPU  0 inst:  486000000 cyc:  288496974 now IPC :1.21421: AVG IPC :1.68338: L2-Pf-HR :0.91765: L2-HR :0.89471: (Sim:0h30m17s) 
CPU  0 inst:  487000001 cyc:  289075463 now IPC :1.72864: AVG IPC :1.68347: L2-Pf-HR :0.91766: L2-HR :0.89471: (Sim:0h30m20s) 
CPU  0 inst:  488000000 cyc:  289647904 now IPC :1.74690: AVG IPC :1.68359: L2-Pf-HR :0.91766: L2-HR :0.89472: (Sim:0h30m23s) 
CPU  0 inst:  489000002 cyc:  290216218 now IPC :1.75959: AVG IPC :1.68374: L2-Pf-HR :0.91768: L2-HR :0.89474: (Sim:0h30m26s) 
CPU  0 inst:  490000000 cyc:  290779991 now IPC :1.77376: AVG IPC :1.68392: L2-Pf-HR :0.91770: L2-HR :0.89476: (Sim:0h30m28s) 
CPU  0 inst:  491000003 cyc:  291348956 now IPC :1.75758: AVG IPC :1.68406: L2-Pf-HR :0.91771: L2-HR :0.89477: (Sim:0h30m32s) 
CPU  0 inst:  492000000 cyc:  291917882 now IPC :1.75769: AVG IPC :1.68421: L2-Pf-HR :0.91773: L2-HR :0.89479: (Sim:0h30m37s) 
CPU  0 inst:  493000000 cyc:  292489163 now IPC :1.75045: AVG IPC :1.68434: L2-Pf-HR :0.91773: L2-HR :0.89480: (Sim:0h30m41s) 
CPU  0 inst:  494000002 cyc:  293060477 now IPC :1.75035: AVG IPC :1.68447: L2-Pf-HR :0.91773: L2-HR :0.89480: (Sim:0h30m45s) 
CPU  0 inst:  495000001 cyc:  293628685 now IPC :1.75992: AVG IPC :1.68461: L2-Pf-HR :0.91776: L2-HR :0.89482: (Sim:0h30m49s) 
CPU  0 inst:  496000000 cyc:  294194816 now IPC :1.76637: AVG IPC :1.68477: L2-Pf-HR :0.91778: L2-HR :0.89485: (Sim:0h30m53s) 
CPU  0 inst:  497000002 cyc:  294756368 now IPC :1.78078: AVG IPC :1.68495: L2-Pf-HR :0.91783: L2-HR :0.89489: (Sim:0h30m56s) 
CPU  0 inst:  498000000 cyc:  295478199 now IPC :1.38536: AVG IPC :1.68422: L2-Pf-HR :0.91781: L2-HR :0.89487: (Sim:0h30m59s) 
CPU  0 inst:  499000000 cyc:  296052094 now IPC :1.74248: AVG IPC :1.68433: L2-Pf-HR :0.91784: L2-HR :0.89490: (Sim:0h31m2s) 
CPU  0 inst:  500000000 cyc:  296621478 now IPC :1.75628: AVG IPC :1.68447: L2-Pf-HR :0.91787: L2-HR :0.89493: (Sim:0h31m4s) 
CPU  0 inst:  501000001 cyc:  297190239 now IPC :1.75821: AVG IPC :1.68461: L2-Pf-HR :0.91790: L2-HR :0.89496: (Sim:0h31m7s) 
CPU  0 inst:  502000000 cyc:  297755168 now IPC :1.77013: AVG IPC :1.68477: L2-Pf-HR :0.91793: L2-HR :0.89499: (Sim:0h31m10s) 
CPU  0 inst:  503000000 cyc:  298323591 now IPC :1.75925: AVG IPC :1.68492: L2-Pf-HR :0.91794: L2-HR :0.89500: (Sim:0h31m13s) 
CPU  0 inst:  504000000 cyc:  298887455 now IPC :1.77348: AVG IPC :1.68508: L2-Pf-HR :0.91797: L2-HR :0.89503: (Sim:0h31m16s) 
CPU  0 inst:  505000002 cyc:  299451654 now IPC :1.77243: AVG IPC :1.68525: L2-Pf-HR :0.91802: L2-HR :0.89508: (Sim:0h31m20s) 
CPU  0 inst:  506000000 cyc:  304931520 now IPC :0.18249: AVG IPC :1.65816: L2-Pf-HR :0.91588: L2-HR :0.89327: (Sim:0h31m33s) 
CPU  0 inst:  507000002 cyc:  311379568 now IPC :0.15509: AVG IPC :1.62693: L2-Pf-HR :0.91348: L2-HR :0.89129: (Sim:0h31m49s) 
CPU  0 inst:  508000000 cyc:  317838569 now IPC :0.15482: AVG IPC :1.59693: L2-Pf-HR :0.91109: L2-HR :0.88934: (Sim:0h32m5s) 
CPU  0 inst:  509000003 cyc:  324289765 now IPC :0.15501: AVG IPC :1.56815: L2-Pf-HR :0.90872: L2-HR :0.88741: (Sim:0h32m21s) 
CPU  0 inst:  510000000 cyc:  330746514 now IPC :0.15488: AVG IPC :1.54048: L2-Pf-HR :0.90636: L2-HR :0.88549: (Sim:0h32m37s) 
CPU  0 inst:  511000000 cyc:  337207775 now IPC :0.15477: AVG IPC :1.51385: L2-Pf-HR :0.90402: L2-HR :0.88360: (Sim:0h32m53s) 
CPU  0 inst:  512000000 cyc:  343670501 now IPC :0.15473: AVG IPC :1.48822: L2-Pf-HR :0.90169: L2-HR :0.88173: (Sim:0h33m3s) 
CPU  0 inst:  513000001 cyc:  350130684 now IPC :0.15479: AVG IPC :1.46355: L2-Pf-HR :0.89937: L2-HR :0.87988: (Sim:0h33m13s) 
CPU  0 inst:  514000000 cyc:  356594241 now IPC :0.15471: AVG IPC :1.43976: L2-Pf-HR :0.89707: L2-HR :0.87804: (Sim:0h33m23s) 
CPU  0 inst:  515000003 cyc:  361847445 now IPC :0.19036: AVG IPC :1.42157: L2-Pf-HR :0.89568: L2-HR :0.87687: (Sim:0h33m31s) 
CPU  0 inst:  516000000 cyc:  365447623 now IPC :0.27776: AVG IPC :1.41027: L2-Pf-HR :0.89554: L2-HR :0.87664: (Sim:0h33m37s) 
CPU  0 inst:  517000003 cyc:  369034717 now IPC :0.27878: AVG IPC :1.39925: L2-Pf-HR :0.89541: L2-HR :0.87641: (Sim:0h33m43s) 
CPU  0 inst:  518000000 cyc:  372615487 now IPC :0.27927: AVG IPC :1.38846: L2-Pf-HR :0.89530: L2-HR :0.87619: (Sim:0h33m52s) 
CPU  0 inst:  519000001 cyc:  376194245 now IPC :0.27943: AVG IPC :1.37788: L2-Pf-HR :0.89518: L2-HR :0.87598: (Sim:0h34m2s) 
CPU  0 inst:  520000000 cyc:  379772600 now IPC :0.27946: AVG IPC :1.36750: L2-Pf-HR :0.89506: L2-HR :0.87576: (Sim:0h34m12s) 
CPU  0 inst:  521000000 cyc:  383342892 now IPC :0.28009: AVG IPC :1.35735: L2-Pf-HR :0.89494: L2-HR :0.87555: (Sim:0h34m21s) 
CPU  0 inst:  522000003 cyc:  386915338 now IPC :0.27992: AVG IPC :1.34737: L2-Pf-HR :0.89483: L2-HR :0.87534: (Sim:0h34m30s) 
CPU  0 inst:  523000001 cyc:  390490104 now IPC :0.27974: AVG IPC :1.33758: L2-Pf-HR :0.89472: L2-HR :0.87513: (Sim:0h34m39s) 
CPU  0 inst:  524000000 cyc:  394060545 now IPC :0.28008: AVG IPC :1.32797: L2-Pf-HR :0.89461: L2-HR :0.87493: (Sim:0h34m48s) 
CPU  0 inst:  525000000 cyc:  397635390 now IPC :0.27973: AVG IPC :1.31852: L2-Pf-HR :0.89449: L2-HR :0.87471: (Sim:0h34m58s) 
CPU  0 inst:  526000000 cyc:  401210815 now IPC :0.27969: AVG IPC :1.30924: L2-Pf-HR :0.89437: L2-HR :0.87450: (Sim:0h35m7s) 
CPU  0 inst:  527000000 cyc:  404788074 now IPC :0.27954: AVG IPC :1.30012: L2-Pf-HR :0.89426: L2-HR :0.87429: (Sim:0h35m16s) 
CPU  0 inst:  528000000 cyc:  408347689 now IPC :0.28093: AVG IPC :1.29122: L2-Pf-HR :0.89415: L2-HR :0.87410: (Sim:0h35m25s) 
CPU  0 inst:  529000000 cyc:  411915360 now IPC :0.28029: AVG IPC :1.28244: L2-Pf-HR :0.89405: L2-HR :0.87389: (Sim:0h35m34s) 
CPU  0 inst:  530000001 cyc:  415500510 now IPC :0.27893: AVG IPC :1.27376: L2-Pf-HR :0.89393: L2-HR :0.87368: (Sim:0h35m44s) 
CPU  0 inst:  531000000 cyc:  419078789 now IPC :0.27946: AVG IPC :1.26525: L2-Pf-HR :0.89382: L2-HR :0.87348: (Sim:0h35m53s) 
CPU  0 inst:  532000000 cyc:  422647326 now IPC :0.28023: AVG IPC :1.25691: L2-Pf-HR :0.89371: L2-HR :0.87327: (Sim:0h36m2s) 
CPU  0 inst:  533000003 cyc:  426236514 now IPC :0.27862: AVG IPC :1.24866: L2-Pf-HR :0.89359: L2-HR :0.87306: (Sim:0h36m11s) 
CPU  0 inst:  534000003 cyc:  429821094 now IPC :0.27897: AVG IPC :1.24055: L2-Pf-HR :0.89347: L2-HR :0.87284: (Sim:0h36m21s) 
CPU  0 inst:  535000000 cyc:  433394093 now IPC :0.27988: AVG IPC :1.23261: L2-Pf-HR :0.89335: L2-HR :0.87264: (Sim:0h36m30s) 
CPU  0 inst:  536000000 cyc:  436976381 now IPC :0.27915: AVG IPC :1.22478: L2-Pf-HR :0.89324: L2-HR :0.87243: (Sim:0h36m39s) 
CPU  0 inst:  537000003 cyc:  440547888 now IPC :0.27999: AVG IPC :1.21710: L2-Pf-HR :0.89313: L2-HR :0.87223: (Sim:0h36m48s) 
CPU  0 inst:  538000003 cyc:  444107708 now IPC :0.28091: AVG IPC :1.20958: L2-Pf-HR :0.89303: L2-HR :0.87204: (Sim:0h36m58s) 
CPU  0 inst:  539000000 cyc:  447675437 now IPC :0.28029: AVG IPC :1.20216: L2-Pf-HR :0.89292: L2-HR :0.87184: (Sim:0h37m7s) 
CPU  0 inst:  540000000 cyc:  451261382 now IPC :0.27887: AVG IPC :1.19481: L2-Pf-HR :0.89280: L2-HR :0.87163: (Sim:0h37m16s) 
CPU  0 inst:  541000002 cyc:  454829271 now IPC :0.28028: AVG IPC :1.18762: L2-Pf-HR :0.89270: L2-HR :0.87143: (Sim:0h37m22s) 
CPU  0 inst:  542000000 cyc:  458402077 now IPC :0.27989: AVG IPC :1.18053: L2-Pf-HR :0.89259: L2-HR :0.87123: (Sim:0h37m28s) 
CPU  0 inst:  543000000 cyc:  461977341 now IPC :0.27970: AVG IPC :1.17354: L2-Pf-HR :0.89248: L2-HR :0.87103: (Sim:0h37m34s) 
CPU  0 inst:  544000000 cyc:  465549484 now IPC :0.27994: AVG IPC :1.16667: L2-Pf-HR :0.89237: L2-HR :0.87083: (Sim:0h37m40s) 
CPU  0 inst:  545000001 cyc:  469134576 now IPC :0.27893: AVG IPC :1.15987: L2-Pf-HR :0.89225: L2-HR :0.87063: (Sim:0h37m46s) 
CPU  0 inst:  546000000 cyc:  472704858 now IPC :0.28009: AVG IPC :1.15321: L2-Pf-HR :0.89215: L2-HR :0.87043: (Sim:0h37m52s) 
CPU  0 inst:  547000000 cyc:  476280592 now IPC :0.27966: AVG IPC :1.14664: L2-Pf-HR :0.89204: L2-HR :0.87023: (Sim:0h37m58s) 
CPU  0 inst:  548000000 cyc:  479852365 now IPC :0.27997: AVG IPC :1.14018: L2-Pf-HR :0.89193: L2-HR :0.87003: (Sim:0h38m4s) 
CPU  0 inst:  549000002 cyc:  483432194 now IPC :0.27934: AVG IPC :1.13379: L2-Pf-HR :0.89182: L2-HR :0.86983: (Sim:0h38m10s) 
CPU  0 inst:  550000003 cyc:  487011466 now IPC :0.27939: AVG IPC :1.12750: L2-Pf-HR :0.89170: L2-HR :0.86963: (Sim:0h38m16s) 
CPU  0 inst:  551000002 cyc:  490586350 now IPC :0.27973: AVG IPC :1.12131: L2-Pf-HR :0.89159: L2-HR :0.86943: (Sim:0h38m23s) 
CPU  0 inst:  552000000 cyc:  494162092 now IPC :0.27966: AVG IPC :1.11521: L2-Pf-HR :0.89148: L2-HR :0.86923: (Sim:0h38m29s) 
CPU  0 inst:  553000002 cyc:  497736975 now IPC :0.27973: AVG IPC :1.10919: L2-Pf-HR :0.89138: L2-HR :0.86904: (Sim:0h38m35s) 
CPU  0 inst:  554000003 cyc:  501308511 now IPC :0.27999: AVG IPC :1.10327: L2-Pf-HR :0.89127: L2-HR :0.86884: (Sim:0h38m41s) 
CPU  0 inst:  555000003 cyc:  504883015 now IPC :0.27976: AVG IPC :1.09743: L2-Pf-HR :0.89116: L2-HR :0.86865: (Sim:0h38m47s) 
CPU  0 inst:  556000000 cyc:  508455608 now IPC :0.27991: AVG IPC :1.09168: L2-Pf-HR :0.89105: L2-HR :0.86845: (Sim:0h38m54s) 
CPU  0 inst:  557000001 cyc:  512027104 now IPC :0.27999: AVG IPC :1.08600: L2-Pf-HR :0.89095: L2-HR :0.86826: (Sim:0h39m1s) 
CPU  0 inst:  558000002 cyc:  515596036 now IPC :0.28020: AVG IPC :1.08042: L2-Pf-HR :0.89084: L2-HR :0.86807: (Sim:0h39m7s) 
CPU  0 inst:  559000001 cyc:  519161829 now IPC :0.28044: AVG IPC :1.07491: L2-Pf-HR :0.89074: L2-HR :0.86788: (Sim:0h39m13s) 
CPU  0 inst:  560000000 cyc:  522720402 now IPC :0.28101: AVG IPC :1.06950: L2-Pf-HR :0.89065: L2-HR :0.86770: (Sim:0h39m19s) 
CPU  0 inst:  561000001 cyc:  526280632 now IPC :0.28088: AVG IPC :1.06415: L2-Pf-HR :0.89055: L2-HR :0.86752: (Sim:0h39m25s) 
CPU  0 inst:  562000002 cyc:  529861628 now IPC :0.27925: AVG IPC :1.05884: L2-Pf-HR :0.89044: L2-HR :0.86733: (Sim:0h39m31s) 
CPU  0 inst:  563000000 cyc:  533434769 now IPC :0.27987: AVG IPC :1.05361: L2-Pf-HR :0.89034: L2-HR :0.86714: (Sim:0h39m38s) 
CPU  0 inst:  564000000 cyc:  537006982 now IPC :0.27994: AVG IPC :1.04845: L2-Pf-HR :0.89024: L2-HR :0.86694: (Sim:0h39m44s) 
CPU  0 inst:  565000000 cyc:  540585112 now IPC :0.27948: AVG IPC :1.04335: L2-Pf-HR :0.89012: L2-HR :0.86675: (Sim:0h39m50s) 
CPU  0 inst:  566000001 cyc:  544161017 now IPC :0.27965: AVG IPC :1.03833: L2-Pf-HR :0.89002: L2-HR :0.86656: (Sim:0h39m59s) 
CPU  0 inst:  567000003 cyc:  547741670 now IPC :0.27928: AVG IPC :1.03336: L2-Pf-HR :0.88991: L2-HR :0.86637: (Sim:0h40m9s) 
CPU  0 inst:  568000000 cyc:  551312608 now IPC :0.28004: AVG IPC :1.02847: L2-Pf-HR :0.88981: L2-HR :0.86618: (Sim:0h40m15s) 
CPU  0 inst:  569000000 cyc:  554877533 now IPC :0.28051: AVG IPC :1.02365: L2-Pf-HR :0.88971: L2-HR :0.86600: (Sim:0h40m21s) 
CPU  0 inst:  570000002 cyc:  558454349 now IPC :0.27958: AVG IPC :1.01888: L2-Pf-HR :0.88960: L2-HR :0.86581: (Sim:0h40m27s) 
CPU  0 inst:  571000003 cyc:  562031160 now IPC :0.27958: AVG IPC :1.01417: L2-Pf-HR :0.88950: L2-HR :0.86562: (Sim:0h40m33s) 
CPU  0 inst:  572000000 cyc:  565602985 now IPC :0.27997: AVG IPC :1.00952: L2-Pf-HR :0.88940: L2-HR :0.86543: (Sim:0h40m39s) 
CPU  0 inst:  573000000 cyc:  569174978 now IPC :0.27996: AVG IPC :1.00494: L2-Pf-HR :0.88930: L2-HR :0.86525: (Sim:0h40m45s) 
CPU  0 inst:  574000000 cyc:  572755116 now IPC :0.27932: AVG IPC :1.00039: L2-Pf-HR :0.88919: L2-HR :0.86506: (Sim:0h40m51s) 
CPU  0 inst:  575000001 cyc:  576323456 now IPC :0.28024: AVG IPC :0.99593: L2-Pf-HR :0.88909: L2-HR :0.86488: (Sim:0h40m57s) 
CPU  0 inst:  576000000 cyc:  579894756 now IPC :0.28001: AVG IPC :0.99151: L2-Pf-HR :0.88899: L2-HR :0.86469: (Sim:0h41m3s) 
CPU  0 inst:  577000000 cyc:  583471832 now IPC :0.27956: AVG IPC :0.98714: L2-Pf-HR :0.88888: L2-HR :0.86450: (Sim:0h41m10s) 
CPU  0 inst:  578000001 cyc:  587045476 now IPC :0.27983: AVG IPC :0.98282: L2-Pf-HR :0.88878: L2-HR :0.86432: (Sim:0h41m19s) 
CPU  0 inst:  579000002 cyc:  590621234 now IPC :0.27966: AVG IPC :0.97856: L2-Pf-HR :0.88867: L2-HR :0.86413: (Sim:0h41m28s) 
CPU  0 inst:  580000000 cyc:  594203100 now IPC :0.27918: AVG IPC :0.97434: L2-Pf-HR :0.88857: L2-HR :0.86394: (Sim:0h41m37s) 
CPU  0 inst:  581000000 cyc:  597766307 now IPC :0.28065: AVG IPC :0.97020: L2-Pf-HR :0.88847: L2-HR :0.86376: (Sim:0h41m46s) 
CPU  0 inst:  582000003 cyc:  601349747 now IPC :0.27906: AVG IPC :0.96607: L2-Pf-HR :0.88837: L2-HR :0.86358: (Sim:0h41m55s) 
CPU  0 inst:  583000002 cyc:  604932542 now IPC :0.27911: AVG IPC :0.96200: L2-Pf-HR :0.88826: L2-HR :0.86339: (Sim:0h42m4s) 
CPU  0 inst:  584000000 cyc:  608507734 now IPC :0.27970: AVG IPC :0.95798: L2-Pf-HR :0.88815: L2-HR :0.86320: (Sim:0h42m13s) 
CPU  0 inst:  585000000 cyc:  612078362 now IPC :0.28006: AVG IPC :0.95402: L2-Pf-HR :0.88806: L2-HR :0.86302: (Sim:0h42m22s) 
CPU  0 inst:  586000000 cyc:  615651783 now IPC :0.27984: AVG IPC :0.95010: L2-Pf-HR :0.88796: L2-HR :0.86284: (Sim:0h42m31s) 
CPU  0 inst:  587000002 cyc:  619228240 now IPC :0.27961: AVG IPC :0.94622: L2-Pf-HR :0.88785: L2-HR :0.86266: (Sim:0h42m40s) 
CPU  0 inst:  588000000 cyc:  622802521 now IPC :0.27978: AVG IPC :0.94239: L2-Pf-HR :0.88775: L2-HR :0.86248: (Sim:0h42m49s) 
CPU  0 inst:  589000002 cyc:  626356021 now IPC :0.28141: AVG IPC :0.93863: L2-Pf-HR :0.88767: L2-HR :0.86232: (Sim:0h42m58s) 
CPU  0 inst:  590000001 cyc:  629933258 now IPC :0.27955: AVG IPC :0.93489: L2-Pf-HR :0.88757: L2-HR :0.86214: (Sim:0h43m7s) 
CPU  0 inst:  591000002 cyc:  633514151 now IPC :0.27926: AVG IPC :0.93117: L2-Pf-HR :0.88746: L2-HR :0.86195: (Sim:0h43m16s) 
CPU  0 inst:  592000000 cyc:  637083582 now IPC :0.28016: AVG IPC :0.92752: L2-Pf-HR :0.88736: L2-HR :0.86177: (Sim:0h43m25s) 
CPU  0 inst:  593000003 cyc:  640662297 now IPC :0.27943: AVG IPC :0.92390: L2-Pf-HR :0.88726: L2-HR :0.86159: (Sim:0h43m34s) 
CPU  0 inst:  594000000 cyc:  644242290 now IPC :0.27933: AVG IPC :0.92031: L2-Pf-HR :0.88716: L2-HR :0.86141: (Sim:0h43m42s) 
CPU  0 inst:  595000001 cyc:  647817091 now IPC :0.27974: AVG IPC :0.91677: L2-Pf-HR :0.88706: L2-HR :0.86123: (Sim:0h43m49s) 
CPU  0 inst:  596000000 cyc:  651387200 now IPC :0.28010: AVG IPC :0.91327: L2-Pf-HR :0.88696: L2-HR :0.86106: (Sim:0h43m58s) 
CPU  0 inst:  597000003 cyc:  654958365 now IPC :0.28002: AVG IPC :0.90982: L2-Pf-HR :0.88686: L2-HR :0.86088: (Sim:0h44m7s) 
CPU  0 inst:  598000000 cyc:  658527878 now IPC :0.28015: AVG IPC :0.90640: L2-Pf-HR :0.88677: L2-HR :0.86071: (Sim:0h44m16s) 
CPU  0 inst:  599000001 cyc:  662098925 now IPC :0.28003: AVG IPC :0.90301: L2-Pf-HR :0.88667: L2-HR :0.86053: (Sim:0h44m26s) 
CPU  0 inst:  600000000 cyc:  665676679 now IPC :0.27950: AVG IPC :0.89966: L2-Pf-HR :0.88657: L2-HR :0.86035: (Sim:0h44m32s) 
CPU  0 inst:  601000000 cyc:  669249656 now IPC :0.27988: AVG IPC :0.89634: L2-Pf-HR :0.88647: L2-HR :0.86018: (Sim:0h44m40s) 
CPU  0 inst:  602000000 cyc:  672817070 now IPC :0.28032: AVG IPC :0.89307: L2-Pf-HR :0.88638: L2-HR :0.86001: (Sim:0h44m49s) 
CPU  0 inst:  603000000 cyc:  676386974 now IPC :0.28012: AVG IPC :0.88983: L2-Pf-HR :0.88629: L2-HR :0.85984: (Sim:0h44m59s) 
CPU  0 inst:  604000000 cyc:  679953508 now IPC :0.28038: AVG IPC :0.88663: L2-Pf-HR :0.88620: L2-HR :0.85967: (Sim:0h45m8s) 
CPU  0 inst:  605000001 cyc:  683511208 now IPC :0.28108: AVG IPC :0.88348: L2-Pf-HR :0.88611: L2-HR :0.85951: (Sim:0h45m17s) 
CPU  0 inst:  606000000 cyc:  687093058 now IPC :0.27919: AVG IPC :0.88032: L2-Pf-HR :0.88601: L2-HR :0.85933: (Sim:0h45m26s) 
CPU  0 inst:  607000000 cyc:  690670542 now IPC :0.27953: AVG IPC :0.87720: L2-Pf-HR :0.88590: L2-HR :0.85915: (Sim:0h45m35s) 
CPU  0 inst:  608000000 cyc:  694229814 now IPC :0.28096: AVG IPC :0.87414: L2-Pf-HR :0.88582: L2-HR :0.85899: (Sim:0h45m45s) 
CPU  0 inst:  609000003 cyc:  697801713 now IPC :0.27996: AVG IPC :0.87110: L2-Pf-HR :0.88572: L2-HR :0.85881: (Sim:0h45m53s) 
CPU  0 inst:  610000003 cyc:  701372127 now IPC :0.28008: AVG IPC :0.86808: L2-Pf-HR :0.88563: L2-HR :0.85864: (Sim:0h46m2s) 
CPU  0 inst:  611000001 cyc:  704945118 now IPC :0.27988: AVG IPC :0.86510: L2-Pf-HR :0.88553: L2-HR :0.85847: (Sim:0h46m10s) 
CPU  0 inst:  612000000 cyc:  708523170 now IPC :0.27948: AVG IPC :0.86214: L2-Pf-HR :0.88543: L2-HR :0.85830: (Sim:0h46m16s) 
CPU  0 inst:  613000003 cyc:  712092359 now IPC :0.28018: AVG IPC :0.85922: L2-Pf-HR :0.88534: L2-HR :0.85813: (Sim:0h46m22s) 
CPU  0 inst:  614000003 cyc:  715668592 now IPC :0.27962: AVG IPC :0.85632: L2-Pf-HR :0.88524: L2-HR :0.85795: (Sim:0h46m28s) 
CPU  0 inst:  615000000 cyc:  719242830 now IPC :0.27978: AVG IPC :0.85345: L2-Pf-HR :0.88514: L2-HR :0.85779: (Sim:0h46m37s) 
CPU  0 inst:  616000000 cyc:  722814003 now IPC :0.28002: AVG IPC :0.85061: L2-Pf-HR :0.88505: L2-HR :0.85762: (Sim:0h46m47s) 
CPU  0 inst:  617000002 cyc:  726386811 now IPC :0.27989: AVG IPC :0.84780: L2-Pf-HR :0.88495: L2-HR :0.85745: (Sim:0h46m56s) 
CPU  0 inst:  618000000 cyc:  729965796 now IPC :0.27941: AVG IPC :0.84501: L2-Pf-HR :0.88485: L2-HR :0.85727: (Sim:0h47m5s) 
CPU  0 inst:  619000003 cyc:  733545109 now IPC :0.27938: AVG IPC :0.84225: L2-Pf-HR :0.88475: L2-HR :0.85710: (Sim:0h47m15s) 
CPU  0 inst:  620000000 cyc:  737124534 now IPC :0.27937: AVG IPC :0.83951: L2-Pf-HR :0.88466: L2-HR :0.85693: (Sim:0h47m24s) 
CPU  0 inst:  621000002 cyc:  740701862 now IPC :0.27954: AVG IPC :0.83680: L2-Pf-HR :0.88456: L2-HR :0.85676: (Sim:0h47m33s) 
CPU  0 inst:  622000000 cyc:  744277297 now IPC :0.27969: AVG IPC :0.83412: L2-Pf-HR :0.88446: L2-HR :0.85659: (Sim:0h47m43s) 
CPU  0 inst:  623000000 cyc:  747854230 now IPC :0.27957: AVG IPC :0.83146: L2-Pf-HR :0.88436: L2-HR :0.85642: (Sim:0h47m52s) 
CPU  0 inst:  624000000 cyc:  751426082 now IPC :0.27997: AVG IPC :0.82884: L2-Pf-HR :0.88427: L2-HR :0.85625: (Sim:0h48m1s) 
[...]
CPU  0 inst: 1063000000 cyc: 1073053911 now IPC :1.56002: AVG IPC :0.98967: L2-Pf-HR :0.85752: L2-HR :0.84166: (Sim:1h17m14s) 
CPU  0 inst: 1064000000 cyc: 1073638692 now IPC :1.71004: AVG IPC :0.99006: L2-Pf-HR :0.85747: L2-HR :0.84163: (Sim:1h17m18s) 
CPU  0 inst: 1065000000 cyc: 1074152262 now IPC :1.94715: AVG IPC :0.99052: L2-Pf-HR :0.85745: L2-HR :0.84163: (Sim:1h17m22s) 
CPU  0 inst: 1066000001 cyc: 1074775383 now IPC :1.60483: AVG IPC :0.99088: L2-Pf-HR :0.85740: L2-HR :0.84160: (Sim:1h17m27s) 
CPU  0 inst: 1067000000 cyc: 1075531794 now IPC :1.32203: AVG IPC :0.99111: L2-Pf-HR :0.85738: L2-HR :0.84160: (Sim:1h17m32s) 
CPU  0 inst: 1068000000 cyc: 1076082306 now IPC :1.81649: AVG IPC :0.99153: L2-Pf-HR :0.85734: L2-HR :0.84157: (Sim:1h17m36s) 
CPU  0 inst: 1069000001 cyc: 1076608057 now IPC :1.90204: AVG IPC :0.99198: L2-Pf-HR :0.85731: L2-HR :0.84156: (Sim:1h17m40s) 
CPU  0 inst: 1070000003 cyc: 1077301882 now IPC :1.44129: AVG IPC :0.99227: L2-Pf-HR :0.85719: L2-HR :0.84147: (Sim:1h17m44s) 
CPU  0 inst: 1071000002 cyc: 1077810413 now IPC :1.96645: AVG IPC :0.99273: L2-Pf-HR :0.85717: L2-HR :0.84147: (Sim:1h17m47s) 
CPU  0 inst: 1072000000 cyc: 1078427423 now IPC :1.62072: AVG IPC :0.99309: L2-Pf-HR :0.85710: L2-HR :0.84142: (Sim:1h17m50s) 
CPU  0 inst: 1073000002 cyc: 1078929235 now IPC :1.99278: AVG IPC :0.99355: L2-Pf-HR :0.85716: L2-HR :0.84149: (Sim:1h17m53s) 
CPU  0 inst: 1074000003 cyc: 1079635162 now IPC :1.41658: AVG IPC :0.99383: L2-Pf-HR :0.85710: L2-HR :0.84145: (Sim:1h17m56s) 
CPU  0 inst: 1075000000 cyc: 1080165295 now IPC :1.88631: AVG IPC :0.99427: L2-Pf-HR :0.85707: L2-HR :0.84143: (Sim:1h18m0s) 
CPU  0 inst: 1076000000 cyc: 1080813779 now IPC :1.54206: AVG IPC :0.99460: L2-Pf-HR :0.85697: L2-HR :0.84136: (Sim:1h18m4s) 
CPU  0 inst: 1077000001 cyc: 1081325999 now IPC :1.95229: AVG IPC :0.99505: L2-Pf-HR :0.85695: L2-HR :0.84136: (Sim:1h18m7s) 
CPU  0 inst: 1078000001 cyc: 1081898874 now IPC :1.74558: AVG IPC :0.99545: L2-Pf-HR :0.85690: L2-HR :0.84133: (Sim:1h18m9s) 
CPU  0 inst: 1079000001 cyc: 1082428556 now IPC :1.88793: AVG IPC :0.99589: L2-Pf-HR :0.85692: L2-HR :0.84137: (Sim:1h18m12s) 
CPU  0 inst: 1080000000 cyc: 1083100913 now IPC :1.48730: AVG IPC :0.99619: L2-Pf-HR :0.85696: L2-HR :0.84141: (Sim:1h18m16s) 
CPU  0 inst: 1081000002 cyc: 1083754494 now IPC :1.53004: AVG IPC :0.99651: L2-Pf-HR :0.85703: L2-HR :0.84149: (Sim:1h18m21s) 
CPU  0 inst: 1082000000 cyc: 1084616189 now IPC :1.16050: AVG IPC :0.99664: L2-Pf-HR :0.85701: L2-HR :0.84148: (Sim:1h18m26s) 
CPU  0 inst: 1083000000 cyc: 1085187516 now IPC :1.75031: AVG IPC :0.99704: L2-Pf-HR :0.85698: L2-HR :0.84147: (Sim:1h18m30s) 
CPU  0 inst: 1084000000 cyc: 1085742845 now IPC :1.80073: AVG IPC :0.99745: L2-Pf-HR :0.85696: L2-HR :0.84146: (Sim:1h18m34s) 
CPU  0 inst: 1085000000 cyc: 1086454261 now IPC :1.40565: AVG IPC :0.99772: L2-Pf-HR :0.85686: L2-HR :0.84139: (Sim:1h18m39s) 
CPU  0 inst: 1086000003 cyc: 1086985902 now IPC :1.88097: AVG IPC :0.99815: L2-Pf-HR :0.85685: L2-HR :0.84140: (Sim:1h18m43s) 
CPU  0 inst: 1087000002 cyc: 1087637305 now IPC :1.53515: AVG IPC :0.99847: L2-Pf-HR :0.85681: L2-HR :0.84137: (Sim:1h18m47s) 
CPU  0 inst: 1088000000 cyc: 1088172451 now IPC :1.86865: AVG IPC :0.99890: L2-Pf-HR :0.85690: L2-HR :0.84147: (Sim:1h18m51s) 
CPU  0 inst: 1089000001 cyc: 1088978810 now IPC :1.24014: AVG IPC :0.99908: L2-Pf-HR :0.85679: L2-HR :0.84138: (Sim:1h18m56s) 
CPU  0 inst: 1090000002 cyc: 1089503209 now IPC :1.90695: AVG IPC :0.99952: L2-Pf-HR :0.85675: L2-HR :0.84136: (Sim:1h19m0s) 
CPU  0 inst: 1091000002 cyc: 1090209290 now IPC :1.41627: AVG IPC :0.99979: L2-Pf-HR :0.85664: L2-HR :0.84127: (Sim:1h19m5s) 
CPU  0 inst: 1092000000 cyc: 1090721224 now IPC :1.95337: AVG IPC :1.00024: L2-Pf-HR :0.85661: L2-HR :0.84126: (Sim:1h19m9s) 
CPU  0 inst: 1093000001 cyc: 1091341192 now IPC :1.61299: AVG IPC :1.00059: L2-Pf-HR :0.85654: L2-HR :0.84122: (Sim:1h19m13s) 
CPU  0 inst: 1094000000 cyc: 1091852999 now IPC :1.95386: AVG IPC :1.00103: L2-Pf-HR :0.85658: L2-HR :0.84127: (Sim:1h19m17s) 
CPU  0 inst: 1095000001 cyc: 1092663395 now IPC :1.23397: AVG IPC :1.00121: L2-Pf-HR :0.85652: L2-HR :0.84122: (Sim:1h19m22s) 
CPU  0 inst: 1096000000 cyc: 1093191188 now IPC :1.89468: AVG IPC :1.00164: L2-Pf-HR :0.85648: L2-HR :0.84120: (Sim:1h19m26s) 
CPU  0 inst: 1097000003 cyc: 1093898132 now IPC :1.41454: AVG IPC :1.00190: L2-Pf-HR :0.85637: L2-HR :0.84112: (Sim:1h19m31s) 
CPU  0 inst: 1098000003 cyc: 1094424549 now IPC :1.89963: AVG IPC :1.00234: L2-Pf-HR :0.85634: L2-HR :0.84110: (Sim:1h19m35s) 
CPU  0 inst: 1099000001 cyc: 1094945240 now IPC :1.92052: AVG IPC :1.00277: L2-Pf-HR :0.85632: L2-HR :0.84111: (Sim:1h19m39s) 
CPU  0 inst: 1100000000 cyc: 1095559413 now IPC :1.62820: AVG IPC :1.00312: L2-Pf-HR :0.85629: L2-HR :0.84109: (Sim:1h19m43s) 
CPU  0 inst: 1101000001 cyc: 1096331030 now IPC :1.29598: AVG IPC :1.00333: L2-Pf-HR :0.85626: L2-HR :0.84108: (Sim:1h19m48s) 
CPU  0 inst: 1102000003 cyc: 1096875079 now IPC :1.83807: AVG IPC :1.00375: L2-Pf-HR :0.85622: L2-HR :0.84105: (Sim:1h19m52s) 
CPU  0 inst: 1103000001 cyc: 1097411295 now IPC :1.86492: AVG IPC :1.00417: L2-Pf-HR :0.85618: L2-HR :0.84103: (Sim:1h19m56s) 
CPU  0 inst: 1104000000 cyc: 1098103993 now IPC :1.44363: AVG IPC :1.00444: L2-Pf-HR :0.85607: L2-HR :0.84095: (Sim:1h20m1s) 
CPU  0 inst: 1105000003 cyc: 1098614306 now IPC :1.95959: AVG IPC :1.00489: L2-Pf-HR :0.85605: L2-HR :0.84095: (Sim:1h20m5s) 
CPU  0 inst: 1106000000 cyc: 1099226455 now IPC :1.63358: AVG IPC :1.00524: L2-Pf-HR :0.85600: L2-HR :0.84091: (Sim:1h20m9s) 
CPU  0 inst: 1107000003 cyc: 1099740361 now IPC :1.94589: AVG IPC :1.00568: L2-Pf-HR :0.85606: L2-HR :0.84099: (Sim:1h20m14s) 
CPU  0 inst: 1108000000 cyc: 1100452102 now IPC :1.40500: AVG IPC :1.00594: L2-Pf-HR :0.85599: L2-HR :0.84093: (Sim:1h20m18s) 
CPU  0 inst: 1109000003 cyc: 1100972045 now IPC :1.92329: AVG IPC :1.00637: L2-Pf-HR :0.85595: L2-HR :0.84091: (Sim:1h20m22s) 
CPU  0 inst: 1110000003 cyc: 1101631373 now IPC :1.51670: AVG IPC :1.00668: L2-Pf-HR :0.85587: L2-HR :0.84085: (Sim:1h20m27s) 
CPU  0 inst: 1111000000 cyc: 1102139264 now IPC :1.96892: AVG IPC :1.00712: L2-Pf-HR :0.85584: L2-HR :0.84084: (Sim:1h20m31s) 
CPU  0 inst: 1112000000 cyc: 1102738955 now IPC :1.66753: AVG IPC :1.00748: L2-Pf-HR :0.85579: L2-HR :0.84081: (Sim:1h20m35s) 
CPU  0 inst: 1113000003 cyc: 1103243254 now IPC :1.98296: AVG IPC :1.00793: L2-Pf-HR :0.85583: L2-HR :0.84087: (Sim:1h20m39s) 
CPU  0 inst: 1114000003 cyc: 1103919970 now IPC :1.47772: AVG IPC :1.00821: L2-Pf-HR :0.85588: L2-HR :0.84092: (Sim:1h20m44s) 
CPU  0 inst: 1115000001 cyc: 1104568995 now IPC :1.54077: AVG IPC :1.00853: L2-Pf-HR :0.85596: L2-HR :0.84100: (Sim:1h20m49s) 
CPU  0 inst: 1116000000 cyc: 1105435762 now IPC :1.15371: AVG IPC :1.00864: L2-Pf-HR :0.85590: L2-HR :0.84096: (Sim:1h20m54s) 
CPU  0 inst: 1117000002 cyc: 1106002586 now IPC :1.76422: AVG IPC :1.00903: L2-Pf-HR :0.85588: L2-HR :0.84095: (Sim:1h20m58s) 
CPU  0 inst: 1118000002 cyc: 1106625325 now IPC :1.60581: AVG IPC :1.00936: L2-Pf-HR :0.85581: L2-HR :0.84090: (Sim:1h21m2s) 
CPU  0 inst: 1119000001 cyc: 1107270717 now IPC :1.54944: AVG IPC :1.00968: L2-Pf-HR :0.85576: L2-HR :0.84087: (Sim:1h21m6s) 
CPU  0 inst: 1120000000 cyc: 1107804662 now IPC :1.87285: AVG IPC :1.01010: L2-Pf-HR :0.85576: L2-HR :0.84088: (Sim:1h21m10s) 
CPU  0 inst: 1121000003 cyc: 1108454810 now IPC :1.53812: AVG IPC :1.01041: L2-Pf-HR :0.85573: L2-HR :0.84087: (Sim:1h21m15s) 
CPU  0 inst: 1122000000 cyc: 1109238751 now IPC :1.27560: AVG IPC :1.01059: L2-Pf-HR :0.85573: L2-HR :0.84088: (Sim:1h21m19s) 
CPU  0 inst: 1123000000 cyc: 1109795953 now IPC :1.79468: AVG IPC :1.01099: L2-Pf-HR :0.85568: L2-HR :0.84085: (Sim:1h21m23s) 
CPU  0 inst: 1124000000 cyc: 1110318989 now IPC :1.91191: AVG IPC :1.01141: L2-Pf-HR :0.85565: L2-HR :0.84083: (Sim:1h21m27s) 
CPU  0 inst: 1125000003 cyc: 1111026309 now IPC :1.41379: AVG IPC :1.01167: L2-Pf-HR :0.85554: L2-HR :0.84074: (Sim:1h21m32s) 
CPU  0 inst: 1126000000 cyc: 1111536899 now IPC :1.95851: AVG IPC :1.01210: L2-Pf-HR :0.85552: L2-HR :0.84074: (Sim:1h21m36s) 
CPU  0 inst: 1127000001 cyc: 1112160109 now IPC :1.60460: AVG IPC :1.01244: L2-Pf-HR :0.85545: L2-HR :0.84069: (Sim:1h21m40s) 
CPU  0 inst: 1128000000 cyc: 1112664703 now IPC :1.98179: AVG IPC :1.01288: L2-Pf-HR :0.85550: L2-HR :0.84076: (Sim:1h21m45s) 
CPU  0 inst: 1129000003 cyc: 1113465154 now IPC :1.24930: AVG IPC :1.01305: L2-Pf-HR :0.85542: L2-HR :0.84069: (Sim:1h21m49s) 
CPU  0 inst: 1130000003 cyc: 1114000448 now IPC :1.86813: AVG IPC :1.01346: L2-Pf-HR :0.85539: L2-HR :0.84068: (Sim:1h21m53s) 
CPU  0 inst: 1131000000 cyc: 1114704901 now IPC :1.41954: AVG IPC :1.01372: L2-Pf-HR :0.85528: L2-HR :0.84059: (Sim:1h21m58s) 
CPU  0 inst: 1132000000 cyc: 1115224274 now IPC :1.92540: AVG IPC :1.01414: L2-Pf-HR :0.85526: L2-HR :0.84059: (Sim:1h22m1s) 
CPU  0 inst: 1133000000 cyc: 1115797884 now IPC :1.74334: AVG IPC :1.01452: L2-Pf-HR :0.85522: L2-HR :0.84056: (Sim:1h22m5s) 
CPU  0 inst: 1134000002 cyc: 1116351694 now IPC :1.80568: AVG IPC :1.01491: L2-Pf-HR :0.85522: L2-HR :0.84059: (Sim:1h22m9s) 
CPU  0 inst: 1135000003 cyc: 1117132369 now IPC :1.28094: AVG IPC :1.01509: L2-Pf-HR :0.85518: L2-HR :0.84056: (Sim:1h22m14s) 
CPU  0 inst: 1136000000 cyc: 1117675832 now IPC :1.84005: AVG IPC :1.01550: L2-Pf-HR :0.85515: L2-HR :0.84054: (Sim:1h22m18s) 
CPU  0 inst: 1137000000 cyc: 1118287898 now IPC :1.63381: AVG IPC :1.01583: L2-Pf-HR :0.85506: L2-HR :0.84047: (Sim:1h22m23s) 
CPU  0 inst: 1138000000 cyc: 1118885983 now IPC :1.67200: AVG IPC :1.01619: L2-Pf-HR :0.85501: L2-HR :0.84044: (Sim:1h22m27s) 
CPU  0 inst: 1139000003 cyc: 1119397113 now IPC :1.95646: AVG IPC :1.01662: L2-Pf-HR :0.85499: L2-HR :0.84044: (Sim:1h22m31s) 
CPU  0 inst: 1140000000 cyc: 1120005960 now IPC :1.64244: AVG IPC :1.01696: L2-Pf-HR :0.85495: L2-HR :0.84042: (Sim:1h22m36s) 
CPU  0 inst: 1141000002 cyc: 1120668215 now IPC :1.51000: AVG IPC :1.01725: L2-Pf-HR :0.85496: L2-HR :0.84045: (Sim:1h22m40s) 
CPU  0 inst: 1142000003 cyc: 1121228949 now IPC :1.78338: AVG IPC :1.01763: L2-Pf-HR :0.85493: L2-HR :0.84042: (Sim:1h22m45s) 
CPU  0 inst: 1143000000 cyc: 1121750548 now IPC :1.91718: AVG IPC :1.01805: L2-Pf-HR :0.85490: L2-HR :0.84040: (Sim:1h22m49s) 
CPU  0 inst: 1144000000 cyc: 1122408950 now IPC :1.51883: AVG IPC :1.01834: L2-Pf-HR :0.85481: L2-HR :0.84034: (Sim:1h22m54s) 
CPU  0 inst: 1145000002 cyc: 1122916327 now IPC :1.97092: AVG IPC :1.01877: L2-Pf-HR :0.85479: L2-HR :0.84034: (Sim:1h22m58s) 
CPU  0 inst: 1146000002 cyc: 1123516482 now IPC :1.66624: AVG IPC :1.01912: L2-Pf-HR :0.85474: L2-HR :0.84031: (Sim:1h23m2s) 
CPU  0 inst: 1147000002 cyc: 1124020032 now IPC :1.98590: AVG IPC :1.01955: L2-Pf-HR :0.85479: L2-HR :0.84037: (Sim:1h23m6s) 
CPU  0 inst: 1148000000 cyc: 1124702216 now IPC :1.46588: AVG IPC :1.01982: L2-Pf-HR :0.85485: L2-HR :0.84043: (Sim:1h23m11s) 
CPU  0 inst: 1149000002 cyc: 1125430208 now IPC :1.37364: AVG IPC :1.02005: L2-Pf-HR :0.85489: L2-HR :0.84048: (Sim:1h23m16s) 
CPU  0 inst: 1150000003 cyc: 1126237594 now IPC :1.23857: AVG IPC :1.02021: L2-Pf-HR :0.85485: L2-HR :0.84045: (Sim:1h23m21s) 
CPU  0 inst: 1151000001 cyc: 1126792175 now IPC :1.80316: AVG IPC :1.02060: L2-Pf-HR :0.85482: L2-HR :0.84044: (Sim:1h23m25s) 
CPU  0 inst: 1152000000 cyc: 1127502674 now IPC :1.40746: AVG IPC :1.02084: L2-Pf-HR :0.85473: L2-HR :0.84037: (Sim:1h23m29s) 
CPU  0 inst: 1153000001 cyc: 1128054325 now IPC :1.81274: AVG IPC :1.02123: L2-Pf-HR :0.85472: L2-HR :0.84037: (Sim:1h23m34s) 
CPU  0 inst: 1154000002 cyc: 1128589230 now IPC :1.86949: AVG IPC :1.02163: L2-Pf-HR :0.85473: L2-HR :0.84039: (Sim:1h23m38s) 
CPU  0 inst: 1155000003 cyc: 1129228589 now IPC :1.56407: AVG IPC :1.02194: L2-Pf-HR :0.85471: L2-HR :0.84039: (Sim:1h23m42s) 
CPU  0 inst: 1156000000 cyc: 1130020886 now IPC :1.26215: AVG IPC :1.02211: L2-Pf-HR :0.85469: L2-HR :0.84038: (Sim:1h23m47s) 
CPU  0 inst: 1157000000 cyc: 1130562438 now IPC :1.84654: AVG IPC :1.02250: L2-Pf-HR :0.85465: L2-HR :0.84036: (Sim:1h23m51s) 
CPU  0 inst: 1158000001 cyc: 1131096167 now IPC :1.87361: AVG IPC :1.02290: L2-Pf-HR :0.85462: L2-HR :0.84034: (Sim:1h23m55s) 
CPU  0 inst: 1159000001 cyc: 1131786832 now IPC :1.44788: AVG IPC :1.02316: L2-Pf-HR :0.85452: L2-HR :0.84026: (Sim:1h24m0s) 
CPU  0 inst: 1160000000 cyc: 1132296859 now IPC :1.96068: AVG IPC :1.02359: L2-Pf-HR :0.85450: L2-HR :0.84026: (Sim:1h24m4s) 
CPU  0 inst: 1161000001 cyc: 1132917273 now IPC :1.61183: AVG IPC :1.02391: L2-Pf-HR :0.85445: L2-HR :0.84023: (Sim:1h24m8s) 
CPU  0 inst: 1162000003 cyc: 1133433333 now IPC :1.93776: AVG IPC :1.02432: L2-Pf-HR :0.85451: L2-HR :0.84030: (Sim:1h24m13s) 
CPU  0 inst: 1163000002 cyc: 1134248034 now IPC :1.22744: AVG IPC :1.02447: L2-Pf-HR :0.85442: L2-HR :0.84023: (Sim:1h24m17s) 
CPU  0 inst: 1164000000 cyc: 1134772350 now IPC :1.90724: AVG IPC :1.02488: L2-Pf-HR :0.85439: L2-HR :0.84021: (Sim:1h24m21s) 
CPU  0 inst: 1165000002 cyc: 1135474451 now IPC :1.42430: AVG IPC :1.02513: L2-Pf-HR :0.85429: L2-HR :0.84013: (Sim:1h24m26s) 
CPU  0 inst: 1166000001 cyc: 1135985887 now IPC :1.95528: AVG IPC :1.02555: L2-Pf-HR :0.85427: L2-HR :0.84012: (Sim:1h24m30s) 
CPU  0 inst: 1167000001 cyc: 1136601029 now IPC :1.62564: AVG IPC :1.02587: L2-Pf-HR :0.85420: L2-HR :0.84008: (Sim:1h24m35s) 
CPU  0 inst: 1168000000 cyc: 1137109796 now IPC :1.96553: AVG IPC :1.02629: L2-Pf-HR :0.85424: L2-HR :0.84013: (Sim:1h24m39s) 
CPU  0 inst: 1169000001 cyc: 1137911712 now IPC :1.24701: AVG IPC :1.02645: L2-Pf-HR :0.85419: L2-HR :0.84009: (Sim:1h24m43s) 
CPU  0 inst: 1170000000 cyc: 1138438631 now IPC :1.89782: AVG IPC :1.02685: L2-Pf-HR :0.85416: L2-HR :0.84008: (Sim:1h24m46s) 
CPU  0 inst: 1171000000 cyc: 1139122827 now IPC :1.46157: AVG IPC :1.02711: L2-Pf-HR :0.85406: L2-HR :0.84000: (Sim:1h24m49s) 
CPU  0 inst: 1172000000 cyc: 1139644455 now IPC :1.91708: AVG IPC :1.02752: L2-Pf-HR :0.85403: L2-HR :0.83999: (Sim:1h24m53s) 
CPU  0 inst: 1173000000 cyc: 1140161441 now IPC :1.93429: AVG IPC :1.02793: L2-Pf-HR :0.85402: L2-HR :0.84000: (Sim:1h24m57s) 
CPU  0 inst: 1174000000 cyc: 1140760878 now IPC :1.66823: AVG IPC :1.02827: L2-Pf-HR :0.85399: L2-HR :0.83998: (Sim:1h25m1s) 
CPU  0 inst: 1175000000 cyc: 1141451642 now IPC :1.44767: AVG IPC :1.02852: L2-Pf-HR :0.85399: L2-HR :0.84000: (Sim:1h25m6s) 
CPU  0 inst: 1176000000 cyc: 1141985783 now IPC :1.87216: AVG IPC :1.02892: L2-Pf-HR :0.85396: L2-HR :0.83998: (Sim:1h25m10s) 
CPU  0 inst: 1177000001 cyc: 1142518986 now IPC :1.87546: AVG IPC :1.02931: L2-Pf-HR :0.85394: L2-HR :0.83997: (Sim:1h25m14s) 
CPU  0 inst: 1178000002 cyc: 1143163733 now IPC :1.55100: AVG IPC :1.02961: L2-Pf-HR :0.85387: L2-HR :0.83992: (Sim:1h25m19s) 
CPU  0 inst: 1179000002 cyc: 1143671833 now IPC :1.96812: AVG IPC :1.03002: L2-Pf-HR :0.85385: L2-HR :0.83992: (Sim:1h25m23s) 
CPU  0 inst: 1180000000 cyc: 1144268407 now IPC :1.67623: AVG IPC :1.03036: L2-Pf-HR :0.85381: L2-HR :0.83990: (Sim:1h25m27s) 
Finished CPU 0 instr: 1178000000 cyc: 1143288822 AVG IPC: 1.03036 (Sim time: 1h25m27s)

ChampSim completed all CPUs

[ROI Statistics]
Core_0_instructions 1178000000
Core_0_cycles 1143288822
Core_0_IPC 1.03036

Core_0_branch_prediction_accuracy 98.59145
Core_0_branch_MPKI 0.33782
Core_0_average_ROB_occupancy_at_mispredict 250.62402

Core_0_L1D_total_access 696891547
Core_0_L1D_total_hit 671012195 L1D_total_Hit Ratio: 0.96286
Core_0_L1D_total_miss 25879352
Core_0_L1D_loads 268172738
Core_0_L1D_load_hit 257317132 L1D_load_Hit Ratio: 0.95952
Core_0_L1D_load_miss 10855606
Core_0_L1D_RFOs 22865534
Core_0_L1D_RFO_hit 21630478 L1D_RFO_Hit Ratio: 0.94599
Core_0_L1D_RFO_miss 1235056
Core_0_L1D_prefetches 405853275
Core_0_L1D_prefetch_hit 392064585 L1D_prefetch_Hit Ratio: 0.96603
Core_0_L1D_prefetch_miss 13788690
Core_0_L1D_writebacks 0
Core_0_L1D_writeback_hit 0 L1D_writeback_Hit Ratio: -nan
Core_0_L1D_writeback_miss 0
Core_0_L1D_prefetch_requested 808483446
Core_0_L1D_prefetch_issued 488525261
Core_0_L1D_prefetch_useful 11175665 L1D_Useful Ratio: 0.02288
Core_0_L1D_prefetch_useless 2641695
Core_0_L1D_prefetch_late 2248191
Core_0_L1D_average_miss_latency 42774217.76875

Core_0_L1I_total_access 271810818
Core_0_L1I_total_hit 271805941 L1I_total_Hit Ratio: 0.99998
Core_0_L1I_total_miss 4877
Core_0_L1I_loads 271810818
Core_0_L1I_load_hit 271805941 L1I_load_Hit Ratio: 0.99998
Core_0_L1I_load_miss 4877
Core_0_L1I_RFOs 0
Core_0_L1I_RFO_hit 0 L1I_RFO_Hit Ratio: -nan
Core_0_L1I_RFO_miss 0
Core_0_L1I_prefetches 0
Core_0_L1I_prefetch_hit 0 L1I_prefetch_Hit Ratio: -nan
Core_0_L1I_prefetch_miss 0
Core_0_L1I_writebacks 0
Core_0_L1I_writeback_hit 0 L1I_writeback_Hit Ratio: -nan
Core_0_L1I_writeback_miss 0
Core_0_L1I_prefetch_requested 0
Core_0_L1I_prefetch_issued 0
Core_0_L1I_prefetch_useful 0 L1I_Useful Ratio: -nan
Core_0_L1I_prefetch_useless 0
Core_0_L1I_prefetch_late 0
Core_0_L1I_average_miss_latency 324.50400

Core_0_L2C_total_access 98522312
Core_0_L2C_total_hit 82748537 L2C_total_Hit Ratio: 0.83990
Core_0_L2C_total_miss 15773775
Core_0_L2C_loads 8612984
Core_0_L2C_load_hit 6012833 L2C_load_Hit Ratio: 0.69811
Core_0_L2C_load_miss 2600151
Core_0_L2C_RFOs 1234995
Core_0_L2C_RFO_hit 205544 L2C_RFO_Hit Ratio: 0.16643
Core_0_L2C_RFO_miss 1029451
Core_0_L2C_prefetches 82669793
Core_0_L2C_prefetch_hit 70584304 L2C_prefetch_Hit Ratio: 0.85381
Core_0_L2C_prefetch_miss 12085489
Core_0_L2C_writebacks 6004540
Core_0_L2C_writeback_hit 5945856 L2C_writeback_Hit Ratio: 0.99023
Core_0_L2C_writeback_miss 58684
Core_0_L2C_prefetch_requested 141387451
Core_0_L2C_prefetch_issued 100592102
Core_0_L2C_prefetch_useful 2895885 L2C_Useful Ratio: 0.02879
Core_0_L2C_prefetch_useless 9212086
Core_0_L2C_prefetch_late 93329
Core_0_L2C_average_miss_latency 162.48894

Core_0_LLC_total_access 21857578
Core_0_LLC_total_hit 14654266 LLC_total_Hit Ratio: 0.67044
Core_0_LLC_total_miss 7203312
Core_0_LLC_loads 2506820
Core_0_LLC_load_hit 1636609 LLC_load_Hit Ratio: 0.65286
Core_0_LLC_load_miss 870211
Core_0_LLC_RFOs 1029439
Core_0_LLC_RFO_hit 25818 LLC_RFO_Hit Ratio: 0.02508
Core_0_LLC_RFO_miss 1003621
Core_0_LLC_prefetches 12664973
Core_0_LLC_prefetch_hit 7339336 LLC_prefetch_Hit Ratio: 0.57950
Core_0_LLC_prefetch_miss 5325637
Core_0_LLC_writebacks 5656346
Core_0_LLC_writeback_hit 5652503 LLC_writeback_Hit Ratio: 0.99932
Core_0_LLC_writeback_miss 3843
Core_0_LLC_prefetch_requested 0
Core_0_LLC_prefetch_issued 0
Core_0_LLC_prefetch_useful 968933 LLC_Useful Ratio: inf
Core_0_LLC_prefetch_useless 4354284
Core_0_LLC_prefetch_late 9327
Core_0_LLC_average_miss_latency 310.68014

Core_0_major_page_fault 0
Core_0_minor_page_fault 42073

CPU 0 L1D next line prefetcher final stats
CPU 0 L2C PC-based stride prefetcher final stats
Stride Degree: 14
MK1  MARKOV_LRU_SIZE: 256
MK1  MARKOV_PREDICTION_PERCENTTHRESHOLD: 12.00000
MK1  OUTLIERS_THRESHOLD_Max: 64
MK1  OUTLIERS_THRESHOLD_Min: 32
MK2  MARKOV_LRU_SIZE: 256
MK2  MARKOV_PREDICTION_PERCENTTHRESHOLD: 30.00000
MK2  OUTLIERS_THRESHOLD_Max: 32
MK2  OUTLIERS_THRESHOLD_Min: 16
MK3  MARKOV_LRU_SIZE: 32
MK3  MARKOV_PREDICTION_PERCENTTHRESHOLD: 0.00000
MK3  OUTLIERS_THRESHOLD_Max: 4
MK3  OUTLIERS_THRESHOLD_Min: 0
MK4  MARKOV_LRU_SIZE: 32
MK4  MARKOV_PREDICTION_PERCENTTHRESHOLD: 0.00000
MK4  OUTLIERS_THRESHOLD_Max: 4
MK4  OUTLIERS_THRESHOLD_Min: 0
IPStride Degree/Access Ratio: 4.13971
MK1 IPDEltaMarkov  Degree/Access Ratio: 0.15290
MK2 IPDEltaMarkov  Degree/Access Ratio: 0.06533
MK3 IPDEltaMarkov  Degree/Access Ratio: 0.00000
MK4 IPDEltaMarkov  Degree/Access Ratio: 1.72123
Channel_0_RQ_row_buffer_hit 3519650
Channel_0_RQ_row_buffer_miss 3678039
Channel_0_WQ_row_buffer_hit 852472
Channel_0_WQ_row_buffer_miss 2915987
Channel_0_WQ_full 0
Channel_0_dbus_congested 6815199

avg_congested_cycle 11

EzSearch AVG IPC :1.03036: L2-Pf-HR :0.85381 : L2-HR :0.83990 Uful:0.02879
     > Finished combination: TraceType=770-tot Sim:1178000000 Prefetcher=L2029-TOPTOP-L2-MultiMarkovDelta_ip_stride_v3 L1=next_line
