TRACE: [1183000000][GPT-Neo-1_3B]_[h16][s1024][d128] Warmup: 2000000 NumTraces: 1183000000
L1:isb_ideal:L2:isb_ideal
*************************************************
   ChampSim Multicore Out-of-Order Simulator
   Last compiled: Oct 26 2024 22:00:20
*************************************************

trace_0 770-tot_memTraces_v3/memTraces[1183000000][GPT-Neo-1_3B]_[h16][s1024][d128].champsim.xz
L1D: Ideal ISB Prefetching
Ideal ISB Prefetching
MAIN.cc ln 751 stats print skipped
CPU  0 inst:    1000001 cyc:     497963 now IPC :2.00818: AVG IPC :2.00818: L2-Pf-HR :1.00000: L2-HR :0.85761: (Sim:0h0m20s) 
CPU  0 inst:    2000002 cyc:     982492 now IPC :2.06386: AVG IPC :2.03564: L2-Pf-HR :1.00000: L2-HR :0.91167: (Sim:0h0m42s) 

Warmup complete CPU  0 instructions:    2000002 cycles:     982492 (Simulation time: 0 hr 0 min 42 sec) 

CPU  0 inst:    3000001 cyc:    1584134 now IPC :1.66212: AVG IPC :1.66212: L2-Pf-HR :1.00000: L2-HR :0.95990: (Sim:0h1m0s) 
CPU  0 inst:    4000000 cyc:    2176883 now IPC :1.68705: AVG IPC :1.67449: L2-Pf-HR :1.00000: L2-HR :0.96032: (Sim:0h1m18s) 
CPU  0 inst:    5000004 cyc:    2777341 now IPC :1.66540: AVG IPC :1.67145: L2-Pf-HR :1.00000: L2-HR :0.95976: (Sim:0h1m36s) 
CPU  0 inst:    6000004 cyc:    3371959 now IPC :1.68175: AVG IPC :1.67401: L2-Pf-HR :1.00000: L2-HR :0.95977: (Sim:0h1m54s) 
CPU  0 inst:    7000000 cyc:    3964754 now IPC :1.68692: AVG IPC :1.67658: L2-Pf-HR :1.00000: L2-HR :0.95986: (Sim:0h2m12s) 
CPU  0 inst:    8000002 cyc:    4562646 now IPC :1.67255: AVG IPC :1.67591: L2-Pf-HR :1.00000: L2-HR :0.95984: (Sim:0h2m23s) 
CPU  0 inst:    9000001 cyc:    5157702 now IPC :1.68051: AVG IPC :1.67656: L2-Pf-HR :1.00000: L2-HR :0.95998: (Sim:0h2m31s) 
CPU  0 inst:   10000003 cyc:    5756684 now IPC :1.66950: AVG IPC :1.67568: L2-Pf-HR :1.00000: L2-HR :0.95981: (Sim:0h2m39s) 
CPU  0 inst:   11000005 cyc:    6360315 now IPC :1.65664: AVG IPC :1.67354: L2-Pf-HR :1.00000: L2-HR :0.95965: (Sim:0h2m47s) 
CPU  0 inst:   12000002 cyc:    6961883 now IPC :1.66232: AVG IPC :1.67241: L2-Pf-HR :1.00000: L2-HR :0.96028: (Sim:0h2m55s) 
CPU  0 inst:   13000000 cyc:    7594429 now IPC :1.58091: AVG IPC :1.66366: L2-Pf-HR :1.00000: L2-HR :0.95878: (Sim:0h3m3s) 
CPU  0 inst:   14000002 cyc:    8139340 now IPC :1.83517: AVG IPC :1.67672: L2-Pf-HR :1.00000: L2-HR :0.96021: (Sim:0h3m11s) 
CPU  0 inst:   15000001 cyc:    8683703 now IPC :1.83701: AVG IPC :1.68805: L2-Pf-HR :1.00000: L2-HR :0.96148: (Sim:0h3m19s) 
CPU  0 inst:   16000001 cyc:    9229013 now IPC :1.83382: AVG IPC :1.69769: L2-Pf-HR :1.00000: L2-HR :0.96255: (Sim:0h3m27s) 
CPU  0 inst:   17000001 cyc:    9774269 now IPC :1.83400: AVG IPC :1.70614: L2-Pf-HR :1.00000: L2-HR :0.96344: (Sim:0h3m35s) 
CPU  0 inst:   18000001 cyc:   10319501 now IPC :1.83408: AVG IPC :1.71361: L2-Pf-HR :1.00000: L2-HR :0.96416: (Sim:0h3m42s) 
CPU  0 inst:   19000001 cyc:   10865039 now IPC :1.83305: AVG IPC :1.72020: L2-Pf-HR :1.00000: L2-HR :0.96480: (Sim:0h3m50s) 
CPU  0 inst:   20000000 cyc:   11408978 now IPC :1.83844: AVG IPC :1.72637: L2-Pf-HR :1.00000: L2-HR :0.96541: (Sim:0h3m58s) 
CPU  0 inst:   21000005 cyc:   11953368 now IPC :1.83693: AVG IPC :1.73186: L2-Pf-HR :1.00000: L2-HR :0.96599: (Sim:0h4m6s) 
CPU  0 inst:   22000000 cyc:   12498300 now IPC :1.83508: AVG IPC :1.73674: L2-Pf-HR :1.00000: L2-HR :0.96652: (Sim:0h4m15s) 
CPU  0 inst:   23000002 cyc:   13041471 now IPC :1.84104: AVG IPC :1.74144: L2-Pf-HR :1.00000: L2-HR :0.96696: (Sim:0h4m33s) 
CPU  0 inst:   24000003 cyc:   13651121 now IPC :1.64029: AVG IPC :1.73657: L2-Pf-HR :1.00000: L2-HR :0.96651: (Sim:0h4m51s) 
CPU  0 inst:   25000001 cyc:   14202747 now IPC :1.81282: AVG IPC :1.73975: L2-Pf-HR :1.00000: L2-HR :0.96696: (Sim:0h5m9s) 
CPU  0 inst:   26000003 cyc:   14748789 now IPC :1.83136: AVG IPC :1.74339: L2-Pf-HR :1.00000: L2-HR :0.96734: (Sim:0h5m26s) 
CPU  0 inst:   27000002 cyc:   15294759 now IPC :1.83160: AVG IPC :1.74675: L2-Pf-HR :1.00000: L2-HR :0.96765: (Sim:0h5m44s) 
CPU  0 inst:   28000000 cyc:   15840079 now IPC :1.83378: AVG IPC :1.74995: L2-Pf-HR :1.00000: L2-HR :0.96798: (Sim:0h6m1s) 
CPU  0 inst:   29000004 cyc:   16384542 now IPC :1.83668: AVG IPC :1.75301: L2-Pf-HR :1.00000: L2-HR :0.96830: (Sim:0h6m19s) 
CPU  0 inst:   30000000 cyc:   16930500 now IPC :1.83164: AVG IPC :1.75570: L2-Pf-HR :1.00000: L2-HR :0.96857: (Sim:0h6m37s) 
CPU  0 inst:   31000005 cyc:   17476598 now IPC :1.83118: AVG IPC :1.75820: L2-Pf-HR :1.00000: L2-HR :0.96880: (Sim:0h6m54s) 
CPU  0 inst:   32000002 cyc:   18126004 now IPC :1.53986: AVG IPC :1.74993: L2-Pf-HR :1.00000: L2-HR :0.96793: (Sim:0h7m13s) 
CPU  0 inst:   33000004 cyc:   18705186 now IPC :1.72658: AVG IPC :1.74917: L2-Pf-HR :1.00000: L2-HR :0.96795: (Sim:0h7m31s) 
CPU  0 inst:   34000000 cyc:   19283611 now IPC :1.72883: AVG IPC :1.74853: L2-Pf-HR :1.00000: L2-HR :0.96797: (Sim:0h7m49s) 
CPU  0 inst:   35000005 cyc:   19850143 now IPC :1.76513: AVG IPC :1.74903: L2-Pf-HR :1.00000: L2-HR :0.96802: (Sim:0h8m7s) 
CPU  0 inst:   36000003 cyc:   20423737 now IPC :1.74339: AVG IPC :1.74886: L2-Pf-HR :1.00000: L2-HR :0.96797: (Sim:0h8m25s) 
CPU  0 inst:   37000000 cyc:   20993975 now IPC :1.75365: AVG IPC :1.74900: L2-Pf-HR :1.00000: L2-HR :0.96799: (Sim:0h8m43s) 
CPU  0 inst:   38000002 cyc:   21570064 now IPC :1.73585: AVG IPC :1.74863: L2-Pf-HR :1.00000: L2-HR :0.96800: (Sim:0h9m1s) 
CPU  0 inst:   39000004 cyc:   22147835 now IPC :1.73079: AVG IPC :1.74814: L2-Pf-HR :1.00000: L2-HR :0.96801: (Sim:0h9m19s) 
CPU  0 inst:   40000003 cyc:   22715542 now IPC :1.76147: AVG IPC :1.74849: L2-Pf-HR :1.00000: L2-HR :0.96805: (Sim:0h9m37s) 
CPU  0 inst:   41000002 cyc:   23287107 now IPC :1.74958: AVG IPC :1.74852: L2-Pf-HR :1.00000: L2-HR :0.96801: (Sim:0h9m55s) 
CPU  0 inst:   42000004 cyc:   23853818 now IPC :1.76457: AVG IPC :1.74891: L2-Pf-HR :1.00000: L2-HR :0.96803: (Sim:0h10m12s) 
CPU  0 inst:   43000000 cyc:   24430662 now IPC :1.73356: AVG IPC :1.74854: L2-Pf-HR :1.00000: L2-HR :0.96804: (Sim:0h10m30s) 
CPU  0 inst:   44000000 cyc:   25110490 now IPC :1.47096: AVG IPC :1.74072: L2-Pf-HR :0.99998: L2-HR :0.96743: (Sim:0h10m50s) 
CPU  0 inst:   45000005 cyc:   25670845 now IPC :1.78459: AVG IPC :1.74171: L2-Pf-HR :0.99998: L2-HR :0.96763: (Sim:0h11m7s) 
CPU  0 inst:   46000005 cyc:   26232174 now IPC :1.78149: AVG IPC :1.74260: L2-Pf-HR :0.99998: L2-HR :0.96784: (Sim:0h11m25s) 
CPU  0 inst:   47000005 cyc:   26792242 now IPC :1.78550: AVG IPC :1.74353: L2-Pf-HR :0.99998: L2-HR :0.96803: (Sim:0h11m43s) 
CPU  0 inst:   48000001 cyc:   27351578 now IPC :1.78783: AVG IPC :1.74447: L2-Pf-HR :0.99998: L2-HR :0.96819: (Sim:0h12m1s) 
CPU  0 inst:   49000001 cyc:   27911919 now IPC :1.78463: AVG IPC :1.74530: L2-Pf-HR :0.99998: L2-HR :0.96833: (Sim:0h12m19s) 
CPU  0 inst:   50000001 cyc:   28472634 now IPC :1.78344: AVG IPC :1.74608: L2-Pf-HR :0.99998: L2-HR :0.96847: (Sim:0h12m36s) 
CPU  0 inst:   51000000 cyc:   29031754 now IPC :1.78852: AVG IPC :1.74693: L2-Pf-HR :0.99998: L2-HR :0.96862: (Sim:0h12m54s) 
CPU  0 inst:   52000000 cyc:   29589702 now IPC :1.79228: AVG IPC :1.74781: L2-Pf-HR :0.99998: L2-HR :0.96878: (Sim:0h13m12s) 
CPU  0 inst:   53000005 cyc:   30147951 now IPC :1.79132: AVG IPC :1.74864: L2-Pf-HR :0.99998: L2-HR :0.96893: (Sim:0h13m30s) 
CPU  0 inst:   54000005 cyc:   30703469 now IPC :1.80012: AVG IPC :1.74961: L2-Pf-HR :0.99998: L2-HR :0.96905: (Sim:0h13m47s) 
CPU  0 inst:   55000005 cyc:   31257142 now IPC :1.80612: AVG IPC :1.75064: L2-Pf-HR :0.99999: L2-HR :0.96916: (Sim:0h14m5s) 
CPU  0 inst:   56000001 cyc:   31929322 now IPC :1.48769: AVG IPC :1.74493: L2-Pf-HR :0.99999: L2-HR :0.96895: (Sim:0h14m24s) 
CPU  0 inst:   57000000 cyc:   32499836 now IPC :1.75280: AVG IPC :1.74507: L2-Pf-HR :0.99999: L2-HR :0.96908: (Sim:0h14m42s) 
CPU  0 inst:   58000001 cyc:   33069003 now IPC :1.75696: AVG IPC :1.74528: L2-Pf-HR :0.99999: L2-HR :0.96922: (Sim:0h15m0s) 
CPU  0 inst:   59000005 cyc:   33637111 now IPC :1.76024: AVG IPC :1.74554: L2-Pf-HR :0.99999: L2-HR :0.96933: (Sim:0h15m18s) 
CPU  0 inst:   60000004 cyc:   34208360 now IPC :1.75055: AVG IPC :1.74563: L2-Pf-HR :0.99999: L2-HR :0.96943: (Sim:0h15m35s) 
CPU  0 inst:   61000002 cyc:   34779123 now IPC :1.75204: AVG IPC :1.74574: L2-Pf-HR :0.99999: L2-HR :0.96954: (Sim:0h15m53s) 
CPU  0 inst:   62000003 cyc:   35351701 now IPC :1.74649: AVG IPC :1.74575: L2-Pf-HR :0.99999: L2-HR :0.96966: (Sim:0h16m11s) 
CPU  0 inst:   63000002 cyc:   35925547 now IPC :1.74263: AVG IPC :1.74570: L2-Pf-HR :0.99999: L2-HR :0.96976: (Sim:0h16m29s) 
CPU  0 inst:   64000000 cyc:   36655552 now IPC :1.36985: AVG IPC :1.73801: L2-Pf-HR :0.99999: L2-HR :0.96926: (Sim:0h16m49s) 
CPU  0 inst:   65000002 cyc:   37261977 now IPC :1.64901: AVG IPC :1.73652: L2-Pf-HR :0.99999: L2-HR :0.96925: (Sim:0h17m7s) 
CPU  0 inst:   66000001 cyc:   37858043 now IPC :1.67766: AVG IPC :1.73557: L2-Pf-HR :0.99999: L2-HR :0.96925: (Sim:0h17m25s) 
CPU  0 inst:   67000003 cyc:   38469183 now IPC :1.63629: AVG IPC :1.73395: L2-Pf-HR :0.99999: L2-HR :0.96921: (Sim:0h17m44s) 
CPU  0 inst:   68000001 cyc:   39068521 now IPC :1.66850: AVG IPC :1.73292: L2-Pf-HR :0.99999: L2-HR :0.96920: (Sim:0h18m2s) 
CPU  0 inst:   69000004 cyc:   39677078 now IPC :1.64324: AVG IPC :1.73151: L2-Pf-HR :0.99999: L2-HR :0.96919: (Sim:0h18m20s) 
CPU  0 inst:   70000000 cyc:   40283928 now IPC :1.64785: AVG IPC :1.73022: L2-Pf-HR :0.99999: L2-HR :0.96918: (Sim:0h18m39s) 
CPU  0 inst:   71000002 cyc:   40886511 now IPC :1.65953: AVG IPC :1.72915: L2-Pf-HR :0.99999: L2-HR :0.96917: (Sim:0h18m57s) 
CPU  0 inst:   72000004 cyc:   41499301 now IPC :1.63188: AVG IPC :1.72768: L2-Pf-HR :0.99999: L2-HR :0.96914: (Sim:0h19m15s) 
CPU  0 inst:   73000003 cyc:   42104396 now IPC :1.65263: AVG IPC :1.72657: L2-Pf-HR :0.99999: L2-HR :0.96913: (Sim:0h19m34s) 
CPU  0 inst:   74000005 cyc:   42718388 now IPC :1.62869: AVG IPC :1.72513: L2-Pf-HR :0.99999: L2-HR :0.96912: (Sim:0h19m52s) 
CPU  0 inst:   75000002 cyc:   43326267 now IPC :1.64506: AVG IPC :1.72398: L2-Pf-HR :0.99999: L2-HR :0.96913: (Sim:0h20m10s) 
CPU  0 inst:   76000005 cyc:   44049383 now IPC :1.38291: AVG IPC :1.71826: L2-Pf-HR :0.99999: L2-HR :0.96881: (Sim:0h20m30s) 
CPU  0 inst:   77000005 cyc:   44626990 now IPC :1.73128: AVG IPC :1.71843: L2-Pf-HR :0.99999: L2-HR :0.96891: (Sim:0h20m39s) 
CPU  0 inst:   78000005 cyc:   45201889 now IPC :1.73944: AVG IPC :1.71870: L2-Pf-HR :0.99999: L2-HR :0.96901: (Sim:0h20m47s) 
CPU  0 inst:   79000000 cyc:   45777263 now IPC :1.73799: AVG IPC :1.71895: L2-Pf-HR :0.99999: L2-HR :0.96909: (Sim:0h20m55s) 
CPU  0 inst:   80000004 cyc:   46353937 now IPC :1.73409: AVG IPC :1.71914: L2-Pf-HR :0.99999: L2-HR :0.96917: (Sim:0h21m3s) 
CPU  0 inst:   81000000 cyc:   46928849 now IPC :1.73939: AVG IPC :1.71940: L2-Pf-HR :0.99999: L2-HR :0.96924: (Sim:0h21m11s) 
CPU  0 inst:   82000000 cyc:   47502144 now IPC :1.74430: AVG IPC :1.71970: L2-Pf-HR :0.99999: L2-HR :0.96932: (Sim:0h21m19s) 
CPU  0 inst:   83000000 cyc:   48075332 now IPC :1.74463: AVG IPC :1.72001: L2-Pf-HR :0.99999: L2-HR :0.96941: (Sim:0h21m27s) 
CPU  0 inst:   84000000 cyc:   48648552 now IPC :1.74453: AVG IPC :1.72030: L2-Pf-HR :0.99999: L2-HR :0.96950: (Sim:0h21m35s) 
CPU  0 inst:   85000005 cyc:   49223170 now IPC :1.74030: AVG IPC :1.72054: L2-Pf-HR :0.99999: L2-HR :0.96956: (Sim:0h21m43s) 
CPU  0 inst:   86000004 cyc:   49797465 now IPC :1.74126: AVG IPC :1.72078: L2-Pf-HR :0.99999: L2-HR :0.96963: (Sim:0h21m51s) 
CPU  0 inst:   87000000 cyc:   50444662 now IPC :1.54512: AVG IPC :1.71848: L2-Pf-HR :0.99999: L2-HR :0.96950: (Sim:0h22m0s) 
CPU  0 inst:   88000004 cyc:   51042410 now IPC :1.67295: AVG IPC :1.71794: L2-Pf-HR :0.99999: L2-HR :0.96957: (Sim:0h22m8s) 
CPU  0 inst:   89000003 cyc:   51616270 now IPC :1.74258: AVG IPC :1.71822: L2-Pf-HR :0.99999: L2-HR :0.96963: (Sim:0h22m16s) 
CPU  0 inst:   90000004 cyc:   52191484 now IPC :1.73849: AVG IPC :1.71845: L2-Pf-HR :0.99999: L2-HR :0.96971: (Sim:0h22m24s) 
CPU  0 inst:   91000003 cyc:   52766795 now IPC :1.73819: AVG IPC :1.71867: L2-Pf-HR :0.99999: L2-HR :0.96979: (Sim:0h22m32s) 
CPU  0 inst:   92000001 cyc:   53343595 now IPC :1.73370: AVG IPC :1.71883: L2-Pf-HR :0.99999: L2-HR :0.96985: (Sim:0h22m40s) 
CPU  0 inst:   93000005 cyc:   53921951 now IPC :1.72905: AVG IPC :1.71894: L2-Pf-HR :0.99999: L2-HR :0.96990: (Sim:0h22m48s) 
CPU  0 inst:   94000004 cyc:   54499069 now IPC :1.73275: AVG IPC :1.71909: L2-Pf-HR :0.99999: L2-HR :0.96998: (Sim:0h22m56s) 
CPU  0 inst:   95000002 cyc:   55212712 now IPC :1.40126: AVG IPC :1.71491: L2-Pf-HR :0.99999: L2-HR :0.96969: (Sim:0h23m5s) 
CPU  0 inst:   96000004 cyc:   55849337 now IPC :1.57079: AVG IPC :1.71324: L2-Pf-HR :0.99999: L2-HR :0.96968: (Sim:0h23m14s) 
CPU  0 inst:   97000000 cyc:   56448044 now IPC :1.67026: AVG IPC :1.71277: L2-Pf-HR :0.99999: L2-HR :0.96967: (Sim:0h23m22s) 
CPU  0 inst:   98000002 cyc:   57063585 now IPC :1.62459: AVG IPC :1.71181: L2-Pf-HR :0.99999: L2-HR :0.96964: (Sim:0h23m30s) 
CPU  0 inst:   99000001 cyc:   57668851 now IPC :1.65216: AVG IPC :1.71117: L2-Pf-HR :0.99999: L2-HR :0.96963: (Sim:0h23m38s) 
CPU  0 inst:  100000002 cyc:   58275838 now IPC :1.64748: AVG IPC :1.71050: L2-Pf-HR :0.99999: L2-HR :0.96962: (Sim:0h23m47s) 
CPU  0 inst:  101000005 cyc:   58889885 now IPC :1.62854: AVG IPC :1.70963: L2-Pf-HR :0.99999: L2-HR :0.96960: (Sim:0h23m55s) 
CPU  0 inst:  102000004 cyc:   59491994 now IPC :1.66083: AVG IPC :1.70912: L2-Pf-HR :0.99999: L2-HR :0.96960: (Sim:0h24m3s) 
CPU  0 inst:  103000000 cyc:   60097530 now IPC :1.65142: AVG IPC :1.70853: L2-Pf-HR :0.99999: L2-HR :0.96957: (Sim:0h24m11s) 
CPU  0 inst:  104000005 cyc:   60703597 now IPC :1.64999: AVG IPC :1.70794: L2-Pf-HR :0.99999: L2-HR :0.96956: (Sim:0h24m19s) 
CPU  0 inst:  105000001 cyc:   61321057 now IPC :1.61953: AVG IPC :1.70703: L2-Pf-HR :0.99999: L2-HR :0.96955: (Sim:0h24m28s) 
CPU  0 inst:  106000003 cyc:   61937935 now IPC :1.62107: AVG IPC :1.70616: L2-Pf-HR :0.99999: L2-HR :0.96954: (Sim:0h24m36s) 
CPU  0 inst:  107000005 cyc:   62675501 now IPC :1.35581: AVG IPC :1.70198: L2-Pf-HR :0.99999: L2-HR :0.96928: (Sim:0h24m45s) 
CPU  0 inst:  108000001 cyc:   63265693 now IPC :1.69436: AVG IPC :1.70190: L2-Pf-HR :0.99999: L2-HR :0.96934: (Sim:0h24m53s) 
CPU  0 inst:  109000001 cyc:   63845339 now IPC :1.72519: AVG IPC :1.70212: L2-Pf-HR :0.99999: L2-HR :0.96941: (Sim:0h25m2s) 
CPU  0 inst:  110000004 cyc:   64421914 now IPC :1.73438: AVG IPC :1.70241: L2-Pf-HR :0.99999: L2-HR :0.96946: (Sim:0h25m17s) 
CPU  0 inst:  111000004 cyc:   64999445 now IPC :1.73151: AVG IPC :1.70267: L2-Pf-HR :0.99999: L2-HR :0.96951: (Sim:0h25m33s) 
CPU  0 inst:  112000000 cyc:   65577701 now IPC :1.72933: AVG IPC :1.70291: L2-Pf-HR :0.99999: L2-HR :0.96956: (Sim:0h25m49s) 
CPU  0 inst:  113000000 cyc:   66155100 now IPC :1.73190: AVG IPC :1.70317: L2-Pf-HR :0.99999: L2-HR :0.96962: (Sim:0h26m6s) 
CPU  0 inst:  114000005 cyc:   66732225 now IPC :1.73274: AVG IPC :1.70343: L2-Pf-HR :0.99999: L2-HR :0.96968: (Sim:0h26m21s) 
CPU  0 inst:  115000001 cyc:   67307388 now IPC :1.73863: AVG IPC :1.70373: L2-Pf-HR :0.99999: L2-HR :0.96974: (Sim:0h26m37s) 
CPU  0 inst:  116000005 cyc:   67884776 now IPC :1.73194: AVG IPC :1.70398: L2-Pf-HR :0.99999: L2-HR :0.96978: (Sim:0h26m54s) 
CPU  0 inst:  117000005 cyc:   68460408 now IPC :1.73722: AVG IPC :1.70426: L2-Pf-HR :0.99999: L2-HR :0.96983: (Sim:0h27m10s) 
CPU  0 inst:  118000000 cyc:   69035360 now IPC :1.73927: AVG IPC :1.70456: L2-Pf-HR :0.99999: L2-HR :0.96987: (Sim:0h27m26s) 
CPU  0 inst:  119000000 cyc:   69708990 now IPC :1.48449: AVG IPC :1.70240: L2-Pf-HR :0.99999: L2-HR :0.96978: (Sim:0h27m44s) 
CPU  0 inst:  120000003 cyc:   70282762 now IPC :1.74286: AVG IPC :1.70274: L2-Pf-HR :0.99999: L2-HR :0.96984: (Sim:0h28m0s) 
CPU  0 inst:  121000000 cyc:   70858788 now IPC :1.73603: AVG IPC :1.70301: L2-Pf-HR :0.99999: L2-HR :0.96988: (Sim:0h28m17s) 
CPU  0 inst:  122000001 cyc:   71433941 now IPC :1.73867: AVG IPC :1.70330: L2-Pf-HR :0.99999: L2-HR :0.96993: (Sim:0h28m33s) 
CPU  0 inst:  123000002 cyc:   72008104 now IPC :1.74167: AVG IPC :1.70361: L2-Pf-HR :0.99999: L2-HR :0.96998: (Sim:0h28m51s) 
CPU  0 inst:  124000001 cyc:   72583714 now IPC :1.73729: AVG IPC :1.70388: L2-Pf-HR :0.99999: L2-HR :0.97003: (Sim:0h29m7s) 
CPU  0 inst:  125000003 cyc:   73160092 now IPC :1.73498: AVG IPC :1.70413: L2-Pf-HR :0.99999: L2-HR :0.97007: (Sim:0h29m25s) 
CPU  0 inst:  126000001 cyc:   73737065 now IPC :1.73318: AVG IPC :1.70436: L2-Pf-HR :0.99999: L2-HR :0.97012: (Sim:0h29m42s) 
CPU  0 inst:  127000003 cyc:   74470565 now IPC :1.36333: AVG IPC :1.70096: L2-Pf-HR :0.99999: L2-HR :0.96988: (Sim:0h30m1s) 
CPU  0 inst:  128000002 cyc:   75066630 now IPC :1.67767: AVG IPC :1.70077: L2-Pf-HR :0.99999: L2-HR :0.96987: (Sim:0h30m19s) 
CPU  0 inst:  129000004 cyc:   75682086 now IPC :1.62481: AVG IPC :1.70014: L2-Pf-HR :0.99999: L2-HR :0.96985: (Sim:0h30m36s) 
CPU  0 inst:  130000003 cyc:   76285948 now IPC :1.65601: AVG IPC :1.69979: L2-Pf-HR :0.99999: L2-HR :0.96984: (Sim:0h30m54s) 
CPU  0 inst:  131000005 cyc:   76890198 now IPC :1.65495: AVG IPC :1.69943: L2-Pf-HR :0.99999: L2-HR :0.96983: (Sim:0h31m12s) 
CPU  0 inst:  132000002 cyc:   77493343 now IPC :1.65797: AVG IPC :1.69911: L2-Pf-HR :0.99999: L2-HR :0.96982: (Sim:0h31m29s) 
CPU  0 inst:  133000002 cyc:   78087863 now IPC :1.68203: AVG IPC :1.69897: L2-Pf-HR :0.99999: L2-HR :0.96981: (Sim:0h31m47s) 
CPU  0 inst:  134000002 cyc:   78703502 now IPC :1.62433: AVG IPC :1.69838: L2-Pf-HR :0.99999: L2-HR :0.96979: (Sim:0h32m5s) 
CPU  0 inst:  135000000 cyc:   79309243 now IPC :1.65087: AVG IPC :1.69801: L2-Pf-HR :0.99999: L2-HR :0.96978: (Sim:0h32m23s) 
CPU  0 inst:  136000003 cyc:   79922987 now IPC :1.62935: AVG IPC :1.69748: L2-Pf-HR :0.99999: L2-HR :0.96977: (Sim:0h32m42s) 
CPU  0 inst:  137000005 cyc:   80532896 now IPC :1.63959: AVG IPC :1.69704: L2-Pf-HR :0.99999: L2-HR :0.96976: (Sim:0h33m0s) 
CPU  0 inst:  138000001 cyc:   81133300 now IPC :1.66554: AVG IPC :1.69680: L2-Pf-HR :0.99999: L2-HR :0.96975: (Sim:0h33m18s) 
CPU  0 inst:  139000002 cyc:   81859317 now IPC :1.37738: AVG IPC :1.69393: L2-Pf-HR :0.99999: L2-HR :0.96958: (Sim:0h33m37s) 
CPU  0 inst:  140000001 cyc:   82438709 now IPC :1.72595: AVG IPC :1.69416: L2-Pf-HR :0.99999: L2-HR :0.96963: (Sim:0h33m55s) 
CPU  0 inst:  141000004 cyc:   83017911 now IPC :1.72652: AVG IPC :1.69439: L2-Pf-HR :0.99999: L2-HR :0.96967: (Sim:0h34m12s) 
CPU  0 inst:  142000004 cyc:   83597493 now IPC :1.72538: AVG IPC :1.69461: L2-Pf-HR :0.99999: L2-HR :0.96970: (Sim:0h34m30s) 
CPU  0 inst:  143000003 cyc:   84176598 now IPC :1.72680: AVG IPC :1.69483: L2-Pf-HR :0.99999: L2-HR :0.96974: (Sim:0h34m48s) 
CPU  0 inst:  144000003 cyc:   84753438 now IPC :1.73358: AVG IPC :1.69510: L2-Pf-HR :0.99999: L2-HR :0.96979: (Sim:0h35m5s) 
CPU  0 inst:  145000003 cyc:   85329632 now IPC :1.73553: AVG IPC :1.69537: L2-Pf-HR :0.99999: L2-HR :0.96983: (Sim:0h35m23s) 
CPU  0 inst:  146000001 cyc:   85906045 now IPC :1.73486: AVG IPC :1.69564: L2-Pf-HR :0.99999: L2-HR :0.96988: (Sim:0h35m40s) 
CPU  0 inst:  147000005 cyc:   86482083 now IPC :1.73600: AVG IPC :1.69591: L2-Pf-HR :0.99999: L2-HR :0.96991: (Sim:0h35m58s) 
CPU  0 inst:  148000005 cyc:   87057945 now IPC :1.73653: AVG IPC :1.69619: L2-Pf-HR :0.99999: L2-HR :0.96994: (Sim:0h36m16s) 
CPU  0 inst:  149000004 cyc:   87632321 now IPC :1.74102: AVG IPC :1.69648: L2-Pf-HR :0.99999: L2-HR :0.96998: (Sim:0h36m33s) 
CPU  0 inst:  150000005 cyc:   88217984 now IPC :1.70747: AVG IPC :1.69656: L2-Pf-HR :0.99999: L2-HR :0.97004: (Sim:0h36m51s) 
CPU  0 inst:  151000003 cyc:   88891833 now IPC :1.48401: AVG IPC :1.69493: L2-Pf-HR :0.99999: L2-HR :0.96994: (Sim:0h37m10s) 
CPU  0 inst:  152000002 cyc:   89469747 now IPC :1.73036: AVG IPC :1.69516: L2-Pf-HR :0.99999: L2-HR :0.96998: (Sim:0h37m28s) 
CPU  0 inst:  153000000 cyc:   90048007 now IPC :1.72932: AVG IPC :1.69538: L2-Pf-HR :0.99999: L2-HR :0.97003: (Sim:0h37m45s) 
CPU  0 inst:  154000002 cyc:   90626711 now IPC :1.72800: AVG IPC :1.69559: L2-Pf-HR :0.99999: L2-HR :0.97006: (Sim:0h38m3s) 
CPU  0 inst:  155000000 cyc:   91206278 now IPC :1.72542: AVG IPC :1.69578: L2-Pf-HR :0.99999: L2-HR :0.97009: (Sim:0h38m21s) 
CPU  0 inst:  156000001 cyc:   91785148 now IPC :1.72751: AVG IPC :1.69599: L2-Pf-HR :0.99999: L2-HR :0.97014: (Sim:0h38m38s) 
CPU  0 inst:  157000000 cyc:   92364313 now IPC :1.72662: AVG IPC :1.69618: L2-Pf-HR :0.99999: L2-HR :0.97017: (Sim:0h38m56s) 
CPU  0 inst:  158000000 cyc:   93052769 now IPC :1.45253: AVG IPC :1.69436: L2-Pf-HR :0.99999: L2-HR :0.97000: (Sim:0h39m15s) 
CPU  0 inst:  159000002 cyc:   93695315 now IPC :1.55631: AVG IPC :1.69340: L2-Pf-HR :0.99999: L2-HR :0.97000: (Sim:0h39m33s) 
CPU  0 inst:  160000000 cyc:   94305216 now IPC :1.63961: AVG IPC :1.69305: L2-Pf-HR :0.99999: L2-HR :0.96997: (Sim:0h39m52s) 
CPU  0 inst:  161000005 cyc:   94912259 now IPC :1.64734: AVG IPC :1.69275: L2-Pf-HR :0.99999: L2-HR :0.96997: (Sim:0h40m10s) 
CPU  0 inst:  162000001 cyc:   95518276 now IPC :1.65011: AVG IPC :1.69248: L2-Pf-HR :0.99999: L2-HR :0.96996: (Sim:0h40m28s) 
CPU  0 inst:  163000003 cyc:   96137644 now IPC :1.61455: AVG IPC :1.69197: L2-Pf-HR :0.99999: L2-HR :0.96995: (Sim:0h40m46s) 
CPU  0 inst:  164000005 cyc:   96739681 now IPC :1.66103: AVG IPC :1.69178: L2-Pf-HR :0.99999: L2-HR :0.96994: (Sim:0h41m4s) 
CPU  0 inst:  165000004 cyc:   97358341 now IPC :1.61640: AVG IPC :1.69130: L2-Pf-HR :0.99999: L2-HR :0.96992: (Sim:0h41m22s) 
CPU  0 inst:  166000000 cyc:   97968167 now IPC :1.63981: AVG IPC :1.69097: L2-Pf-HR :0.99999: L2-HR :0.96991: (Sim:0h41m40s) 
CPU  0 inst:  167000001 cyc:   98591159 now IPC :1.60516: AVG IPC :1.69042: L2-Pf-HR :0.99999: L2-HR :0.96990: (Sim:0h41m58s) 
CPU  0 inst:  168000001 cyc:   99212556 now IPC :1.60928: AVG IPC :1.68991: L2-Pf-HR :0.99999: L2-HR :0.96989: (Sim:0h42m16s) 
CPU  0 inst:  169000003 cyc:   99825405 now IPC :1.63173: AVG IPC :1.68955: L2-Pf-HR :0.99999: L2-HR :0.96989: (Sim:0h42m35s) 
CPU  0 inst:  170000002 cyc:  100546988 now IPC :1.38584: AVG IPC :1.68735: L2-Pf-HR :0.99999: L2-HR :0.96972: (Sim:0h42m55s) 
CPU  0 inst:  171000004 cyc:  101149552 now IPC :1.65958: AVG IPC :1.68718: L2-Pf-HR :0.99999: L2-HR :0.96976: (Sim:0h43m13s) 
CPU  0 inst:  172000004 cyc:  101724337 now IPC :1.73978: AVG IPC :1.68748: L2-Pf-HR :0.99999: L2-HR :0.96979: (Sim:0h43m31s) 
CPU  0 inst:  173000003 cyc:  102298607 now IPC :1.74134: AVG IPC :1.68779: L2-Pf-HR :0.99999: L2-HR :0.96982: (Sim:0h43m49s) 
CPU  0 inst:  174000002 cyc:  102872999 now IPC :1.74097: AVG IPC :1.68809: L2-Pf-HR :0.99999: L2-HR :0.96985: (Sim:0h44m7s) 
CPU  0 inst:  175000003 cyc:  103446875 now IPC :1.74254: AVG IPC :1.68839: L2-Pf-HR :0.99999: L2-HR :0.96989: (Sim:0h44m25s) 
CPU  0 inst:  176000000 cyc:  104021811 now IPC :1.73932: AVG IPC :1.68868: L2-Pf-HR :0.99999: L2-HR :0.96993: (Sim:0h44m43s) 
CPU  0 inst:  177000005 cyc:  104596423 now IPC :1.74031: AVG IPC :1.68896: L2-Pf-HR :0.99999: L2-HR :0.96996: (Sim:0h45m1s) 
CPU  0 inst:  178000005 cyc:  105171832 now IPC :1.73789: AVG IPC :1.68923: L2-Pf-HR :0.99999: L2-HR :0.96999: (Sim:0h45m19s) 
CPU  0 inst:  179000004 cyc:  105745422 now IPC :1.74340: AVG IPC :1.68953: L2-Pf-HR :0.99999: L2-HR :0.97001: (Sim:0h45m37s) 
CPU  0 inst:  180000004 cyc:  106318181 now IPC :1.74594: AVG IPC :1.68984: L2-Pf-HR :0.99999: L2-HR :0.97005: (Sim:0h45m55s) 
CPU  0 inst:  181000004 cyc:  106891439 now IPC :1.74442: AVG IPC :1.69013: L2-Pf-HR :0.99999: L2-HR :0.97008: (Sim:0h46m13s) 
CPU  0 inst:  182000005 cyc:  107569768 now IPC :1.47421: AVG IPC :1.68876: L2-Pf-HR :0.99999: L2-HR :0.97001: (Sim:0h46m32s) 
CPU  0 inst:  183000000 cyc:  108144099 now IPC :1.74115: AVG IPC :1.68904: L2-Pf-HR :0.99999: L2-HR :0.97004: (Sim:0h46m50s) 
CPU  0 inst:  184000005 cyc:  108716981 now IPC :1.74557: AVG IPC :1.68934: L2-Pf-HR :0.99999: L2-HR :0.97007: (Sim:0h47m8s) 
CPU  0 inst:  185000004 cyc:  109289868 now IPC :1.74554: AVG IPC :1.68964: L2-Pf-HR :0.99999: L2-HR :0.97011: (Sim:0h47m26s) 
CPU  0 inst:  186000002 cyc:  109862013 now IPC :1.74781: AVG IPC :1.68994: L2-Pf-HR :0.99999: L2-HR :0.97014: (Sim:0h47m44s) 
CPU  0 inst:  187000004 cyc:  110435281 now IPC :1.74439: AVG IPC :1.69023: L2-Pf-HR :0.99999: L2-HR :0.97017: (Sim:0h48m2s) 
CPU  0 inst:  188000002 cyc:  111008747 now IPC :1.74378: AVG IPC :1.69051: L2-Pf-HR :0.99999: L2-HR :0.97020: (Sim:0h48m20s) 
CPU  0 inst:  189000001 cyc:  111581173 now IPC :1.74695: AVG IPC :1.69080: L2-Pf-HR :0.99999: L2-HR :0.97023: (Sim:0h48m38s) 
CPU  0 inst:  190000002 cyc:  112317764 now IPC :1.35761: AVG IPC :1.68859: L2-Pf-HR :0.99999: L2-HR :0.97007: (Sim:0h48m58s) 
CPU  0 inst:  191000005 cyc:  112938173 now IPC :1.61184: AVG IPC :1.68817: L2-Pf-HR :0.99999: L2-HR :0.97006: (Sim:0h49m17s) 
CPU  0 inst:  192000004 cyc:  113546542 now IPC :1.64374: AVG IPC :1.68793: L2-Pf-HR :0.99999: L2-HR :0.97005: (Sim:0h49m35s) 
CPU  0 inst:  193000000 cyc:  114163751 now IPC :1.62019: AVG IPC :1.68756: L2-Pf-HR :0.99999: L2-HR :0.97004: (Sim:0h49m54s) 
CPU  0 inst:  194000004 cyc:  114780600 now IPC :1.62115: AVG IPC :1.68720: L2-Pf-HR :0.99999: L2-HR :0.97003: (Sim:0h50m12s) 
CPU  0 inst:  195000000 cyc:  115388861 now IPC :1.64402: AVG IPC :1.68697: L2-Pf-HR :0.99999: L2-HR :0.97003: (Sim:0h50m31s) 
CPU  0 inst:  196000003 cyc:  116010497 now IPC :1.60866: AVG IPC :1.68655: L2-Pf-HR :0.99999: L2-HR :0.97001: (Sim:0h50m49s) 
CPU  0 inst:  197000002 cyc:  116621381 now IPC :1.63697: AVG IPC :1.68628: L2-Pf-HR :0.99999: L2-HR :0.97001: (Sim:0h51m8s) 
CPU  0 inst:  198000004 cyc:  117238429 now IPC :1.62062: AVG IPC :1.68594: L2-Pf-HR :0.99999: L2-HR :0.97000: (Sim:0h51m26s) 
CPU  0 inst:  199000002 cyc:  117852476 now IPC :1.62854: AVG IPC :1.68563: L2-Pf-HR :0.99999: L2-HR :0.96999: (Sim:0h51m45s) 
CPU  0 inst:  200000005 cyc:  118453787 now IPC :1.66304: AVG IPC :1.68552: L2-Pf-HR :0.99999: L2-HR :0.96998: (Sim:0h52m3s) 
CPU  0 inst:  201000001 cyc:  119077256 now IPC :1.60392: AVG IPC :1.68509: L2-Pf-HR :0.99999: L2-HR :0.96996: (Sim:0h52m22s) 
CPU  0 inst:  202000001 cyc:  119814490 now IPC :1.35642: AVG IPC :1.68305: L2-Pf-HR :0.99999: L2-HR :0.96985: (Sim:0h52m42s) 
CPU  0 inst:  203000001 cyc:  120392725 now IPC :1.72940: AVG IPC :1.68327: L2-Pf-HR :0.99999: L2-HR :0.96987: (Sim:0h53m0s) 
CPU  0 inst:  204000001 cyc:  120970113 now IPC :1.73194: AVG IPC :1.68351: L2-Pf-HR :0.99999: L2-HR :0.96990: (Sim:0h53m18s) 
CPU  0 inst:  205000003 cyc:  121546181 now IPC :1.73591: AVG IPC :1.68376: L2-Pf-HR :0.99999: L2-HR :0.96993: (Sim:0h53m36s) 
CPU  0 inst:  206000003 cyc:  122122642 now IPC :1.73472: AVG IPC :1.68400: L2-Pf-HR :0.99999: L2-HR :0.96996: (Sim:0h53m55s) 
CPU  0 inst:  207000003 cyc:  122697922 now IPC :1.73828: AVG IPC :1.68426: L2-Pf-HR :0.99999: L2-HR :0.96999: (Sim:0h54m13s) 
CPU  0 inst:  208000002 cyc:  123273099 now IPC :1.73859: AVG IPC :1.68451: L2-Pf-HR :0.99999: L2-HR :0.97002: (Sim:0h54m31s) 
CPU  0 inst:  209000002 cyc:  123847917 now IPC :1.73968: AVG IPC :1.68477: L2-Pf-HR :0.99999: L2-HR :0.97004: (Sim:0h54m49s) 
CPU  0 inst:  210000002 cyc:  124421025 now IPC :1.74487: AVG IPC :1.68505: L2-Pf-HR :0.99999: L2-HR :0.97006: (Sim:0h55m7s) 
CPU  0 inst:  211000000 cyc:  124992408 now IPC :1.75014: AVG IPC :1.68535: L2-Pf-HR :0.99999: L2-HR :0.97009: (Sim:0h55m25s) 
CPU  0 inst:  212000001 cyc:  125564661 now IPC :1.74748: AVG IPC :1.68563: L2-Pf-HR :0.99999: L2-HR :0.97012: (Sim:0h55m43s) 
CPU  0 inst:  213000002 cyc:  126138001 now IPC :1.74417: AVG IPC :1.68590: L2-Pf-HR :0.99999: L2-HR :0.97015: (Sim:0h56m1s) 
CPU  0 inst:  214000003 cyc:  126811060 now IPC :1.48576: AVG IPC :1.68483: L2-Pf-HR :0.99999: L2-HR :0.97009: (Sim:0h56m20s) 
CPU  0 inst:  215000000 cyc:  127389236 now IPC :1.72957: AVG IPC :1.68504: L2-Pf-HR :0.99999: L2-HR :0.97012: (Sim:0h56m38s) 
CPU  0 inst:  216000003 cyc:  127968360 now IPC :1.72675: AVG IPC :1.68523: L2-Pf-HR :0.99999: L2-HR :0.97014: (Sim:0h56m57s) 
CPU  0 inst:  217000001 cyc:  128547529 now IPC :1.72661: AVG IPC :1.68541: L2-Pf-HR :0.99999: L2-HR :0.97017: (Sim:0h57m15s) 
CPU  0 inst:  218000000 cyc:  129127010 now IPC :1.72568: AVG IPC :1.68560: L2-Pf-HR :0.99999: L2-HR :0.97020: (Sim:0h57m33s) 
CPU  0 inst:  219000004 cyc:  129707085 now IPC :1.72392: AVG IPC :1.68577: L2-Pf-HR :0.99999: L2-HR :0.97022: (Sim:0h57m51s) 
CPU  0 inst:  220000002 cyc:  130287923 now IPC :1.72165: AVG IPC :1.68593: L2-Pf-HR :0.99999: L2-HR :0.97024: (Sim:0h58m9s) 
CPU  0 inst:  221000002 cyc:  130876651 now IPC :1.69858: AVG IPC :1.68599: L2-Pf-HR :0.99999: L2-HR :0.97028: (Sim:0h58m28s) 
CPU  0 inst:  222000003 cyc:  131600641 now IPC :1.38124: AVG IPC :1.68430: L2-Pf-HR :0.99999: L2-HR :0.97011: (Sim:0h58m48s) 
CPU  0 inst:  223000000 cyc:  132203164 now IPC :1.65968: AVG IPC :1.68419: L2-Pf-HR :0.99999: L2-HR :0.97011: (Sim:0h59m6s) 
CPU  0 inst:  224000002 cyc:  132811434 now IPC :1.64401: AVG IPC :1.68400: L2-Pf-HR :0.99999: L2-HR :0.97010: (Sim:0h59m25s) 
CPU  0 inst:  225000004 cyc:  133424747 now IPC :1.63049: AVG IPC :1.68375: L2-Pf-HR :0.99999: L2-HR :0.97010: (Sim:0h59m43s) 
CPU  0 inst:  226000003 cyc:  134024461 now IPC :1.66746: AVG IPC :1.68368: L2-Pf-HR :0.99999: L2-HR :0.97009: (Sim:1h0m2s) 
CPU  0 inst:  227000000 cyc:  134636535 now IPC :1.63378: AVG IPC :1.68345: L2-Pf-HR :0.99999: L2-HR :0.97007: (Sim:1h0m20s) 
CPU  0 inst:  228000004 cyc:  135240421 now IPC :1.65595: AVG IPC :1.68333: L2-Pf-HR :0.99999: L2-HR :0.97007: (Sim:1h0m39s) 
CPU  0 inst:  229000000 cyc:  135845918 now IPC :1.65153: AVG IPC :1.68318: L2-Pf-HR :0.99999: L2-HR :0.97006: (Sim:1h0m58s) 
CPU  0 inst:  230000002 cyc:  136459893 now IPC :1.62873: AVG IPC :1.68294: L2-Pf-HR :0.99999: L2-HR :0.97005: (Sim:1h1m16s) 
CPU  0 inst:  231000004 cyc:  137066185 now IPC :1.64937: AVG IPC :1.68279: L2-Pf-HR :0.99999: L2-HR :0.97005: (Sim:1h1m35s) 
CPU  0 inst:  232000003 cyc:  137674483 now IPC :1.64393: AVG IPC :1.68262: L2-Pf-HR :0.99999: L2-HR :0.97003: (Sim:1h1m53s) 
CPU  0 inst:  233000002 cyc:  138319449 now IPC :1.55047: AVG IPC :1.68199: L2-Pf-HR :0.99999: L2-HR :0.97000: (Sim:1h2m12s) 
CPU  0 inst:  234000002 cyc:  138994931 now IPC :1.48042: AVG IPC :1.68101: L2-Pf-HR :0.99999: L2-HR :0.96993: (Sim:1h2m32s) 
CPU  0 inst:  235000001 cyc:  139573175 now IPC :1.72937: AVG IPC :1.68121: L2-Pf-HR :0.99999: L2-HR :0.96995: (Sim:1h2m50s) 
CPU  0 inst:  236000003 cyc:  140151246 now IPC :1.72989: AVG IPC :1.68141: L2-Pf-HR :0.99999: L2-HR :0.96998: (Sim:1h3m5s) 
CPU  0 inst:  237000000 cyc:  140728693 now IPC :1.73176: AVG IPC :1.68162: L2-Pf-HR :0.99999: L2-HR :0.97000: (Sim:1h3m22s) 
CPU  0 inst:  238000000 cyc:  141305037 now IPC :1.73507: AVG IPC :1.68184: L2-Pf-HR :0.99999: L2-HR :0.97003: (Sim:1h3m39s) 
CPU  0 inst:  239000001 cyc:  141883531 now IPC :1.72863: AVG IPC :1.68203: L2-Pf-HR :0.99999: L2-HR :0.97005: (Sim:1h3m56s) 
CPU  0 inst:  240000002 cyc:  142461866 now IPC :1.72910: AVG IPC :1.68222: L2-Pf-HR :0.99999: L2-HR :0.97007: (Sim:1h4m14s) 
CPU  0 inst:  241000002 cyc:  143039707 now IPC :1.73058: AVG IPC :1.68242: L2-Pf-HR :0.99999: L2-HR :0.97009: (Sim:1h4m31s) 
CPU  0 inst:  242000001 cyc:  143618215 now IPC :1.72858: AVG IPC :1.68261: L2-Pf-HR :0.99999: L2-HR :0.97012: (Sim:1h4m48s) 
CPU  0 inst:  243000001 cyc:  144194372 now IPC :1.73564: AVG IPC :1.68282: L2-Pf-HR :0.99999: L2-HR :0.97014: (Sim:1h5m4s) 
CPU  0 inst:  244000003 cyc:  144771721 now IPC :1.73206: AVG IPC :1.68302: L2-Pf-HR :0.99999: L2-HR :0.97017: (Sim:1h5m22s) 
CPU  0 inst:  245000002 cyc:  145449832 now IPC :1.47468: AVG IPC :1.68204: L2-Pf-HR :0.99999: L2-HR :0.97011: (Sim:1h5m40s) 
CPU  0 inst:  246000000 cyc:  146026314 now IPC :1.73466: AVG IPC :1.68225: L2-Pf-HR :0.99999: L2-HR :0.97014: (Sim:1h5m58s) 
CPU  0 inst:  247000005 cyc:  146602975 now IPC :1.73413: AVG IPC :1.68246: L2-Pf-HR :0.99999: L2-HR :0.97016: (Sim:1h6m15s) 
CPU  0 inst:  248000000 cyc:  147180109 now IPC :1.73269: AVG IPC :1.68265: L2-Pf-HR :0.99999: L2-HR :0.97018: (Sim:1h6m33s) 
CPU  0 inst:  249000005 cyc:  147755245 now IPC :1.73873: AVG IPC :1.68287: L2-Pf-HR :0.99999: L2-HR :0.97020: (Sim:1h6m49s) 
CPU  0 inst:  250000003 cyc:  148329356 now IPC :1.74182: AVG IPC :1.68310: L2-Pf-HR :0.99999: L2-HR :0.97023: (Sim:1h7m6s) 
CPU  0 inst:  251000002 cyc:  148904970 now IPC :1.73727: AVG IPC :1.68331: L2-Pf-HR :0.99999: L2-HR :0.97025: (Sim:1h7m23s) 
CPU  0 inst:  252000000 cyc:  149480988 now IPC :1.73605: AVG IPC :1.68352: L2-Pf-HR :0.99999: L2-HR :0.97027: (Sim:1h7m41s) 
CPU  0 inst:  253000003 cyc:  150202808 now IPC :1.38539: AVG IPC :1.68208: L2-Pf-HR :0.99999: L2-HR :0.97015: (Sim:1h8m2s) 
CPU  0 inst:  254000002 cyc:  150801283 now IPC :1.67091: AVG IPC :1.68203: L2-Pf-HR :0.99999: L2-HR :0.97015: (Sim:1h8m21s) 
CPU  0 inst:  255000002 cyc:  151411826 now IPC :1.63789: AVG IPC :1.68185: L2-Pf-HR :0.99999: L2-HR :0.97014: (Sim:1h8m40s) 
CPU  0 inst:  256000000 cyc:  152012525 now IPC :1.66472: AVG IPC :1.68178: L2-Pf-HR :0.99999: L2-HR :0.97014: (Sim:1h8m58s) 
CPU  0 inst:  257000002 cyc:  152630756 now IPC :1.61752: AVG IPC :1.68152: L2-Pf-HR :0.99999: L2-HR :0.97013: (Sim:1h9m17s) 
CPU  0 inst:  258000004 cyc:  153246815 now IPC :1.62322: AVG IPC :1.68129: L2-Pf-HR :0.99999: L2-HR :0.97011: (Sim:1h9m36s) 
CPU  0 inst:  259000003 cyc:  153849867 now IPC :1.65823: AVG IPC :1.68120: L2-Pf-HR :0.99999: L2-HR :0.97011: (Sim:1h9m55s) 
CPU  0 inst:  260000005 cyc:  154465324 now IPC :1.62481: AVG IPC :1.68097: L2-Pf-HR :0.99999: L2-HR :0.97010: (Sim:1h10m14s) 
CPU  0 inst:  261000001 cyc:  155077838 now IPC :1.63261: AVG IPC :1.68078: L2-Pf-HR :0.99999: L2-HR :0.97009: (Sim:1h10m33s) 
CPU  0 inst:  262000005 cyc:  155685602 now IPC :1.64538: AVG IPC :1.68064: L2-Pf-HR :0.99999: L2-HR :0.97009: (Sim:1h10m52s) 
CPU  0 inst:  263000002 cyc:  156291587 now IPC :1.65020: AVG IPC :1.68052: L2-Pf-HR :0.99999: L2-HR :0.97007: (Sim:1h11m11s) 
CPU  0 inst:  264000001 cyc:  156889913 now IPC :1.67133: AVG IPC :1.68048: L2-Pf-HR :0.99999: L2-HR :0.97007: (Sim:1h11m29s) 
CPU  0 inst:  265000001 cyc:  157607848 now IPC :1.39288: AVG IPC :1.67917: L2-Pf-HR :0.99999: L2-HR :0.96997: (Sim:1h11m50s) 
CPU  0 inst:  266000001 cyc:  158186199 now IPC :1.72905: AVG IPC :1.67935: L2-Pf-HR :0.99999: L2-HR :0.96999: (Sim:1h12m8s) 
CPU  0 inst:  267000000 cyc:  158763033 now IPC :1.73360: AVG IPC :1.67955: L2-Pf-HR :0.99999: L2-HR :0.97002: (Sim:1h12m27s) 
CPU  0 inst:  268000000 cyc:  159340288 now IPC :1.73234: AVG IPC :1.67974: L2-Pf-HR :0.99999: L2-HR :0.97004: (Sim:1h12m45s) 
CPU  0 inst:  269000000 cyc:  159916638 now IPC :1.73506: AVG IPC :1.67994: L2-Pf-HR :0.99999: L2-HR :0.97006: (Sim:1h13m4s) 
CPU  0 inst:  270000002 cyc:  160492805 now IPC :1.73561: AVG IPC :1.68014: L2-Pf-HR :0.99999: L2-HR :0.97008: (Sim:1h13m22s) 
CPU  0 inst:  271000002 cyc:  161069642 now IPC :1.73359: AVG IPC :1.68033: L2-Pf-HR :0.99999: L2-HR :0.97010: (Sim:1h13m41s) 
CPU  0 inst:  272000005 cyc:  161645424 now IPC :1.73677: AVG IPC :1.68054: L2-Pf-HR :0.99999: L2-HR :0.97012: (Sim:1h13m59s) 
CPU  0 inst:  273000002 cyc:  162219834 now IPC :1.74091: AVG IPC :1.68075: L2-Pf-HR :0.99999: L2-HR :0.97014: (Sim:1h14m16s) 
CPU  0 inst:  274000001 cyc:  162792789 now IPC :1.74534: AVG IPC :1.68098: L2-Pf-HR :0.99999: L2-HR :0.97016: (Sim:1h14m34s) 
CPU  0 inst:  275000003 cyc:  163365501 now IPC :1.74608: AVG IPC :1.68121: L2-Pf-HR :0.99999: L2-HR :0.97018: (Sim:1h14m51s) 
CPU  0 inst:  276000005 cyc:  163938742 now IPC :1.74447: AVG IPC :1.68143: L2-Pf-HR :0.99999: L2-HR :0.97020: (Sim:1h15m9s) 
CPU  0 inst:  277000002 cyc:  164620667 now IPC :1.46643: AVG IPC :1.68054: L2-Pf-HR :0.99999: L2-HR :0.97015: (Sim:1h15m28s) 
CPU  0 inst:  278000004 cyc:  165198505 now IPC :1.73059: AVG IPC :1.68071: L2-Pf-HR :0.99999: L2-HR :0.97017: (Sim:1h15m45s) 
CPU  0 inst:  279000002 cyc:  165777947 now IPC :1.72579: AVG IPC :1.68087: L2-Pf-HR :0.99999: L2-HR :0.97020: (Sim:1h16m3s) 
CPU  0 inst:  280000005 cyc:  166356680 now IPC :1.72792: AVG IPC :1.68104: L2-Pf-HR :0.99999: L2-HR :0.97022: (Sim:1h16m20s) 
CPU  0 inst:  281000002 cyc:  166937089 now IPC :1.72292: AVG IPC :1.68118: L2-Pf-HR :0.99999: L2-HR :0.97023: (Sim:1h16m38s) 
CPU  0 inst:  282000003 cyc:  167516826 now IPC :1.72492: AVG IPC :1.68133: L2-Pf-HR :0.99999: L2-HR :0.97025: (Sim:1h16m56s) 
CPU  0 inst:  283000005 cyc:  168096581 now IPC :1.72487: AVG IPC :1.68149: L2-Pf-HR :0.99999: L2-HR :0.97027: (Sim:1h17m14s) 
CPU  0 inst:  284000000 cyc:  168675783 now IPC :1.72650: AVG IPC :1.68164: L2-Pf-HR :0.99999: L2-HR :0.97030: (Sim:1h17m31s) 
CPU  0 inst:  285000001 cyc:  169406273 now IPC :1.36895: AVG IPC :1.68029: L2-Pf-HR :0.99999: L2-HR :0.97018: (Sim:1h17m51s) 
CPU  0 inst:  286000003 cyc:  170020178 now IPC :1.62892: AVG IPC :1.68010: L2-Pf-HR :0.99999: L2-HR :0.97017: (Sim:1h18m9s) 
CPU  0 inst:  287000002 cyc:  170622205 now IPC :1.66105: AVG IPC :1.68003: L2-Pf-HR :0.99999: L2-HR :0.97017: (Sim:1h18m27s) 
CPU  0 inst:  288000000 cyc:  171238387 now IPC :1.62289: AVG IPC :1.67982: L2-Pf-HR :0.99999: L2-HR :0.97016: (Sim:1h18m45s) 
CPU  0 inst:  289000000 cyc:  171857818 now IPC :1.61438: AVG IPC :1.67959: L2-Pf-HR :0.99999: L2-HR :0.97015: (Sim:1h19m3s) 
CPU  0 inst:  290000004 cyc:  172468556 now IPC :1.63737: AVG IPC :1.67944: L2-Pf-HR :0.99999: L2-HR :0.97014: (Sim:1h19m21s) 
CPU  0 inst:  291000000 cyc:  173090316 now IPC :1.60833: AVG IPC :1.67918: L2-Pf-HR :0.99999: L2-HR :0.97014: (Sim:1h19m39s) 
CPU  0 inst:  292000000 cyc:  173693067 now IPC :1.65906: AVG IPC :1.67911: L2-Pf-HR :0.99999: L2-HR :0.97014: (Sim:1h19m57s) 
CPU  0 inst:  293000002 cyc:  174304126 now IPC :1.63651: AVG IPC :1.67896: L2-Pf-HR :0.99999: L2-HR :0.97013: (Sim:1h20m15s) 
CPU  0 inst:  294000000 cyc:  174916556 now IPC :1.63284: AVG IPC :1.67880: L2-Pf-HR :0.99999: L2-HR :0.97011: (Sim:1h20m33s) 
CPU  0 inst:  295000003 cyc:  175520265 now IPC :1.65643: AVG IPC :1.67872: L2-Pf-HR :0.99999: L2-HR :0.97011: (Sim:1h20m51s) 
CPU  0 inst:  296000000 cyc:  176141552 now IPC :1.60956: AVG IPC :1.67847: L2-Pf-HR :0.99999: L2-HR :0.97011: (Sim:1h21m9s) 
CPU  0 inst:  297000005 cyc:  176864587 now IPC :1.38307: AVG IPC :1.67726: L2-Pf-HR :0.99999: L2-HR :0.97002: (Sim:1h21m28s) 
CPU  0 inst:  298000003 cyc:  177441940 now IPC :1.73204: AVG IPC :1.67744: L2-Pf-HR :0.99999: L2-HR :0.97004: (Sim:1h21m46s) 
CPU  0 inst:  299000004 cyc:  178019141 now IPC :1.73250: AVG IPC :1.67762: L2-Pf-HR :0.99999: L2-HR :0.97006: (Sim:1h22m3s) 
CPU  0 inst:  300000002 cyc:  178596678 now IPC :1.73149: AVG IPC :1.67779: L2-Pf-HR :0.99999: L2-HR :0.97008: (Sim:1h22m21s) 
CPU  0 inst:  301000002 cyc:  179173014 now IPC :1.73510: AVG IPC :1.67798: L2-Pf-HR :0.99999: L2-HR :0.97010: (Sim:1h22m38s) 
CPU  0 inst:  302000005 cyc:  179749462 now IPC :1.73477: AVG IPC :1.67816: L2-Pf-HR :0.99999: L2-HR :0.97012: (Sim:1h22m56s) 
CPU  0 inst:  303000001 cyc:  180324360 now IPC :1.73943: AVG IPC :1.67836: L2-Pf-HR :0.99999: L2-HR :0.97013: (Sim:1h23m13s) 
CPU  0 inst:  304000000 cyc:  180899193 now IPC :1.73963: AVG IPC :1.67855: L2-Pf-HR :0.99999: L2-HR :0.97015: (Sim:1h23m31s) 
CPU  0 inst:  305000001 cyc:  181473501 now IPC :1.74123: AVG IPC :1.67875: L2-Pf-HR :0.99999: L2-HR :0.97017: (Sim:1h23m48s) 
CPU  0 inst:  306000000 cyc:  182047667 now IPC :1.74165: AVG IPC :1.67895: L2-Pf-HR :0.99999: L2-HR :0.97019: (Sim:1h24m6s) 
CPU  0 inst:  307000000 cyc:  182622333 now IPC :1.74014: AVG IPC :1.67915: L2-Pf-HR :0.99999: L2-HR :0.97021: (Sim:1h24m23s) 
CPU  0 inst:  308000000 cyc:  183264257 now IPC :1.55782: AVG IPC :1.67872: L2-Pf-HR :0.99999: L2-HR :0.97017: (Sim:1h24m42s) 
CPU  0 inst:  309000005 cyc:  183853004 now IPC :1.69853: AVG IPC :1.67878: L2-Pf-HR :0.99999: L2-HR :0.97019: (Sim:1h25m0s) 
CPU  0 inst:  310000004 cyc:  184430284 now IPC :1.73226: AVG IPC :1.67895: L2-Pf-HR :0.99999: L2-HR :0.97020: (Sim:1h25m18s) 
CPU  0 inst:  311000002 cyc:  185006463 now IPC :1.73557: AVG IPC :1.67913: L2-Pf-HR :0.99999: L2-HR :0.97022: (Sim:1h25m36s) 
CPU  0 inst:  312000004 cyc:  185581670 now IPC :1.73851: AVG IPC :1.67931: L2-Pf-HR :0.99999: L2-HR :0.97024: (Sim:1h25m54s) 
CPU  0 inst:  313000002 cyc:  186158143 now IPC :1.73468: AVG IPC :1.67949: L2-Pf-HR :0.99999: L2-HR :0.97026: (Sim:1h26m9s) 
CPU  0 inst:  314000001 cyc:  186735048 now IPC :1.73339: AVG IPC :1.67965: L2-Pf-HR :0.99999: L2-HR :0.97027: (Sim:1h26m26s) 
CPU  0 inst:  315000005 cyc:  187311553 now IPC :1.73460: AVG IPC :1.67982: L2-Pf-HR :0.99999: L2-HR :0.97029: (Sim:1h26m42s) 
CPU  0 inst:  316000000 cyc:  188022495 now IPC :1.40658: AVG IPC :1.67879: L2-Pf-HR :0.99999: L2-HR :0.97020: (Sim:1h27m2s) 
CPU  0 inst:  317000005 cyc:  188635297 now IPC :1.63186: AVG IPC :1.67863: L2-Pf-HR :0.99999: L2-HR :0.97019: (Sim:1h27m20s) 
CPU  0 inst:  318000004 cyc:  189231845 now IPC :1.67631: AVG IPC :1.67862: L2-Pf-HR :0.99999: L2-HR :0.97019: (Sim:1h27m37s) 
CPU  0 inst:  319000000 cyc:  189844716 now IPC :1.63166: AVG IPC :1.67847: L2-Pf-HR :0.99999: L2-HR :0.97018: (Sim:1h27m54s) 
CPU  0 inst:  320000002 cyc:  190457367 now IPC :1.63225: AVG IPC :1.67832: L2-Pf-HR :0.99999: L2-HR :0.97017: (Sim:1h28m11s) 
CPU  0 inst:  321000001 cyc:  191057404 now IPC :1.66656: AVG IPC :1.67829: L2-Pf-HR :0.99999: L2-HR :0.97017: (Sim:1h28m27s) 
CPU  0 inst:  322000005 cyc:  191665825 now IPC :1.64361: AVG IPC :1.67817: L2-Pf-HR :0.99999: L2-HR :0.97016: (Sim:1h28m45s) 
CPU  0 inst:  323000005 cyc:  192266796 now IPC :1.66397: AVG IPC :1.67813: L2-Pf-HR :0.99999: L2-HR :0.97016: (Sim:1h29m3s) 
CPU  0 inst:  324000001 cyc:  192880918 now IPC :1.62833: AVG IPC :1.67797: L2-Pf-HR :0.99999: L2-HR :0.97015: (Sim:1h29m21s) 
CPU  0 inst:  325000003 cyc:  193495818 now IPC :1.62628: AVG IPC :1.67781: L2-Pf-HR :0.99999: L2-HR :0.97014: (Sim:1h29m39s) 
CPU  0 inst:  326000002 cyc:  194103433 now IPC :1.64578: AVG IPC :1.67771: L2-Pf-HR :0.99999: L2-HR :0.97014: (Sim:1h29m55s) 
CPU  0 inst:  327000004 cyc:  194720937 now IPC :1.61943: AVG IPC :1.67752: L2-Pf-HR :0.99999: L2-HR :0.97013: (Sim:1h30m12s) 
CPU  0 inst:  328000000 cyc:  195461638 now IPC :1.35007: AVG IPC :1.67627: L2-Pf-HR :0.99999: L2-HR :0.97005: (Sim:1h30m31s) 
CPU  0 inst:  329000000 cyc:  196042352 now IPC :1.72202: AVG IPC :1.67641: L2-Pf-HR :0.99999: L2-HR :0.97007: (Sim:1h30m48s) 
CPU  0 inst:  330000000 cyc:  196620321 now IPC :1.73020: AVG IPC :1.67657: L2-Pf-HR :0.99999: L2-HR :0.97008: (Sim:1h31m6s) 
CPU  0 inst:  331000002 cyc:  197199619 now IPC :1.72623: AVG IPC :1.67671: L2-Pf-HR :0.99999: L2-HR :0.97010: (Sim:1h31m23s) 
CPU  0 inst:  332000005 cyc:  197780135 now IPC :1.72261: AVG IPC :1.67685: L2-Pf-HR :0.99999: L2-HR :0.97012: (Sim:1h31m40s) 
CPU  0 inst:  333000005 cyc:  198359401 now IPC :1.72632: AVG IPC :1.67699: L2-Pf-HR :0.99999: L2-HR :0.97013: (Sim:1h31m56s) 
CPU  0 inst:  334000000 cyc:  198938568 now IPC :1.72661: AVG IPC :1.67714: L2-Pf-HR :0.99999: L2-HR :0.97015: (Sim:1h32m13s) 
CPU  0 inst:  335000001 cyc:  199514700 now IPC :1.73572: AVG IPC :1.67731: L2-Pf-HR :0.99999: L2-HR :0.97017: (Sim:1h32m30s) 
CPU  0 inst:  336000001 cyc:  200092242 now IPC :1.73148: AVG IPC :1.67747: L2-Pf-HR :0.99999: L2-HR :0.97018: (Sim:1h32m48s) 
CPU  0 inst:  337000000 cyc:  200669483 now IPC :1.73238: AVG IPC :1.67763: L2-Pf-HR :0.99999: L2-HR :0.97020: (Sim:1h33m6s) 
CPU  0 inst:  338000000 cyc:  201243796 now IPC :1.74121: AVG IPC :1.67781: L2-Pf-HR :0.99999: L2-HR :0.97021: (Sim:1h33m23s) 
CPU  0 inst:  339000000 cyc:  201819500 now IPC :1.73700: AVG IPC :1.67798: L2-Pf-HR :0.99999: L2-HR :0.97023: (Sim:1h33m41s) 
CPU  0 inst:  340000001 cyc:  202498635 now IPC :1.47246: AVG IPC :1.67728: L2-Pf-HR :0.99999: L2-HR :0.97019: (Sim:1h34m0s) 
CPU  0 inst:  341000005 cyc:  203075308 now IPC :1.73409: AVG IPC :1.67745: L2-Pf-HR :0.99999: L2-HR :0.97021: (Sim:1h34m17s) 
CPU  0 inst:  342000001 cyc:  203651994 now IPC :1.73404: AVG IPC :1.67761: L2-Pf-HR :0.99999: L2-HR :0.97023: (Sim:1h34m35s) 
CPU  0 inst:  343000000 cyc:  204228865 now IPC :1.73349: AVG IPC :1.67777: L2-Pf-HR :0.99999: L2-HR :0.97024: (Sim:1h34m53s) 
CPU  0 inst:  344000004 cyc:  204804248 now IPC :1.73798: AVG IPC :1.67794: L2-Pf-HR :0.99999: L2-HR :0.97026: (Sim:1h35m10s) 
CPU  0 inst:  345000003 cyc:  205380262 now IPC :1.73607: AVG IPC :1.67810: L2-Pf-HR :0.99999: L2-HR :0.97027: (Sim:1h35m28s) 
CPU  0 inst:  346000004 cyc:  205957106 now IPC :1.73357: AVG IPC :1.67826: L2-Pf-HR :0.99999: L2-HR :0.97029: (Sim:1h35m45s) 
CPU  0 inst:  347000003 cyc:  206533772 now IPC :1.73410: AVG IPC :1.67841: L2-Pf-HR :0.99999: L2-HR :0.97030: (Sim:1h36m3s) 
CPU  0 inst:  348000001 cyc:  207277980 now IPC :1.34371: AVG IPC :1.67721: L2-Pf-HR :0.99999: L2-HR :0.97021: (Sim:1h36m23s) 
CPU  0 inst:  349000003 cyc:  207885224 now IPC :1.64679: AVG IPC :1.67712: L2-Pf-HR :0.99999: L2-HR :0.97021: (Sim:1h36m41s) 
CPU  0 inst:  350000005 cyc:  208502932 now IPC :1.61889: AVG IPC :1.67694: L2-Pf-HR :0.99999: L2-HR :0.97020: (Sim:1h36m59s) 
CPU  0 inst:  351000001 cyc:  209117879 now IPC :1.62615: AVG IPC :1.67679: L2-Pf-HR :0.99999: L2-HR :0.97019: (Sim:1h37m17s) 
CPU  0 inst:  352000002 cyc:  209723658 now IPC :1.65077: AVG IPC :1.67672: L2-Pf-HR :0.99999: L2-HR :0.97019: (Sim:1h37m35s) 
CPU  0 inst:  353000002 cyc:  210331947 now IPC :1.64396: AVG IPC :1.67662: L2-Pf-HR :0.99999: L2-HR :0.97018: (Sim:1h37m53s) 
CPU  0 inst:  354000001 cyc:  210930233 now IPC :1.67144: AVG IPC :1.67661: L2-Pf-HR :0.99999: L2-HR :0.97018: (Sim:1h38m11s) 
CPU  0 inst:  355000003 cyc:  211547883 now IPC :1.61904: AVG IPC :1.67644: L2-Pf-HR :0.99999: L2-HR :0.97017: (Sim:1h38m29s) 
CPU  0 inst:  356000005 cyc:  212165394 now IPC :1.61941: AVG IPC :1.67627: L2-Pf-HR :0.99999: L2-HR :0.97016: (Sim:1h38m47s) 
CPU  0 inst:  357000003 cyc:  212772370 now IPC :1.64751: AVG IPC :1.67619: L2-Pf-HR :0.99999: L2-HR :0.97016: (Sim:1h39m5s) 
CPU  0 inst:  358000003 cyc:  213382037 now IPC :1.64024: AVG IPC :1.67609: L2-Pf-HR :0.99999: L2-HR :0.97016: (Sim:1h39m23s) 
CPU  0 inst:  359000005 cyc:  213982843 now IPC :1.66443: AVG IPC :1.67605: L2-Pf-HR :0.99999: L2-HR :0.97016: (Sim:1h39m41s) 
CPU  0 inst:  360000001 cyc:  214715232 now IPC :1.36539: AVG IPC :1.67499: L2-Pf-HR :0.99999: L2-HR :0.97008: (Sim:1h40m1s) 
CPU  0 inst:  361000000 cyc:  215283537 now IPC :1.75962: AVG IPC :1.67521: L2-Pf-HR :0.99999: L2-HR :0.97010: (Sim:1h40m19s) 
CPU  0 inst:  362000005 cyc:  215851285 now IPC :1.76135: AVG IPC :1.67544: L2-Pf-HR :0.99999: L2-HR :0.97012: (Sim:1h40m37s) 
CPU  0 inst:  363000005 cyc:  216419407 now IPC :1.76019: AVG IPC :1.67566: L2-Pf-HR :0.99999: L2-HR :0.97013: (Sim:1h40m54s) 
CPU  0 inst:  364000000 cyc:  216987093 now IPC :1.76153: AVG IPC :1.67589: L2-Pf-HR :0.99999: L2-HR :0.97014: (Sim:1h41m12s) 
CPU  0 inst:  365000004 cyc:  217554845 now IPC :1.76134: AVG IPC :1.67611: L2-Pf-HR :0.99999: L2-HR :0.97016: (Sim:1h41m29s) 
CPU  0 inst:  366000004 cyc:  218121340 now IPC :1.76524: AVG IPC :1.67635: L2-Pf-HR :0.99999: L2-HR :0.97017: (Sim:1h41m47s) 
CPU  0 inst:  367000004 cyc:  218688399 now IPC :1.76348: AVG IPC :1.67657: L2-Pf-HR :0.99999: L2-HR :0.97019: (Sim:1h42m5s) 
CPU  0 inst:  368000000 cyc:  219255720 now IPC :1.76266: AVG IPC :1.67680: L2-Pf-HR :0.99999: L2-HR :0.97020: (Sim:1h42m22s) 
CPU  0 inst:  369000005 cyc:  219823025 now IPC :1.76273: AVG IPC :1.67702: L2-Pf-HR :0.99999: L2-HR :0.97022: (Sim:1h42m40s) 
CPU  0 inst:  370000003 cyc:  220390288 now IPC :1.76285: AVG IPC :1.67724: L2-Pf-HR :0.99999: L2-HR :0.97023: (Sim:1h42m57s) 
CPU  0 inst:  371000005 cyc:  220988617 now IPC :1.67132: AVG IPC :1.67723: L2-Pf-HR :0.99999: L2-HR :0.97024: (Sim:1h43m15s) 
CPU  0 inst:  372000005 cyc:  221636312 now IPC :1.54394: AVG IPC :1.67683: L2-Pf-HR :0.99999: L2-HR :0.97021: (Sim:1h43m34s) 
CPU  0 inst:  373000005 cyc:  222212658 now IPC :1.73507: AVG IPC :1.67699: L2-Pf-HR :0.99999: L2-HR :0.97023: (Sim:1h43m51s) 
CPU  0 inst:  374000005 cyc:  222789025 now IPC :1.73501: AVG IPC :1.67714: L2-Pf-HR :0.99999: L2-HR :0.97024: (Sim:1h44m9s) 
CPU  0 inst:  375000003 cyc:  223364826 now IPC :1.73671: AVG IPC :1.67729: L2-Pf-HR :0.99999: L2-HR :0.97026: (Sim:1h44m27s) 
CPU  0 inst:  376000002 cyc:  223941576 now IPC :1.73385: AVG IPC :1.67744: L2-Pf-HR :0.99999: L2-HR :0.97027: (Sim:1h44m44s) 
CPU  0 inst:  377000000 cyc:  224518523 now IPC :1.73326: AVG IPC :1.67758: L2-Pf-HR :0.99999: L2-HR :0.97028: (Sim:1h45m2s) 
CPU  0 inst:  378000002 cyc:  225094306 now IPC :1.73677: AVG IPC :1.67773: L2-Pf-HR :0.99999: L2-HR :0.97030: (Sim:1h45m20s) 
CPU  0 inst:  379000000 cyc:  225768853 now IPC :1.48247: AVG IPC :1.67715: L2-Pf-HR :0.99999: L2-HR :0.97023: (Sim:1h45m40s) 
CPU  0 inst:  380000004 cyc:  226395586 now IPC :1.59558: AVG IPC :1.67692: L2-Pf-HR :0.99999: L2-HR :0.97023: (Sim:1h45m58s) 
CPU  0 inst:  381000001 cyc:  227010552 now IPC :1.62610: AVG IPC :1.67678: L2-Pf-HR :0.99999: L2-HR :0.97022: (Sim:1h46m16s) 
CPU  0 inst:  382000003 cyc:  227630699 now IPC :1.61252: AVG IPC :1.67661: L2-Pf-HR :0.99999: L2-HR :0.97021: (Sim:1h46m34s) 
CPU  0 inst:  383000002 cyc:  228239560 now IPC :1.64241: AVG IPC :1.67652: L2-Pf-HR :0.99999: L2-HR :0.97021: (Sim:1h46m52s) 
CPU  0 inst:  384000000 cyc:  228854597 now IPC :1.62592: AVG IPC :1.67638: L2-Pf-HR :0.99999: L2-HR :0.97020: (Sim:1h47m10s) 
CPU  0 inst:  385000002 cyc:  229462512 now IPC :1.64497: AVG IPC :1.67630: L2-Pf-HR :0.99999: L2-HR :0.97020: (Sim:1h47m28s) 
CPU  0 inst:  386000005 cyc:  230086126 now IPC :1.60356: AVG IPC :1.67610: L2-Pf-HR :0.99999: L2-HR :0.97019: (Sim:1h47m46s) 
CPU  0 inst:  387000001 cyc:  230704461 now IPC :1.61724: AVG IPC :1.67594: L2-Pf-HR :0.99999: L2-HR :0.97018: (Sim:1h48m4s) 
CPU  0 inst:  388000000 cyc:  231311573 now IPC :1.64714: AVG IPC :1.67586: L2-Pf-HR :0.99999: L2-HR :0.97018: (Sim:1h48m22s) 
CPU  0 inst:  389000004 cyc:  231935014 now IPC :1.60401: AVG IPC :1.67567: L2-Pf-HR :0.99999: L2-HR :0.97017: (Sim:1h48m41s) 
CPU  0 inst:  390000004 cyc:  232541785 now IPC :1.64807: AVG IPC :1.67560: L2-Pf-HR :0.99999: L2-HR :0.97017: (Sim:1h48m59s) 
CPU  0 inst:  391000000 cyc:  233277088 now IPC :1.35998: AVG IPC :1.67460: L2-Pf-HR :0.99999: L2-HR :0.97010: (Sim:1h49m18s) 
CPU  0 inst:  392000002 cyc:  233875985 now IPC :1.66974: AVG IPC :1.67459: L2-Pf-HR :0.99999: L2-HR :0.97011: (Sim:1h49m36s) 
CPU  0 inst:  393000005 cyc:  234453210 now IPC :1.73243: AVG IPC :1.67473: L2-Pf-HR :0.99999: L2-HR :0.97013: (Sim:1h49m54s) 
CPU  0 inst:  394000005 cyc:  235031946 now IPC :1.72790: AVG IPC :1.67486: L2-Pf-HR :0.99999: L2-HR :0.97014: (Sim:1h50m12s) 
CPU  0 inst:  395000000 cyc:  235611005 now IPC :1.72693: AVG IPC :1.67499: L2-Pf-HR :0.99999: L2-HR :0.97015: (Sim:1h50m29s) 
CPU  0 inst:  396000004 cyc:  236189150 now IPC :1.72968: AVG IPC :1.67512: L2-Pf-HR :0.99999: L2-HR :0.97017: (Sim:1h50m47s) 
CPU  0 inst:  397000000 cyc:  236767719 now IPC :1.72840: AVG IPC :1.67525: L2-Pf-HR :0.99999: L2-HR :0.97018: (Sim:1h51m5s) 
CPU  0 inst:  398000004 cyc:  237344131 now IPC :1.73488: AVG IPC :1.67540: L2-Pf-HR :0.99999: L2-HR :0.97020: (Sim:1h51m22s) 
CPU  0 inst:  399000000 cyc:  237922048 now IPC :1.73035: AVG IPC :1.67553: L2-Pf-HR :0.99999: L2-HR :0.97021: (Sim:1h51m40s) 
CPU  0 inst:  400000000 cyc:  238499447 now IPC :1.73190: AVG IPC :1.67567: L2-Pf-HR :0.99999: L2-HR :0.97022: (Sim:1h51m57s) 
CPU  0 inst:  401000000 cyc:  239075545 now IPC :1.73582: AVG IPC :1.67582: L2-Pf-HR :0.99999: L2-HR :0.97023: (Sim:1h52m15s) 
CPU  0 inst:  402000004 cyc:  239651289 now IPC :1.73689: AVG IPC :1.67596: L2-Pf-HR :0.99999: L2-HR :0.97025: (Sim:1h52m33s) 
CPU  0 inst:  403000004 cyc:  240320342 now IPC :1.49465: AVG IPC :1.67546: L2-Pf-HR :0.99999: L2-HR :0.97022: (Sim:1h52m52s) 
CPU  0 inst:  404000002 cyc:  240896489 now IPC :1.73566: AVG IPC :1.67560: L2-Pf-HR :0.99999: L2-HR :0.97023: (Sim:1h53m9s) 
CPU  0 inst:  405000001 cyc:  241472334 now IPC :1.73658: AVG IPC :1.67575: L2-Pf-HR :0.99999: L2-HR :0.97024: (Sim:1h53m27s) 
CPU  0 inst:  406000005 cyc:  242048452 now IPC :1.73576: AVG IPC :1.67589: L2-Pf-HR :0.99999: L2-HR :0.97026: (Sim:1h53m45s) 
CPU  0 inst:  407000001 cyc:  242625905 now IPC :1.73174: AVG IPC :1.67602: L2-Pf-HR :0.99999: L2-HR :0.97027: (Sim:1h54m2s) 
CPU  0 inst:  408000005 cyc:  243204421 now IPC :1.72857: AVG IPC :1.67615: L2-Pf-HR :0.99999: L2-HR :0.97028: (Sim:1h54m20s) 
CPU  0 inst:  409000004 cyc:  243783377 now IPC :1.72725: AVG IPC :1.67627: L2-Pf-HR :0.99999: L2-HR :0.97029: (Sim:1h54m38s) 
CPU  0 inst:  410000002 cyc:  244362170 now IPC :1.72773: AVG IPC :1.67639: L2-Pf-HR :0.99999: L2-HR :0.97031: (Sim:1h54m55s) 
CPU  0 inst:  411000001 cyc:  245084134 now IPC :1.38511: AVG IPC :1.67553: L2-Pf-HR :0.99999: L2-HR :0.97024: (Sim:1h55m7s) 
CPU  0 inst:  412000005 cyc:  245692252 now IPC :1.64442: AVG IPC :1.67545: L2-Pf-HR :0.99999: L2-HR :0.97023: (Sim:1h55m23s) 
CPU  0 inst:  413000005 cyc:  246301681 now IPC :1.64088: AVG IPC :1.67537: L2-Pf-HR :0.99999: L2-HR :0.97022: (Sim:1h55m33s) 
CPU  0 inst:  414000001 cyc:  246910083 now IPC :1.64364: AVG IPC :1.67529: L2-Pf-HR :0.99999: L2-HR :0.97022: (Sim:1h55m41s) 
CPU  0 inst:  415000000 cyc:  247528254 now IPC :1.61767: AVG IPC :1.67515: L2-Pf-HR :0.99999: L2-HR :0.97021: (Sim:1h55m50s) 
CPU  0 inst:  416000002 cyc:  248137554 now IPC :1.64123: AVG IPC :1.67506: L2-Pf-HR :0.99999: L2-HR :0.97021: (Sim:1h55m58s) 
CPU  0 inst:  417000003 cyc:  248758094 now IPC :1.61150: AVG IPC :1.67490: L2-Pf-HR :0.99999: L2-HR :0.97020: (Sim:1h56m7s) 
CPU  0 inst:  418000000 cyc:  249371076 now IPC :1.63136: AVG IPC :1.67480: L2-Pf-HR :0.99999: L2-HR :0.97020: (Sim:1h56m16s) 
CPU  0 inst:  419000005 cyc:  249978352 now IPC :1.64671: AVG IPC :1.67473: L2-Pf-HR :0.99999: L2-HR :0.97019: (Sim:1h56m24s) 
CPU  0 inst:  420000001 cyc:  250599211 now IPC :1.61067: AVG IPC :1.67457: L2-Pf-HR :0.99999: L2-HR :0.97019: (Sim:1h56m33s) 
CPU  0 inst:  421000000 cyc:  251209548 now IPC :1.63844: AVG IPC :1.67448: L2-Pf-HR :0.99999: L2-HR :0.97019: (Sim:1h56m41s) 
CPU  0 inst:  422000002 cyc:  251831716 now IPC :1.60729: AVG IPC :1.67431: L2-Pf-HR :0.99999: L2-HR :0.97018: (Sim:1h56m49s) 
CPU  0 inst:  423000003 cyc:  252560279 now IPC :1.37257: AVG IPC :1.67344: L2-Pf-HR :0.99999: L2-HR :0.97012: (Sim:1h56m59s) 
CPU  0 inst:  424000002 cyc:  253134677 now IPC :1.74095: AVG IPC :1.67359: L2-Pf-HR :0.99999: L2-HR :0.97014: (Sim:1h57m7s) 
CPU  0 inst:  425000002 cyc:  253709348 now IPC :1.74013: AVG IPC :1.67374: L2-Pf-HR :0.99999: L2-HR :0.97015: (Sim:1h57m16s) 
CPU  0 inst:  426000002 cyc:  254284706 now IPC :1.73805: AVG IPC :1.67389: L2-Pf-HR :0.99999: L2-HR :0.97016: (Sim:1h57m26s) 
CPU  0 inst:  427000004 cyc:  254856630 now IPC :1.74849: AVG IPC :1.67406: L2-Pf-HR :0.99999: L2-HR :0.97017: (Sim:1h57m38s) 
CPU  0 inst:  428000004 cyc:  255429774 now IPC :1.74476: AVG IPC :1.67422: L2-Pf-HR :0.99999: L2-HR :0.97019: (Sim:1h57m46s) 
CPU  0 inst:  429000005 cyc:  256002468 now IPC :1.74613: AVG IPC :1.67438: L2-Pf-HR :0.99999: L2-HR :0.97020: (Sim:1h57m54s) 
CPU  0 inst:  430000003 cyc:  256574231 now IPC :1.74897: AVG IPC :1.67455: L2-Pf-HR :0.99999: L2-HR :0.97021: (Sim:1h58m2s) 
CPU  0 inst:  431000005 cyc:  257146158 now IPC :1.74848: AVG IPC :1.67471: L2-Pf-HR :0.99999: L2-HR :0.97022: (Sim:1h58m10s) 
CPU  0 inst:  432000003 cyc:  257717580 now IPC :1.75002: AVG IPC :1.67488: L2-Pf-HR :0.99999: L2-HR :0.97023: (Sim:1h58m19s) 
CPU  0 inst:  433000005 cyc:  258287976 now IPC :1.75317: AVG IPC :1.67505: L2-Pf-HR :0.99999: L2-HR :0.97025: (Sim:1h58m27s) 
CPU  0 inst:  434000003 cyc:  258865944 now IPC :1.73020: AVG IPC :1.67518: L2-Pf-HR :0.99999: L2-HR :0.97026: (Sim:1h58m35s) 
CPU  0 inst:  435000004 cyc:  259529525 now IPC :1.50698: AVG IPC :1.67474: L2-Pf-HR :0.99999: L2-HR :0.97023: (Sim:1h58m44s) 
CPU  0 inst:  436000000 cyc:  260097697 now IPC :1.76002: AVG IPC :1.67493: L2-Pf-HR :0.99999: L2-HR :0.97024: (Sim:1h58m53s) 
CPU  0 inst:  437000004 cyc:  260667754 now IPC :1.75422: AVG IPC :1.67510: L2-Pf-HR :0.99999: L2-HR :0.97026: (Sim:1h59m1s) 
CPU  0 inst:  438000002 cyc:  261236817 now IPC :1.75727: AVG IPC :1.67528: L2-Pf-HR :0.99999: L2-HR :0.97027: (Sim:1h59m9s) 
CPU  0 inst:  439000000 cyc:  261805238 now IPC :1.75926: AVG IPC :1.67547: L2-Pf-HR :0.99999: L2-HR :0.97028: (Sim:1h59m18s) 
CPU  0 inst:  440000003 cyc:  262374631 now IPC :1.75626: AVG IPC :1.67564: L2-Pf-HR :0.99999: L2-HR :0.97029: (Sim:1h59m28s) 
CPU  0 inst:  441000001 cyc:  262945736 now IPC :1.75099: AVG IPC :1.67581: L2-Pf-HR :0.99999: L2-HR :0.97030: (Sim:1h59m45s) 
CPU  0 inst:  442000003 cyc:  263574365 now IPC :1.59077: AVG IPC :1.67560: L2-Pf-HR :0.99999: L2-HR :0.97028: (Sim:2h0m4s) 
CPU  0 inst:  443000002 cyc:  264281011 now IPC :1.41513: AVG IPC :1.67490: L2-Pf-HR :0.99999: L2-HR :0.97024: (Sim:2h0m23s) 
CPU  0 inst:  444000000 cyc:  264897349 now IPC :1.62248: AVG IPC :1.67478: L2-Pf-HR :0.99999: L2-HR :0.97023: (Sim:2h0m40s) 
CPU  0 inst:  445000003 cyc:  265506465 now IPC :1.64173: AVG IPC :1.67471: L2-Pf-HR :0.99999: L2-HR :0.97023: (Sim:2h0m58s) 
CPU  0 inst:  446000001 cyc:  266125990 now IPC :1.61414: AVG IPC :1.67456: L2-Pf-HR :0.99999: L2-HR :0.97023: (Sim:2h1m17s) 
CPU  0 inst:  447000004 cyc:  266729756 now IPC :1.65628: AVG IPC :1.67452: L2-Pf-HR :0.99999: L2-HR :0.97022: (Sim:2h1m34s) 
CPU  0 inst:  448000000 cyc:  267351059 now IPC :1.60951: AVG IPC :1.67437: L2-Pf-HR :0.99999: L2-HR :0.97022: (Sim:2h1m52s) 
CPU  0 inst:  449000003 cyc:  267968472 now IPC :1.61967: AVG IPC :1.67425: L2-Pf-HR :0.99999: L2-HR :0.97021: (Sim:2h2m10s) 
CPU  0 inst:  450000001 cyc:  268576836 now IPC :1.64375: AVG IPC :1.67418: L2-Pf-HR :0.99999: L2-HR :0.97021: (Sim:2h2m28s) 
CPU  0 inst:  451000003 cyc:  269194509 now IPC :1.61898: AVG IPC :1.67405: L2-Pf-HR :0.99999: L2-HR :0.97020: (Sim:2h2m46s) 
CPU  0 inst:  452000001 cyc:  269801153 now IPC :1.64841: AVG IPC :1.67399: L2-Pf-HR :0.99999: L2-HR :0.97020: (Sim:2h3m4s) 
CPU  0 inst:  453000004 cyc:  270421406 now IPC :1.61225: AVG IPC :1.67385: L2-Pf-HR :0.99999: L2-HR :0.97019: (Sim:2h3m22s) 
CPU  0 inst:  454000003 cyc:  271125122 now IPC :1.42103: AVG IPC :1.67319: L2-Pf-HR :0.99999: L2-HR :0.97013: (Sim:2h3m39s) 
CPU  0 inst:  455000002 cyc:  271738282 now IPC :1.63089: AVG IPC :1.67309: L2-Pf-HR :0.99999: L2-HR :0.97014: (Sim:2h3m56s) 
CPU  0 inst:  456000005 cyc:  272315017 now IPC :1.73390: AVG IPC :1.67322: L2-Pf-HR :0.99999: L2-HR :0.97015: (Sim:2h4m13s) 
CPU  0 inst:  457000001 cyc:  272892153 now IPC :1.73269: AVG IPC :1.67335: L2-Pf-HR :0.99999: L2-HR :0.97016: (Sim:2h4m30s) 
CPU  0 inst:  458000004 cyc:  273466375 now IPC :1.74149: AVG IPC :1.67349: L2-Pf-HR :0.99999: L2-HR :0.97018: (Sim:2h4m46s) 
CPU  0 inst:  459000004 cyc:  274041646 now IPC :1.73831: AVG IPC :1.67363: L2-Pf-HR :0.99999: L2-HR :0.97019: (Sim:2h5m2s) 
CPU  0 inst:  460000003 cyc:  274617427 now IPC :1.73677: AVG IPC :1.67376: L2-Pf-HR :0.99999: L2-HR :0.97020: (Sim:2h5m19s) 
CPU  0 inst:  461000003 cyc:  275191349 now IPC :1.74240: AVG IPC :1.67391: L2-Pf-HR :0.99999: L2-HR :0.97021: (Sim:2h5m36s) 
CPU  0 inst:  462000005 cyc:  275764316 now IPC :1.74530: AVG IPC :1.67406: L2-Pf-HR :0.99999: L2-HR :0.97022: (Sim:2h5m53s) 
CPU  0 inst:  463000005 cyc:  276338068 now IPC :1.74291: AVG IPC :1.67420: L2-Pf-HR :0.99999: L2-HR :0.97023: (Sim:2h6m10s) 
CPU  0 inst:  464000002 cyc:  276911194 now IPC :1.74481: AVG IPC :1.67435: L2-Pf-HR :0.99999: L2-HR :0.97025: (Sim:2h6m27s) 
CPU  0 inst:  465000002 cyc:  277484412 now IPC :1.74454: AVG IPC :1.67449: L2-Pf-HR :0.99999: L2-HR :0.97026: (Sim:2h6m44s) 
CPU  0 inst:  466000005 cyc:  278160987 now IPC :1.47804: AVG IPC :1.67401: L2-Pf-HR :0.99999: L2-HR :0.97023: (Sim:2h7m1s) 
CPU  0 inst:  467000001 cyc:  278735312 now IPC :1.74117: AVG IPC :1.67415: L2-Pf-HR :0.99999: L2-HR :0.97024: (Sim:2h7m18s) 
CPU  0 inst:  468000000 cyc:  279310091 now IPC :1.73980: AVG IPC :1.67429: L2-Pf-HR :0.99999: L2-HR :0.97025: (Sim:2h7m34s) 
CPU  0 inst:  469000004 cyc:  279883329 now IPC :1.74448: AVG IPC :1.67443: L2-Pf-HR :0.99999: L2-HR :0.97027: (Sim:2h7m51s) 
CPU  0 inst:  470000000 cyc:  280458977 now IPC :1.73717: AVG IPC :1.67456: L2-Pf-HR :0.99999: L2-HR :0.97028: (Sim:2h8m8s) 
CPU  0 inst:  471000000 cyc:  281034521 now IPC :1.73749: AVG IPC :1.67469: L2-Pf-HR :0.99999: L2-HR :0.97029: (Sim:2h8m26s) 
CPU  0 inst:  472000003 cyc:  281608810 now IPC :1.74129: AVG IPC :1.67483: L2-Pf-HR :0.99999: L2-HR :0.97030: (Sim:2h8m43s) 
CPU  0 inst:  473000001 cyc:  282183240 now IPC :1.74085: AVG IPC :1.67496: L2-Pf-HR :0.99999: L2-HR :0.97031: (Sim:2h8m59s) 
CPU  0 inst:  474000000 cyc:  282914171 now IPC :1.36812: AVG IPC :1.67416: L2-Pf-HR :0.99999: L2-HR :0.97025: (Sim:2h9m18s) 
CPU  0 inst:  475000000 cyc:  283531265 now IPC :1.62050: AVG IPC :1.67405: L2-Pf-HR :0.99999: L2-HR :0.97024: (Sim:2h9m36s) 
CPU  0 inst:  476000005 cyc:  284140266 now IPC :1.64204: AVG IPC :1.67398: L2-Pf-HR :0.99999: L2-HR :0.97024: (Sim:2h9m52s) 
CPU  0 inst:  477000001 cyc:  284760788 now IPC :1.61154: AVG IPC :1.67384: L2-Pf-HR :0.99999: L2-HR :0.97023: (Sim:2h10m10s) 
CPU  0 inst:  478000000 cyc:  285365792 now IPC :1.65288: AVG IPC :1.67380: L2-Pf-HR :0.99999: L2-HR :0.97023: (Sim:2h10m27s) 
CPU  0 inst:  479000002 cyc:  285983402 now IPC :1.61915: AVG IPC :1.67368: L2-Pf-HR :0.99999: L2-HR :0.97023: (Sim:2h10m44s) 
CPU  0 inst:  480000004 cyc:  286600450 now IPC :1.62062: AVG IPC :1.67356: L2-Pf-HR :0.99999: L2-HR :0.97022: (Sim:2h11m2s) 
CPU  0 inst:  481000003 cyc:  287204365 now IPC :1.65586: AVG IPC :1.67353: L2-Pf-HR :0.99999: L2-HR :0.97022: (Sim:2h11m19s) 
CPU  0 inst:  482000005 cyc:  287827780 now IPC :1.60407: AVG IPC :1.67338: L2-Pf-HR :0.99999: L2-HR :0.97021: (Sim:2h11m37s) 
CPU  0 inst:  483000001 cyc:  288442541 now IPC :1.62664: AVG IPC :1.67328: L2-Pf-HR :0.99999: L2-HR :0.97021: (Sim:2h11m54s) 
CPU  0 inst:  484000002 cyc:  289071754 now IPC :1.58929: AVG IPC :1.67309: L2-Pf-HR :0.99999: L2-HR :0.97020: (Sim:2h12m11s) 
CPU  0 inst:  485000005 cyc:  289696325 now IPC :1.60110: AVG IPC :1.67294: L2-Pf-HR :0.99999: L2-HR :0.97020: (Sim:2h12m28s) 
CPU  0 inst:  486000002 cyc:  290432057 now IPC :1.35919: AVG IPC :1.67214: L2-Pf-HR :0.99999: L2-HR :0.97015: (Sim:2h12m47s) 
CPU  0 inst:  487000005 cyc:  291012592 now IPC :1.72255: AVG IPC :1.67224: L2-Pf-HR :0.99999: L2-HR :0.97016: (Sim:2h13m4s) 
CPU  0 inst:  488000004 cyc:  291590923 now IPC :1.72911: AVG IPC :1.67235: L2-Pf-HR :0.99999: L2-HR :0.97017: (Sim:2h13m21s) 
CPU  0 inst:  489000000 cyc:  292170063 now IPC :1.72669: AVG IPC :1.67246: L2-Pf-HR :0.99999: L2-HR :0.97018: (Sim:2h13m38s) 
CPU  0 inst:  490000001 cyc:  292748519 now IPC :1.72874: AVG IPC :1.67257: L2-Pf-HR :0.99999: L2-HR :0.97019: (Sim:2h13m48s) 
CPU  0 inst:  491000003 cyc:  293326968 now IPC :1.72876: AVG IPC :1.67268: L2-Pf-HR :0.99999: L2-HR :0.97020: (Sim:2h13m56s) 
CPU  0 inst:  492000003 cyc:  293906348 now IPC :1.72598: AVG IPC :1.67279: L2-Pf-HR :0.99999: L2-HR :0.97021: (Sim:2h14m5s) 
CPU  0 inst:  493000003 cyc:  294485391 now IPC :1.72699: AVG IPC :1.67290: L2-Pf-HR :0.99999: L2-HR :0.97022: (Sim:2h14m13s) 
CPU  0 inst:  494000001 cyc:  295064128 now IPC :1.72790: AVG IPC :1.67300: L2-Pf-HR :0.99999: L2-HR :0.97023: (Sim:2h14m21s) 
CPU  0 inst:  495000002 cyc:  295642026 now IPC :1.73041: AVG IPC :1.67312: L2-Pf-HR :0.99999: L2-HR :0.97024: (Sim:2h14m29s) 
CPU  0 inst:  496000002 cyc:  296219627 now IPC :1.73130: AVG IPC :1.67323: L2-Pf-HR :0.99999: L2-HR :0.97026: (Sim:2h14m37s) 
CPU  0 inst:  497000004 cyc:  296794425 now IPC :1.73975: AVG IPC :1.67336: L2-Pf-HR :0.99999: L2-HR :0.97027: (Sim:2h14m46s) 
CPU  0 inst:  498000000 cyc:  297468721 now IPC :1.48302: AVG IPC :1.67293: L2-Pf-HR :0.99999: L2-HR :0.97024: (Sim:2h14m54s) 
CPU  0 inst:  499000004 cyc:  298047318 now IPC :1.72833: AVG IPC :1.67304: L2-Pf-HR :0.99999: L2-HR :0.97025: (Sim:2h15m3s) 
CPU  0 inst:  500000003 cyc:  298625998 now IPC :1.72807: AVG IPC :1.67314: L2-Pf-HR :0.99999: L2-HR :0.97026: (Sim:2h15m11s) 
CPU  0 inst:  501000002 cyc:  299204066 now IPC :1.72990: AVG IPC :1.67325: L2-Pf-HR :0.99999: L2-HR :0.97027: (Sim:2h15m19s) 
CPU  0 inst:  502000000 cyc:  299781794 now IPC :1.73091: AVG IPC :1.67336: L2-Pf-HR :0.99999: L2-HR :0.97028: (Sim:2h15m28s) 
CPU  0 inst:  503000001 cyc:  300361273 now IPC :1.72569: AVG IPC :1.67347: L2-Pf-HR :0.99999: L2-HR :0.97029: (Sim:2h15m36s) 
CPU  0 inst:  504000000 cyc:  300938978 now IPC :1.73099: AVG IPC :1.67358: L2-Pf-HR :0.99999: L2-HR :0.97030: (Sim:2h15m44s) 
CPU  0 inst:  505000000 cyc:  301521735 now IPC :1.71598: AVG IPC :1.67366: L2-Pf-HR :0.99999: L2-HR :0.97032: (Sim:2h15m52s) 
CPU  0 inst:  506000001 cyc:  305873302 now IPC :0.22980: AVG IPC :1.65305: L2-Pf-HR :0.99999: L2-HR :0.96825: (Sim:2h16m17s) 
CPU  0 inst:  507000000 cyc:  310947667 now IPC :0.19707: AVG IPC :1.62922: L2-Pf-HR :0.99999: L2-HR :0.96592: (Sim:2h16m47s) 
CPU  0 inst:  508000005 cyc:  316105753 now IPC :0.19387: AVG IPC :1.60572: L2-Pf-HR :0.99999: L2-HR :0.96361: (Sim:2h17m17s) 
CPU  0 inst:  509000001 cyc:  321263189 now IPC :0.19389: AVG IPC :1.58299: L2-Pf-HR :0.99999: L2-HR :0.96132: (Sim:2h17m47s) 
CPU  0 inst:  510000000 cyc:  326418123 now IPC :0.19399: AVG IPC :1.56098: L2-Pf-HR :0.99999: L2-HR :0.95905: (Sim:2h18m17s) 
CPU  0 inst:  511000005 cyc:  331575226 now IPC :0.19391: AVG IPC :1.53966: L2-Pf-HR :0.99999: L2-HR :0.95681: (Sim:2h18m47s) 
CPU  0 inst:  512000001 cyc:  336733116 now IPC :0.19388: AVG IPC :1.51898: L2-Pf-HR :0.99999: L2-HR :0.95459: (Sim:2h19m17s) 
CPU  0 inst:  513000000 cyc:  341892725 now IPC :0.19381: AVG IPC :1.49893: L2-Pf-HR :0.99999: L2-HR :0.95239: (Sim:2h19m47s) 
CPU  0 inst:  514000002 cyc:  347052552 now IPC :0.19381: AVG IPC :1.47947: L2-Pf-HR :0.99999: L2-HR :0.95021: (Sim:2h20m18s) 
CPU  0 inst:  515000001 cyc:  352064486 now IPC :0.19952: AVG IPC :1.46120: L2-Pf-HR :0.99999: L2-HR :0.94883: (Sim:2h20m44s) 
CPU  0 inst:  516000004 cyc:  357149282 now IPC :0.19667: AVG IPC :1.44314: L2-Pf-HR :0.99999: L2-HR :0.94850: (Sim:2h21m7s) 
CPU  0 inst:  517000004 cyc:  362233182 now IPC :0.19670: AVG IPC :1.42560: L2-Pf-HR :0.99999: L2-HR :0.94818: (Sim:2h21m47s) 
CPU  0 inst:  518000000 cyc:  367317293 now IPC :0.19669: AVG IPC :1.40855: L2-Pf-HR :0.99999: L2-HR :0.94785: (Sim:2h22m27s) 
CPU  0 inst:  519000003 cyc:  372401631 now IPC :0.19668: AVG IPC :1.39196: L2-Pf-HR :0.99999: L2-HR :0.94752: (Sim:2h22m58s) 
CPU  0 inst:  520000002 cyc:  377485878 now IPC :0.19669: AVG IPC :1.37582: L2-Pf-HR :0.99999: L2-HR :0.94719: (Sim:2h23m17s) 
CPU  0 inst:  521000000 cyc:  382567356 now IPC :0.19679: AVG IPC :1.36012: L2-Pf-HR :0.99999: L2-HR :0.94686: (Sim:2h23m37s) 
CPU  0 inst:  522000005 cyc:  387636195 now IPC :0.19728: AVG IPC :1.34487: L2-Pf-HR :0.99999: L2-HR :0.94654: (Sim:2h23m58s) 
CPU  0 inst:  523000005 cyc:  392535313 now IPC :0.20412: AVG IPC :1.33060: L2-Pf-HR :0.99999: L2-HR :0.94621: (Sim:2h24m27s) 
CPU  0 inst:  524000002 cyc:  397397201 now IPC :0.20568: AVG IPC :1.31680: L2-Pf-HR :0.99999: L2-HR :0.94589: (Sim:2h25m7s) 
CPU  0 inst:  525000000 cyc:  402072200 now IPC :0.21390: AVG IPC :1.30395: L2-Pf-HR :0.99999: L2-HR :0.94556: (Sim:2h25m46s) 
CPU  0 inst:  526000000 cyc:  406826410 now IPC :0.21034: AVG IPC :1.29114: L2-Pf-HR :0.99999: L2-HR :0.94523: (Sim:2h26m26s) 
CPU  0 inst:  527000000 cyc:  411640033 now IPC :0.20774: AVG IPC :1.27844: L2-Pf-HR :0.99999: L2-HR :0.94491: (Sim:2h27m5s) 
CPU  0 inst:  528000002 cyc:  416470744 now IPC :0.20701: AVG IPC :1.26598: L2-Pf-HR :0.99999: L2-HR :0.94458: (Sim:2h27m35s) 
CPU  0 inst:  529000000 cyc:  421366012 now IPC :0.20428: AVG IPC :1.25362: L2-Pf-HR :0.99999: L2-HR :0.94426: (Sim:2h27m54s) 
CPU  0 inst:  530000001 cyc:  426017244 now IPC :0.21500: AVG IPC :1.24225: L2-Pf-HR :0.99999: L2-HR :0.94394: (Sim:2h28m28s) 
CPU  0 inst:  531000000 cyc:  430742888 now IPC :0.21161: AVG IPC :1.23092: L2-Pf-HR :0.99999: L2-HR :0.94361: (Sim:2h29m11s) 
CPU  0 inst:  532000002 cyc:  435452497 now IPC :0.21233: AVG IPC :1.21988: L2-Pf-HR :0.99999: L2-HR :0.94329: (Sim:2h29m54s) 
CPU  0 inst:  533000004 cyc:  440085101 now IPC :0.21586: AVG IPC :1.20928: L2-Pf-HR :0.99999: L2-HR :0.94297: (Sim:2h30m37s) 
CPU  0 inst:  534000004 cyc:  444750402 now IPC :0.21435: AVG IPC :1.19882: L2-Pf-HR :0.99999: L2-HR :0.94264: (Sim:2h31m20s) 
CPU  0 inst:  535000000 cyc:  449485558 now IPC :0.21119: AVG IPC :1.18840: L2-Pf-HR :0.99999: L2-HR :0.94232: (Sim:2h32m3s) 
CPU  0 inst:  536000005 cyc:  454245760 now IPC :0.21008: AVG IPC :1.17812: L2-Pf-HR :0.99999: L2-HR :0.94200: (Sim:2h32m46s) 
CPU  0 inst:  537000005 cyc:  458870787 now IPC :0.21621: AVG IPC :1.16841: L2-Pf-HR :0.99999: L2-HR :0.94168: (Sim:2h33m29s) 
CPU  0 inst:  538000004 cyc:  463575553 now IPC :0.21255: AVG IPC :1.15869: L2-Pf-HR :0.99999: L2-HR :0.94136: (Sim:2h34m12s) 
CPU  0 inst:  539000000 cyc:  468339292 now IPC :0.20992: AVG IPC :1.14902: L2-Pf-HR :0.99999: L2-HR :0.94103: (Sim:2h34m55s) 
CPU  0 inst:  540000003 cyc:  473075865 now IPC :0.21112: AVG IPC :1.13961: L2-Pf-HR :0.99999: L2-HR :0.94071: (Sim:2h35m38s) 
CPU  0 inst:  541000002 cyc:  477723654 now IPC :0.21516: AVG IPC :1.13059: L2-Pf-HR :0.99999: L2-HR :0.94039: (Sim:2h36m21s) 
CPU  0 inst:  542000000 cyc:  482482329 now IPC :0.21014: AVG IPC :1.12150: L2-Pf-HR :0.99999: L2-HR :0.94007: (Sim:2h37m4s) 
CPU  0 inst:  543000000 cyc:  487169387 now IPC :0.21335: AVG IPC :1.11274: L2-Pf-HR :0.99999: L2-HR :0.93975: (Sim:2h37m47s) 
CPU  0 inst:  544000002 cyc:  491986534 now IPC :0.20759: AVG IPC :1.10386: L2-Pf-HR :0.99999: L2-HR :0.93943: (Sim:2h38m31s) 
CPU  0 inst:  545000001 cyc:  496698070 now IPC :0.21224: AVG IPC :1.09539: L2-Pf-HR :0.99999: L2-HR :0.93912: (Sim:2h39m14s) 
CPU  0 inst:  546000000 cyc:  501467599 now IPC :0.20966: AVG IPC :1.08695: L2-Pf-HR :0.99999: L2-HR :0.93880: (Sim:2h39m57s) 
CPU  0 inst:  547000000 cyc:  506059888 now IPC :0.21776: AVG IPC :1.07904: L2-Pf-HR :0.99999: L2-HR :0.93848: (Sim:2h40m40s) 
CPU  0 inst:  548000000 cyc:  510745141 now IPC :0.21344: AVG IPC :1.07109: L2-Pf-HR :0.99999: L2-HR :0.93816: (Sim:2h41m23s) 
CPU  0 inst:  549000002 cyc:  515437406 now IPC :0.21312: AVG IPC :1.06326: L2-Pf-HR :0.99999: L2-HR :0.93784: (Sim:2h42m6s) 
CPU  0 inst:  550000004 cyc:  520118606 now IPC :0.21362: AVG IPC :1.05560: L2-Pf-HR :0.99999: L2-HR :0.93753: (Sim:2h42m49s) 
CPU  0 inst:  551000002 cyc:  524852053 now IPC :0.21126: AVG IPC :1.04797: L2-Pf-HR :0.99999: L2-HR :0.93721: (Sim:2h43m32s) 
CPU  0 inst:  552000004 cyc:  529573391 now IPC :0.21180: AVG IPC :1.04050: L2-Pf-HR :0.99999: L2-HR :0.93689: (Sim:2h44m15s) 
CPU  0 inst:  553000000 cyc:  534266782 now IPC :0.21306: AVG IPC :1.03322: L2-Pf-HR :0.99999: L2-HR :0.93658: (Sim:2h44m58s) 
CPU  0 inst:  554000004 cyc:  538999546 now IPC :0.21129: AVG IPC :1.02599: L2-Pf-HR :0.99999: L2-HR :0.93626: (Sim:2h45m41s) 
CPU  0 inst:  555000004 cyc:  543692743 now IPC :0.21307: AVG IPC :1.01896: L2-Pf-HR :0.99999: L2-HR :0.93594: (Sim:2h46m24s) 
CPU  0 inst:  556000000 cyc:  548329912 now IPC :0.21565: AVG IPC :1.01215: L2-Pf-HR :0.99999: L2-HR :0.93563: (Sim:2h47m7s) 
CPU  0 inst:  557000003 cyc:  553108629 now IPC :0.20926: AVG IPC :1.00521: L2-Pf-HR :0.99999: L2-HR :0.93531: (Sim:2h47m50s) 
CPU  0 inst:  558000002 cyc:  557933480 now IPC :0.20726: AVG IPC :0.99829: L2-Pf-HR :0.99999: L2-HR :0.93500: (Sim:2h48m34s) 
CPU  0 inst:  559000001 cyc:  562648942 now IPC :0.21207: AVG IPC :0.99169: L2-Pf-HR :0.99999: L2-HR :0.93469: (Sim:2h49m17s) 
CPU  0 inst:  560000001 cyc:  567230749 now IPC :0.21825: AVG IPC :0.98543: L2-Pf-HR :0.99999: L2-HR :0.93437: (Sim:2h49m59s) 
CPU  0 inst:  561000003 cyc:  571984515 now IPC :0.21036: AVG IPC :0.97898: L2-Pf-HR :0.99999: L2-HR :0.93406: (Sim:2h50m43s) 
CPU  0 inst:  562000002 cyc:  576770232 now IPC :0.20895: AVG IPC :0.97258: L2-Pf-HR :0.99999: L2-HR :0.93374: (Sim:2h51m26s) 
CPU  0 inst:  563000000 cyc:  581408377 now IPC :0.21560: AVG IPC :0.96653: L2-Pf-HR :0.99999: L2-HR :0.93343: (Sim:2h52m9s) 
CPU  0 inst:  564000000 cyc:  586151960 now IPC :0.21081: AVG IPC :0.96041: L2-Pf-HR :0.99999: L2-HR :0.93312: (Sim:2h52m52s) 
CPU  0 inst:  565000000 cyc:  590850403 now IPC :0.21284: AVG IPC :0.95445: L2-Pf-HR :0.99999: L2-HR :0.93281: (Sim:2h53m35s) 
CPU  0 inst:  566000001 cyc:  595579109 now IPC :0.21147: AVG IPC :0.94854: L2-Pf-HR :0.99999: L2-HR :0.93249: (Sim:2h54m18s) 
CPU  0 inst:  567000005 cyc:  600299778 now IPC :0.21184: AVG IPC :0.94274: L2-Pf-HR :0.99999: L2-HR :0.93218: (Sim:2h55m1s) 
CPU  0 inst:  568000000 cyc:  605047327 now IPC :0.21063: AVG IPC :0.93699: L2-Pf-HR :0.99999: L2-HR :0.93187: (Sim:2h55m44s) 
CPU  0 inst:  569000000 cyc:  609845451 now IPC :0.20841: AVG IPC :0.93124: L2-Pf-HR :0.99999: L2-HR :0.93156: (Sim:2h56m28s) 
CPU  0 inst:  570000002 cyc:  614548201 now IPC :0.21264: AVG IPC :0.92574: L2-Pf-HR :0.99999: L2-HR :0.93125: (Sim:2h57m11s) 
CPU  0 inst:  571000004 cyc:  619279044 now IPC :0.21138: AVG IPC :0.92027: L2-Pf-HR :0.99999: L2-HR :0.93094: (Sim:2h57m54s) 
CPU  0 inst:  572000004 cyc:  623987692 now IPC :0.21238: AVG IPC :0.91492: L2-Pf-HR :0.99999: L2-HR :0.93063: (Sim:2h58m37s) 
CPU  0 inst:  573000000 cyc:  628729812 now IPC :0.21088: AVG IPC :0.90960: L2-Pf-HR :0.99999: L2-HR :0.93032: (Sim:2h59m21s) 
CPU  0 inst:  574000000 cyc:  633447285 now IPC :0.21198: AVG IPC :0.90440: L2-Pf-HR :0.99999: L2-HR :0.93001: (Sim:3h0m4s) 
CPU  0 inst:  575000001 cyc:  638134698 now IPC :0.21334: AVG IPC :0.89931: L2-Pf-HR :0.99999: L2-HR :0.92970: (Sim:3h0m47s) 
CPU  0 inst:  576000004 cyc:  642837459 now IPC :0.21264: AVG IPC :0.89428: L2-Pf-HR :0.99999: L2-HR :0.92939: (Sim:3h1m30s) 
CPU  0 inst:  577000000 cyc:  647529760 now IPC :0.21311: AVG IPC :0.88934: L2-Pf-HR :0.99999: L2-HR :0.92908: (Sim:3h2m13s) 
CPU  0 inst:  578000003 cyc:  652388799 now IPC :0.20580: AVG IPC :0.88424: L2-Pf-HR :0.99999: L2-HR :0.92877: (Sim:3h2m56s) 
CPU  0 inst:  579000002 cyc:  657058802 now IPC :0.21413: AVG IPC :0.87947: L2-Pf-HR :0.99999: L2-HR :0.92847: (Sim:3h3m40s) 
CPU  0 inst:  580000000 cyc:  661713435 now IPC :0.21484: AVG IPC :0.87479: L2-Pf-HR :0.99999: L2-HR :0.92816: (Sim:3h4m22s) 
CPU  0 inst:  581000000 cyc:  666365883 now IPC :0.21494: AVG IPC :0.87018: L2-Pf-HR :0.99999: L2-HR :0.92785: (Sim:3h4m44s) 
CPU  0 inst:  582000005 cyc:  671120800 now IPC :0.21031: AVG IPC :0.86549: L2-Pf-HR :0.99999: L2-HR :0.92755: (Sim:3h5m2s) 
CPU  0 inst:  583000002 cyc:  675670901 now IPC :0.21977: AVG IPC :0.86114: L2-Pf-HR :0.99999: L2-HR :0.92724: (Sim:3h5m21s) 
CPU  0 inst:  584000000 cyc:  680401362 now IPC :0.21140: AVG IPC :0.85661: L2-Pf-HR :0.99999: L2-HR :0.92693: (Sim:3h5m40s) 
CPU  0 inst:  585000000 cyc:  685082748 now IPC :0.21361: AVG IPC :0.85221: L2-Pf-HR :0.99999: L2-HR :0.92663: (Sim:3h5m58s) 
CPU  0 inst:  586000000 cyc:  689805664 now IPC :0.21173: AVG IPC :0.84782: L2-Pf-HR :0.99999: L2-HR :0.92632: (Sim:3h6m17s) 
CPU  0 inst:  587000002 cyc:  694558470 now IPC :0.21040: AVG IPC :0.84345: L2-Pf-HR :0.99999: L2-HR :0.92601: (Sim:3h6m36s) 
CPU  0 inst:  588000005 cyc:  699250432 now IPC :0.21313: AVG IPC :0.83922: L2-Pf-HR :0.99999: L2-HR :0.92571: (Sim:3h6m55s) 
CPU  0 inst:  589000002 cyc:  704034316 now IPC :0.20903: AVG IPC :0.83493: L2-Pf-HR :0.99999: L2-HR :0.92541: (Sim:3h7m14s) 
CPU  0 inst:  590000001 cyc:  708822487 now IPC :0.20885: AVG IPC :0.83070: L2-Pf-HR :0.99999: L2-HR :0.92510: (Sim:3h7m37s) 
CPU  0 inst:  591000002 cyc:  713562904 now IPC :0.21095: AVG IPC :0.82657: L2-Pf-HR :0.99999: L2-HR :0.92480: (Sim:3h8m16s) 
CPU  0 inst:  592000004 cyc:  718358858 now IPC :0.20851: AVG IPC :0.82244: L2-Pf-HR :0.99999: L2-HR :0.92449: (Sim:3h8m56s) 
CPU  0 inst:  593000004 cyc:  723088580 now IPC :0.21143: AVG IPC :0.81844: L2-Pf-HR :0.99999: L2-HR :0.92419: (Sim:3h9m36s) 
CPU  0 inst:  594000000 cyc:  727752907 now IPC :0.21439: AVG IPC :0.81456: L2-Pf-HR :0.99999: L2-HR :0.92389: (Sim:3h10m16s) 
CPU  0 inst:  595000003 cyc:  732390901 now IPC :0.21561: AVG IPC :0.81076: L2-Pf-HR :0.99999: L2-HR :0.92358: (Sim:3h10m54s) 
CPU  0 inst:  596000002 cyc:  737225985 now IPC :0.20682: AVG IPC :0.80680: L2-Pf-HR :0.99999: L2-HR :0.92328: (Sim:3h11m35s) 
CPU  0 inst:  597000003 cyc:  741953926 now IPC :0.21151: AVG IPC :0.80300: L2-Pf-HR :0.99999: L2-HR :0.92298: (Sim:3h12m14s) 
CPU  0 inst:  598000000 cyc:  746525610 now IPC :0.21874: AVG IPC :0.79942: L2-Pf-HR :0.99999: L2-HR :0.92268: (Sim:3h12m53s) 
CPU  0 inst:  599000003 cyc:  751241151 now IPC :0.21207: AVG IPC :0.79573: L2-Pf-HR :0.99999: L2-HR :0.92238: (Sim:3h13m33s) 
CPU  0 inst:  600000002 cyc:  755993254 now IPC :0.21043: AVG IPC :0.79204: L2-Pf-HR :0.99999: L2-HR :0.92207: (Sim:3h14m14s) 
CPU  0 inst:  601000000 cyc:  760657448 now IPC :0.21440: AVG IPC :0.78850: L2-Pf-HR :0.99999: L2-HR :0.92177: (Sim:3h14m53s) 
CPU  0 inst:  602000000 cyc:  765367108 now IPC :0.21233: AVG IPC :0.78495: L2-Pf-HR :0.99999: L2-HR :0.92147: (Sim:3h15m33s) 
CPU  0 inst:  603000001 cyc:  770053845 now IPC :0.21337: AVG IPC :0.78146: L2-Pf-HR :0.99999: L2-HR :0.92117: (Sim:3h16m14s) 
CPU  0 inst:  604000005 cyc:  774717225 now IPC :0.21444: AVG IPC :0.77804: L2-Pf-HR :0.99999: L2-HR :0.92087: (Sim:3h16m51s) 
CPU  0 inst:  605000001 cyc:  779477395 now IPC :0.21008: AVG IPC :0.77457: L2-Pf-HR :0.99999: L2-HR :0.92057: (Sim:3h17m32s) 
CPU  0 inst:  606000000 cyc:  784308543 now IPC :0.20699: AVG IPC :0.77107: L2-Pf-HR :0.99999: L2-HR :0.92027: (Sim:3h18m12s) 
CPU  0 inst:  607000000 cyc:  789148874 now IPC :0.20660: AVG IPC :0.76760: L2-Pf-HR :0.99999: L2-HR :0.91997: (Sim:3h18m51s) 
CPU  0 inst:  608000002 cyc:  793924238 now IPC :0.20941: AVG IPC :0.76424: L2-Pf-HR :0.99999: L2-HR :0.91968: (Sim:3h19m32s) 
CPU  0 inst:  609000004 cyc:  798666695 now IPC :0.21086: AVG IPC :0.76095: L2-Pf-HR :0.99999: L2-HR :0.91938: (Sim:3h20m12s) 
CPU  0 inst:  610000004 cyc:  803401177 now IPC :0.21122: AVG IPC :0.75771: L2-Pf-HR :0.99999: L2-HR :0.91908: (Sim:3h20m51s) 
CPU  0 inst:  611000001 cyc:  808088252 now IPC :0.21335: AVG IPC :0.75455: L2-Pf-HR :0.99999: L2-HR :0.91878: (Sim:3h21m31s) 
CPU  0 inst:  612000001 cyc:  812739133 now IPC :0.21501: AVG IPC :0.75146: L2-Pf-HR :0.99999: L2-HR :0.91848: (Sim:3h22m9s) 
CPU  0 inst:  613000004 cyc:  817481442 now IPC :0.21087: AVG IPC :0.74832: L2-Pf-HR :0.99999: L2-HR :0.91819: (Sim:3h22m49s) 
CPU  0 inst:  614000004 cyc:  822256557 now IPC :0.20942: AVG IPC :0.74518: L2-Pf-HR :0.99999: L2-HR :0.91789: (Sim:3h23m30s) 
CPU  0 inst:  615000000 cyc:  827087960 now IPC :0.20698: AVG IPC :0.74204: L2-Pf-HR :0.99999: L2-HR :0.91759: (Sim:3h24m10s) 
CPU  0 inst:  616000003 cyc:  831858424 now IPC :0.20962: AVG IPC :0.73898: L2-Pf-HR :0.99999: L2-HR :0.91730: (Sim:3h24m50s) 
CPU  0 inst:  617000002 cyc:  836567893 now IPC :0.21234: AVG IPC :0.73601: L2-Pf-HR :0.99999: L2-HR :0.91700: (Sim:3h25m30s) 
CPU  0 inst:  618000000 cyc:  841315828 now IPC :0.21062: AVG IPC :0.73304: L2-Pf-HR :0.99999: L2-HR :0.91670: (Sim:3h26m11s) 
CPU  0 inst:  619000005 cyc:  846094669 now IPC :0.20926: AVG IPC :0.73008: L2-Pf-HR :0.99999: L2-HR :0.91641: (Sim:3h26m49s) 
CPU  0 inst:  620000005 cyc:  850794586 now IPC :0.21277: AVG IPC :0.72722: L2-Pf-HR :0.99999: L2-HR :0.91611: (Sim:3h27m29s) 
CPU  0 inst:  621000002 cyc:  855498164 now IPC :0.21260: AVG IPC :0.72439: L2-Pf-HR :0.99999: L2-HR :0.91582: (Sim:3h28m9s) 
CPU  0 inst:  622000000 cyc:  860239374 now IPC :0.21092: AVG IPC :0.72155: L2-Pf-HR :0.99999: L2-HR :0.91552: (Sim:3h28m47s) 
CPU  0 inst:  623000000 cyc:  864932050 now IPC :0.21310: AVG IPC :0.71879: L2-Pf-HR :0.99999: L2-HR :0.91523: (Sim:3h29m28s) 
CPU  0 inst:  624000000 cyc:  869706993 now IPC :0.20943: AVG IPC :0.71599: L2-Pf-HR :0.99999: L2-HR :0.91493: (Sim:3h30m8s) 
CPU  0 inst:  625000002 cyc:  874400149 now IPC :0.21308: AVG IPC :0.71329: L2-Pf-HR :0.99999: L2-HR :0.91464: (Sim:3h30m46s) 
CPU  0 inst:  626000000 cyc:  879154931 now IPC :0.21031: AVG IPC :0.71057: L2-Pf-HR :0.99999: L2-HR :0.91435: (Sim:3h31m27s) 
CPU  0 inst:  627000001 cyc:  883867779 now IPC :0.21219: AVG IPC :0.70791: L2-Pf-HR :0.99999: L2-HR :0.91406: (Sim:3h32m6s) 
[...]
CPU  0 inst: 1058000002 cyc: 1171988087 now IPC :2.24274: AVG IPC :0.90179: L2-Pf-HR :0.99939: L2-HR :0.91864: (Sim:5h12m4s) 
CPU  0 inst: 1059000000 cyc: 1172500531 now IPC :1.95143: AVG IPC :0.90225: L2-Pf-HR :0.99939: L2-HR :0.91865: (Sim:5h12m12s) 
CPU  0 inst: 1060000003 cyc: 1172965880 now IPC :2.14893: AVG IPC :0.90274: L2-Pf-HR :0.99939: L2-HR :0.91867: (Sim:5h12m19s) 
CPU  0 inst: 1061000002 cyc: 1173538885 now IPC :1.74518: AVG IPC :0.90315: L2-Pf-HR :0.99939: L2-HR :0.91864: (Sim:5h12m27s) 
CPU  0 inst: 1062000001 cyc: 1174016212 now IPC :2.09500: AVG IPC :0.90364: L2-Pf-HR :0.99939: L2-HR :0.91867: (Sim:5h12m36s) 
CPU  0 inst: 1063000000 cyc: 1174563836 now IPC :1.82607: AVG IPC :0.90407: L2-Pf-HR :0.99939: L2-HR :0.91865: (Sim:5h12m44s) 
CPU  0 inst: 1064000003 cyc: 1175031346 now IPC :2.13900: AVG IPC :0.90456: L2-Pf-HR :0.99939: L2-HR :0.91867: (Sim:5h12m51s) 
CPU  0 inst: 1065000001 cyc: 1175478575 now IPC :2.23599: AVG IPC :0.90507: L2-Pf-HR :0.99939: L2-HR :0.91871: (Sim:5h12m58s) 
CPU  0 inst: 1066000005 cyc: 1176009871 now IPC :1.88220: AVG IPC :0.90551: L2-Pf-HR :0.99938: L2-HR :0.91870: (Sim:5h13m6s) 
CPU  0 inst: 1067000003 cyc: 1176581463 now IPC :1.74950: AVG IPC :0.90592: L2-Pf-HR :0.99938: L2-HR :0.91868: (Sim:5h13m15s) 
CPU  0 inst: 1068000003 cyc: 1177049673 now IPC :2.13579: AVG IPC :0.90641: L2-Pf-HR :0.99938: L2-HR :0.91870: (Sim:5h13m23s) 
CPU  0 inst: 1069000002 cyc: 1177517031 now IPC :2.13969: AVG IPC :0.90690: L2-Pf-HR :0.99938: L2-HR :0.91873: (Sim:5h13m31s) 
CPU  0 inst: 1070000003 cyc: 1178073343 now IPC :1.79755: AVG IPC :0.90732: L2-Pf-HR :0.99938: L2-HR :0.91871: (Sim:5h13m39s) 
CPU  0 inst: 1071000000 cyc: 1178519892 now IPC :2.23939: AVG IPC :0.90783: L2-Pf-HR :0.99938: L2-HR :0.91874: (Sim:5h13m46s) 
CPU  0 inst: 1072000002 cyc: 1179047039 now IPC :1.89701: AVG IPC :0.90827: L2-Pf-HR :0.99937: L2-HR :0.91874: (Sim:5h13m53s) 
CPU  0 inst: 1073000004 cyc: 1179494188 now IPC :2.23640: AVG IPC :0.90877: L2-Pf-HR :0.99937: L2-HR :0.91877: (Sim:5h14m0s) 
CPU  0 inst: 1074000002 cyc: 1180073513 now IPC :1.72614: AVG IPC :0.90917: L2-Pf-HR :0.99937: L2-HR :0.91874: (Sim:5h14m9s) 
CPU  0 inst: 1075000001 cyc: 1180551379 now IPC :2.09263: AVG IPC :0.90965: L2-Pf-HR :0.99937: L2-HR :0.91876: (Sim:5h14m18s) 
CPU  0 inst: 1076000002 cyc: 1181110490 now IPC :1.78856: AVG IPC :0.91007: L2-Pf-HR :0.99936: L2-HR :0.91874: (Sim:5h14m26s) 
CPU  0 inst: 1077000000 cyc: 1181556558 now IPC :2.24181: AVG IPC :0.91057: L2-Pf-HR :0.99936: L2-HR :0.91878: (Sim:5h14m33s) 
CPU  0 inst: 1078000001 cyc: 1182062180 now IPC :1.97776: AVG IPC :0.91103: L2-Pf-HR :0.99936: L2-HR :0.91879: (Sim:5h14m40s) 
CPU  0 inst: 1079000001 cyc: 1182528351 now IPC :2.14514: AVG IPC :0.91152: L2-Pf-HR :0.99935: L2-HR :0.91880: (Sim:5h14m47s) 
CPU  0 inst: 1080000002 cyc: 1183036735 now IPC :1.96702: AVG IPC :0.91197: L2-Pf-HR :0.99935: L2-HR :0.91882: (Sim:5h14m55s) 
CPU  0 inst: 1081000000 cyc: 1183538088 now IPC :1.99460: AVG IPC :0.91243: L2-Pf-HR :0.99935: L2-HR :0.91884: (Sim:5h15m3s) 
CPU  0 inst: 1082000002 cyc: 1184179730 now IPC :1.55850: AVG IPC :0.91278: L2-Pf-HR :0.99935: L2-HR :0.91879: (Sim:5h15m12s) 
CPU  0 inst: 1083000000 cyc: 1184728366 now IPC :1.82270: AVG IPC :0.91320: L2-Pf-HR :0.99935: L2-HR :0.91879: (Sim:5h15m19s) 
CPU  0 inst: 1084000004 cyc: 1185276390 now IPC :1.82474: AVG IPC :0.91362: L2-Pf-HR :0.99935: L2-HR :0.91880: (Sim:5h15m27s) 
CPU  0 inst: 1085000001 cyc: 1185928143 now IPC :1.53432: AVG IPC :0.91397: L2-Pf-HR :0.99935: L2-HR :0.91877: (Sim:5h15m35s) 
CPU  0 inst: 1086000000 cyc: 1186445815 now IPC :1.93172: AVG IPC :0.91441: L2-Pf-HR :0.99935: L2-HR :0.91878: (Sim:5h15m41s) 
CPU  0 inst: 1087000005 cyc: 1187062273 now IPC :1.62218: AVG IPC :0.91478: L2-Pf-HR :0.99935: L2-HR :0.91876: (Sim:5h15m49s) 
CPU  0 inst: 1088000002 cyc: 1187588373 now IPC :1.90077: AVG IPC :0.91522: L2-Pf-HR :0.99935: L2-HR :0.91878: (Sim:5h15m56s) 
CPU  0 inst: 1089000001 cyc: 1188171383 now IPC :1.71523: AVG IPC :0.91561: L2-Pf-HR :0.99935: L2-HR :0.91874: (Sim:5h16m5s) 
CPU  0 inst: 1090000000 cyc: 1188639123 now IPC :2.13794: AVG IPC :0.91609: L2-Pf-HR :0.99935: L2-HR :0.91877: (Sim:5h16m13s) 
CPU  0 inst: 1091000004 cyc: 1189203554 now IPC :1.77170: AVG IPC :0.91650: L2-Pf-HR :0.99935: L2-HR :0.91875: (Sim:5h16m21s) 
CPU  0 inst: 1092000003 cyc: 1189651488 now IPC :2.23247: AVG IPC :0.91699: L2-Pf-HR :0.99935: L2-HR :0.91878: (Sim:5h16m27s) 
CPU  0 inst: 1093000004 cyc: 1190183583 now IPC :1.87937: AVG IPC :0.91742: L2-Pf-HR :0.99935: L2-HR :0.91878: (Sim:5h16m35s) 
CPU  0 inst: 1094000004 cyc: 1190632163 now IPC :2.22926: AVG IPC :0.91792: L2-Pf-HR :0.99935: L2-HR :0.91881: (Sim:5h16m41s) 
CPU  0 inst: 1095000002 cyc: 1191220041 now IPC :1.70103: AVG IPC :0.91830: L2-Pf-HR :0.99935: L2-HR :0.91878: (Sim:5h16m51s) 
CPU  0 inst: 1096000002 cyc: 1191689469 now IPC :2.13025: AVG IPC :0.91878: L2-Pf-HR :0.99935: L2-HR :0.91881: (Sim:5h16m59s) 
CPU  0 inst: 1097000002 cyc: 1192263672 now IPC :1.74154: AVG IPC :0.91918: L2-Pf-HR :0.99935: L2-HR :0.91878: (Sim:5h17m7s) 
CPU  0 inst: 1098000004 cyc: 1192712630 now IPC :2.22738: AVG IPC :0.91967: L2-Pf-HR :0.99935: L2-HR :0.91882: (Sim:5h17m14s) 
CPU  0 inst: 1099000003 cyc: 1193169542 now IPC :2.18860: AVG IPC :0.92016: L2-Pf-HR :0.99935: L2-HR :0.91885: (Sim:5h17m21s) 
CPU  0 inst: 1100000001 cyc: 1193689772 now IPC :1.92222: AVG IPC :0.92059: L2-Pf-HR :0.99935: L2-HR :0.91884: (Sim:5h17m28s) 
CPU  0 inst: 1101000001 cyc: 1194267323 now IPC :1.73145: AVG IPC :0.92099: L2-Pf-HR :0.99934: L2-HR :0.91882: (Sim:5h17m37s) 
CPU  0 inst: 1102000001 cyc: 1194734717 now IPC :2.13952: AVG IPC :0.92146: L2-Pf-HR :0.99934: L2-HR :0.91884: (Sim:5h17m45s) 
CPU  0 inst: 1103000001 cyc: 1195218333 now IPC :2.06776: AVG IPC :0.92193: L2-Pf-HR :0.99934: L2-HR :0.91887: (Sim:5h17m52s) 
CPU  0 inst: 1104000001 cyc: 1195765752 now IPC :1.82675: AVG IPC :0.92234: L2-Pf-HR :0.99934: L2-HR :0.91885: (Sim:5h18m0s) 
CPU  0 inst: 1105000004 cyc: 1196211911 now IPC :2.24136: AVG IPC :0.92284: L2-Pf-HR :0.99934: L2-HR :0.91888: (Sim:5h18m7s) 
CPU  0 inst: 1106000000 cyc: 1196741744 now IPC :1.88738: AVG IPC :0.92326: L2-Pf-HR :0.99933: L2-HR :0.91888: (Sim:5h18m14s) 
CPU  0 inst: 1107000002 cyc: 1197201101 now IPC :2.17696: AVG IPC :0.92374: L2-Pf-HR :0.99933: L2-HR :0.91891: (Sim:5h18m21s) 
CPU  0 inst: 1108000005 cyc: 1197784406 now IPC :1.71437: AVG IPC :0.92413: L2-Pf-HR :0.99933: L2-HR :0.91888: (Sim:5h18m30s) 
CPU  0 inst: 1109000005 cyc: 1198251235 now IPC :2.14211: AVG IPC :0.92460: L2-Pf-HR :0.99933: L2-HR :0.91890: (Sim:5h18m38s) 
CPU  0 inst: 1110000003 cyc: 1198825054 now IPC :1.74271: AVG IPC :0.92500: L2-Pf-HR :0.99932: L2-HR :0.91888: (Sim:5h18m46s) 
CPU  0 inst: 1111000000 cyc: 1199271712 now IPC :2.23884: AVG IPC :0.92549: L2-Pf-HR :0.99932: L2-HR :0.91891: (Sim:5h18m52s) 
CPU  0 inst: 1112000001 cyc: 1199807591 now IPC :1.86609: AVG IPC :0.92591: L2-Pf-HR :0.99932: L2-HR :0.91891: (Sim:5h19m0s) 
CPU  0 inst: 1113000002 cyc: 1200255094 now IPC :2.23462: AVG IPC :0.92639: L2-Pf-HR :0.99931: L2-HR :0.91894: (Sim:5h19m6s) 
CPU  0 inst: 1114000002 cyc: 1200771480 now IPC :1.93654: AVG IPC :0.92683: L2-Pf-HR :0.99931: L2-HR :0.91895: (Sim:5h19m14s) 
CPU  0 inst: 1115000003 cyc: 1201271463 now IPC :2.00007: AVG IPC :0.92728: L2-Pf-HR :0.99931: L2-HR :0.91897: (Sim:5h19m21s) 
CPU  0 inst: 1116000003 cyc: 1201922875 now IPC :1.53513: AVG IPC :0.92761: L2-Pf-HR :0.99931: L2-HR :0.91892: (Sim:5h19m30s) 
CPU  0 inst: 1117000002 cyc: 1202474681 now IPC :1.81223: AVG IPC :0.92801: L2-Pf-HR :0.99931: L2-HR :0.91892: (Sim:5h19m38s) 
CPU  0 inst: 1118000002 cyc: 1203072464 now IPC :1.67285: AVG IPC :0.92838: L2-Pf-HR :0.99931: L2-HR :0.91891: (Sim:5h19m46s) 
CPU  0 inst: 1119000003 cyc: 1203666746 now IPC :1.68270: AVG IPC :0.92876: L2-Pf-HR :0.99931: L2-HR :0.91890: (Sim:5h19m53s) 
CPU  0 inst: 1120000004 cyc: 1204197370 now IPC :1.88458: AVG IPC :0.92918: L2-Pf-HR :0.99931: L2-HR :0.91891: (Sim:5h20m0s) 
CPU  0 inst: 1121000003 cyc: 1204812396 now IPC :1.62595: AVG IPC :0.92953: L2-Pf-HR :0.99931: L2-HR :0.91889: (Sim:5h20m8s) 
CPU  0 inst: 1122000001 cyc: 1205442078 now IPC :1.58810: AVG IPC :0.92988: L2-Pf-HR :0.99931: L2-HR :0.91885: (Sim:5h20m16s) 
CPU  0 inst: 1123000003 cyc: 1205909746 now IPC :2.13827: AVG IPC :0.93035: L2-Pf-HR :0.99931: L2-HR :0.91887: (Sim:5h20m24s) 
CPU  0 inst: 1124000000 cyc: 1206377298 now IPC :2.13879: AVG IPC :0.93082: L2-Pf-HR :0.99931: L2-HR :0.91890: (Sim:5h20m31s) 
CPU  0 inst: 1125000005 cyc: 1206945508 now IPC :1.75992: AVG IPC :0.93121: L2-Pf-HR :0.99931: L2-HR :0.91888: (Sim:5h20m39s) 
CPU  0 inst: 1126000000 cyc: 1207392026 now IPC :2.23954: AVG IPC :0.93169: L2-Pf-HR :0.99931: L2-HR :0.91891: (Sim:5h20m46s) 
CPU  0 inst: 1127000001 cyc: 1207925085 now IPC :1.87597: AVG IPC :0.93211: L2-Pf-HR :0.99931: L2-HR :0.91891: (Sim:5h20m53s) 
CPU  0 inst: 1128000005 cyc: 1208372769 now IPC :2.23373: AVG IPC :0.93259: L2-Pf-HR :0.99931: L2-HR :0.91894: (Sim:5h21m0s) 
CPU  0 inst: 1129000000 cyc: 1208959310 now IPC :1.70490: AVG IPC :0.93296: L2-Pf-HR :0.99931: L2-HR :0.91891: (Sim:5h21m9s) 
CPU  0 inst: 1130000001 cyc: 1209437487 now IPC :2.09128: AVG IPC :0.93342: L2-Pf-HR :0.99931: L2-HR :0.91893: (Sim:5h21m17s) 
CPU  0 inst: 1131000005 cyc: 1210007065 now IPC :1.75569: AVG IPC :0.93381: L2-Pf-HR :0.99931: L2-HR :0.91891: (Sim:5h21m25s) 
CPU  0 inst: 1132000005 cyc: 1210453552 now IPC :2.23971: AVG IPC :0.93429: L2-Pf-HR :0.99931: L2-HR :0.91894: (Sim:5h21m31s) 
CPU  0 inst: 1133000003 cyc: 1210953849 now IPC :1.99881: AVG IPC :0.93473: L2-Pf-HR :0.99931: L2-HR :0.91896: (Sim:5h21m38s) 
CPU  0 inst: 1134000000 cyc: 1211433832 now IPC :2.08340: AVG IPC :0.93519: L2-Pf-HR :0.99930: L2-HR :0.91897: (Sim:5h21m45s) 
CPU  0 inst: 1135000002 cyc: 1212005591 now IPC :1.74899: AVG IPC :0.93557: L2-Pf-HR :0.99930: L2-HR :0.91894: (Sim:5h21m54s) 
CPU  0 inst: 1136000004 cyc: 1212483669 now IPC :2.09171: AVG IPC :0.93603: L2-Pf-HR :0.99930: L2-HR :0.91896: (Sim:5h22m2s) 
CPU  0 inst: 1137000001 cyc: 1213023794 now IPC :1.85142: AVG IPC :0.93644: L2-Pf-HR :0.99930: L2-HR :0.91896: (Sim:5h22m10s) 
CPU  0 inst: 1138000002 cyc: 1213506694 now IPC :2.07082: AVG IPC :0.93689: L2-Pf-HR :0.99930: L2-HR :0.91897: (Sim:5h22m17s) 
CPU  0 inst: 1139000002 cyc: 1213953603 now IPC :2.23759: AVG IPC :0.93737: L2-Pf-HR :0.99930: L2-HR :0.91900: (Sim:5h22m23s) 
CPU  0 inst: 1140000003 cyc: 1214482651 now IPC :1.89019: AVG IPC :0.93778: L2-Pf-HR :0.99929: L2-HR :0.91900: (Sim:5h22m31s) 
CPU  0 inst: 1141000000 cyc: 1215040675 now IPC :1.79203: AVG IPC :0.93818: L2-Pf-HR :0.99929: L2-HR :0.91897: (Sim:5h22m39s) 
CPU  0 inst: 1142000000 cyc: 1215523030 now IPC :2.07316: AVG IPC :0.93863: L2-Pf-HR :0.99929: L2-HR :0.91899: (Sim:5h22m46s) 
CPU  0 inst: 1143000000 cyc: 1215991026 now IPC :2.13677: AVG IPC :0.93909: L2-Pf-HR :0.99928: L2-HR :0.91902: (Sim:5h22m54s) 
CPU  0 inst: 1144000004 cyc: 1216557459 now IPC :1.76544: AVG IPC :0.93947: L2-Pf-HR :0.99928: L2-HR :0.91899: (Sim:5h23m2s) 
CPU  0 inst: 1145000000 cyc: 1217003498 now IPC :2.24195: AVG IPC :0.93995: L2-Pf-HR :0.99928: L2-HR :0.91903: (Sim:5h23m9s) 
CPU  0 inst: 1146000002 cyc: 1217531672 now IPC :1.89332: AVG IPC :0.94036: L2-Pf-HR :0.99928: L2-HR :0.91902: (Sim:5h23m16s) 
CPU  0 inst: 1147000003 cyc: 1217978390 now IPC :2.23855: AVG IPC :0.94084: L2-Pf-HR :0.99927: L2-HR :0.91905: (Sim:5h23m22s) 
CPU  0 inst: 1148000003 cyc: 1218499824 now IPC :1.91779: AVG IPC :0.94126: L2-Pf-HR :0.99927: L2-HR :0.91906: (Sim:5h23m29s) 
CPU  0 inst: 1149000001 cyc: 1219014130 now IPC :1.94436: AVG IPC :0.94168: L2-Pf-HR :0.99927: L2-HR :0.91907: (Sim:5h23m36s) 
CPU  0 inst: 1150000005 cyc: 1219669576 now IPC :1.52568: AVG IPC :0.94200: L2-Pf-HR :0.99926: L2-HR :0.91902: (Sim:5h23m44s) 
CPU  0 inst: 1151000003 cyc: 1220202623 now IPC :1.87600: AVG IPC :0.94241: L2-Pf-HR :0.99926: L2-HR :0.91903: (Sim:5h23m50s) 
CPU  0 inst: 1152000002 cyc: 1220878048 now IPC :1.48055: AVG IPC :0.94270: L2-Pf-HR :0.99926: L2-HR :0.91899: (Sim:5h23m58s) 
CPU  0 inst: 1153000005 cyc: 1221404660 now IPC :1.89894: AVG IPC :0.94312: L2-Pf-HR :0.99926: L2-HR :0.91900: (Sim:5h24m4s) 
CPU  0 inst: 1154000001 cyc: 1221928209 now IPC :1.91003: AVG IPC :0.94353: L2-Pf-HR :0.99926: L2-HR :0.91901: (Sim:5h24m10s) 
CPU  0 inst: 1155000003 cyc: 1222545770 now IPC :1.61928: AVG IPC :0.94387: L2-Pf-HR :0.99927: L2-HR :0.91899: (Sim:5h24m17s) 
CPU  0 inst: 1156000002 cyc: 1223155104 now IPC :1.64113: AVG IPC :0.94422: L2-Pf-HR :0.99927: L2-HR :0.91896: (Sim:5h24m24s) 
CPU  0 inst: 1157000000 cyc: 1223622893 now IPC :2.13771: AVG IPC :0.94468: L2-Pf-HR :0.99927: L2-HR :0.91898: (Sim:5h24m31s) 
CPU  0 inst: 1158000005 cyc: 1224104792 now IPC :2.07513: AVG IPC :0.94512: L2-Pf-HR :0.99927: L2-HR :0.91901: (Sim:5h24m38s) 
CPU  0 inst: 1159000003 cyc: 1224655259 now IPC :1.81664: AVG IPC :0.94551: L2-Pf-HR :0.99927: L2-HR :0.91899: (Sim:5h24m45s) 
CPU  0 inst: 1160000001 cyc: 1225102564 now IPC :2.23561: AVG IPC :0.94599: L2-Pf-HR :0.99927: L2-HR :0.91902: (Sim:5h24m51s) 
CPU  0 inst: 1161000004 cyc: 1225631995 now IPC :1.88883: AVG IPC :0.94639: L2-Pf-HR :0.99927: L2-HR :0.91901: (Sim:5h24m57s) 
CPU  0 inst: 1162000005 cyc: 1226090680 now IPC :2.18015: AVG IPC :0.94686: L2-Pf-HR :0.99927: L2-HR :0.91904: (Sim:5h25m3s) 
CPU  0 inst: 1163000000 cyc: 1226666454 now IPC :1.73678: AVG IPC :0.94723: L2-Pf-HR :0.99927: L2-HR :0.91901: (Sim:5h25m12s) 
CPU  0 inst: 1164000005 cyc: 1227133616 now IPC :2.14060: AVG IPC :0.94768: L2-Pf-HR :0.99927: L2-HR :0.91903: (Sim:5h25m18s) 
CPU  0 inst: 1165000003 cyc: 1227698052 now IPC :1.77168: AVG IPC :0.94806: L2-Pf-HR :0.99927: L2-HR :0.91901: (Sim:5h25m26s) 
CPU  0 inst: 1166000003 cyc: 1228145632 now IPC :2.23424: AVG IPC :0.94853: L2-Pf-HR :0.99927: L2-HR :0.91904: (Sim:5h25m31s) 
CPU  0 inst: 1167000005 cyc: 1228672061 now IPC :1.89960: AVG IPC :0.94894: L2-Pf-HR :0.99927: L2-HR :0.91904: (Sim:5h25m38s) 
CPU  0 inst: 1168000001 cyc: 1229120240 now IPC :2.23124: AVG IPC :0.94940: L2-Pf-HR :0.99926: L2-HR :0.91907: (Sim:5h25m44s) 
CPU  0 inst: 1169000004 cyc: 1229697033 now IPC :1.73373: AVG IPC :0.94977: L2-Pf-HR :0.99926: L2-HR :0.91904: (Sim:5h25m52s) 
CPU  0 inst: 1170000002 cyc: 1230164902 now IPC :2.13735: AVG IPC :0.95023: L2-Pf-HR :0.99926: L2-HR :0.91906: (Sim:5h25m58s) 
CPU  0 inst: 1171000005 cyc: 1230740839 now IPC :1.73631: AVG IPC :0.95059: L2-Pf-HR :0.99926: L2-HR :0.91904: (Sim:5h26m6s) 
CPU  0 inst: 1172000002 cyc: 1231187411 now IPC :2.23927: AVG IPC :0.95106: L2-Pf-HR :0.99926: L2-HR :0.91907: (Sim:5h26m12s) 
CPU  0 inst: 1173000000 cyc: 1231641438 now IPC :2.20251: AVG IPC :0.95152: L2-Pf-HR :0.99926: L2-HR :0.91910: (Sim:5h26m18s) 
CPU  0 inst: 1174000001 cyc: 1232161878 now IPC :1.92145: AVG IPC :0.95193: L2-Pf-HR :0.99925: L2-HR :0.91909: (Sim:5h26m24s) 
CPU  0 inst: 1175000000 cyc: 1232728847 now IPC :1.76376: AVG IPC :0.95231: L2-Pf-HR :0.99925: L2-HR :0.91906: (Sim:5h26m32s) 
CPU  0 inst: 1176000004 cyc: 1233195730 now IPC :2.14187: AVG IPC :0.95276: L2-Pf-HR :0.99925: L2-HR :0.91908: (Sim:5h26m38s) 
CPU  0 inst: 1177000002 cyc: 1233676541 now IPC :2.07982: AVG IPC :0.95320: L2-Pf-HR :0.99925: L2-HR :0.91911: (Sim:5h26m45s) 
CPU  0 inst: 1178000005 cyc: 1234229322 now IPC :1.80904: AVG IPC :0.95358: L2-Pf-HR :0.99924: L2-HR :0.91909: (Sim:5h26m52s) 
CPU  0 inst: 1179000001 cyc: 1234676437 now IPC :2.23655: AVG IPC :0.95405: L2-Pf-HR :0.99924: L2-HR :0.91912: (Sim:5h26m58s) 
CPU  0 inst: 1180000003 cyc: 1235206795 now IPC :1.88552: AVG IPC :0.95445: L2-Pf-HR :0.99924: L2-HR :0.91911: (Sim:5h27m5s) 
Finished CPU 0 instr: 1178000001 cyc: 1234224303 AVG IPC: 0.95445 (Sim time: 5h27m5s)

ChampSim completed all CPUs

[ROI Statistics]
Core_0_instructions 1178000001
Core_0_cycles 1234224303
Core_0_IPC 0.95445

Core_0_branch_prediction_accuracy 98.59145
Core_0_branch_MPKI 0.33782
Core_0_average_ROB_occupancy_at_mispredict 616.85218

Core_0_L1D_total_access 297102213
Core_0_L1D_total_hit 275953189 L1D_total_Hit Ratio: 0.92882
Core_0_L1D_total_miss 21149024
Core_0_L1D_loads 273332115
Core_0_L1D_load_hit 253330566 L1D_load_Hit Ratio: 0.92682
Core_0_L1D_load_miss 20001549
Core_0_L1D_RFOs 22905667
Core_0_L1D_RFO_hit 21758192 L1D_RFO_Hit Ratio: 0.94990
Core_0_L1D_RFO_miss 1147475
Core_0_L1D_prefetches 864431
Core_0_L1D_prefetch_hit 864431 L1D_prefetch_Hit Ratio: 1.00000
Core_0_L1D_prefetch_miss 0
Core_0_L1D_writebacks 0
Core_0_L1D_writeback_hit 0 L1D_writeback_Hit Ratio: -nan
Core_0_L1D_writeback_miss 0
Core_0_L1D_prefetch_requested 101335678
Core_0_L1D_prefetch_issued 59431133
Core_0_L1D_prefetch_useful 0 L1D_Useful Ratio: 0.00000
Core_0_L1D_prefetch_useless 0
Core_0_L1D_prefetch_late 0
Core_0_L1D_average_miss_latency 103.97946

Core_0_L1I_total_access 161887621
Core_0_L1I_total_hit 161885733 L1I_total_Hit Ratio: 0.99999
Core_0_L1I_total_miss 1888
Core_0_L1I_loads 161887621
Core_0_L1I_load_hit 161885733 L1I_load_Hit Ratio: 0.99999
Core_0_L1I_load_miss 1888
Core_0_L1I_RFOs 0
Core_0_L1I_RFO_hit 0 L1I_RFO_Hit Ratio: -nan
Core_0_L1I_RFO_miss 0
Core_0_L1I_prefetches 0
Core_0_L1I_prefetch_hit 0 L1I_prefetch_Hit Ratio: -nan
Core_0_L1I_prefetch_miss 0
Core_0_L1I_writebacks 0
Core_0_L1I_writeback_hit 0 L1I_writeback_Hit Ratio: -nan
Core_0_L1I_writeback_miss 0
Core_0_L1I_prefetch_requested 0
Core_0_L1I_prefetch_issued 0
Core_0_L1I_prefetch_useful 0 L1I_Useful Ratio: -nan
Core_0_L1I_prefetch_useless 0
Core_0_L1I_prefetch_late 0
Core_0_L1I_average_miss_latency 281.86653

Core_0_L2C_total_access 73295997
Core_0_L2C_total_hit 67367153 L2C_total_Hit Ratio: 0.91911
Core_0_L2C_total_miss 5928844
Core_0_L2C_loads 20003437
Core_0_L2C_load_hit 15159110 L2C_load_Hit Ratio: 0.75783
Core_0_L2C_load_miss 4844327
Core_0_L2C_RFOs 1147475
Core_0_L2C_RFO_hit 98109 L2C_RFO_Hit Ratio: 0.08550
Core_0_L2C_RFO_miss 1049366
Core_0_L2C_prefetches 46142200
Core_0_L2C_prefetch_hit 46107054 L2C_prefetch_Hit Ratio: 0.99924
Core_0_L2C_prefetch_miss 35146
Core_0_L2C_writebacks 6002885
Core_0_L2C_writeback_hit 6002880 L2C_writeback_Hit Ratio: 1.00000
Core_0_L2C_writeback_miss 5
Core_0_L2C_prefetch_requested 17685914
Core_0_L2C_prefetch_issued 52823
Core_0_L2C_prefetch_useful 35075 L2C_Useful Ratio: 0.66401
Core_0_L2C_prefetch_useless 71
Core_0_L2C_prefetch_late 842
Core_0_L2C_average_miss_latency 301.74005

Core_0_LLC_total_access 9275238
Core_0_LLC_total_hit 3456295 LLC_total_Hit Ratio: 0.37264
Core_0_LLC_total_miss 5818943
Core_0_LLC_loads 4843485
Core_0_LLC_load_hit 124757 LLC_load_Hit Ratio: 0.02576
Core_0_LLC_load_miss 4718728
Core_0_LLC_RFOs 1049366
Core_0_LLC_RFO_hit 303 LLC_RFO_Hit Ratio: 0.00029
Core_0_LLC_RFO_miss 1049063
Core_0_LLC_prefetches 41361
Core_0_LLC_prefetch_hit 37354 LLC_prefetch_Hit Ratio: 0.90312
Core_0_LLC_prefetch_miss 4007
Core_0_LLC_writebacks 3341026
Core_0_LLC_writeback_hit 3293881 LLC_writeback_Hit Ratio: 0.98589
Core_0_LLC_writeback_miss 47145
Core_0_LLC_prefetch_requested 0
Core_0_LLC_prefetch_issued 0
Core_0_LLC_prefetch_useful 1293 LLC_Useful Ratio: inf
Core_0_LLC_prefetch_useless 2705
Core_0_LLC_prefetch_late 638
Core_0_LLC_average_miss_latency 266.35859

Core_0_major_page_fault 0
Core_0_minor_page_fault 42073

CPU 0 L1D next line prefetcher final stats
Prefetcher final stats
Training Unit Size: 4542
Addr table size: 2631566 2631567


Triggers: 4860052
No Prediction: 2637201 54.26281
Stream end: 20138
No translation: 2666695 54.86968
Predictions: 52823 1.08688


Stream divergence: 31280 0.64361
Stream divergence -- new stream: 0
Channel_0_RQ_row_buffer_hit 3263409
Channel_0_RQ_row_buffer_miss 2508389
Channel_0_WQ_row_buffer_hit 1483087
Channel_0_WQ_row_buffer_miss 1788548
Channel_0_WQ_full 17742
Channel_0_dbus_congested 2535989

avg_congested_cycle 8

EzSearch AVG IPC :0.95445: L2-Pf-HR :0.99924 : L2-HR :0.91911 Uful:0.66401
     > Finished combination: TraceType=770-tot Sim:1178000000 Prefetcher=L2isb_ideal L1=isb_ideal
