TRACE: _v1[331000000]Pythia-70M_[h8][s1024][d64] Warmup: 2000000 NumTraces: 331000000
L1:no:L2:no
*************************************************
   ChampSim Multicore Out-of-Order Simulator
   Last compiled: Oct 18 2024 17:01:11
*************************************************

trace_0 770-tot_memTraces_v3/memTraces_v1[331000000]Pythia-70M_[h8][s1024][d64].champsim.xz
MAIN.cc ln 751 stats print skipped
CPU  0 inst:    1000001 cyc:     503668 now IPC :1.98544: AVG IPC :1.98544: L2-Pf-HR :-nan: L2-HR :0.64912: (Sim:0h0m4s) 
CPU  0 inst:    2000000 cyc:     980266 now IPC :2.09820: AVG IPC :2.04026: L2-Pf-HR :-nan: L2-HR :0.70355: (Sim:0h0m9s) 

Warmup complete CPU  0 instructions:    2000001 cycles:     980267 (Simulation time: 0 hr 0 min 9 sec) 

CPU  0 inst:    3000003 cyc:    1750560 now IPC :1.29821: AVG IPC :1.29821: L2-Pf-HR :-nan: L2-HR :0.74582: (Sim:0h0m13s) 
CPU  0 inst:    4000000 cyc:    2531006 now IPC :1.28131: AVG IPC :1.28971: L2-Pf-HR :-nan: L2-HR :0.74491: (Sim:0h0m18s) 
CPU  0 inst:    5000000 cyc:    3312952 now IPC :1.27886: AVG IPC :1.28607: L2-Pf-HR :-nan: L2-HR :0.74415: (Sim:0h0m22s) 
CPU  0 inst:    6000001 cyc:    4107245 now IPC :1.25898: AVG IPC :1.27919: L2-Pf-HR :-nan: L2-HR :0.74399: (Sim:0h0m27s) 
CPU  0 inst:    7000003 cyc:    5051274 now IPC :1.05929: AVG IPC :1.22820: L2-Pf-HR :-nan: L2-HR :0.74246: (Sim:0h0m32s) 
CPU  0 inst:    8000000 cyc:    5894463 now IPC :1.18597: AVG IPC :1.22095: L2-Pf-HR :-nan: L2-HR :0.74394: (Sim:0h0m37s) 
CPU  0 inst:    9000003 cyc:    6734549 now IPC :1.19036: AVG IPC :1.21649: L2-Pf-HR :-nan: L2-HR :0.74509: (Sim:0h0m41s) 
CPU  0 inst:   10000000 cyc:    7576048 now IPC :1.18835: AVG IPC :1.21290: L2-Pf-HR :-nan: L2-HR :0.74586: (Sim:0h0m46s) 
CPU  0 inst:   11000001 cyc:    8414081 now IPC :1.19327: AVG IPC :1.21068: L2-Pf-HR :-nan: L2-HR :0.74627: (Sim:0h0m51s) 
CPU  0 inst:   12000000 cyc:    9248675 now IPC :1.19819: AVG IPC :1.20942: L2-Pf-HR :-nan: L2-HR :0.74678: (Sim:0h0m56s) 
CPU  0 inst:   13000002 cyc:   10148633 now IPC :1.11117: AVG IPC :1.19978: L2-Pf-HR :-nan: L2-HR :0.74600: (Sim:0h1m1s) 
CPU  0 inst:   14000001 cyc:   10968167 now IPC :1.22020: AVG IPC :1.20145: L2-Pf-HR :-nan: L2-HR :0.74607: (Sim:0h1m5s) 
CPU  0 inst:   15000003 cyc:   11780477 now IPC :1.23106: AVG IPC :1.20368: L2-Pf-HR :-nan: L2-HR :0.74613: (Sim:0h1m9s) 
CPU  0 inst:   16000000 cyc:   12589406 now IPC :1.23620: AVG IPC :1.20595: L2-Pf-HR :-nan: L2-HR :0.74600: (Sim:0h1m14s) 
CPU  0 inst:   17000002 cyc:   13552194 now IPC :1.03865: AVG IPC :1.19313: L2-Pf-HR :-nan: L2-HR :0.74299: (Sim:0h1m19s) 
CPU  0 inst:   18000003 cyc:   14386523 now IPC :1.19857: AVG IPC :1.19347: L2-Pf-HR :-nan: L2-HR :0.74284: (Sim:0h1m22s) 
CPU  0 inst:   19000001 cyc:   15224480 now IPC :1.19338: AVG IPC :1.19347: L2-Pf-HR :-nan: L2-HR :0.74269: (Sim:0h1m26s) 
CPU  0 inst:   20000000 cyc:   16060655 now IPC :1.19592: AVG IPC :1.19360: L2-Pf-HR :-nan: L2-HR :0.74278: (Sim:0h1m29s) 
CPU  0 inst:   21000001 cyc:   16909125 now IPC :1.17859: AVG IPC :1.19280: L2-Pf-HR :-nan: L2-HR :0.74262: (Sim:0h1m34s) 
CPU  0 inst:   22000001 cyc:   17758885 now IPC :1.17680: AVG IPC :1.19199: L2-Pf-HR :-nan: L2-HR :0.74256: (Sim:0h1m38s) 
CPU  0 inst:   23000003 cyc:   18716922 now IPC :1.04380: AVG IPC :1.18399: L2-Pf-HR :-nan: L2-HR :0.74228: (Sim:0h1m43s) 
CPU  0 inst:   24000000 cyc:   19560171 now IPC :1.18589: AVG IPC :1.18407: L2-Pf-HR :-nan: L2-HR :0.74263: (Sim:0h1m48s) 
CPU  0 inst:   25000003 cyc:   20398202 now IPC :1.19328: AVG IPC :1.18447: L2-Pf-HR :-nan: L2-HR :0.74298: (Sim:0h1m52s) 
CPU  0 inst:   26000000 cyc:   21235395 now IPC :1.19446: AVG IPC :1.18489: L2-Pf-HR :-nan: L2-HR :0.74343: (Sim:0h1m57s) 
CPU  0 inst:   27000002 cyc:   22073278 now IPC :1.19349: AVG IPC :1.18523: L2-Pf-HR :-nan: L2-HR :0.74367: (Sim:0h2m1s) 
CPU  0 inst:   28000000 cyc:   22906070 now IPC :1.20078: AVG IPC :1.18582: L2-Pf-HR :-nan: L2-HR :0.74396: (Sim:0h2m6s) 
CPU  0 inst:   29000003 cyc:   23804878 now IPC :1.11259: AVG IPC :1.18293: L2-Pf-HR :-nan: L2-HR :0.74379: (Sim:0h2m10s) 
CPU  0 inst:   30000001 cyc:   24613429 now IPC :1.23678: AVG IPC :1.18478: L2-Pf-HR :-nan: L2-HR :0.74393: (Sim:0h2m15s) 
CPU  0 inst:   31000002 cyc:   25411688 now IPC :1.25273: AVG IPC :1.18700: L2-Pf-HR :-nan: L2-HR :0.74401: (Sim:0h2m19s) 
CPU  0 inst:   32000000 cyc:   26209371 now IPC :1.25363: AVG IPC :1.18910: L2-Pf-HR :-nan: L2-HR :0.74403: (Sim:0h2m24s) 
CPU  0 inst:   33000003 cyc:   27156421 now IPC :1.05591: AVG IPC :1.18428: L2-Pf-HR :-nan: L2-HR :0.74277: (Sim:0h2m28s) 
CPU  0 inst:   34000000 cyc:   27996499 now IPC :1.19036: AVG IPC :1.18447: L2-Pf-HR :-nan: L2-HR :0.74260: (Sim:0h2m33s) 
CPU  0 inst:   35000003 cyc:   28831696 now IPC :1.19733: AVG IPC :1.18486: L2-Pf-HR :-nan: L2-HR :0.74257: (Sim:0h2m37s) 
CPU  0 inst:   36000000 cyc:   29671637 now IPC :1.19056: AVG IPC :1.18503: L2-Pf-HR :-nan: L2-HR :0.74260: (Sim:0h2m42s) 
CPU  0 inst:   37000002 cyc:   30516988 now IPC :1.18294: AVG IPC :1.18497: L2-Pf-HR :-nan: L2-HR :0.74252: (Sim:0h2m46s) 
CPU  0 inst:   38000002 cyc:   31365821 now IPC :1.17809: AVG IPC :1.18477: L2-Pf-HR :-nan: L2-HR :0.74247: (Sim:0h2m51s) 
CPU  0 inst:   39000001 cyc:   32327139 now IPC :1.04024: AVG IPC :1.18034: L2-Pf-HR :-nan: L2-HR :0.74230: (Sim:0h2m55s) 
CPU  0 inst:   40000000 cyc:   33166702 now IPC :1.19109: AVG IPC :1.18062: L2-Pf-HR :-nan: L2-HR :0.74249: (Sim:0h3m0s) 
CPU  0 inst:   41000003 cyc:   34003278 now IPC :1.19535: AVG IPC :1.18099: L2-Pf-HR :-nan: L2-HR :0.74271: (Sim:0h3m4s) 
CPU  0 inst:   42000000 cyc:   34839828 now IPC :1.19538: AVG IPC :1.18135: L2-Pf-HR :-nan: L2-HR :0.74299: (Sim:0h3m9s) 
CPU  0 inst:   43000001 cyc:   35669915 now IPC :1.20469: AVG IPC :1.18191: L2-Pf-HR :-nan: L2-HR :0.74313: (Sim:0h3m13s) 
CPU  0 inst:   44000000 cyc:   36505469 now IPC :1.19681: AVG IPC :1.18226: L2-Pf-HR :-nan: L2-HR :0.74333: (Sim:0h3m18s) 
CPU  0 inst:   45000003 cyc:   37406657 now IPC :1.10965: AVG IPC :1.18046: L2-Pf-HR :-nan: L2-HR :0.74328: (Sim:0h3m22s) 
CPU  0 inst:   46000003 cyc:   38222951 now IPC :1.22505: AVG IPC :1.18144: L2-Pf-HR :-nan: L2-HR :0.74332: (Sim:0h3m27s) 
CPU  0 inst:   47000003 cyc:   39035873 now IPC :1.23013: AVG IPC :1.18248: L2-Pf-HR :-nan: L2-HR :0.74343: (Sim:0h3m31s) 
CPU  0 inst:   48000000 cyc:   39845270 now IPC :1.23548: AVG IPC :1.18358: L2-Pf-HR :-nan: L2-HR :0.74346: (Sim:0h3m35s) 
CPU  0 inst:   49000001 cyc:   40789947 now IPC :1.05856: AVG IPC :1.18062: L2-Pf-HR :-nan: L2-HR :0.74264: (Sim:0h3m40s) 
CPU  0 inst:   50000000 cyc:   41625408 now IPC :1.19694: AVG IPC :1.18095: L2-Pf-HR :-nan: L2-HR :0.74253: (Sim:0h3m44s) 
CPU  0 inst:   51000001 cyc:   42461314 now IPC :1.19631: AVG IPC :1.18126: L2-Pf-HR :-nan: L2-HR :0.74247: (Sim:0h3m49s) 
CPU  0 inst:   52000000 cyc:   43297743 now IPC :1.19556: AVG IPC :1.18154: L2-Pf-HR :-nan: L2-HR :0.74252: (Sim:0h3m53s) 
CPU  0 inst:   53000003 cyc:   44139687 now IPC :1.18773: AVG IPC :1.18167: L2-Pf-HR :-nan: L2-HR :0.74242: (Sim:0h3m58s) 
CPU  0 inst:   54000003 cyc:   44988087 now IPC :1.17869: AVG IPC :1.18161: L2-Pf-HR :-nan: L2-HR :0.74240: (Sim:0h4m2s) 
CPU  0 inst:   55000000 cyc:   45947556 now IPC :1.04224: AVG IPC :1.17863: L2-Pf-HR :-nan: L2-HR :0.74226: (Sim:0h4m7s) 
CPU  0 inst:   56000000 cyc:   46787577 now IPC :1.19045: AVG IPC :1.17885: L2-Pf-HR :-nan: L2-HR :0.74237: (Sim:0h4m11s) 
CPU  0 inst:   57000003 cyc:   47620499 now IPC :1.20060: AVG IPC :1.17924: L2-Pf-HR :-nan: L2-HR :0.74250: (Sim:0h4m16s) 
CPU  0 inst:   58000003 cyc:   48452793 now IPC :1.20150: AVG IPC :1.17963: L2-Pf-HR :-nan: L2-HR :0.74274: (Sim:0h4m20s) 
CPU  0 inst:   59000001 cyc:   49281291 now IPC :1.20700: AVG IPC :1.18010: L2-Pf-HR :-nan: L2-HR :0.74284: (Sim:0h4m23s) 
CPU  0 inst:   60000000 cyc:   50105378 now IPC :1.21346: AVG IPC :1.18066: L2-Pf-HR :-nan: L2-HR :0.74298: (Sim:0h4m26s) 
CPU  0 inst:   61000001 cyc:   51012194 now IPC :1.10276: AVG IPC :1.17925: L2-Pf-HR :-nan: L2-HR :0.74299: (Sim:0h4m30s) 
CPU  0 inst:   62000003 cyc:   51833828 now IPC :1.21709: AVG IPC :1.17986: L2-Pf-HR :-nan: L2-HR :0.74303: (Sim:0h4m33s) 
CPU  0 inst:   63000003 cyc:   52647976 now IPC :1.22828: AVG IPC :1.18062: L2-Pf-HR :-nan: L2-HR :0.74310: (Sim:0h4m36s) 
CPU  0 inst:   64000000 cyc:   53458205 now IPC :1.23422: AVG IPC :1.18145: L2-Pf-HR :-nan: L2-HR :0.74308: (Sim:0h4m40s) 
CPU  0 inst:   65000002 cyc:   54394771 now IPC :1.06773: AVG IPC :1.17945: L2-Pf-HR :-nan: L2-HR :0.74252: (Sim:0h4m44s) 
CPU  0 inst:   66000002 cyc:   55224802 now IPC :1.20477: AVG IPC :1.17984: L2-Pf-HR :-nan: L2-HR :0.74242: (Sim:0h4m48s) 
CPU  0 inst:   67000001 cyc:   56055738 now IPC :1.20346: AVG IPC :1.18020: L2-Pf-HR :-nan: L2-HR :0.74240: (Sim:0h4m51s) 
CPU  0 inst:   68000000 cyc:   56889765 now IPC :1.19900: AVG IPC :1.18048: L2-Pf-HR :-nan: L2-HR :0.74244: (Sim:0h4m54s) 
CPU  0 inst:   69000000 cyc:   57725875 now IPC :1.19601: AVG IPC :1.18071: L2-Pf-HR :-nan: L2-HR :0.74238: (Sim:0h4m57s) 
CPU  0 inst:   70000001 cyc:   58570124 now IPC :1.18449: AVG IPC :1.18076: L2-Pf-HR :-nan: L2-HR :0.74236: (Sim:0h5m1s) 
CPU  0 inst:   71000003 cyc:   59532793 now IPC :1.03878: AVG IPC :1.17843: L2-Pf-HR :-nan: L2-HR :0.74223: (Sim:0h5m4s) 
CPU  0 inst:   72000000 cyc:   60380399 now IPC :1.17979: AVG IPC :1.17845: L2-Pf-HR :-nan: L2-HR :0.74233: (Sim:0h5m7s) 
CPU  0 inst:   73000003 cyc:   61229129 now IPC :1.17823: AVG IPC :1.17845: L2-Pf-HR :-nan: L2-HR :0.74246: (Sim:0h5m10s) 
CPU  0 inst:   74000003 cyc:   62073501 now IPC :1.18431: AVG IPC :1.17853: L2-Pf-HR :-nan: L2-HR :0.74260: (Sim:0h5m13s) 
CPU  0 inst:   75000001 cyc:   62910109 now IPC :1.19530: AVG IPC :1.17875: L2-Pf-HR :-nan: L2-HR :0.74269: (Sim:0h5m17s) 
CPU  0 inst:   76000000 cyc:   63753763 now IPC :1.18532: AVG IPC :1.17884: L2-Pf-HR :-nan: L2-HR :0.74281: (Sim:0h5m22s) 
CPU  0 inst:   77000002 cyc:   64660496 now IPC :1.10286: AVG IPC :1.17776: L2-Pf-HR :-nan: L2-HR :0.74281: (Sim:0h5m26s) 
CPU  0 inst:   78000002 cyc:   65481259 now IPC :1.21838: AVG IPC :1.17828: L2-Pf-HR :-nan: L2-HR :0.74281: (Sim:0h5m31s) 
CPU  0 inst:   79000001 cyc:   66293677 now IPC :1.23089: AVG IPC :1.17893: L2-Pf-HR :-nan: L2-HR :0.74290: (Sim:0h5m35s) 
CPU  0 inst:   80000000 cyc:   67102801 now IPC :1.23590: AVG IPC :1.17963: L2-Pf-HR :-nan: L2-HR :0.74290: (Sim:0h5m39s) 
CPU  0 inst:   81000002 cyc:   68040179 now IPC :1.06681: AVG IPC :1.17805: L2-Pf-HR :-nan: L2-HR :0.74244: (Sim:0h5m44s) 
CPU  0 inst:   82000000 cyc:   68875226 now IPC :1.19754: AVG IPC :1.17829: L2-Pf-HR :-nan: L2-HR :0.74237: (Sim:0h5m48s) 
CPU  0 inst:   83000002 cyc:   69716714 now IPC :1.18837: AVG IPC :1.17841: L2-Pf-HR :-nan: L2-HR :0.74235: (Sim:0h5m53s) 
CPU  0 inst:   84000000 cyc:   70557347 now IPC :1.18958: AVG IPC :1.17855: L2-Pf-HR :-nan: L2-HR :0.74237: (Sim:0h5m57s) 
CPU  0 inst:   85000001 cyc:   71401308 now IPC :1.18489: AVG IPC :1.17862: L2-Pf-HR :-nan: L2-HR :0.74232: (Sim:0h6m2s) 
CPU  0 inst:   86000002 cyc:   72249871 now IPC :1.17846: AVG IPC :1.17862: L2-Pf-HR :-nan: L2-HR :0.74232: (Sim:0h6m6s) 
CPU  0 inst:   87000003 cyc:   73204738 now IPC :1.04727: AVG IPC :1.17689: L2-Pf-HR :-nan: L2-HR :0.74219: (Sim:0h6m11s) 
CPU  0 inst:   88000000 cyc:   74063423 now IPC :1.16457: AVG IPC :1.17674: L2-Pf-HR :-nan: L2-HR :0.74228: (Sim:0h6m15s) 
CPU  0 inst:   89000003 cyc:   74902519 now IPC :1.19176: AVG IPC :1.17691: L2-Pf-HR :-nan: L2-HR :0.74237: (Sim:0h6m20s) 
CPU  0 inst:   90000002 cyc:   75738393 now IPC :1.19635: AVG IPC :1.17713: L2-Pf-HR :-nan: L2-HR :0.74251: (Sim:0h6m24s) 
CPU  0 inst:   91000001 cyc:   76570581 now IPC :1.20165: AVG IPC :1.17740: L2-Pf-HR :-nan: L2-HR :0.74259: (Sim:0h6m29s) 
CPU  0 inst:   92000000 cyc:   77399531 now IPC :1.20634: AVG IPC :1.17771: L2-Pf-HR :-nan: L2-HR :0.74269: (Sim:0h6m33s) 
CPU  0 inst:   93000003 cyc:   78302511 now IPC :1.10745: AVG IPC :1.17689: L2-Pf-HR :-nan: L2-HR :0.74268: (Sim:0h6m37s) 
CPU  0 inst:   94000000 cyc:   79132365 now IPC :1.20503: AVG IPC :1.17719: L2-Pf-HR :-nan: L2-HR :0.74274: (Sim:0h6m42s) 
CPU  0 inst:   95000002 cyc:   79952218 now IPC :1.21973: AVG IPC :1.17763: L2-Pf-HR :-nan: L2-HR :0.74280: (Sim:0h6m46s) 
CPU  0 inst:   96000000 cyc:   80766676 now IPC :1.22781: AVG IPC :1.17815: L2-Pf-HR :-nan: L2-HR :0.74281: (Sim:0h6m51s) 
CPU  0 inst:   97000000 cyc:   81676104 now IPC :1.09959: AVG IPC :1.17726: L2-Pf-HR :-nan: L2-HR :0.74246: (Sim:0h6m55s) 
CPU  0 inst:   98000002 cyc:   82535575 now IPC :1.16351: AVG IPC :1.17712: L2-Pf-HR :-nan: L2-HR :0.74238: (Sim:0h7m0s) 
CPU  0 inst:   99000001 cyc:   83371240 now IPC :1.19665: AVG IPC :1.17731: L2-Pf-HR :-nan: L2-HR :0.74236: (Sim:0h7m4s) 
CPU  0 inst:  100000000 cyc:   84210720 now IPC :1.19121: AVG IPC :1.17745: L2-Pf-HR :-nan: L2-HR :0.74236: (Sim:0h7m9s) 
CPU  0 inst:  101000003 cyc:   85050309 now IPC :1.19106: AVG IPC :1.17759: L2-Pf-HR :-nan: L2-HR :0.74234: (Sim:0h7m13s) 
CPU  0 inst:  102000003 cyc:   85894974 now IPC :1.18390: AVG IPC :1.17765: L2-Pf-HR :-nan: L2-HR :0.74233: (Sim:0h7m18s) 
CPU  0 inst:  103000001 cyc:   86761117 now IPC :1.15454: AVG IPC :1.17742: L2-Pf-HR :-nan: L2-HR :0.74238: (Sim:0h7m23s) 
CPU  0 inst:  104000000 cyc:   87705312 now IPC :1.05910: AVG IPC :1.17613: L2-Pf-HR :-nan: L2-HR :0.74227: (Sim:0h7m27s) 
CPU  0 inst:  105000003 cyc:   88536647 now IPC :1.20289: AVG IPC :1.17638: L2-Pf-HR :-nan: L2-HR :0.74236: (Sim:0h7m32s) 
CPU  0 inst:  106000002 cyc:   89371816 now IPC :1.19736: AVG IPC :1.17658: L2-Pf-HR :-nan: L2-HR :0.74245: (Sim:0h7m36s) 
CPU  0 inst:  107000003 cyc:   90200516 now IPC :1.20671: AVG IPC :1.17686: L2-Pf-HR :-nan: L2-HR :0.74254: (Sim:0h7m39s) 
CPU  0 inst:  108000000 cyc:   91027531 now IPC :1.20916: AVG IPC :1.17716: L2-Pf-HR :-nan: L2-HR :0.74261: (Sim:0h7m42s) 
CPU  0 inst:  109000002 cyc:   91864275 now IPC :1.19511: AVG IPC :1.17732: L2-Pf-HR :-nan: L2-HR :0.74275: (Sim:0h7m45s) 
CPU  0 inst:  110000000 cyc:   92758058 now IPC :1.11884: AVG IPC :1.17676: L2-Pf-HR :-nan: L2-HR :0.74266: (Sim:0h7m48s) 
CPU  0 inst:  111000000 cyc:   93575132 now IPC :1.22388: AVG IPC :1.17717: L2-Pf-HR :-nan: L2-HR :0.74271: (Sim:0h7m51s) 
CPU  0 inst:  112000000 cyc:   94387880 now IPC :1.23039: AVG IPC :1.17763: L2-Pf-HR :-nan: L2-HR :0.74274: (Sim:0h7m54s) 
CPU  0 inst:  113000002 cyc:   95198162 now IPC :1.23414: AVG IPC :1.17812: L2-Pf-HR :-nan: L2-HR :0.74277: (Sim:0h7m57s) 
CPU  0 inst:  114000002 cyc:   96149391 now IPC :1.05127: AVG IPC :1.17685: L2-Pf-HR :-nan: L2-HR :0.74239: (Sim:0h8m1s) 
CPU  0 inst:  115000002 cyc:   96989530 now IPC :1.19028: AVG IPC :1.17697: L2-Pf-HR :-nan: L2-HR :0.74236: (Sim:0h8m4s) 
CPU  0 inst:  116000000 cyc:   97826447 now IPC :1.19486: AVG IPC :1.17712: L2-Pf-HR :-nan: L2-HR :0.74236: (Sim:0h8m7s) 
CPU  0 inst:  117000000 cyc:   98669268 now IPC :1.18649: AVG IPC :1.17721: L2-Pf-HR :-nan: L2-HR :0.74235: (Sim:0h8m10s) 
CPU  0 inst:  118000001 cyc:   99515920 now IPC :1.18112: AVG IPC :1.17724: L2-Pf-HR :-nan: L2-HR :0.74234: (Sim:0h8m13s) 
CPU  0 inst:  119000003 cyc:  100365179 now IPC :1.17750: AVG IPC :1.17724: L2-Pf-HR :-nan: L2-HR :0.74233: (Sim:0h8m16s) 
CPU  0 inst:  120000000 cyc:  101314297 now IPC :1.05361: AVG IPC :1.17607: L2-Pf-HR :-nan: L2-HR :0.74227: (Sim:0h8m19s) 
CPU  0 inst:  121000003 cyc:  102151049 now IPC :1.19510: AVG IPC :1.17623: L2-Pf-HR :-nan: L2-HR :0.74233: (Sim:0h8m22s) 
CPU  0 inst:  122000002 cyc:  102980286 now IPC :1.20593: AVG IPC :1.17647: L2-Pf-HR :-nan: L2-HR :0.74243: (Sim:0h8m25s) 
CPU  0 inst:  123000002 cyc:  103809919 now IPC :1.20535: AVG IPC :1.17670: L2-Pf-HR :-nan: L2-HR :0.74251: (Sim:0h8m28s) 
CPU  0 inst:  124000000 cyc:  104635485 now IPC :1.21129: AVG IPC :1.17698: L2-Pf-HR :-nan: L2-HR :0.74257: (Sim:0h8m31s) 
CPU  0 inst:  125000001 cyc:  105464687 now IPC :1.20598: AVG IPC :1.17721: L2-Pf-HR :-nan: L2-HR :0.74265: (Sim:0h8m34s) 
CPU  0 inst:  126000001 cyc:  106370626 now IPC :1.10383: AVG IPC :1.17658: L2-Pf-HR :-nan: L2-HR :0.74261: (Sim:0h8m37s) 
CPU  0 inst:  127000002 cyc:  107188569 now IPC :1.22258: AVG IPC :1.17693: L2-Pf-HR :-nan: L2-HR :0.74264: (Sim:0h8m40s) 
CPU  0 inst:  128000000 cyc:  108001119 now IPC :1.23069: AVG IPC :1.17734: L2-Pf-HR :-nan: L2-HR :0.74266: (Sim:0h8m43s) 
CPU  0 inst:  129000002 cyc:  108810770 now IPC :1.23510: AVG IPC :1.17777: L2-Pf-HR :-nan: L2-HR :0.74267: (Sim:0h8m46s) 
CPU  0 inst:  130000000 cyc:  114029731 now IPC :0.19161: AVG IPC :1.13225: L2-Pf-HR :-nan: L2-HR :0.73124: (Sim:0h8m55s) 
CPU  0 inst:  131000001 cyc:  120435147 now IPC :0.15612: AVG IPC :1.07991: L2-Pf-HR :-nan: L2-HR :0.71832: (Sim:0h9m9s) 
CPU  0 inst:  132000000 cyc:  126835528 now IPC :0.15624: AVG IPC :1.03293: L2-Pf-HR :-nan: L2-HR :0.70677: (Sim:0h9m25s) 
CPU  0 inst:  133000003 cyc:  133238791 now IPC :0.15617: AVG IPC :0.99048: L2-Pf-HR :-nan: L2-HR :0.69638: (Sim:0h9m40s) 
CPU  0 inst:  134000002 cyc:  139497014 now IPC :0.15979: AVG IPC :0.95295: L2-Pf-HR :-nan: L2-HR :0.68725: (Sim:0h9m55s) 
CPU  0 inst:  135000002 cyc:  144966518 now IPC :0.18283: AVG IPC :0.92370: L2-Pf-HR :-nan: L2-HR :0.68537: (Sim:0h10m6s) 
CPU  0 inst:  136000000 cyc:  150375503 now IPC :0.18488: AVG IPC :0.89695: L2-Pf-HR :-nan: L2-HR :0.68352: (Sim:0h10m17s) 
CPU  0 inst:  137000002 cyc:  155160913 now IPC :0.20897: AVG IPC :0.87560: L2-Pf-HR :-nan: L2-HR :0.68168: (Sim:0h10m27s) 
CPU  0 inst:  138000002 cyc:  160079729 now IPC :0.20330: AVG IPC :0.85481: L2-Pf-HR :-nan: L2-HR :0.67985: (Sim:0h10m37s) 
CPU  0 inst:  139000002 cyc:  165039239 now IPC :0.20163: AVG IPC :0.83507: L2-Pf-HR :-nan: L2-HR :0.67805: (Sim:0h10m47s) 
CPU  0 inst:  140000000 cyc:  170053693 now IPC :0.19942: AVG IPC :0.81621: L2-Pf-HR :-nan: L2-HR :0.67627: (Sim:0h10m56s) 
CPU  0 inst:  141000001 cyc:  175060461 now IPC :0.19973: AVG IPC :0.79848: L2-Pf-HR :-nan: L2-HR :0.67450: (Sim:0h11m3s) 
CPU  0 inst:  142000000 cyc:  179992797 now IPC :0.20274: AVG IPC :0.78207: L2-Pf-HR :-nan: L2-HR :0.67275: (Sim:0h11m10s) 
CPU  0 inst:  143000002 cyc:  184981737 now IPC :0.20044: AVG IPC :0.76630: L2-Pf-HR :-nan: L2-HR :0.67103: (Sim:0h11m16s) 
CPU  0 inst:  144000000 cyc:  190049369 now IPC :0.19733: AVG IPC :0.75105: L2-Pf-HR :-nan: L2-HR :0.66932: (Sim:0h11m23s) 
CPU  0 inst:  145000001 cyc:  194813147 now IPC :0.20992: AVG IPC :0.73775: L2-Pf-HR :-nan: L2-HR :0.66762: (Sim:0h11m30s) 
CPU  0 inst:  146000000 cyc:  199860853 now IPC :0.19811: AVG IPC :0.72405: L2-Pf-HR :-nan: L2-HR :0.66595: (Sim:0h11m40s) 
CPU  0 inst:  147000000 cyc:  204909159 now IPC :0.19809: AVG IPC :0.71103: L2-Pf-HR :-nan: L2-HR :0.66428: (Sim:0h11m51s) 
CPU  0 inst:  148000000 cyc:  209990428 now IPC :0.19680: AVG IPC :0.69853: L2-Pf-HR :-nan: L2-HR :0.66264: (Sim:0h12m1s) 
CPU  0 inst:  149000001 cyc:  215010770 now IPC :0.19919: AVG IPC :0.68682: L2-Pf-HR :-nan: L2-HR :0.66101: (Sim:0h12m12s) 
CPU  0 inst:  150000002 cyc:  220058762 now IPC :0.19810: AVG IPC :0.67556: L2-Pf-HR :-nan: L2-HR :0.65940: (Sim:0h12m20s) 
CPU  0 inst:  151000002 cyc:  224957069 now IPC :0.20415: AVG IPC :0.66525: L2-Pf-HR :-nan: L2-HR :0.65781: (Sim:0h12m27s) 
CPU  0 inst:  152000000 cyc:  229824121 now IPC :0.20546: AVG IPC :0.65547: L2-Pf-HR :-nan: L2-HR :0.65623: (Sim:0h12m37s) 
CPU  0 inst:  153000001 cyc:  234919156 now IPC :0.19627: AVG IPC :0.64547: L2-Pf-HR :-nan: L2-HR :0.65466: (Sim:0h12m47s) 
CPU  0 inst:  154000002 cyc:  239831539 now IPC :0.20357: AVG IPC :0.63638: L2-Pf-HR :-nan: L2-HR :0.65311: (Sim:0h12m58s) 
CPU  0 inst:  155000002 cyc:  244791078 now IPC :0.20163: AVG IPC :0.62754: L2-Pf-HR :-nan: L2-HR :0.65158: (Sim:0h13m5s) 
CPU  0 inst:  156000000 cyc:  249852280 now IPC :0.19758: AVG IPC :0.61879: L2-Pf-HR :-nan: L2-HR :0.65005: (Sim:0h13m12s) 
CPU  0 inst:  157000000 cyc:  254764383 now IPC :0.20358: AVG IPC :0.61076: L2-Pf-HR :-nan: L2-HR :0.64855: (Sim:0h13m19s) 
CPU  0 inst:  158000001 cyc:  259931319 now IPC :0.19354: AVG IPC :0.60243: L2-Pf-HR :-nan: L2-HR :0.64706: (Sim:0h13m27s) 
CPU  0 inst:  159000003 cyc:  264814551 now IPC :0.20478: AVG IPC :0.59507: L2-Pf-HR :-nan: L2-HR :0.64558: (Sim:0h13m38s) 
CPU  0 inst:  160000000 cyc:  269957776 now IPC :0.19443: AVG IPC :0.58741: L2-Pf-HR :-nan: L2-HR :0.64412: (Sim:0h13m48s) 
CPU  0 inst:  161000000 cyc:  274978631 now IPC :0.19917: AVG IPC :0.58030: L2-Pf-HR :-nan: L2-HR :0.64267: (Sim:0h13m58s) 
CPU  0 inst:  162000001 cyc:  279890889 now IPC :0.20357: AVG IPC :0.57366: L2-Pf-HR :-nan: L2-HR :0.64123: (Sim:0h14m4s) 
CPU  0 inst:  163000000 cyc:  284748280 now IPC :0.20587: AVG IPC :0.56736: L2-Pf-HR :-nan: L2-HR :0.63981: (Sim:0h14m11s) 
CPU  0 inst:  164000000 cyc:  289551877 now IPC :0.20818: AVG IPC :0.56139: L2-Pf-HR :-nan: L2-HR :0.63839: (Sim:0h14m21s) 
CPU  0 inst:  165000000 cyc:  294532114 now IPC :0.20079: AVG IPC :0.55527: L2-Pf-HR :-nan: L2-HR :0.63700: (Sim:0h14m31s) 
CPU  0 inst:  166000002 cyc:  299600254 now IPC :0.19731: AVG IPC :0.54919: L2-Pf-HR :-nan: L2-HR :0.63562: (Sim:0h14m41s) 
CPU  0 inst:  167000002 cyc:  304643730 now IPC :0.19828: AVG IPC :0.54336: L2-Pf-HR :-nan: L2-HR :0.63424: (Sim:0h14m52s) 
CPU  0 inst:  168000000 cyc:  309677979 now IPC :0.19864: AVG IPC :0.53774: L2-Pf-HR :-nan: L2-HR :0.63288: (Sim:0h15m2s) 
CPU  0 inst:  169000000 cyc:  314514934 now IPC :0.20674: AVG IPC :0.53264: L2-Pf-HR :-nan: L2-HR :0.63154: (Sim:0h15m12s) 
CPU  0 inst:  170000001 cyc:  319562894 now IPC :0.19810: AVG IPC :0.52734: L2-Pf-HR :-nan: L2-HR :0.63020: (Sim:0h15m22s) 
CPU  0 inst:  171000002 cyc:  324651308 now IPC :0.19653: AVG IPC :0.52214: L2-Pf-HR :-nan: L2-HR :0.62888: (Sim:0h15m33s) 
CPU  0 inst:  172000000 cyc:  329719738 now IPC :0.19730: AVG IPC :0.51713: L2-Pf-HR :-nan: L2-HR :0.62756: (Sim:0h15m42s) 
CPU  0 inst:  173000000 cyc:  334651012 now IPC :0.20279: AVG IPC :0.51248: L2-Pf-HR :-nan: L2-HR :0.62626: (Sim:0h15m53s) 
CPU  0 inst:  174000002 cyc:  339620429 now IPC :0.20123: AVG IPC :0.50791: L2-Pf-HR :-nan: L2-HR :0.62498: (Sim:0h16m3s) 
CPU  0 inst:  175000002 cyc:  344634243 now IPC :0.19945: AVG IPC :0.50341: L2-Pf-HR :-nan: L2-HR :0.62370: (Sim:0h16m13s) 
CPU  0 inst:  176000000 cyc:  349546315 now IPC :0.20358: AVG IPC :0.49919: L2-Pf-HR :-nan: L2-HR :0.62243: (Sim:0h16m23s) 
CPU  0 inst:  177000002 cyc:  354593502 now IPC :0.19813: AVG IPC :0.49489: L2-Pf-HR :-nan: L2-HR :0.62118: (Sim:0h16m34s) 
CPU  0 inst:  178000000 cyc:  359573203 now IPC :0.20081: AVG IPC :0.49081: L2-Pf-HR :-nan: L2-HR :0.61993: (Sim:0h16m44s) 
CPU  0 inst:  179000001 cyc:  364546530 now IPC :0.20107: AVG IPC :0.48684: L2-Pf-HR :-nan: L2-HR :0.61870: (Sim:0h16m55s) 
CPU  0 inst:  180000000 cyc:  369553652 now IPC :0.19972: AVG IPC :0.48294: L2-Pf-HR :-nan: L2-HR :0.61747: (Sim:0h17m5s) 
CPU  0 inst:  181000002 cyc:  374675770 now IPC :0.19523: AVG IPC :0.47900: L2-Pf-HR :-nan: L2-HR :0.61627: (Sim:0h17m16s) 
CPU  0 inst:  182000000 cyc:  379698361 now IPC :0.19910: AVG IPC :0.47529: L2-Pf-HR :-nan: L2-HR :0.61506: (Sim:0h17m27s) 
CPU  0 inst:  183000001 cyc:  384847508 now IPC :0.19421: AVG IPC :0.47152: L2-Pf-HR :-nan: L2-HR :0.61387: (Sim:0h17m38s) 
CPU  0 inst:  184000000 cyc:  389820662 now IPC :0.20108: AVG IPC :0.46806: L2-Pf-HR :-nan: L2-HR :0.61269: (Sim:0h17m48s) 
CPU  0 inst:  185000000 cyc:  394732097 now IPC :0.20361: AVG IPC :0.46476: L2-Pf-HR :-nan: L2-HR :0.61151: (Sim:0h17m59s) 
CPU  0 inst:  186000000 cyc:  399623477 now IPC :0.20444: AVG IPC :0.46157: L2-Pf-HR :-nan: L2-HR :0.61035: (Sim:0h18m9s) 
CPU  0 inst:  187000001 cyc:  404501488 now IPC :0.20500: AVG IPC :0.45846: L2-Pf-HR :-nan: L2-HR :0.60920: (Sim:0h18m20s) 
CPU  0 inst:  188000000 cyc:  409416216 now IPC :0.20347: AVG IPC :0.45540: L2-Pf-HR :-nan: L2-HR :0.60806: (Sim:0h18m30s) 
CPU  0 inst:  189000002 cyc:  414470462 now IPC :0.19785: AVG IPC :0.45225: L2-Pf-HR :-nan: L2-HR :0.60692: (Sim:0h18m41s) 
CPU  0 inst:  190000000 cyc:  419457250 now IPC :0.20053: AVG IPC :0.44925: L2-Pf-HR :-nan: L2-HR :0.60580: (Sim:0h18m51s) 
CPU  0 inst:  191000001 cyc:  424579942 now IPC :0.19521: AVG IPC :0.44618: L2-Pf-HR :-nan: L2-HR :0.60468: (Sim:0h19m2s) 
CPU  0 inst:  192000000 cyc:  429580325 now IPC :0.19998: AVG IPC :0.44330: L2-Pf-HR :-nan: L2-HR :0.60358: (Sim:0h19m13s) 
CPU  0 inst:  193000002 cyc:  434574120 now IPC :0.20025: AVG IPC :0.44050: L2-Pf-HR :-nan: L2-HR :0.60248: (Sim:0h19m23s) 
CPU  0 inst:  194000002 cyc:  439506608 now IPC :0.20274: AVG IPC :0.43783: L2-Pf-HR :-nan: L2-HR :0.60139: (Sim:0h19m34s) 
CPU  0 inst:  195000002 cyc:  444452439 now IPC :0.20219: AVG IPC :0.43520: L2-Pf-HR :-nan: L2-HR :0.60031: (Sim:0h19m44s) 
CPU  0 inst:  196000000 cyc:  449447154 now IPC :0.20021: AVG IPC :0.43258: L2-Pf-HR :-nan: L2-HR :0.59924: (Sim:0h19m55s) 
CPU  0 inst:  197000002 cyc:  454448978 now IPC :0.19993: AVG IPC :0.43002: L2-Pf-HR :-nan: L2-HR :0.59818: (Sim:0h20m3s) 
CPU  0 inst:  198000001 cyc:  457972339 now IPC :0.28382: AVG IPC :0.42889: L2-Pf-HR :-nan: L2-HR :0.59873: (Sim:0h20m8s) 
CPU  0 inst:  199000001 cyc:  458977065 now IPC :0.99530: AVG IPC :0.43013: L2-Pf-HR :-nan: L2-HR :0.60218: (Sim:0h20m11s) 
CPU  0 inst:  200000000 cyc:  459916104 now IPC :1.06492: AVG IPC :0.43143: L2-Pf-HR :-nan: L2-HR :0.60561: (Sim:0h20m14s) 
CPU  0 inst:  201000000 cyc:  460842036 now IPC :1.07999: AVG IPC :0.43274: L2-Pf-HR :-nan: L2-HR :0.60898: (Sim:0h20m17s) 
CPU  0 inst:  202000002 cyc:  461896596 now IPC :0.94826: AVG IPC :0.43392: L2-Pf-HR :-nan: L2-HR :0.61208: (Sim:0h20m21s) 
CPU  0 inst:  203000000 cyc:  462815259 now IPC :1.08854: AVG IPC :0.43522: L2-Pf-HR :-nan: L2-HR :0.61536: (Sim:0h20m24s) 
CPU  0 inst:  204000000 cyc:  463714811 now IPC :1.11166: AVG IPC :0.43654: L2-Pf-HR :-nan: L2-HR :0.61857: (Sim:0h20m27s) 
CPU  0 inst:  205000001 cyc:  464586741 now IPC :1.14688: AVG IPC :0.43787: L2-Pf-HR :-nan: L2-HR :0.62172: (Sim:0h20m30s) 
CPU  0 inst:  206000002 cyc:  465542411 now IPC :1.04639: AVG IPC :0.43912: L2-Pf-HR :-nan: L2-HR :0.62466: (Sim:0h20m33s) 
CPU  0 inst:  207000002 cyc:  466499412 now IPC :1.04493: AVG IPC :0.44037: L2-Pf-HR :-nan: L2-HR :0.62765: (Sim:0h20m36s) 
CPU  0 inst:  208000000 cyc:  467407030 now IPC :1.10178: AVG IPC :0.44166: L2-Pf-HR :-nan: L2-HR :0.63062: (Sim:0h20m39s) 
CPU  0 inst:  209000000 cyc:  468279376 now IPC :1.14633: AVG IPC :0.44297: L2-Pf-HR :-nan: L2-HR :0.63354: (Sim:0h20m42s) 
CPU  0 inst:  210000001 cyc:  469174179 now IPC :1.11757: AVG IPC :0.44426: L2-Pf-HR :-nan: L2-HR :0.63634: (Sim:0h20m45s) 
CPU  0 inst:  211000002 cyc:  470152399 now IPC :1.02227: AVG IPC :0.44547: L2-Pf-HR :-nan: L2-HR :0.63903: (Sim:0h20m48s) 
CPU  0 inst:  212000000 cyc:  471057890 now IPC :1.10437: AVG IPC :0.44673: L2-Pf-HR :-nan: L2-HR :0.64179: (Sim:0h20m51s) 
CPU  0 inst:  213000003 cyc:  471931701 now IPC :1.14442: AVG IPC :0.44803: L2-Pf-HR :-nan: L2-HR :0.64450: (Sim:0h20m54s) 
CPU  0 inst:  214000001 cyc:  472790488 now IPC :1.16443: AVG IPC :0.44933: L2-Pf-HR :-nan: L2-HR :0.64716: (Sim:0h20m57s) 
CPU  0 inst:  215000002 cyc:  473760526 now IPC :1.03089: AVG IPC :0.45053: L2-Pf-HR :-nan: L2-HR :0.64955: (Sim:0h21m0s) 
CPU  0 inst:  216000000 cyc:  474675927 now IPC :1.09242: AVG IPC :0.45177: L2-Pf-HR :-nan: L2-HR :0.65206: (Sim:0h21m3s) 
CPU  0 inst:  217000000 cyc:  475587058 now IPC :1.09754: AVG IPC :0.45301: L2-Pf-HR :-nan: L2-HR :0.65452: (Sim:0h21m5s) 
CPU  0 inst:  218000001 cyc:  476501326 now IPC :1.09377: AVG IPC :0.45424: L2-Pf-HR :-nan: L2-HR :0.65693: (Sim:0h21m8s) 
CPU  0 inst:  219000001 cyc:  477456464 now IPC :1.04697: AVG IPC :0.45543: L2-Pf-HR :-nan: L2-HR :0.65917: (Sim:0h21m11s) 
CPU  0 inst:  220000000 cyc:  478316911 now IPC :1.16219: AVG IPC :0.45670: L2-Pf-HR :-nan: L2-HR :0.66155: (Sim:0h21m14s) 
CPU  0 inst:  221000002 cyc:  479203933 now IPC :1.12737: AVG IPC :0.45794: L2-Pf-HR :-nan: L2-HR :0.66389: (Sim:0h21m17s) 
CPU  0 inst:  222000003 cyc:  480093136 now IPC :1.12460: AVG IPC :0.45918: L2-Pf-HR :-nan: L2-HR :0.66615: (Sim:0h21m20s) 
CPU  0 inst:  223000000 cyc:  481006817 now IPC :1.09447: AVG IPC :0.46039: L2-Pf-HR :-nan: L2-HR :0.66830: (Sim:0h21m23s) 
CPU  0 inst:  224000000 cyc:  481850571 now IPC :1.18518: AVG IPC :0.46166: L2-Pf-HR :-nan: L2-HR :0.67052: (Sim:0h21m26s) 
CPU  0 inst:  225000003 cyc:  482764915 now IPC :1.09368: AVG IPC :0.46286: L2-Pf-HR :-nan: L2-HR :0.67269: (Sim:0h21m29s) 
CPU  0 inst:  226000001 cyc:  483654626 now IPC :1.12396: AVG IPC :0.46408: L2-Pf-HR :-nan: L2-HR :0.67480: (Sim:0h21m32s) 
CPU  0 inst:  227000000 cyc:  484564231 now IPC :1.09938: AVG IPC :0.46528: L2-Pf-HR :-nan: L2-HR :0.67684: (Sim:0h21m35s) 
CPU  0 inst:  228000000 cyc:  485426205 now IPC :1.16013: AVG IPC :0.46651: L2-Pf-HR :-nan: L2-HR :0.67891: (Sim:0h21m38s) 
CPU  0 inst:  229000003 cyc:  486324963 now IPC :1.11265: AVG IPC :0.46771: L2-Pf-HR :-nan: L2-HR :0.68092: (Sim:0h21m40s) 
CPU  0 inst:  230000003 cyc:  487206728 now IPC :1.13409: AVG IPC :0.46892: L2-Pf-HR :-nan: L2-HR :0.68291: (Sim:0h21m43s) 
CPU  0 inst:  231000003 cyc:  488071906 now IPC :1.15583: AVG IPC :0.47014: L2-Pf-HR :-nan: L2-HR :0.68490: (Sim:0h21m46s) 
CPU  0 inst:  232000000 cyc:  489034288 now IPC :1.03909: AVG IPC :0.47126: L2-Pf-HR :-nan: L2-HR :0.68669: (Sim:0h21m49s) 
CPU  0 inst:  233000002 cyc:  489981723 now IPC :1.05548: AVG IPC :0.47239: L2-Pf-HR :-nan: L2-HR :0.68853: (Sim:0h21m52s) 
CPU  0 inst:  234000002 cyc:  490893304 now IPC :1.09700: AVG IPC :0.47355: L2-Pf-HR :-nan: L2-HR :0.69038: (Sim:0h21m55s) 
CPU  0 inst:  235000003 cyc:  491823744 now IPC :1.07476: AVG IPC :0.47469: L2-Pf-HR :-nan: L2-HR :0.69216: (Sim:0h21m58s) 
CPU  0 inst:  236000000 cyc:  492741434 now IPC :1.08969: AVG IPC :0.47584: L2-Pf-HR :-nan: L2-HR :0.69389: (Sim:0h22m1s) 
CPU  0 inst:  237000001 cyc:  493639484 now IPC :1.11352: AVG IPC :0.47700: L2-Pf-HR :-nan: L2-HR :0.69570: (Sim:0h22m4s) 
CPU  0 inst:  238000002 cyc:  494511978 now IPC :1.14614: AVG IPC :0.47819: L2-Pf-HR :-nan: L2-HR :0.69748: (Sim:0h22m7s) 
CPU  0 inst:  239000003 cyc:  495372435 now IPC :1.16217: AVG IPC :0.47938: L2-Pf-HR :-nan: L2-HR :0.69923: (Sim:0h22m10s) 
CPU  0 inst:  240000000 cyc:  496305894 now IPC :1.07128: AVG IPC :0.48049: L2-Pf-HR :-nan: L2-HR :0.70082: (Sim:0h22m12s) 
CPU  0 inst:  241000001 cyc:  497196727 now IPC :1.12255: AVG IPC :0.48164: L2-Pf-HR :-nan: L2-HR :0.70253: (Sim:0h22m15s) 
CPU  0 inst:  242000001 cyc:  498073492 now IPC :1.14056: AVG IPC :0.48281: L2-Pf-HR :-nan: L2-HR :0.70422: (Sim:0h22m18s) 
CPU  0 inst:  243000002 cyc:  498929367 now IPC :1.16840: AVG IPC :0.48399: L2-Pf-HR :-nan: L2-HR :0.70588: (Sim:0h22m21s) 
CPU  0 inst:  244000000 cyc:  499878008 now IPC :1.05414: AVG IPC :0.48507: L2-Pf-HR :-nan: L2-HR :0.70738: (Sim:0h22m24s) 
CPU  0 inst:  245000002 cyc:  500743828 now IPC :1.15498: AVG IPC :0.48623: L2-Pf-HR :-nan: L2-HR :0.70900: (Sim:0h22m27s) 
CPU  0 inst:  246000002 cyc:  501622936 now IPC :1.13752: AVG IPC :0.48737: L2-Pf-HR :-nan: L2-HR :0.71059: (Sim:0h22m30s) 
CPU  0 inst:  247000003 cyc:  502479960 now IPC :1.16683: AVG IPC :0.48853: L2-Pf-HR :-nan: L2-HR :0.71215: (Sim:0h22m33s) 
CPU  0 inst:  248000000 cyc:  503437448 now IPC :1.04440: AVG IPC :0.48959: L2-Pf-HR :-nan: L2-HR :0.71356: (Sim:0h22m36s) 
CPU  0 inst:  249000003 cyc:  504329180 now IPC :1.12142: AVG IPC :0.49071: L2-Pf-HR :-nan: L2-HR :0.71504: (Sim:0h22m38s) 
CPU  0 inst:  250000002 cyc:  505258364 now IPC :1.07621: AVG IPC :0.49179: L2-Pf-HR :-nan: L2-HR :0.71650: (Sim:0h22m41s) 
CPU  0 inst:  251000000 cyc:  506167262 now IPC :1.10023: AVG IPC :0.49289: L2-Pf-HR :-nan: L2-HR :0.71794: (Sim:0h22m44s) 
CPU  0 inst:  252000000 cyc:  507152713 now IPC :1.01476: AVG IPC :0.49390: L2-Pf-HR :-nan: L2-HR :0.71924: (Sim:0h22m47s) 
CPU  0 inst:  253000002 cyc:  508002444 now IPC :1.17685: AVG IPC :0.49505: L2-Pf-HR :-nan: L2-HR :0.72068: (Sim:0h22m50s) 
CPU  0 inst:  254000003 cyc:  508906964 now IPC :1.10556: AVG IPC :0.49613: L2-Pf-HR :-nan: L2-HR :0.72210: (Sim:0h22m53s) 
CPU  0 inst:  255000001 cyc:  509770504 now IPC :1.15802: AVG IPC :0.49726: L2-Pf-HR :-nan: L2-HR :0.72350: (Sim:0h22m56s) 
CPU  0 inst:  256000000 cyc:  510672986 now IPC :1.10805: AVG IPC :0.49834: L2-Pf-HR :-nan: L2-HR :0.72483: (Sim:0h22m59s) 
CPU  0 inst:  257000003 cyc:  511564421 now IPC :1.12179: AVG IPC :0.49943: L2-Pf-HR :-nan: L2-HR :0.72613: (Sim:0h23m2s) 
CPU  0 inst:  258000002 cyc:  512454213 now IPC :1.12386: AVG IPC :0.50051: L2-Pf-HR :-nan: L2-HR :0.72748: (Sim:0h23m5s) 
CPU  0 inst:  259000000 cyc:  513331355 now IPC :1.14006: AVG IPC :0.50161: L2-Pf-HR :-nan: L2-HR :0.72879: (Sim:0h23m8s) 
CPU  0 inst:  260000000 cyc:  514223746 now IPC :1.12059: AVG IPC :0.50269: L2-Pf-HR :-nan: L2-HR :0.73007: (Sim:0h23m11s) 
CPU  0 inst:  261000001 cyc:  515132317 now IPC :1.10063: AVG IPC :0.50374: L2-Pf-HR :-nan: L2-HR :0.73131: (Sim:0h23m14s) 
CPU  0 inst:  262000000 cyc:  516009672 now IPC :1.13979: AVG IPC :0.50483: L2-Pf-HR :-nan: L2-HR :0.73258: (Sim:0h23m17s) 
CPU  0 inst:  263000001 cyc:  516893468 now IPC :1.13148: AVG IPC :0.50590: L2-Pf-HR :-nan: L2-HR :0.73382: (Sim:0h23m20s) 
CPU  0 inst:  264000000 cyc:  517774391 now IPC :1.13517: AVG IPC :0.50697: L2-Pf-HR :-nan: L2-HR :0.73504: (Sim:0h23m22s) 
CPU  0 inst:  265000002 cyc:  518699123 now IPC :1.08140: AVG IPC :0.50800: L2-Pf-HR :-nan: L2-HR :0.73620: (Sim:0h23m25s) 
CPU  0 inst:  266000000 cyc:  519645634 now IPC :1.05651: AVG IPC :0.50900: L2-Pf-HR :-nan: L2-HR :0.73735: (Sim:0h23m28s) 
CPU  0 inst:  267000000 cyc:  520600332 now IPC :1.04745: AVG IPC :0.50999: L2-Pf-HR :-nan: L2-HR :0.73848: (Sim:0h23m31s) 
CPU  0 inst:  268000000 cyc:  521507297 now IPC :1.10258: AVG IPC :0.51102: L2-Pf-HR :-nan: L2-HR :0.73964: (Sim:0h23m34s) 
CPU  0 inst:  269000002 cyc:  522463192 now IPC :1.04614: AVG IPC :0.51200: L2-Pf-HR :-nan: L2-HR :0.74069: (Sim:0h23m37s) 
CPU  0 inst:  270000002 cyc:  523350031 now IPC :1.12760: AVG IPC :0.51305: L2-Pf-HR :-nan: L2-HR :0.74183: (Sim:0h23m40s) 
CPU  0 inst:  271000000 cyc:  524260420 now IPC :1.09843: AVG IPC :0.51406: L2-Pf-HR :-nan: L2-HR :0.74295: (Sim:0h23m43s) 
CPU  0 inst:  272000000 cyc:  525123535 now IPC :1.15859: AVG IPC :0.51513: L2-Pf-HR :-nan: L2-HR :0.74408: (Sim:0h23m46s) 
CPU  0 inst:  273000000 cyc:  526068331 now IPC :1.05843: AVG IPC :0.51610: L2-Pf-HR :-nan: L2-HR :0.74509: (Sim:0h23m49s) 
CPU  0 inst:  274000000 cyc:  526931186 now IPC :1.15894: AVG IPC :0.51716: L2-Pf-HR :-nan: L2-HR :0.74619: (Sim:0h23m51s) 
CPU  0 inst:  275000003 cyc:  527849009 now IPC :1.08954: AVG IPC :0.51816: L2-Pf-HR :-nan: L2-HR :0.74727: (Sim:0h23m54s) 
CPU  0 inst:  276000000 cyc:  528712311 now IPC :1.15834: AVG IPC :0.51920: L2-Pf-HR :-nan: L2-HR :0.74834: (Sim:0h23m57s) 
CPU  0 inst:  277000003 cyc:  529636341 now IPC :1.08222: AVG IPC :0.52019: L2-Pf-HR :-nan: L2-HR :0.74933: (Sim:0h24m0s) 
CPU  0 inst:  278000001 cyc:  530521386 now IPC :1.12988: AVG IPC :0.52121: L2-Pf-HR :-nan: L2-HR :0.75036: (Sim:0h24m3s) 
CPU  0 inst:  279000000 cyc:  531428027 now IPC :1.10297: AVG IPC :0.52220: L2-Pf-HR :-nan: L2-HR :0.75139: (Sim:0h24m6s) 
CPU  0 inst:  280000000 cyc:  532291797 now IPC :1.15772: AVG IPC :0.52323: L2-Pf-HR :-nan: L2-HR :0.75241: (Sim:0h24m9s) 
CPU  0 inst:  281000003 cyc:  533189879 now IPC :1.11349: AVG IPC :0.52423: L2-Pf-HR :-nan: L2-HR :0.75339: (Sim:0h24m11s) 
CPU  0 inst:  282000003 cyc:  534139874 now IPC :1.05264: AVG IPC :0.52517: L2-Pf-HR :-nan: L2-HR :0.75430: (Sim:0h24m14s) 
CPU  0 inst:  283000000 cyc:  535075879 now IPC :1.06837: AVG IPC :0.52612: L2-Pf-HR :-nan: L2-HR :0.75527: (Sim:0h24m17s) 
CPU  0 inst:  284000000 cyc:  535986990 now IPC :1.09756: AVG IPC :0.52710: L2-Pf-HR :-nan: L2-HR :0.75622: (Sim:0h24m20s) 
CPU  0 inst:  285000003 cyc:  536880783 now IPC :1.11883: AVG IPC :0.52808: L2-Pf-HR :-nan: L2-HR :0.75716: (Sim:0h24m23s) 
CPU  0 inst:  286000001 cyc:  537845351 now IPC :1.03673: AVG IPC :0.52900: L2-Pf-HR :-nan: L2-HR :0.75802: (Sim:0h24m26s) 
CPU  0 inst:  287000002 cyc:  538732867 now IPC :1.12674: AVG IPC :0.52998: L2-Pf-HR :-nan: L2-HR :0.75897: (Sim:0h24m29s) 
CPU  0 inst:  288000000 cyc:  539621088 now IPC :1.12584: AVG IPC :0.53097: L2-Pf-HR :-nan: L2-HR :0.75991: (Sim:0h24m31s) 
CPU  0 inst:  289000003 cyc:  540467811 now IPC :1.18103: AVG IPC :0.53199: L2-Pf-HR :-nan: L2-HR :0.76085: (Sim:0h24m34s) 
CPU  0 inst:  290000001 cyc:  541417183 now IPC :1.05333: AVG IPC :0.53290: L2-Pf-HR :-nan: L2-HR :0.76168: (Sim:0h24m37s) 
CPU  0 inst:  291000000 cyc:  542290630 now IPC :1.14489: AVG IPC :0.53389: L2-Pf-HR :-nan: L2-HR :0.76259: (Sim:0h24m40s) 
CPU  0 inst:  292000000 cyc:  543186296 now IPC :1.11649: AVG IPC :0.53485: L2-Pf-HR :-nan: L2-HR :0.76350: (Sim:0h24m43s) 
CPU  0 inst:  293000003 cyc:  544058350 now IPC :1.14672: AVG IPC :0.53583: L2-Pf-HR :-nan: L2-HR :0.76438: (Sim:0h24m46s) 
CPU  0 inst:  294000001 cyc:  545000797 now IPC :1.06107: AVG IPC :0.53674: L2-Pf-HR :-nan: L2-HR :0.76519: (Sim:0h24m49s) 
CPU  0 inst:  295000001 cyc:  545854076 now IPC :1.17195: AVG IPC :0.53774: L2-Pf-HR :-nan: L2-HR :0.76608: (Sim:0h24m51s) 
CPU  0 inst:  296000000 cyc:  546762624 now IPC :1.10066: AVG IPC :0.53868: L2-Pf-HR :-nan: L2-HR :0.76693: (Sim:0h24m54s) 
CPU  0 inst:  297000002 cyc:  547637236 now IPC :1.14337: AVG IPC :0.53964: L2-Pf-HR :-nan: L2-HR :0.76777: (Sim:0h24m57s) 
CPU  0 inst:  298000000 cyc:  548559090 now IPC :1.08477: AVG IPC :0.54056: L2-Pf-HR :-nan: L2-HR :0.76856: (Sim:0h25m0s) 
CPU  0 inst:  299000002 cyc:  549461445 now IPC :1.10821: AVG IPC :0.54150: L2-Pf-HR :-nan: L2-HR :0.76935: (Sim:0h25m3s) 
CPU  0 inst:  300000000 cyc:  550412312 now IPC :1.05167: AVG IPC :0.54238: L2-Pf-HR :-nan: L2-HR :0.77013: (Sim:0h25m6s) 
CPU  0 inst:  301000002 cyc:  551329091 now IPC :1.09078: AVG IPC :0.54329: L2-Pf-HR :-nan: L2-HR :0.77090: (Sim:0h25m9s) 
CPU  0 inst:  302000001 cyc:  552240614 now IPC :1.09706: AVG IPC :0.54421: L2-Pf-HR :-nan: L2-HR :0.77168: (Sim:0h25m12s) 
CPU  0 inst:  303000003 cyc:  553137980 now IPC :1.11437: AVG IPC :0.54513: L2-Pf-HR :-nan: L2-HR :0.77242: (Sim:0h25m15s) 
CPU  0 inst:  304000000 cyc:  554050577 now IPC :1.09577: AVG IPC :0.54604: L2-Pf-HR :-nan: L2-HR :0.77321: (Sim:0h25m18s) 
CPU  0 inst:  305000001 cyc:  554903218 now IPC :1.17283: AVG IPC :0.54701: L2-Pf-HR :-nan: L2-HR :0.77400: (Sim:0h25m20s) 
CPU  0 inst:  306000001 cyc:  555776611 now IPC :1.14496: AVG IPC :0.54795: L2-Pf-HR :-nan: L2-HR :0.77476: (Sim:0h25m23s) 
CPU  0 inst:  307000001 cyc:  556682382 now IPC :1.10403: AVG IPC :0.54886: L2-Pf-HR :-nan: L2-HR :0.77548: (Sim:0h25m26s) 
CPU  0 inst:  308000000 cyc:  557575216 now IPC :1.12003: AVG IPC :0.54977: L2-Pf-HR :-nan: L2-HR :0.77625: (Sim:0h25m29s) 
CPU  0 inst:  309000001 cyc:  558427339 now IPC :1.17354: AVG IPC :0.55072: L2-Pf-HR :-nan: L2-HR :0.77702: (Sim:0h25m32s) 
CPU  0 inst:  310000002 cyc:  559280099 now IPC :1.17266: AVG IPC :0.55167: L2-Pf-HR :-nan: L2-HR :0.77778: (Sim:0h25m35s) 
CPU  0 inst:  311000003 cyc:  560218794 now IPC :1.06531: AVG IPC :0.55254: L2-Pf-HR :-nan: L2-HR :0.77844: (Sim:0h25m38s) 
CPU  0 inst:  312000000 cyc:  561090411 now IPC :1.14729: AVG IPC :0.55346: L2-Pf-HR :-nan: L2-HR :0.77919: (Sim:0h25m41s) 
CPU  0 inst:  313000002 cyc:  561952466 now IPC :1.16002: AVG IPC :0.55439: L2-Pf-HR :-nan: L2-HR :0.77992: (Sim:0h25m44s) 
CPU  0 inst:  314000000 cyc:  562802482 now IPC :1.17645: AVG IPC :0.55534: L2-Pf-HR :-nan: L2-HR :0.78065: (Sim:0h25m47s) 
CPU  0 inst:  315000002 cyc:  563756221 now IPC :1.04851: AVG IPC :0.55617: L2-Pf-HR :-nan: L2-HR :0.78127: (Sim:0h25m50s) 
CPU  0 inst:  316000000 cyc:  564662772 now IPC :1.10308: AVG IPC :0.55705: L2-Pf-HR :-nan: L2-HR :0.78196: (Sim:0h25m53s) 
CPU  0 inst:  317000003 cyc:  565592438 now IPC :1.07566: AVG IPC :0.55791: L2-Pf-HR :-nan: L2-HR :0.78264: (Sim:0h25m56s) 
CPU  0 inst:  318000003 cyc:  566499360 now IPC :1.10263: AVG IPC :0.55878: L2-Pf-HR :-nan: L2-HR :0.78331: (Sim:0h25m59s) 
CPU  0 inst:  319000003 cyc:  567471464 now IPC :1.02870: AVG IPC :0.55959: L2-Pf-HR :-nan: L2-HR :0.78390: (Sim:0h26m1s) 
CPU  0 inst:  320000000 cyc:  568329568 now IPC :1.16536: AVG IPC :0.56050: L2-Pf-HR :-nan: L2-HR :0.78458: (Sim:0h26m4s) 
CPU  0 inst:  321000003 cyc:  569229330 now IPC :1.11141: AVG IPC :0.56137: L2-Pf-HR :-nan: L2-HR :0.78527: (Sim:0h26m7s) 
CPU  0 inst:  322000003 cyc:  570091452 now IPC :1.15993: AVG IPC :0.56228: L2-Pf-HR :-nan: L2-HR :0.78594: (Sim:0h26m10s) 
CPU  0 inst:  323000002 cyc:  571029417 now IPC :1.06614: AVG IPC :0.56311: L2-Pf-HR :-nan: L2-HR :0.78653: (Sim:0h26m13s) 
CPU  0 inst:  324000000 cyc:  571885867 now IPC :1.16761: AVG IPC :0.56402: L2-Pf-HR :-nan: L2-HR :0.78719: (Sim:0h26m16s) 
CPU  0 inst:  325000001 cyc:  572782589 now IPC :1.11517: AVG IPC :0.56488: L2-Pf-HR :-nan: L2-HR :0.78785: (Sim:0h26m19s) 
CPU  0 inst:  326000003 cyc:  573647069 now IPC :1.15677: AVG IPC :0.56577: L2-Pf-HR :-nan: L2-HR :0.78851: (Sim:0h26m22s) 
CPU  0 inst:  327000003 cyc:  574554080 now IPC :1.10252: AVG IPC :0.56662: L2-Pf-HR :-nan: L2-HR :0.78912: (Sim:0h26m25s) 
CPU  0 inst:  328000000 cyc:  575468745 now IPC :1.09329: AVG IPC :0.56746: L2-Pf-HR :-nan: L2-HR :0.78972: (Sim:0h26m27s) 
Finished CPU 0 instr: 326000003 cyc: 574488508 AVG IPC: 0.56746 (Sim time: 0h26m27s)

ChampSim completed all CPUs

[ROI Statistics]
Core_0_instructions 326000003
Core_0_cycles 574488508
Core_0_IPC 0.56746

Core_0_branch_prediction_accuracy 99.57887
Core_0_branch_MPKI 0.12288
Core_0_average_ROB_occupancy_at_mispredict 237.41675

Core_0_L1D_total_access 97821142
Core_0_L1D_total_hit 84734707 L1D_total_Hit Ratio: 0.86622
Core_0_L1D_total_miss 13086435
Core_0_L1D_loads 89281510
Core_0_L1D_load_hit 76761853 L1D_load_Hit Ratio: 0.85977
Core_0_L1D_load_miss 12519657
Core_0_L1D_RFOs 8539632
Core_0_L1D_RFO_hit 7972854 L1D_RFO_Hit Ratio: 0.93363
Core_0_L1D_RFO_miss 566778
Core_0_L1D_prefetches 0
Core_0_L1D_prefetch_hit 0 L1D_prefetch_Hit Ratio: -nan
Core_0_L1D_prefetch_miss 0
Core_0_L1D_writebacks 0
Core_0_L1D_writeback_hit 0 L1D_writeback_Hit Ratio: -nan
Core_0_L1D_writeback_miss 0
Core_0_L1D_prefetch_requested 0
Core_0_L1D_prefetch_issued 0
Core_0_L1D_prefetch_useful 0 L1D_Useful Ratio: -nan
Core_0_L1D_prefetch_useless 0
Core_0_L1D_prefetch_late 0
Core_0_L1D_average_miss_latency 80.78524

Core_0_L1I_total_access 83350515
Core_0_L1I_total_hit 83345547 L1I_total_Hit Ratio: 0.99994
Core_0_L1I_total_miss 4968
Core_0_L1I_loads 83350515
Core_0_L1I_load_hit 83345547 L1I_load_Hit Ratio: 0.99994
Core_0_L1I_load_miss 4968
Core_0_L1I_RFOs 0
Core_0_L1I_RFO_hit 0 L1I_RFO_Hit Ratio: -nan
Core_0_L1I_RFO_miss 0
Core_0_L1I_prefetches 0
Core_0_L1I_prefetch_hit 0 L1I_prefetch_Hit Ratio: -nan
Core_0_L1I_prefetch_miss 0
Core_0_L1I_writebacks 0
Core_0_L1I_writeback_hit 0 L1I_writeback_Hit Ratio: -nan
Core_0_L1I_writeback_miss 0
Core_0_L1I_prefetch_requested 0
Core_0_L1I_prefetch_issued 0
Core_0_L1I_prefetch_useful 0 L1I_Useful Ratio: -nan
Core_0_L1I_prefetch_useless 0
Core_0_L1I_prefetch_late 0
Core_0_L1I_average_miss_latency 275.34159

Core_0_L2C_total_access 15029934
Core_0_L2C_total_hit 11869373 L2C_total_Hit Ratio: 0.78972
Core_0_L2C_total_miss 3160561
Core_0_L2C_loads 12524620
Core_0_L2C_load_hit 9888896 L2C_load_Hit Ratio: 0.78956
Core_0_L2C_load_miss 2635724
Core_0_L2C_RFOs 566778
Core_0_L2C_RFO_hit 41946 L2C_RFO_Hit Ratio: 0.07401
Core_0_L2C_RFO_miss 524832
Core_0_L2C_prefetches 0
Core_0_L2C_prefetch_hit 0 L2C_prefetch_Hit Ratio: -nan
Core_0_L2C_prefetch_miss 0
Core_0_L2C_writebacks 1938536
Core_0_L2C_writeback_hit 1938531 L2C_writeback_Hit Ratio: 1.00000
Core_0_L2C_writeback_miss 5
Core_0_L2C_prefetch_requested 0
Core_0_L2C_prefetch_issued 0
Core_0_L2C_prefetch_useful 0 L2C_Useful Ratio: -nan
Core_0_L2C_prefetch_useless 0
Core_0_L2C_prefetch_late 0
Core_0_L2C_average_miss_latency 275.45106

Core_0_LLC_total_access 5042989
Core_0_LLC_total_hit 2193307 LLC_total_Hit Ratio: 0.43492
Core_0_LLC_total_miss 2849682
Core_0_LLC_loads 2635724
Core_0_LLC_load_hit 311276 LLC_load_Hit Ratio: 0.11810
Core_0_LLC_load_miss 2324448
Core_0_LLC_RFOs 524832
Core_0_LLC_RFO_hit 85 LLC_RFO_Hit Ratio: 0.00016
Core_0_LLC_RFO_miss 524747
Core_0_LLC_prefetches 0
Core_0_LLC_prefetch_hit 0 LLC_prefetch_Hit Ratio: -nan
Core_0_LLC_prefetch_miss 0
Core_0_LLC_writebacks 1882433
Core_0_LLC_writeback_hit 1881946 LLC_writeback_Hit Ratio: 0.99974
Core_0_LLC_writeback_miss 487
Core_0_LLC_prefetch_requested 0
Core_0_LLC_prefetch_issued 0
Core_0_LLC_prefetch_useful 0 LLC_Useful Ratio: -nan
Core_0_LLC_prefetch_useless 0
Core_0_LLC_prefetch_late 0
Core_0_LLC_average_miss_latency 271.92188

Core_0_major_page_fault 0
Core_0_minor_page_fault 19453

Channel_0_RQ_row_buffer_hit 1505259
Channel_0_RQ_row_buffer_miss 1343848
Channel_0_WQ_row_buffer_hit 540403
Channel_0_WQ_row_buffer_miss 1126779
Channel_0_WQ_full 0
Channel_0_dbus_congested 1356575

avg_congested_cycle 11

EzSearch AVG IPC :0.56746: L2-Pf-HR :-nan : L2-HR :0.78972 Uful:-nan
     > Finished combination: TraceType=770-tot Sim:326000000 Prefetcher=L2no L1=no
