TRACE: [409000000][GPT-Neo_2_7B]_[h32][s512][d80] Warmup: 2000000 NumTraces: 409000000
L1:next_line:L2:no
*************************************************
   ChampSim Multicore Out-of-Order Simulator
   Last compiled: Oct 22 2024 11:25:28
*************************************************

trace_0 770-tot_memTraces_v3/memTraces[409000000][GPT-Neo_2_7B]_[h32][s512][d80].champsim.xz
CPU 0 L1D next line prefetcher
MAIN.cc ln 751 stats print skipped
CPU  0 inst:    1000003 cyc:     505622 now IPC :1.97777: AVG IPC :1.97777: L2-Pf-HR :0.49971: L2-HR :0.62079: (Sim:0h0m8s) 
CPU  0 inst:    2000001 cyc:     994229 now IPC :2.04663: AVG IPC :2.01161: L2-Pf-HR :0.57535: L2-HR :0.71133: (Sim:0h0m17s) 

Warmup complete CPU  0 instructions:    2000001 cycles:     994229 (Simulation time: 0 hr 0 min 17 sec) 

CPU  0 inst:    3000000 cyc:    1540125 now IPC :1.83185: AVG IPC :1.83185: L2-Pf-HR :0.66076: L2-HR :0.82126: (Sim:0h0m25s) 
CPU  0 inst:    4000000 cyc:    2109469 now IPC :1.75641: AVG IPC :1.79334: L2-Pf-HR :0.72770: L2-HR :0.83744: (Sim:0h0m30s) 
CPU  0 inst:    5000005 cyc:    2626067 now IPC :1.93575: AVG IPC :1.83842: L2-Pf-HR :0.72704: L2-HR :0.84447: (Sim:0h0m35s) 
CPU  0 inst:    6000002 cyc:    3222548 now IPC :1.67649: AVG IPC :1.79508: L2-Pf-HR :0.71541: L2-HR :0.83211: (Sim:0h0m41s) 
CPU  0 inst:    7000003 cyc:    3738422 now IPC :1.93846: AVG IPC :1.82203: L2-Pf-HR :0.71618: L2-HR :0.83646: (Sim:0h0m46s) 
CPU  0 inst:    8000000 cyc:    4257884 now IPC :1.92506: AVG IPC :1.83843: L2-Pf-HR :0.71620: L2-HR :0.83934: (Sim:0h0m50s) 
CPU  0 inst:    9000005 cyc:    4788791 now IPC :1.88358: AVG IPC :1.84475: L2-Pf-HR :0.73122: L2-HR :0.84576: (Sim:0h0m55s) 
CPU  0 inst:   10000003 cyc:    5332540 now IPC :1.83908: AVG IPC :1.84404: L2-Pf-HR :0.72753: L2-HR :0.84424: (Sim:0h1m0s) 
CPU  0 inst:   11000002 cyc:    5953849 now IPC :1.60950: AVG IPC :1.81466: L2-Pf-HR :0.72288: L2-HR :0.83909: (Sim:0h1m6s) 
CPU  0 inst:   12000001 cyc:    6497731 now IPC :1.83863: AVG IPC :1.81702: L2-Pf-HR :0.72235: L2-HR :0.84044: (Sim:0h1m11s) 
CPU  0 inst:   13000000 cyc:    7035948 now IPC :1.85798: AVG IPC :1.82067: L2-Pf-HR :0.72148: L2-HR :0.84141: (Sim:0h1m16s) 
CPU  0 inst:   14000004 cyc:    7580419 now IPC :1.83665: AVG IPC :1.82199: L2-Pf-HR :0.72609: L2-HR :0.84390: (Sim:0h1m21s) 
CPU  0 inst:   15000005 cyc:    8156853 now IPC :1.73481: AVG IPC :1.81498: L2-Pf-HR :0.72783: L2-HR :0.84412: (Sim:0h1m26s) 
CPU  0 inst:   16000000 cyc:    8806940 now IPC :1.53825: AVG IPC :1.79195: L2-Pf-HR :0.72428: L2-HR :0.84068: (Sim:0h1m32s) 
CPU  0 inst:   17000004 cyc:    9353054 now IPC :1.83113: AVG IPC :1.79451: L2-Pf-HR :0.72374: L2-HR :0.84162: (Sim:0h1m39s) 
CPU  0 inst:   18000000 cyc:    9902247 now IPC :1.82085: AVG IPC :1.79613: L2-Pf-HR :0.72349: L2-HR :0.84243: (Sim:0h1m47s) 
CPU  0 inst:   19000005 cyc:   10457872 now IPC :1.79978: AVG IPC :1.79635: L2-Pf-HR :0.72572: L2-HR :0.84383: (Sim:0h1m54s) 
CPU  0 inst:   20000003 cyc:   11050691 now IPC :1.68685: AVG IPC :1.78989: L2-Pf-HR :0.72745: L2-HR :0.84391: (Sim:0h2m2s) 
CPU  0 inst:   21000002 cyc:   11698534 now IPC :1.54358: AVG IPC :1.77499: L2-Pf-HR :0.72518: L2-HR :0.84148: (Sim:0h2m10s) 
CPU  0 inst:   22000001 cyc:   12250409 now IPC :1.81200: AVG IPC :1.77680: L2-Pf-HR :0.72495: L2-HR :0.84214: (Sim:0h2m17s) 
CPU  0 inst:   23000003 cyc:   12799599 now IPC :1.82087: AVG IPC :1.77885: L2-Pf-HR :0.72465: L2-HR :0.84265: (Sim:0h2m24s) 
CPU  0 inst:   24000000 cyc:   13344698 now IPC :1.83452: AVG IPC :1.78131: L2-Pf-HR :0.72543: L2-HR :0.84351: (Sim:0h2m32s) 
CPU  0 inst:   25000005 cyc:   13932185 now IPC :1.70217: AVG IPC :1.77772: L2-Pf-HR :0.72754: L2-HR :0.84370: (Sim:0h2m39s) 
CPU  0 inst:   26000002 cyc:   14583597 now IPC :1.53512: AVG IPC :1.76609: L2-Pf-HR :0.72560: L2-HR :0.84179: (Sim:0h2m47s) 
CPU  0 inst:   27000001 cyc:   15129550 now IPC :1.83166: AVG IPC :1.76862: L2-Pf-HR :0.72545: L2-HR :0.84236: (Sim:0h2m54s) 
CPU  0 inst:   28000003 cyc:   15684321 now IPC :1.80255: AVG IPC :1.76990: L2-Pf-HR :0.72505: L2-HR :0.84271: (Sim:0h3m1s) 
CPU  0 inst:   29000002 cyc:   16236859 now IPC :1.80983: AVG IPC :1.77135: L2-Pf-HR :0.72514: L2-HR :0.84317: (Sim:0h3m9s) 
CPU  0 inst:   30000000 cyc:   16823819 now IPC :1.70369: AVG IPC :1.76884: L2-Pf-HR :0.72703: L2-HR :0.84339: (Sim:0h3m16s) 
CPU  0 inst:   31000001 cyc:   17462060 now IPC :1.56681: AVG IPC :1.76101: L2-Pf-HR :0.72568: L2-HR :0.84194: (Sim:0h3m24s) 
CPU  0 inst:   32000000 cyc:   18016170 now IPC :1.80469: AVG IPC :1.76243: L2-Pf-HR :0.72542: L2-HR :0.84232: (Sim:0h3m31s) 
CPU  0 inst:   33000000 cyc:   18569803 now IPC :1.80625: AVG IPC :1.76381: L2-Pf-HR :0.72518: L2-HR :0.84261: (Sim:0h3m38s) 
CPU  0 inst:   34000002 cyc:   19115835 now IPC :1.83140: AVG IPC :1.76585: L2-Pf-HR :0.72491: L2-HR :0.84297: (Sim:0h3m46s) 
CPU  0 inst:   35000004 cyc:   19705124 now IPC :1.69696: AVG IPC :1.76368: L2-Pf-HR :0.72711: L2-HR :0.84334: (Sim:0h3m53s) 
CPU  0 inst:   36000002 cyc:   20346747 now IPC :1.55854: AVG IPC :1.75688: L2-Pf-HR :0.72575: L2-HR :0.84201: (Sim:0h4m1s) 
CPU  0 inst:   37000001 cyc:   20894438 now IPC :1.82585: AVG IPC :1.75878: L2-Pf-HR :0.72552: L2-HR :0.84241: (Sim:0h4m8s) 
CPU  0 inst:   38000000 cyc:   21443506 now IPC :1.82127: AVG IPC :1.76045: L2-Pf-HR :0.72544: L2-HR :0.84274: (Sim:0h4m16s) 
CPU  0 inst:   39000001 cyc:   21991314 now IPC :1.82546: AVG IPC :1.76215: L2-Pf-HR :0.72515: L2-HR :0.84296: (Sim:0h4m23s) 
CPU  0 inst:   40000000 cyc:   22580275 now IPC :1.69790: AVG IPC :1.76040: L2-Pf-HR :0.72725: L2-HR :0.84342: (Sim:0h4m31s) 
CPU  0 inst:   41000005 cyc:   23208611 now IPC :1.59151: AVG IPC :1.75562: L2-Pf-HR :0.72626: L2-HR :0.84251: (Sim:0h4m39s) 
CPU  0 inst:   42000004 cyc:   23767697 now IPC :1.78863: AVG IPC :1.75643: L2-Pf-HR :0.72587: L2-HR :0.84258: (Sim:0h4m46s) 
CPU  0 inst:   43000001 cyc:   24316702 now IPC :1.82147: AVG IPC :1.75796: L2-Pf-HR :0.72574: L2-HR :0.84288: (Sim:0h4m54s) 
CPU  0 inst:   44000002 cyc:   24865527 now IPC :1.82208: AVG IPC :1.75944: L2-Pf-HR :0.72548: L2-HR :0.84308: (Sim:0h5m1s) 
CPU  0 inst:   45000004 cyc:   25454482 now IPC :1.69793: AVG IPC :1.75795: L2-Pf-HR :0.72730: L2-HR :0.84350: (Sim:0h5m9s) 
CPU  0 inst:   46000002 cyc:   26066402 now IPC :1.63420: AVG IPC :1.75493: L2-Pf-HR :0.72700: L2-HR :0.84308: (Sim:0h5m17s) 
CPU  0 inst:   47000004 cyc:   26640549 now IPC :1.74172: AVG IPC :1.75464: L2-Pf-HR :0.72631: L2-HR :0.84282: (Sim:0h5m24s) 
CPU  0 inst:   48000000 cyc:   27195496 now IPC :1.80197: AVG IPC :1.75564: L2-Pf-HR :0.72618: L2-HR :0.84302: (Sim:0h5m32s) 
CPU  0 inst:   49000005 cyc:   27749725 now IPC :1.80432: AVG IPC :1.75665: L2-Pf-HR :0.72596: L2-HR :0.84318: (Sim:0h5m40s) 
CPU  0 inst:   50000000 cyc:   28343276 now IPC :1.68477: AVG IPC :1.75509: L2-Pf-HR :0.72743: L2-HR :0.84352: (Sim:0h5m47s) 
CPU  0 inst:   51000002 cyc:   28888368 now IPC :1.83456: AVG IPC :1.75664: L2-Pf-HR :0.72826: L2-HR :0.84413: (Sim:0h5m55s) 
CPU  0 inst:   52000001 cyc:   29533450 now IPC :1.55019: AVG IPC :1.75197: L2-Pf-HR :0.72630: L2-HR :0.84284: (Sim:0h6m2s) 
CPU  0 inst:   53000003 cyc:   30084509 now IPC :1.81469: AVG IPC :1.75316: L2-Pf-HR :0.72617: L2-HR :0.84304: (Sim:0h6m10s) 
CPU  0 inst:   54000005 cyc:   30630831 now IPC :1.83043: AVG IPC :1.75459: L2-Pf-HR :0.72602: L2-HR :0.84325: (Sim:0h6m17s) 
CPU  0 inst:   55000001 cyc:   31223736 now IPC :1.68660: AVG IPC :1.75325: L2-Pf-HR :0.72736: L2-HR :0.84353: (Sim:0h6m24s) 
CPU  0 inst:   56000000 cyc:   31767874 now IPC :1.83777: AVG IPC :1.75475: L2-Pf-HR :0.72750: L2-HR :0.84389: (Sim:0h6m32s) 
CPU  0 inst:   57000001 cyc:   32419399 now IPC :1.53486: AVG IPC :1.75019: L2-Pf-HR :0.72635: L2-HR :0.84290: (Sim:0h6m39s) 
CPU  0 inst:   58000000 cyc:   32970340 now IPC :1.81507: AVG IPC :1.75131: L2-Pf-HR :0.72633: L2-HR :0.84314: (Sim:0h6m47s) 
CPU  0 inst:   59000000 cyc:   33516455 now IPC :1.83112: AVG IPC :1.75265: L2-Pf-HR :0.72606: L2-HR :0.84326: (Sim:0h6m54s) 
CPU  0 inst:   60000001 cyc:   34112648 now IPC :1.67731: AVG IPC :1.75129: L2-Pf-HR :0.72744: L2-HR :0.84357: (Sim:0h7m1s) 
CPU  0 inst:   61000004 cyc:   34657663 now IPC :1.83482: AVG IPC :1.75264: L2-Pf-HR :0.72749: L2-HR :0.84384: (Sim:0h7m9s) 
CPU  0 inst:   62000001 cyc:   35308510 now IPC :1.53645: AVG IPC :1.74854: L2-Pf-HR :0.72664: L2-HR :0.84302: (Sim:0h7m16s) 
CPU  0 inst:   63000005 cyc:   35856864 now IPC :1.82365: AVG IPC :1.74972: L2-Pf-HR :0.72658: L2-HR :0.84321: (Sim:0h7m24s) 
CPU  0 inst:   64000000 cyc:   36401675 now IPC :1.83549: AVG IPC :1.75104: L2-Pf-HR :0.72635: L2-HR :0.84335: (Sim:0h7m31s) 
CPU  0 inst:   65000004 cyc:   36960141 now IPC :1.79063: AVG IPC :1.75166: L2-Pf-HR :0.72782: L2-HR :0.84396: (Sim:0h7m39s) 
CPU  0 inst:   66000004 cyc:   37535944 now IPC :1.73671: AVG IPC :1.75142: L2-Pf-HR :0.72750: L2-HR :0.84379: (Sim:0h7m46s) 
CPU  0 inst:   67000001 cyc:   38180743 now IPC :1.55087: AVG IPC :1.74795: L2-Pf-HR :0.72673: L2-HR :0.84309: (Sim:0h7m54s) 
CPU  0 inst:   68000003 cyc:   38731867 now IPC :1.81448: AVG IPC :1.74892: L2-Pf-HR :0.72662: L2-HR :0.84326: (Sim:0h8m1s) 
CPU  0 inst:   69000002 cyc:   39287477 now IPC :1.79982: AVG IPC :1.74966: L2-Pf-HR :0.72643: L2-HR :0.84335: (Sim:0h8m8s) 
CPU  0 inst:   70000004 cyc:   39839599 now IPC :1.81120: AVG IPC :1.75053: L2-Pf-HR :0.72718: L2-HR :0.84377: (Sim:0h8m16s) 
CPU  0 inst:   71000001 cyc:   40419762 now IPC :1.72365: AVG IPC :1.75013: L2-Pf-HR :0.72744: L2-HR :0.84378: (Sim:0h8m23s) 
CPU  0 inst:   72000000 cyc:   41068750 now IPC :1.54086: AVG IPC :1.74675: L2-Pf-HR :0.72675: L2-HR :0.84309: (Sim:0h8m31s) 
CPU  0 inst:   73000003 cyc:   41612056 now IPC :1.84059: AVG IPC :1.74800: L2-Pf-HR :0.72659: L2-HR :0.84325: (Sim:0h8m39s) 
CPU  0 inst:   74000002 cyc:   42163489 now IPC :1.81346: AVG IPC :1.74888: L2-Pf-HR :0.72652: L2-HR :0.84341: (Sim:0h8m46s) 
CPU  0 inst:   75000000 cyc:   42714704 now IPC :1.81417: AVG IPC :1.74974: L2-Pf-HR :0.72689: L2-HR :0.84369: (Sim:0h8m53s) 
CPU  0 inst:   76000001 cyc:   43301110 now IPC :1.70530: AVG IPC :1.74912: L2-Pf-HR :0.72746: L2-HR :0.84378: (Sim:0h9m0s) 
CPU  0 inst:   77000001 cyc:   43961590 now IPC :1.51405: AVG IPC :1.74551: L2-Pf-HR :0.72685: L2-HR :0.84314: (Sim:0h9m8s) 
CPU  0 inst:   78000004 cyc:   44512020 now IPC :1.81677: AVG IPC :1.74641: L2-Pf-HR :0.72682: L2-HR :0.84332: (Sim:0h9m15s) 
CPU  0 inst:   79000002 cyc:   45052887 now IPC :1.84888: AVG IPC :1.74767: L2-Pf-HR :0.72670: L2-HR :0.84346: (Sim:0h9m23s) 
CPU  0 inst:   80000000 cyc:   45602858 now IPC :1.81827: AVG IPC :1.74854: L2-Pf-HR :0.72686: L2-HR :0.84366: (Sim:0h9m30s) 
CPU  0 inst:   81000005 cyc:   46186590 now IPC :1.71312: AVG IPC :1.74808: L2-Pf-HR :0.72743: L2-HR :0.84374: (Sim:0h9m37s) 
CPU  0 inst:   82000004 cyc:   46829972 now IPC :1.55429: AVG IPC :1.74536: L2-Pf-HR :0.72685: L2-HR :0.84317: (Sim:0h9m45s) 
CPU  0 inst:   83000000 cyc:   47376337 now IPC :1.83027: AVG IPC :1.74636: L2-Pf-HR :0.72681: L2-HR :0.84334: (Sim:0h9m52s) 
CPU  0 inst:   84000002 cyc:   47929648 now IPC :1.80731: AVG IPC :1.74708: L2-Pf-HR :0.72671: L2-HR :0.84345: (Sim:0h9m59s) 
CPU  0 inst:   85000002 cyc:   48482716 now IPC :1.80810: AVG IPC :1.74779: L2-Pf-HR :0.72670: L2-HR :0.84357: (Sim:0h10m7s) 
CPU  0 inst:   86000004 cyc:   49069121 now IPC :1.70531: AVG IPC :1.74727: L2-Pf-HR :0.72741: L2-HR :0.84370: (Sim:0h10m14s) 
CPU  0 inst:   87000004 cyc:   49717026 now IPC :1.54344: AVG IPC :1.74456: L2-Pf-HR :0.72691: L2-HR :0.84319: (Sim:0h10m22s) 
CPU  0 inst:   88000000 cyc:   50268008 now IPC :1.81493: AVG IPC :1.74535: L2-Pf-HR :0.72683: L2-HR :0.84331: (Sim:0h10m29s) 
CPU  0 inst:   89000000 cyc:   50821453 now IPC :1.80686: AVG IPC :1.74603: L2-Pf-HR :0.72667: L2-HR :0.84338: (Sim:0h10m36s) 
CPU  0 inst:   90000001 cyc:   51367840 now IPC :1.83021: AVG IPC :1.74695: L2-Pf-HR :0.72658: L2-HR :0.84349: (Sim:0h10m43s) 
CPU  0 inst:   91000005 cyc:   51953750 now IPC :1.70675: AVG IPC :1.74648: L2-Pf-HR :0.72740: L2-HR :0.84368: (Sim:0h10m51s) 
CPU  0 inst:   92000001 cyc:   52599278 now IPC :1.54911: AVG IPC :1.74402: L2-Pf-HR :0.72697: L2-HR :0.84319: (Sim:0h10m58s) 
CPU  0 inst:   93000005 cyc:   53145466 now IPC :1.83088: AVG IPC :1.74493: L2-Pf-HR :0.72689: L2-HR :0.84332: (Sim:0h11m6s) 
CPU  0 inst:   94000004 cyc:   53694572 now IPC :1.82114: AVG IPC :1.74572: L2-Pf-HR :0.72679: L2-HR :0.84344: (Sim:0h11m13s) 
CPU  0 inst:   95000004 cyc:   54239827 now IPC :1.83400: AVG IPC :1.74662: L2-Pf-HR :0.72667: L2-HR :0.84353: (Sim:0h11m20s) 
CPU  0 inst:   96000000 cyc:   54832105 now IPC :1.68839: AVG IPC :1.74598: L2-Pf-HR :0.72736: L2-HR :0.84364: (Sim:0h11m28s) 
CPU  0 inst:   97000001 cyc:   55472669 now IPC :1.56113: AVG IPC :1.74381: L2-Pf-HR :0.72700: L2-HR :0.84327: (Sim:0h11m35s) 
CPU  0 inst:   98000003 cyc:   56032163 now IPC :1.78733: AVG IPC :1.74425: L2-Pf-HR :0.72679: L2-HR :0.84329: (Sim:0h11m42s) 
CPU  0 inst:   99000002 cyc:   56580406 now IPC :1.82401: AVG IPC :1.74504: L2-Pf-HR :0.72675: L2-HR :0.84340: (Sim:0h11m50s) 
CPU  0 inst:  100000000 cyc:   57123298 now IPC :1.84198: AVG IPC :1.74598: L2-Pf-HR :0.72661: L2-HR :0.84350: (Sim:0h11m57s) 
CPU  0 inst:  101000000 cyc:   57716437 now IPC :1.68595: AVG IPC :1.74535: L2-Pf-HR :0.72738: L2-HR :0.84366: (Sim:0h12m5s) 
CPU  0 inst:  102000001 cyc:   58332081 now IPC :1.62432: AVG IPC :1.74405: L2-Pf-HR :0.72718: L2-HR :0.84348: (Sim:0h12m13s) 
CPU  0 inst:  103000003 cyc:   58908462 now IPC :1.73497: AVG IPC :1.74396: L2-Pf-HR :0.72686: L2-HR :0.84334: (Sim:0h12m21s) 
CPU  0 inst:  104000000 cyc:   59457366 now IPC :1.82181: AVG IPC :1.74469: L2-Pf-HR :0.72681: L2-HR :0.84344: (Sim:0h12m28s) 
CPU  0 inst:  105000000 cyc:   60010087 now IPC :1.80923: AVG IPC :1.74529: L2-Pf-HR :0.72665: L2-HR :0.84349: (Sim:0h12m35s) 
CPU  0 inst:  106000004 cyc:   60592580 now IPC :1.71677: AVG IPC :1.74501: L2-Pf-HR :0.72739: L2-HR :0.84368: (Sim:0h12m43s) 
CPU  0 inst:  107000003 cyc:   61137629 now IPC :1.83470: AVG IPC :1.74583: L2-Pf-HR :0.72779: L2-HR :0.84396: (Sim:0h12m50s) 
CPU  0 inst:  108000003 cyc:   61796784 now IPC :1.51709: AVG IPC :1.74335: L2-Pf-HR :0.72694: L2-HR :0.84336: (Sim:0h12m58s) 
CPU  0 inst:  109000004 cyc:   62350201 now IPC :1.80696: AVG IPC :1.74392: L2-Pf-HR :0.72683: L2-HR :0.84343: (Sim:0h13m5s) 
CPU  0 inst:  110000001 cyc:   62895153 now IPC :1.83502: AVG IPC :1.74472: L2-Pf-HR :0.72666: L2-HR :0.84351: (Sim:0h13m12s) 
CPU  0 inst:  111000000 cyc:   63491442 now IPC :1.67704: AVG IPC :1.74408: L2-Pf-HR :0.72732: L2-HR :0.84363: (Sim:0h13m17s) 
CPU  0 inst:  112000000 cyc:   64032744 now IPC :1.84740: AVG IPC :1.74496: L2-Pf-HR :0.72740: L2-HR :0.84380: (Sim:0h13m22s) 
CPU  0 inst:  113000000 cyc:   64686993 now IPC :1.52847: AVG IPC :1.74274: L2-Pf-HR :0.72685: L2-HR :0.84331: (Sim:0h13m28s) 
CPU  0 inst:  114000005 cyc:   65225387 now IPC :1.85739: AVG IPC :1.74370: L2-Pf-HR :0.72679: L2-HR :0.84342: (Sim:0h13m33s) 
CPU  0 inst:  115000001 cyc:   65767988 now IPC :1.84297: AVG IPC :1.74453: L2-Pf-HR :0.72670: L2-HR :0.84349: (Sim:0h13m38s) 
CPU  0 inst:  116000001 cyc:   66359176 now IPC :1.69151: AVG IPC :1.74405: L2-Pf-HR :0.72738: L2-HR :0.84365: (Sim:0h13m43s) 
CPU  0 inst:  117000003 cyc:   66897717 now IPC :1.85687: AVG IPC :1.74498: L2-Pf-HR :0.72740: L2-HR :0.84380: (Sim:0h13m48s) 
CPU  0 inst:  118000002 cyc:   67552722 now IPC :1.52670: AVG IPC :1.74283: L2-Pf-HR :0.72697: L2-HR :0.84338: (Sim:0h13m53s) 
CPU  0 inst:  119000005 cyc:   68100634 now IPC :1.82512: AVG IPC :1.74350: L2-Pf-HR :0.72689: L2-HR :0.84346: (Sim:0h13m58s) 
CPU  0 inst:  120000000 cyc:   68648643 now IPC :1.82478: AVG IPC :1.74416: L2-Pf-HR :0.72682: L2-HR :0.84354: (Sim:0h14m3s) 
CPU  0 inst:  121000000 cyc:   69211973 now IPC :1.77516: AVG IPC :1.74441: L2-Pf-HR :0.72765: L2-HR :0.84387: (Sim:0h14m11s) 
CPU  0 inst:  122000004 cyc:   69789791 now IPC :1.73066: AVG IPC :1.74430: L2-Pf-HR :0.72747: L2-HR :0.84381: (Sim:0h14m18s) 
CPU  0 inst:  123000001 cyc:   70436195 now IPC :1.54702: AVG IPC :1.74246: L2-Pf-HR :0.72710: L2-HR :0.84343: (Sim:0h14m26s) 
CPU  0 inst:  124000004 cyc:   70988105 now IPC :1.81190: AVG IPC :1.74301: L2-Pf-HR :0.72704: L2-HR :0.84351: (Sim:0h14m33s) 
CPU  0 inst:  125000001 cyc:   71541383 now IPC :1.80740: AVG IPC :1.74351: L2-Pf-HR :0.72691: L2-HR :0.84355: (Sim:0h14m40s) 
CPU  0 inst:  126000000 cyc:   72096692 now IPC :1.80080: AVG IPC :1.74396: L2-Pf-HR :0.72729: L2-HR :0.84376: (Sim:0h14m48s) 
CPU  0 inst:  127000000 cyc:   72679343 now IPC :1.71629: AVG IPC :1.74374: L2-Pf-HR :0.72747: L2-HR :0.84376: (Sim:0h14m55s) 
CPU  0 inst:  128000000 cyc:   73318005 now IPC :1.56577: AVG IPC :1.74217: L2-Pf-HR :0.72711: L2-HR :0.84339: (Sim:0h15m3s) 
CPU  0 inst:  129000005 cyc:   73866415 now IPC :1.82346: AVG IPC :1.74278: L2-Pf-HR :0.72705: L2-HR :0.84348: (Sim:0h15m10s) 
CPU  0 inst:  130000001 cyc:   74414423 now IPC :1.82478: AVG IPC :1.74339: L2-Pf-HR :0.72695: L2-HR :0.84356: (Sim:0h15m18s) 
CPU  0 inst:  131000005 cyc:   74971023 now IPC :1.79663: AVG IPC :1.74379: L2-Pf-HR :0.72721: L2-HR :0.84373: (Sim:0h15m25s) 
CPU  0 inst:  132000001 cyc:   75553820 now IPC :1.71586: AVG IPC :1.74357: L2-Pf-HR :0.72756: L2-HR :0.84381: (Sim:0h15m32s) 
CPU  0 inst:  133000003 cyc:   76214313 now IPC :1.51402: AVG IPC :1.74156: L2-Pf-HR :0.72723: L2-HR :0.84345: (Sim:0h15m40s) 
CPU  0 inst:  134000005 cyc:   76756400 now IPC :1.84473: AVG IPC :1.74229: L2-Pf-HR :0.72715: L2-HR :0.84353: (Sim:0h15m46s) 
CPU  0 inst:  135000001 cyc:   77302648 now IPC :1.83066: AVG IPC :1.74293: L2-Pf-HR :0.72708: L2-HR :0.84360: (Sim:0h15m53s) 
CPU  0 inst:  136000000 cyc:   77846940 now IPC :1.83725: AVG IPC :1.74360: L2-Pf-HR :0.72720: L2-HR :0.84374: (Sim:0h15m58s) 
CPU  0 inst:  137000002 cyc:   78432951 now IPC :1.70646: AVG IPC :1.74331: L2-Pf-HR :0.72756: L2-HR :0.84379: (Sim:0h16m3s) 
CPU  0 inst:  138000003 cyc:   79084073 now IPC :1.53581: AVG IPC :1.74158: L2-Pf-HR :0.72726: L2-HR :0.84346: (Sim:0h16m11s) 
CPU  0 inst:  139000000 cyc:   79625168 now IPC :1.84810: AVG IPC :1.74232: L2-Pf-HR :0.72721: L2-HR :0.84355: (Sim:0h16m18s) 
CPU  0 inst:  140000003 cyc:   80176854 now IPC :1.81263: AVG IPC :1.74281: L2-Pf-HR :0.72715: L2-HR :0.84362: (Sim:0h16m25s) 
CPU  0 inst:  141000000 cyc:   80727916 now IPC :1.81467: AVG IPC :1.74330: L2-Pf-HR :0.72711: L2-HR :0.84368: (Sim:0h16m33s) 
CPU  0 inst:  142000003 cyc:   81317981 now IPC :1.69473: AVG IPC :1.74295: L2-Pf-HR :0.72755: L2-HR :0.84377: (Sim:0h16m40s) 
CPU  0 inst:  143000003 cyc:   81963494 now IPC :1.54916: AVG IPC :1.74140: L2-Pf-HR :0.72724: L2-HR :0.84346: (Sim:0h16m46s) 
CPU  0 inst:  144000000 cyc:   82516477 now IPC :1.80837: AVG IPC :1.74186: L2-Pf-HR :0.72716: L2-HR :0.84353: (Sim:0h16m52s) 
CPU  0 inst:  145000002 cyc:   83067536 now IPC :1.81469: AVG IPC :1.74234: L2-Pf-HR :0.72708: L2-HR :0.84359: (Sim:0h17m0s) 
CPU  0 inst:  146000000 cyc:   83610103 now IPC :1.84309: AVG IPC :1.74301: L2-Pf-HR :0.72703: L2-HR :0.84367: (Sim:0h17m7s) 
CPU  0 inst:  147000000 cyc:   84196720 now IPC :1.70469: AVG IPC :1.74274: L2-Pf-HR :0.72753: L2-HR :0.84379: (Sim:0h17m12s) 
CPU  0 inst:  148000000 cyc:   84852112 now IPC :1.52580: AVG IPC :1.74104: L2-Pf-HR :0.72716: L2-HR :0.84347: (Sim:0h17m17s) 
CPU  0 inst:  149000005 cyc:   85399058 now IPC :1.82834: AVG IPC :1.74161: L2-Pf-HR :0.72712: L2-HR :0.84355: (Sim:0h17m22s) 
CPU  0 inst:  150000001 cyc:   85953032 now IPC :1.80513: AVG IPC :1.74202: L2-Pf-HR :0.72705: L2-HR :0.84361: (Sim:0h17m27s) 
CPU  0 inst:  151000002 cyc:   86498883 now IPC :1.83200: AVG IPC :1.74260: L2-Pf-HR :0.72700: L2-HR :0.84368: (Sim:0h17m32s) 
CPU  0 inst:  152000000 cyc:   87082160 now IPC :1.71445: AVG IPC :1.74240: L2-Pf-HR :0.72751: L2-HR :0.84380: (Sim:0h17m39s) 
CPU  0 inst:  153000001 cyc:   87710668 now IPC :1.59107: AVG IPC :1.74131: L2-Pf-HR :0.72729: L2-HR :0.84357: (Sim:0h17m47s) 
CPU  0 inst:  154000005 cyc:   88268425 now IPC :1.79290: AVG IPC :1.74164: L2-Pf-HR :0.72718: L2-HR :0.84358: (Sim:0h17m53s) 
CPU  0 inst:  155000003 cyc:   88822112 now IPC :1.80607: AVG IPC :1.74204: L2-Pf-HR :0.72713: L2-HR :0.84364: (Sim:0h18m1s) 
CPU  0 inst:  156000000 cyc:   89370909 now IPC :1.82216: AVG IPC :1.74254: L2-Pf-HR :0.72707: L2-HR :0.84370: (Sim:0h18m8s) 
CPU  0 inst:  157000002 cyc:   89965598 now IPC :1.68155: AVG IPC :1.74213: L2-Pf-HR :0.72748: L2-HR :0.84376: (Sim:0h18m15s) 
CPU  0 inst:  158000003 cyc:   90583468 now IPC :1.61847: AVG IPC :1.74128: L2-Pf-HR :0.72735: L2-HR :0.84364: (Sim:0h18m23s) 
CPU  0 inst:  159000005 cyc:   91160324 now IPC :1.73354: AVG IPC :1.74123: L2-Pf-HR :0.72713: L2-HR :0.84355: (Sim:0h18m30s) 
CPU  0 inst:  160000000 cyc:   91714033 now IPC :1.80599: AVG IPC :1.74163: L2-Pf-HR :0.72711: L2-HR :0.84361: (Sim:0h18m38s) 
CPU  0 inst:  161000003 cyc:   92265742 now IPC :1.81256: AVG IPC :1.74206: L2-Pf-HR :0.72702: L2-HR :0.84364: (Sim:0h18m45s) 
CPU  0 inst:  162000001 cyc:   92855757 now IPC :1.69487: AVG IPC :1.74175: L2-Pf-HR :0.72753: L2-HR :0.84378: (Sim:0h18m53s) 
CPU  0 inst:  163000000 cyc:   93399084 now IPC :1.84051: AVG IPC :1.74233: L2-Pf-HR :0.72778: L2-HR :0.84396: (Sim:0h19m0s) 
CPU  0 inst:  164000005 cyc:   98542902 now IPC :0.19441: AVG IPC :1.66071: L2-Pf-HR :0.71417: L2-HR :0.82871: (Sim:0h19m23s) 
CPU  0 inst:  165000001 cyc:  103979626 now IPC :0.18393: AVG IPC :1.58275: L2-Pf-HR :0.70051: L2-HR :0.81440: (Sim:0h19m40s) 
CPU  0 inst:  166000002 cyc:  109416222 now IPC :0.18394: AVG IPC :1.51261: L2-Pf-HR :0.68735: L2-HR :0.80129: (Sim:0h19m58s) 
CPU  0 inst:  167000001 cyc:  114851713 now IPC :0.18398: AVG IPC :1.44918: L2-Pf-HR :0.67469: L2-HR :0.78923: (Sim:0h20m15s) 
CPU  0 inst:  168000000 cyc:  119883979 now IPC :0.19872: AVG IPC :1.39625: L2-Pf-HR :0.66450: L2-HR :0.77999: (Sim:0h20m31s) 
CPU  0 inst:  169000000 cyc:  123681426 now IPC :0.26333: AVG IPC :1.36119: L2-Pf-HR :0.66147: L2-HR :0.77809: (Sim:0h20m43s) 
CPU  0 inst:  170000000 cyc:  127478092 now IPC :0.26339: AVG IPC :1.32823: L2-Pf-HR :0.65846: L2-HR :0.77620: (Sim:0h20m55s) 
CPU  0 inst:  171000000 cyc:  131270268 now IPC :0.26370: AVG IPC :1.29725: L2-Pf-HR :0.65549: L2-HR :0.77433: (Sim:0h21m6s) 
CPU  0 inst:  172000001 cyc:  135042314 now IPC :0.26511: AVG IPC :1.26820: L2-Pf-HR :0.65254: L2-HR :0.77248: (Sim:0h21m18s) 
CPU  0 inst:  173000003 cyc:  138801731 now IPC :0.26600: AVG IPC :1.24086: L2-Pf-HR :0.64962: L2-HR :0.77064: (Sim:0h21m29s) 
CPU  0 inst:  174000002 cyc:  142560871 now IPC :0.26602: AVG IPC :1.21498: L2-Pf-HR :0.64672: L2-HR :0.76882: (Sim:0h21m40s) 
CPU  0 inst:  175000003 cyc:  146339217 now IPC :0.26467: AVG IPC :1.19027: L2-Pf-HR :0.64385: L2-HR :0.76701: (Sim:0h21m52s) 
CPU  0 inst:  176000000 cyc:  150101139 now IPC :0.26582: AVG IPC :1.16695: L2-Pf-HR :0.64099: L2-HR :0.76522: (Sim:0h22m3s) 
CPU  0 inst:  177000000 cyc:  153868764 now IPC :0.26542: AVG IPC :1.14473: L2-Pf-HR :0.63817: L2-HR :0.76344: (Sim:0h22m14s) 
CPU  0 inst:  178000000 cyc:  157642162 now IPC :0.26501: AVG IPC :1.12354: L2-Pf-HR :0.63538: L2-HR :0.76168: (Sim:0h22m26s) 
CPU  0 inst:  179000000 cyc:  161418075 now IPC :0.26484: AVG IPC :1.10333: L2-Pf-HR :0.63260: L2-HR :0.75993: (Sim:0h22m38s) 
CPU  0 inst:  180000001 cyc:  165194435 now IPC :0.26481: AVG IPC :1.08404: L2-Pf-HR :0.62986: L2-HR :0.75819: (Sim:0h22m54s) 
CPU  0 inst:  181000003 cyc:  168954897 now IPC :0.26593: AVG IPC :1.06573: L2-Pf-HR :0.62713: L2-HR :0.75647: (Sim:0h23m9s) 
CPU  0 inst:  182000003 cyc:  172723884 now IPC :0.26532: AVG IPC :1.04816: L2-Pf-HR :0.62443: L2-HR :0.75477: (Sim:0h23m25s) 
CPU  0 inst:  183000002 cyc:  176485750 now IPC :0.26583: AVG IPC :1.03139: L2-Pf-HR :0.62176: L2-HR :0.75308: (Sim:0h23m42s) 
CPU  0 inst:  184000000 cyc:  180247094 now IPC :0.26586: AVG IPC :1.01533: L2-Pf-HR :0.61910: L2-HR :0.75140: (Sim:0h23m58s) 
CPU  0 inst:  185000000 cyc:  184007505 now IPC :0.26593: AVG IPC :0.99993: L2-Pf-HR :0.61647: L2-HR :0.74973: (Sim:0h24m15s) 
CPU  0 inst:  186000002 cyc:  187766816 now IPC :0.26601: AVG IPC :0.98516: L2-Pf-HR :0.61385: L2-HR :0.74808: (Sim:0h24m32s) 
CPU  0 inst:  187000000 cyc:  191533900 now IPC :0.26546: AVG IPC :0.97093: L2-Pf-HR :0.61127: L2-HR :0.74644: (Sim:0h24m48s) 
CPU  0 inst:  188000001 cyc:  195300165 now IPC :0.26552: AVG IPC :0.95725: L2-Pf-HR :0.60870: L2-HR :0.74481: (Sim:0h25m3s) 
CPU  0 inst:  189000003 cyc:  199060772 now IPC :0.26592: AVG IPC :0.94413: L2-Pf-HR :0.60616: L2-HR :0.74320: (Sim:0h25m20s) 
CPU  0 inst:  190000003 cyc:  202825525 now IPC :0.26562: AVG IPC :0.93147: L2-Pf-HR :0.60363: L2-HR :0.74159: (Sim:0h25m37s) 
CPU  0 inst:  191000002 cyc:  206590467 now IPC :0.26561: AVG IPC :0.91928: L2-Pf-HR :0.60113: L2-HR :0.74001: (Sim:0h25m53s) 
CPU  0 inst:  192000000 cyc:  210355080 now IPC :0.26563: AVG IPC :0.90752: L2-Pf-HR :0.59865: L2-HR :0.73843: (Sim:0h26m9s) 
CPU  0 inst:  193000001 cyc:  214126846 now IPC :0.26513: AVG IPC :0.89616: L2-Pf-HR :0.59619: L2-HR :0.73687: (Sim:0h26m24s) 
CPU  0 inst:  194000000 cyc:  217898925 now IPC :0.26511: AVG IPC :0.88518: L2-Pf-HR :0.59375: L2-HR :0.73531: (Sim:0h26m37s) 
CPU  0 inst:  195000001 cyc:  221660797 now IPC :0.26583: AVG IPC :0.87462: L2-Pf-HR :0.59133: L2-HR :0.73377: (Sim:0h26m49s) 
CPU  0 inst:  196000001 cyc:  225426068 now IPC :0.26559: AVG IPC :0.86440: L2-Pf-HR :0.58892: L2-HR :0.73224: (Sim:0h27m0s) 
CPU  0 inst:  197000003 cyc:  229191330 now IPC :0.26559: AVG IPC :0.85452: L2-Pf-HR :0.58654: L2-HR :0.73073: (Sim:0h27m11s) 
CPU  0 inst:  198000003 cyc:  232959512 now IPC :0.26538: AVG IPC :0.84495: L2-Pf-HR :0.58417: L2-HR :0.72922: (Sim:0h27m23s) 
CPU  0 inst:  199000002 cyc:  236726386 now IPC :0.26547: AVG IPC :0.83569: L2-Pf-HR :0.58183: L2-HR :0.72773: (Sim:0h27m34s) 
CPU  0 inst:  200000000 cyc:  240496812 now IPC :0.26522: AVG IPC :0.82671: L2-Pf-HR :0.57951: L2-HR :0.72624: (Sim:0h27m45s) 
CPU  0 inst:  201000001 cyc:  244258168 now IPC :0.26586: AVG IPC :0.81804: L2-Pf-HR :0.57720: L2-HR :0.72477: (Sim:0h28m0s) 
CPU  0 inst:  202000000 cyc:  248030786 now IPC :0.26507: AVG IPC :0.80960: L2-Pf-HR :0.57491: L2-HR :0.72331: (Sim:0h28m17s) 
CPU  0 inst:  203000004 cyc:  251788308 now IPC :0.26613: AVG IPC :0.80145: L2-Pf-HR :0.57264: L2-HR :0.72186: (Sim:0h28m34s) 
CPU  0 inst:  204000001 cyc:  255558336 now IPC :0.26525: AVG IPC :0.79351: L2-Pf-HR :0.57039: L2-HR :0.72042: (Sim:0h28m51s) 
CPU  0 inst:  205000002 cyc:  259333306 now IPC :0.26490: AVG IPC :0.78579: L2-Pf-HR :0.56815: L2-HR :0.71899: (Sim:0h29m8s) 
CPU  0 inst:  206000003 cyc:  263103695 now IPC :0.26522: AVG IPC :0.77830: L2-Pf-HR :0.56593: L2-HR :0.71757: (Sim:0h29m23s) 
CPU  0 inst:  207000002 cyc:  266865731 now IPC :0.26581: AVG IPC :0.77105: L2-Pf-HR :0.56373: L2-HR :0.71617: (Sim:0h29m35s) 
CPU  0 inst:  208000000 cyc:  270636099 now IPC :0.26523: AVG IPC :0.76398: L2-Pf-HR :0.56155: L2-HR :0.71477: (Sim:0h29m46s) 
CPU  0 inst:  209000001 cyc:  274397768 now IPC :0.26584: AVG IPC :0.75712: L2-Pf-HR :0.55938: L2-HR :0.71338: (Sim:0h29m58s) 
CPU  0 inst:  210000000 cyc:  278164389 now IPC :0.26549: AVG IPC :0.75044: L2-Pf-HR :0.55723: L2-HR :0.71201: (Sim:0h30m9s) 
CPU  0 inst:  211000000 cyc:  281928422 now IPC :0.26567: AVG IPC :0.74395: L2-Pf-HR :0.55510: L2-HR :0.71064: (Sim:0h30m25s) 
CPU  0 inst:  212000000 cyc:  285693746 now IPC :0.26558: AVG IPC :0.73762: L2-Pf-HR :0.55298: L2-HR :0.70928: (Sim:0h30m42s) 
CPU  0 inst:  213000002 cyc:  289456726 now IPC :0.26575: AVG IPC :0.73146: L2-Pf-HR :0.55088: L2-HR :0.70793: (Sim:0h30m53s) 
CPU  0 inst:  214000005 cyc:  293225005 now IPC :0.26537: AVG IPC :0.72545: L2-Pf-HR :0.54880: L2-HR :0.70660: (Sim:0h31m8s) 
CPU  0 inst:  215000000 cyc:  296981839 now IPC :0.26618: AVG IPC :0.71962: L2-Pf-HR :0.54672: L2-HR :0.70527: (Sim:0h31m24s) 
CPU  0 inst:  216000000 cyc:  300749536 now IPC :0.26541: AVG IPC :0.71392: L2-Pf-HR :0.54467: L2-HR :0.70395: (Sim:0h31m41s) 
CPU  0 inst:  217000001 cyc:  304520466 now IPC :0.26519: AVG IPC :0.70834: L2-Pf-HR :0.54263: L2-HR :0.70264: (Sim:0h31m58s) 
CPU  0 inst:  218000000 cyc:  308289866 now IPC :0.26529: AVG IPC :0.70291: L2-Pf-HR :0.54061: L2-HR :0.70134: (Sim:0h32m15s) 
CPU  0 inst:  219000000 cyc:  312056356 now IPC :0.26550: AVG IPC :0.69761: L2-Pf-HR :0.53860: L2-HR :0.70004: (Sim:0h32m32s) 
CPU  0 inst:  220000000 cyc:  315818537 now IPC :0.26580: AVG IPC :0.69245: L2-Pf-HR :0.53661: L2-HR :0.69876: (Sim:0h32m49s) 
CPU  0 inst:  221000001 cyc:  319585104 now IPC :0.26549: AVG IPC :0.68740: L2-Pf-HR :0.53463: L2-HR :0.69749: (Sim:0h33m5s) 
CPU  0 inst:  222000003 cyc:  323348246 now IPC :0.26574: AVG IPC :0.68248: L2-Pf-HR :0.53267: L2-HR :0.69623: (Sim:0h33m22s) 
CPU  0 inst:  223000002 cyc:  327126309 now IPC :0.26469: AVG IPC :0.67764: L2-Pf-HR :0.53072: L2-HR :0.69497: (Sim:0h33m33s) 
CPU  0 inst:  224000000 cyc:  330883158 now IPC :0.26618: AVG IPC :0.67295: L2-Pf-HR :0.52878: L2-HR :0.69372: (Sim:0h33m43s) 
CPU  0 inst:  225000004 cyc:  334644439 now IPC :0.26587: AVG IPC :0.66836: L2-Pf-HR :0.52686: L2-HR :0.69248: (Sim:0h33m53s) 
CPU  0 inst:  226000000 cyc:  338416781 now IPC :0.26509: AVG IPC :0.66386: L2-Pf-HR :0.52495: L2-HR :0.69125: (Sim:0h34m3s) 
CPU  0 inst:  227000000 cyc:  342186268 now IPC :0.26529: AVG IPC :0.65945: L2-Pf-HR :0.52305: L2-HR :0.69003: (Sim:0h34m16s) 
CPU  0 inst:  228000000 cyc:  345955921 now IPC :0.26528: AVG IPC :0.65515: L2-Pf-HR :0.52118: L2-HR :0.68882: (Sim:0h34m28s) 
CPU  0 inst:  229000001 cyc:  349718049 now IPC :0.26581: AVG IPC :0.65094: L2-Pf-HR :0.51931: L2-HR :0.68761: (Sim:0h34m38s) 
CPU  0 inst:  230000003 cyc:  353482652 now IPC :0.26563: AVG IPC :0.64683: L2-Pf-HR :0.51746: L2-HR :0.68642: (Sim:0h34m48s) 
CPU  0 inst:  231000003 cyc:  357247212 now IPC :0.26564: AVG IPC :0.64280: L2-Pf-HR :0.51562: L2-HR :0.68523: (Sim:0h34m58s) 
CPU  0 inst:  232000000 cyc:  361011613 now IPC :0.26565: AVG IPC :0.63886: L2-Pf-HR :0.51379: L2-HR :0.68405: (Sim:0h35m9s) 
CPU  0 inst:  233000001 cyc:  362229280 now IPC :0.82124: AVG IPC :0.63947: L2-Pf-HR :0.51338: L2-HR :0.68331: (Sim:0h35m15s) 
CPU  0 inst:  234000004 cyc:  362842142 now IPC :1.63169: AVG IPC :0.64115: L2-Pf-HR :0.51473: L2-HR :0.68392: (Sim:0h35m20s) 
CPU  0 inst:  235000004 cyc:  363450939 now IPC :1.64258: AVG IPC :0.64284: L2-Pf-HR :0.51541: L2-HR :0.68437: (Sim:0h35m25s) 
CPU  0 inst:  236000002 cyc:  363982098 now IPC :1.88267: AVG IPC :0.64465: L2-Pf-HR :0.51690: L2-HR :0.68512: (Sim:0h35m30s) 
CPU  0 inst:  237000001 cyc:  364512152 now IPC :1.88660: AVG IPC :0.64646: L2-Pf-HR :0.51806: L2-HR :0.68576: (Sim:0h35m35s) 
CPU  0 inst:  238000002 cyc:  365236152 now IPC :1.38122: AVG IPC :0.64792: L2-Pf-HR :0.51893: L2-HR :0.68615: (Sim:0h35m40s) 
CPU  0 inst:  239000004 cyc:  365764954 now IPC :1.89107: AVG IPC :0.64972: L2-Pf-HR :0.51993: L2-HR :0.68670: (Sim:0h35m45s) 
CPU  0 inst:  240000000 cyc:  366453127 now IPC :1.45312: AVG IPC :0.65124: L2-Pf-HR :0.52075: L2-HR :0.68712: (Sim:0h35m50s) 
CPU  0 inst:  241000000 cyc:  366916526 now IPC :2.15797: AVG IPC :0.65314: L2-Pf-HR :0.52181: L2-HR :0.68775: (Sim:0h35m54s) 
CPU  0 inst:  242000004 cyc:  367493657 now IPC :1.73272: AVG IPC :0.65484: L2-Pf-HR :0.52319: L2-HR :0.68836: (Sim:0h35m59s) 
CPU  0 inst:  243000003 cyc:  367986342 now IPC :2.02969: AVG IPC :0.65669: L2-Pf-HR :0.52473: L2-HR :0.68919: (Sim:0h36m4s) 
CPU  0 inst:  244000003 cyc:  368608186 now IPC :1.60812: AVG IPC :0.65830: L2-Pf-HR :0.52502: L2-HR :0.68936: (Sim:0h36m8s) 
CPU  0 inst:  245000001 cyc:  369170446 now IPC :1.77853: AVG IPC :0.66001: L2-Pf-HR :0.52623: L2-HR :0.68993: (Sim:0h36m13s) 
CPU  0 inst:  246000000 cyc:  369735778 now IPC :1.76887: AVG IPC :0.66171: L2-Pf-HR :0.52684: L2-HR :0.69034: (Sim:0h36m18s) 
CPU  0 inst:  247000001 cyc:  370250861 now IPC :1.94144: AVG IPC :0.66350: L2-Pf-HR :0.52822: L2-HR :0.69104: (Sim:0h36m23s) 
CPU  0 inst:  248000000 cyc:  370768405 now IPC :1.93220: AVG IPC :0.66527: L2-Pf-HR :0.52923: L2-HR :0.69161: (Sim:0h36m28s) 
CPU  0 inst:  249000004 cyc:  371399219 now IPC :1.58526: AVG IPC :0.66684: L2-Pf-HR :0.53004: L2-HR :0.69199: (Sim:0h36m32s) 
CPU  0 inst:  250000002 cyc:  371902640 now IPC :1.98641: AVG IPC :0.66863: L2-Pf-HR :0.53084: L2-HR :0.69243: (Sim:0h36m37s) 
CPU  0 inst:  251000002 cyc:  372542191 now IPC :1.56360: AVG IPC :0.67017: L2-Pf-HR :0.53168: L2-HR :0.69285: (Sim:0h36m42s) 
CPU  0 inst:  252000004 cyc:  373005669 now IPC :2.15760: AVG IPC :0.67202: L2-Pf-HR :0.53266: L2-HR :0.69344: (Sim:0h36m46s) 
CPU  0 inst:  253000005 cyc:  373566774 now IPC :1.78220: AVG IPC :0.67369: L2-Pf-HR :0.53384: L2-HR :0.69399: (Sim:0h36m51s) 
CPU  0 inst:  254000003 cyc:  374059764 now IPC :2.02843: AVG IPC :0.67548: L2-Pf-HR :0.53526: L2-HR :0.69475: (Sim:0h36m56s) 
CPU  0 inst:  255000004 cyc:  374679959 now IPC :1.61240: AVG IPC :0.67704: L2-Pf-HR :0.53558: L2-HR :0.69493: (Sim:0h37m1s) 
CPU  0 inst:  256000000 cyc:  375240025 now IPC :1.78550: AVG IPC :0.67870: L2-Pf-HR :0.53672: L2-HR :0.69545: (Sim:0h37m5s) 
CPU  0 inst:  257000001 cyc:  375807176 now IPC :1.76320: AVG IPC :0.68034: L2-Pf-HR :0.53722: L2-HR :0.69581: (Sim:0h37m10s) 
CPU  0 inst:  258000003 cyc:  376325452 now IPC :1.92948: AVG IPC :0.68206: L2-Pf-HR :0.53849: L2-HR :0.69645: (Sim:0h37m15s) 
CPU  0 inst:  259000002 cyc:  376835972 now IPC :1.95879: AVG IPC :0.68380: L2-Pf-HR :0.53939: L2-HR :0.69697: (Sim:0h37m19s) 
CPU  0 inst:  260000001 cyc:  377455351 now IPC :1.61452: AVG IPC :0.68533: L2-Pf-HR :0.54013: L2-HR :0.69733: (Sim:0h37m24s) 
CPU  0 inst:  261000002 cyc:  377960087 now IPC :1.98124: AVG IPC :0.68706: L2-Pf-HR :0.54088: L2-HR :0.69773: (Sim:0h37m29s) 
CPU  0 inst:  262000000 cyc:  378601810 now IPC :1.55830: AVG IPC :0.68855: L2-Pf-HR :0.54158: L2-HR :0.69810: (Sim:0h37m34s) 
CPU  0 inst:  263000002 cyc:  379066724 now IPC :2.15094: AVG IPC :0.69034: L2-Pf-HR :0.54252: L2-HR :0.69865: (Sim:0h37m38s) 
CPU  0 inst:  264000000 cyc:  379619735 now IPC :1.80828: AVG IPC :0.69198: L2-Pf-HR :0.54360: L2-HR :0.69916: (Sim:0h37m43s) 
CPU  0 inst:  265000000 cyc:  380121359 now IPC :1.99353: AVG IPC :0.69370: L2-Pf-HR :0.54489: L2-HR :0.69986: (Sim:0h37m47s) 
CPU  0 inst:  266000001 cyc:  380734702 now IPC :1.63041: AVG IPC :0.69521: L2-Pf-HR :0.54514: L2-HR :0.70001: (Sim:0h37m52s) 
CPU  0 inst:  267000002 cyc:  381288998 now IPC :1.80409: AVG IPC :0.69683: L2-Pf-HR :0.54615: L2-HR :0.70050: (Sim:0h37m56s) 
CPU  0 inst:  268000001 cyc:  381856491 now IPC :1.76213: AVG IPC :0.69842: L2-Pf-HR :0.54659: L2-HR :0.70081: (Sim:0h38m1s) 
CPU  0 inst:  269000001 cyc:  382368559 now IPC :1.95287: AVG IPC :0.70010: L2-Pf-HR :0.54775: L2-HR :0.70142: (Sim:0h38m6s) 
CPU  0 inst:  270000004 cyc:  382880088 now IPC :1.95493: AVG IPC :0.70178: L2-Pf-HR :0.54859: L2-HR :0.70188: (Sim:0h38m10s) 
CPU  0 inst:  271000005 cyc:  383506189 now IPC :1.59719: AVG IPC :0.70325: L2-Pf-HR :0.54929: L2-HR :0.70224: (Sim:0h38m15s) 
CPU  0 inst:  272000000 cyc:  384014943 now IPC :1.96558: AVG IPC :0.70492: L2-Pf-HR :0.54997: L2-HR :0.70261: (Sim:0h38m20s) 
CPU  0 inst:  273000002 cyc:  384624836 now IPC :1.63964: AVG IPC :0.70641: L2-Pf-HR :0.55086: L2-HR :0.70303: (Sim:0h38m24s) 
CPU  0 inst:  274000002 cyc:  385131668 now IPC :1.97304: AVG IPC :0.70808: L2-Pf-HR :0.55147: L2-HR :0.70344: (Sim:0h38m29s) 
CPU  0 inst:  275000000 cyc:  385645106 now IPC :1.94765: AVG IPC :0.70973: L2-Pf-HR :0.55275: L2-HR :0.70408: (Sim:0h38m34s) 
CPU  0 inst:  276000004 cyc:  386166965 now IPC :1.91623: AVG IPC :0.71137: L2-Pf-HR :0.55362: L2-HR :0.70459: (Sim:0h38m39s) 
CPU  0 inst:  277000004 cyc:  386803539 now IPC :1.57091: AVG IPC :0.71279: L2-Pf-HR :0.55394: L2-HR :0.70473: (Sim:0h38m44s) 
CPU  0 inst:  278000000 cyc:  387358070 now IPC :1.80332: AVG IPC :0.71435: L2-Pf-HR :0.55488: L2-HR :0.70518: (Sim:0h38m48s) 
CPU  0 inst:  279000001 cyc:  387930770 now IPC :1.74612: AVG IPC :0.71588: L2-Pf-HR :0.55531: L2-HR :0.70546: (Sim:0h38m53s) 
CPU  0 inst:  280000000 cyc:  388414037 now IPC :2.06925: AVG IPC :0.71757: L2-Pf-HR :0.55650: L2-HR :0.70609: (Sim:0h38m58s) 
CPU  0 inst:  281000005 cyc:  388960194 now IPC :1.83098: AVG IPC :0.71914: L2-Pf-HR :0.55711: L2-HR :0.70646: (Sim:0h39m3s) 
CPU  0 inst:  282000001 cyc:  389512651 now IPC :1.81009: AVG IPC :0.72069: L2-Pf-HR :0.55816: L2-HR :0.70703: (Sim:0h39m7s) 
CPU  0 inst:  283000002 cyc:  390104661 now IPC :1.68916: AVG IPC :0.72216: L2-Pf-HR :0.55841: L2-HR :0.70716: (Sim:0h39m13s) 
CPU  0 inst:  284000003 cyc:  390664226 now IPC :1.78710: AVG IPC :0.72369: L2-Pf-HR :0.55948: L2-HR :0.70766: (Sim:0h39m17s) 
CPU  0 inst:  285000001 cyc:  391216910 now IPC :1.80935: AVG IPC :0.72523: L2-Pf-HR :0.55977: L2-HR :0.70793: (Sim:0h39m22s) 
CPU  0 inst:  286000002 cyc:  391721174 now IPC :1.98309: AVG IPC :0.72685: L2-Pf-HR :0.56087: L2-HR :0.70850: (Sim:0h39m27s) 
CPU  0 inst:  287000000 cyc:  392239438 now IPC :1.92951: AVG IPC :0.72844: L2-Pf-HR :0.56166: L2-HR :0.70895: (Sim:0h39m31s) 
CPU  0 inst:  288000000 cyc:  392880645 now IPC :1.55956: AVG IPC :0.72980: L2-Pf-HR :0.56208: L2-HR :0.70912: (Sim:0h39m36s) 
CPU  0 inst:  289000003 cyc:  393393343 now IPC :1.95047: AVG IPC :0.73140: L2-Pf-HR :0.56303: L2-HR :0.70961: (Sim:0h39m41s) 
CPU  0 inst:  290000002 cyc:  394011437 now IPC :1.61788: AVG IPC :0.73279: L2-Pf-HR :0.56332: L2-HR :0.70980: (Sim:0h39m46s) 
CPU  0 inst:  291000000 cyc:  394486296 now IPC :2.10588: AVG IPC :0.73445: L2-Pf-HR :0.56429: L2-HR :0.71036: (Sim:0h39m51s) 
CPU  0 inst:  292000002 cyc:  395046314 now IPC :1.78566: AVG IPC :0.73594: L2-Pf-HR :0.56504: L2-HR :0.71073: (Sim:0h39m56s) 
CPU  0 inst:  293000000 cyc:  395538788 now IPC :2.03056: AVG IPC :0.73756: L2-Pf-HR :0.56621: L2-HR :0.71137: (Sim:0h40m0s) 
CPU  0 inst:  294000003 cyc:  396171257 now IPC :1.58111: AVG IPC :0.73891: L2-Pf-HR :0.56626: L2-HR :0.71141: (Sim:0h40m5s) 
CPU  0 inst:  295000002 cyc:  396733006 now IPC :1.78015: AVG IPC :0.74039: L2-Pf-HR :0.56716: L2-HR :0.71183: (Sim:0h40m10s) 
CPU  0 inst:  296000000 cyc:  397291391 now IPC :1.79088: AVG IPC :0.74187: L2-Pf-HR :0.56748: L2-HR :0.71210: (Sim:0h40m15s) 
CPU  0 inst:  297000003 cyc:  397805824 now IPC :1.94389: AVG IPC :0.74343: L2-Pf-HR :0.56851: L2-HR :0.71263: (Sim:0h40m19s) 
CPU  0 inst:  298000005 cyc:  398322326 now IPC :1.93610: AVG IPC :0.74498: L2-Pf-HR :0.56921: L2-HR :0.71304: (Sim:0h40m24s) 
CPU  0 inst:  299000003 cyc:  398960822 now IPC :1.56618: AVG IPC :0.74629: L2-Pf-HR :0.56963: L2-HR :0.71322: (Sim:0h40m29s) 
CPU  0 inst:  300000003 cyc:  399474257 now IPC :1.94767: AVG IPC :0.74784: L2-Pf-HR :0.57040: L2-HR :0.71362: (Sim:0h40m34s) 
CPU  0 inst:  301000003 cyc:  400102221 now IPC :1.59245: AVG IPC :0.74917: L2-Pf-HR :0.57075: L2-HR :0.71384: (Sim:0h40m39s) 
CPU  0 inst:  302000004 cyc:  400566065 now IPC :2.15590: AVG IPC :0.75080: L2-Pf-HR :0.57154: L2-HR :0.71431: (Sim:0h40m43s) 
CPU  0 inst:  303000001 cyc:  401124998 now IPC :1.78912: AVG IPC :0.75225: L2-Pf-HR :0.57234: L2-HR :0.71470: (Sim:0h40m48s) 
CPU  0 inst:  304000000 cyc:  401616343 now IPC :2.03523: AVG IPC :0.75383: L2-Pf-HR :0.57342: L2-HR :0.71530: (Sim:0h40m53s) 
CPU  0 inst:  305000005 cyc:  402237771 now IPC :1.60920: AVG IPC :0.75515: L2-Pf-HR :0.57347: L2-HR :0.71534: (Sim:0h40m58s) 
CPU  0 inst:  306000002 cyc:  402807773 now IPC :1.75437: AVG IPC :0.75657: L2-Pf-HR :0.57429: L2-HR :0.71574: (Sim:0h41m2s) 
CPU  0 inst:  307000005 cyc:  403367209 now IPC :1.78752: AVG IPC :0.75800: L2-Pf-HR :0.57456: L2-HR :0.71597: (Sim:0h41m7s) 
CPU  0 inst:  308000003 cyc:  403882806 now IPC :1.93950: AVG IPC :0.75952: L2-Pf-HR :0.57551: L2-HR :0.71646: (Sim:0h41m12s) 
CPU  0 inst:  309000002 cyc:  404400137 now IPC :1.93300: AVG IPC :0.76102: L2-Pf-HR :0.57615: L2-HR :0.71684: (Sim:0h41m16s) 
CPU  0 inst:  310000003 cyc:  405028553 now IPC :1.59130: AVG IPC :0.76231: L2-Pf-HR :0.57657: L2-HR :0.71702: (Sim:0h41m21s) 
CPU  0 inst:  311000004 cyc:  405533730 now IPC :1.97951: AVG IPC :0.76383: L2-Pf-HR :0.57711: L2-HR :0.71734: (Sim:0h41m26s) 
CPU  0 inst:  312000000 cyc:  406166868 now IPC :1.57943: AVG IPC :0.76511: L2-Pf-HR :0.57757: L2-HR :0.71758: (Sim:0h41m31s) 
CPU  0 inst:  313000001 cyc:  406629955 now IPC :2.15942: AVG IPC :0.76670: L2-Pf-HR :0.57827: L2-HR :0.71801: (Sim:0h41m35s) 
CPU  0 inst:  314000003 cyc:  407188726 now IPC :1.78965: AVG IPC :0.76810: L2-Pf-HR :0.57903: L2-HR :0.71838: (Sim:0h41m40s) 
CPU  0 inst:  315000000 cyc:  407680528 now IPC :2.03333: AVG IPC :0.76963: L2-Pf-HR :0.58004: L2-HR :0.71894: (Sim:0h41m45s) 
CPU  0 inst:  316000002 cyc:  408299119 now IPC :1.61658: AVG IPC :0.77092: L2-Pf-HR :0.58011: L2-HR :0.71899: (Sim:0h41m50s) 
CPU  0 inst:  317000005 cyc:  408860273 now IPC :1.78205: AVG IPC :0.77231: L2-Pf-HR :0.58088: L2-HR :0.71936: (Sim:0h41m54s) 
CPU  0 inst:  318000000 cyc:  409426161 now IPC :1.76713: AVG IPC :0.77369: L2-Pf-HR :0.58117: L2-HR :0.71958: (Sim:0h41m59s) 
CPU  0 inst:  319000002 cyc:  409940296 now IPC :1.94502: AVG IPC :0.77516: L2-Pf-HR :0.58205: L2-HR :0.72004: (Sim:0h42m3s) 
CPU  0 inst:  320000000 cyc:  410457931 now IPC :1.93186: AVG IPC :0.77663: L2-Pf-HR :0.58269: L2-HR :0.72040: (Sim:0h42m8s) 
CPU  0 inst:  321000004 cyc:  411083015 now IPC :1.59979: AVG IPC :0.77788: L2-Pf-HR :0.58310: L2-HR :0.72060: (Sim:0h42m13s) 
CPU  0 inst:  322000004 cyc:  411595040 now IPC :1.95303: AVG IPC :0.77935: L2-Pf-HR :0.58364: L2-HR :0.72089: (Sim:0h42m17s) 
CPU  0 inst:  323000001 cyc:  412237053 now IPC :1.55760: AVG IPC :0.78056: L2-Pf-HR :0.58405: L2-HR :0.72110: (Sim:0h42m22s) 
CPU  0 inst:  324000005 cyc:  412699674 now IPC :2.16161: AVG IPC :0.78211: L2-Pf-HR :0.58470: L2-HR :0.72151: (Sim:0h42m26s) 
CPU  0 inst:  325000005 cyc:  413264695 now IPC :1.76985: AVG IPC :0.78347: L2-Pf-HR :0.58539: L2-HR :0.72184: (Sim:0h42m31s) 
CPU  0 inst:  326000002 cyc:  413756196 now IPC :2.03458: AVG IPC :0.78496: L2-Pf-HR :0.58632: L2-HR :0.72237: (Sim:0h42m35s) 
CPU  0 inst:  327000000 cyc:  414378002 now IPC :1.60822: AVG IPC :0.78619: L2-Pf-HR :0.58639: L2-HR :0.72241: (Sim:0h42m40s) 
CPU  0 inst:  328000000 cyc:  414942259 now IPC :1.77224: AVG IPC :0.78754: L2-Pf-HR :0.58709: L2-HR :0.72275: (Sim:0h42m45s) 
CPU  0 inst:  329000003 cyc:  415510404 now IPC :1.76012: AVG IPC :0.78887: L2-Pf-HR :0.58734: L2-HR :0.72296: (Sim:0h42m50s) 
CPU  0 inst:  330000003 cyc:  416026640 now IPC :1.93710: AVG IPC :0.79030: L2-Pf-HR :0.58817: L2-HR :0.72340: (Sim:0h42m55s) 
CPU  0 inst:  331000000 cyc:  416538908 now IPC :1.95210: AVG IPC :0.79173: L2-Pf-HR :0.58871: L2-HR :0.72372: (Sim:0h42m59s) 
CPU  0 inst:  332000005 cyc:  417157598 now IPC :1.61633: AVG IPC :0.79296: L2-Pf-HR :0.58911: L2-HR :0.72392: (Sim:0h43m5s) 
CPU  0 inst:  333000000 cyc:  417667671 now IPC :1.96049: AVG IPC :0.79439: L2-Pf-HR :0.58958: L2-HR :0.72419: (Sim:0h43m9s) 
CPU  0 inst:  334000000 cyc:  418290195 now IPC :1.60636: AVG IPC :0.79560: L2-Pf-HR :0.59004: L2-HR :0.72443: (Sim:0h43m14s) 
CPU  0 inst:  335000000 cyc:  418775660 now IPC :2.05988: AVG IPC :0.79707: L2-Pf-HR :0.59057: L2-HR :0.72477: (Sim:0h43m19s) 
CPU  0 inst:  336000000 cyc:  419303092 now IPC :1.89598: AVG IPC :0.79845: L2-Pf-HR :0.59143: L2-HR :0.72520: (Sim:0h43m23s) 
CPU  0 inst:  337000002 cyc:  419814904 now IPC :1.95385: AVG IPC :0.79987: L2-Pf-HR :0.59213: L2-HR :0.72561: (Sim:0h43m28s) 
CPU  0 inst:  338000002 cyc:  420449484 now IPC :1.57585: AVG IPC :0.80104: L2-Pf-HR :0.59219: L2-HR :0.72563: (Sim:0h43m33s) 
CPU  0 inst:  339000000 cyc:  421005341 now IPC :1.79902: AVG IPC :0.80236: L2-Pf-HR :0.59286: L2-HR :0.72596: (Sim:0h43m38s) 
CPU  0 inst:  340000005 cyc:  421571805 now IPC :1.76535: AVG IPC :0.80366: L2-Pf-HR :0.59306: L2-HR :0.72612: (Sim:0h43m43s) 
CPU  0 inst:  341000003 cyc:  422054695 now IPC :2.07086: AVG IPC :0.80511: L2-Pf-HR :0.59400: L2-HR :0.72660: (Sim:0h43m48s) 
CPU  0 inst:  342000001 cyc:  422595522 now IPC :1.84902: AVG IPC :0.80645: L2-Pf-HR :0.59434: L2-HR :0.72683: (Sim:0h43m52s) 
CPU  0 inst:  343000000 cyc:  423170031 now IPC :1.74062: AVG IPC :0.80772: L2-Pf-HR :0.59493: L2-HR :0.72718: (Sim:0h43m57s) 
CPU  0 inst:  344000000 cyc:  423723579 now IPC :1.80653: AVG IPC :0.80903: L2-Pf-HR :0.59519: L2-HR :0.72729: (Sim:0h44m2s) 
CPU  0 inst:  345000000 cyc:  424295602 now IPC :1.74818: AVG IPC :0.81030: L2-Pf-HR :0.59593: L2-HR :0.72763: (Sim:0h44m7s) 
CPU  0 inst:  346000004 cyc:  424834439 now IPC :1.85586: AVG IPC :0.81163: L2-Pf-HR :0.59611: L2-HR :0.72782: (Sim:0h44m12s) 
CPU  0 inst:  347000000 cyc:  425345208 now IPC :1.95782: AVG IPC :0.81301: L2-Pf-HR :0.59693: L2-HR :0.72825: (Sim:0h44m16s) 
CPU  0 inst:  348000002 cyc:  425864225 now IPC :1.92672: AVG IPC :0.81437: L2-Pf-HR :0.59748: L2-HR :0.72858: (Sim:0h44m21s) 
CPU  0 inst:  349000003 cyc:  426511187 now IPC :1.54569: AVG IPC :0.81548: L2-Pf-HR :0.59765: L2-HR :0.72864: (Sim:0h44m26s) 
CPU  0 inst:  350000004 cyc:  427023831 now IPC :1.95067: AVG IPC :0.81684: L2-Pf-HR :0.59842: L2-HR :0.72901: (Sim:0h44m30s) 
CPU  0 inst:  351000002 cyc:  427632699 now IPC :1.64239: AVG IPC :0.81802: L2-Pf-HR :0.59845: L2-HR :0.72909: (Sim:0h44m35s) 
CPU  0 inst:  352000000 cyc:  428110139 now IPC :2.09450: AVG IPC :0.81945: L2-Pf-HR :0.59922: L2-HR :0.72953: (Sim:0h44m40s) 
CPU  0 inst:  353000001 cyc:  428663699 now IPC :1.80649: AVG IPC :0.82073: L2-Pf-HR :0.59963: L2-HR :0.72977: (Sim:0h44m45s) 
CPU  0 inst:  354000000 cyc:  429159357 now IPC :2.01752: AVG IPC :0.82211: L2-Pf-HR :0.60054: L2-HR :0.73027: (Sim:0h44m49s) 
CPU  0 inst:  355000004 cyc:  429795484 now IPC :1.57202: AVG IPC :0.82323: L2-Pf-HR :0.60041: L2-HR :0.73022: (Sim:0h44m55s) 
CPU  0 inst:  356000002 cyc:  430357426 now IPC :1.77954: AVG IPC :0.82448: L2-Pf-HR :0.60106: L2-HR :0.73053: (Sim:0h45m0s) 
CPU  0 inst:  357000000 cyc:  430915621 now IPC :1.79149: AVG IPC :0.82573: L2-Pf-HR :0.60126: L2-HR :0.73071: (Sim:0h45m5s) 
CPU  0 inst:  358000002 cyc:  431431360 now IPC :1.93897: AVG IPC :0.82707: L2-Pf-HR :0.60201: L2-HR :0.73111: (Sim:0h45m9s) 
CPU  0 inst:  359000000 cyc:  431949630 now IPC :1.92949: AVG IPC :0.82839: L2-Pf-HR :0.60250: L2-HR :0.73140: (Sim:0h45m14s) 
CPU  0 inst:  360000000 cyc:  432585603 now IPC :1.57239: AVG IPC :0.82949: L2-Pf-HR :0.60272: L2-HR :0.73149: (Sim:0h45m19s) 
CPU  0 inst:  361000003 cyc:  433095165 now IPC :1.96248: AVG IPC :0.83082: L2-Pf-HR :0.60333: L2-HR :0.73181: (Sim:0h45m24s) 
CPU  0 inst:  362000003 cyc:  433712860 now IPC :1.61892: AVG IPC :0.83195: L2-Pf-HR :0.60350: L2-HR :0.73191: (Sim:0h45m29s) 
CPU  0 inst:  363000005 cyc:  434181464 now IPC :2.13400: AVG IPC :0.83336: L2-Pf-HR :0.60409: L2-HR :0.73229: (Sim:0h45m33s) 
CPU  0 inst:  364000002 cyc:  434741258 now IPC :1.78637: AVG IPC :0.83459: L2-Pf-HR :0.60458: L2-HR :0.73254: (Sim:0h45m38s) 
CPU  0 inst:  365000000 cyc:  435233719 now IPC :2.03061: AVG IPC :0.83594: L2-Pf-HR :0.60538: L2-HR :0.73300: (Sim:0h45m43s) 
CPU  0 inst:  366000002 cyc:  435855223 now IPC :1.60900: AVG IPC :0.83705: L2-Pf-HR :0.60535: L2-HR :0.73298: (Sim:0h45m48s) 
CPU  0 inst:  367000003 cyc:  436417005 now IPC :1.78005: AVG IPC :0.83827: L2-Pf-HR :0.60597: L2-HR :0.73327: (Sim:0h45m52s) 
CPU  0 inst:  368000000 cyc:  436981641 now IPC :1.77105: AVG IPC :0.83947: L2-Pf-HR :0.60614: L2-HR :0.73343: (Sim:0h45m57s) 
CPU  0 inst:  369000003 cyc:  437499183 now IPC :1.93222: AVG IPC :0.84077: L2-Pf-HR :0.60685: L2-HR :0.73380: (Sim:0h46m2s) 
CPU  0 inst:  370000000 cyc:  438019204 now IPC :1.92299: AVG IPC :0.84206: L2-Pf-HR :0.60731: L2-HR :0.73407: (Sim:0h46m7s) 
CPU  0 inst:  371000000 cyc:  438646542 now IPC :1.59404: AVG IPC :0.84314: L2-Pf-HR :0.60750: L2-HR :0.73416: (Sim:0h46m12s) 
CPU  0 inst:  372000000 cyc:  439150770 now IPC :1.98323: AVG IPC :0.84445: L2-Pf-HR :0.60797: L2-HR :0.73443: (Sim:0h46m17s) 
CPU  0 inst:  373000005 cyc:  439777217 now IPC :1.59631: AVG IPC :0.84552: L2-Pf-HR :0.60819: L2-HR :0.73455: (Sim:0h46m22s) 
CPU  0 inst:  374000003 cyc:  440240536 now IPC :2.15834: AVG IPC :0.84691: L2-Pf-HR :0.60873: L2-HR :0.73489: (Sim:0h46m26s) 
CPU  0 inst:  375000003 cyc:  440800956 now IPC :1.78438: AVG IPC :0.84810: L2-Pf-HR :0.60925: L2-HR :0.73514: (Sim:0h46m31s) 
CPU  0 inst:  376000000 cyc:  441293079 now IPC :2.03201: AVG IPC :0.84942: L2-Pf-HR :0.61000: L2-HR :0.73557: (Sim:0h46m35s) 
CPU  0 inst:  377000002 cyc:  441916373 now IPC :1.60438: AVG IPC :0.85049: L2-Pf-HR :0.60996: L2-HR :0.73556: (Sim:0h46m40s) 
CPU  0 inst:  378000005 cyc:  442480776 now IPC :1.77179: AVG IPC :0.85167: L2-Pf-HR :0.61052: L2-HR :0.73584: (Sim:0h46m45s) 
CPU  0 inst:  379000000 cyc:  443048400 now IPC :1.76172: AVG IPC :0.85284: L2-Pf-HR :0.61067: L2-HR :0.73598: (Sim:0h46m50s) 
CPU  0 inst:  380000000 cyc:  443563076 now IPC :1.94297: AVG IPC :0.85410: L2-Pf-HR :0.61132: L2-HR :0.73633: (Sim:0h46m55s) 
CPU  0 inst:  381000002 cyc:  444083464 now IPC :1.92165: AVG IPC :0.85536: L2-Pf-HR :0.61173: L2-HR :0.73658: (Sim:0h47m0s) 
CPU  0 inst:  382000000 cyc:  444705411 now IPC :1.60785: AVG IPC :0.85641: L2-Pf-HR :0.61196: L2-HR :0.73668: (Sim:0h47m5s) 
CPU  0 inst:  383000001 cyc:  445210418 now IPC :1.98017: AVG IPC :0.85769: L2-Pf-HR :0.61236: L2-HR :0.73690: (Sim:0h47m9s) 
CPU  0 inst:  384000000 cyc:  445844058 now IPC :1.57818: AVG IPC :0.85872: L2-Pf-HR :0.61259: L2-HR :0.73702: (Sim:0h47m14s) 
CPU  0 inst:  385000004 cyc:  446307971 now IPC :2.15559: AVG IPC :0.86007: L2-Pf-HR :0.61311: L2-HR :0.73735: (Sim:0h47m18s) 
CPU  0 inst:  386000001 cyc:  446869243 now IPC :1.78166: AVG IPC :0.86123: L2-Pf-HR :0.61359: L2-HR :0.73758: (Sim:0h47m23s) 
CPU  0 inst:  387000002 cyc:  447362361 now IPC :2.02791: AVG IPC :0.86252: L2-Pf-HR :0.61430: L2-HR :0.73799: (Sim:0h47m28s) 
CPU  0 inst:  388000000 cyc:  447976757 now IPC :1.62761: AVG IPC :0.86357: L2-Pf-HR :0.61429: L2-HR :0.73799: (Sim:0h47m32s) 
CPU  0 inst:  389000000 cyc:  448537233 now IPC :1.78420: AVG IPC :0.86472: L2-Pf-HR :0.61484: L2-HR :0.73825: (Sim:0h47m37s) 
CPU  0 inst:  390000003 cyc:  449104451 now IPC :1.76300: AVG IPC :0.86586: L2-Pf-HR :0.61495: L2-HR :0.73837: (Sim:0h47m42s) 
CPU  0 inst:  391000002 cyc:  449615448 now IPC :1.95696: AVG IPC :0.86710: L2-Pf-HR :0.61558: L2-HR :0.73872: (Sim:0h47m46s) 
CPU  0 inst:  392000000 cyc:  450127584 now IPC :1.95260: AVG IPC :0.86834: L2-Pf-HR :0.61595: L2-HR :0.73895: (Sim:0h47m51s) 
CPU  0 inst:  393000004 cyc:  450746857 now IPC :1.61480: AVG IPC :0.86937: L2-Pf-HR :0.61617: L2-HR :0.73907: (Sim:0h47m56s) 
CPU  0 inst:  394000004 cyc:  451251745 now IPC :1.98064: AVG IPC :0.87061: L2-Pf-HR :0.61655: L2-HR :0.73927: (Sim:0h48m0s) 
CPU  0 inst:  395000000 cyc:  451897822 now IPC :1.54780: AVG IPC :0.87158: L2-Pf-HR :0.61675: L2-HR :0.73938: (Sim:0h48m5s) 
CPU  0 inst:  396000005 cyc:  452365125 now IPC :2.13995: AVG IPC :0.87290: L2-Pf-HR :0.61724: L2-HR :0.73969: (Sim:0h48m10s) 
CPU  0 inst:  397000005 cyc:  452909798 now IPC :1.83596: AVG IPC :0.87406: L2-Pf-HR :0.61779: L2-HR :0.73996: (Sim:0h48m14s) 
CPU  0 inst:  398000003 cyc:  453410595 now IPC :1.99681: AVG IPC :0.87530: L2-Pf-HR :0.61844: L2-HR :0.74033: (Sim:0h48m19s) 
CPU  0 inst:  399000004 cyc:  454029141 now IPC :1.61670: AVG IPC :0.87631: L2-Pf-HR :0.61837: L2-HR :0.74030: (Sim:0h48m24s) 
CPU  0 inst:  400000000 cyc:  454579650 now IPC :1.81649: AVG IPC :0.87745: L2-Pf-HR :0.61886: L2-HR :0.74055: (Sim:0h48m28s) 
CPU  0 inst:  401000004 cyc:  455152197 now IPC :1.74659: AVG IPC :0.87855: L2-Pf-HR :0.61897: L2-HR :0.74066: (Sim:0h48m33s) 
CPU  0 inst:  402000002 cyc:  455664694 now IPC :1.95123: AVG IPC :0.87976: L2-Pf-HR :0.61960: L2-HR :0.74099: (Sim:0h48m38s) 
CPU  0 inst:  403000003 cyc:  456185551 now IPC :1.91991: AVG IPC :0.88095: L2-Pf-HR :0.61993: L2-HR :0.74120: (Sim:0h48m42s) 
CPU  0 inst:  404000003 cyc:  456786656 now IPC :1.66360: AVG IPC :0.88198: L2-Pf-HR :0.62021: L2-HR :0.74136: (Sim:0h48m47s) 
CPU  0 inst:  405000000 cyc:  457308404 now IPC :1.91663: AVG IPC :0.88316: L2-Pf-HR :0.62052: L2-HR :0.74152: (Sim:0h48m52s) 
CPU  0 inst:  406000004 cyc:  457899212 now IPC :1.69260: AVG IPC :0.88421: L2-Pf-HR :0.62097: L2-HR :0.74173: (Sim:0h48m56s) 
Finished CPU 0 instr: 404000003 cyc: 456904983 AVG IPC: 0.88421 (Sim time: 0h48m56s)

ChampSim completed all CPUs

[ROI Statistics]
Core_0_instructions 404000003
Core_0_cycles 456904983
Core_0_IPC 0.88421

Core_0_branch_prediction_accuracy 98.90148
Core_0_branch_MPKI 0.32729
Core_0_average_ROB_occupancy_at_mispredict 453.13140

Core_0_L1D_total_access 229366612
Core_0_L1D_total_hit 219740945 L1D_total_Hit Ratio: 0.95803
Core_0_L1D_total_miss 9625667
Core_0_L1D_loads 86642988
Core_0_L1D_load_hit 81086333 L1D_load_Hit Ratio: 0.93587
Core_0_L1D_load_miss 5556655
Core_0_L1D_RFOs 11256984
Core_0_L1D_RFO_hit 10710503 L1D_RFO_Hit Ratio: 0.95145
Core_0_L1D_RFO_miss 546481
Core_0_L1D_prefetches 131466640
Core_0_L1D_prefetch_hit 127944109 L1D_prefetch_Hit Ratio: 0.97321
Core_0_L1D_prefetch_miss 3522531
Core_0_L1D_writebacks 0
Core_0_L1D_writeback_hit 0 L1D_writeback_Hit Ratio: -nan
Core_0_L1D_writeback_miss 0
Core_0_L1D_prefetch_requested 264757842
Core_0_L1D_prefetch_issued 159506432
Core_0_L1D_prefetch_useful 2492231 L1D_Useful Ratio: 0.01562
Core_0_L1D_prefetch_useless 1049332
Core_0_L1D_prefetch_late 978662
Core_0_L1D_average_miss_latency 27273059.91371

Core_0_L1I_total_access 56388159
Core_0_L1I_total_hit 56383290 L1I_total_Hit Ratio: 0.99991
Core_0_L1I_total_miss 4869
Core_0_L1I_loads 56388159
Core_0_L1I_load_hit 56383290 L1I_load_Hit Ratio: 0.99991
Core_0_L1I_load_miss 4869
Core_0_L1I_RFOs 0
Core_0_L1I_RFO_hit 0 L1I_RFO_Hit Ratio: -nan
Core_0_L1I_RFO_miss 0
Core_0_L1I_prefetches 0
Core_0_L1I_prefetch_hit 0 L1I_prefetch_Hit Ratio: -nan
Core_0_L1I_prefetch_miss 0
Core_0_L1I_writebacks 0
Core_0_L1I_writeback_hit 0 L1I_writeback_Hit Ratio: -nan
Core_0_L1I_writeback_miss 0
Core_0_L1I_prefetch_requested 0
Core_0_L1I_prefetch_issued 0
Core_0_L1I_prefetch_useful 0 L1I_Useful Ratio: -nan
Core_0_L1I_prefetch_useless 0
Core_0_L1I_prefetch_late 0
Core_0_L1I_average_miss_latency 290.21647

Core_0_L2C_total_access 12483654
Core_0_L2C_total_hit 9259538 L2C_total_Hit Ratio: 0.74173
Core_0_L2C_total_miss 3224116
Core_0_L2C_loads 4583816
Core_0_L2C_load_hit 3535471 L2C_load_Hit Ratio: 0.77129
Core_0_L2C_load_miss 1048345
Core_0_L2C_RFOs 546405
Core_0_L2C_RFO_hit 76383 L2C_RFO_Hit Ratio: 0.13979
Core_0_L2C_RFO_miss 470022
Core_0_L2C_prefetches 4500292
Core_0_L2C_prefetch_hit 2794555 L2C_prefetch_Hit Ratio: 0.62097
Core_0_L2C_prefetch_miss 1705737
Core_0_L2C_writebacks 2853141
Core_0_L2C_writeback_hit 2853129 L2C_writeback_Hit Ratio: 1.00000
Core_0_L2C_writeback_miss 12
Core_0_L2C_prefetch_requested 0
Core_0_L2C_prefetch_issued 0
Core_0_L2C_prefetch_useful 479082 L2C_Useful Ratio: inf
Core_0_L2C_prefetch_useless 1229043
Core_0_L2C_prefetch_late 0
Core_0_L2C_average_miss_latency 290.02021

Core_0_LLC_total_access 4997104
Core_0_LLC_total_hit 2040681 LLC_total_Hit Ratio: 0.40837
Core_0_LLC_total_miss 2956423
Core_0_LLC_loads 1048310
Core_0_LLC_load_hit 147574 LLC_load_Hit Ratio: 0.14077
Core_0_LLC_load_miss 900736
Core_0_LLC_RFOs 470020
Core_0_LLC_RFO_hit 2656 LLC_RFO_Hit Ratio: 0.00565
Core_0_LLC_RFO_miss 467364
Core_0_LLC_prefetches 1705734
Core_0_LLC_prefetch_hit 128632 LLC_prefetch_Hit Ratio: 0.07541
Core_0_LLC_prefetch_miss 1577102
Core_0_LLC_writebacks 1773040
Core_0_LLC_writeback_hit 1761819 LLC_writeback_Hit Ratio: 0.99367
Core_0_LLC_writeback_miss 11221
Core_0_LLC_prefetch_requested 0
Core_0_LLC_prefetch_issued 0
Core_0_LLC_prefetch_useful 66393 LLC_Useful Ratio: inf
Core_0_LLC_prefetch_useless 1496229
Core_0_LLC_prefetch_late 0
Core_0_LLC_average_miss_latency 261.32929

Core_0_major_page_fault 0
Core_0_minor_page_fault 22520

CPU 0 L1D next line prefetcher final stats
Channel_0_RQ_row_buffer_hit 1428015
Channel_0_RQ_row_buffer_miss 1517180
Channel_0_WQ_row_buffer_hit 533580
Channel_0_WQ_row_buffer_miss 1127069
Channel_0_WQ_full 1988
Channel_0_dbus_congested 2488223

avg_congested_cycle 10

EzSearch AVG IPC :0.88421: L2-Pf-HR :0.62097 : L2-HR :0.74173 Uful:inf
     > Finished combination: TraceType=770-tot Sim:404000000 Prefetcher=L2no L1=next_line
