TRACE: [32000000]_FE_[OPT-125M]_[h12]_[s256]_[d64] Warmup: 2000000 NumTraces: 32000000
L1:bingo_dpc3:L2:bingo_dpc3
*************************************************
   ChampSim Multicore Out-of-Order Simulator
   Last compiled: Oct 27 2024 02:38:10
*************************************************

trace_0 770-tot_memTraces_v3/memTraces[32000000]_FE_[OPT-125M]_[h12]_[s256]_[d64].champsim.xz
Bingo PHT WAYS: 16 and PHT_SIZE: 16384
Bingo2 PHT WAYS: 16 and PHT_SIZE: 16384
MAIN.cc ln 751 stats print skipped
CPU  0 inst:    1000000 cyc:     498620 now IPC :2.00554: AVG IPC :2.00554: L2-Pf-HR :0.82637: L2-HR :0.61043: (Sim:0h0m20s) 
CPU  0 inst:    2000004 cyc:     985911 now IPC :2.05217: AVG IPC :2.02858: L2-Pf-HR :0.78231: L2-HR :0.71690: (Sim:0h0m41s) 

Warmup complete CPU  0 instructions:    2000004 cycles:     985911 (Simulation time: 0 hr 0 min 41 sec) 

CPU  0 inst:    3000001 cyc:    1540362 now IPC :1.80358: AVG IPC :1.80358: L2-Pf-HR :0.76254: L2-HR :0.79844: (Sim:0h0m59s) 
CPU  0 inst:    4000000 cyc:    2077514 now IPC :1.86167: AVG IPC :1.83216: L2-Pf-HR :0.76442: L2-HR :0.80288: (Sim:0h1m16s) 
CPU  0 inst:    5000005 cyc:    2609785 now IPC :1.87875: AVG IPC :1.84743: L2-Pf-HR :0.76579: L2-HR :0.80627: (Sim:0h1m32s) 
CPU  0 inst:    6000004 cyc:    3152756 now IPC :1.84172: AVG IPC :1.84600: L2-Pf-HR :0.76091: L2-HR :0.80299: (Sim:0h1m49s) 
CPU  0 inst:    7000000 cyc:    3692186 now IPC :1.85380: AVG IPC :1.84756: L2-Pf-HR :0.76189: L2-HR :0.80381: (Sim:0h2m6s) 
CPU  0 inst:    8000002 cyc:    4218389 now IPC :1.90041: AVG IPC :1.85616: L2-Pf-HR :0.76162: L2-HR :0.80466: (Sim:0h2m23s) 
CPU  0 inst:    9000005 cyc:    4743530 now IPC :1.90426: AVG IPC :1.86288: L2-Pf-HR :0.76333: L2-HR :0.80641: (Sim:0h2m40s) 
CPU  0 inst:   10000000 cyc:    5276181 now IPC :1.87739: AVG IPC :1.86468: L2-Pf-HR :0.76239: L2-HR :0.80587: (Sim:0h2m57s) 
CPU  0 inst:   11000001 cyc:    5801746 now IPC :1.90272: AVG IPC :1.86883: L2-Pf-HR :0.76338: L2-HR :0.80685: (Sim:0h3m14s) 
CPU  0 inst:   12000001 cyc:    6340509 now IPC :1.85610: AVG IPC :1.86755: L2-Pf-HR :0.76056: L2-HR :0.80499: (Sim:0h3m31s) 
CPU  0 inst:   13000002 cyc:    7002989 now IPC :1.50948: AVG IPC :1.82813: L2-Pf-HR :0.75544: L2-HR :0.78788: (Sim:0h3m47s) 
CPU  0 inst:   14000000 cyc:    9273739 now IPC :0.44038: AVG IPC :1.44791: L2-Pf-HR :0.76629: L2-HR :0.80512: (Sim:0h3m58s) 
CPU  0 inst:   15000000 cyc:   12240291 now IPC :0.33709: AVG IPC :1.15511: L2-Pf-HR :0.74804: L2-HR :0.79640: (Sim:0h4m10s) 
CPU  0 inst:   16000000 cyc:   15206946 now IPC :0.33708: AVG IPC :0.98446: L2-Pf-HR :0.72417: L2-HR :0.78406: (Sim:0h4m22s) 
CPU  0 inst:   17000000 cyc:   18174986 now IPC :0.33692: AVG IPC :0.87265: L2-Pf-HR :0.68986: L2-HR :0.76529: (Sim:0h4m35s) 
CPU  0 inst:   18000000 cyc:   21142922 now IPC :0.33693: AVG IPC :0.79377: L2-Pf-HR :0.65762: L2-HR :0.74718: (Sim:0h4m47s) 
CPU  0 inst:   19000000 cyc:   24110612 now IPC :0.33696: AVG IPC :0.73514: L2-Pf-HR :0.62894: L2-HR :0.73077: (Sim:0h5m0s) 
CPU  0 inst:   20000004 cyc:   25769327 now IPC :0.60288: AVG IPC :0.72629: L2-Pf-HR :0.61497: L2-HR :0.71963: (Sim:0h5m10s) 
CPU  0 inst:   21000005 cyc:   26297947 now IPC :1.89172: AVG IPC :0.75063: L2-Pf-HR :0.61185: L2-HR :0.71640: (Sim:0h5m19s) 
CPU  0 inst:   22000003 cyc:   26820764 now IPC :1.91271: AVG IPC :0.77415: L2-Pf-HR :0.60895: L2-HR :0.71365: (Sim:0h5m27s) 
CPU  0 inst:   23000000 cyc:   27340638 now IPC :1.92354: AVG IPC :0.79682: L2-Pf-HR :0.60601: L2-HR :0.71103: (Sim:0h5m35s) 
CPU  0 inst:   24000003 cyc:   27861445 now IPC :1.92010: AVG IPC :0.81859: L2-Pf-HR :0.60398: L2-HR :0.70884: (Sim:0h5m44s) 
CPU  0 inst:   25000002 cyc:   28390603 now IPC :1.88979: AVG IPC :0.83927: L2-Pf-HR :0.60068: L2-HR :0.70599: (Sim:0h5m52s) 
CPU  0 inst:   26000001 cyc:   28911455 now IPC :1.91993: AVG IPC :0.85943: L2-Pf-HR :0.59741: L2-HR :0.70317: (Sim:0h6m1s) 
CPU  0 inst:   27000002 cyc:   29432785 now IPC :1.91817: AVG IPC :0.87883: L2-Pf-HR :0.59460: L2-HR :0.70058: (Sim:0h6m9s) 
CPU  0 inst:   28000004 cyc:   29963674 now IPC :1.88364: AVG IPC :0.89724: L2-Pf-HR :0.59278: L2-HR :0.69880: (Sim:0h6m17s) 
CPU  0 inst:   29000003 cyc:   30491043 now IPC :1.89620: AVG IPC :0.91510: L2-Pf-HR :0.59004: L2-HR :0.69642: (Sim:0h6m26s) 
Finished CPU 0 instr: 27000005 cyc: 29505133 AVG IPC: 0.91510 (Sim time: 0h6m26s)

ChampSim completed all CPUs

[ROI Statistics]
Core_0_instructions 27000005
Core_0_cycles 29505133
Core_0_IPC 0.91510

Core_0_branch_prediction_accuracy 98.37822
Core_0_branch_MPKI 0.53456
Core_0_average_ROB_occupancy_at_mispredict 328.93771

Core_0_L1D_total_access 9038076
Core_0_L1D_total_hit 8591774 L1D_total_Hit Ratio: 0.95062
Core_0_L1D_total_miss 446302
Core_0_L1D_loads 7783117
Core_0_L1D_load_hit 7621214 L1D_load_Hit Ratio: 0.97920
Core_0_L1D_load_miss 161903
Core_0_L1D_RFOs 869126
Core_0_L1D_RFO_hit 865537 L1D_RFO_Hit Ratio: 0.99587
Core_0_L1D_RFO_miss 3589
Core_0_L1D_prefetches 385833
Core_0_L1D_prefetch_hit 105023 L1D_prefetch_Hit Ratio: 0.27220
Core_0_L1D_prefetch_miss 280810
Core_0_L1D_writebacks 0
Core_0_L1D_writeback_hit 0 L1D_writeback_Hit Ratio: -nan
Core_0_L1D_writeback_miss 0
Core_0_L1D_prefetch_requested 519398
Core_0_L1D_prefetch_issued 519398
Core_0_L1D_prefetch_useful 297175 L1D_Useful Ratio: 0.57215
Core_0_L1D_prefetch_useless 5965
Core_0_L1D_prefetch_late 53448
Core_0_L1D_average_miss_latency 740935.72540

Core_0_L1I_total_access 3995003
Core_0_L1I_total_hit 3993186 L1I_total_Hit Ratio: 0.99955
Core_0_L1I_total_miss 1817
Core_0_L1I_loads 3995003
Core_0_L1I_load_hit 3993186 L1I_load_Hit Ratio: 0.99955
Core_0_L1I_load_miss 1817
Core_0_L1I_RFOs 0
Core_0_L1I_RFO_hit 0 L1I_RFO_Hit Ratio: -nan
Core_0_L1I_RFO_miss 0
Core_0_L1I_prefetches 0
Core_0_L1I_prefetch_hit 0 L1I_prefetch_Hit Ratio: -nan
Core_0_L1I_prefetch_miss 0
Core_0_L1I_writebacks 0
Core_0_L1I_writeback_hit 0 L1I_writeback_Hit Ratio: -nan
Core_0_L1I_writeback_miss 0
Core_0_L1I_prefetch_requested 0
Core_0_L1I_prefetch_issued 0
Core_0_L1I_prefetch_useful 0 L1I_Useful Ratio: -nan
Core_0_L1I_prefetch_useless 0
Core_0_L1I_prefetch_late 0
Core_0_L1I_average_miss_latency 197.74023

Core_0_L2C_total_access 723145
Core_0_L2C_total_hit 503612 L2C_total_Hit Ratio: 0.69642
Core_0_L2C_total_miss 219533
Core_0_L2C_loads 111408
Core_0_L2C_load_hit 72633 L2C_load_Hit Ratio: 0.65195
Core_0_L2C_load_miss 38775
Core_0_L2C_RFOs 3500
Core_0_L2C_RFO_hit 291 L2C_RFO_Hit Ratio: 0.08314
Core_0_L2C_RFO_miss 3209
Core_0_L2C_prefetches 432896
Core_0_L2C_prefetch_hit 255424 L2C_prefetch_Hit Ratio: 0.59004
Core_0_L2C_prefetch_miss 177472
Core_0_L2C_writebacks 175341
Core_0_L2C_writeback_hit 175264 L2C_writeback_Hit Ratio: 0.99956
Core_0_L2C_writeback_miss 77
Core_0_L2C_prefetch_requested 146986
Core_0_L2C_prefetch_issued 146986
Core_0_L2C_prefetch_useful 45444 L2C_Useful Ratio: 0.30917
Core_0_L2C_prefetch_useless 95229
Core_0_L2C_prefetch_late 9229
Core_0_L2C_average_miss_latency 134.24104

Core_0_LLC_total_access 332734
Core_0_LLC_total_hit 199606 LLC_total_Hit Ratio: 0.59990
Core_0_LLC_total_miss 133128
Core_0_LLC_loads 29568
Core_0_LLC_load_hit 11174 LLC_load_Hit Ratio: 0.37791
Core_0_LLC_load_miss 18394
Core_0_LLC_RFOs 3209
Core_0_LLC_RFO_hit 129 LLC_RFO_Hit Ratio: 0.04020
Core_0_LLC_RFO_miss 3080
Core_0_LLC_prefetches 186679
Core_0_LLC_prefetch_hit 75050 LLC_prefetch_Hit Ratio: 0.40203
Core_0_LLC_prefetch_miss 111629
Core_0_LLC_writebacks 113278
Core_0_LLC_writeback_hit 113253 LLC_writeback_Hit Ratio: 0.99978
Core_0_LLC_writeback_miss 25
Core_0_LLC_prefetch_requested 0
Core_0_LLC_prefetch_issued 0
Core_0_LLC_prefetch_useful 6396 LLC_Useful Ratio: inf
Core_0_LLC_prefetch_useless 11566
Core_0_LLC_prefetch_late 0
Core_0_LLC_average_miss_latency 158.24708

Core_0_major_page_fault 0
Core_0_minor_page_fault 3170

[Bingo] PHT Access: 34972
[Bingo] PHT Hit PC+Addr: 6605
[Bingo] PHT Hit PC+Offs: 26887
[Bingo] PHT Miss: 1480
[Bingo] Prefetch PC+Addr: 0
[Bingo] Prefetch PC+Offs: 0
[Bingo] Useful PC+Addr: 0
[Bingo] Useful PC+Offs: 0
[Bingo] Useless PC+Addr: 0
[Bingo] Useless PC+Offs: 0
[Bingo] L1 Prefetch per Region: 16.15454
[Bingo] L2 Prefetch per Region: 1.04150
[Bingo] L3 Prefetch per Region: 0.00000
[Bingo] No Prefetch per Region: 14.80395
[Bingo] Number of Voters Mean: 15.35445
[Bingo] Number of Voters SD: 5.35247
PHT read accesses: 468413
PHT write accesses: 33762
AT read accesses: 7316847
AT write accesses: 7316842
FT read accesses: 1122090
FT write accesses: 34972
PS read accesses: 297951
PS write accesses: 33492
PHT tag read accesses: 1461692
PHT tag write accesses: 40367
AT tag read accesses: 133656225
AT tag write accesses: 7350587
FT tag read accesses: 17559808
FT tag write accesses: 613435
PS tag read accesses: 126348549
PS tag write accesses: 330113
[Bingo2] PHT Access: 16134
[Bingo2] PHT Hit PC+Addr: 924
[Bingo2] PHT Hit PC+Offs: 13814
[Bingo2] PHT Miss: 1396
[Bingo2] Prefetch PC+Addr: 0
[Bingo2] Prefetch PC+Offs: 0
[Bingo2] Useful PC+Addr: 0
[Bingo2] Useful PC+Offs: 0
[Bingo2] Useless PC+Addr: 0
[Bingo2] Useless PC+Offs: 0
[Bingo2] L1 Prefetch per Region: 0.00000
[Bingo2] L2 Prefetch per Region: 11.96051
[Bingo2] L3 Prefetch per Region: 0.00000
[Bingo2] No Prefetch per Region: 20.03949
[Bingo2] Number of Voters Mean: 14.56797
[Bingo2] Number of Voters SD: 5.87203
PHT read accesses: 210906
PHT write accesses: 13272
AT read accesses: 92004
AT write accesses: 105145
FT read accesses: 46631
FT write accesses: 16134
PS read accesses: 43965
PS write accesses: 14738
PHT tag read accesses: 655276
PHT tag write accesses: 14196
AT tag read accesses: 5140769
AT tag write accesses: 105276
FT tag read accesses: 3876585
FT tag write accesses: 46092
PS tag read accesses: 2298494
PS tag write accesses: 57891
Channel_0_RQ_row_buffer_hit 123875
Channel_0_RQ_row_buffer_miss 9228
Channel_0_WQ_row_buffer_hit 1762
Channel_0_WQ_row_buffer_miss 3316
Channel_0_WQ_full 0
Channel_0_dbus_congested 88276

avg_congested_cycle 8

EzSearch AVG IPC :0.91510: L2-Pf-HR :0.59004 : L2-HR :0.69642 Uful:0.30917
     > Finished combination: TraceType=770-tot Sim:27000000 Prefetcher=L2bingo_dpc3 L1=bingo_dpc3
