TRACE: [21000000]_FE_[Pythia-70M]_[h8]_[s256]_[d64] Warmup: 2000000 NumTraces: 21000000
L1:next_line:L2:029-TOPTOP-L2-MultiMarkovDelta_ip_stride_v3
*************************************************
   ChampSim Multicore Out-of-Order Simulator
   Last compiled: Oct 21 2024 08:08:41
*************************************************

trace_0 770-tot_memTraces_v3/memTraces[21000000]_FE_[Pythia-70M]_[h8]_[s256]_[d64].champsim.xz
CPU 0 L1D next line prefetcher
MK1: Size: 256 TMAX: 64 TMIN: 32 MKPTHRESH: 12
MK2: Size: 256 TMAX: 32 TMIN: 16 MKPTHRESH: 30
MK3: Size: 256 TMAX: 16 TMIN: 0 MKPTHRESH: 40
MK4: Size: 32 TMAX: 4 TMIN: 0 MKPTHRESH: 0
Stride Size: 64 Prefetch Degree: 14

CPU 0 L2C prefetcher
MAIN.cc ln 751 stats print skipped
CPU 0 L2C prefetcher initialized


Cache Size: 512
number of cache lines: 8192
CPU  0 inst:    1000001 cyc:     502856 now IPC :1.98864: AVG IPC :1.98864: L2-Pf-HR :0.89411: L2-HR :0.87039: (Sim:0h0m4s) 
CPU  0 inst:    2000003 cyc:     981802 now IPC :2.08792: AVG IPC :2.03707: L2-Pf-HR :0.92287: L2-HR :0.90720: (Sim:0h0m9s) 

Warmup complete CPU  0 instructions:    2000003 cycles:     981802 (Simulation time: 0 hr 0 min 9 sec) 

CPU  0 inst:    3000001 cyc:    1573558 now IPC :1.68988: AVG IPC :1.68988: L2-Pf-HR :0.94030: L2-HR :0.93478: (Sim:0h0m13s) 
CPU  0 inst:    4000000 cyc:    2159070 now IPC :1.70791: AVG IPC :1.69885: L2-Pf-HR :0.94047: L2-HR :0.93517: (Sim:0h0m18s) 
CPU  0 inst:    5000000 cyc:    2746738 now IPC :1.70164: AVG IPC :1.69978: L2-Pf-HR :0.94096: L2-HR :0.93576: (Sim:0h0m22s) 
CPU  0 inst:    6000002 cyc:    3355737 now IPC :1.64204: AVG IPC :1.68497: L2-Pf-HR :0.94107: L2-HR :0.93593: (Sim:0h0m26s) 
CPU  0 inst:    7000000 cyc:    3982726 now IPC :1.59492: AVG IPC :1.66615: L2-Pf-HR :0.94152: L2-HR :0.93645: (Sim:0h0m31s) 
CPU  0 inst:    8000000 cyc:    4622669 now IPC :1.56264: AVG IPC :1.64796: L2-Pf-HR :0.94163: L2-HR :0.93652: (Sim:0h0m36s) 
CPU  0 inst:    9000000 cyc:    7075067 now IPC :0.40776: AVG IPC :1.14881: L2-Pf-HR :0.88822: L2-HR :0.89110: (Sim:0h0m42s) 
CPU  0 inst:   10000000 cyc:   10532830 now IPC :0.28920: AVG IPC :0.83761: L2-Pf-HR :0.87117: L2-HR :0.87716: (Sim:0h0m50s) 
CPU  0 inst:   11000000 cyc:   13993063 now IPC :0.28900: AVG IPC :0.69171: L2-Pf-HR :0.85563: L2-HR :0.86464: (Sim:0h0m57s) 
CPU  0 inst:   12000000 cyc:   17450385 now IPC :0.28924: AVG IPC :0.60722: L2-Pf-HR :0.84167: L2-HR :0.85353: (Sim:0h1m6s) 
CPU  0 inst:   13000000 cyc:   20906454 now IPC :0.28935: AVG IPC :0.55208: L2-Pf-HR :0.82889: L2-HR :0.84348: (Sim:0h1m15s) 
CPU  0 inst:   14000002 cyc:   21858968 now IPC :1.04986: AVG IPC :0.57479: L2-Pf-HR :0.86010: L2-HR :0.86894: (Sim:0h1m21s) 
CPU  0 inst:   15000003 cyc:   22575776 now IPC :1.39508: AVG IPC :0.60202: L2-Pf-HR :0.88243: L2-HR :0.88851: (Sim:0h1m26s) 
CPU  0 inst:   16000000 cyc:   23281811 now IPC :1.41636: AVG IPC :0.62780: L2-Pf-HR :0.89763: L2-HR :0.90204: (Sim:0h1m31s) 
CPU  0 inst:   17000002 cyc:   23975159 now IPC :1.44228: AVG IPC :0.65236: L2-Pf-HR :0.90887: L2-HR :0.91218: (Sim:0h1m36s) 
CPU  0 inst:   18000000 cyc:   24660055 now IPC :1.46007: AVG IPC :0.67573: L2-Pf-HR :0.91759: L2-HR :0.92010: (Sim:0h1m42s) 
Finished CPU 0 instr: 16000001 cyc: 23678254 AVG IPC: 0.67573 (Sim time: 0h1m42s)

ChampSim completed all CPUs

[ROI Statistics]
Core_0_instructions 16000001
Core_0_cycles 23678254
Core_0_IPC 0.67573

Core_0_branch_prediction_accuracy 98.24557
Core_0_branch_MPKI 0.63131
Core_0_average_ROB_occupancy_at_mispredict 187.79220

Core_0_L1D_total_access 11477211
Core_0_L1D_total_hit 10673705 L1D_total_Hit Ratio: 0.92999
Core_0_L1D_total_miss 803506
Core_0_L1D_loads 4325163
Core_0_L1D_load_hit 3979232 L1D_load_Hit Ratio: 0.92002
Core_0_L1D_load_miss 345931
Core_0_L1D_RFOs 562029
Core_0_L1D_RFO_hit 536562 L1D_RFO_Hit Ratio: 0.95469
Core_0_L1D_RFO_miss 25467
Core_0_L1D_prefetches 6590019
Core_0_L1D_prefetch_hit 6157911 L1D_prefetch_Hit Ratio: 0.93443
Core_0_L1D_prefetch_miss 432108
Core_0_L1D_writebacks 0
Core_0_L1D_writeback_hit 0 L1D_writeback_Hit Ratio: -nan
Core_0_L1D_writeback_miss 0
Core_0_L1D_prefetch_requested 15062214
Core_0_L1D_prefetch_issued 8338312
Core_0_L1D_prefetch_useful 214525 L1D_Useful Ratio: 0.02573
Core_0_L1D_prefetch_useless 245329
Core_0_L1D_prefetch_late 52573
Core_0_L1D_average_miss_latency 752513.94760

Core_0_L1I_total_access 4074189
Core_0_L1I_total_hit 4069482 L1I_total_Hit Ratio: 0.99884
Core_0_L1I_total_miss 4707
Core_0_L1I_loads 4074189
Core_0_L1I_load_hit 4069482 L1I_load_Hit Ratio: 0.99884
Core_0_L1I_load_miss 4707
Core_0_L1I_RFOs 0
Core_0_L1I_RFO_hit 0 L1I_RFO_Hit Ratio: -nan
Core_0_L1I_RFO_miss 0
Core_0_L1I_prefetches 0
Core_0_L1I_prefetch_hit 0 L1I_prefetch_Hit Ratio: -nan
Core_0_L1I_prefetch_miss 0
Core_0_L1I_writebacks 0
Core_0_L1I_writeback_hit 0 L1I_writeback_Hit Ratio: -nan
Core_0_L1I_writeback_miss 0
Core_0_L1I_prefetch_requested 0
Core_0_L1I_prefetch_issued 0
Core_0_L1I_prefetch_useful 0 L1I_Useful Ratio: -nan
Core_0_L1I_prefetch_useless 0
Core_0_L1I_prefetch_late 0
Core_0_L1I_average_miss_latency 332.63310

Core_0_L2C_total_access 2214012
Core_0_L2C_total_hit 2037118 L2C_total_Hit Ratio: 0.92010
Core_0_L2C_total_miss 176894
Core_0_L2C_loads 298614
Core_0_L2C_load_hit 275551 L2C_load_Hit Ratio: 0.92277
Core_0_L2C_load_miss 23063
Core_0_L2C_RFOs 25461
Core_0_L2C_RFO_hit 18175 L2C_RFO_Hit Ratio: 0.71384
Core_0_L2C_RFO_miss 7286
Core_0_L2C_prefetches 1777769
Core_0_L2C_prefetch_hit 1631262 L2C_prefetch_Hit Ratio: 0.91759
Core_0_L2C_prefetch_miss 146507
Core_0_L2C_writebacks 112168
Core_0_L2C_writeback_hit 112130 L2C_writeback_Hit Ratio: 0.99966
Core_0_L2C_writeback_miss 38
Core_0_L2C_prefetch_requested 3953455
Core_0_L2C_prefetch_issued 1974666
Core_0_L2C_prefetch_useful 52655 L2C_Useful Ratio: 0.02667
Core_0_L2C_prefetch_useless 103569
Core_0_L2C_prefetch_late 874
Core_0_L2C_average_miss_latency 318.64383

Core_0_LLC_total_access 278974
Core_0_LLC_total_hit 104188 LLC_total_Hit Ratio: 0.37347
Core_0_LLC_total_miss 174786
Core_0_LLC_loads 22213
Core_0_LLC_load_hit 543 LLC_load_Hit Ratio: 0.02445
Core_0_LLC_load_miss 21670
Core_0_LLC_RFOs 7286
Core_0_LLC_RFO_hit 18 LLC_RFO_Hit Ratio: 0.00247
Core_0_LLC_RFO_miss 7268
Core_0_LLC_prefetches 149071
Core_0_LLC_prefetch_hit 4380 LLC_prefetch_Hit Ratio: 0.02938
Core_0_LLC_prefetch_miss 144691
Core_0_LLC_writebacks 100404
Core_0_LLC_writeback_hit 99247 LLC_writeback_Hit Ratio: 0.98848
Core_0_LLC_writeback_miss 1157
Core_0_LLC_prefetch_requested 0
Core_0_LLC_prefetch_issued 0
Core_0_LLC_prefetch_useful 367 LLC_Useful Ratio: inf
Core_0_LLC_prefetch_useless 132791
Core_0_LLC_prefetch_late 60
Core_0_LLC_average_miss_latency 298.05181

Core_0_major_page_fault 0
Core_0_minor_page_fault 2382

CPU 0 L1D next line prefetcher final stats
CPU 0 L2C PC-based stride prefetcher final stats
Stride Degree: 14
MK1  MARKOV_LRU_SIZE: 256
MK1  MARKOV_PREDICTION_PERCENTTHRESHOLD: 12.00000
MK1  OUTLIERS_THRESHOLD_Max: 64
MK1  OUTLIERS_THRESHOLD_Min: 32
MK2  MARKOV_LRU_SIZE: 256
MK2  MARKOV_PREDICTION_PERCENTTHRESHOLD: 30.00000
MK2  OUTLIERS_THRESHOLD_Max: 32
MK2  OUTLIERS_THRESHOLD_Min: 16
MK3  MARKOV_LRU_SIZE: 32
MK3  MARKOV_PREDICTION_PERCENTTHRESHOLD: 0.00000
MK3  OUTLIERS_THRESHOLD_Max: 4
MK3  OUTLIERS_THRESHOLD_Min: 0
MK4  MARKOV_LRU_SIZE: 32
MK4  MARKOV_PREDICTION_PERCENTTHRESHOLD: 0.00000
MK4  OUTLIERS_THRESHOLD_Max: 4
MK4  OUTLIERS_THRESHOLD_Min: 0
IPStride Degree/Access Ratio: 3.41779
MK1 IPDEltaMarkov  Degree/Access Ratio: 0.50533
MK2 IPDEltaMarkov  Degree/Access Ratio: 0.39362
MK3 IPDEltaMarkov  Degree/Access Ratio: 0.00000
MK4 IPDEltaMarkov  Degree/Access Ratio: 1.33770
Channel_0_RQ_row_buffer_hit 86729
Channel_0_RQ_row_buffer_miss 86901
Channel_0_WQ_row_buffer_hit 30051
Channel_0_WQ_row_buffer_miss 69021
Channel_0_WQ_full 0
Channel_0_dbus_congested 191655

avg_congested_cycle 11

EzSearch AVG IPC :0.67573: L2-Pf-HR :0.91759 : L2-HR :0.92010 Uful:0.02667
     > Finished combination: TraceType=770-tot Sim:16000000 Prefetcher=L2029-TOPTOP-L2-MultiMarkovDelta_ip_stride_v3 L1=next_line
