TRACE: [42000000]_FE_[OPT-350M]_[h16]_[s256]_[d64] Warmup: 2000000 NumTraces: 42000000
L1:no:L2:no
*************************************************
   ChampSim Multicore Out-of-Order Simulator
   Last compiled: Oct 18 2024 17:01:11
*************************************************

trace_0 770-tot_memTraces_v3/memTraces[42000000]_FE_[OPT-350M]_[h16]_[s256]_[d64].champsim.xz
MAIN.cc ln 751 stats print skipped
CPU  0 inst:    1000003 cyc:     504218 now IPC :1.98328: AVG IPC :1.98328: L2-Pf-HR :-nan: L2-HR :0.66226: (Sim:0h0m4s) 
CPU  0 inst:    2000002 cyc:     984483 now IPC :2.08218: AVG IPC :2.03153: L2-Pf-HR :-nan: L2-HR :0.72037: (Sim:0h0m8s) 

Warmup complete CPU  0 instructions:    2000002 cycles:     984483 (Simulation time: 0 hr 0 min 8 sec) 

CPU  0 inst:    3000003 cyc:    1746010 now IPC :1.31315: AVG IPC :1.31315: L2-Pf-HR :-nan: L2-HR :0.78239: (Sim:0h0m12s) 
CPU  0 inst:    4000000 cyc:    2504357 now IPC :1.31865: AVG IPC :1.31590: L2-Pf-HR :-nan: L2-HR :0.78138: (Sim:0h0m16s) 
CPU  0 inst:    5000000 cyc:    3267895 now IPC :1.30969: AVG IPC :1.31382: L2-Pf-HR :-nan: L2-HR :0.78177: (Sim:0h0m21s) 
CPU  0 inst:    6000000 cyc:    4065179 now IPC :1.25426: AVG IPC :1.29841: L2-Pf-HR :-nan: L2-HR :0.78250: (Sim:0h0m25s) 
CPU  0 inst:    7000000 cyc:    4900692 now IPC :1.19687: AVG IPC :1.27674: L2-Pf-HR :-nan: L2-HR :0.78199: (Sim:0h0m29s) 
CPU  0 inst:    8000000 cyc:    5744610 now IPC :1.18495: AVG IPC :1.26047: L2-Pf-HR :-nan: L2-HR :0.78062: (Sim:0h0m34s) 
CPU  0 inst:    9000000 cyc:    6583554 now IPC :1.19197: AVG IPC :1.25021: L2-Pf-HR :-nan: L2-HR :0.78099: (Sim:0h0m38s) 
CPU  0 inst:   10000003 cyc:    7422156 now IPC :1.19246: AVG IPC :1.24269: L2-Pf-HR :-nan: L2-HR :0.78115: (Sim:0h0m42s) 
CPU  0 inst:   11000001 cyc:    8258750 now IPC :1.19532: AVG IPC :1.23724: L2-Pf-HR :-nan: L2-HR :0.78109: (Sim:0h0m47s) 
CPU  0 inst:   12000000 cyc:    9102232 now IPC :1.18556: AVG IPC :1.23187: L2-Pf-HR :-nan: L2-HR :0.78101: (Sim:0h0m51s) 
CPU  0 inst:   13000002 cyc:    9939602 now IPC :1.19422: AVG IPC :1.22835: L2-Pf-HR :-nan: L2-HR :0.78106: (Sim:0h0m55s) 
CPU  0 inst:   14000002 cyc:   10773104 now IPC :1.19976: AVG IPC :1.22591: L2-Pf-HR :-nan: L2-HR :0.78123: (Sim:0h1m0s) 
CPU  0 inst:   15000003 cyc:   11612485 now IPC :1.19136: AVG IPC :1.22318: L2-Pf-HR :-nan: L2-HR :0.78090: (Sim:0h1m4s) 
CPU  0 inst:   16000000 cyc:   12448698 now IPC :1.19586: AVG IPC :1.22119: L2-Pf-HR :-nan: L2-HR :0.78107: (Sim:0h1m8s) 
CPU  0 inst:   17000000 cyc:   13353553 now IPC :1.10515: AVG IPC :1.21270: L2-Pf-HR :-nan: L2-HR :0.77992: (Sim:0h1m13s) 
CPU  0 inst:   18000000 cyc:   18912835 now IPC :0.17988: AVG IPC :0.89244: L2-Pf-HR :-nan: L2-HR :0.70388: (Sim:0h1m25s) 
CPU  0 inst:   19000000 cyc:   24161200 now IPC :0.19054: AVG IPC :0.73349: L2-Pf-HR :-nan: L2-HR :0.68845: (Sim:0h1m35s) 
CPU  0 inst:   20000000 cyc:   29328817 now IPC :0.19351: AVG IPC :0.63505: L2-Pf-HR :-nan: L2-HR :0.67425: (Sim:0h1m45s) 
CPU  0 inst:   21000000 cyc:   34193131 now IPC :0.20558: AVG IPC :0.57214: L2-Pf-HR :-nan: L2-HR :0.66114: (Sim:0h1m55s) 
CPU  0 inst:   22000000 cyc:   39188018 now IPC :0.20020: AVG IPC :0.52351: L2-Pf-HR :-nan: L2-HR :0.64900: (Sim:0h2m4s) 
CPU  0 inst:   23000000 cyc:   44225740 now IPC :0.19850: AVG IPC :0.48565: L2-Pf-HR :-nan: L2-HR :0.63774: (Sim:0h2m14s) 
CPU  0 inst:   24000000 cyc:   49210064 now IPC :0.20063: AVG IPC :0.45619: L2-Pf-HR :-nan: L2-HR :0.62724: (Sim:0h2m24s) 
CPU  0 inst:   25000000 cyc:   54213139 now IPC :0.19988: AVG IPC :0.43210: L2-Pf-HR :-nan: L2-HR :0.61745: (Sim:0h2m33s) 
CPU  0 inst:   26000003 cyc:   58824924 now IPC :0.21684: AVG IPC :0.41493: L2-Pf-HR :-nan: L2-HR :0.61102: (Sim:0h2m42s) 
CPU  0 inst:   27000000 cyc:   59874650 now IPC :0.95263: AVG IPC :0.42452: L2-Pf-HR :-nan: L2-HR :0.63576: (Sim:0h2m48s) 
CPU  0 inst:   28000000 cyc:   60925570 now IPC :0.95155: AVG IPC :0.43376: L2-Pf-HR :-nan: L2-HR :0.65679: (Sim:0h2m53s) 
CPU  0 inst:   29000001 cyc:   61936858 now IPC :0.98884: AVG IPC :0.44297: L2-Pf-HR :-nan: L2-HR :0.67551: (Sim:0h2m58s) 
CPU  0 inst:   30000001 cyc:   62964857 now IPC :0.97276: AVG IPC :0.45176: L2-Pf-HR :-nan: L2-HR :0.69135: (Sim:0h3m2s) 
CPU  0 inst:   31000001 cyc:   64006034 now IPC :0.96045: AVG IPC :0.46016: L2-Pf-HR :-nan: L2-HR :0.70491: (Sim:0h3m8s) 
CPU  0 inst:   32000000 cyc:   64980016 now IPC :1.02671: AVG IPC :0.46878: L2-Pf-HR :-nan: L2-HR :0.71688: (Sim:0h3m12s) 
CPU  0 inst:   33000003 cyc:   65919574 now IPC :1.06433: AVG IPC :0.47740: L2-Pf-HR :-nan: L2-HR :0.72757: (Sim:0h3m17s) 
CPU  0 inst:   34000001 cyc:   66851211 now IPC :1.07338: AVG IPC :0.48583: L2-Pf-HR :-nan: L2-HR :0.73722: (Sim:0h3m22s) 
CPU  0 inst:   35000000 cyc:   67754653 now IPC :1.10688: AVG IPC :0.49423: L2-Pf-HR :-nan: L2-HR :0.74631: (Sim:0h3m27s) 
CPU  0 inst:   36000000 cyc:   68692684 now IPC :1.06606: AVG IPC :0.50215: L2-Pf-HR :-nan: L2-HR :0.75419: (Sim:0h3m32s) 
CPU  0 inst:   37000001 cyc:   69637604 now IPC :1.05829: AVG IPC :0.50981: L2-Pf-HR :-nan: L2-HR :0.76121: (Sim:0h3m36s) 
CPU  0 inst:   38000002 cyc:   70581125 now IPC :1.05986: AVG IPC :0.51727: L2-Pf-HR :-nan: L2-HR :0.76763: (Sim:0h3m41s) 
CPU  0 inst:   39000001 cyc:   71521838 now IPC :1.06302: AVG IPC :0.52454: L2-Pf-HR :-nan: L2-HR :0.77362: (Sim:0h3m46s) 
Finished CPU 0 instr: 37000003 cyc: 70537356 AVG IPC: 0.52454 (Sim time: 0h3m46s)

ChampSim completed all CPUs

[ROI Statistics]
Core_0_instructions 37000003
Core_0_cycles 70537356
Core_0_IPC 0.52454

Core_0_branch_prediction_accuracy 98.43856
Core_0_branch_MPKI 0.50535
Core_0_average_ROB_occupancy_at_mispredict 199.67168

Core_0_L1D_total_access 11139999
Core_0_L1D_total_hit 9754734 L1D_total_Hit Ratio: 0.87565
Core_0_L1D_total_miss 1385265
Core_0_L1D_loads 10037435
Core_0_L1D_load_hit 8727169 L1D_load_Hit Ratio: 0.86946
Core_0_L1D_load_miss 1310266
Core_0_L1D_RFOs 1102564
Core_0_L1D_RFO_hit 1027565 L1D_RFO_Hit Ratio: 0.93198
Core_0_L1D_RFO_miss 74999
Core_0_L1D_prefetches 0
Core_0_L1D_prefetch_hit 0 L1D_prefetch_Hit Ratio: -nan
Core_0_L1D_prefetch_miss 0
Core_0_L1D_writebacks 0
Core_0_L1D_writeback_hit 0 L1D_writeback_Hit Ratio: -nan
Core_0_L1D_writeback_miss 0
Core_0_L1D_prefetch_requested 0
Core_0_L1D_prefetch_issued 0
Core_0_L1D_prefetch_useful 0 L1D_Useful Ratio: -nan
Core_0_L1D_prefetch_useless 0
Core_0_L1D_prefetch_late 0
Core_0_L1D_average_miss_latency 89.59023

Core_0_L1I_total_access 9159813
Core_0_L1I_total_hit 9155092 L1I_total_Hit Ratio: 0.99948
Core_0_L1I_total_miss 4721
Core_0_L1I_loads 9159813
Core_0_L1I_load_hit 9155092 L1I_load_Hit Ratio: 0.99948
Core_0_L1I_load_miss 4721
Core_0_L1I_RFOs 0
Core_0_L1I_RFO_hit 0 L1I_RFO_Hit Ratio: -nan
Core_0_L1I_RFO_miss 0
Core_0_L1I_prefetches 0
Core_0_L1I_prefetch_hit 0 L1I_prefetch_Hit Ratio: -nan
Core_0_L1I_prefetch_miss 0
Core_0_L1I_writebacks 0
Core_0_L1I_writeback_hit 0 L1I_writeback_Hit Ratio: -nan
Core_0_L1I_writeback_miss 0
Core_0_L1I_prefetch_requested 0
Core_0_L1I_prefetch_issued 0
Core_0_L1I_prefetch_useful 0 L1I_Useful Ratio: -nan
Core_0_L1I_prefetch_useless 0
Core_0_L1I_prefetch_late 0
Core_0_L1I_average_miss_latency 264.11650

Core_0_L2C_total_access 1629576
Core_0_L2C_total_hit 1260674 L2C_total_Hit Ratio: 0.77362
Core_0_L2C_total_miss 368902
Core_0_L2C_loads 1314988
Core_0_L2C_load_hit 1012177 L2C_load_Hit Ratio: 0.76972
Core_0_L2C_load_miss 302811
Core_0_L2C_RFOs 74999
Core_0_L2C_RFO_hit 9093 L2C_RFO_Hit Ratio: 0.12124
Core_0_L2C_RFO_miss 65906
Core_0_L2C_prefetches 0
Core_0_L2C_prefetch_hit 0 L2C_prefetch_Hit Ratio: -nan
Core_0_L2C_prefetch_miss 0
Core_0_L2C_writebacks 239589
Core_0_L2C_writeback_hit 239404 L2C_writeback_Hit Ratio: 0.99923
Core_0_L2C_writeback_miss 185
Core_0_L2C_prefetch_requested 0
Core_0_L2C_prefetch_issued 0
Core_0_L2C_prefetch_useful 0 L2C_Useful Ratio: -nan
Core_0_L2C_prefetch_useless 0
Core_0_L2C_prefetch_late 0
Core_0_L2C_average_miss_latency 285.06837

Core_0_LLC_total_access 577482
Core_0_LLC_total_hit 209656 LLC_total_Hit Ratio: 0.36305
Core_0_LLC_total_miss 367826
Core_0_LLC_loads 302811
Core_0_LLC_load_hit 1823 LLC_load_Hit Ratio: 0.00602
Core_0_LLC_load_miss 300988
Core_0_LLC_RFOs 65906
Core_0_LLC_RFO_hit 174 LLC_RFO_Hit Ratio: 0.00264
Core_0_LLC_RFO_miss 65732
Core_0_LLC_prefetches 0
Core_0_LLC_prefetch_hit 0 LLC_prefetch_Hit Ratio: -nan
Core_0_LLC_prefetch_miss 0
Core_0_LLC_writebacks 208765
Core_0_LLC_writeback_hit 207659 LLC_writeback_Hit Ratio: 0.99470
Core_0_LLC_writeback_miss 1106
Core_0_LLC_prefetch_requested 0
Core_0_LLC_prefetch_issued 0
Core_0_LLC_prefetch_useful 0 LLC_Useful Ratio: -nan
Core_0_LLC_prefetch_useless 0
Core_0_LLC_prefetch_late 0
Core_0_LLC_average_miss_latency 255.46348

Core_0_major_page_fault 0
Core_0_minor_page_fault 3913

Channel_0_RQ_row_buffer_hit 177947
Channel_0_RQ_row_buffer_miss 188773
Channel_0_WQ_row_buffer_hit 89007
Channel_0_WQ_row_buffer_miss 117013
Channel_0_WQ_full 0
Channel_0_dbus_congested 184822

avg_congested_cycle 11

EzSearch AVG IPC :0.52454: L2-Pf-HR :-nan : L2-HR :0.77362 Uful:-nan
     > Finished combination: TraceType=770-tot Sim:37000000 Prefetcher=L2no L1=no
