TRACE: [496000000][OPT-125M]_[h12][s1024][d64] Warmup: 2000000 NumTraces: 496000000
L1:ipcp:L2:ipcp
*************************************************
   ChampSim Multicore Out-of-Order Simulator
   Last compiled: Oct 26 2024 18:06:59
*************************************************

trace_0 770-tot_memTraces_v3/memTraces[496000000][OPT-125M]_[h12][s1024][d64].champsim.xz
MAIN.cc ln 751 stats print skipped
CPU  0 inst:    1000002 cyc:     498297 now IPC :2.00684: AVG IPC :2.00684: L2-Pf-HR :0.88294: L2-HR :0.81168: (Sim:0h0m20s) 
CPU  0 inst:    2000000 cyc:     981337 now IPC :2.07022: AVG IPC :2.03804: L2-Pf-HR :0.92660: L2-HR :0.85602: (Sim:0h0m42s) 

Warmup complete CPU  0 instructions:    2000002 cycles:     981338 (Simulation time: 0 hr 0 min 42 sec) 

CPU  0 inst:    3000001 cyc:    1606214 now IPC :1.60032: AVG IPC :1.60032: L2-Pf-HR :0.95821: L2-HR :0.87827: (Sim:0h1m0s) 
CPU  0 inst:    4000000 cyc:    2232156 now IPC :1.59759: AVG IPC :1.59895: L2-Pf-HR :0.95834: L2-HR :0.87597: (Sim:0h1m18s) 
CPU  0 inst:    5000000 cyc:    2855199 now IPC :1.60503: AVG IPC :1.60097: L2-Pf-HR :0.95870: L2-HR :0.87719: (Sim:0h1m36s) 
CPU  0 inst:    6000000 cyc:    3484583 now IPC :1.58886: AVG IPC :1.59793: L2-Pf-HR :0.95939: L2-HR :0.87646: (Sim:0h1m54s) 
CPU  0 inst:    7000005 cyc:    4141975 now IPC :1.52117: AVG IPC :1.58196: L2-Pf-HR :0.96040: L2-HR :0.87813: (Sim:0h2m13s) 
CPU  0 inst:    8000001 cyc:    4743363 now IPC :1.66281: AVG IPC :1.59489: L2-Pf-HR :0.96582: L2-HR :0.88199: (Sim:0h2m31s) 
CPU  0 inst:    9000002 cyc:    5345683 now IPC :1.66025: AVG IPC :1.60391: L2-Pf-HR :0.96991: L2-HR :0.88513: (Sim:0h2m48s) 
CPU  0 inst:   10000000 cyc:    5949747 now IPC :1.65545: AVG IPC :1.61017: L2-Pf-HR :0.97304: L2-HR :0.88692: (Sim:0h3m6s) 
CPU  0 inst:   11000000 cyc:    6552018 now IPC :1.66038: AVG IPC :1.61560: L2-Pf-HR :0.97540: L2-HR :0.88905: (Sim:0h3m24s) 
CPU  0 inst:   12000002 cyc:    7155262 now IPC :1.65771: AVG IPC :1.61972: L2-Pf-HR :0.97741: L2-HR :0.89016: (Sim:0h3m42s) 
CPU  0 inst:   13000005 cyc:    7790856 now IPC :1.57334: AVG IPC :1.61539: L2-Pf-HR :0.97726: L2-HR :0.89029: (Sim:0h4m1s) 
CPU  0 inst:   14000003 cyc:    8388782 now IPC :1.67244: AVG IPC :1.61999: L2-Pf-HR :0.97861: L2-HR :0.89083: (Sim:0h4m19s) 
CPU  0 inst:   15000004 cyc:    8985588 now IPC :1.67559: AVG IPC :1.62414: L2-Pf-HR :0.97976: L2-HR :0.89154: (Sim:0h4m36s) 
CPU  0 inst:   16000003 cyc:    9583788 now IPC :1.67168: AVG IPC :1.62744: L2-Pf-HR :0.98077: L2-HR :0.89206: (Sim:0h4m54s) 
CPU  0 inst:   17000005 cyc:   10245391 now IPC :1.51148: AVG IPC :1.61916: L2-Pf-HR :0.97920: L2-HR :0.89066: (Sim:0h5m13s) 
CPU  0 inst:   18000000 cyc:   10854590 now IPC :1.64149: AVG IPC :1.62054: L2-Pf-HR :0.97946: L2-HR :0.89089: (Sim:0h5m31s) 
CPU  0 inst:   19000005 cyc:   11464251 now IPC :1.64026: AVG IPC :1.62169: L2-Pf-HR :0.97973: L2-HR :0.89081: (Sim:0h5m49s) 
CPU  0 inst:   20000004 cyc:   12072139 now IPC :1.64504: AVG IPC :1.62297: L2-Pf-HR :0.97998: L2-HR :0.89102: (Sim:0h6m7s) 
CPU  0 inst:   21000001 cyc:   12680263 now IPC :1.64440: AVG IPC :1.62408: L2-Pf-HR :0.98012: L2-HR :0.89097: (Sim:0h6m25s) 
CPU  0 inst:   22000001 cyc:   13290094 now IPC :1.63980: AVG IPC :1.62486: L2-Pf-HR :0.98036: L2-HR :0.89107: (Sim:0h6m43s) 
CPU  0 inst:   23000003 cyc:   13962081 now IPC :1.48813: AVG IPC :1.61778: L2-Pf-HR :0.97984: L2-HR :0.89082: (Sim:0h7m2s) 
CPU  0 inst:   24000003 cyc:   14579547 now IPC :1.61952: AVG IPC :1.61786: L2-Pf-HR :0.98046: L2-HR :0.89132: (Sim:0h7m20s) 
CPU  0 inst:   25000003 cyc:   15198593 now IPC :1.61539: AVG IPC :1.61775: L2-Pf-HR :0.98109: L2-HR :0.89175: (Sim:0h7m38s) 
CPU  0 inst:   26000003 cyc:   15814782 now IPC :1.62288: AVG IPC :1.61797: L2-Pf-HR :0.98169: L2-HR :0.89233: (Sim:0h7m56s) 
CPU  0 inst:   27000004 cyc:   16429624 now IPC :1.62644: AVG IPC :1.61830: L2-Pf-HR :0.98221: L2-HR :0.89258: (Sim:0h8m14s) 
CPU  0 inst:   28000000 cyc:   17042434 now IPC :1.63182: AVG IPC :1.61882: L2-Pf-HR :0.98273: L2-HR :0.89311: (Sim:0h8m32s) 
CPU  0 inst:   29000005 cyc:   17722914 now IPC :1.46956: AVG IPC :1.61275: L2-Pf-HR :0.98260: L2-HR :0.89292: (Sim:0h8m51s) 
CPU  0 inst:   30000001 cyc:   18360668 now IPC :1.56800: AVG IPC :1.61111: L2-Pf-HR :0.98297: L2-HR :0.89312: (Sim:0h9m10s) 
CPU  0 inst:   31000001 cyc:   18996781 now IPC :1.57205: AVG IPC :1.60973: L2-Pf-HR :0.98335: L2-HR :0.89335: (Sim:0h9m28s) 
CPU  0 inst:   32000004 cyc:   19631196 now IPC :1.57626: AVG IPC :1.60859: L2-Pf-HR :0.98373: L2-HR :0.89348: (Sim:0h9m46s) 
CPU  0 inst:   33000000 cyc:   20364920 now IPC :1.36290: AVG IPC :1.59929: L2-Pf-HR :0.98285: L2-HR :0.89299: (Sim:0h10m5s) 
CPU  0 inst:   34000000 cyc:   21032159 now IPC :1.49871: AVG IPC :1.59594: L2-Pf-HR :0.98260: L2-HR :0.89283: (Sim:0h10m24s) 
CPU  0 inst:   35000005 cyc:   21700679 now IPC :1.49585: AVG IPC :1.59271: L2-Pf-HR :0.98255: L2-HR :0.89291: (Sim:0h10m43s) 
CPU  0 inst:   36000002 cyc:   22366971 now IPC :1.50084: AVG IPC :1.58985: L2-Pf-HR :0.98245: L2-HR :0.89288: (Sim:0h11m2s) 
CPU  0 inst:   37000000 cyc:   23037363 now IPC :1.49166: AVG IPC :1.58687: L2-Pf-HR :0.98227: L2-HR :0.89289: (Sim:0h11m21s) 
CPU  0 inst:   38000004 cyc:   23713701 now IPC :1.47856: AVG IPC :1.58365: L2-Pf-HR :0.98228: L2-HR :0.89290: (Sim:0h11m40s) 
CPU  0 inst:   39000003 cyc:   24461505 now IPC :1.33725: AVG IPC :1.57580: L2-Pf-HR :0.98177: L2-HR :0.89268: (Sim:0h11m59s) 
CPU  0 inst:   40000000 cyc:   25122096 now IPC :1.51379: AVG IPC :1.57410: L2-Pf-HR :0.98207: L2-HR :0.89290: (Sim:0h12m18s) 
CPU  0 inst:   41000001 cyc:   25782967 now IPC :1.51316: AVG IPC :1.57248: L2-Pf-HR :0.98240: L2-HR :0.89319: (Sim:0h12m36s) 
CPU  0 inst:   42000001 cyc:   26445859 now IPC :1.50854: AVG IPC :1.57081: L2-Pf-HR :0.98271: L2-HR :0.89336: (Sim:0h12m55s) 
CPU  0 inst:   43000005 cyc:   27105192 now IPC :1.51669: AVG IPC :1.56945: L2-Pf-HR :0.98298: L2-HR :0.89368: (Sim:0h13m14s) 
CPU  0 inst:   44000000 cyc:   27766486 now IPC :1.51218: AVG IPC :1.56803: L2-Pf-HR :0.98325: L2-HR :0.89383: (Sim:0h13m32s) 
CPU  0 inst:   45000000 cyc:   28475755 now IPC :1.40990: AVG IPC :1.56395: L2-Pf-HR :0.98310: L2-HR :0.89377: (Sim:0h13m52s) 
CPU  0 inst:   46000000 cyc:   29131038 now IPC :1.52606: AVG IPC :1.56307: L2-Pf-HR :0.98333: L2-HR :0.89395: (Sim:0h14m10s) 
CPU  0 inst:   47000000 cyc:   29785849 now IPC :1.52716: AVG IPC :1.56226: L2-Pf-HR :0.98357: L2-HR :0.89401: (Sim:0h14m29s) 
CPU  0 inst:   48000001 cyc:   30436868 now IPC :1.53605: AVG IPC :1.56168: L2-Pf-HR :0.98374: L2-HR :0.89412: (Sim:0h14m47s) 
CPU  0 inst:   49000003 cyc:   31181899 now IPC :1.34223: AVG IPC :1.55626: L2-Pf-HR :0.98321: L2-HR :0.89367: (Sim:0h15m7s) 
CPU  0 inst:   50000001 cyc:   31832625 now IPC :1.53674: AVG IPC :1.55585: L2-Pf-HR :0.98306: L2-HR :0.89372: (Sim:0h15m25s) 
CPU  0 inst:   51000001 cyc:   32492174 now IPC :1.51619: AVG IPC :1.55502: L2-Pf-HR :0.98304: L2-HR :0.89365: (Sim:0h15m44s) 
CPU  0 inst:   52000000 cyc:   33153249 now IPC :1.51269: AVG IPC :1.55415: L2-Pf-HR :0.98298: L2-HR :0.89367: (Sim:0h16m3s) 
CPU  0 inst:   53000005 cyc:   33817070 now IPC :1.50644: AVG IPC :1.55319: L2-Pf-HR :0.98297: L2-HR :0.89363: (Sim:0h16m22s) 
CPU  0 inst:   54000002 cyc:   34481572 now IPC :1.50488: AVG IPC :1.55223: L2-Pf-HR :0.98292: L2-HR :0.89362: (Sim:0h16m40s) 
CPU  0 inst:   55000005 cyc:   35227035 now IPC :1.34145: AVG IPC :1.54764: L2-Pf-HR :0.98259: L2-HR :0.89344: (Sim:0h17m0s) 
CPU  0 inst:   56000001 cyc:   35881414 now IPC :1.52816: AVG IPC :1.54727: L2-Pf-HR :0.98279: L2-HR :0.89360: (Sim:0h17m18s) 
CPU  0 inst:   57000004 cyc:   36536561 now IPC :1.52638: AVG IPC :1.54689: L2-Pf-HR :0.98301: L2-HR :0.89372: (Sim:0h17m37s) 
CPU  0 inst:   58000005 cyc:   37191970 now IPC :1.52577: AVG IPC :1.54651: L2-Pf-HR :0.98321: L2-HR :0.89395: (Sim:0h17m56s) 
CPU  0 inst:   59000002 cyc:   37842244 now IPC :1.53781: AVG IPC :1.54635: L2-Pf-HR :0.98335: L2-HR :0.89404: (Sim:0h18m14s) 
CPU  0 inst:   60000003 cyc:   38495683 now IPC :1.53037: AVG IPC :1.54608: L2-Pf-HR :0.98355: L2-HR :0.89424: (Sim:0h18m33s) 
CPU  0 inst:   61000002 cyc:   39200826 now IPC :1.41815: AVG IPC :1.54372: L2-Pf-HR :0.98345: L2-HR :0.89418: (Sim:0h18m52s) 
CPU  0 inst:   62000002 cyc:   39846799 now IPC :1.54805: AVG IPC :1.54379: L2-Pf-HR :0.98360: L2-HR :0.89424: (Sim:0h19m10s) 
CPU  0 inst:   63000005 cyc:   40491337 now IPC :1.55150: AVG IPC :1.54391: L2-Pf-HR :0.98377: L2-HR :0.89431: (Sim:0h19m29s) 
CPU  0 inst:   64000002 cyc:   41134844 now IPC :1.55398: AVG IPC :1.54407: L2-Pf-HR :0.98394: L2-HR :0.89442: (Sim:0h19m48s) 
CPU  0 inst:   65000000 cyc:   41856799 now IPC :1.38513: AVG IPC :1.54127: L2-Pf-HR :0.98363: L2-HR :0.89415: (Sim:0h20m6s) 
CPU  0 inst:   66000001 cyc:   42527129 now IPC :1.49180: AVG IPC :1.54047: L2-Pf-HR :0.98353: L2-HR :0.89406: (Sim:0h20m25s) 
CPU  0 inst:   67000000 cyc:   43195832 now IPC :1.49543: AVG IPC :1.53976: L2-Pf-HR :0.98349: L2-HR :0.89409: (Sim:0h20m44s) 
CPU  0 inst:   68000000 cyc:   43869140 now IPC :1.48520: AVG IPC :1.53890: L2-Pf-HR :0.98343: L2-HR :0.89405: (Sim:0h21m3s) 
CPU  0 inst:   69000003 cyc:   44539257 now IPC :1.49228: AVG IPC :1.53818: L2-Pf-HR :0.98336: L2-HR :0.89403: (Sim:0h21m22s) 
CPU  0 inst:   70000001 cyc:   45212680 now IPC :1.48495: AVG IPC :1.53737: L2-Pf-HR :0.98331: L2-HR :0.89403: (Sim:0h21m41s) 
CPU  0 inst:   71000003 cyc:   45945899 now IPC :1.36385: AVG IPC :1.53454: L2-Pf-HR :0.98295: L2-HR :0.89384: (Sim:0h22m0s) 
CPU  0 inst:   72000004 cyc:   46604821 now IPC :1.51763: AVG IPC :1.53430: L2-Pf-HR :0.98308: L2-HR :0.89396: (Sim:0h22m19s) 
CPU  0 inst:   73000005 cyc:   47267278 now IPC :1.50953: AVG IPC :1.53394: L2-Pf-HR :0.98324: L2-HR :0.89411: (Sim:0h22m37s) 
CPU  0 inst:   74000005 cyc:   47933468 now IPC :1.50107: AVG IPC :1.53348: L2-Pf-HR :0.98341: L2-HR :0.89419: (Sim:0h22m56s) 
CPU  0 inst:   75000001 cyc:   48596040 now IPC :1.50926: AVG IPC :1.53314: L2-Pf-HR :0.98355: L2-HR :0.89435: (Sim:0h23m15s) 
CPU  0 inst:   76000001 cyc:   49259559 now IPC :1.50712: AVG IPC :1.53278: L2-Pf-HR :0.98371: L2-HR :0.89444: (Sim:0h23m34s) 
CPU  0 inst:   77000002 cyc:   49982511 now IPC :1.38322: AVG IPC :1.53058: L2-Pf-HR :0.98366: L2-HR :0.89443: (Sim:0h23m53s) 
CPU  0 inst:   78000004 cyc:   50648277 now IPC :1.50203: AVG IPC :1.53019: L2-Pf-HR :0.98374: L2-HR :0.89445: (Sim:0h24m12s) 
CPU  0 inst:   79000000 cyc:   51313226 now IPC :1.50387: AVG IPC :1.52985: L2-Pf-HR :0.98386: L2-HR :0.89454: (Sim:0h24m30s) 
CPU  0 inst:   80000003 cyc:   51974454 now IPC :1.51234: AVG IPC :1.52962: L2-Pf-HR :0.98395: L2-HR :0.89458: (Sim:0h24m49s) 
CPU  0 inst:   81000003 cyc:   52728804 now IPC :1.32564: AVG IPC :1.52664: L2-Pf-HR :0.98368: L2-HR :0.89435: (Sim:0h25m8s) 
CPU  0 inst:   82000000 cyc:   53393057 now IPC :1.50545: AVG IPC :1.52638: L2-Pf-HR :0.98362: L2-HR :0.89435: (Sim:0h25m27s) 
CPU  0 inst:   83000005 cyc:   54061033 now IPC :1.49707: AVG IPC :1.52601: L2-Pf-HR :0.98356: L2-HR :0.89431: (Sim:0h25m46s) 
CPU  0 inst:   84000000 cyc:   54731109 now IPC :1.49236: AVG IPC :1.52559: L2-Pf-HR :0.98351: L2-HR :0.89430: (Sim:0h26m5s) 
CPU  0 inst:   85000001 cyc:   55402786 now IPC :1.48881: AVG IPC :1.52513: L2-Pf-HR :0.98347: L2-HR :0.89430: (Sim:0h26m24s) 
CPU  0 inst:   86000004 cyc:   56068797 now IPC :1.50148: AVG IPC :1.52485: L2-Pf-HR :0.98336: L2-HR :0.89426: (Sim:0h26m43s) 
CPU  0 inst:   87000000 cyc:   56802930 now IPC :1.36215: AVG IPC :1.52271: L2-Pf-HR :0.98310: L2-HR :0.89410: (Sim:0h27m2s) 
CPU  0 inst:   88000001 cyc:   57479306 now IPC :1.47847: AVG IPC :1.52218: L2-Pf-HR :0.98320: L2-HR :0.89423: (Sim:0h27m20s) 
CPU  0 inst:   89000001 cyc:   58142427 now IPC :1.50802: AVG IPC :1.52201: L2-Pf-HR :0.98333: L2-HR :0.89428: (Sim:0h27m39s) 
CPU  0 inst:   90000005 cyc:   58805723 now IPC :1.50763: AVG IPC :1.52185: L2-Pf-HR :0.98347: L2-HR :0.89444: (Sim:0h27m57s) 
CPU  0 inst:   91000004 cyc:   59469810 now IPC :1.50583: AVG IPC :1.52167: L2-Pf-HR :0.98359: L2-HR :0.89449: (Sim:0h28m16s) 
CPU  0 inst:   92000005 cyc:   60132585 now IPC :1.50881: AVG IPC :1.52152: L2-Pf-HR :0.98371: L2-HR :0.89460: (Sim:0h28m26s) 
CPU  0 inst:   93000004 cyc:   60838345 now IPC :1.41691: AVG IPC :1.52029: L2-Pf-HR :0.98369: L2-HR :0.89459: (Sim:0h28m35s) 
CPU  0 inst:   94000005 cyc:   61497657 now IPC :1.51673: AVG IPC :1.52025: L2-Pf-HR :0.98376: L2-HR :0.89461: (Sim:0h28m43s) 
CPU  0 inst:   95000002 cyc:   62151456 now IPC :1.52952: AVG IPC :1.52035: L2-Pf-HR :0.98387: L2-HR :0.89466: (Sim:0h28m51s) 
CPU  0 inst:   96000003 cyc:   62804555 now IPC :1.53116: AVG IPC :1.52046: L2-Pf-HR :0.98398: L2-HR :0.89470: (Sim:0h28m59s) 
CPU  0 inst:   97000001 cyc:   63524089 now IPC :1.38979: AVG IPC :1.51896: L2-Pf-HR :0.98382: L2-HR :0.89454: (Sim:0h29m8s) 
CPU  0 inst:   98000001 cyc:   64209649 now IPC :1.45866: AVG IPC :1.51831: L2-Pf-HR :0.98372: L2-HR :0.89450: (Sim:0h29m16s) 
CPU  0 inst:   99000001 cyc:   64871832 now IPC :1.51016: AVG IPC :1.51822: L2-Pf-HR :0.98365: L2-HR :0.89448: (Sim:0h29m24s) 
CPU  0 inst:  100000003 cyc:   65535671 now IPC :1.50639: AVG IPC :1.51810: L2-Pf-HR :0.98361: L2-HR :0.89448: (Sim:0h29m32s) 
CPU  0 inst:  101000005 cyc:   66201382 now IPC :1.50216: AVG IPC :1.51794: L2-Pf-HR :0.98353: L2-HR :0.89447: (Sim:0h29m41s) 
CPU  0 inst:  102000005 cyc:   66868963 now IPC :1.49795: AVG IPC :1.51774: L2-Pf-HR :0.98346: L2-HR :0.89445: (Sim:0h29m49s) 
CPU  0 inst:  103000000 cyc:   67544819 now IPC :1.47960: AVG IPC :1.51735: L2-Pf-HR :0.98346: L2-HR :0.89448: (Sim:0h29m57s) 
CPU  0 inst:  104000005 cyc:   68282936 now IPC :1.35481: AVG IPC :1.51557: L2-Pf-HR :0.98334: L2-HR :0.89437: (Sim:0h30m6s) 
CPU  0 inst:  105000000 cyc:   68942772 now IPC :1.51552: AVG IPC :1.51557: L2-Pf-HR :0.98343: L2-HR :0.89446: (Sim:0h30m14s) 
CPU  0 inst:  106000000 cyc:   69603943 now IPC :1.51247: AVG IPC :1.51554: L2-Pf-HR :0.98355: L2-HR :0.89451: (Sim:0h30m22s) 
CPU  0 inst:  107000005 cyc:   70264614 now IPC :1.51362: AVG IPC :1.51552: L2-Pf-HR :0.98365: L2-HR :0.89462: (Sim:0h30m30s) 
CPU  0 inst:  108000000 cyc:   70925297 now IPC :1.51358: AVG IPC :1.51550: L2-Pf-HR :0.98375: L2-HR :0.89468: (Sim:0h30m38s) 
CPU  0 inst:  109000001 cyc:   71590566 now IPC :1.50315: AVG IPC :1.51538: L2-Pf-HR :0.98387: L2-HR :0.89480: (Sim:0h30m47s) 
CPU  0 inst:  110000000 cyc:   72289823 now IPC :1.43009: AVG IPC :1.51455: L2-Pf-HR :0.98374: L2-HR :0.89471: (Sim:0h30m55s) 
CPU  0 inst:  111000000 cyc:   72958559 now IPC :1.49536: AVG IPC :1.51437: L2-Pf-HR :0.98383: L2-HR :0.89474: (Sim:0h31m3s) 
CPU  0 inst:  112000000 cyc:   73627671 now IPC :1.49452: AVG IPC :1.51419: L2-Pf-HR :0.98392: L2-HR :0.89478: (Sim:0h31m11s) 
CPU  0 inst:  113000003 cyc:   74297602 now IPC :1.49270: AVG IPC :1.51399: L2-Pf-HR :0.98401: L2-HR :0.89484: (Sim:0h31m20s) 
CPU  0 inst:  114000001 cyc:   75051047 now IPC :1.32723: AVG IPC :1.51209: L2-Pf-HR :0.98374: L2-HR :0.89462: (Sim:0h31m28s) 
CPU  0 inst:  115000004 cyc:   75722937 now IPC :1.48834: AVG IPC :1.51188: L2-Pf-HR :0.98369: L2-HR :0.89460: (Sim:0h31m36s) 
CPU  0 inst:  116000001 cyc:   76387311 now IPC :1.50517: AVG IPC :1.51182: L2-Pf-HR :0.98359: L2-HR :0.89457: (Sim:0h31m45s) 
CPU  0 inst:  117000004 cyc:   77054003 now IPC :1.49995: AVG IPC :1.51171: L2-Pf-HR :0.98354: L2-HR :0.89457: (Sim:0h31m53s) 
CPU  0 inst:  118000001 cyc:   77731397 now IPC :1.47624: AVG IPC :1.51140: L2-Pf-HR :0.98350: L2-HR :0.89455: (Sim:0h32m1s) 
CPU  0 inst:  119000003 cyc:   78400958 now IPC :1.49352: AVG IPC :1.51124: L2-Pf-HR :0.98347: L2-HR :0.89456: (Sim:0h32m10s) 
CPU  0 inst:  120000001 cyc:   79138439 now IPC :1.35596: AVG IPC :1.50978: L2-Pf-HR :0.98333: L2-HR :0.89449: (Sim:0h32m18s) 
CPU  0 inst:  121000003 cyc:   79794233 now IPC :1.52487: AVG IPC :1.50991: L2-Pf-HR :0.98342: L2-HR :0.89453: (Sim:0h32m27s) 
CPU  0 inst:  122000001 cyc:   80446568 now IPC :1.53295: AVG IPC :1.51009: L2-Pf-HR :0.98352: L2-HR :0.89463: (Sim:0h32m35s) 
CPU  0 inst:  123000005 cyc:   81099651 now IPC :1.53121: AVG IPC :1.51027: L2-Pf-HR :0.98361: L2-HR :0.89468: (Sim:0h32m43s) 
CPU  0 inst:  124000003 cyc:   81751811 now IPC :1.53336: AVG IPC :1.51045: L2-Pf-HR :0.98370: L2-HR :0.89475: (Sim:0h32m52s) 
CPU  0 inst:  125000000 cyc:   82405947 now IPC :1.52873: AVG IPC :1.51060: L2-Pf-HR :0.98380: L2-HR :0.89482: (Sim:0h33m0s) 
CPU  0 inst:  126000003 cyc:   83132443 now IPC :1.37647: AVG IPC :1.50941: L2-Pf-HR :0.98374: L2-HR :0.89475: (Sim:0h33m9s) 
CPU  0 inst:  127000004 cyc:   83798481 now IPC :1.50142: AVG IPC :1.50935: L2-Pf-HR :0.98382: L2-HR :0.89479: (Sim:0h33m17s) 
CPU  0 inst:  128000000 cyc:   84464324 now IPC :1.50185: AVG IPC :1.50929: L2-Pf-HR :0.98390: L2-HR :0.89484: (Sim:0h33m25s) 
CPU  0 inst:  129000003 cyc:   85129766 now IPC :1.50277: AVG IPC :1.50924: L2-Pf-HR :0.98397: L2-HR :0.89485: (Sim:0h33m33s) 
CPU  0 inst:  130000004 cyc:   85880018 now IPC :1.33289: AVG IPC :1.50768: L2-Pf-HR :0.98373: L2-HR :0.89469: (Sim:0h33m42s) 
CPU  0 inst:  131000002 cyc:   86549881 now IPC :1.49284: AVG IPC :1.50756: L2-Pf-HR :0.98371: L2-HR :0.89467: (Sim:0h33m50s) 
CPU  0 inst:  132000000 cyc:   87217349 now IPC :1.49820: AVG IPC :1.50749: L2-Pf-HR :0.98368: L2-HR :0.89466: (Sim:0h33m59s) 
CPU  0 inst:  133000001 cyc:   87880335 now IPC :1.50833: AVG IPC :1.50750: L2-Pf-HR :0.98363: L2-HR :0.89463: (Sim:0h34m7s) 
CPU  0 inst:  134000001 cyc:   88546190 now IPC :1.50183: AVG IPC :1.50745: L2-Pf-HR :0.98360: L2-HR :0.89463: (Sim:0h34m16s) 
CPU  0 inst:  135000001 cyc:   89215484 now IPC :1.49411: AVG IPC :1.50735: L2-Pf-HR :0.98358: L2-HR :0.89460: (Sim:0h34m24s) 
CPU  0 inst:  136000003 cyc:   89958053 now IPC :1.34668: AVG IPC :1.50601: L2-Pf-HR :0.98347: L2-HR :0.89454: (Sim:0h34m33s) 
CPU  0 inst:  137000001 cyc:   90618103 now IPC :1.51503: AVG IPC :1.50608: L2-Pf-HR :0.98354: L2-HR :0.89462: (Sim:0h34m41s) 
CPU  0 inst:  138000005 cyc:   91280136 now IPC :1.51050: AVG IPC :1.50611: L2-Pf-HR :0.98362: L2-HR :0.89466: (Sim:0h34m49s) 
CPU  0 inst:  139000005 cyc:   91935859 now IPC :1.52503: AVG IPC :1.50625: L2-Pf-HR :0.98369: L2-HR :0.89473: (Sim:0h34m58s) 
CPU  0 inst:  140000002 cyc:   92596004 now IPC :1.51481: AVG IPC :1.50631: L2-Pf-HR :0.98377: L2-HR :0.89478: (Sim:0h35m6s) 
CPU  0 inst:  141000003 cyc:   93256008 now IPC :1.51514: AVG IPC :1.50637: L2-Pf-HR :0.98384: L2-HR :0.89483: (Sim:0h35m14s) 
CPU  0 inst:  142000004 cyc:   93975969 now IPC :1.38897: AVG IPC :1.50546: L2-Pf-HR :0.98377: L2-HR :0.89480: (Sim:0h35m22s) 
CPU  0 inst:  143000004 cyc:   94638011 now IPC :1.51048: AVG IPC :1.50550: L2-Pf-HR :0.98384: L2-HR :0.89484: (Sim:0h35m31s) 
CPU  0 inst:  144000005 cyc:   95298309 now IPC :1.51447: AVG IPC :1.50556: L2-Pf-HR :0.98391: L2-HR :0.89486: (Sim:0h35m39s) 
CPU  0 inst:  145000001 cyc:   95957507 now IPC :1.51699: AVG IPC :1.50564: L2-Pf-HR :0.98398: L2-HR :0.89488: (Sim:0h35m47s) 
CPU  0 inst:  146000001 cyc:   96708165 now IPC :1.33216: AVG IPC :1.50428: L2-Pf-HR :0.98380: L2-HR :0.89474: (Sim:0h35m56s) 
CPU  0 inst:  147000001 cyc:   97376792 now IPC :1.49560: AVG IPC :1.50422: L2-Pf-HR :0.98376: L2-HR :0.89472: (Sim:0h36m4s) 
CPU  0 inst:  148000000 cyc:   98048003 now IPC :1.48984: AVG IPC :1.50412: L2-Pf-HR :0.98373: L2-HR :0.89470: (Sim:0h36m13s) 
CPU  0 inst:  149000004 cyc:   98710629 now IPC :1.50915: AVG IPC :1.50416: L2-Pf-HR :0.98368: L2-HR :0.89471: (Sim:0h36m21s) 
CPU  0 inst:  150000005 cyc:   99387739 now IPC :1.47687: AVG IPC :1.50397: L2-Pf-HR :0.98366: L2-HR :0.89468: (Sim:0h36m29s) 
CPU  0 inst:  151000000 cyc:  100060068 now IPC :1.48736: AVG IPC :1.50385: L2-Pf-HR :0.98364: L2-HR :0.89469: (Sim:0h36m38s) 
CPU  0 inst:  152000004 cyc:  100803415 now IPC :1.34527: AVG IPC :1.50267: L2-Pf-HR :0.98351: L2-HR :0.89463: (Sim:0h36m46s) 
CPU  0 inst:  153000001 cyc:  101467865 now IPC :1.50500: AVG IPC :1.50269: L2-Pf-HR :0.98358: L2-HR :0.89465: (Sim:0h36m54s) 
CPU  0 inst:  154000003 cyc:  102128422 now IPC :1.51388: AVG IPC :1.50276: L2-Pf-HR :0.98365: L2-HR :0.89473: (Sim:0h37m3s) 
CPU  0 inst:  155000003 cyc:  102789605 now IPC :1.51244: AVG IPC :1.50282: L2-Pf-HR :0.98372: L2-HR :0.89477: (Sim:0h37m11s) 
CPU  0 inst:  156000003 cyc:  103450605 now IPC :1.51286: AVG IPC :1.50289: L2-Pf-HR :0.98380: L2-HR :0.89482: (Sim:0h37m19s) 
CPU  0 inst:  157000003 cyc:  104108835 now IPC :1.51923: AVG IPC :1.50299: L2-Pf-HR :0.98386: L2-HR :0.89488: (Sim:0h37m27s) 
CPU  0 inst:  158000000 cyc:  104829886 now IPC :1.38686: AVG IPC :1.50219: L2-Pf-HR :0.98380: L2-HR :0.89485: (Sim:0h37m36s) 
CPU  0 inst:  159000001 cyc:  105495006 now IPC :1.50349: AVG IPC :1.50220: L2-Pf-HR :0.98386: L2-HR :0.89486: (Sim:0h37m44s) 
CPU  0 inst:  160000003 cyc:  106155725 now IPC :1.51351: AVG IPC :1.50227: L2-Pf-HR :0.98392: L2-HR :0.89488: (Sim:0h37m52s) 
CPU  0 inst:  161000003 cyc:  106813746 now IPC :1.51971: AVG IPC :1.50238: L2-Pf-HR :0.98398: L2-HR :0.89492: (Sim:0h38m1s) 
CPU  0 inst:  162000004 cyc:  107559576 now IPC :1.34079: AVG IPC :1.50124: L2-Pf-HR :0.98383: L2-HR :0.89480: (Sim:0h38m9s) 
CPU  0 inst:  163000002 cyc:  108219482 now IPC :1.51536: AVG IPC :1.50133: L2-Pf-HR :0.98378: L2-HR :0.89477: (Sim:0h38m18s) 
CPU  0 inst:  164000002 cyc:  108883283 now IPC :1.50648: AVG IPC :1.50136: L2-Pf-HR :0.98374: L2-HR :0.89477: (Sim:0h38m26s) 
CPU  0 inst:  165000004 cyc:  109554190 now IPC :1.49052: AVG IPC :1.50130: L2-Pf-HR :0.98372: L2-HR :0.89474: (Sim:0h38m34s) 
CPU  0 inst:  166000002 cyc:  110225205 now IPC :1.49028: AVG IPC :1.50123: L2-Pf-HR :0.98370: L2-HR :0.89475: (Sim:0h38m42s) 
CPU  0 inst:  167000001 cyc:  110897515 now IPC :1.48741: AVG IPC :1.50114: L2-Pf-HR :0.98368: L2-HR :0.89472: (Sim:0h38m51s) 
CPU  0 inst:  168000003 cyc:  111631405 now IPC :1.36260: AVG IPC :1.50023: L2-Pf-HR :0.98355: L2-HR :0.89466: (Sim:0h38m59s) 
CPU  0 inst:  169000001 cyc:  112296095 now IPC :1.50446: AVG IPC :1.50025: L2-Pf-HR :0.98361: L2-HR :0.89473: (Sim:0h39m7s) 
CPU  0 inst:  170000000 cyc:  112961980 now IPC :1.50176: AVG IPC :1.50026: L2-Pf-HR :0.98368: L2-HR :0.89475: (Sim:0h39m16s) 
CPU  0 inst:  171000004 cyc:  113626516 now IPC :1.50482: AVG IPC :1.50029: L2-Pf-HR :0.98374: L2-HR :0.89481: (Sim:0h39m29s) 
CPU  0 inst:  172000004 cyc:  114291103 now IPC :1.50469: AVG IPC :1.50031: L2-Pf-HR :0.98381: L2-HR :0.89485: (Sim:0h39m48s) 
CPU  0 inst:  173000001 cyc:  114955965 now IPC :1.50407: AVG IPC :1.50033: L2-Pf-HR :0.98387: L2-HR :0.89489: (Sim:0h40m6s) 
CPU  0 inst:  174000001 cyc:  115656251 now IPC :1.42799: AVG IPC :1.49989: L2-Pf-HR :0.98381: L2-HR :0.89488: (Sim:0h40m25s) 
CPU  0 inst:  175000002 cyc:  116319034 now IPC :1.50879: AVG IPC :1.49994: L2-Pf-HR :0.98387: L2-HR :0.89489: (Sim:0h40m43s) 
CPU  0 inst:  176000001 cyc:  116977496 now IPC :1.51869: AVG IPC :1.50005: L2-Pf-HR :0.98392: L2-HR :0.89493: (Sim:0h41m2s) 
CPU  0 inst:  177000002 cyc:  117633187 now IPC :1.52511: AVG IPC :1.50019: L2-Pf-HR :0.98398: L2-HR :0.89494: (Sim:0h41m20s) 
CPU  0 inst:  178000001 cyc:  118375947 now IPC :1.34633: AVG IPC :1.49922: L2-Pf-HR :0.98385: L2-HR :0.89484: (Sim:0h41m38s) 
CPU  0 inst:  179000005 cyc:  119040250 now IPC :1.50534: AVG IPC :1.49925: L2-Pf-HR :0.98383: L2-HR :0.89483: (Sim:0h41m57s) 
CPU  0 inst:  180000003 cyc:  119709658 now IPC :1.49385: AVG IPC :1.49922: L2-Pf-HR :0.98380: L2-HR :0.89480: (Sim:0h42m15s) 
CPU  0 inst:  181000004 cyc:  120379519 now IPC :1.49285: AVG IPC :1.49919: L2-Pf-HR :0.98378: L2-HR :0.89480: (Sim:0h42m34s) 
CPU  0 inst:  182000002 cyc:  121044904 now IPC :1.50289: AVG IPC :1.49921: L2-Pf-HR :0.98373: L2-HR :0.89477: (Sim:0h42m52s) 
CPU  0 inst:  183000002 cyc:  121718974 now IPC :1.48353: AVG IPC :1.49912: L2-Pf-HR :0.98371: L2-HR :0.89478: (Sim:0h43m11s) 
CPU  0 inst:  184000004 cyc:  122475575 now IPC :1.32170: AVG IPC :1.49801: L2-Pf-HR :0.98361: L2-HR :0.89471: (Sim:0h43m30s) 
CPU  0 inst:  185000005 cyc:  123141858 now IPC :1.50087: AVG IPC :1.49803: L2-Pf-HR :0.98366: L2-HR :0.89474: (Sim:0h43m48s) 
CPU  0 inst:  186000004 cyc:  123808525 now IPC :1.50000: AVG IPC :1.49804: L2-Pf-HR :0.98372: L2-HR :0.89480: (Sim:0h44m6s) 
CPU  0 inst:  187000005 cyc:  124475363 now IPC :1.49962: AVG IPC :1.49805: L2-Pf-HR :0.98378: L2-HR :0.89483: (Sim:0h44m22s) 
CPU  0 inst:  188000003 cyc:  125142879 now IPC :1.49809: AVG IPC :1.49805: L2-Pf-HR :0.98385: L2-HR :0.89487: (Sim:0h44m30s) 
CPU  0 inst:  189000002 cyc:  125804693 now IPC :1.51100: AVG IPC :1.49812: L2-Pf-HR :0.98389: L2-HR :0.89492: (Sim:0h44m38s) 
CPU  0 inst:  190000003 cyc:  126522747 now IPC :1.39265: AVG IPC :1.49751: L2-Pf-HR :0.98387: L2-HR :0.89489: (Sim:0h44m47s) 
CPU  0 inst:  191000005 cyc:  127192823 now IPC :1.49237: AVG IPC :1.49749: L2-Pf-HR :0.98392: L2-HR :0.89492: (Sim:0h44m55s) 
CPU  0 inst:  192000004 cyc:  127860308 now IPC :1.49816: AVG IPC :1.49749: L2-Pf-HR :0.98397: L2-HR :0.89494: (Sim:0h45m3s) 
CPU  0 inst:  193000001 cyc:  128528349 now IPC :1.49691: AVG IPC :1.49749: L2-Pf-HR :0.98402: L2-HR :0.89496: (Sim:0h45m12s) 
CPU  0 inst:  194000001 cyc:  130299935 now IPC :0.56447: AVG IPC :1.48471: L2-Pf-HR :0.98250: L2-HR :0.89236: (Sim:0h45m23s) 
CPU  0 inst:  195000000 cyc:  135152540 now IPC :0.20607: AVG IPC :1.43846: L2-Pf-HR :0.97669: L2-HR :0.88229: (Sim:0h45m44s) 
CPU  0 inst:  196000002 cyc:  140252793 now IPC :0.19607: AVG IPC :1.39296: L2-Pf-HR :0.97103: L2-HR :0.87271: (Sim:0h46m6s) 
CPU  0 inst:  197000004 cyc:  145353895 now IPC :0.19604: AVG IPC :1.35067: L2-Pf-HR :0.96544: L2-HR :0.86361: (Sim:0h46m28s) 
CPU  0 inst:  198000003 cyc:  150457399 now IPC :0.19594: AVG IPC :1.31125: L2-Pf-HR :0.95990: L2-HR :0.85495: (Sim:0h46m49s) 
CPU  0 inst:  199000005 cyc:  155560272 now IPC :0.19597: AVG IPC :1.27443: L2-Pf-HR :0.95443: L2-HR :0.84668: (Sim:0h47m11s) 
CPU  0 inst:  200000001 cyc:  160663551 now IPC :0.19595: AVG IPC :1.23996: L2-Pf-HR :0.94903: L2-HR :0.83880: (Sim:0h47m33s) 
CPU  0 inst:  201000000 cyc:  165441419 now IPC :0.20930: AVG IPC :1.21002: L2-Pf-HR :0.94423: L2-HR :0.83220: (Sim:0h47m53s) 
CPU  0 inst:  202000000 cyc:  168748848 now IPC :0.30235: AVG IPC :1.19213: L2-Pf-HR :0.94266: L2-HR :0.83099: (Sim:0h48m8s) 
CPU  0 inst:  203000002 cyc:  172055892 now IPC :0.30239: AVG IPC :1.17493: L2-Pf-HR :0.94110: L2-HR :0.82979: (Sim:0h48m23s) 
CPU  0 inst:  204000005 cyc:  175364536 now IPC :0.30224: AVG IPC :1.15837: L2-Pf-HR :0.93954: L2-HR :0.82861: (Sim:0h48m39s) 
CPU  0 inst:  205000000 cyc:  178670145 now IPC :0.30251: AVG IPC :1.14245: L2-Pf-HR :0.93799: L2-HR :0.82742: (Sim:0h48m54s) 
CPU  0 inst:  206000000 cyc:  181974943 now IPC :0.30259: AVG IPC :1.12711: L2-Pf-HR :0.93644: L2-HR :0.82624: (Sim:0h49m9s) 
CPU  0 inst:  207000000 cyc:  185281247 now IPC :0.30245: AVG IPC :1.11232: L2-Pf-HR :0.93490: L2-HR :0.82507: (Sim:0h49m24s) 
CPU  0 inst:  208000004 cyc:  188584903 now IPC :0.30270: AVG IPC :1.09806: L2-Pf-HR :0.93336: L2-HR :0.82390: (Sim:0h49m39s) 
CPU  0 inst:  209000000 cyc:  191877772 now IPC :0.30369: AVG IPC :1.08436: L2-Pf-HR :0.93183: L2-HR :0.82274: (Sim:0h49m54s) 
CPU  0 inst:  210000001 cyc:  195158679 now IPC :0.30479: AVG IPC :1.07119: L2-Pf-HR :0.93031: L2-HR :0.82158: (Sim:0h50m9s) 
CPU  0 inst:  211000001 cyc:  198431279 now IPC :0.30557: AVG IPC :1.05850: L2-Pf-HR :0.92879: L2-HR :0.82043: (Sim:0h50m24s) 
CPU  0 inst:  212000004 cyc:  201707206 now IPC :0.30526: AVG IPC :1.04620: L2-Pf-HR :0.92728: L2-HR :0.81929: (Sim:0h50m39s) 
CPU  0 inst:  213000000 cyc:  204982093 now IPC :0.30535: AVG IPC :1.03431: L2-Pf-HR :0.92577: L2-HR :0.81815: (Sim:0h50m55s) 
CPU  0 inst:  214000000 cyc:  208258793 now IPC :0.30519: AVG IPC :1.02278: L2-Pf-HR :0.92426: L2-HR :0.81701: (Sim:0h51m10s) 
CPU  0 inst:  215000000 cyc:  211544417 now IPC :0.30436: AVG IPC :1.01157: L2-Pf-HR :0.92277: L2-HR :0.81589: (Sim:0h51m25s) 
CPU  0 inst:  216000000 cyc:  214821440 now IPC :0.30516: AVG IPC :1.00075: L2-Pf-HR :0.92127: L2-HR :0.81477: (Sim:0h51m40s) 
CPU  0 inst:  217000000 cyc:  218090321 now IPC :0.30592: AVG IPC :0.99029: L2-Pf-HR :0.91979: L2-HR :0.81365: (Sim:0h51m55s) 
CPU  0 inst:  218000001 cyc:  221359630 now IPC :0.30588: AVG IPC :0.98013: L2-Pf-HR :0.91832: L2-HR :0.81254: (Sim:0h52m10s) 
CPU  0 inst:  219000003 cyc:  224640892 now IPC :0.30476: AVG IPC :0.97022: L2-Pf-HR :0.91685: L2-HR :0.81144: (Sim:0h52m25s) 
CPU  0 inst:  220000000 cyc:  227916256 now IPC :0.30531: AVG IPC :0.96063: L2-Pf-HR :0.91538: L2-HR :0.81033: (Sim:0h52m40s) 
CPU  0 inst:  221000000 cyc:  231194049 now IPC :0.30508: AVG IPC :0.95129: L2-Pf-HR :0.91392: L2-HR :0.80924: (Sim:0h52m55s) 
CPU  0 inst:  222000000 cyc:  234467874 now IPC :0.30545: AVG IPC :0.94224: L2-Pf-HR :0.91246: L2-HR :0.80815: (Sim:0h53m10s) 
CPU  0 inst:  223000000 cyc:  237747296 now IPC :0.30493: AVG IPC :0.93341: L2-Pf-HR :0.91100: L2-HR :0.80707: (Sim:0h53m25s) 
CPU  0 inst:  224000000 cyc:  241022076 now IPC :0.30536: AVG IPC :0.92484: L2-Pf-HR :0.90955: L2-HR :0.80599: (Sim:0h53m40s) 
CPU  0 inst:  225000001 cyc:  244302141 now IPC :0.30487: AVG IPC :0.91649: L2-Pf-HR :0.90811: L2-HR :0.80492: (Sim:0h53m56s) 
CPU  0 inst:  226000005 cyc:  247575731 now IPC :0.30548: AVG IPC :0.90837: L2-Pf-HR :0.90669: L2-HR :0.80386: (Sim:0h54m11s) 
CPU  0 inst:  227000000 cyc:  250855240 now IPC :0.30492: AVG IPC :0.90045: L2-Pf-HR :0.90526: L2-HR :0.80280: (Sim:0h54m26s) 
CPU  0 inst:  228000000 cyc:  254134799 now IPC :0.30492: AVG IPC :0.89274: L2-Pf-HR :0.90383: L2-HR :0.80174: (Sim:0h54m41s) 
CPU  0 inst:  229000004 cyc:  257405568 now IPC :0.30574: AVG IPC :0.88525: L2-Pf-HR :0.90241: L2-HR :0.80069: (Sim:0h54m56s) 
CPU  0 inst:  230000000 cyc:  260681558 now IPC :0.30525: AVG IPC :0.87794: L2-Pf-HR :0.90100: L2-HR :0.79965: (Sim:0h55m11s) 
CPU  0 inst:  231000000 cyc:  263954359 now IPC :0.30555: AVG IPC :0.87081: L2-Pf-HR :0.89958: L2-HR :0.79860: (Sim:0h55m31s) 
CPU  0 inst:  232000000 cyc:  267231160 now IPC :0.30518: AVG IPC :0.86385: L2-Pf-HR :0.89817: L2-HR :0.79757: (Sim:0h55m51s) 
CPU  0 inst:  233000000 cyc:  270503317 now IPC :0.30561: AVG IPC :0.85707: L2-Pf-HR :0.89678: L2-HR :0.79654: (Sim:0h56m14s) 
CPU  0 inst:  234000003 cyc:  273787517 now IPC :0.30449: AVG IPC :0.85042: L2-Pf-HR :0.89539: L2-HR :0.79552: (Sim:0h56m30s) 
CPU  0 inst:  235000000 cyc:  277056311 now IPC :0.30592: AVG IPC :0.84397: L2-Pf-HR :0.89400: L2-HR :0.79450: (Sim:0h57m3s) 
CPU  0 inst:  236000000 cyc:  280339968 now IPC :0.30454: AVG IPC :0.83763: L2-Pf-HR :0.89261: L2-HR :0.79348: (Sim:0h57m37s) 
CPU  0 inst:  237000000 cyc:  283618659 now IPC :0.30500: AVG IPC :0.83145: L2-Pf-HR :0.89123: L2-HR :0.79247: (Sim:0h58m11s) 
CPU  0 inst:  238000000 cyc:  286894154 now IPC :0.30530: AVG IPC :0.82543: L2-Pf-HR :0.88985: L2-HR :0.79147: (Sim:0h58m44s) 
CPU  0 inst:  239000000 cyc:  290172763 now IPC :0.30501: AVG IPC :0.81953: L2-Pf-HR :0.88848: L2-HR :0.79047: (Sim:0h59m18s) 
CPU  0 inst:  240000000 cyc:  293446204 now IPC :0.30549: AVG IPC :0.81377: L2-Pf-HR :0.88711: L2-HR :0.78947: (Sim:0h59m51s) 
CPU  0 inst:  241000001 cyc:  296716230 now IPC :0.30581: AVG IPC :0.80816: L2-Pf-HR :0.88576: L2-HR :0.78848: (Sim:1h0m25s) 
CPU  0 inst:  242000000 cyc:  299994829 now IPC :0.30501: AVG IPC :0.80264: L2-Pf-HR :0.88440: L2-HR :0.78750: (Sim:1h0m58s) 
CPU  0 inst:  243000000 cyc:  303270362 now IPC :0.30529: AVG IPC :0.79725: L2-Pf-HR :0.88304: L2-HR :0.78651: (Sim:1h1m32s) 
CPU  0 inst:  244000000 cyc:  306549096 now IPC :0.30500: AVG IPC :0.79197: L2-Pf-HR :0.88170: L2-HR :0.78554: (Sim:1h2m5s) 
CPU  0 inst:  245000000 cyc:  309821920 now IPC :0.30555: AVG IPC :0.78681: L2-Pf-HR :0.88036: L2-HR :0.78457: (Sim:1h2m39s) 
CPU  0 inst:  246000004 cyc:  313094758 now IPC :0.30555: AVG IPC :0.78177: L2-Pf-HR :0.87902: L2-HR :0.78360: (Sim:1h3m12s) 
CPU  0 inst:  247000000 cyc:  316375008 now IPC :0.30485: AVG IPC :0.77681: L2-Pf-HR :0.87769: L2-HR :0.78264: (Sim:1h3m46s) 
CPU  0 inst:  248000002 cyc:  319653386 now IPC :0.30503: AVG IPC :0.77195: L2-Pf-HR :0.87637: L2-HR :0.78168: (Sim:1h4m19s) 
CPU  0 inst:  249000003 cyc:  322933744 now IPC :0.30485: AVG IPC :0.76719: L2-Pf-HR :0.87504: L2-HR :0.78073: (Sim:1h4m53s) 
CPU  0 inst:  250000004 cyc:  326209988 now IPC :0.30523: AVG IPC :0.76254: L2-Pf-HR :0.87372: L2-HR :0.77978: (Sim:1h5m26s) 
CPU  0 inst:  251000000 cyc:  329487159 now IPC :0.30514: AVG IPC :0.75798: L2-Pf-HR :0.87241: L2-HR :0.77883: (Sim:1h6m0s) 
CPU  0 inst:  252000000 cyc:  332763407 now IPC :0.30523: AVG IPC :0.75351: L2-Pf-HR :0.87109: L2-HR :0.77789: (Sim:1h6m33s) 
CPU  0 inst:  253000000 cyc:  336041789 now IPC :0.30503: AVG IPC :0.74912: L2-Pf-HR :0.86979: L2-HR :0.77696: (Sim:1h7m7s) 
CPU  0 inst:  254000000 cyc:  339309820 now IPC :0.30599: AVG IPC :0.74484: L2-Pf-HR :0.86848: L2-HR :0.77602: (Sim:1h7m34s) 
CPU  0 inst:  255000002 cyc:  342589191 now IPC :0.30494: AVG IPC :0.74062: L2-Pf-HR :0.86719: L2-HR :0.77510: (Sim:1h7m49s) 
CPU  0 inst:  256000001 cyc:  345866063 now IPC :0.30517: AVG IPC :0.73648: L2-Pf-HR :0.86590: L2-HR :0.77418: (Sim:1h8m4s) 
CPU  0 inst:  257000000 cyc:  349142869 now IPC :0.30517: AVG IPC :0.73242: L2-Pf-HR :0.86462: L2-HR :0.77326: (Sim:1h8m19s) 
CPU  0 inst:  258000000 cyc:  352416857 now IPC :0.30544: AVG IPC :0.72844: L2-Pf-HR :0.86333: L2-HR :0.77234: (Sim:1h8m34s) 
CPU  0 inst:  259000000 cyc:  355690383 now IPC :0.30548: AVG IPC :0.72454: L2-Pf-HR :0.86205: L2-HR :0.77143: (Sim:1h8m49s) 
CPU  0 inst:  260000000 cyc:  358963509 now IPC :0.30552: AVG IPC :0.72071: L2-Pf-HR :0.86078: L2-HR :0.77053: (Sim:1h9m4s) 
CPU  0 inst:  261000000 cyc:  362246154 now IPC :0.30463: AVG IPC :0.71693: L2-Pf-HR :0.85951: L2-HR :0.76963: (Sim:1h9m19s) 
CPU  0 inst:  262000000 cyc:  365514967 now IPC :0.30592: AVG IPC :0.71324: L2-Pf-HR :0.85824: L2-HR :0.76873: (Sim:1h9m34s) 
CPU  0 inst:  263000001 cyc:  368791987 now IPC :0.30516: AVG IPC :0.70960: L2-Pf-HR :0.85698: L2-HR :0.76784: (Sim:1h9m49s) 
CPU  0 inst:  264000003 cyc:  372072510 now IPC :0.30483: AVG IPC :0.70603: L2-Pf-HR :0.85573: L2-HR :0.76695: (Sim:1h10m4s) 
CPU  0 inst:  265000000 cyc:  375352440 now IPC :0.30488: AVG IPC :0.70251: L2-Pf-HR :0.85448: L2-HR :0.76606: (Sim:1h10m20s) 
CPU  0 inst:  266000000 cyc:  378629678 now IPC :0.30513: AVG IPC :0.69906: L2-Pf-HR :0.85323: L2-HR :0.76518: (Sim:1h10m35s) 
CPU  0 inst:  267000004 cyc:  381901912 now IPC :0.30560: AVG IPC :0.69568: L2-Pf-HR :0.85198: L2-HR :0.76430: (Sim:1h10m50s) 
CPU  0 inst:  268000000 cyc:  385177295 now IPC :0.30531: AVG IPC :0.69236: L2-Pf-HR :0.85074: L2-HR :0.76343: (Sim:1h11m5s) 
CPU  0 inst:  269000000 cyc:  388453728 now IPC :0.30521: AVG IPC :0.68908: L2-Pf-HR :0.84950: L2-HR :0.76256: (Sim:1h11m20s) 
CPU  0 inst:  270000001 cyc:  391727586 now IPC :0.30545: AVG IPC :0.68587: L2-Pf-HR :0.84828: L2-HR :0.76170: (Sim:1h11m35s) 
CPU  0 inst:  271000000 cyc:  395007529 now IPC :0.30488: AVG IPC :0.68270: L2-Pf-HR :0.84706: L2-HR :0.76084: (Sim:1h11m50s) 
CPU  0 inst:  272000000 cyc:  398283151 now IPC :0.30529: AVG IPC :0.67958: L2-Pf-HR :0.84584: L2-HR :0.75998: (Sim:1h12m5s) 
CPU  0 inst:  273000000 cyc:  401559045 now IPC :0.30526: AVG IPC :0.67652: L2-Pf-HR :0.84462: L2-HR :0.75912: (Sim:1h12m20s) 
CPU  0 inst:  274000000 cyc:  404832544 now IPC :0.30548: AVG IPC :0.67352: L2-Pf-HR :0.84340: L2-HR :0.75827: (Sim:1h12m35s) 
CPU  0 inst:  275000000 cyc:  408111675 now IPC :0.30496: AVG IPC :0.67055: L2-Pf-HR :0.84219: L2-HR :0.75743: (Sim:1h12m50s) 
CPU  0 inst:  276000000 cyc:  411382980 now IPC :0.30569: AVG IPC :0.66764: L2-Pf-HR :0.84098: L2-HR :0.75658: (Sim:1h13m5s) 
CPU  0 inst:  277000000 cyc:  414661926 now IPC :0.30498: AVG IPC :0.66476: L2-Pf-HR :0.83978: L2-HR :0.75575: (Sim:1h13m20s) 
CPU  0 inst:  278000001 cyc:  417943394 now IPC :0.30474: AVG IPC :0.66193: L2-Pf-HR :0.83859: L2-HR :0.75491: (Sim:1h13m35s) 
CPU  0 inst:  279000003 cyc:  421219103 now IPC :0.30528: AVG IPC :0.65915: L2-Pf-HR :0.83739: L2-HR :0.75408: (Sim:1h13m50s) 
CPU  0 inst:  280000000 cyc:  424492981 now IPC :0.30545: AVG IPC :0.65642: L2-Pf-HR :0.83620: L2-HR :0.75325: (Sim:1h14m5s) 
CPU  0 inst:  281000000 cyc:  427768439 now IPC :0.30530: AVG IPC :0.65372: L2-Pf-HR :0.83502: L2-HR :0.75243: (Sim:1h14m21s) 
CPU  0 inst:  282000000 cyc:  431041045 now IPC :0.30557: AVG IPC :0.65107: L2-Pf-HR :0.83383: L2-HR :0.75161: (Sim:1h14m36s) 
CPU  0 inst:  283000000 cyc:  434315514 now IPC :0.30539: AVG IPC :0.64846: L2-Pf-HR :0.83265: L2-HR :0.75079: (Sim:1h14m52s) 
CPU  0 inst:  284000004 cyc:  437595028 now IPC :0.30492: AVG IPC :0.64588: L2-Pf-HR :0.83147: L2-HR :0.74998: (Sim:1h15m7s) 
CPU  0 inst:  285000000 cyc:  440870762 now IPC :0.30527: AVG IPC :0.64334: L2-Pf-HR :0.83031: L2-HR :0.74917: (Sim:1h15m22s) 
CPU  0 inst:  286000003 cyc:  444149346 now IPC :0.30501: AVG IPC :0.64084: L2-Pf-HR :0.82914: L2-HR :0.74836: (Sim:1h15m56s) 
CPU  0 inst:  287000000 cyc:  447422595 now IPC :0.30551: AVG IPC :0.63838: L2-Pf-HR :0.82798: L2-HR :0.74756: (Sim:1h16m30s) 
CPU  0 inst:  288000004 cyc:  450695983 now IPC :0.30550: AVG IPC :0.63596: L2-Pf-HR :0.82683: L2-HR :0.74676: (Sim:1h17m4s) 
CPU  0 inst:  289000000 cyc:  453972640 now IPC :0.30519: AVG IPC :0.63357: L2-Pf-HR :0.82567: L2-HR :0.74596: (Sim:1h17m39s) 
CPU  0 inst:  290000000 cyc:  457243943 now IPC :0.30569: AVG IPC :0.63122: L2-Pf-HR :0.82452: L2-HR :0.74517: (Sim:1h18m13s) 
CPU  0 inst:  291000000 cyc:  460519357 now IPC :0.30530: AVG IPC :0.62889: L2-Pf-HR :0.82337: L2-HR :0.74438: (Sim:1h18m47s) 
CPU  0 inst:  292000000 cyc:  463792667 now IPC :0.30550: AVG IPC :0.62661: L2-Pf-HR :0.82222: L2-HR :0.74359: (Sim:1h19m21s) 
CPU  0 inst:  293000001 cyc:  467070489 now IPC :0.30508: AVG IPC :0.62434: L2-Pf-HR :0.82109: L2-HR :0.74282: (Sim:1h19m55s) 
CPU  0 inst:  294000001 cyc:  470351698 now IPC :0.30477: AVG IPC :0.62211: L2-Pf-HR :0.81995: L2-HR :0.74204: (Sim:1h20m30s) 
CPU  0 inst:  295000000 cyc:  473633593 now IPC :0.30470: AVG IPC :0.61991: L2-Pf-HR :0.81882: L2-HR :0.74126: (Sim:1h21m4s) 
CPU  0 inst:  296000000 cyc:  476910161 now IPC :0.30520: AVG IPC :0.61774: L2-Pf-HR :0.81769: L2-HR :0.74049: (Sim:1h21m38s) 
CPU  0 inst:  297000003 cyc:  478297188 now IPC :0.72097: AVG IPC :0.61804: L2-Pf-HR :0.81777: L2-HR :0.74076: (Sim:1h22m3s) 
CPU  0 inst:  298000000 cyc:  478880507 now IPC :1.71432: AVG IPC :0.61938: L2-Pf-HR :0.81857: L2-HR :0.74161: (Sim:1h22m25s) 
CPU  0 inst:  299000004 cyc:  479461013 now IPC :1.72264: AVG IPC :0.62072: L2-Pf-HR :0.81936: L2-HR :0.74244: (Sim:1h22m47s) 
CPU  0 inst:  300000000 cyc:  480058252 now IPC :1.67436: AVG IPC :0.62203: L2-Pf-HR :0.82004: L2-HR :0.74322: (Sim:1h23m9s) 
CPU  0 inst:  301000000 cyc:  480622595 now IPC :1.77197: AVG IPC :0.62338: L2-Pf-HR :0.82080: L2-HR :0.74404: (Sim:1h23m30s) 
CPU  0 inst:  302000002 cyc:  481131966 now IPC :1.96321: AVG IPC :0.62480: L2-Pf-HR :0.82168: L2-HR :0.74494: (Sim:1h23m52s) 
CPU  0 inst:  303000000 cyc:  481640477 now IPC :1.96652: AVG IPC :0.62622: L2-Pf-HR :0.82251: L2-HR :0.74581: (Sim:1h24m13s) 
CPU  0 inst:  304000005 cyc:  482150689 now IPC :1.95998: AVG IPC :0.62764: L2-Pf-HR :0.82332: L2-HR :0.74666: (Sim:1h24m34s) 
CPU  0 inst:  305000002 cyc:  482682102 now IPC :1.88177: AVG IPC :0.62902: L2-Pf-HR :0.82410: L2-HR :0.74750: (Sim:1h24m56s) 
CPU  0 inst:  306000005 cyc:  483188984 now IPC :1.97285: AVG IPC :0.63043: L2-Pf-HR :0.82485: L2-HR :0.74829: (Sim:1h25m18s) 
CPU  0 inst:  307000004 cyc:  483696087 now IPC :1.97198: AVG IPC :0.63184: L2-Pf-HR :0.82557: L2-HR :0.74906: (Sim:1h25m39s) 
CPU  0 inst:  308000005 cyc:  484202720 now IPC :1.97382: AVG IPC :0.63325: L2-Pf-HR :0.82629: L2-HR :0.74985: (Sim:1h26m0s) 
CPU  0 inst:  309000001 cyc:  484737086 now IPC :1.87137: AVG IPC :0.63462: L2-Pf-HR :0.82699: L2-HR :0.75062: (Sim:1h26m22s) 
CPU  0 inst:  310000001 cyc:  485257566 now IPC :1.92130: AVG IPC :0.63600: L2-Pf-HR :0.82751: L2-HR :0.75123: (Sim:1h26m43s) 
CPU  0 inst:  311000004 cyc:  485778877 now IPC :1.91825: AVG IPC :0.63738: L2-Pf-HR :0.82807: L2-HR :0.75188: (Sim:1h27m5s) 
CPU  0 inst:  312000000 cyc:  486299395 now IPC :1.92116: AVG IPC :0.63876: L2-Pf-HR :0.82865: L2-HR :0.75254: (Sim:1h27m26s) 
CPU  0 inst:  313000003 cyc:  486845999 now IPC :1.82948: AVG IPC :0.64010: L2-Pf-HR :0.82916: L2-HR :0.75316: (Sim:1h27m47s) 
CPU  0 inst:  314000000 cyc:  487443554 now IPC :1.67348: AVG IPC :0.64137: L2-Pf-HR :0.82967: L2-HR :0.75382: (Sim:1h28m9s) 
CPU  0 inst:  315000001 cyc:  488039633 now IPC :1.67763: AVG IPC :0.64263: L2-Pf-HR :0.83026: L2-HR :0.75453: (Sim:1h28m31s) 
CPU  0 inst:  316000000 cyc:  488616865 now IPC :1.73240: AVG IPC :0.64392: L2-Pf-HR :0.83087: L2-HR :0.75526: (Sim:1h28m53s) 
CPU  0 inst:  317000005 cyc:  489199709 now IPC :1.71573: AVG IPC :0.64520: L2-Pf-HR :0.83140: L2-HR :0.75594: (Sim:1h29m15s) 
CPU  0 inst:  318000000 cyc:  489737087 now IPC :1.86088: AVG IPC :0.64654: L2-Pf-HR :0.83204: L2-HR :0.75668: (Sim:1h29m37s) 
CPU  0 inst:  319000000 cyc:  490253637 now IPC :1.93592: AVG IPC :0.64790: L2-Pf-HR :0.83274: L2-HR :0.75748: (Sim:1h29m58s) 
CPU  0 inst:  320000001 cyc:  490762765 now IPC :1.96414: AVG IPC :0.64927: L2-Pf-HR :0.83345: L2-HR :0.75829: (Sim:1h30m20s) 
CPU  0 inst:  321000001 cyc:  491272068 now IPC :1.96347: AVG IPC :0.65063: L2-Pf-HR :0.83414: L2-HR :0.75907: (Sim:1h30m41s) 
CPU  0 inst:  322000003 cyc:  491805310 now IPC :1.87532: AVG IPC :0.65196: L2-Pf-HR :0.83463: L2-HR :0.75971: (Sim:1h31m3s) 
CPU  0 inst:  323000001 cyc:  492315153 now IPC :1.96138: AVG IPC :0.65332: L2-Pf-HR :0.83524: L2-HR :0.76040: (Sim:1h31m24s) 
CPU  0 inst:  324000000 cyc:  492821089 now IPC :1.97653: AVG IPC :0.65468: L2-Pf-HR :0.83584: L2-HR :0.76109: (Sim:1h31m46s) 
CPU  0 inst:  325000002 cyc:  493323635 now IPC :1.98987: AVG IPC :0.65605: L2-Pf-HR :0.83645: L2-HR :0.76180: (Sim:1h32m7s) 
CPU  0 inst:  326000002 cyc:  493849640 now IPC :1.90112: AVG IPC :0.65738: L2-Pf-HR :0.83682: L2-HR :0.76233: (Sim:1h32m28s) 
CPU  0 inst:  327000004 cyc:  494368903 now IPC :1.92581: AVG IPC :0.65871: L2-Pf-HR :0.83723: L2-HR :0.76285: (Sim:1h32m50s) 
CPU  0 inst:  328000002 cyc:  494888013 now IPC :1.92637: AVG IPC :0.66004: L2-Pf-HR :0.83764: L2-HR :0.76338: (Sim:1h33m11s) 
CPU  0 inst:  329000000 cyc:  495407607 now IPC :1.92458: AVG IPC :0.66137: L2-Pf-HR :0.83804: L2-HR :0.76391: (Sim:1h33m32s) 
CPU  0 inst:  330000002 cyc:  495955482 now IPC :1.82524: AVG IPC :0.66266: L2-Pf-HR :0.83835: L2-HR :0.76439: (Sim:1h33m54s) 
CPU  0 inst:  331000005 cyc:  496511265 now IPC :1.79927: AVG IPC :0.66394: L2-Pf-HR :0.83884: L2-HR :0.76502: (Sim:1h34m16s) 
CPU  0 inst:  332000001 cyc:  497066857 now IPC :1.79987: AVG IPC :0.66521: L2-Pf-HR :0.83932: L2-HR :0.76565: (Sim:1h34m37s) 
CPU  0 inst:  333000002 cyc:  497626009 now IPC :1.78842: AVG IPC :0.66647: L2-Pf-HR :0.83980: L2-HR :0.76627: (Sim:1h34m59s) 
CPU  0 inst:  334000001 cyc:  498188173 now IPC :1.77884: AVG IPC :0.66773: L2-Pf-HR :0.84018: L2-HR :0.76684: (Sim:1h35m21s) 
CPU  0 inst:  335000003 cyc:  498692512 now IPC :1.98280: AVG IPC :0.66906: L2-Pf-HR :0.84079: L2-HR :0.76755: (Sim:1h35m42s) 
CPU  0 inst:  336000003 cyc:  499196516 now IPC :1.98411: AVG IPC :0.67039: L2-Pf-HR :0.84139: L2-HR :0.76826: (Sim:1h36m3s) 
CPU  0 inst:  337000003 cyc:  499700592 now IPC :1.98383: AVG IPC :0.67172: L2-Pf-HR :0.84193: L2-HR :0.76894: (Sim:1h36m25s) 
CPU  0 inst:  338000004 cyc:  500207318 now IPC :1.97346: AVG IPC :0.67304: L2-Pf-HR :0.84248: L2-HR :0.76962: (Sim:1h36m46s) 
CPU  0 inst:  339000000 cyc:  500718633 now IPC :1.95573: AVG IPC :0.67435: L2-Pf-HR :0.84296: L2-HR :0.77022: (Sim:1h37m8s) 
CPU  0 inst:  340000001 cyc:  501220109 now IPC :1.99412: AVG IPC :0.67568: L2-Pf-HR :0.84345: L2-HR :0.77084: (Sim:1h37m29s) 
CPU  0 inst:  341000003 cyc:  501721689 now IPC :1.99370: AVG IPC :0.67700: L2-Pf-HR :0.84393: L2-HR :0.77144: (Sim:1h37m50s) 
CPU  0 inst:  342000001 cyc:  502224037 now IPC :1.99065: AVG IPC :0.67831: L2-Pf-HR :0.84438: L2-HR :0.77203: (Sim:1h38m12s) 
CPU  0 inst:  343000000 cyc:  502748777 now IPC :1.90570: AVG IPC :0.67960: L2-Pf-HR :0.84478: L2-HR :0.77256: (Sim:1h38m33s) 
CPU  0 inst:  344000004 cyc:  503266897 now IPC :1.93006: AVG IPC :0.68089: L2-Pf-HR :0.84511: L2-HR :0.77302: (Sim:1h38m54s) 
CPU  0 inst:  345000000 cyc:  503785766 now IPC :1.92726: AVG IPC :0.68217: L2-Pf-HR :0.84543: L2-HR :0.77349: (Sim:1h39m16s) 
CPU  0 inst:  346000001 cyc:  504303424 now IPC :1.93178: AVG IPC :0.68346: L2-Pf-HR :0.84578: L2-HR :0.77396: (Sim:1h39m37s) 
CPU  0 inst:  347000005 cyc:  504863739 now IPC :1.78472: AVG IPC :0.68468: L2-Pf-HR :0.84609: L2-HR :0.77444: (Sim:1h39m59s) 
CPU  0 inst:  348000000 cyc:  505423178 now IPC :1.78750: AVG IPC :0.68591: L2-Pf-HR :0.84643: L2-HR :0.77495: (Sim:1h40m21s) 
CPU  0 inst:  349000000 cyc:  505979798 now IPC :1.79656: AVG IPC :0.68713: L2-Pf-HR :0.84680: L2-HR :0.77548: (Sim:1h40m42s) 
CPU  0 inst:  350000002 cyc:  506537683 now IPC :1.79249: AVG IPC :0.68835: L2-Pf-HR :0.84718: L2-HR :0.77601: (Sim:1h41m4s) 
CPU  0 inst:  351000000 cyc:  507079575 now IPC :1.84538: AVG IPC :0.68959: L2-Pf-HR :0.84750: L2-HR :0.77652: (Sim:1h41m26s) 
CPU  0 inst:  352000002 cyc:  507584125 now IPC :1.98197: AVG IPC :0.69088: L2-Pf-HR :0.84800: L2-HR :0.77714: (Sim:1h41m47s) 
CPU  0 inst:  353000005 cyc:  508088547 now IPC :1.98247: AVG IPC :0.69216: L2-Pf-HR :0.84849: L2-HR :0.77776: (Sim:1h42m9s) 
CPU  0 inst:  354000003 cyc:  508592419 now IPC :1.98463: AVG IPC :0.69344: L2-Pf-HR :0.84898: L2-HR :0.77839: (Sim:1h42m30s) 
CPU  0 inst:  355000005 cyc:  509107461 now IPC :1.94159: AVG IPC :0.69471: L2-Pf-HR :0.84934: L2-HR :0.77892: (Sim:1h42m52s) 
CPU  0 inst:  356000004 cyc:  509609259 now IPC :1.99283: AVG IPC :0.69599: L2-Pf-HR :0.84979: L2-HR :0.77949: (Sim:1h43m13s) 
CPU  0 inst:  357000002 cyc:  510110644 now IPC :1.99447: AVG IPC :0.69727: L2-Pf-HR :0.85026: L2-HR :0.78007: (Sim:1h43m34s) 
CPU  0 inst:  358000003 cyc:  510612030 now IPC :1.99447: AVG IPC :0.69855: L2-Pf-HR :0.85070: L2-HR :0.78064: (Sim:1h43m56s) 
CPU  0 inst:  359000002 cyc:  511126683 now IPC :1.94305: AVG IPC :0.69980: L2-Pf-HR :0.85103: L2-HR :0.78113: (Sim:1h44m17s) 
CPU  0 inst:  360000005 cyc:  511646722 now IPC :1.92294: AVG IPC :0.70105: L2-Pf-HR :0.85130: L2-HR :0.78154: (Sim:1h44m38s) 
CPU  0 inst:  361000004 cyc:  512165100 now IPC :1.92909: AVG IPC :0.70229: L2-Pf-HR :0.85163: L2-HR :0.78199: (Sim:1h44m59s) 
CPU  0 inst:  362000004 cyc:  512682072 now IPC :1.93434: AVG IPC :0.70354: L2-Pf-HR :0.85193: L2-HR :0.78241: (Sim:1h45m20s) 
CPU  0 inst:  363000002 cyc:  513201018 now IPC :1.92698: AVG IPC :0.70478: L2-Pf-HR :0.85219: L2-HR :0.78282: (Sim:1h45m41s) 
CPU  0 inst:  364000001 cyc:  513768777 now IPC :1.76131: AVG IPC :0.70595: L2-Pf-HR :0.85245: L2-HR :0.78325: (Sim:1h46m2s) 
CPU  0 inst:  365000005 cyc:  514325487 now IPC :1.79627: AVG IPC :0.70713: L2-Pf-HR :0.85276: L2-HR :0.78372: (Sim:1h46m24s) 
CPU  0 inst:  366000004 cyc:  514880975 now IPC :1.80022: AVG IPC :0.70831: L2-Pf-HR :0.85306: L2-HR :0.78418: (Sim:1h46m45s) 
CPU  0 inst:  367000000 cyc:  515440646 now IPC :1.78676: AVG IPC :0.70948: L2-Pf-HR :0.85335: L2-HR :0.78464: (Sim:1h47m7s) 
CPU  0 inst:  368000001 cyc:  515969050 now IPC :1.89249: AVG IPC :0.71070: L2-Pf-HR :0.85365: L2-HR :0.78510: (Sim:1h47m28s) 
CPU  0 inst:  369000002 cyc:  516472564 now IPC :1.98604: AVG IPC :0.71194: L2-Pf-HR :0.85407: L2-HR :0.78566: (Sim:1h47m49s) 
CPU  0 inst:  370000000 cyc:  516977008 now IPC :1.98238: AVG IPC :0.71318: L2-Pf-HR :0.85448: L2-HR :0.78621: (Sim:1h48m10s) 
CPU  0 inst:  371000005 cyc:  517481238 now IPC :1.98323: AVG IPC :0.71442: L2-Pf-HR :0.85485: L2-HR :0.78673: (Sim:1h48m31s) 
CPU  0 inst:  372000002 cyc:  517994728 now IPC :1.94745: AVG IPC :0.71565: L2-Pf-HR :0.85516: L2-HR :0.78720: (Sim:1h48m52s) 
CPU  0 inst:  373000002 cyc:  518496386 now IPC :1.99339: AVG IPC :0.71689: L2-Pf-HR :0.85552: L2-HR :0.78769: (Sim:1h49m13s) 
CPU  0 inst:  374000005 cyc:  518998685 now IPC :1.99085: AVG IPC :0.71812: L2-Pf-HR :0.85585: L2-HR :0.78816: (Sim:1h49m35s) 
CPU  0 inst:  375000004 cyc:  519500104 now IPC :1.99434: AVG IPC :0.71936: L2-Pf-HR :0.85617: L2-HR :0.78862: (Sim:1h49m56s) 
CPU  0 inst:  376000000 cyc:  520017473 now IPC :1.93285: AVG IPC :0.72057: L2-Pf-HR :0.85645: L2-HR :0.78905: (Sim:1h50m17s) 
CPU  0 inst:  377000001 cyc:  520535970 now IPC :1.92865: AVG IPC :0.72177: L2-Pf-HR :0.85668: L2-HR :0.78940: (Sim:1h50m38s) 
CPU  0 inst:  378000001 cyc:  521053284 now IPC :1.93306: AVG IPC :0.72298: L2-Pf-HR :0.85692: L2-HR :0.78977: (Sim:1h50m59s) 
CPU  0 inst:  379000005 cyc:  521571147 now IPC :1.93102: AVG IPC :0.72418: L2-Pf-HR :0.85716: L2-HR :0.79014: (Sim:1h51m20s) 
CPU  0 inst:  380000000 cyc:  522110897 now IPC :1.85270: AVG IPC :0.72535: L2-Pf-HR :0.85737: L2-HR :0.79051: (Sim:1h51m41s) 
CPU  0 inst:  381000001 cyc:  522673341 now IPC :1.77796: AVG IPC :0.72648: L2-Pf-HR :0.85759: L2-HR :0.79089: (Sim:1h52m2s) 
CPU  0 inst:  382000005 cyc:  523234755 now IPC :1.78122: AVG IPC :0.72762: L2-Pf-HR :0.85782: L2-HR :0.79128: (Sim:1h52m24s) 
CPU  0 inst:  383000005 cyc:  523792060 now IPC :1.79435: AVG IPC :0.72875: L2-Pf-HR :0.85807: L2-HR :0.79169: (Sim:1h52m45s) 
CPU  0 inst:  384000001 cyc:  524352797 now IPC :1.78336: AVG IPC :0.72988: L2-Pf-HR :0.85827: L2-HR :0.79206: (Sim:1h53m7s) 
CPU  0 inst:  385000003 cyc:  524858885 now IPC :1.97594: AVG IPC :0.73109: L2-Pf-HR :0.85859: L2-HR :0.79253: (Sim:1h53m28s) 
CPU  0 inst:  386000005 cyc:  525362610 now IPC :1.98521: AVG IPC :0.73229: L2-Pf-HR :0.85893: L2-HR :0.79301: (Sim:1h53m49s) 
CPU  0 inst:  387000000 cyc:  525866647 now IPC :1.98397: AVG IPC :0.73349: L2-Pf-HR :0.85927: L2-HR :0.79349: (Sim:1h54m10s) 
CPU  0 inst:  388000001 cyc:  526373192 now IPC :1.97416: AVG IPC :0.73469: L2-Pf-HR :0.85956: L2-HR :0.79393: (Sim:1h54m31s) 
CPU  0 inst:  389000000 cyc:  526885757 now IPC :1.95097: AVG IPC :0.73588: L2-Pf-HR :0.85982: L2-HR :0.79434: (Sim:1h54m52s) 
CPU  0 inst:  390000001 cyc:  527387285 now IPC :1.99391: AVG IPC :0.73707: L2-Pf-HR :0.86013: L2-HR :0.79477: (Sim:1h55m13s) 
CPU  0 inst:  391000004 cyc:  527889056 now IPC :1.99295: AVG IPC :0.73827: L2-Pf-HR :0.86043: L2-HR :0.79521: (Sim:1h55m35s) 
CPU  0 inst:  392000004 cyc:  528390648 now IPC :1.99365: AVG IPC :0.73946: L2-Pf-HR :0.86073: L2-HR :0.79564: (Sim:1h55m56s) 
CPU  0 inst:  393000004 cyc:  528916148 now IPC :1.90295: AVG IPC :0.74062: L2-Pf-HR :0.86088: L2-HR :0.79594: (Sim:1h56m17s) 
CPU  0 inst:  394000000 cyc:  529434197 now IPC :1.93031: AVG IPC :0.74179: L2-Pf-HR :0.86108: L2-HR :0.79627: (Sim:1h56m38s) 
CPU  0 inst:  395000000 cyc:  529951969 now IPC :1.93135: AVG IPC :0.74295: L2-Pf-HR :0.86128: L2-HR :0.79660: (Sim:1h56m59s) 
CPU  0 inst:  396000001 cyc:  530470096 now IPC :1.93003: AVG IPC :0.74411: L2-Pf-HR :0.86150: L2-HR :0.79693: (Sim:1h57m20s) 
CPU  0 inst:  397000002 cyc:  531022686 now IPC :1.80966: AVG IPC :0.74522: L2-Pf-HR :0.86162: L2-HR :0.79722: (Sim:1h57m41s) 
CPU  0 inst:  398000001 cyc:  531578119 now IPC :1.80040: AVG IPC :0.74633: L2-Pf-HR :0.86183: L2-HR :0.79758: (Sim:1h58m3s) 
CPU  0 inst:  399000002 cyc:  532134532 now IPC :1.79723: AVG IPC :0.74743: L2-Pf-HR :0.86205: L2-HR :0.79795: (Sim:1h58m24s) 
CPU  0 inst:  400000005 cyc:  532691210 now IPC :1.79638: AVG IPC :0.74853: L2-Pf-HR :0.86226: L2-HR :0.79832: (Sim:1h58m46s) 
CPU  0 inst:  401000002 cyc:  533240883 now IPC :1.81926: AVG IPC :0.74963: L2-Pf-HR :0.86242: L2-HR :0.79865: (Sim:1h59m9s) 
CPU  0 inst:  402000002 cyc:  533744730 now IPC :1.98473: AVG IPC :0.75080: L2-Pf-HR :0.86273: L2-HR :0.79909: (Sim:1h59m31s) 
CPU  0 inst:  403000003 cyc:  534248201 now IPC :1.98621: AVG IPC :0.75197: L2-Pf-HR :0.86304: L2-HR :0.79953: (Sim:1h59m53s) 
CPU  0 inst:  404000005 cyc:  534751402 now IPC :1.98728: AVG IPC :0.75313: L2-Pf-HR :0.86334: L2-HR :0.79997: (Sim:2h0m15s) 
CPU  0 inst:  405000003 cyc:  535267142 now IPC :1.93896: AVG IPC :0.75428: L2-Pf-HR :0.86356: L2-HR :0.80035: (Sim:2h0m37s) 
CPU  0 inst:  406000005 cyc:  535768674 now IPC :1.99389: AVG IPC :0.75544: L2-Pf-HR :0.86384: L2-HR :0.80075: (Sim:2h0m59s) 
CPU  0 inst:  407000002 cyc:  536269919 now IPC :1.99503: AVG IPC :0.75660: L2-Pf-HR :0.86413: L2-HR :0.80116: (Sim:2h1m22s) 
CPU  0 inst:  408000003 cyc:  536771737 now IPC :1.99276: AVG IPC :0.75776: L2-Pf-HR :0.86437: L2-HR :0.80154: (Sim:2h1m44s) 
CPU  0 inst:  409000005 cyc:  537275959 now IPC :1.98326: AVG IPC :0.75891: L2-Pf-HR :0.86464: L2-HR :0.80194: (Sim:2h2m6s) 
CPU  0 inst:  410000001 cyc:  537799988 now IPC :1.90828: AVG IPC :0.76003: L2-Pf-HR :0.86478: L2-HR :0.80221: (Sim:2h2m28s) 
CPU  0 inst:  411000003 cyc:  538318280 now IPC :1.92942: AVG IPC :0.76116: L2-Pf-HR :0.86495: L2-HR :0.80250: (Sim:2h2m50s) 
CPU  0 inst:  412000005 cyc:  538836419 now IPC :1.92999: AVG IPC :0.76229: L2-Pf-HR :0.86510: L2-HR :0.80278: (Sim:2h3m12s) 
CPU  0 inst:  413000000 cyc:  539355500 now IPC :1.92647: AVG IPC :0.76341: L2-Pf-HR :0.86524: L2-HR :0.80305: (Sim:2h3m34s) 
CPU  0 inst:  414000004 cyc:  539917687 now IPC :1.77877: AVG IPC :0.76447: L2-Pf-HR :0.86541: L2-HR :0.80336: (Sim:2h3m56s) 
CPU  0 inst:  415000005 cyc:  540478639 now IPC :1.78269: AVG IPC :0.76553: L2-Pf-HR :0.86556: L2-HR :0.80366: (Sim:2h4m19s) 
CPU  0 inst:  416000001 cyc:  541039338 now IPC :1.78348: AVG IPC :0.76658: L2-Pf-HR :0.86572: L2-HR :0.80397: (Sim:2h4m41s) 
CPU  0 inst:  417000002 cyc:  541595725 now IPC :1.79731: AVG IPC :0.76765: L2-Pf-HR :0.86590: L2-HR :0.80429: (Sim:2h5m4s) 
CPU  0 inst:  418000002 cyc:  542127952 now IPC :1.87890: AVG IPC :0.76874: L2-Pf-HR :0.86607: L2-HR :0.80461: (Sim:2h5m26s) 
CPU  0 inst:  419000000 cyc:  542632056 now IPC :1.98371: AVG IPC :0.76987: L2-Pf-HR :0.86632: L2-HR :0.80499: (Sim:2h5m48s) 
CPU  0 inst:  420000000 cyc:  543136253 now IPC :1.98335: AVG IPC :0.77100: L2-Pf-HR :0.86657: L2-HR :0.80538: (Sim:2h6m10s) 
CPU  0 inst:  421000003 cyc:  543640530 now IPC :1.98304: AVG IPC :0.77212: L2-Pf-HR :0.86682: L2-HR :0.80576: (Sim:2h6m32s) 
CPU  0 inst:  422000005 cyc:  544155839 now IPC :1.94059: AVG IPC :0.77323: L2-Pf-HR :0.86699: L2-HR :0.80607: (Sim:2h6m55s) 
CPU  0 inst:  423000003 cyc:  544657266 now IPC :1.99430: AVG IPC :0.77436: L2-Pf-HR :0.86722: L2-HR :0.80643: (Sim:2h7m17s) 
CPU  0 inst:  424000000 cyc:  545158796 now IPC :1.99389: AVG IPC :0.77548: L2-Pf-HR :0.86746: L2-HR :0.80679: (Sim:2h7m39s) 
CPU  0 inst:  425000000 cyc:  545660383 now IPC :1.99367: AVG IPC :0.77660: L2-Pf-HR :0.86769: L2-HR :0.80714: (Sim:2h8m1s) 
CPU  0 inst:  426000002 cyc:  546178764 now IPC :1.92909: AVG IPC :0.77770: L2-Pf-HR :0.86783: L2-HR :0.80742: (Sim:2h8m23s) 
CPU  0 inst:  427000001 cyc:  546695916 now IPC :1.93367: AVG IPC :0.77880: L2-Pf-HR :0.86798: L2-HR :0.80768: (Sim:2h8m45s) 
CPU  0 inst:  428000004 cyc:  547213920 now IPC :1.93049: AVG IPC :0.77989: L2-Pf-HR :0.86813: L2-HR :0.80795: (Sim:2h9m7s) 
CPU  0 inst:  429000002 cyc:  547731669 now IPC :1.93143: AVG IPC :0.78098: L2-Pf-HR :0.86828: L2-HR :0.80821: (Sim:2h9m29s) 
CPU  0 inst:  430000002 cyc:  548269874 now IPC :1.85803: AVG IPC :0.78204: L2-Pf-HR :0.86835: L2-HR :0.80842: (Sim:2h9m51s) 
CPU  0 inst:  431000001 cyc:  548830033 now IPC :1.78521: AVG IPC :0.78306: L2-Pf-HR :0.86851: L2-HR :0.80871: (Sim:2h10m14s) 
CPU  0 inst:  432000001 cyc:  549386036 now IPC :1.79855: AVG IPC :0.78409: L2-Pf-HR :0.86866: L2-HR :0.80900: (Sim:2h10m36s) 
CPU  0 inst:  433000004 cyc:  549943970 now IPC :1.79233: AVG IPC :0.78512: L2-Pf-HR :0.86883: L2-HR :0.80930: (Sim:2h10m59s) 
CPU  0 inst:  434000002 cyc:  550508354 now IPC :1.77184: AVG IPC :0.78613: L2-Pf-HR :0.86895: L2-HR :0.80956: (Sim:2h11m21s) 
CPU  0 inst:  435000003 cyc:  551024551 now IPC :1.93725: AVG IPC :0.78721: L2-Pf-HR :0.86916: L2-HR :0.80990: (Sim:2h11m43s) 
CPU  0 inst:  436000002 cyc:  551528731 now IPC :1.98342: AVG IPC :0.78831: L2-Pf-HR :0.86941: L2-HR :0.81028: (Sim:2h12m5s) 
CPU  0 inst:  437000004 cyc:  552032903 now IPC :1.98345: AVG IPC :0.78940: L2-Pf-HR :0.86965: L2-HR :0.81065: (Sim:2h12m28s) 
CPU  0 inst:  438000002 cyc:  552536830 now IPC :1.98441: AVG IPC :0.79049: L2-Pf-HR :0.86988: L2-HR :0.81100: (Sim:2h12m50s) 
CPU  0 inst:  439000005 cyc:  553051847 now IPC :1.94169: AVG IPC :0.79157: L2-Pf-HR :0.87003: L2-HR :0.81130: (Sim:2h13m12s) 
CPU  0 inst:  440000005 cyc:  553553883 now IPC :1.99189: AVG IPC :0.79266: L2-Pf-HR :0.87026: L2-HR :0.81164: (Sim:2h13m34s) 
CPU  0 inst:  441000004 cyc:  554055739 now IPC :1.99260: AVG IPC :0.79374: L2-Pf-HR :0.87049: L2-HR :0.81198: (Sim:2h13m56s) 
CPU  0 inst:  442000001 cyc:  554557706 now IPC :1.99216: AVG IPC :0.79483: L2-Pf-HR :0.87067: L2-HR :0.81229: (Sim:2h14m18s) 
CPU  0 inst:  443000004 cyc:  555078859 now IPC :1.91883: AVG IPC :0.79589: L2-Pf-HR :0.87080: L2-HR :0.81254: (Sim:2h14m40s) 
CPU  0 inst:  444000003 cyc:  555595634 now IPC :1.93508: AVG IPC :0.79695: L2-Pf-HR :0.87098: L2-HR :0.81282: (Sim:2h15m2s) 
CPU  0 inst:  445000001 cyc:  556113622 now IPC :1.93054: AVG IPC :0.79801: L2-Pf-HR :0.87114: L2-HR :0.81308: (Sim:2h15m24s) 
CPU  0 inst:  446000003 cyc:  556633276 now IPC :1.92436: AVG IPC :0.79906: L2-Pf-HR :0.87127: L2-HR :0.81332: (Sim:2h15m46s) 
CPU  0 inst:  447000005 cyc:  557177458 now IPC :1.83762: AVG IPC :0.80008: L2-Pf-HR :0.87140: L2-HR :0.81356: (Sim:2h16m8s) 
CPU  0 inst:  448000002 cyc:  557738333 now IPC :1.78292: AVG IPC :0.80107: L2-Pf-HR :0.87152: L2-HR :0.81381: (Sim:2h16m31s) 
CPU  0 inst:  449000002 cyc:  558300646 now IPC :1.77837: AVG IPC :0.80205: L2-Pf-HR :0.87162: L2-HR :0.81405: (Sim:2h16m53s) 
CPU  0 inst:  450000004 cyc:  558858657 now IPC :1.79208: AVG IPC :0.80304: L2-Pf-HR :0.87174: L2-HR :0.81430: (Sim:2h17m16s) 
CPU  0 inst:  451000004 cyc:  559413301 now IPC :1.80296: AVG IPC :0.80404: L2-Pf-HR :0.87187: L2-HR :0.81456: (Sim:2h17m38s) 
CPU  0 inst:  452000005 cyc:  559917134 now IPC :1.98479: AVG IPC :0.80510: L2-Pf-HR :0.87205: L2-HR :0.81487: (Sim:2h18m0s) 
CPU  0 inst:  453000000 cyc:  560421419 now IPC :1.98300: AVG IPC :0.80616: L2-Pf-HR :0.87225: L2-HR :0.81519: (Sim:2h18m22s) 
CPU  0 inst:  454000002 cyc:  560925628 now IPC :1.98331: AVG IPC :0.80722: L2-Pf-HR :0.87246: L2-HR :0.81552: (Sim:2h18m44s) 
CPU  0 inst:  455000001 cyc:  561440272 now IPC :1.94309: AVG IPC :0.80827: L2-Pf-HR :0.87262: L2-HR :0.81581: (Sim:2h19m7s) 
CPU  0 inst:  456000000 cyc:  561944202 now IPC :1.98440: AVG IPC :0.80932: L2-Pf-HR :0.87278: L2-HR :0.81608: (Sim:2h19m21s) 
CPU  0 inst:  457000000 cyc:  562445985 now IPC :1.99289: AVG IPC :0.81038: L2-Pf-HR :0.87296: L2-HR :0.81638: (Sim:2h19m31s) 
CPU  0 inst:  458000005 cyc:  562947545 now IPC :1.99379: AVG IPC :0.81144: L2-Pf-HR :0.87315: L2-HR :0.81668: (Sim:2h19m40s) 
CPU  0 inst:  459000003 cyc:  563450872 now IPC :1.98678: AVG IPC :0.81249: L2-Pf-HR :0.87330: L2-HR :0.81694: (Sim:2h19m49s) 
CPU  0 inst:  460000001 cyc:  563975604 now IPC :1.90573: AVG IPC :0.81351: L2-Pf-HR :0.87339: L2-HR :0.81715: (Sim:2h19m58s) 
CPU  0 inst:  461000003 cyc:  564492367 now IPC :1.93513: AVG IPC :0.81454: L2-Pf-HR :0.87351: L2-HR :0.81736: (Sim:2h20m7s) 
CPU  0 inst:  462000000 cyc:  565010102 now IPC :1.93148: AVG IPC :0.81556: L2-Pf-HR :0.87362: L2-HR :0.81758: (Sim:2h20m16s) 
CPU  0 inst:  463000005 cyc:  565526950 now IPC :1.93481: AVG IPC :0.81659: L2-Pf-HR :0.87373: L2-HR :0.81779: (Sim:2h20m25s) 
CPU  0 inst:  464000003 cyc:  566091684 now IPC :1.77074: AVG IPC :0.81754: L2-Pf-HR :0.87377: L2-HR :0.81797: (Sim:2h20m35s) 
CPU  0 inst:  465000000 cyc:  566649435 now IPC :1.79291: AVG IPC :0.81850: L2-Pf-HR :0.87390: L2-HR :0.81821: (Sim:2h20m44s) 
CPU  0 inst:  466000001 cyc:  567207767 now IPC :1.79105: AVG IPC :0.81946: L2-Pf-HR :0.87402: L2-HR :0.81845: (Sim:2h20m54s) 
CPU  0 inst:  467000001 cyc:  567765684 now IPC :1.79238: AVG IPC :0.82042: L2-Pf-HR :0.87413: L2-HR :0.81869: (Sim:2h21m3s) 
CPU  0 inst:  468000005 cyc:  568308397 now IPC :1.84260: AVG IPC :0.82140: L2-Pf-HR :0.87422: L2-HR :0.81890: (Sim:2h21m12s) 
CPU  0 inst:  469000004 cyc:  568812431 now IPC :1.98399: AVG IPC :0.82243: L2-Pf-HR :0.87442: L2-HR :0.81921: (Sim:2h21m21s) 
CPU  0 inst:  470000005 cyc:  569316491 now IPC :1.98389: AVG IPC :0.82346: L2-Pf-HR :0.87461: L2-HR :0.81951: (Sim:2h21m30s) 
CPU  0 inst:  471000004 cyc:  569820629 now IPC :1.98358: AVG IPC :0.82449: L2-Pf-HR :0.87479: L2-HR :0.81981: (Sim:2h21m40s) 
CPU  0 inst:  472000001 cyc:  570336435 now IPC :1.93871: AVG IPC :0.82550: L2-Pf-HR :0.87490: L2-HR :0.82004: (Sim:2h21m59s) 
CPU  0 inst:  473000001 cyc:  570837910 now IPC :1.99412: AVG IPC :0.82652: L2-Pf-HR :0.87507: L2-HR :0.82032: (Sim:2h22m21s) 
CPU  0 inst:  474000000 cyc:  571339144 now IPC :1.99507: AVG IPC :0.82755: L2-Pf-HR :0.87524: L2-HR :0.82060: (Sim:2h22m42s) 
CPU  0 inst:  475000001 cyc:  571840988 now IPC :1.99265: AVG IPC :0.82857: L2-Pf-HR :0.87541: L2-HR :0.82087: (Sim:2h23m4s) 
CPU  0 inst:  476000003 cyc:  572356575 now IPC :1.93954: AVG IPC :0.82958: L2-Pf-HR :0.87551: L2-HR :0.82109: (Sim:2h23m27s) 
CPU  0 inst:  477000005 cyc:  572874067 now IPC :1.93240: AVG IPC :0.83058: L2-Pf-HR :0.87562: L2-HR :0.82129: (Sim:2h23m48s) 
CPU  0 inst:  478000000 cyc:  573391740 now IPC :1.93171: AVG IPC :0.83157: L2-Pf-HR :0.87575: L2-HR :0.82151: (Sim:2h24m10s) 
CPU  0 inst:  479000001 cyc:  573910076 now IPC :1.92925: AVG IPC :0.83256: L2-Pf-HR :0.87585: L2-HR :0.82171: (Sim:2h24m32s) 
CPU  0 inst:  480000000 cyc:  574431509 now IPC :1.91779: AVG IPC :0.83355: L2-Pf-HR :0.87595: L2-HR :0.82190: (Sim:2h24m54s) 
CPU  0 inst:  481000005 cyc:  575001699 now IPC :1.75381: AVG IPC :0.83447: L2-Pf-HR :0.87602: L2-HR :0.82210: (Sim:2h25m17s) 
CPU  0 inst:  482000004 cyc:  575563606 now IPC :1.77965: AVG IPC :0.83539: L2-Pf-HR :0.87611: L2-HR :0.82230: (Sim:2h25m39s) 
CPU  0 inst:  483000003 cyc:  576126257 now IPC :1.77730: AVG IPC :0.83631: L2-Pf-HR :0.87618: L2-HR :0.82250: (Sim:2h26m1s) 
CPU  0 inst:  484000004 cyc:  576689529 now IPC :1.77534: AVG IPC :0.83723: L2-Pf-HR :0.87625: L2-HR :0.82269: (Sim:2h26m24s) 
CPU  0 inst:  485000000 cyc:  577208008 now IPC :1.92871: AVG IPC :0.83821: L2-Pf-HR :0.87642: L2-HR :0.82296: (Sim:2h26m46s) 
CPU  0 inst:  486000001 cyc:  577714763 now IPC :1.97334: AVG IPC :0.83921: L2-Pf-HR :0.87657: L2-HR :0.82323: (Sim:2h27m8s) 
CPU  0 inst:  487000005 cyc:  578221516 now IPC :1.97336: AVG IPC :0.84020: L2-Pf-HR :0.87674: L2-HR :0.82351: (Sim:2h27m30s) 
CPU  0 inst:  488000005 cyc:  578728099 now IPC :1.97401: AVG IPC :0.84120: L2-Pf-HR :0.87691: L2-HR :0.82379: (Sim:2h27m52s) 
CPU  0 inst:  489000002 cyc:  579243981 now IPC :1.93842: AVG IPC :0.84218: L2-Pf-HR :0.87702: L2-HR :0.82401: (Sim:2h28m14s) 
CPU  0 inst:  490000002 cyc:  579745395 now IPC :1.99436: AVG IPC :0.84318: L2-Pf-HR :0.87716: L2-HR :0.82425: (Sim:2h28m36s) 
CPU  0 inst:  491000002 cyc:  580246905 now IPC :1.99398: AVG IPC :0.84417: L2-Pf-HR :0.87731: L2-HR :0.82451: (Sim:2h28m58s) 
CPU  0 inst:  492000001 cyc:  580748227 now IPC :1.99472: AVG IPC :0.84517: L2-Pf-HR :0.87746: L2-HR :0.82475: (Sim:2h29m20s) 
CPU  0 inst:  493000002 cyc:  581270580 now IPC :1.91442: AVG IPC :0.84613: L2-Pf-HR :0.87753: L2-HR :0.82493: (Sim:2h29m42s) 
Finished CPU 0 instr: 491000000 cyc: 580289242 AVG IPC: 0.84613 (Sim time: 2h29m42s)

ChampSim completed all CPUs

[ROI Statistics]
Core_0_instructions 491000000
Core_0_cycles 580289242
Core_0_IPC 0.84613

Core_0_branch_prediction_accuracy 99.58586
Core_0_branch_MPKI 0.12051
Core_0_average_ROB_occupancy_at_mispredict 567.92058

Core_0_L1D_total_access 253549946
Core_0_L1D_total_hit 243047525 L1D_total_Hit Ratio: 0.95858
Core_0_L1D_total_miss 10502421
Core_0_L1D_loads 143156912
Core_0_L1D_load_hit 139533968 L1D_load_Hit Ratio: 0.97469
Core_0_L1D_load_miss 3622944
Core_0_L1D_RFOs 12933245
Core_0_L1D_RFO_hit 12219130 L1D_RFO_Hit Ratio: 0.94478
Core_0_L1D_RFO_miss 714115
Core_0_L1D_prefetches 97459789
Core_0_L1D_prefetch_hit 91294427 L1D_prefetch_Hit Ratio: 0.93674
Core_0_L1D_prefetch_miss 6165362
Core_0_L1D_writebacks 0
Core_0_L1D_writeback_hit 0 L1D_writeback_Hit Ratio: -nan
Core_0_L1D_writeback_miss 0
Core_0_L1D_prefetch_requested 274269485
Core_0_L1D_prefetch_issued 133085961
Core_0_L1D_prefetch_useful 5693663 L1D_Useful Ratio: 0.04278
Core_0_L1D_prefetch_useless 488169
Core_0_L1D_prefetch_late 494982
Core_0_L1D_average_miss_latency 9168196.23882

Core_0_L1I_total_access 77792115
Core_0_L1I_total_hit 77790137 L1I_total_Hit Ratio: 0.99997
Core_0_L1I_total_miss 1978
Core_0_L1I_loads 77792115
Core_0_L1I_load_hit 77790137 L1I_load_Hit Ratio: 0.99997
Core_0_L1I_load_miss 1978
Core_0_L1I_RFOs 0
Core_0_L1I_RFO_hit 0 L1I_RFO_Hit Ratio: -nan
Core_0_L1I_RFO_miss 0
Core_0_L1I_prefetches 0
Core_0_L1I_prefetch_hit 0 L1I_prefetch_Hit Ratio: -nan
Core_0_L1I_prefetch_miss 0
Core_0_L1I_writebacks 0
Core_0_L1I_writeback_hit 0 L1I_writeback_Hit Ratio: -nan
Core_0_L1I_writeback_miss 0
Core_0_L1I_prefetch_requested 0
Core_0_L1I_prefetch_issued 0
Core_0_L1I_prefetch_useful 0 L1I_Useful Ratio: -nan
Core_0_L1I_prefetch_useless 0
Core_0_L1I_prefetch_late 0
Core_0_L1I_average_miss_latency 260.45804

Core_0_L2C_total_access 25270885
Core_0_L2C_total_hit 20846770 L2C_total_Hit Ratio: 0.82493
Core_0_L2C_total_miss 4424115
Core_0_L2C_loads 3130050
Core_0_L2C_load_hit 1640276 L2C_load_Hit Ratio: 0.52404
Core_0_L2C_load_miss 1489774
Core_0_L2C_RFOs 714104
Core_0_L2C_RFO_hit 48769 L2C_RFO_Hit Ratio: 0.06829
Core_0_L2C_RFO_miss 665335
Core_0_L2C_prefetches 18527596
Core_0_L2C_prefetch_hit 16258608 L2C_prefetch_Hit Ratio: 0.87753
Core_0_L2C_prefetch_miss 2268988
Core_0_L2C_writebacks 2899135
Core_0_L2C_writeback_hit 2899117 L2C_writeback_Hit Ratio: 0.99999
Core_0_L2C_writeback_miss 18
Core_0_L2C_prefetch_requested 24117034
Core_0_L2C_prefetch_issued 23099181
Core_0_L2C_prefetch_useful 153856 L2C_Useful Ratio: 0.00666
Core_0_L2C_prefetch_useless 2065845
Core_0_L2C_prefetch_late 548257
Core_0_L2C_average_miss_latency 299.54914

Core_0_LLC_total_access 6854431
Core_0_LLC_total_hit 2720464 LLC_total_Hit Ratio: 0.39689
Core_0_LLC_total_miss 4133967
Core_0_LLC_loads 941592
Core_0_LLC_load_hit 58424 LLC_load_Hit Ratio: 0.06205
Core_0_LLC_load_miss 883168
Core_0_LLC_RFOs 665333
Core_0_LLC_RFO_hit 229 LLC_RFO_Hit Ratio: 0.00034
Core_0_LLC_RFO_miss 665104
Core_0_LLC_prefetches 2817172
Core_0_LLC_prefetch_hit 246982 LLC_prefetch_Hit Ratio: 0.08767
Core_0_LLC_prefetch_miss 2570190
Core_0_LLC_writebacks 2430334
Core_0_LLC_writeback_hit 2414829 LLC_writeback_Hit Ratio: 0.99362
Core_0_LLC_writeback_miss 15505
Core_0_LLC_prefetch_requested 0
Core_0_LLC_prefetch_issued 0
Core_0_LLC_prefetch_useful 54352 LLC_Useful Ratio: inf
Core_0_LLC_prefetch_useless 2408412
Core_0_LLC_prefetch_late 0
Core_0_LLC_average_miss_latency 296.40436

Core_0_major_page_fault 0
Core_0_minor_page_fault 28665


Channel_0_RQ_row_buffer_hit 2190382
Channel_0_RQ_row_buffer_miss 1928080
Channel_0_WQ_row_buffer_hit 861984
Channel_0_WQ_row_buffer_miss 1544435
Channel_0_WQ_full 6731
Channel_0_dbus_congested 3137601

avg_congested_cycle 8

EzSearch AVG IPC :0.84613: L2-Pf-HR :0.87753 : L2-HR :0.82493 Uful:0.00666
     > Finished combination: TraceType=770-tot Sim:491000000 Prefetcher=L2ipcp L1=ipcp
