TRACE: [331000000][Pythia-70M]_[h8][s1024][d64] Warmup: 2000000 NumTraces: 331000000
L1:berti:L2:berti
*************************************************
   ChampSim Multicore Out-of-Order Simulator
   Last compiled: Oct 26 2024 21:02:17
*************************************************

trace_0 770-tot_memTraces_v3/memTraces[331000000][Pythia-70M]_[h8][s1024][d64].champsim.xz
CPU 0 L1D Berti prefetcher
CPU 0 L2C Berti prefetcher
MAIN.cc ln 751 stats print skipped
CPU  0 inst:    1000000 cyc:     497460 now IPC :2.01021: AVG IPC :2.01021: L2-Pf-HR :0.67688: L2-HR :0.68104: (Sim:0h0m24s) 
CPU  0 inst:    2000003 cyc:     979508 now IPC :2.07449: AVG IPC :2.04184: L2-Pf-HR :0.75918: L2-HR :0.76788: (Sim:0h0m49s) 

Warmup complete CPU  0 instructions:    2000003 cycles:     979508 (Simulation time: 0 hr 0 min 49 sec) 

CPU  0 inst:    3000005 cyc:    1440024 now IPC :2.17148: AVG IPC :2.17148: L2-Pf-HR :0.86185: L2-HR :0.88049: (Sim:0h1m10s) 
CPU  0 inst:    4000001 cyc:    1901425 now IPC :2.16730: AVG IPC :2.16939: L2-Pf-HR :0.86508: L2-HR :0.88270: (Sim:0h1m31s) 
CPU  0 inst:    5000000 cyc:    2363719 now IPC :2.16312: AVG IPC :2.16730: L2-Pf-HR :0.86492: L2-HR :0.88222: (Sim:0h1m52s) 
CPU  0 inst:    6000001 cyc:    2826620 now IPC :2.16029: AVG IPC :2.16554: L2-Pf-HR :0.87501: L2-HR :0.89020: (Sim:0h2m13s) 
CPU  0 inst:    7000004 cyc:    3387000 now IPC :1.78451: AVG IPC :2.07685: L2-Pf-HR :0.86270: L2-HR :0.87541: (Sim:0h2m37s) 
CPU  0 inst:    8000001 cyc:    3835402 now IPC :2.23013: AVG IPC :2.10092: L2-Pf-HR :0.86119: L2-HR :0.87638: (Sim:0h3m0s) 
CPU  0 inst:    9000001 cyc:    4279239 now IPC :2.25308: AVG IPC :2.12138: L2-Pf-HR :0.86225: L2-HR :0.87889: (Sim:0h3m21s) 
CPU  0 inst:   10000001 cyc:    4723330 now IPC :2.25179: AVG IPC :2.13685: L2-Pf-HR :0.86422: L2-HR :0.88171: (Sim:0h3m44s) 
CPU  0 inst:   11000001 cyc:    5168301 now IPC :2.24734: AVG IPC :2.14859: L2-Pf-HR :0.86628: L2-HR :0.88432: (Sim:0h4m6s) 
CPU  0 inst:   12000002 cyc:    5613157 now IPC :2.24792: AVG IPC :2.15813: L2-Pf-HR :0.87290: L2-HR :0.89039: (Sim:0h4m23s) 
CPU  0 inst:   13000000 cyc:    6139424 now IPC :1.90017: AVG IPC :2.13182: L2-Pf-HR :0.86911: L2-HR :0.88585: (Sim:0h4m36s) 
CPU  0 inst:   14000005 cyc:    6589015 now IPC :2.22425: AVG IPC :2.13923: L2-Pf-HR :0.86884: L2-HR :0.88624: (Sim:0h4m49s) 
CPU  0 inst:   15000000 cyc:    7040655 now IPC :2.21414: AVG IPC :2.14481: L2-Pf-HR :0.86932: L2-HR :0.88704: (Sim:0h5m3s) 
CPU  0 inst:   16000001 cyc:    7492104 now IPC :2.21509: AVG IPC :2.14968: L2-Pf-HR :0.87219: L2-HR :0.88973: (Sim:0h5m13s) 
CPU  0 inst:   17000003 cyc:    8059200 now IPC :1.76337: AVG IPC :2.11874: L2-Pf-HR :0.86864: L2-HR :0.88453: (Sim:0h5m25s) 
CPU  0 inst:   18000000 cyc:    8520337 now IPC :2.16855: AVG IPC :2.12178: L2-Pf-HR :0.86700: L2-HR :0.88337: (Sim:0h5m34s) 
CPU  0 inst:   19000003 cyc:    8979470 now IPC :2.17802: AVG IPC :2.12501: L2-Pf-HR :0.86706: L2-HR :0.88352: (Sim:0h5m43s) 
CPU  0 inst:   20000002 cyc:    9438150 now IPC :2.18017: AVG IPC :2.12800: L2-Pf-HR :0.86777: L2-HR :0.88417: (Sim:0h5m52s) 
CPU  0 inst:   21000003 cyc:    9894404 now IPC :2.19176: AVG IPC :2.13126: L2-Pf-HR :0.86904: L2-HR :0.88532: (Sim:0h6m2s) 
CPU  0 inst:   22000005 cyc:   10353115 now IPC :2.18003: AVG IPC :2.13365: L2-Pf-HR :0.87128: L2-HR :0.88719: (Sim:0h6m11s) 
CPU  0 inst:   23000002 cyc:   10920286 now IPC :1.76313: AVG IPC :2.11251: L2-Pf-HR :0.86992: L2-HR :0.88484: (Sim:0h6m22s) 
CPU  0 inst:   24000002 cyc:   11381028 now IPC :2.17041: AVG IPC :2.11508: L2-Pf-HR :0.86859: L2-HR :0.88418: (Sim:0h6m34s) 
CPU  0 inst:   25000002 cyc:   11828484 now IPC :2.23486: AVG IPC :2.12002: L2-Pf-HR :0.86877: L2-HR :0.88476: (Sim:0h6m45s) 
CPU  0 inst:   26000004 cyc:   12276082 now IPC :2.23415: AVG IPC :2.12454: L2-Pf-HR :0.86890: L2-HR :0.88523: (Sim:0h6m56s) 
CPU  0 inst:   27000005 cyc:   12721090 now IPC :2.24715: AVG IPC :2.12919: L2-Pf-HR :0.86939: L2-HR :0.88599: (Sim:0h7m7s) 
CPU  0 inst:   28000000 cyc:   13166357 now IPC :2.24583: AVG IPC :2.13345: L2-Pf-HR :0.87098: L2-HR :0.88758: (Sim:0h7m19s) 
CPU  0 inst:   29000004 cyc:   13756546 now IPC :1.69438: AVG IPC :2.11317: L2-Pf-HR :0.87048: L2-HR :0.88632: (Sim:0h7m30s) 
CPU  0 inst:   30000001 cyc:   14231347 now IPC :2.10614: AVG IPC :2.11291: L2-Pf-HR :0.87024: L2-HR :0.88629: (Sim:0h7m40s) 
CPU  0 inst:   31000003 cyc:   14697967 now IPC :2.14308: AVG IPC :2.11394: L2-Pf-HR :0.87070: L2-HR :0.88683: (Sim:0h7m50s) 
CPU  0 inst:   32000000 cyc:   15161879 now IPC :2.15557: AVG IPC :2.11530: L2-Pf-HR :0.87163: L2-HR :0.88777: (Sim:0h8m0s) 
CPU  0 inst:   33000000 cyc:   15827976 now IPC :1.50128: AVG IPC :2.08776: L2-Pf-HR :0.87097: L2-HR :0.88602: (Sim:0h8m11s) 
CPU  0 inst:   34000000 cyc:   16374724 now IPC :1.82900: AVG IPC :2.07857: L2-Pf-HR :0.87014: L2-HR :0.88517: (Sim:0h8m20s) 
CPU  0 inst:   35000001 cyc:   16901168 now IPC :1.89954: AVG IPC :2.07265: L2-Pf-HR :0.87013: L2-HR :0.88507: (Sim:0h8m30s) 
CPU  0 inst:   36000004 cyc:   17417526 now IPC :1.93665: AVG IPC :2.06838: L2-Pf-HR :0.87047: L2-HR :0.88522: (Sim:0h8m39s) 
CPU  0 inst:   37000000 cyc:   17935239 now IPC :1.93156: AVG IPC :2.06420: L2-Pf-HR :0.87118: L2-HR :0.88566: (Sim:0h8m55s) 
CPU  0 inst:   38000001 cyc:   18433396 now IPC :2.00740: AVG IPC :2.06258: L2-Pf-HR :0.87241: L2-HR :0.88661: (Sim:0h9m15s) 
CPU  0 inst:   39000000 cyc:   19110025 now IPC :1.47791: AVG IPC :2.04076: L2-Pf-HR :0.87225: L2-HR :0.88558: (Sim:0h9m30s) 
CPU  0 inst:   40000002 cyc:   19673373 now IPC :1.77511: AVG IPC :2.03275: L2-Pf-HR :0.87157: L2-HR :0.88500: (Sim:0h9m41s) 
CPU  0 inst:   41000000 cyc:   20194455 now IPC :1.91908: AVG IPC :2.02967: L2-Pf-HR :0.87170: L2-HR :0.88520: (Sim:0h9m53s) 
CPU  0 inst:   42000003 cyc:   20699628 now IPC :1.97953: AVG IPC :2.02839: L2-Pf-HR :0.87188: L2-HR :0.88545: (Sim:0h10m5s) 
CPU  0 inst:   43000001 cyc:   21209488 now IPC :1.96132: AVG IPC :2.02670: L2-Pf-HR :0.87217: L2-HR :0.88572: (Sim:0h10m21s) 
CPU  0 inst:   44000000 cyc:   21681015 now IPC :2.12077: AVG IPC :2.02884: L2-Pf-HR :0.87322: L2-HR :0.88673: (Sim:0h10m44s) 
CPU  0 inst:   45000000 cyc:   22284663 now IPC :1.65659: AVG IPC :2.01829: L2-Pf-HR :0.87314: L2-HR :0.88621: (Sim:0h11m7s) 
CPU  0 inst:   46000005 cyc:   22786898 now IPC :1.99111: AVG IPC :2.01766: L2-Pf-HR :0.87293: L2-HR :0.88615: (Sim:0h11m29s) 
CPU  0 inst:   47000002 cyc:   23283466 now IPC :2.01382: AVG IPC :2.01758: L2-Pf-HR :0.87311: L2-HR :0.88640: (Sim:0h11m50s) 
CPU  0 inst:   48000004 cyc:   23771244 now IPC :2.05012: AVG IPC :2.01828: L2-Pf-HR :0.87359: L2-HR :0.88687: (Sim:0h12m11s) 
CPU  0 inst:   49000005 cyc:   24426178 now IPC :1.52687: AVG IPC :2.00455: L2-Pf-HR :0.87355: L2-HR :0.88610: (Sim:0h12m33s) 
CPU  0 inst:   50000003 cyc:   25019520 now IPC :1.68537: AVG IPC :1.99667: L2-Pf-HR :0.87277: L2-HR :0.88528: (Sim:0h12m55s) 
CPU  0 inst:   51000004 cyc:   25541742 now IPC :1.91490: AVG IPC :1.99493: L2-Pf-HR :0.87289: L2-HR :0.88535: (Sim:0h13m16s) 
CPU  0 inst:   52000002 cyc:   26068347 now IPC :1.89895: AVG IPC :1.99292: L2-Pf-HR :0.87302: L2-HR :0.88540: (Sim:0h13m36s) 
CPU  0 inst:   53000000 cyc:   26571827 now IPC :1.98617: AVG IPC :1.99279: L2-Pf-HR :0.87333: L2-HR :0.88566: (Sim:0h13m57s) 
CPU  0 inst:   54000001 cyc:   27090159 now IPC :1.92927: AVG IPC :1.99152: L2-Pf-HR :0.87393: L2-HR :0.88609: (Sim:0h14m18s) 
CPU  0 inst:   55000005 cyc:   27737853 now IPC :1.54395: AVG IPC :1.98069: L2-Pf-HR :0.87430: L2-HR :0.88580: (Sim:0h14m40s) 
CPU  0 inst:   56000004 cyc:   28339228 now IPC :1.66285: AVG IPC :1.97370: L2-Pf-HR :0.87351: L2-HR :0.88514: (Sim:0h15m2s) 
CPU  0 inst:   57000001 cyc:   28844122 now IPC :1.98061: AVG IPC :1.97383: L2-Pf-HR :0.87361: L2-HR :0.88533: (Sim:0h15m14s) 
CPU  0 inst:   58000001 cyc:   29359815 now IPC :1.93914: AVG IPC :1.97320: L2-Pf-HR :0.87368: L2-HR :0.88548: (Sim:0h15m25s) 
CPU  0 inst:   59000000 cyc:   29848513 now IPC :2.04625: AVG IPC :1.97444: L2-Pf-HR :0.87387: L2-HR :0.88576: (Sim:0h15m37s) 
CPU  0 inst:   60000005 cyc:   30335338 now IPC :2.05414: AVG IPC :1.97576: L2-Pf-HR :0.87439: L2-HR :0.88627: (Sim:0h15m48s) 
CPU  0 inst:   61000002 cyc:   30909641 now IPC :1.74124: AVG IPC :1.97126: L2-Pf-HR :0.87475: L2-HR :0.88628: (Sim:0h15m59s) 
CPU  0 inst:   62000002 cyc:   31416611 now IPC :1.97250: AVG IPC :1.97128: L2-Pf-HR :0.87440: L2-HR :0.88607: (Sim:0h16m13s) 
CPU  0 inst:   63000004 cyc:   31907225 now IPC :2.03827: AVG IPC :1.97234: L2-Pf-HR :0.87452: L2-HR :0.88626: (Sim:0h16m24s) 
CPU  0 inst:   64000000 cyc:   32412277 now IPC :1.97999: AVG IPC :1.97246: L2-Pf-HR :0.87473: L2-HR :0.88648: (Sim:0h16m34s) 
CPU  0 inst:   65000002 cyc:   33034970 now IPC :1.60593: AVG IPC :1.96534: L2-Pf-HR :0.87505: L2-HR :0.88624: (Sim:0h16m45s) 
CPU  0 inst:   66000004 cyc:   33649122 now IPC :1.62826: AVG IPC :1.95901: L2-Pf-HR :0.87427: L2-HR :0.88547: (Sim:0h16m57s) 
CPU  0 inst:   67000004 cyc:   34192956 now IPC :1.83880: AVG IPC :1.95704: L2-Pf-HR :0.87414: L2-HR :0.88534: (Sim:0h17m8s) 
CPU  0 inst:   68000005 cyc:   34712172 now IPC :1.92598: AVG IPC :1.95656: L2-Pf-HR :0.87423: L2-HR :0.88541: (Sim:0h17m17s) 
CPU  0 inst:   69000000 cyc:   35232708 now IPC :1.92109: AVG IPC :1.95602: L2-Pf-HR :0.87439: L2-HR :0.88553: (Sim:0h17m27s) 
CPU  0 inst:   70000004 cyc:   35743251 now IPC :1.95871: AVG IPC :1.95606: L2-Pf-HR :0.87481: L2-HR :0.88586: (Sim:0h17m36s) 
CPU  0 inst:   71000005 cyc:   36349429 now IPC :1.64968: AVG IPC :1.95081: L2-Pf-HR :0.87553: L2-HR :0.88601: (Sim:0h17m46s) 
CPU  0 inst:   72000005 cyc:   36976780 now IPC :1.59400: AVG IPC :1.94459: L2-Pf-HR :0.87476: L2-HR :0.88533: (Sim:0h17m58s) 
CPU  0 inst:   73000001 cyc:   37484792 now IPC :1.96845: AVG IPC :1.94492: L2-Pf-HR :0.87471: L2-HR :0.88538: (Sim:0h18m10s) 
CPU  0 inst:   74000002 cyc:   37978152 now IPC :2.02692: AVG IPC :1.94602: L2-Pf-HR :0.87473: L2-HR :0.88550: (Sim:0h18m21s) 
CPU  0 inst:   75000000 cyc:   38482713 now IPC :1.98192: AVG IPC :1.94650: L2-Pf-HR :0.87480: L2-HR :0.88563: (Sim:0h18m33s) 
CPU  0 inst:   76000003 cyc:   38964780 now IPC :2.07441: AVG IPC :1.94812: L2-Pf-HR :0.87514: L2-HR :0.88602: (Sim:0h18m44s) 
CPU  0 inst:   77000003 cyc:   39507485 now IPC :1.84262: AVG IPC :1.94664: L2-Pf-HR :0.87575: L2-HR :0.88635: (Sim:0h18m55s) 
CPU  0 inst:   78000004 cyc:   40050768 now IPC :1.84066: AVG IPC :1.94516: L2-Pf-HR :0.87519: L2-HR :0.88594: (Sim:0h19m6s) 
CPU  0 inst:   79000000 cyc:   40534386 now IPC :2.06774: AVG IPC :1.94666: L2-Pf-HR :0.87529: L2-HR :0.88612: (Sim:0h19m16s) 
CPU  0 inst:   80000002 cyc:   41024992 now IPC :2.03830: AVG IPC :1.94779: L2-Pf-HR :0.87538: L2-HR :0.88628: (Sim:0h19m26s) 
CPU  0 inst:   81000005 cyc:   41610158 now IPC :1.70892: AVG IPC :1.94434: L2-Pf-HR :0.87583: L2-HR :0.88627: (Sim:0h19m36s) 
CPU  0 inst:   82000003 cyc:   42245369 now IPC :1.57428: AVG IPC :1.93865: L2-Pf-HR :0.87512: L2-HR :0.88555: (Sim:0h19m46s) 
CPU  0 inst:   83000000 cyc:   42792269 now IPC :1.82848: AVG IPC :1.93721: L2-Pf-HR :0.87495: L2-HR :0.88541: (Sim:0h19m55s) 
CPU  0 inst:   84000002 cyc:   43341768 now IPC :1.81984: AVG IPC :1.93569: L2-Pf-HR :0.87495: L2-HR :0.88539: (Sim:0h20m5s) 
CPU  0 inst:   85000004 cyc:   43863330 now IPC :1.91732: AVG IPC :1.93546: L2-Pf-HR :0.87511: L2-HR :0.88552: (Sim:0h20m15s) 
CPU  0 inst:   86000004 cyc:   44385328 now IPC :1.91572: AVG IPC :1.93522: L2-Pf-HR :0.87541: L2-HR :0.88575: (Sim:0h20m24s) 
CPU  0 inst:   87000002 cyc:   44945960 now IPC :1.78370: AVG IPC :1.93329: L2-Pf-HR :0.87602: L2-HR :0.88603: (Sim:0h20m34s) 
CPU  0 inst:   88000003 cyc:   45611015 now IPC :1.50364: AVG IPC :1.92689: L2-Pf-HR :0.87539: L2-HR :0.88539: (Sim:0h20m46s) 
CPU  0 inst:   89000003 cyc:   46122648 now IPC :1.95453: AVG IPC :1.92720: L2-Pf-HR :0.87531: L2-HR :0.88542: (Sim:0h20m58s) 
CPU  0 inst:   90000004 cyc:   46636420 now IPC :1.94639: AVG IPC :1.92742: L2-Pf-HR :0.87536: L2-HR :0.88552: (Sim:0h21m10s) 
CPU  0 inst:   91000001 cyc:   47131075 now IPC :2.02161: AVG IPC :1.92843: L2-Pf-HR :0.87541: L2-HR :0.88564: (Sim:0h21m21s) 
CPU  0 inst:   92000001 cyc:   47623236 now IPC :2.03186: AVG IPC :1.92952: L2-Pf-HR :0.87556: L2-HR :0.88586: (Sim:0h21m33s) 
CPU  0 inst:   93000002 cyc:   48147401 now IPC :1.90780: AVG IPC :1.92928: L2-Pf-HR :0.87625: L2-HR :0.88632: (Sim:0h21m44s) 
CPU  0 inst:   94000001 cyc:   48722252 now IPC :1.73958: AVG IPC :1.92699: L2-Pf-HR :0.87568: L2-HR :0.88584: (Sim:0h21m55s) 
CPU  0 inst:   95000005 cyc:   49217638 now IPC :2.01864: AVG IPC :1.92794: L2-Pf-HR :0.87570: L2-HR :0.88595: (Sim:0h22m5s) 
CPU  0 inst:   96000000 cyc:   49700909 now IPC :2.06922: AVG IPC :1.92934: L2-Pf-HR :0.87581: L2-HR :0.88612: (Sim:0h22m15s) 
CPU  0 inst:   97000000 cyc:   50239882 now IPC :1.85538: AVG IPC :1.92853: L2-Pf-HR :0.87616: L2-HR :0.88627: (Sim:0h22m26s) 
CPU  0 inst:   98000002 cyc:   50898944 now IPC :1.51731: AVG IPC :1.92310: L2-Pf-HR :0.87554: L2-HR :0.88556: (Sim:0h22m36s) 
CPU  0 inst:   99000002 cyc:   51440306 now IPC :1.84719: AVG IPC :1.92228: L2-Pf-HR :0.87540: L2-HR :0.88544: (Sim:0h22m45s) 
CPU  0 inst:  100000002 cyc:   51965090 now IPC :1.90555: AVG IPC :1.92211: L2-Pf-HR :0.87548: L2-HR :0.88549: (Sim:0h22m55s) 
CPU  0 inst:  101000003 cyc:   52503951 now IPC :1.85577: AVG IPC :1.92142: L2-Pf-HR :0.87556: L2-HR :0.88553: (Sim:0h23m4s) 
CPU  0 inst:  102000001 cyc:   53016648 now IPC :1.95047: AVG IPC :1.92170: L2-Pf-HR :0.87573: L2-HR :0.88567: (Sim:0h23m14s) 
CPU  0 inst:  103000001 cyc:   53496482 now IPC :2.08405: AVG IPC :1.92319: L2-Pf-HR :0.87640: L2-HR :0.88624: (Sim:0h23m23s) 
CPU  0 inst:  104000001 cyc:   54234654 now IPC :1.35470: AVG IPC :1.91531: L2-Pf-HR :0.87575: L2-HR :0.88540: (Sim:0h23m35s) 
CPU  0 inst:  105000001 cyc:   54745660 now IPC :1.95692: AVG IPC :1.91570: L2-Pf-HR :0.87570: L2-HR :0.88542: (Sim:0h23m47s) 
CPU  0 inst:  106000005 cyc:   55247489 now IPC :1.99272: AVG IPC :1.91642: L2-Pf-HR :0.87572: L2-HR :0.88551: (Sim:0h23m58s) 
CPU  0 inst:  107000005 cyc:   55760578 now IPC :1.94898: AVG IPC :1.91672: L2-Pf-HR :0.87576: L2-HR :0.88559: (Sim:0h24m11s) 
CPU  0 inst:  108000002 cyc:   56246017 now IPC :2.05998: AVG IPC :1.91798: L2-Pf-HR :0.87594: L2-HR :0.88581: (Sim:0h24m29s) 
CPU  0 inst:  109000004 cyc:   56707423 now IPC :2.16729: AVG IPC :1.92004: L2-Pf-HR :0.87658: L2-HR :0.88642: (Sim:0h24m53s) 
CPU  0 inst:  110000004 cyc:   57333476 now IPC :1.59731: AVG IPC :1.91646: L2-Pf-HR :0.87606: L2-HR :0.88583: (Sim:0h25m16s) 
CPU  0 inst:  111000003 cyc:   57822652 now IPC :2.04425: AVG IPC :1.91756: L2-Pf-HR :0.87605: L2-HR :0.88589: (Sim:0h25m38s) 
CPU  0 inst:  112000004 cyc:   58313581 now IPC :2.03696: AVG IPC :1.91858: L2-Pf-HR :0.87615: L2-HR :0.88604: (Sim:0h26m1s) 
CPU  0 inst:  113000003 cyc:   58783199 now IPC :2.12939: AVG IPC :1.92029: L2-Pf-HR :0.87660: L2-HR :0.88647: (Sim:0h26m23s) 
CPU  0 inst:  114000003 cyc:   59513475 now IPC :1.36935: AVG IPC :1.91342: L2-Pf-HR :0.87604: L2-HR :0.88566: (Sim:0h26m46s) 
CPU  0 inst:  115000000 cyc:   60037821 now IPC :1.90713: AVG IPC :1.91336: L2-Pf-HR :0.87594: L2-HR :0.88559: (Sim:0h27m7s) 
CPU  0 inst:  116000002 cyc:   60567535 now IPC :1.88781: AVG IPC :1.91314: L2-Pf-HR :0.87596: L2-HR :0.88559: (Sim:0h27m29s) 
CPU  0 inst:  117000003 cyc:   61099140 now IPC :1.88110: AVG IPC :1.91285: L2-Pf-HR :0.87597: L2-HR :0.88559: (Sim:0h27m51s) 
CPU  0 inst:  118000002 cyc:   61621066 now IPC :1.91598: AVG IPC :1.91288: L2-Pf-HR :0.87610: L2-HR :0.88571: (Sim:0h28m12s) 
CPU  0 inst:  119000005 cyc:   62106049 now IPC :2.06193: AVG IPC :1.91406: L2-Pf-HR :0.87660: L2-HR :0.88614: (Sim:0h28m34s) 
CPU  0 inst:  120000002 cyc:   62850537 now IPC :1.34320: AVG IPC :1.90719: L2-Pf-HR :0.87622: L2-HR :0.88553: (Sim:0h28m59s) 
CPU  0 inst:  121000005 cyc:   63374996 now IPC :1.90673: AVG IPC :1.90719: L2-Pf-HR :0.87613: L2-HR :0.88551: (Sim:0h29m23s) 
CPU  0 inst:  122000002 cyc:   63893580 now IPC :1.92832: AVG IPC :1.90736: L2-Pf-HR :0.87613: L2-HR :0.88556: (Sim:0h29m48s) 
CPU  0 inst:  123000000 cyc:   64393780 now IPC :1.99920: AVG IPC :1.90809: L2-Pf-HR :0.87615: L2-HR :0.88566: (Sim:0h30m12s) 
CPU  0 inst:  124000003 cyc:   64903760 now IPC :1.96087: AVG IPC :1.90851: L2-Pf-HR :0.87627: L2-HR :0.88580: (Sim:0h30m36s) 
CPU  0 inst:  125000003 cyc:   65370459 now IPC :2.14271: AVG IPC :1.91021: L2-Pf-HR :0.87674: L2-HR :0.88626: (Sim:0h31m0s) 
CPU  0 inst:  126000001 cyc:   66019591 now IPC :1.54052: AVG IPC :1.90652: L2-Pf-HR :0.87644: L2-HR :0.88584: (Sim:0h31m24s) 
CPU  0 inst:  127000001 cyc:   66530350 now IPC :1.95787: AVG IPC :1.90692: L2-Pf-HR :0.87645: L2-HR :0.88590: (Sim:0h31m46s) 
CPU  0 inst:  128000004 cyc:   67047938 now IPC :1.93204: AVG IPC :1.90711: L2-Pf-HR :0.87648: L2-HR :0.88596: (Sim:0h32m9s) 
CPU  0 inst:  129000001 cyc:   67526981 now IPC :2.08749: AVG IPC :1.90841: L2-Pf-HR :0.87680: L2-HR :0.88628: (Sim:0h32m32s) 
CPU  0 inst:  130000002 cyc:   71568938 now IPC :0.24741: AVG IPC :1.81330: L2-Pf-HR :0.86867: L2-HR :0.87389: (Sim:0h33m20s) 
CPU  0 inst:  131000001 cyc:   76595858 now IPC :0.19893: AVG IPC :1.70598: L2-Pf-HR :0.85814: L2-HR :0.85936: (Sim:0h34m19s) 
CPU  0 inst:  132000000 cyc:   81720723 now IPC :0.19513: AVG IPC :1.61008: L2-Pf-HR :0.84793: L2-HR :0.84604: (Sim:0h35m18s) 
CPU  0 inst:  133000002 cyc:   86836892 now IPC :0.19546: AVG IPC :1.52579: L2-Pf-HR :0.83798: L2-HR :0.83378: (Sim:0h36m17s) 
CPU  0 inst:  134000000 cyc:   91830943 now IPC :0.20024: AVG IPC :1.45292: L2-Pf-HR :0.82878: L2-HR :0.82286: (Sim:0h37m14s) 
CPU  0 inst:  135000000 cyc:   95070073 now IPC :0.30872: AVG IPC :1.41353: L2-Pf-HR :0.82720: L2-HR :0.82113: (Sim:0h37m52s) 
CPU  0 inst:  136000002 cyc:   98306210 now IPC :0.30901: AVG IPC :1.37681: L2-Pf-HR :0.82562: L2-HR :0.81939: (Sim:0h38m30s) 
CPU  0 inst:  137000000 cyc:  101543511 now IPC :0.30890: AVG IPC :1.34243: L2-Pf-HR :0.82404: L2-HR :0.81766: (Sim:0h39m8s) 
CPU  0 inst:  138000000 cyc:  104782494 now IPC :0.30874: AVG IPC :1.31017: L2-Pf-HR :0.82247: L2-HR :0.81593: (Sim:0h39m46s) 
CPU  0 inst:  139000000 cyc:  108021231 now IPC :0.30876: AVG IPC :1.27987: L2-Pf-HR :0.82092: L2-HR :0.81424: (Sim:0h40m24s) 
CPU  0 inst:  140000002 cyc:  111258304 now IPC :0.30892: AVG IPC :1.25137: L2-Pf-HR :0.81939: L2-HR :0.81257: (Sim:0h41m1s) 
CPU  0 inst:  141000004 cyc:  114494584 now IPC :0.30900: AVG IPC :1.22451: L2-Pf-HR :0.81789: L2-HR :0.81093: (Sim:0h41m39s) 
CPU  0 inst:  142000004 cyc:  117733449 now IPC :0.30875: AVG IPC :1.19910: L2-Pf-HR :0.81639: L2-HR :0.80931: (Sim:0h42m17s) 
CPU  0 inst:  143000000 cyc:  120970723 now IPC :0.30890: AVG IPC :1.17509: L2-Pf-HR :0.81489: L2-HR :0.80769: (Sim:0h42m55s) 
CPU  0 inst:  144000003 cyc:  124206045 now IPC :0.30909: AVG IPC :1.15235: L2-Pf-HR :0.81341: L2-HR :0.80611: (Sim:0h43m32s) 
CPU  0 inst:  145000002 cyc:  127443925 now IPC :0.30884: AVG IPC :1.13075: L2-Pf-HR :0.81193: L2-HR :0.80452: (Sim:0h44m10s) 
CPU  0 inst:  146000000 cyc:  130682414 now IPC :0.30879: AVG IPC :1.11023: L2-Pf-HR :0.81043: L2-HR :0.80295: (Sim:0h44m48s) 
CPU  0 inst:  147000000 cyc:  133918601 now IPC :0.30901: AVG IPC :1.09073: L2-Pf-HR :0.80894: L2-HR :0.80138: (Sim:0h45m25s) 
CPU  0 inst:  148000003 cyc:  137156566 now IPC :0.30884: AVG IPC :1.07213: L2-Pf-HR :0.80743: L2-HR :0.79983: (Sim:0h46m3s) 
CPU  0 inst:  149000002 cyc:  140392415 now IPC :0.30904: AVG IPC :1.05442: L2-Pf-HR :0.80597: L2-HR :0.79830: (Sim:0h46m40s) 
CPU  0 inst:  150000000 cyc:  143629164 now IPC :0.30895: AVG IPC :1.03751: L2-Pf-HR :0.80453: L2-HR :0.79679: (Sim:0h47m18s) 
CPU  0 inst:  151000000 cyc:  146865629 now IPC :0.30898: AVG IPC :1.02134: L2-Pf-HR :0.80308: L2-HR :0.79528: (Sim:0h47m56s) 
CPU  0 inst:  152000002 cyc:  150104395 now IPC :0.30876: AVG IPC :1.00587: L2-Pf-HR :0.80165: L2-HR :0.79380: (Sim:0h48m33s) 
CPU  0 inst:  153000000 cyc:  153342359 now IPC :0.30884: AVG IPC :0.99106: L2-Pf-HR :0.80027: L2-HR :0.79234: (Sim:0h49m11s) 
CPU  0 inst:  154000000 cyc:  156583106 now IPC :0.30857: AVG IPC :0.97684: L2-Pf-HR :0.79889: L2-HR :0.79091: (Sim:0h49m48s) 
CPU  0 inst:  155000000 cyc:  159818751 now IPC :0.30906: AVG IPC :0.96324: L2-Pf-HR :0.79751: L2-HR :0.78947: (Sim:0h50m26s) 
CPU  0 inst:  156000000 cyc:  163054474 now IPC :0.30905: AVG IPC :0.95018: L2-Pf-HR :0.79609: L2-HR :0.78803: (Sim:0h51m3s) 
CPU  0 inst:  157000002 cyc:  166290464 now IPC :0.30903: AVG IPC :0.93763: L2-Pf-HR :0.79467: L2-HR :0.78658: (Sim:0h51m41s) 
CPU  0 inst:  158000000 cyc:  169526165 now IPC :0.30905: AVG IPC :0.92556: L2-Pf-HR :0.79325: L2-HR :0.78515: (Sim:0h52m18s) 
CPU  0 inst:  159000004 cyc:  172762411 now IPC :0.30900: AVG IPC :0.91394: L2-Pf-HR :0.79186: L2-HR :0.78374: (Sim:0h52m56s) 
CPU  0 inst:  160000001 cyc:  176000383 now IPC :0.30883: AVG IPC :0.90275: L2-Pf-HR :0.79049: L2-HR :0.78235: (Sim:0h53m34s) 
CPU  0 inst:  161000000 cyc:  179239423 now IPC :0.30873: AVG IPC :0.89196: L2-Pf-HR :0.78917: L2-HR :0.78098: (Sim:0h54m11s) 
CPU  0 inst:  162000004 cyc:  182476323 now IPC :0.30894: AVG IPC :0.88156: L2-Pf-HR :0.78782: L2-HR :0.77962: (Sim:0h54m48s) 
CPU  0 inst:  163000004 cyc:  185715732 now IPC :0.30870: AVG IPC :0.87151: L2-Pf-HR :0.78647: L2-HR :0.77826: (Sim:0h55m26s) 
CPU  0 inst:  164000000 cyc:  188951416 now IPC :0.30905: AVG IPC :0.86183: L2-Pf-HR :0.78515: L2-HR :0.77692: (Sim:0h56m4s) 
CPU  0 inst:  165000003 cyc:  192187494 now IPC :0.30902: AVG IPC :0.85247: L2-Pf-HR :0.78385: L2-HR :0.77559: (Sim:0h56m41s) 
CPU  0 inst:  166000002 cyc:  195422978 now IPC :0.30907: AVG IPC :0.84343: L2-Pf-HR :0.78255: L2-HR :0.77429: (Sim:0h57m19s) 
CPU  0 inst:  167000001 cyc:  198661473 now IPC :0.30879: AVG IPC :0.83467: L2-Pf-HR :0.78124: L2-HR :0.77297: (Sim:0h57m56s) 
CPU  0 inst:  168000002 cyc:  201900529 now IPC :0.30873: AVG IPC :0.82620: L2-Pf-HR :0.77997: L2-HR :0.77168: (Sim:0h58m34s) 
CPU  0 inst:  169000003 cyc:  205138933 now IPC :0.30879: AVG IPC :0.81799: L2-Pf-HR :0.77869: L2-HR :0.77040: (Sim:0h59m12s) 
CPU  0 inst:  170000002 cyc:  208374491 now IPC :0.30907: AVG IPC :0.81005: L2-Pf-HR :0.77743: L2-HR :0.76914: (Sim:0h59m49s) 
CPU  0 inst:  171000000 cyc:  211609540 now IPC :0.30911: AVG IPC :0.80235: L2-Pf-HR :0.77622: L2-HR :0.76791: (Sim:1h0m27s) 
CPU  0 inst:  172000000 cyc:  214846023 now IPC :0.30898: AVG IPC :0.79489: L2-Pf-HR :0.77501: L2-HR :0.76667: (Sim:1h1m4s) 
CPU  0 inst:  173000000 cyc:  218081359 now IPC :0.30909: AVG IPC :0.78765: L2-Pf-HR :0.77376: L2-HR :0.76543: (Sim:1h1m42s) 
CPU  0 inst:  174000002 cyc:  221317295 now IPC :0.30903: AVG IPC :0.78062: L2-Pf-HR :0.77249: L2-HR :0.76417: (Sim:1h2m20s) 
CPU  0 inst:  175000000 cyc:  224557493 now IPC :0.30862: AVG IPC :0.77378: L2-Pf-HR :0.77123: L2-HR :0.76293: (Sim:1h2m57s) 
CPU  0 inst:  176000000 cyc:  227796225 now IPC :0.30876: AVG IPC :0.76714: L2-Pf-HR :0.77000: L2-HR :0.76171: (Sim:1h3m35s) 
CPU  0 inst:  177000000 cyc:  231033039 now IPC :0.30895: AVG IPC :0.76069: L2-Pf-HR :0.76879: L2-HR :0.76051: (Sim:1h4m12s) 
CPU  0 inst:  178000002 cyc:  234269295 now IPC :0.30900: AVG IPC :0.75443: L2-Pf-HR :0.76756: L2-HR :0.75931: (Sim:1h4m50s) 
CPU  0 inst:  179000004 cyc:  237506209 now IPC :0.30894: AVG IPC :0.74833: L2-Pf-HR :0.76635: L2-HR :0.75812: (Sim:1h5m28s) 
CPU  0 inst:  180000004 cyc:  240743152 now IPC :0.30893: AVG IPC :0.74240: L2-Pf-HR :0.76516: L2-HR :0.75695: (Sim:1h6m5s) 
CPU  0 inst:  181000000 cyc:  243980014 now IPC :0.30894: AVG IPC :0.73662: L2-Pf-HR :0.76396: L2-HR :0.75577: (Sim:1h6m43s) 
CPU  0 inst:  182000000 cyc:  247218330 now IPC :0.30880: AVG IPC :0.73100: L2-Pf-HR :0.76278: L2-HR :0.75462: (Sim:1h7m20s) 
CPU  0 inst:  183000000 cyc:  250456316 now IPC :0.30883: AVG IPC :0.72552: L2-Pf-HR :0.76163: L2-HR :0.75348: (Sim:1h7m58s) 
CPU  0 inst:  184000004 cyc:  253692127 now IPC :0.30904: AVG IPC :0.72019: L2-Pf-HR :0.76048: L2-HR :0.75235: (Sim:1h8m35s) 
CPU  0 inst:  185000000 cyc:  256929120 now IPC :0.30893: AVG IPC :0.71498: L2-Pf-HR :0.75932: L2-HR :0.75122: (Sim:1h9m13s) 
CPU  0 inst:  186000003 cyc:  260164591 now IPC :0.30907: AVG IPC :0.70992: L2-Pf-HR :0.75816: L2-HR :0.75009: (Sim:1h9m51s) 
CPU  0 inst:  187000002 cyc:  263400496 now IPC :0.30903: AVG IPC :0.70497: L2-Pf-HR :0.75701: L2-HR :0.74896: (Sim:1h10m28s) 
CPU  0 inst:  188000000 cyc:  266636722 now IPC :0.30900: AVG IPC :0.70015: L2-Pf-HR :0.75586: L2-HR :0.74785: (Sim:1h11m6s) 
CPU  0 inst:  189000000 cyc:  269872791 now IPC :0.30902: AVG IPC :0.69544: L2-Pf-HR :0.75472: L2-HR :0.74675: (Sim:1h11m44s) 
CPU  0 inst:  190000000 cyc:  273111554 now IPC :0.30876: AVG IPC :0.69084: L2-Pf-HR :0.75358: L2-HR :0.74564: (Sim:1h12m21s) 
CPU  0 inst:  191000000 cyc:  276350503 now IPC :0.30874: AVG IPC :0.68635: L2-Pf-HR :0.75241: L2-HR :0.74454: (Sim:1h12m59s) 
CPU  0 inst:  192000000 cyc:  279589016 now IPC :0.30878: AVG IPC :0.68196: L2-Pf-HR :0.75131: L2-HR :0.74347: (Sim:1h13m36s) 
CPU  0 inst:  193000000 cyc:  282825215 now IPC :0.30900: AVG IPC :0.67768: L2-Pf-HR :0.75020: L2-HR :0.74240: (Sim:1h14m14s) 
CPU  0 inst:  194000000 cyc:  286061399 now IPC :0.30901: AVG IPC :0.67349: L2-Pf-HR :0.74906: L2-HR :0.74131: (Sim:1h14m52s) 
CPU  0 inst:  195000002 cyc:  289300029 now IPC :0.30877: AVG IPC :0.66939: L2-Pf-HR :0.74798: L2-HR :0.74027: (Sim:1h15m29s) 
CPU  0 inst:  196000004 cyc:  292538333 now IPC :0.30880: AVG IPC :0.66539: L2-Pf-HR :0.74685: L2-HR :0.73921: (Sim:1h16m7s) 
CPU  0 inst:  197000002 cyc:  295775245 now IPC :0.30894: AVG IPC :0.66147: L2-Pf-HR :0.74571: L2-HR :0.73814: (Sim:1h16m45s) 
CPU  0 inst:  198000000 cyc:  298034003 now IPC :0.44272: AVG IPC :0.65981: L2-Pf-HR :0.74512: L2-HR :0.73760: (Sim:1h17m17s) 
CPU  0 inst:  199000003 cyc:  298648639 now IPC :1.62698: AVG IPC :0.66181: L2-Pf-HR :0.74571: L2-HR :0.73827: (Sim:1h17m43s) 
CPU  0 inst:  200000001 cyc:  299260757 now IPC :1.63367: AVG IPC :0.66380: L2-Pf-HR :0.74633: L2-HR :0.73897: (Sim:1h18m9s) 
CPU  0 inst:  201000000 cyc:  299872778 now IPC :1.63393: AVG IPC :0.66579: L2-Pf-HR :0.74698: L2-HR :0.73970: (Sim:1h18m34s) 
CPU  0 inst:  202000001 cyc:  300481699 now IPC :1.64225: AVG IPC :0.66777: L2-Pf-HR :0.74753: L2-HR :0.74033: (Sim:1h19m0s) 
CPU  0 inst:  203000000 cyc:  300991152 now IPC :1.96289: AVG IPC :0.66997: L2-Pf-HR :0.74850: L2-HR :0.74128: (Sim:1h19m25s) 
CPU  0 inst:  204000003 cyc:  301500054 now IPC :1.96502: AVG IPC :0.67217: L2-Pf-HR :0.74944: L2-HR :0.74222: (Sim:1h19m50s) 
CPU  0 inst:  205000003 cyc:  302009309 now IPC :1.96365: AVG IPC :0.67435: L2-Pf-HR :0.75035: L2-HR :0.74314: (Sim:1h20m15s) 
CPU  0 inst:  206000001 cyc:  302553668 now IPC :1.83702: AVG IPC :0.67645: L2-Pf-HR :0.75106: L2-HR :0.74390: (Sim:1h20m40s) 
CPU  0 inst:  207000005 cyc:  303065497 now IPC :1.95379: AVG IPC :0.67861: L2-Pf-HR :0.75188: L2-HR :0.74473: (Sim:1h21m5s) 
CPU  0 inst:  208000001 cyc:  303574553 now IPC :1.96441: AVG IPC :0.68078: L2-Pf-HR :0.75275: L2-HR :0.74559: (Sim:1h21m30s) 
CPU  0 inst:  209000001 cyc:  304081106 now IPC :1.97413: AVG IPC :0.68294: L2-Pf-HR :0.75358: L2-HR :0.74642: (Sim:1h21m54s) 
CPU  0 inst:  210000001 cyc:  304593930 now IPC :1.94999: AVG IPC :0.68508: L2-Pf-HR :0.75424: L2-HR :0.74714: (Sim:1h22m19s) 
CPU  0 inst:  211000000 cyc:  305120484 now IPC :1.89914: AVG IPC :0.68718: L2-Pf-HR :0.75496: L2-HR :0.74787: (Sim:1h22m46s) 
CPU  0 inst:  212000005 cyc:  305629700 now IPC :1.96381: AVG IPC :0.68932: L2-Pf-HR :0.75583: L2-HR :0.74873: (Sim:1h23m12s) 
CPU  0 inst:  213000004 cyc:  306138753 now IPC :1.96443: AVG IPC :0.69144: L2-Pf-HR :0.75670: L2-HR :0.74957: (Sim:1h23m39s) 
CPU  0 inst:  214000003 cyc:  306647165 now IPC :1.96691: AVG IPC :0.69356: L2-Pf-HR :0.75753: L2-HR :0.75038: (Sim:1h24m5s) 
CPU  0 inst:  215000002 cyc:  307276112 now IPC :1.58996: AVG IPC :0.69540: L2-Pf-HR :0.75798: L2-HR :0.75088: (Sim:1h24m31s) 
CPU  0 inst:  216000005 cyc:  307874484 now IPC :1.67121: AVG IPC :0.69731: L2-Pf-HR :0.75852: L2-HR :0.75148: (Sim:1h24m57s) 
CPU  0 inst:  217000001 cyc:  308476334 now IPC :1.66154: AVG IPC :0.69919: L2-Pf-HR :0.75904: L2-HR :0.75206: (Sim:1h25m22s) 
CPU  0 inst:  218000000 cyc:  309071991 now IPC :1.67882: AVG IPC :0.70109: L2-Pf-HR :0.75954: L2-HR :0.75263: (Sim:1h25m48s) 
CPU  0 inst:  219000004 cyc:  309641707 now IPC :1.75527: AVG IPC :0.70303: L2-Pf-HR :0.76004: L2-HR :0.75320: (Sim:1h26m13s) 
CPU  0 inst:  220000003 cyc:  310150558 now IPC :1.96521: AVG IPC :0.70511: L2-Pf-HR :0.76082: L2-HR :0.75400: (Sim:1h26m38s) 
CPU  0 inst:  221000004 cyc:  310659449 now IPC :1.96506: AVG IPC :0.70718: L2-Pf-HR :0.76155: L2-HR :0.75477: (Sim:1h27m3s) 
CPU  0 inst:  222000002 cyc:  311168182 now IPC :1.96566: AVG IPC :0.70925: L2-Pf-HR :0.76221: L2-HR :0.75548: (Sim:1h27m28s) 
CPU  0 inst:  223000002 cyc:  311704151 now IPC :1.86578: AVG IPC :0.71124: L2-Pf-HR :0.76283: L2-HR :0.75614: (Sim:1h27m53s) 
CPU  0 inst:  224000001 cyc:  312210641 now IPC :1.97437: AVG IPC :0.71330: L2-Pf-HR :0.76354: L2-HR :0.75685: (Sim:1h28m18s) 
CPU  0 inst:  225000002 cyc:  312716658 now IPC :1.97622: AVG IPC :0.71535: L2-Pf-HR :0.76417: L2-HR :0.75752: (Sim:1h28m43s) 
CPU  0 inst:  226000001 cyc:  313223233 now IPC :1.97404: AVG IPC :0.71739: L2-Pf-HR :0.76477: L2-HR :0.75816: (Sim:1h29m7s) 
CPU  0 inst:  227000005 cyc:  313751945 now IPC :1.89140: AVG IPC :0.71937: L2-Pf-HR :0.76539: L2-HR :0.75881: (Sim:1h29m33s) 
CPU  0 inst:  228000001 cyc:  314261017 now IPC :1.96435: AVG IPC :0.72140: L2-Pf-HR :0.76611: L2-HR :0.75953: (Sim:1h29m59s) 
CPU  0 inst:  229000002 cyc:  314769745 now IPC :1.96569: AVG IPC :0.72341: L2-Pf-HR :0.76680: L2-HR :0.76024: (Sim:1h30m25s) 
CPU  0 inst:  230000002 cyc:  315278516 now IPC :1.96552: AVG IPC :0.72542: L2-Pf-HR :0.76742: L2-HR :0.76090: (Sim:1h30m51s) 
CPU  0 inst:  231000000 cyc:  315803201 now IPC :1.90590: AVG IPC :0.72739: L2-Pf-HR :0.76815: L2-HR :0.76162: (Sim:1h31m17s) 
CPU  0 inst:  232000000 cyc:  316404725 now IPC :1.66244: AVG IPC :0.72917: L2-Pf-HR :0.76847: L2-HR :0.76201: (Sim:1h31m43s) 
CPU  0 inst:  233000001 cyc:  316979128 now IPC :1.74094: AVG IPC :0.73101: L2-Pf-HR :0.76883: L2-HR :0.76246: (Sim:1h32m8s) 
CPU  0 inst:  234000000 cyc:  317549619 now IPC :1.75287: AVG IPC :0.73286: L2-Pf-HR :0.76925: L2-HR :0.76294: (Sim:1h32m33s) 
CPU  0 inst:  235000001 cyc:  318130994 now IPC :1.72006: AVG IPC :0.73466: L2-Pf-HR :0.76960: L2-HR :0.76337: (Sim:1h32m59s) 
CPU  0 inst:  236000005 cyc:  318656885 now IPC :1.90154: AVG IPC :0.73660: L2-Pf-HR :0.77011: L2-HR :0.76392: (Sim:1h33m24s) 
CPU  0 inst:  237000000 cyc:  319164142 now IPC :1.97138: AVG IPC :0.73856: L2-Pf-HR :0.77074: L2-HR :0.76458: (Sim:1h33m48s) 
CPU  0 inst:  238000003 cyc:  319671575 now IPC :1.97071: AVG IPC :0.74053: L2-Pf-HR :0.77137: L2-HR :0.76524: (Sim:1h34m13s) 
CPU  0 inst:  239000002 cyc:  320178830 now IPC :1.97139: AVG IPC :0.74248: L2-Pf-HR :0.77198: L2-HR :0.76588: (Sim:1h34m38s) 
CPU  0 inst:  240000003 cyc:  320705099 now IPC :1.90017: AVG IPC :0.74439: L2-Pf-HR :0.77241: L2-HR :0.76637: (Sim:1h35m3s) 
CPU  0 inst:  241000005 cyc:  321211514 now IPC :1.97467: AVG IPC :0.74633: L2-Pf-HR :0.77301: L2-HR :0.76700: (Sim:1h35m28s) 
CPU  0 inst:  242000002 cyc:  321717765 now IPC :1.97530: AVG IPC :0.74827: L2-Pf-HR :0.77359: L2-HR :0.76762: (Sim:1h35m52s) 
CPU  0 inst:  243000003 cyc:  322224013 now IPC :1.97532: AVG IPC :0.75021: L2-Pf-HR :0.77414: L2-HR :0.76821: (Sim:1h36m17s) 
CPU  0 inst:  244000005 cyc:  322746826 now IPC :1.91273: AVG IPC :0.75210: L2-Pf-HR :0.77453: L2-HR :0.76868: (Sim:1h36m43s) 
CPU  0 inst:  245000000 cyc:  323254729 now IPC :1.96887: AVG IPC :0.75401: L2-Pf-HR :0.77511: L2-HR :0.76928: (Sim:1h37m6s) 
CPU  0 inst:  246000002 cyc:  323763006 now IPC :1.96744: AVG IPC :0.75592: L2-Pf-HR :0.77568: L2-HR :0.76988: (Sim:1h37m32s) 
CPU  0 inst:  247000003 cyc:  324270424 now IPC :1.97076: AVG IPC :0.75783: L2-Pf-HR :0.77621: L2-HR :0.77045: (Sim:1h37m58s) 
CPU  0 inst:  248000001 cyc:  324830368 now IPC :1.78589: AVG IPC :0.75961: L2-Pf-HR :0.77657: L2-HR :0.77087: (Sim:1h38m25s) 
CPU  0 inst:  249000005 cyc:  325399956 now IPC :1.75566: AVG IPC :0.76136: L2-Pf-HR :0.77693: L2-HR :0.77128: (Sim:1h38m50s) 
CPU  0 inst:  250000003 cyc:  325969592 now IPC :1.75550: AVG IPC :0.76310: L2-Pf-HR :0.77725: L2-HR :0.77169: (Sim:1h39m15s) 
CPU  0 inst:  251000004 cyc:  326538774 now IPC :1.75691: AVG IPC :0.76484: L2-Pf-HR :0.77758: L2-HR :0.77209: (Sim:1h39m39s) 
CPU  0 inst:  252000000 cyc:  327119403 now IPC :1.72226: AVG IPC :0.76654: L2-Pf-HR :0.77780: L2-HR :0.77239: (Sim:1h40m3s) 
CPU  0 inst:  253000005 cyc:  327627006 now IPC :1.97005: AVG IPC :0.76841: L2-Pf-HR :0.77828: L2-HR :0.77291: (Sim:1h40m27s) 
CPU  0 inst:  254000000 cyc:  328134014 now IPC :1.97235: AVG IPC :0.77028: L2-Pf-HR :0.77877: L2-HR :0.77343: (Sim:1h40m51s) 
CPU  0 inst:  255000000 cyc:  328640978 now IPC :1.97253: AVG IPC :0.77214: L2-Pf-HR :0.77924: L2-HR :0.77395: (Sim:1h41m15s) 
CPU  0 inst:  256000002 cyc:  329154089 now IPC :1.94890: AVG IPC :0.77398: L2-Pf-HR :0.77964: L2-HR :0.77441: (Sim:1h41m38s) 
CPU  0 inst:  257000003 cyc:  329674919 now IPC :1.92001: AVG IPC :0.77579: L2-Pf-HR :0.78004: L2-HR :0.77485: (Sim:1h42m2s) 
CPU  0 inst:  258000004 cyc:  330181580 now IPC :1.97371: AVG IPC :0.77764: L2-Pf-HR :0.78050: L2-HR :0.77536: (Sim:1h42m26s) 
CPU  0 inst:  259000000 cyc:  330688861 now IPC :1.97129: AVG IPC :0.77947: L2-Pf-HR :0.78091: L2-HR :0.77583: (Sim:1h42m50s) 
CPU  0 inst:  260000004 cyc:  331195587 now IPC :1.97346: AVG IPC :0.78131: L2-Pf-HR :0.78129: L2-HR :0.77628: (Sim:1h43m14s) 
CPU  0 inst:  261000000 cyc:  331716787 now IPC :1.91864: AVG IPC :0.78310: L2-Pf-HR :0.78168: L2-HR :0.77672: (Sim:1h43m38s) 
CPU  0 inst:  262000001 cyc:  332225500 now IPC :1.96575: AVG IPC :0.78492: L2-Pf-HR :0.78208: L2-HR :0.77718: (Sim:1h44m3s) 
CPU  0 inst:  263000003 cyc:  332733394 now IPC :1.96892: AVG IPC :0.78673: L2-Pf-HR :0.78249: L2-HR :0.77766: (Sim:1h44m28s) 
CPU  0 inst:  264000003 cyc:  333242007 now IPC :1.96613: AVG IPC :0.78853: L2-Pf-HR :0.78291: L2-HR :0.77813: (Sim:1h44m53s) 
CPU  0 inst:  265000005 cyc:  333814617 now IPC :1.74639: AVG IPC :0.79018: L2-Pf-HR :0.78323: L2-HR :0.77849: (Sim:1h45m17s) 
CPU  0 inst:  266000002 cyc:  334391503 now IPC :1.73344: AVG IPC :0.79181: L2-Pf-HR :0.78345: L2-HR :0.77879: (Sim:1h45m41s) 
CPU  0 inst:  267000000 cyc:  334964877 now IPC :1.74406: AVG IPC :0.79345: L2-Pf-HR :0.78369: L2-HR :0.77911: (Sim:1h46m6s) 
CPU  0 inst:  268000004 cyc:  335536156 now IPC :1.75047: AVG IPC :0.79508: L2-Pf-HR :0.78396: L2-HR :0.77945: (Sim:1h46m30s) 
CPU  0 inst:  269000000 cyc:  336090756 now IPC :1.80309: AVG IPC :0.79675: L2-Pf-HR :0.78422: L2-HR :0.77976: (Sim:1h46m54s) 
CPU  0 inst:  270000003 cyc:  336598291 now IPC :1.97031: AVG IPC :0.79853: L2-Pf-HR :0.78464: L2-HR :0.78022: (Sim:1h47m18s) 
CPU  0 inst:  271000004 cyc:  337105500 now IPC :1.97158: AVG IPC :0.80030: L2-Pf-HR :0.78508: L2-HR :0.78071: (Sim:1h47m41s) 
CPU  0 inst:  272000004 cyc:  337612653 now IPC :1.97179: AVG IPC :0.80206: L2-Pf-HR :0.78550: L2-HR :0.78118: (Sim:1h48m5s) 
CPU  0 inst:  273000000 cyc:  338137892 now IPC :1.90389: AVG IPC :0.80378: L2-Pf-HR :0.78582: L2-HR :0.78156: (Sim:1h48m29s) 
CPU  0 inst:  274000001 cyc:  338644259 now IPC :1.97485: AVG IPC :0.80553: L2-Pf-HR :0.78623: L2-HR :0.78200: (Sim:1h48m53s) 
CPU  0 inst:  275000000 cyc:  339150610 now IPC :1.97491: AVG IPC :0.80728: L2-Pf-HR :0.78663: L2-HR :0.78246: (Sim:1h49m8s) 
CPU  0 inst:  276000005 cyc:  339656912 now IPC :1.97512: AVG IPC :0.80903: L2-Pf-HR :0.78706: L2-HR :0.78293: (Sim:1h49m19s) 
CPU  0 inst:  277000000 cyc:  340178261 now IPC :1.91809: AVG IPC :0.81073: L2-Pf-HR :0.78737: L2-HR :0.78331: (Sim:1h49m31s) 
CPU  0 inst:  278000005 cyc:  340688048 now IPC :1.96161: AVG IPC :0.81246: L2-Pf-HR :0.78776: L2-HR :0.78374: (Sim:1h49m49s) 
CPU  0 inst:  279000001 cyc:  341195245 now IPC :1.97161: AVG IPC :0.81419: L2-Pf-HR :0.78818: L2-HR :0.78420: (Sim:1h50m13s) 
CPU  0 inst:  280000001 cyc:  341704038 now IPC :1.96544: AVG IPC :0.81591: L2-Pf-HR :0.78861: L2-HR :0.78467: (Sim:1h50m37s) 
CPU  0 inst:  281000002 cyc:  342216303 now IPC :1.95212: AVG IPC :0.81761: L2-Pf-HR :0.78896: L2-HR :0.78508: (Sim:1h51m0s) 
CPU  0 inst:  282000001 cyc:  342811406 now IPC :1.68038: AVG IPC :0.81912: L2-Pf-HR :0.78914: L2-HR :0.78532: (Sim:1h51m24s) 
CPU  0 inst:  283000000 cyc:  343382509 now IPC :1.75100: AVG IPC :0.82067: L2-Pf-HR :0.78937: L2-HR :0.78562: (Sim:1h51m47s) 
CPU  0 inst:  284000002 cyc:  343953968 now IPC :1.74991: AVG IPC :0.82222: L2-Pf-HR :0.78960: L2-HR :0.78591: (Sim:1h52m11s) 
CPU  0 inst:  285000003 cyc:  344522884 now IPC :1.75773: AVG IPC :0.82377: L2-Pf-HR :0.78982: L2-HR :0.78621: (Sim:1h52m35s) 
CPU  0 inst:  286000000 cyc:  345068084 now IPC :1.83418: AVG IPC :0.82537: L2-Pf-HR :0.79004: L2-HR :0.78648: (Sim:1h52m58s) 
CPU  0 inst:  287000002 cyc:  345576717 now IPC :1.96606: AVG IPC :0.82705: L2-Pf-HR :0.79042: L2-HR :0.78691: (Sim:1h53m20s) 
CPU  0 inst:  288000002 cyc:  346085752 now IPC :1.96450: AVG IPC :0.82873: L2-Pf-HR :0.79080: L2-HR :0.78734: (Sim:1h53m44s) 
CPU  0 inst:  289000000 cyc:  346594923 now IPC :1.96397: AVG IPC :0.83040: L2-Pf-HR :0.79114: L2-HR :0.78774: (Sim:1h54m7s) 
CPU  0 inst:  290000002 cyc:  347120809 now IPC :1.90156: AVG IPC :0.83203: L2-Pf-HR :0.79135: L2-HR :0.78801: (Sim:1h54m30s) 
CPU  0 inst:  291000001 cyc:  347627009 now IPC :1.97550: AVG IPC :0.83370: L2-Pf-HR :0.79168: L2-HR :0.78839: (Sim:1h54m53s) 
CPU  0 inst:  292000002 cyc:  348133016 now IPC :1.97626: AVG IPC :0.83537: L2-Pf-HR :0.79200: L2-HR :0.78875: (Sim:1h55m16s) 
CPU  0 inst:  293000001 cyc:  348638955 now IPC :1.97652: AVG IPC :0.83703: L2-Pf-HR :0.79226: L2-HR :0.78908: (Sim:1h55m38s) 
CPU  0 inst:  294000005 cyc:  349161837 now IPC :1.91249: AVG IPC :0.83864: L2-Pf-HR :0.79248: L2-HR :0.78936: (Sim:1h56m2s) 
CPU  0 inst:  295000001 cyc:  349671466 now IPC :1.96220: AVG IPC :0.84028: L2-Pf-HR :0.79280: L2-HR :0.78973: (Sim:1h56m25s) 
CPU  0 inst:  296000005 cyc:  350180198 now IPC :1.96568: AVG IPC :0.84192: L2-Pf-HR :0.79310: L2-HR :0.79008: (Sim:1h56m49s) 
CPU  0 inst:  297000002 cyc:  350688147 now IPC :1.96870: AVG IPC :0.84356: L2-Pf-HR :0.79338: L2-HR :0.79042: (Sim:1h57m12s) 
CPU  0 inst:  298000003 cyc:  351235739 now IPC :1.82618: AVG IPC :0.84510: L2-Pf-HR :0.79363: L2-HR :0.79071: (Sim:1h57m35s) 
CPU  0 inst:  299000005 cyc:  351812431 now IPC :1.73403: AVG IPC :0.84656: L2-Pf-HR :0.79379: L2-HR :0.79094: (Sim:1h57m59s) 
CPU  0 inst:  300000000 cyc:  352390285 now IPC :1.73053: AVG IPC :0.84801: L2-Pf-HR :0.79392: L2-HR :0.79115: (Sim:1h58m23s) 
CPU  0 inst:  301000003 cyc:  352965561 now IPC :1.73830: AVG IPC :0.84947: L2-Pf-HR :0.79407: L2-HR :0.79138: (Sim:1h58m46s) 
CPU  0 inst:  302000003 cyc:  353541495 now IPC :1.73631: AVG IPC :0.85091: L2-Pf-HR :0.79427: L2-HR :0.79162: (Sim:1h59m9s) 
CPU  0 inst:  303000003 cyc:  354054376 now IPC :1.94977: AVG IPC :0.85251: L2-Pf-HR :0.79451: L2-HR :0.79192: (Sim:1h59m33s) 
CPU  0 inst:  304000000 cyc:  354561659 now IPC :1.97128: AVG IPC :0.85412: L2-Pf-HR :0.79483: L2-HR :0.79228: (Sim:1h59m56s) 
CPU  0 inst:  305000001 cyc:  355068913 now IPC :1.97140: AVG IPC :0.85572: L2-Pf-HR :0.79514: L2-HR :0.79263: (Sim:2h0m19s) 
CPU  0 inst:  306000002 cyc:  355581243 now IPC :1.95187: AVG IPC :0.85730: L2-Pf-HR :0.79540: L2-HR :0.79296: (Sim:2h0m43s) 
CPU  0 inst:  307000004 cyc:  356102170 now IPC :1.91966: AVG IPC :0.85886: L2-Pf-HR :0.79566: L2-HR :0.79325: (Sim:2h1m7s) 
CPU  0 inst:  308000002 cyc:  356608008 now IPC :1.97691: AVG IPC :0.86045: L2-Pf-HR :0.79596: L2-HR :0.79360: (Sim:2h1m29s) 
CPU  0 inst:  309000002 cyc:  357114315 now IPC :1.97509: AVG IPC :0.86203: L2-Pf-HR :0.79627: L2-HR :0.79395: (Sim:2h1m53s) 
CPU  0 inst:  310000005 cyc:  357620467 now IPC :1.97570: AVG IPC :0.86361: L2-Pf-HR :0.79657: L2-HR :0.79429: (Sim:2h2m16s) 
CPU  0 inst:  311000002 cyc:  358141062 now IPC :1.92087: AVG IPC :0.86515: L2-Pf-HR :0.79676: L2-HR :0.79454: (Sim:2h2m39s) 
CPU  0 inst:  312000001 cyc:  358649947 now IPC :1.96508: AVG IPC :0.86672: L2-Pf-HR :0.79703: L2-HR :0.79487: (Sim:2h3m3s) 
CPU  0 inst:  313000005 cyc:  359157951 now IPC :1.96850: AVG IPC :0.86828: L2-Pf-HR :0.79732: L2-HR :0.79520: (Sim:2h3m27s) 
CPU  0 inst:  314000000 cyc:  359665688 now IPC :1.96951: AVG IPC :0.86984: L2-Pf-HR :0.79762: L2-HR :0.79555: (Sim:2h3m50s) 
CPU  0 inst:  315000005 cyc:  360235256 now IPC :1.75573: AVG IPC :0.87125: L2-Pf-HR :0.79772: L2-HR :0.79571: (Sim:2h4m15s) 
CPU  0 inst:  316000000 cyc:  360805201 now IPC :1.75455: AVG IPC :0.87264: L2-Pf-HR :0.79788: L2-HR :0.79593: (Sim:2h4m38s) 
CPU  0 inst:  317000005 cyc:  361376642 now IPC :1.74997: AVG IPC :0.87404: L2-Pf-HR :0.79805: L2-HR :0.79615: (Sim:2h5m2s) 
CPU  0 inst:  318000003 cyc:  361945817 now IPC :1.75693: AVG IPC :0.87543: L2-Pf-HR :0.79821: L2-HR :0.79637: (Sim:2h5m26s) 
CPU  0 inst:  319000000 cyc:  362513307 now IPC :1.76214: AVG IPC :0.87682: L2-Pf-HR :0.79830: L2-HR :0.79652: (Sim:2h5m50s) 
CPU  0 inst:  320000004 cyc:  363020869 now IPC :1.97021: AVG IPC :0.87835: L2-Pf-HR :0.79859: L2-HR :0.79685: (Sim:2h6m13s) 
CPU  0 inst:  321000003 cyc:  363528311 now IPC :1.97067: AVG IPC :0.87988: L2-Pf-HR :0.79888: L2-HR :0.79717: (Sim:2h6m36s) 
CPU  0 inst:  322000004 cyc:  364035334 now IPC :1.97230: AVG IPC :0.88141: L2-Pf-HR :0.79916: L2-HR :0.79750: (Sim:2h7m0s) 
CPU  0 inst:  323000004 cyc:  364562811 now IPC :1.89582: AVG IPC :0.88288: L2-Pf-HR :0.79932: L2-HR :0.79771: (Sim:2h7m23s) 
CPU  0 inst:  324000005 cyc:  365069337 now IPC :1.97423: AVG IPC :0.88440: L2-Pf-HR :0.79954: L2-HR :0.79797: (Sim:2h7m47s) 
CPU  0 inst:  325000000 cyc:  365575146 now IPC :1.97702: AVG IPC :0.88591: L2-Pf-HR :0.79978: L2-HR :0.79826: (Sim:2h8m10s) 
CPU  0 inst:  326000005 cyc:  366080837 now IPC :1.97750: AVG IPC :0.88742: L2-Pf-HR :0.80003: L2-HR :0.79854: (Sim:2h8m33s) 
CPU  0 inst:  327000003 cyc:  366592493 now IPC :1.95443: AVG IPC :0.88892: L2-Pf-HR :0.80019: L2-HR :0.79878: (Sim:2h8m56s) 
CPU  0 inst:  328000005 cyc:  367108570 now IPC :1.93770: AVG IPC :0.89040: L2-Pf-HR :0.80038: L2-HR :0.79901: (Sim:2h9m23s) 
Finished CPU 0 instr: 326000002 cyc: 366129062 AVG IPC: 0.89040 (Sim time: 2h9m23s)

ChampSim completed all CPUs

[ROI Statistics]
Core_0_instructions 326000002
Core_0_cycles 366129062
Core_0_IPC 0.89040

Core_0_branch_prediction_accuracy 99.57883
Core_0_branch_MPKI 0.12289
Core_0_average_ROB_occupancy_at_mispredict 561.03402

Core_0_L1D_total_access 160831834
Core_0_L1D_total_hit 152664310 L1D_total_Hit Ratio: 0.94922
Core_0_L1D_total_miss 8167524
Core_0_L1D_loads 95125698
Core_0_L1D_load_hit 92799788 L1D_load_Hit Ratio: 0.97555
Core_0_L1D_load_miss 2325910
Core_0_L1D_RFOs 8574068
Core_0_L1D_RFO_hit 8114494 L1D_RFO_Hit Ratio: 0.94640
Core_0_L1D_RFO_miss 459574
Core_0_L1D_prefetches 57132068
Core_0_L1D_prefetch_hit 51750028 L1D_prefetch_Hit Ratio: 0.90580
Core_0_L1D_prefetch_miss 5382040
Core_0_L1D_writebacks 0
Core_0_L1D_writeback_hit 0 L1D_writeback_Hit Ratio: -nan
Core_0_L1D_writeback_miss 0
Core_0_L1D_prefetch_requested 65270112
Core_0_L1D_prefetch_issued 65270112
Core_0_L1D_prefetch_useful 4003178 L1D_Useful Ratio: 0.06133
Core_0_L1D_prefetch_useless 1415109
Core_0_L1D_prefetch_late 211838
Core_0_L1D_average_miss_latency 2916835.80707

Core_0_L1I_total_access 52147394
Core_0_L1I_total_hit 52145429 L1I_total_Hit Ratio: 0.99996
Core_0_L1I_total_miss 1965
Core_0_L1I_loads 52147394
Core_0_L1I_load_hit 52145429 L1I_load_Hit Ratio: 0.99996
Core_0_L1I_load_miss 1965
Core_0_L1I_RFOs 0
Core_0_L1I_RFO_hit 0 L1I_RFO_Hit Ratio: -nan
Core_0_L1I_RFO_miss 0
Core_0_L1I_prefetches 0
Core_0_L1I_prefetch_hit 0 L1I_prefetch_Hit Ratio: -nan
Core_0_L1I_prefetch_miss 0
Core_0_L1I_writebacks 0
Core_0_L1I_writeback_hit 0 L1I_writeback_Hit Ratio: -nan
Core_0_L1I_writeback_miss 0
Core_0_L1I_prefetch_requested 0
Core_0_L1I_prefetch_issued 0
Core_0_L1I_prefetch_useful 0 L1I_Useful Ratio: -nan
Core_0_L1I_prefetch_useless 0
Core_0_L1I_prefetch_late 0
Core_0_L1I_average_miss_latency 276.69924

Core_0_L2C_total_access 14985833
Core_0_L2C_total_hit 11973851 L2C_total_Hit Ratio: 0.79901
Core_0_L2C_total_miss 3011982
Core_0_L2C_loads 2116933
Core_0_L2C_load_hit 1646574 L2C_load_Hit Ratio: 0.77781
Core_0_L2C_load_miss 470359
Core_0_L2C_RFOs 459569
Core_0_L2C_RFO_hit 10309 L2C_RFO_Hit Ratio: 0.02243
Core_0_L2C_RFO_miss 449260
Core_0_L2C_prefetches 10481519
Core_0_L2C_prefetch_hit 8389163 L2C_prefetch_Hit Ratio: 0.80038
Core_0_L2C_prefetch_miss 2092356
Core_0_L2C_writebacks 1927812
Core_0_L2C_writeback_hit 1927805 L2C_writeback_Hit Ratio: 1.00000
Core_0_L2C_writeback_miss 7
Core_0_L2C_prefetch_requested 6811993
Core_0_L2C_prefetch_issued 5589971
Core_0_L2C_prefetch_useful 592330 L2C_Useful Ratio: 0.10596
Core_0_L2C_prefetch_useless 1477997
Core_0_L2C_prefetch_late 222935
Core_0_L2C_average_miss_latency 341.10185

Core_0_LLC_total_access 4634771
Core_0_LLC_total_hit 1878028 LLC_total_Hit Ratio: 0.40520
Core_0_LLC_total_miss 2756743
Core_0_LLC_loads 247499
Core_0_LLC_load_hit 39015 LLC_load_Hit Ratio: 0.15764
Core_0_LLC_load_miss 208484
Core_0_LLC_RFOs 449260
Core_0_LLC_RFO_hit 120 LLC_RFO_Hit Ratio: 0.00027
Core_0_LLC_RFO_miss 449140
Core_0_LLC_prefetches 2315216
Core_0_LLC_prefetch_hit 227515 LLC_prefetch_Hit Ratio: 0.09827
Core_0_LLC_prefetch_miss 2087701
Core_0_LLC_writebacks 1622796
Core_0_LLC_writeback_hit 1611378 LLC_writeback_Hit Ratio: 0.99296
Core_0_LLC_writeback_miss 11418
Core_0_LLC_prefetch_requested 0
Core_0_LLC_prefetch_issued 0
Core_0_LLC_prefetch_useful 36855 LLC_Useful Ratio: inf
Core_0_LLC_prefetch_useless 1952319
Core_0_LLC_prefetch_late 0
Core_0_LLC_average_miss_latency 365.82619

Core_0_major_page_fault 0
Core_0_minor_page_fault 19454

CPU 0 L1D berti prefetcher final stats
0-> Hits: 23, Late: 5, Early: 0, Misses: 0
1-> Hits: 2, Late: 1, Early: 0, Misses: 0
3-> Hits: 5, Late: 0, Early: 0, Misses: 0
4-> Hits: 2, Late: 0, Early: 0, Misses: 0
5-> Hits: 3, Late: 1, Early: 0, Misses: 0
6-> Hits: 1, Late: 0, Early: 0, Misses: 0
7-> Hits: 2, Late: 0, Early: 0, Misses: 0
8-> Hits: 66, Late: 40, Early: 0, Misses: 0
9-> Hits: 2, Late: 0, Early: 0, Misses: 0
a-> Hits: 0, Late: 2, Early: 0, Misses: 0
b-> Hits: 5, Late: 0, Early: 0, Misses: 0
d-> Hits: 96, Late: 8, Early: 0, Misses: 0
e-> Hits: 6, Late: 0, Early: 0, Misses: 0
10-> Hits: 2, Late: 0, Early: 0, Misses: 0
11-> Hits: 0, Late: 1, Early: 0, Misses: 0
12-> Hits: 49, Late: 55, Early: 0, Misses: 0
13-> Hits: 1, Late: 0, Early: 0, Misses: 0
14-> Hits: 2, Late: 0, Early: 0, Misses: 0
16-> Hits: 12, Late: 0, Early: 0, Misses: 0
17-> Hits: 3, Late: 0, Early: 0, Misses: 0
18-> Hits: 91, Late: 14, Early: 0, Misses: 0
1a-> Hits: 343, Late: 1, Early: 0, Misses: 0
1b-> Hits: 1, Late: 0, Early: 0, Misses: 0
1c-> Hits: 13, Late: 0, Early: 0, Misses: 0
1d-> Hits: 3, Late: 1, Early: 0, Misses: 0
1e-> Hits: 3, Late: 0, Early: 0, Misses: 0
1f-> Hits: 1, Late: 0, Early: 0, Misses: 0
20-> Hits: 2, Late: 1, Early: 0, Misses: 0
21-> Hits: 312, Late: 0, Early: 0, Misses: 0
22-> Hits: 2, Late: 2, Early: 0, Misses: 0
24-> Hits: 15, Late: 0, Early: 0, Misses: 0
25-> Hits: 3, Late: 0, Early: 0, Misses: 0
27-> Hits: 97, Late: 34, Early: 0, Misses: 0
28-> Hits: 10, Late: 0, Early: 0, Misses: 0
2a-> Hits: 334, Late: 1, Early: 0, Misses: 0
2b-> Hits: 6, Late: 0, Early: 0, Misses: 0
2c-> Hits: 97, Late: 8, Early: 0, Misses: 0
2d-> Hits: 1, Late: 0, Early: 0, Misses: 0
2f-> Hits: 3, Late: 0, Early: 0, Misses: 0
30-> Hits: 7, Late: 2, Early: 0, Misses: 0
31-> Hits: 48, Late: 56, Early: 0, Misses: 0
33-> Hits: 11, Late: 0, Early: 0, Misses: 0
34-> Hits: 11, Late: 0, Early: 0, Misses: 0
35-> Hits: 343, Late: 1, Early: 0, Misses: 0
36-> Hits: 2, Late: 0, Early: 0, Misses: 0
37-> Hits: 86, Late: 19, Early: 0, Misses: 0
38-> Hits: 4, Late: 0, Early: 0, Misses: 0
39-> Hits: 2, Late: 0, Early: 0, Misses: 0
3a-> Hits: 2, Late: 0, Early: 0, Misses: 0
3c-> Hits: 2, Late: 0, Early: 0, Misses: 0
3d-> Hits: 0, Late: 16, Early: 0, Misses: 0
3e-> Hits: 3, Late: 0, Early: 0, Misses: 0
3f-> Hits: 1, Late: 0, Early: 0, Misses: 0
40-> Hits: 2, Late: 2, Early: 0, Misses: 0
43-> Hits: 2, Late: 0, Early: 0, Misses: 0
44-> Hits: 3, Late: 0, Early: 0, Misses: 0
45-> Hits: 2, Late: 0, Early: 0, Misses: 0
46-> Hits: 66, Late: 40, Early: 0, Misses: 0
47-> Hits: 2, Late: 0, Early: 0, Misses: 0
48-> Hits: 21, Late: 0, Early: 0, Misses: 0
49-> Hits: 23, Late: 0, Early: 0, Misses: 0
4a-> Hits: 18, Late: 0, Early: 0, Misses: 0
4b-> Hits: 106, Late: 16, Early: 0, Misses: 0
4d-> Hits: 18, Late: 0, Early: 0, Misses: 0
4e-> Hits: 1, Late: 0, Early: 0, Misses: 0
4f-> Hits: 16, Late: 0, Early: 0, Misses: 0
50-> Hits: 31, Late: 83, Early: 0, Misses: 0
51-> Hits: 16, Late: 0, Early: 0, Misses: 0
52-> Hits: 8, Late: 0, Early: 0, Misses: 0
53-> Hits: 19, Late: 0, Early: 0, Misses: 0
54-> Hits: 3, Late: 0, Early: 0, Misses: 0
56-> Hits: 491, Late: 24, Early: 0, Misses: 0
58-> Hits: 2, Late: 0, Early: 0, Misses: 0
5a-> Hits: 2, Late: 0, Early: 0, Misses: 0
5c-> Hits: 15, Late: 1, Early: 0, Misses: 0
5d-> Hits: 4, Late: 0, Early: 0, Misses: 0
61-> Hits: 3, Late: 0, Early: 0, Misses: 0
62-> Hits: 2, Late: 0, Early: 0, Misses: 0
63-> Hits: 0, Late: 2, Early: 0, Misses: 0
64-> Hits: 345, Late: 2, Early: 0, Misses: 0
69-> Hits: 2, Late: 0, Early: 0, Misses: 0
6a-> Hits: 2, Late: 0, Early: 0, Misses: 0
6b-> Hits: 0, Late: 8, Early: 0, Misses: 0
6f-> Hits: 1, Late: 0, Early: 0, Misses: 0
70-> Hits: 663, Late: 1, Early: 0, Misses: 0
71-> Hits: 1, Late: 0, Early: 0, Misses: 0
76-> Hits: 3, Late: 1, Early: 0, Misses: 0
77-> Hits: 2, Late: 0, Early: 0, Misses: 0
78-> Hits: 349, Late: 0, Early: 0, Misses: 0
79-> Hits: 1, Late: 0, Early: 0, Misses: 0
7a-> Hits: 3, Late: 0, Early: 0, Misses: 0
7b-> Hits: 3, Late: 2, Early: 0, Misses: 0
7c-> Hits: 1, Late: 0, Early: 0, Misses: 0
7d-> Hits: 1, Late: 0, Early: 0, Misses: 0
7e-> Hits: 3, Late: 0, Early: 0, Misses: 0
7f-> Hits: 5, Late: 0, Early: 0, Misses: 0
80-> Hits: 85352, Late: 560, Early: 0, Misses: 4
81-> Hits: 1, Late: 0, Early: 0, Misses: 0
82-> Hits: 2, Late: 0, Early: 0, Misses: 0
84-> Hits: 4, Late: 1, Early: 0, Misses: 0
86-> Hits: 1, Late: 0, Early: 0, Misses: 0
88-> Hits: 5083, Late: 998, Early: 0, Misses: 24
89-> Hits: 124, Late: 1, Early: 0, Misses: 12
8a-> Hits: 2, Late: 0, Early: 0, Misses: 0
8f-> Hits: 4, Late: 0, Early: 0, Misses: 0
90-> Hits: 0, Late: 1, Early: 0, Misses: 0
91-> Hits: 2, Late: 0, Early: 0, Misses: 0
92-> Hits: 85556, Late: 16, Early: 0, Misses: 0
94-> Hits: 362, Late: 0, Early: 0, Misses: 0
95-> Hits: 1, Late: 0, Early: 0, Misses: 0
96-> Hits: 3, Late: 0, Early: 0, Misses: 0
98-> Hits: 3, Late: 0, Early: 0, Misses: 0
99-> Hits: 1, Late: 0, Early: 0, Misses: 0
9a-> Hits: 5, Late: 0, Early: 0, Misses: 0
9b-> Hits: 3, Late: 0, Early: 0, Misses: 0
9c-> Hits: 4524, Late: 0, Early: 0, Misses: 0
9d-> Hits: 111, Late: 4, Early: 0, Misses: 15
9e-> Hits: 2, Late: 0, Early: 0, Misses: 0
9f-> Hits: 4, Late: 0, Early: 0, Misses: 0
a0-> Hits: 1, Late: 0, Early: 0, Misses: 0
a1-> Hits: 5, Late: 0, Early: 0, Misses: 0
a2-> Hits: 1, Late: 0, Early: 0, Misses: 0
a3-> Hits: 3, Late: 0, Early: 0, Misses: 0
a4-> Hits: 7, Late: 0, Early: 0, Misses: 0
a5-> Hits: 4, Late: 0, Early: 0, Misses: 0
a6-> Hits: 85560, Late: 16, Early: 0, Misses: 0
a7-> Hits: 4, Late: 0, Early: 0, Misses: 0
a8-> Hits: 3, Late: 0, Early: 0, Misses: 0
a9-> Hits: 4, Late: 0, Early: 0, Misses: 0
aa-> Hits: 3, Late: 0, Early: 0, Misses: 0
ab-> Hits: 5, Late: 0, Early: 0, Misses: 0
ac-> Hits: 4, Late: 1, Early: 0, Misses: 0
ad-> Hits: 4, Late: 0, Early: 0, Misses: 0
ae-> Hits: 7, Late: 0, Early: 0, Misses: 0
af-> Hits: 3, Late: 7, Early: 0, Misses: 0
b0-> Hits: 15, Late: 6, Early: 0, Misses: 0
b1-> Hits: 2, Late: 0, Early: 0, Misses: 0
b3-> Hits: 6, Late: 0, Early: 0, Misses: 0
b4-> Hits: 4, Late: 0, Early: 0, Misses: 0
b6-> Hits: 81113, Late: 4910, Early: 0, Misses: 0
b7-> Hits: 5, Late: 0, Early: 0, Misses: 0
b8-> Hits: 2, Late: 1, Early: 0, Misses: 0
ba-> Hits: 2, Late: 0, Early: 0, Misses: 0
bb-> Hits: 81620, Late: 4398, Early: 0, Misses: 0
bc-> Hits: 2, Late: 0, Early: 0, Misses: 0
bf-> Hits: 1, Late: 0, Early: 0, Misses: 0
c0-> Hits: 11, Late: 18, Early: 0, Misses: 0
c1-> Hits: 1, Late: 0, Early: 0, Misses: 0
c2-> Hits: 6, Late: 0, Early: 0, Misses: 0
c3-> Hits: 6, Late: 0, Early: 0, Misses: 0
c4-> Hits: 353, Late: 8, Early: 0, Misses: 0
c5-> Hits: 1, Late: 0, Early: 0, Misses: 0
c6-> Hits: 4, Late: 0, Early: 0, Misses: 0
c7-> Hits: 5, Late: 0, Early: 0, Misses: 0
c8-> Hits: 10, Late: 0, Early: 0, Misses: 0
c9-> Hits: 1, Late: 0, Early: 0, Misses: 0
ca-> Hits: 1, Late: 0, Early: 0, Misses: 0
cb-> Hits: 80325, Late: 6051, Early: 0, Misses: 1
cc-> Hits: 1, Late: 0, Early: 0, Misses: 0
cf-> Hits: 1, Late: 0, Early: 0, Misses: 0
d0-> Hits: 81443, Late: 4577, Early: 0, Misses: 0
d1-> Hits: 4, Late: 0, Early: 0, Misses: 0
d2-> Hits: 6, Late: 0, Early: 0, Misses: 0
d3-> Hits: 352, Late: 7, Early: 0, Misses: 1
d4-> Hits: 1, Late: 0, Early: 0, Misses: 0
d5-> Hits: 2, Late: 0, Early: 0, Misses: 0
d6-> Hits: 2, Late: 0, Early: 0, Misses: 0
d7-> Hits: 1, Late: 0, Early: 0, Misses: 0
d8-> Hits: 1, Late: 0, Early: 0, Misses: 0
d9-> Hits: 8, Late: 0, Early: 0, Misses: 0
db-> Hits: 2, Late: 0, Early: 0, Misses: 0
dd-> Hits: 2, Late: 0, Early: 0, Misses: 0
df-> Hits: 1, Late: 0, Early: 0, Misses: 0
e0-> Hits: 12, Late: 6, Early: 0, Misses: 0
e1-> Hits: 1, Late: 0, Early: 0, Misses: 0
ea-> Hits: 2, Late: 0, Early: 0, Misses: 0
f3-> Hits: 354, Late: 1, Early: 0, Misses: 0
f4-> Hits: 1, Late: 0, Early: 0, Misses: 0
f6-> Hits: 2, Late: 0, Early: 0, Misses: 0
f7-> Hits: 4, Late: 0, Early: 0, Misses: 0
f8-> Hits: 3, Late: 0, Early: 0, Misses: 0
fa-> Hits: 2, Late: 0, Early: 0, Misses: 0
fb-> Hits: 354, Late: 0, Early: 0, Misses: 0
fc-> Hits: 1, Late: 0, Early: 0, Misses: 0
fd-> Hits: 2, Late: 0, Early: 0, Misses: 0
fe-> Hits: 1, Late: 0, Early: 0, Misses: 0
ff-> Hits: 4, Late: 0, Early: 0, Misses: 0
100-> Hits: 11, Late: 2, Early: 0, Misses: 0
101-> Hits: 1, Late: 0, Early: 0, Misses: 0
103-> Hits: 1, Late: 0, Early: 0, Misses: 0
104-> Hits: 0, Late: 1, Early: 0, Misses: 0
10a-> Hits: 1, Late: 0, Early: 0, Misses: 0
10b-> Hits: 3, Late: 0, Early: 0, Misses: 0
10d-> Hits: 3, Late: 0, Early: 0, Misses: 0
10e-> Hits: 1, Late: 0, Early: 0, Misses: 0
110-> Hits: 1, Late: 1, Early: 0, Misses: 0
112-> Hits: 12, Late: 1, Early: 0, Misses: 0
114-> Hits: 1, Late: 0, Early: 0, Misses: 0
115-> Hits: 1, Late: 0, Early: 0, Misses: 0
116-> Hits: 1, Late: 0, Early: 0, Misses: 0
117-> Hits: 3, Late: 0, Early: 0, Misses: 0
118-> Hits: 1, Late: 0, Early: 0, Misses: 0
11a-> Hits: 3, Late: 0, Early: 0, Misses: 0
11b-> Hits: 3, Late: 0, Early: 0, Misses: 0
11c-> Hits: 3, Late: 0, Early: 0, Misses: 0
11d-> Hits: 1, Late: 0, Early: 0, Misses: 0
11e-> Hits: 2, Late: 0, Early: 0, Misses: 0
11f-> Hits: 1, Late: 0, Early: 0, Misses: 0
120-> Hits: 2, Late: 2, Early: 0, Misses: 0
121-> Hits: 1, Late: 0, Early: 0, Misses: 0
122-> Hits: 2, Late: 0, Early: 0, Misses: 0
123-> Hits: 1, Late: 0, Early: 0, Misses: 0
124-> Hits: 3, Late: 0, Early: 0, Misses: 0
125-> Hits: 1, Late: 0, Early: 0, Misses: 0
126-> Hits: 1, Late: 0, Early: 0, Misses: 0
127-> Hits: 1, Late: 0, Early: 0, Misses: 0
128-> Hits: 360, Late: 0, Early: 0, Misses: 0
129-> Hits: 2, Late: 0, Early: 0, Misses: 0
12b-> Hits: 6, Late: 0, Early: 0, Misses: 0
12c-> Hits: 2, Late: 0, Early: 0, Misses: 0
12d-> Hits: 2, Late: 0, Early: 0, Misses: 0
12f-> Hits: 1, Late: 0, Early: 0, Misses: 0
130-> Hits: 10, Late: 1, Early: 0, Misses: 0
132-> Hits: 1, Late: 0, Early: 0, Misses: 0
133-> Hits: 1, Late: 0, Early: 0, Misses: 0
134-> Hits: 0, Late: 1, Early: 0, Misses: 0
136-> Hits: 1, Late: 0, Early: 0, Misses: 0
137-> Hits: 1, Late: 0, Early: 0, Misses: 0
138-> Hits: 1, Late: 0, Early: 0, Misses: 0
13a-> Hits: 2, Late: 0, Early: 0, Misses: 0
13c-> Hits: 1, Late: 0, Early: 0, Misses: 0
13e-> Hits: 1, Late: 0, Early: 0, Misses: 0
13f-> Hits: 1, Late: 0, Early: 0, Misses: 0
140-> Hits: 1, Late: 3, Early: 0, Misses: 0
142-> Hits: 4, Late: 0, Early: 0, Misses: 0
143-> Hits: 1, Late: 0, Early: 0, Misses: 0
144-> Hits: 0, Late: 2, Early: 0, Misses: 0
145-> Hits: 1, Late: 0, Early: 0, Misses: 0
147-> Hits: 10, Late: 0, Early: 0, Misses: 0
148-> Hits: 2, Late: 0, Early: 0, Misses: 0
149-> Hits: 4, Late: 0, Early: 0, Misses: 0
14a-> Hits: 5, Late: 0, Early: 0, Misses: 0
14d-> Hits: 0, Late: 1, Early: 0, Misses: 0
14f-> Hits: 9, Late: 0, Early: 0, Misses: 0
154-> Hits: 8, Late: 0, Early: 0, Misses: 0
155-> Hits: 2, Late: 2, Early: 0, Misses: 0
156-> Hits: 0, Late: 1, Early: 0, Misses: 0
159-> Hits: 12, Late: 0, Early: 0, Misses: 0
15b-> Hits: 2, Late: 0, Early: 0, Misses: 0
15d-> Hits: 3, Late: 0, Early: 0, Misses: 0
15f-> Hits: 1, Late: 0, Early: 0, Misses: 0
160-> Hits: 1, Late: 0, Early: 0, Misses: 0
163-> Hits: 1, Late: 0, Early: 0, Misses: 0
164-> Hits: 361, Late: 0, Early: 0, Misses: 0
165-> Hits: 2, Late: 0, Early: 0, Misses: 0
168-> Hits: 1, Late: 0, Early: 0, Misses: 0
169-> Hits: 8, Late: 0, Early: 0, Misses: 0
16a-> Hits: 8, Late: 1, Early: 0, Misses: 0
16b-> Hits: 10, Late: 0, Early: 0, Misses: 0
16d-> Hits: 16, Late: 0, Early: 0, Misses: 0
16e-> Hits: 338, Late: 26, Early: 0, Misses: 0
16f-> Hits: 10, Late: 0, Early: 0, Misses: 0
171-> Hits: 8, Late: 0, Early: 0, Misses: 0
172-> Hits: 2, Late: 0, Early: 0, Misses: 0
176-> Hits: 9, Late: 0, Early: 0, Misses: 0
177-> Hits: 9, Late: 0, Early: 0, Misses: 0
178-> Hits: 1, Late: 0, Early: 0, Misses: 0
17a-> Hits: 0, Late: 1, Early: 0, Misses: 0
17c-> Hits: 28, Late: 9, Early: 0, Misses: 0
17d-> Hits: 2, Late: 0, Early: 0, Misses: 0
17e-> Hits: 1, Late: 0, Early: 0, Misses: 0
17f-> Hits: 1, Late: 0, Early: 0, Misses: 0
180-> Hits: 13, Late: 6, Early: 0, Misses: 0
181-> Hits: 9, Late: 0, Early: 0, Misses: 0
184-> Hits: 28, Late: 0, Early: 0, Misses: 0
185-> Hits: 5, Late: 0, Early: 0, Misses: 0
188-> Hits: 2, Late: 0, Early: 0, Misses: 0
189-> Hits: 3, Late: 0, Early: 0, Misses: 0
18b-> Hits: 2, Late: 0, Early: 0, Misses: 0
18c-> Hits: 3, Late: 0, Early: 0, Misses: 0
18e-> Hits: 0, Late: 1, Early: 0, Misses: 0
18f-> Hits: 1, Late: 0, Early: 0, Misses: 0
190-> Hits: 10, Late: 1, Early: 0, Misses: 0
192-> Hits: 2, Late: 0, Early: 0, Misses: 0
194-> Hits: 9, Late: 16, Early: 0, Misses: 0
195-> Hits: 2, Late: 0, Early: 0, Misses: 0
197-> Hits: 9, Late: 0, Early: 0, Misses: 0
198-> Hits: 5, Late: 0, Early: 0, Misses: 0
199-> Hits: 16, Late: 14, Early: 0, Misses: 0
19a-> Hits: 3, Late: 0, Early: 0, Misses: 0
19b-> Hits: 7, Late: 0, Early: 0, Misses: 0
19c-> Hits: 2, Late: 0, Early: 0, Misses: 0
19d-> Hits: 12, Late: 1, Early: 0, Misses: 0
19e-> Hits: 2, Late: 0, Early: 0, Misses: 0
19f-> Hits: 4, Late: 0, Early: 0, Misses: 0
1a0-> Hits: 270482, Late: 4957, Early: 0, Misses: 8893
1a1-> Hits: 5, Late: 0, Early: 0, Misses: 0
1a2-> Hits: 8, Late: 0, Early: 0, Misses: 0
1a4-> Hits: 270916, Late: 3683, Early: 0, Misses: 1982
1a5-> Hits: 1, Late: 0, Early: 0, Misses: 0
1a6-> Hits: 1, Late: 0, Early: 0, Misses: 0
1a7-> Hits: 4, Late: 0, Early: 0, Misses: 0
1a8-> Hits: 2, Late: 0, Early: 0, Misses: 0
1a9-> Hits: 8873, Late: 19, Early: 0, Misses: 8
1ad-> Hits: 0, Late: 8, Early: 0, Misses: 0
1ae-> Hits: 2, Late: 0, Early: 0, Misses: 0
1af-> Hits: 7, Late: 0, Early: 0, Misses: 0
1b0-> Hits: 5, Late: 2, Early: 0, Misses: 0
1b1-> Hits: 267241, Late: 15783, Early: 0, Misses: 0
1b3-> Hits: 4, Late: 0, Early: 0, Misses: 0
1b5-> Hits: 2, Late: 2, Early: 0, Misses: 0
1b6-> Hits: 2, Late: 1, Early: 0, Misses: 0
1b7-> Hits: 16, Late: 3, Early: 0, Misses: 0
1b8-> Hits: 3, Late: 2, Early: 0, Misses: 0
1b9-> Hits: 1, Late: 0, Early: 0, Misses: 0
1ba-> Hits: 3, Late: 0, Early: 0, Misses: 0
1bd-> Hits: 5, Late: 0, Early: 0, Misses: 0
1be-> Hits: 5, Late: 0, Early: 0, Misses: 0
1bf-> Hits: 7, Late: 0, Early: 0, Misses: 0
1c0-> Hits: 3, Late: 3, Early: 0, Misses: 0
1c1-> Hits: 175153, Late: 109172, Early: 0, Misses: 0
1c2-> Hits: 0, Late: 10, Early: 0, Misses: 0
1c3-> Hits: 6, Late: 0, Early: 0, Misses: 0
1c4-> Hits: 3, Late: 0, Early: 0, Misses: 0
1c5-> Hits: 266482, Late: 16562, Early: 0, Misses: 0
1c6-> Hits: 4, Late: 0, Early: 0, Misses: 0
1c7-> Hits: 2, Late: 10, Early: 0, Misses: 0
1c8-> Hits: 5, Late: 0, Early: 0, Misses: 0
1c9-> Hits: 1, Late: 0, Early: 0, Misses: 0
1ca-> Hits: 2, Late: 0, Early: 0, Misses: 0
1cc-> Hits: 1, Late: 2, Early: 0, Misses: 0
1cd-> Hits: 7, Late: 0, Early: 0, Misses: 0
1ce-> Hits: 3, Late: 0, Early: 0, Misses: 0
1d0-> Hits: 12, Late: 1, Early: 0, Misses: 0
1d4-> Hits: 1, Late: 0, Early: 0, Misses: 0
1d6-> Hits: 266375, Late: 16715, Early: 0, Misses: 0
1d7-> Hits: 1, Late: 0, Early: 0, Misses: 0
1d8-> Hits: 7, Late: 0, Early: 0, Misses: 0
1da-> Hits: 2, Late: 0, Early: 0, Misses: 0
1db-> Hits: 5, Late: 1, Early: 0, Misses: 0
1de-> Hits: 10, Late: 1, Early: 0, Misses: 0
1df-> Hits: 13, Late: 0, Early: 0, Misses: 0
1e0-> Hits: 6, Late: 1, Early: 0, Misses: 0
1e1-> Hits: 8, Late: 1, Early: 0, Misses: 0
1e2-> Hits: 1, Late: 1, Early: 0, Misses: 0
1e4-> Hits: 1, Late: 0, Early: 0, Misses: 0
1e5-> Hits: 1, Late: 1, Early: 0, Misses: 0
1e7-> Hits: 266301, Late: 16720, Early: 0, Misses: 0
1e8-> Hits: 0, Late: 1, Early: 0, Misses: 0
1ea-> Hits: 0, Late: 1, Early: 0, Misses: 0
1eb-> Hits: 5, Late: 0, Early: 0, Misses: 0
1ec-> Hits: 2, Late: 0, Early: 0, Misses: 0
1ef-> Hits: 11, Late: 0, Early: 0, Misses: 0
1f0-> Hits: 337, Late: 40, Early: 0, Misses: 0
1f1-> Hits: 1, Late: 1, Early: 0, Misses: 0
1f2-> Hits: 1, Late: 0, Early: 0, Misses: 0
1f4-> Hits: 14, Late: 0, Early: 0, Misses: 0
1f6-> Hits: 1, Late: 0, Early: 0, Misses: 0
1f7-> Hits: 266058, Late: 17028, Early: 0, Misses: 0
1f8-> Hits: 5, Late: 0, Early: 0, Misses: 0
1f9-> Hits: 4, Late: 0, Early: 0, Misses: 0
1fa-> Hits: 1, Late: 0, Early: 0, Misses: 0
1fc-> Hits: 9, Late: 0, Early: 0, Misses: 0
1fd-> Hits: 0, Late: 1, Early: 0, Misses: 0
1fe-> Hits: 11, Late: 0, Early: 0, Misses: 0
200-> Hits: 2, Late: 0, Early: 0, Misses: 0
201-> Hits: 5, Late: 0, Early: 0, Misses: 0
202-> Hits: 1, Late: 0, Early: 0, Misses: 0
203-> Hits: 14, Late: 0, Early: 0, Misses: 0
205-> Hits: 3, Late: 0, Early: 0, Misses: 0
206-> Hits: 4, Late: 1, Early: 0, Misses: 0
207-> Hits: 12, Late: 0, Early: 0, Misses: 0
208-> Hits: 266244, Late: 17344, Early: 0, Misses: 0
20a-> Hits: 5, Late: 0, Early: 0, Misses: 0
20c-> Hits: 5, Late: 0, Early: 0, Misses: 0
20e-> Hits: 6, Late: 0, Early: 0, Misses: 0
20f-> Hits: 13, Late: 3, Early: 0, Misses: 0
210-> Hits: 3, Late: 3, Early: 0, Misses: 0
212-> Hits: 5, Late: 0, Early: 0, Misses: 0
214-> Hits: 23, Late: 1, Early: 0, Misses: 0
216-> Hits: 3, Late: 0, Early: 0, Misses: 0
217-> Hits: 12, Late: 1, Early: 0, Misses: 0
218-> Hits: 3, Late: 0, Early: 0, Misses: 0
219-> Hits: 271860, Late: 4152, Early: 0, Misses: 8317
21a-> Hits: 8, Late: 1, Early: 0, Misses: 0
21d-> Hits: 272879, Late: 3345, Early: 0, Misses: 1491
21f-> Hits: 10, Late: 0, Early: 0, Misses: 0
220-> Hits: 5, Late: 4, Early: 0, Misses: 0
221-> Hits: 4, Late: 1, Early: 0, Misses: 0
222-> Hits: 7485, Late: 11, Early: 0, Misses: 10
224-> Hits: 2, Late: 1, Early: 0, Misses: 0
225-> Hits: 7, Late: 1, Early: 0, Misses: 0
226-> Hits: 1, Late: 0, Early: 0, Misses: 0
227-> Hits: 0, Late: 1, Early: 0, Misses: 0
228-> Hits: 1, Late: 0, Early: 0, Misses: 0
22a-> Hits: 248766, Late: 8715, Early: 0, Misses: 0
22b-> Hits: 7, Late: 1, Early: 0, Misses: 0
22c-> Hits: 5, Late: 0, Early: 0, Misses: 0
22d-> Hits: 3, Late: 0, Early: 0, Misses: 0
22e-> Hits: 1, Late: 0, Early: 0, Misses: 0
22f-> Hits: 3, Late: 0, Early: 0, Misses: 0
230-> Hits: 4, Late: 1, Early: 0, Misses: 0
231-> Hits: 7, Late: 0, Early: 0, Misses: 0
232-> Hits: 4, Late: 0, Early: 0, Misses: 0
233-> Hits: 4, Late: 0, Early: 0, Misses: 0
234-> Hits: 1, Late: 0, Early: 0, Misses: 0
235-> Hits: 2, Late: 0, Early: 0, Misses: 0
236-> Hits: 1, Late: 0, Early: 0, Misses: 0
23a-> Hits: 175290, Late: 109048, Early: 0, Misses: 0
23b-> Hits: 3, Late: 0, Early: 0, Misses: 0
23c-> Hits: 3, Late: 0, Early: 0, Misses: 0
23d-> Hits: 20, Late: 0, Early: 0, Misses: 0
23e-> Hits: 6, Late: 0, Early: 0, Misses: 0
23f-> Hits: 245786, Late: 9071, Early: 0, Misses: 0
240-> Hits: 11, Late: 6, Early: 0, Misses: 0
241-> Hits: 2, Late: 0, Early: 0, Misses: 0
245-> Hits: 4, Late: 0, Early: 0, Misses: 1
246-> Hits: 4, Late: 0, Early: 0, Misses: 0
247-> Hits: 1, Late: 0, Early: 0, Misses: 0
248-> Hits: 4, Late: 0, Early: 0, Misses: 0
249-> Hits: 2, Late: 0, Early: 0, Misses: 0
24a-> Hits: 1, Late: 1, Early: 0, Misses: 0
24b-> Hits: 1, Late: 0, Early: 0, Misses: 0
24d-> Hits: 2, Late: 0, Early: 0, Misses: 0
24e-> Hits: 1, Late: 0, Early: 0, Misses: 0
24f-> Hits: 4, Late: 0, Early: 0, Misses: 0
250-> Hits: 241690, Late: 8848, Early: 0, Misses: 0
251-> Hits: 4, Late: 0, Early: 0, Misses: 0
252-> Hits: 4, Late: 1, Early: 0, Misses: 0
253-> Hits: 1, Late: 0, Early: 0, Misses: 0
254-> Hits: 4, Late: 0, Early: 0, Misses: 0
255-> Hits: 4, Late: 1, Early: 0, Misses: 0
256-> Hits: 3, Late: 0, Early: 0, Misses: 0
258-> Hits: 4, Late: 0, Early: 0, Misses: 0
25a-> Hits: 3, Late: 0, Early: 0, Misses: 0
25c-> Hits: 2, Late: 0, Early: 0, Misses: 0
25d-> Hits: 1, Late: 0, Early: 0, Misses: 0
25e-> Hits: 1, Late: 0, Early: 0, Misses: 0
25f-> Hits: 1, Late: 2, Early: 0, Misses: 0
260-> Hits: 9, Late: 3, Early: 0, Misses: 0
261-> Hits: 241439, Late: 8891, Early: 0, Misses: 0
263-> Hits: 10, Late: 0, Early: 0, Misses: 0
264-> Hits: 2, Late: 0, Early: 0, Misses: 0
265-> Hits: 3, Late: 0, Early: 0, Misses: 0
266-> Hits: 4, Late: 0, Early: 0, Misses: 0
267-> Hits: 6, Late: 0, Early: 0, Misses: 0
268-> Hits: 5, Late: 0, Early: 0, Misses: 0
269-> Hits: 1, Late: 0, Early: 0, Misses: 0
26a-> Hits: 2, Late: 0, Early: 0, Misses: 0
26b-> Hits: 1, Late: 0, Early: 0, Misses: 0
26d-> Hits: 8, Late: 0, Early: 0, Misses: 0
26e-> Hits: 24, Late: 0, Early: 0, Misses: 0
270-> Hits: 18, Late: 1, Early: 0, Misses: 0
271-> Hits: 238752, Late: 9340, Early: 0, Misses: 0
275-> Hits: 8, Late: 0, Early: 0, Misses: 0
276-> Hits: 1, Late: 0, Early: 0, Misses: 0
278-> Hits: 1, Late: 0, Early: 0, Misses: 0
27a-> Hits: 8, Late: 0, Early: 0, Misses: 0
27b-> Hits: 5, Late: 0, Early: 0, Misses: 0
27c-> Hits: 2, Late: 0, Early: 0, Misses: 0
27d-> Hits: 342, Late: 1, Early: 0, Misses: 0
27e-> Hits: 6, Late: 0, Early: 0, Misses: 0
27f-> Hits: 8, Late: 0, Early: 0, Misses: 0
280-> Hits: 0, Late: 2, Early: 0, Misses: 0
281-> Hits: 1, Late: 0, Early: 0, Misses: 0
282-> Hits: 243136, Late: 9298, Early: 0, Misses: 0
284-> Hits: 4, Late: 0, Early: 0, Misses: 0
285-> Hits: 14, Late: 1, Early: 0, Misses: 0
289-> Hits: 0, Late: 1, Early: 0, Misses: 0
28a-> Hits: 2, Late: 0, Early: 0, Misses: 0
28f-> Hits: 10, Late: 0, Early: 0, Misses: 0
290-> Hits: 1, Late: 0, Early: 0, Misses: 0
291-> Hits: 1, Late: 0, Early: 0, Misses: 0
293-> Hits: 277100, Late: 3310, Early: 0, Misses: 3919
297-> Hits: 274859, Late: 2020, Early: 0, Misses: 369
298-> Hits: 1, Late: 0, Early: 0, Misses: 0
299-> Hits: 1, Late: 0, Early: 0, Misses: 0
29a-> Hits: 1, Late: 0, Early: 0, Misses: 0
29c-> Hits: 7460, Late: 7, Early: 0, Misses: 0
29d-> Hits: 11, Late: 2, Early: 0, Misses: 0
29e-> Hits: 2, Late: 0, Early: 0, Misses: 0
29f-> Hits: 5, Late: 0, Early: 0, Misses: 0
2a0-> Hits: 3, Late: 1, Early: 0, Misses: 0
2a1-> Hits: 2, Late: 0, Early: 0, Misses: 0
2a2-> Hits: 10, Late: 0, Early: 0, Misses: 0
2a4-> Hits: 243078, Late: 7619, Early: 0, Misses: 0
2a5-> Hits: 1, Late: 0, Early: 0, Misses: 0
2a6-> Hits: 5, Late: 0, Early: 0, Misses: 0
2a7-> Hits: 5, Late: 0, Early: 0, Misses: 0
2a9-> Hits: 7, Late: 0, Early: 0, Misses: 0
2aa-> Hits: 5, Late: 0, Early: 0, Misses: 0
2ad-> Hits: 1, Late: 1, Early: 0, Misses: 0
2ae-> Hits: 344, Late: 0, Early: 0, Misses: 0
2af-> Hits: 1, Late: 1, Early: 0, Misses: 0
2b0-> Hits: 1, Late: 0, Early: 0, Misses: 0
2b1-> Hits: 1, Late: 1, Early: 0, Misses: 0
2b3-> Hits: 1, Late: 1, Early: 0, Misses: 0
2b4-> Hits: 229550, Late: 7018, Early: 0, Misses: 0
2b6-> Hits: 1, Late: 1, Early: 0, Misses: 0
2b7-> Hits: 0, Late: 1, Early: 0, Misses: 0
2bd-> Hits: 18, Late: 0, Early: 0, Misses: 0
2c0-> Hits: 3, Late: 1, Early: 0, Misses: 0
2c1-> Hits: 1, Late: 1, Early: 0, Misses: 0
2c3-> Hits: 0, Late: 1, Early: 0, Misses: 0
2c5-> Hits: 176737, Late: 107600, Early: 0, Misses: 0
2c6-> Hits: 3, Late: 0, Early: 0, Misses: 0
2c7-> Hits: 1, Late: 0, Early: 0, Misses: 0
2c8-> Hits: 2, Late: 0, Early: 0, Misses: 0
2c9-> Hits: 6, Late: 1, Early: 0, Misses: 0
2ca-> Hits: 250309, Late: 8797, Early: 0, Misses: 0
2cc-> Hits: 2, Late: 1, Early: 0, Misses: 0
2cd-> Hits: 1, Late: 2, Early: 0, Misses: 0
2d1-> Hits: 1, Late: 1, Early: 0, Misses: 0
2d3-> Hits: 0, Late: 1, Early: 0, Misses: 0
2d6-> Hits: 2, Late: 1, Early: 0, Misses: 0
2d8-> Hits: 1, Late: 0, Early: 0, Misses: 0
2da-> Hits: 2, Late: 0, Early: 0, Misses: 0
2db-> Hits: 253856, Late: 8367, Early: 0, Misses: 0
2dc-> Hits: 4, Late: 0, Early: 0, Misses: 0
2de-> Hits: 2, Late: 0, Early: 0, Misses: 0
2df-> Hits: 2, Late: 2, Early: 0, Misses: 0
2e0-> Hits: 17, Late: 1, Early: 0, Misses: 0
2e2-> Hits: 3, Late: 0, Early: 0, Misses: 0
2e4-> Hits: 2, Late: 0, Early: 0, Misses: 0
2e5-> Hits: 2, Late: 0, Early: 0, Misses: 0
2e6-> Hits: 5, Late: 1, Early: 0, Misses: 0
2e9-> Hits: 3, Late: 0, Early: 0, Misses: 0
2ea-> Hits: 1, Late: 0, Early: 0, Misses: 0
2eb-> Hits: 252939, Late: 9332, Early: 0, Misses: 0
2ed-> Hits: 1, Late: 0, Early: 0, Misses: 0
2ee-> Hits: 1, Late: 0, Early: 0, Misses: 0
2ef-> Hits: 1, Late: 0, Early: 0, Misses: 0
2f0-> Hits: 1, Late: 1, Early: 0, Misses: 0
2f1-> Hits: 2, Late: 0, Early: 0, Misses: 0
2f2-> Hits: 2, Late: 0, Early: 0, Misses: 0
2f3-> Hits: 43, Late: 0, Early: 0, Misses: 0
2f4-> Hits: 10, Late: 0, Early: 0, Misses: 0
2f5-> Hits: 13, Late: 0, Early: 0, Misses: 0
2f6-> Hits: 10, Late: 0, Early: 0, Misses: 0
2f7-> Hits: 41, Late: 0, Early: 0, Misses: 0
2f8-> Hits: 10, Late: 0, Early: 0, Misses: 0
2fa-> Hits: 10, Late: 0, Early: 0, Misses: 0
2fb-> Hits: 356, Late: 7, Early: 0, Misses: 0
2fc-> Hits: 254333, Late: 8243, Early: 0, Misses: 0
300-> Hits: 85280, Late: 591, Early: 0, Misses: 4
301-> Hits: 1, Late: 0, Early: 0, Misses: 0
302-> Hits: 2, Late: 0, Early: 0, Misses: 0
304-> Hits: 4565, Late: 119, Early: 0, Misses: 0
305-> Hits: 10, Late: 0, Early: 0, Misses: 0
306-> Hits: 1, Late: 0, Early: 0, Misses: 0
308-> Hits: 1, Late: 1, Early: 0, Misses: 0
309-> Hits: 4070, Late: 95, Early: 0, Misses: 0
30a-> Hits: 2, Late: 0, Early: 0, Misses: 0
30b-> Hits: 2, Late: 0, Early: 0, Misses: 0
30c-> Hits: 1, Late: 0, Early: 0, Misses: 0
30d-> Hits: 279341, Late: 2075, Early: 0, Misses: 2912
30f-> Hits: 3885, Late: 74, Early: 0, Misses: 0
310-> Hits: 1, Late: 1, Early: 0, Misses: 0
311-> Hits: 273992, Late: 1377, Early: 0, Misses: 225
312-> Hits: 2, Late: 0, Early: 0, Misses: 0
313-> Hits: 1, Late: 0, Early: 0, Misses: 0
314-> Hits: 6467, Late: 178, Early: 0, Misses: 0
315-> Hits: 704, Late: 0, Early: 0, Misses: 0
316-> Hits: 8824, Late: 2, Early: 0, Misses: 0
317-> Hits: 9, Late: 2, Early: 0, Misses: 0
318-> Hits: 12, Late: 1, Early: 0, Misses: 1
319-> Hits: 7, Late: 0, Early: 0, Misses: 0
31a-> Hits: 2224, Late: 84496, Early: 0, Misses: 0
31b-> Hits: 5, Late: 0, Early: 0, Misses: 0
31d-> Hits: 4, Late: 0, Early: 0, Misses: 0
31e-> Hits: 251397, Late: 8947, Early: 0, Misses: 0
31f-> Hits: 1266, Late: 84760, Early: 0, Misses: 0
320-> Hits: 558, Late: 0, Early: 0, Misses: 0
324-> Hits: 1, Late: 0, Early: 0, Misses: 0
325-> Hits: 1005, Late: 85012, Early: 0, Misses: 0
326-> Hits: 3, Late: 0, Early: 0, Misses: 0
32a-> Hits: 630, Late: 85387, Early: 0, Misses: 0
32c-> Hits: 1, Late: 0, Early: 0, Misses: 0
32d-> Hits: 1, Late: 0, Early: 0, Misses: 0
32e-> Hits: 257423, Late: 11332, Early: 0, Misses: 0
32f-> Hits: 1, Late: 0, Early: 0, Misses: 0
330-> Hits: 4, Late: 1, Early: 0, Misses: 0
332-> Hits: 5, Late: 0, Early: 0, Misses: 0
333-> Hits: 2, Late: 0, Early: 0, Misses: 0
334-> Hits: 85236, Late: 621, Early: 0, Misses: 8
335-> Hits: 2, Late: 0, Early: 0, Misses: 0
336-> Hits: 1, Late: 0, Early: 0, Misses: 0
338-> Hits: 4, Late: 0, Early: 0, Misses: 0
339-> Hits: 1, Late: 0, Early: 0, Misses: 0
33a-> Hits: 6, Late: 0, Early: 0, Misses: 0
33c-> Hits: 1, Late: 0, Early: 0, Misses: 0
33d-> Hits: 2, Late: 0, Early: 0, Misses: 0
33f-> Hits: 237881, Late: 7791, Early: 0, Misses: 0
340-> Hits: 1651, Late: 8, Early: 0, Misses: 1
341-> Hits: 3, Late: 0, Early: 0, Misses: 0
344-> Hits: 1509, Late: 5, Early: 0, Misses: 7
347-> Hits: 4, Late: 2, Early: 0, Misses: 0
349-> Hits: 122, Late: 0, Early: 0, Misses: 0
34a-> Hits: 4, Late: 0, Early: 0, Misses: 0
34b-> Hits: 2, Late: 0, Early: 0, Misses: 0
34c-> Hits: 3, Late: 1, Early: 0, Misses: 0
34d-> Hits: 3, Late: 2, Early: 0, Misses: 0
34e-> Hits: 1, Late: 0, Early: 0, Misses: 0
34f-> Hits: 1358307, Late: 18205, Early: 0, Misses: 109
350-> Hits: 177356, Late: 107324, Early: 0, Misses: 0
351-> Hits: 1529, Late: 108, Early: 0, Misses: 0
352-> Hits: 0, Late: 1, Early: 0, Misses: 0
353-> Hits: 3, Late: 0, Early: 0, Misses: 0
354-> Hits: 255503, Late: 9407, Early: 0, Misses: 0
355-> Hits: 0, Late: 1, Early: 0, Misses: 0
356-> Hits: 87198, Late: 294, Early: 0, Misses: 9
357-> Hits: 323, Late: 0, Early: 0, Misses: 0
358-> Hits: 3, Late: 0, Early: 0, Misses: 0
359-> Hits: 5, Late: 1, Early: 0, Misses: 0
35a-> Hits: 311, Late: 0, Early: 0, Misses: 0
35c-> Hits: 1374139, Late: 768, Early: 0, Misses: 1335
35d-> Hits: 332, Late: 28, Early: 0, Misses: 0
360-> Hits: 15, Late: 0, Early: 0, Misses: 0
361-> Hits: 990, Late: 668, Early: 0, Misses: 0
362-> Hits: 4, Late: 0, Early: 0, Misses: 0
363-> Hits: 9, Late: 0, Early: 0, Misses: 0
364-> Hits: 253782, Late: 7789, Early: 0, Misses: 0
365-> Hits: 1530, Late: 111, Early: 0, Misses: 0
366-> Hits: 4, Late: 1, Early: 0, Misses: 0
367-> Hits: 1, Late: 0, Early: 0, Misses: 0
368-> Hits: 6, Late: 0, Early: 0, Misses: 0
36a-> Hits: 4, Late: 0, Early: 0, Misses: 0
36c-> Hits: 9, Late: 0, Early: 0, Misses: 0
36d-> Hits: 0, Late: 1, Early: 0, Misses: 0
36e-> Hits: 0, Late: 1, Early: 0, Misses: 0
36f-> Hits: 1, Late: 0, Early: 0, Misses: 0
370-> Hits: 1922, Late: 0, Early: 0, Misses: 0
372-> Hits: 225338, Late: 134, Early: 0, Misses: 9
374-> Hits: 1, Late: 0, Early: 0, Misses: 0
375-> Hits: 255952, Late: 9402, Early: 0, Misses: 0
376-> Hits: 1529, Late: 114, Early: 0, Misses: 0
377-> Hits: 2, Late: 0, Early: 0, Misses: 0
379-> Hits: 2, Late: 1, Early: 0, Misses: 0
37a-> Hits: 10, Late: 1, Early: 0, Misses: 0
37b-> Hits: 3, Late: 0, Early: 0, Misses: 0
37d-> Hits: 3, Late: 1, Early: 0, Misses: 0
37f-> Hits: 2, Late: 2, Early: 0, Misses: 0
380-> Hits: 2, Late: 0, Early: 0, Misses: 0
382-> Hits: 1, Late: 0, Early: 0, Misses: 0
383-> Hits: 0, Late: 2, Early: 0, Misses: 0
385-> Hits: 2, Late: 0, Early: 0, Misses: 0
386-> Hits: 271149, Late: 5226, Early: 0, Misses: 7953
387-> Hits: 121775, Late: 293, Early: 0, Misses: 6
388-> Hits: 1, Late: 0, Early: 0, Misses: 0
389-> Hits: 4, Late: 0, Early: 0, Misses: 0
38a-> Hits: 273380, Late: 3282, Early: 0, Misses: 1323
38b-> Hits: 2, Late: 0, Early: 0, Misses: 0
38d-> Hits: 1374034, Late: 784, Early: 0, Misses: 1438
38e-> Hits: 1, Late: 0, Early: 0, Misses: 0
38f-> Hits: 6445, Late: 26, Early: 0, Misses: 25
391-> Hits: 5, Late: 0, Early: 0, Misses: 0
392-> Hits: 1, Late: 0, Early: 0, Misses: 0
393-> Hits: 2, Late: 0, Early: 0, Misses: 0
394-> Hits: 4, Late: 0, Early: 0, Misses: 0
395-> Hits: 1, Late: 0, Early: 0, Misses: 0
396-> Hits: 2, Late: 1, Early: 0, Misses: 0
397-> Hits: 250667, Late: 3525, Early: 0, Misses: 0
398-> Hits: 1, Late: 0, Early: 0, Misses: 0
399-> Hits: 1370619, Late: 2, Early: 0, Misses: 0
39a-> Hits: 1, Late: 1, Early: 0, Misses: 0
39b-> Hits: 1505, Late: 1, Early: 0, Misses: 1
39c-> Hits: 1, Late: 0, Early: 0, Misses: 0
39d-> Hits: 1, Late: 0, Early: 0, Misses: 0
3a0-> Hits: 162, Late: 2, Early: 0, Misses: 0
3a2-> Hits: 1, Late: 0, Early: 0, Misses: 0
3a3-> Hits: 1362255, Late: 33, Early: 0, Misses: 0
3a7-> Hits: 247604, Late: 6787, Early: 0, Misses: 0
3a8-> Hits: 874, Late: 6, Early: 0, Misses: 0
3aa-> Hits: 3, Late: 0, Early: 0, Misses: 0
3ab-> Hits: 1, Late: 0, Early: 0, Misses: 0
3ac-> Hits: 59467, Late: 0, Early: 0, Misses: 0
3af-> Hits: 1, Late: 0, Early: 0, Misses: 0
3b0-> Hits: 3, Late: 0, Early: 0, Misses: 0
3b1-> Hits: 1064452, Late: 921, Early: 0, Misses: 50
3b2-> Hits: 2, Late: 0, Early: 0, Misses: 0
3b3-> Hits: 1, Late: 0, Early: 0, Misses: 0
3b5-> Hits: 1, Late: 0, Early: 0, Misses: 0
3b7-> Hits: 1, Late: 0, Early: 0, Misses: 0
3b8-> Hits: 255399, Late: 9745, Early: 0, Misses: 0
3b9-> Hits: 3, Late: 0, Early: 0, Misses: 0
3bd-> Hits: 913, Late: 5, Early: 0, Misses: 0
3c0-> Hits: 15, Late: 0, Early: 0, Misses: 0
3c6-> Hits: 81147, Late: 77, Early: 0, Misses: 2
3c8-> Hits: 1, Late: 0, Early: 0, Misses: 0
3c9-> Hits: 239027, Late: 5712, Early: 0, Misses: 0
3ca-> Hits: 5, Late: 0, Early: 0, Misses: 0
3cb-> Hits: 1, Late: 0, Early: 0, Misses: 0
3cd-> Hits: 6, Late: 0, Early: 0, Misses: 0
3ce-> Hits: 920, Late: 6, Early: 0, Misses: 0
3cf-> Hits: 1, Late: 1, Early: 0, Misses: 0
3d0-> Hits: 4, Late: 0, Early: 0, Misses: 0
3d6-> Hits: 2, Late: 0, Early: 0, Misses: 0
3d9-> Hits: 180439, Late: 103606, Early: 0, Misses: 0
3db-> Hits: 197698, Late: 620, Early: 0, Misses: 10
3dc-> Hits: 1, Late: 0, Early: 0, Misses: 0
3dd-> Hits: 4, Late: 0, Early: 0, Misses: 0
3de-> Hits: 253852, Late: 7647, Early: 0, Misses: 0
3df-> Hits: 963, Late: 3, Early: 0, Misses: 0
3e0-> Hits: 1048584, Late: 1, Early: 0, Misses: 0
3e1-> Hits: 1374002, Late: 827, Early: 0, Misses: 1428
3e4-> Hits: 2, Late: 0, Early: 0, Misses: 0
3e5-> Hits: 2, Late: 0, Early: 0, Misses: 0
3e6-> Hits: 2, Late: 0, Early: 0, Misses: 0
3e8-> Hits: 3, Late: 0, Early: 0, Misses: 0
3ea-> Hits: 2, Late: 0, Early: 0, Misses: 0
3eb-> Hits: 1, Late: 0, Early: 0, Misses: 0
3ec-> Hits: 2, Late: 0, Early: 0, Misses: 0
3ed-> Hits: 1, Late: 0, Early: 0, Misses: 0
3ee-> Hits: 2, Late: 0, Early: 0, Misses: 0
3ef-> Hits: 254485, Late: 5426, Early: 0, Misses: 0
3f0-> Hits: 10, Late: 4, Early: 0, Misses: 0
3f3-> Hits: 1514, Late: 0, Early: 0, Misses: 0
3f5-> Hits: 1, Late: 0, Early: 0, Misses: 0
3f7-> Hits: 319970, Late: 419, Early: 0, Misses: 15
3f8-> Hits: 136, Late: 0, Early: 0, Misses: 0
3fe-> Hits: 2, Late: 0, Early: 0, Misses: 0
400-> Hits: 272175, Late: 5226, Early: 0, Misses: 8290
401-> Hits: 4, Late: 0, Early: 0, Misses: 0
402-> Hits: 1369032, Late: 35, Early: 0, Misses: 0
403-> Hits: 8, Late: 0, Early: 0, Misses: 0
404-> Hits: 275790, Late: 3574, Early: 0, Misses: 1102
405-> Hits: 1, Late: 1, Early: 0, Misses: 0
406-> Hits: 11, Late: 0, Early: 0, Misses: 0
408-> Hits: 12, Late: 0, Early: 0, Misses: 0
409-> Hits: 4155, Late: 18, Early: 0, Misses: 14
40a-> Hits: 11, Late: 0, Early: 0, Misses: 0
40b-> Hits: 4, Late: 0, Early: 0, Misses: 0
40c-> Hits: 62328, Late: 1, Early: 0, Misses: 0
40d-> Hits: 1, Late: 0, Early: 0, Misses: 0
40e-> Hits: 2, Late: 0, Early: 0, Misses: 0
40f-> Hits: 0, Late: 7, Early: 0, Misses: 0
410-> Hits: 1061, Late: 78, Early: 0, Misses: 0
411-> Hits: 257889, Late: 1054, Early: 0, Misses: 0
413-> Hits: 1, Late: 0, Early: 0, Misses: 0
416-> Hits: 1376185, Late: 36, Early: 0, Misses: 0
419-> Hits: 3, Late: 0, Early: 0, Misses: 0
41c-> Hits: 2, Late: 0, Early: 0, Misses: 0
41e-> Hits: 995610, Late: 810, Early: 0, Misses: 38
420-> Hits: 5, Late: 0, Early: 0, Misses: 0
421-> Hits: 255679, Late: 2394, Early: 0, Misses: 0
422-> Hits: 2, Late: 0, Early: 0, Misses: 0
424-> Hits: 9, Late: 0, Early: 0, Misses: 0
426-> Hits: 1253, Late: 82, Early: 0, Misses: 0
427-> Hits: 2, Late: 0, Early: 0, Misses: 0
428-> Hits: 5, Late: 2, Early: 0, Misses: 0
42a-> Hits: 2, Late: 0, Early: 0, Misses: 0
42b-> Hits: 3, Late: 0, Early: 0, Misses: 0
42c-> Hits: 2, Late: 0, Early: 0, Misses: 0
42d-> Hits: 1, Late: 0, Early: 0, Misses: 0
42e-> Hits: 1373999, Late: 914, Early: 0, Misses: 1345
430-> Hits: 93665, Late: 1168, Early: 0, Misses: 3087
432-> Hits: 258096, Late: 1643, Early: 0, Misses: 0
434-> Hits: 92580, Late: 593, Early: 0, Misses: 1409
437-> Hits: 1290, Late: 79, Early: 0, Misses: 0
438-> Hits: 4, Late: 0, Early: 0, Misses: 0
439-> Hits: 3039, Late: 19, Early: 0, Misses: 31
[...]
da7-> Hits: 3, Late: 0, Early: 0, Misses: 0
da8-> Hits: 2, Late: 0, Early: 0, Misses: 0
da9-> Hits: 1, Late: 0, Early: 0, Misses: 0
daa-> Hits: 1, Late: 0, Early: 0, Misses: 0
dab-> Hits: 6, Late: 0, Early: 0, Misses: 0
dac-> Hits: 10, Late: 0, Early: 0, Misses: 0
dad-> Hits: 13, Late: 0, Early: 0, Misses: 0
dae-> Hits: 1, Late: 0, Early: 0, Misses: 0
daf-> Hits: 3, Late: 0, Early: 0, Misses: 0
db0-> Hits: 7, Late: 4, Early: 0, Misses: 0
db1-> Hits: 12, Late: 0, Early: 0, Misses: 0
db3-> Hits: 15797, Late: 0, Early: 0, Misses: 0
db5-> Hits: 3, Late: 0, Early: 0, Misses: 0
db6-> Hits: 0, Late: 2, Early: 0, Misses: 0
db7-> Hits: 3, Late: 0, Early: 0, Misses: 0
db8-> Hits: 3, Late: 0, Early: 0, Misses: 0
db9-> Hits: 2, Late: 0, Early: 0, Misses: 0
dba-> Hits: 9, Late: 7, Early: 0, Misses: 0
dbb-> Hits: 2, Late: 0, Early: 0, Misses: 0
dbc-> Hits: 1, Late: 0, Early: 0, Misses: 0
dbd-> Hits: 1, Late: 0, Early: 0, Misses: 0
dbe-> Hits: 5, Late: 0, Early: 0, Misses: 0
dbf-> Hits: 8, Late: 0, Early: 0, Misses: 0
dc0-> Hits: 32, Late: 7, Early: 0, Misses: 0
dc2-> Hits: 3, Late: 2, Early: 0, Misses: 0
dc3-> Hits: 2, Late: 0, Early: 0, Misses: 0
dc5-> Hits: 130, Late: 0, Early: 0, Misses: 0
dc7-> Hits: 19, Late: 1, Early: 0, Misses: 0
dc8-> Hits: 3, Late: 1, Early: 0, Misses: 0
dca-> Hits: 3, Late: 0, Early: 0, Misses: 0
dcb-> Hits: 6, Late: 0, Early: 0, Misses: 0
dcc-> Hits: 14, Late: 2, Early: 0, Misses: 0
dcd-> Hits: 13, Late: 0, Early: 0, Misses: 0
dcf-> Hits: 8, Late: 0, Early: 0, Misses: 0
dd0-> Hits: 6, Late: 0, Early: 0, Misses: 0
dd1-> Hits: 9, Late: 0, Early: 0, Misses: 0
dd3-> Hits: 12, Late: 0, Early: 0, Misses: 0
dd5-> Hits: 2, Late: 0, Early: 0, Misses: 0
dd6-> Hits: 4, Late: 0, Early: 0, Misses: 0
dd8-> Hits: 15, Late: 0, Early: 0, Misses: 0
dd9-> Hits: 8, Late: 0, Early: 0, Misses: 0
dda-> Hits: 15799, Late: 0, Early: 0, Misses: 0
ddc-> Hits: 5, Late: 0, Early: 0, Misses: 0
dde-> Hits: 4, Late: 0, Early: 0, Misses: 0
ddf-> Hits: 4, Late: 0, Early: 0, Misses: 0
de0-> Hits: 300, Late: 0, Early: 0, Misses: 0
de2-> Hits: 2, Late: 0, Early: 0, Misses: 0
de3-> Hits: 4, Late: 0, Early: 0, Misses: 0
de4-> Hits: 2, Late: 0, Early: 0, Misses: 0
de7-> Hits: 1, Late: 0, Early: 0, Misses: 0
de8-> Hits: 2, Late: 0, Early: 0, Misses: 0
de9-> Hits: 1, Late: 0, Early: 0, Misses: 0
deb-> Hits: 1, Late: 0, Early: 0, Misses: 0
dec-> Hits: 6, Late: 0, Early: 0, Misses: 0
ded-> Hits: 5, Late: 0, Early: 0, Misses: 0
dee-> Hits: 5, Late: 0, Early: 0, Misses: 0
def-> Hits: 364, Late: 0, Early: 0, Misses: 0
df0-> Hits: 1, Late: 0, Early: 0, Misses: 0
df1-> Hits: 17, Late: 0, Early: 0, Misses: 0
df2-> Hits: 3, Late: 0, Early: 0, Misses: 0
df3-> Hits: 6, Late: 0, Early: 0, Misses: 0
df4-> Hits: 1, Late: 0, Early: 0, Misses: 0
df5-> Hits: 6, Late: 0, Early: 0, Misses: 0
df7-> Hits: 7, Late: 0, Early: 0, Misses: 0
df8-> Hits: 1, Late: 0, Early: 0, Misses: 0
df9-> Hits: 2, Late: 0, Early: 0, Misses: 0
dfb-> Hits: 1, Late: 0, Early: 0, Misses: 0
dfd-> Hits: 9, Late: 0, Early: 0, Misses: 0
e00-> Hits: 11, Late: 0, Early: 0, Misses: 0
e01-> Hits: 2, Late: 0, Early: 0, Misses: 0
e02-> Hits: 3, Late: 0, Early: 0, Misses: 0
e03-> Hits: 1, Late: 0, Early: 0, Misses: 0
e04-> Hits: 0, Late: 1, Early: 0, Misses: 167
e05-> Hits: 5, Late: 1, Early: 0, Misses: 0
e06-> Hits: 15810, Late: 0, Early: 0, Misses: 0
e07-> Hits: 0, Late: 15, Early: 0, Misses: 0
e0e-> Hits: 174, Late: 0, Early: 0, Misses: 0
e0f-> Hits: 9, Late: 8, Early: 0, Misses: 0
e10-> Hits: 1, Late: 0, Early: 0, Misses: 0
e12-> Hits: 6, Late: 0, Early: 0, Misses: 0
e13-> Hits: 7, Late: 0, Early: 0, Misses: 0
e14-> Hits: 4, Late: 0, Early: 0, Misses: 0
e15-> Hits: 2, Late: 0, Early: 0, Misses: 0
e16-> Hits: 2, Late: 0, Early: 0, Misses: 0
e17-> Hits: 1, Late: 0, Early: 0, Misses: 0
e18-> Hits: 4, Late: 0, Early: 0, Misses: 0
e19-> Hits: 27, Late: 0, Early: 0, Misses: 0
e1a-> Hits: 2, Late: 0, Early: 0, Misses: 0
e1b-> Hits: 386, Late: 8, Early: 0, Misses: 0
e1c-> Hits: 6, Late: 0, Early: 0, Misses: 0
e1d-> Hits: 0, Late: 3, Early: 0, Misses: 0
e1e-> Hits: 0, Late: 24, Early: 0, Misses: 0
e20-> Hits: 14, Late: 2, Early: 0, Misses: 0
e22-> Hits: 284, Late: 1, Early: 0, Misses: 0
e23-> Hits: 5, Late: 24, Early: 0, Misses: 0
e25-> Hits: 1, Late: 0, Early: 0, Misses: 0
e26-> Hits: 2, Late: 0, Early: 0, Misses: 0
e27-> Hits: 1, Late: 0, Early: 0, Misses: 0
e28-> Hits: 8, Late: 24, Early: 0, Misses: 0
e29-> Hits: 24, Late: 0, Early: 0, Misses: 0
e2a-> Hits: 2, Late: 1, Early: 0, Misses: 0
e2c-> Hits: 1, Late: 24, Early: 0, Misses: 0
e2d-> Hits: 2, Late: 0, Early: 0, Misses: 0
e2f-> Hits: 1, Late: 0, Early: 0, Misses: 0
e30-> Hits: 18, Late: 0, Early: 0, Misses: 0
e31-> Hits: 0, Late: 24, Early: 0, Misses: 0
e33-> Hits: 2, Late: 1, Early: 0, Misses: 0
e34-> Hits: 1, Late: 0, Early: 0, Misses: 0
e35-> Hits: 16, Late: 0, Early: 0, Misses: 0
e36-> Hits: 2, Late: 0, Early: 0, Misses: 0
e38-> Hits: 2, Late: 0, Early: 0, Misses: 0
e39-> Hits: 8, Late: 20, Early: 0, Misses: 0
e3b-> Hits: 0, Late: 1, Early: 0, Misses: 0
e3c-> Hits: 4, Late: 1, Early: 0, Misses: 0
e3d-> Hits: 13, Late: 5, Early: 0, Misses: 0
e3e-> Hits: 1, Late: 0, Early: 0, Misses: 0
e3f-> Hits: 1, Late: 0, Early: 0, Misses: 0
e40-> Hits: 6, Late: 1, Early: 0, Misses: 0
e41-> Hits: 11, Late: 32, Early: 0, Misses: 0
e42-> Hits: 2, Late: 0, Early: 0, Misses: 0
e44-> Hits: 2, Late: 0, Early: 0, Misses: 0
e45-> Hits: 1, Late: 1, Early: 0, Misses: 0
e47-> Hits: 2, Late: 0, Early: 0, Misses: 0
e48-> Hits: 15657, Late: 0, Early: 0, Misses: 141
e49-> Hits: 0, Late: 24, Early: 0, Misses: 0
e4a-> Hits: 1, Late: 0, Early: 0, Misses: 0
e4c-> Hits: 1, Late: 1, Early: 0, Misses: 0
e4d-> Hits: 3, Late: 0, Early: 0, Misses: 0
e4e-> Hits: 25, Late: 0, Early: 0, Misses: 0
e4f-> Hits: 2, Late: 0, Early: 0, Misses: 0
e50-> Hits: 0, Late: 3, Early: 0, Misses: 0
e51-> Hits: 2, Late: 0, Early: 0, Misses: 0
e54-> Hits: 1, Late: 0, Early: 0, Misses: 0
e55-> Hits: 2, Late: 0, Early: 0, Misses: 0
e57-> Hits: 8, Late: 0, Early: 0, Misses: 0
e58-> Hits: 2, Late: 0, Early: 0, Misses: 0
e59-> Hits: 20, Late: 0, Early: 0, Misses: 0
e5a-> Hits: 22, Late: 0, Early: 0, Misses: 0
e5b-> Hits: 22, Late: 0, Early: 0, Misses: 0
e5c-> Hits: 2, Late: 0, Early: 0, Misses: 0
e5d-> Hits: 20, Late: 0, Early: 0, Misses: 0
e5e-> Hits: 7, Late: 0, Early: 0, Misses: 0
e5f-> Hits: 21, Late: 0, Early: 0, Misses: 0
e60-> Hits: 1920, Late: 2, Early: 0, Misses: 0
e61-> Hits: 22, Late: 0, Early: 0, Misses: 0
e62-> Hits: 2, Late: 0, Early: 0, Misses: 0
e63-> Hits: 26, Late: 0, Early: 0, Misses: 0
e64-> Hits: 0, Late: 1, Early: 0, Misses: 0
e65-> Hits: 6, Late: 0, Early: 0, Misses: 0
e68-> Hits: 2, Late: 0, Early: 0, Misses: 0
e6b-> Hits: 1, Late: 0, Early: 0, Misses: 0
e6c-> Hits: 1, Late: 0, Early: 0, Misses: 0
e6f-> Hits: 2, Late: 0, Early: 0, Misses: 0
e70-> Hits: 5, Late: 1, Early: 0, Misses: 0
e71-> Hits: 6, Late: 0, Early: 0, Misses: 0
e72-> Hits: 15, Late: 0, Early: 0, Misses: 0
e73-> Hits: 2, Late: 0, Early: 0, Misses: 0
e74-> Hits: 5, Late: 0, Early: 0, Misses: 0
e75-> Hits: 6, Late: 0, Early: 0, Misses: 0
e76-> Hits: 5, Late: 0, Early: 0, Misses: 0
e77-> Hits: 1, Late: 0, Early: 0, Misses: 0
e79-> Hits: 1, Late: 0, Early: 0, Misses: 1
e7a-> Hits: 1, Late: 0, Early: 0, Misses: 0
e7b-> Hits: 1, Late: 0, Early: 0, Misses: 0
e7d-> Hits: 7, Late: 8, Early: 0, Misses: 0
e7e-> Hits: 15, Late: 0, Early: 0, Misses: 0
e7f-> Hits: 18, Late: 0, Early: 0, Misses: 0
e80-> Hits: 1, Late: 0, Early: 0, Misses: 0
e81-> Hits: 21, Late: 0, Early: 0, Misses: 0
e82-> Hits: 3, Late: 0, Early: 0, Misses: 0
e83-> Hits: 17, Late: 0, Early: 0, Misses: 0
e84-> Hits: 25, Late: 0, Early: 0, Misses: 0
e85-> Hits: 15, Late: 0, Early: 0, Misses: 0
e86-> Hits: 2, Late: 0, Early: 0, Misses: 0
e87-> Hits: 15, Late: 0, Early: 0, Misses: 0
e88-> Hits: 26, Late: 0, Early: 0, Misses: 0
e8a-> Hits: 3, Late: 0, Early: 0, Misses: 0
e8b-> Hits: 2, Late: 0, Early: 0, Misses: 0
e8d-> Hits: 1, Late: 0, Early: 0, Misses: 0
e90-> Hits: 2, Late: 0, Early: 0, Misses: 0
e91-> Hits: 2, Late: 0, Early: 0, Misses: 0
e92-> Hits: 4, Late: 0, Early: 0, Misses: 0
e94-> Hits: 4, Late: 0, Early: 0, Misses: 0
e95-> Hits: 1, Late: 0, Early: 0, Misses: 0
e96-> Hits: 1, Late: 0, Early: 0, Misses: 0
e97-> Hits: 2, Late: 0, Early: 0, Misses: 0
e98-> Hits: 2, Late: 0, Early: 0, Misses: 0
e99-> Hits: 2, Late: 0, Early: 0, Misses: 0
e9a-> Hits: 2, Late: 0, Early: 0, Misses: 0
e9d-> Hits: 1, Late: 0, Early: 0, Misses: 0
ea0-> Hits: 2, Late: 1, Early: 0, Misses: 0
ea1-> Hits: 27, Late: 0, Early: 0, Misses: 0
ea2-> Hits: 2, Late: 0, Early: 0, Misses: 0
ea5-> Hits: 1, Late: 0, Early: 0, Misses: 0
ea6-> Hits: 0, Late: 1, Early: 0, Misses: 0
ea7-> Hits: 1, Late: 0, Early: 0, Misses: 0
ea8-> Hits: 1, Late: 0, Early: 0, Misses: 0
ea9-> Hits: 3, Late: 0, Early: 0, Misses: 0
eaa-> Hits: 1, Late: 0, Early: 0, Misses: 0
eab-> Hits: 4, Late: 0, Early: 0, Misses: 0
eac-> Hits: 1, Late: 0, Early: 0, Misses: 0
eaf-> Hits: 0, Late: 1, Early: 0, Misses: 0
eb0-> Hits: 12457, Late: 10152, Early: 0, Misses: 0
eb3-> Hits: 1, Late: 0, Early: 0, Misses: 0
eb4-> Hits: 1, Late: 0, Early: 0, Misses: 0
eb5-> Hits: 13321, Late: 6293, Early: 0, Misses: 0
eb6-> Hits: 9, Late: 1, Early: 0, Misses: 0
eb8-> Hits: 1, Late: 0, Early: 0, Misses: 0
eba-> Hits: 10876, Late: 11396, Early: 0, Misses: 0
ebc-> Hits: 4, Late: 0, Early: 0, Misses: 0
ebd-> Hits: 1, Late: 0, Early: 0, Misses: 0
ebe-> Hits: 2, Late: 0, Early: 0, Misses: 0
ebf-> Hits: 2, Late: 1, Early: 0, Misses: 0
ec0-> Hits: 11639, Late: 8692, Early: 0, Misses: 0
ec1-> Hits: 13, Late: 0, Early: 0, Misses: 0
ec2-> Hits: 2, Late: 0, Early: 0, Misses: 0
ec3-> Hits: 2, Late: 0, Early: 0, Misses: 0
ec4-> Hits: 1, Late: 1, Early: 0, Misses: 0
ec5-> Hits: 7, Late: 0, Early: 0, Misses: 0
ec6-> Hits: 9548, Late: 12524, Early: 0, Misses: 0
ec7-> Hits: 1, Late: 1, Early: 0, Misses: 0
ec8-> Hits: 1, Late: 0, Early: 0, Misses: 0
eca-> Hits: 1, Late: 0, Early: 0, Misses: 0
ecb-> Hits: 0, Late: 1, Early: 0, Misses: 0
ecc-> Hits: 10198, Late: 9957, Early: 0, Misses: 0
ecd-> Hits: 1, Late: 0, Early: 0, Misses: 0
ece-> Hits: 0, Late: 1, Early: 0, Misses: 0
ecf-> Hits: 3, Late: 0, Early: 0, Misses: 0
ed0-> Hits: 2, Late: 0, Early: 0, Misses: 0
ed1-> Hits: 27, Late: 0, Early: 0, Misses: 0
ed2-> Hits: 6602, Late: 15081, Early: 0, Misses: 0
ed3-> Hits: 2, Late: 0, Early: 0, Misses: 0
ed5-> Hits: 7, Late: 1, Early: 0, Misses: 0
ed6-> Hits: 2, Late: 0, Early: 0, Misses: 0
ed7-> Hits: 3, Late: 0, Early: 0, Misses: 0
ed8-> Hits: 9195, Late: 10789, Early: 0, Misses: 1
ed9-> Hits: 5, Late: 0, Early: 0, Misses: 0
edb-> Hits: 2, Late: 0, Early: 0, Misses: 0
edc-> Hits: 3, Late: 0, Early: 0, Misses: 0
edf-> Hits: 0, Late: 1, Early: 0, Misses: 0
ee0-> Hits: 17, Late: 15, Early: 0, Misses: 1
ee1-> Hits: 6, Late: 8, Early: 0, Misses: 0
ee2-> Hits: 3, Late: 0, Early: 0, Misses: 0
ee3-> Hits: 5, Late: 0, Early: 0, Misses: 0
ee4-> Hits: 8, Late: 0, Early: 0, Misses: 0
ee5-> Hits: 5, Late: 0, Early: 0, Misses: 0
ee7-> Hits: 5, Late: 0, Early: 0, Misses: 0
ee8-> Hits: 1, Late: 0, Early: 0, Misses: 0
ee9-> Hits: 6, Late: 0, Early: 0, Misses: 0
eea-> Hits: 5, Late: 0, Early: 0, Misses: 0
eeb-> Hits: 2, Late: 0, Early: 0, Misses: 0
eec-> Hits: 2, Late: 0, Early: 0, Misses: 0
eed-> Hits: 2, Late: 0, Early: 0, Misses: 0
eee-> Hits: 2, Late: 0, Early: 0, Misses: 0
eef-> Hits: 16, Late: 0, Early: 0, Misses: 0
ef0-> Hits: 5, Late: 0, Early: 0, Misses: 0
ef1-> Hits: 2, Late: 0, Early: 0, Misses: 0
ef2-> Hits: 3, Late: 0, Early: 0, Misses: 0
ef3-> Hits: 1, Late: 0, Early: 0, Misses: 0
ef4-> Hits: 15, Late: 0, Early: 0, Misses: 0
ef5-> Hits: 1, Late: 0, Early: 0, Misses: 0
ef6-> Hits: 2, Late: 0, Early: 0, Misses: 0
ef7-> Hits: 2, Late: 0, Early: 0, Misses: 0
ef8-> Hits: 3, Late: 2, Early: 0, Misses: 0
ef9-> Hits: 1, Late: 0, Early: 0, Misses: 0
efa-> Hits: 8, Late: 0, Early: 0, Misses: 0
efb-> Hits: 5, Late: 0, Early: 0, Misses: 0
efc-> Hits: 4, Late: 0, Early: 0, Misses: 0
efd-> Hits: 2, Late: 0, Early: 0, Misses: 0
efe-> Hits: 8742, Late: 23532, Early: 0, Misses: 448
eff-> Hits: 6, Late: 0, Early: 0, Misses: 0
f00-> Hits: 4, Late: 0, Early: 0, Misses: 0
f01-> Hits: 4, Late: 0, Early: 0, Misses: 0
f02-> Hits: 4, Late: 0, Early: 0, Misses: 0
f03-> Hits: 2, Late: 0, Early: 0, Misses: 0
f04-> Hits: 6, Late: 0, Early: 0, Misses: 0
f05-> Hits: 4, Late: 0, Early: 0, Misses: 0
f06-> Hits: 8, Late: 0, Early: 0, Misses: 0
f07-> Hits: 2, Late: 0, Early: 0, Misses: 0
f08-> Hits: 4, Late: 0, Early: 0, Misses: 0
f09-> Hits: 10, Late: 0, Early: 0, Misses: 0
f0b-> Hits: 2, Late: 0, Early: 0, Misses: 0
f0c-> Hits: 4, Late: 4, Early: 0, Misses: 0
f0d-> Hits: 2, Late: 0, Early: 0, Misses: 0
f0e-> Hits: 1, Late: 0, Early: 0, Misses: 0
f10-> Hits: 36, Late: 3, Early: 0, Misses: 0
f13-> Hits: 29, Late: 0, Early: 0, Misses: 0
f15-> Hits: 1, Late: 0, Early: 0, Misses: 0
f16-> Hits: 3, Late: 0, Early: 0, Misses: 0
f17-> Hits: 30, Late: 0, Early: 0, Misses: 1
f18-> Hits: 1, Late: 0, Early: 0, Misses: 0
f19-> Hits: 5, Late: 3, Early: 0, Misses: 0
f1c-> Hits: 1, Late: 0, Early: 0, Misses: 0
f1e-> Hits: 3, Late: 0, Early: 0, Misses: 0
f20-> Hits: 86, Late: 33, Early: 0, Misses: 0
f21-> Hits: 22, Late: 0, Early: 0, Misses: 0
f22-> Hits: 8, Late: 0, Early: 0, Misses: 1
f23-> Hits: 5, Late: 0, Early: 0, Misses: 0
f24-> Hits: 33, Late: 0, Early: 0, Misses: 0
f25-> Hits: 105, Late: 6, Early: 0, Misses: 0
f26-> Hits: 1, Late: 0, Early: 0, Misses: 0
f27-> Hits: 8, Late: 0, Early: 0, Misses: 0
f28-> Hits: 2, Late: 0, Early: 0, Misses: 0
f29-> Hits: 351, Late: 9, Early: 0, Misses: 0
f2a-> Hits: 79, Late: 45, Early: 0, Misses: 0
f2b-> Hits: 8, Late: 1, Early: 0, Misses: 0
f2f-> Hits: 5, Late: 0, Early: 0, Misses: 0
f30-> Hits: 106, Late: 17, Early: 0, Misses: 0
f31-> Hits: 332, Late: 7, Early: 0, Misses: 0
f32-> Hits: 37, Late: 1, Early: 0, Misses: 0
f33-> Hits: 9, Late: 0, Early: 0, Misses: 0
f34-> Hits: 1, Late: 2, Early: 0, Misses: 0
f37-> Hits: 2, Late: 0, Early: 0, Misses: 0
f39-> Hits: 3, Late: 0, Early: 0, Misses: 0
f3b-> Hits: 8, Late: 0, Early: 0, Misses: 0
f3c-> Hits: 8, Late: 0, Early: 0, Misses: 0
f3d-> Hits: 53, Late: 0, Early: 0, Misses: 1
f3e-> Hits: 1, Late: 0, Early: 0, Misses: 0
f3f-> Hits: 15, Late: 0, Early: 0, Misses: 0
f40-> Hits: 80, Late: 38, Early: 0, Misses: 0
f41-> Hits: 8, Late: 0, Early: 0, Misses: 0
f43-> Hits: 9, Late: 0, Early: 0, Misses: 0
f44-> Hits: 4, Late: 0, Early: 0, Misses: 0
f45-> Hits: 105, Late: 14, Early: 0, Misses: 0
f47-> Hits: 8, Late: 0, Early: 0, Misses: 0
f49-> Hits: 2, Late: 0, Early: 0, Misses: 0
f4a-> Hits: 84, Late: 34, Early: 0, Misses: 0
f4c-> Hits: 0, Late: 1, Early: 0, Misses: 0
f50-> Hits: 97, Late: 16, Early: 0, Misses: 0
f53-> Hits: 6, Late: 0, Early: 0, Misses: 0
f54-> Hits: 2, Late: 0, Early: 0, Misses: 0
f59-> Hits: 325, Late: 20, Early: 0, Misses: 0
f5a-> Hits: 11, Late: 0, Early: 0, Misses: 1
f5b-> Hits: 1, Late: 0, Early: 0, Misses: 0
f5d-> Hits: 1, Late: 0, Early: 0, Misses: 0
f5f-> Hits: 75, Late: 40, Early: 0, Misses: 0
f60-> Hits: 12, Late: 2, Early: 0, Misses: 0
f61-> Hits: 1, Late: 0, Early: 0, Misses: 0
f63-> Hits: 2, Late: 0, Early: 0, Misses: 0
f64-> Hits: 431, Late: 20, Early: 0, Misses: 1
f65-> Hits: 5, Late: 0, Early: 0, Misses: 0
f66-> Hits: 4, Late: 0, Early: 0, Misses: 0
f68-> Hits: 2, Late: 0, Early: 0, Misses: 0
f69-> Hits: 83, Late: 29, Early: 0, Misses: 0
f6c-> Hits: 19, Late: 1, Early: 0, Misses: 0
f6d-> Hits: 7, Late: 0, Early: 0, Misses: 0
f6f-> Hits: 109, Late: 13, Early: 0, Misses: 0
f70-> Hits: 0, Late: 10, Early: 0, Misses: 0
f73-> Hits: 1, Late: 1, Early: 0, Misses: 0
f74-> Hits: 336, Late: 8, Early: 0, Misses: 1
f7a-> Hits: 4, Late: 0, Early: 0, Misses: 0
f7d-> Hits: 323, Late: 20, Early: 0, Misses: 1
f7e-> Hits: 72, Late: 40, Early: 0, Misses: 0
f7f-> Hits: 3, Late: 1, Early: 0, Misses: 0
f80-> Hits: 4, Late: 1, Early: 0, Misses: 0
f83-> Hits: 98, Late: 13, Early: 0, Misses: 0
f85-> Hits: 3, Late: 0, Early: 0, Misses: 0
f86-> Hits: 3, Late: 1, Early: 0, Misses: 0
f87-> Hits: 13, Late: 0, Early: 0, Misses: 0
f88-> Hits: 84, Late: 28, Early: 0, Misses: 0
f89-> Hits: 1, Late: 0, Early: 0, Misses: 0
f8b-> Hits: 293, Late: 18, Early: 0, Misses: 0
f8c-> Hits: 6, Late: 0, Early: 0, Misses: 0
f8d-> Hits: 3, Late: 0, Early: 0, Misses: 0
f8e-> Hits: 98, Late: 14, Early: 0, Misses: 0
f8f-> Hits: 1, Late: 0, Early: 0, Misses: 0
f90-> Hits: 5, Late: 0, Early: 0, Misses: 0
f91-> Hits: 1, Late: 0, Early: 0, Misses: 0
f92-> Hits: 2, Late: 0, Early: 0, Misses: 0
f93-> Hits: 6, Late: 0, Early: 0, Misses: 0
f94-> Hits: 1, Late: 0, Early: 0, Misses: 0
f95-> Hits: 0, Late: 2, Early: 0, Misses: 0
f96-> Hits: 1, Late: 0, Early: 0, Misses: 0
f98-> Hits: 1, Late: 0, Early: 0, Misses: 0
f9a-> Hits: 16, Late: 0, Early: 0, Misses: 0
f9c-> Hits: 3, Late: 0, Early: 0, Misses: 0
f9d-> Hits: 17, Late: 3, Early: 0, Misses: 0
f9e-> Hits: 1, Late: 0, Early: 0, Misses: 0
f9f-> Hits: 7, Late: 0, Early: 0, Misses: 0
fa0-> Hits: 4, Late: 1, Early: 0, Misses: 0
fa1-> Hits: 1, Late: 0, Early: 0, Misses: 0
fa4-> Hits: 1, Late: 0, Early: 0, Misses: 0
faa-> Hits: 3, Late: 0, Early: 0, Misses: 0
fb0-> Hits: 5774, Late: 31, Early: 0, Misses: 1
fb1-> Hits: 3, Late: 3, Early: 0, Misses: 0
fb3-> Hits: 10, Late: 0, Early: 0, Misses: 0
fb6-> Hits: 1, Late: 0, Early: 0, Misses: 0
fb8-> Hits: 5, Late: 0, Early: 0, Misses: 0
fba-> Hits: 30, Late: 1, Early: 0, Misses: 0
fbb-> Hits: 7, Late: 1, Early: 0, Misses: 0
fbe-> Hits: 1, Late: 0, Early: 0, Misses: 0
fbf-> Hits: 2, Late: 0, Early: 0, Misses: 0
fc0-> Hits: 4, Late: 0, Early: 0, Misses: 0
fc1-> Hits: 107, Late: 0, Early: 0, Misses: 21
fc4-> Hits: 10, Late: 1, Early: 0, Misses: 0
fc5-> Hits: 1, Late: 0, Early: 0, Misses: 0
fc6-> Hits: 2, Late: 0, Early: 0, Misses: 0
fc7-> Hits: 2, Late: 0, Early: 0, Misses: 0
fc8-> Hits: 9, Late: 0, Early: 0, Misses: 0
fca-> Hits: 2, Late: 0, Early: 0, Misses: 0
fcb-> Hits: 1, Late: 0, Early: 0, Misses: 0
fcd-> Hits: 1, Late: 1, Early: 0, Misses: 0
fce-> Hits: 1, Late: 0, Early: 0, Misses: 0
fd0-> Hits: 4, Late: 0, Early: 0, Misses: 0
fd2-> Hits: 1, Late: 0, Early: 0, Misses: 0
fd5-> Hits: 113, Late: 1, Early: 0, Misses: 14
fd6-> Hits: 6, Late: 0, Early: 0, Misses: 0
fd7-> Hits: 6, Late: 0, Early: 0, Misses: 0
fd8-> Hits: 10, Late: 0, Early: 0, Misses: 0
fda-> Hits: 6, Late: 0, Early: 0, Misses: 0
fdc-> Hits: 7, Late: 1, Early: 0, Misses: 0
fde-> Hits: 8, Late: 0, Early: 0, Misses: 0
fdf-> Hits: 33, Late: 0, Early: 0, Misses: 1
fe0-> Hits: 10, Late: 0, Early: 0, Misses: 0
fe1-> Hits: 4, Late: 0, Early: 0, Misses: 0
fe2-> Hits: 2, Late: 0, Early: 0, Misses: 0
fe3-> Hits: 4, Late: 0, Early: 0, Misses: 0
fe4-> Hits: 8, Late: 1, Early: 0, Misses: 0
fe5-> Hits: 6, Late: 7, Early: 0, Misses: 0
fe6-> Hits: 2, Late: 0, Early: 0, Misses: 0
fe7-> Hits: 1, Late: 1, Early: 0, Misses: 0
fe8-> Hits: 76, Late: 36, Early: 0, Misses: 0
feb-> Hits: 1, Late: 2, Early: 0, Misses: 0
fec-> Hits: 5, Late: 0, Early: 0, Misses: 0
fed-> Hits: 106, Late: 12, Early: 0, Misses: 0
fef-> Hits: 0, Late: 1, Early: 0, Misses: 0
ff0-> Hits: 7, Late: 0, Early: 0, Misses: 0
ff2-> Hits: 89, Late: 48, Early: 0, Misses: 0
ff3-> Hits: 14, Late: 0, Early: 0, Misses: 0
ff5-> Hits: 1, Late: 0, Early: 0, Misses: 0
ff7-> Hits: 4, Late: 0, Early: 0, Misses: 0
ff8-> Hits: 93, Late: 15, Early: 0, Misses: 0
ff9-> Hits: 6, Late: 0, Early: 0, Misses: 0
ffd-> Hits: 2, Late: 0, Early: 0, Misses: 0
ffe-> Hits: 344, Late: 0, Early: 0, Misses: 0
fff-> Hits: 12, Late: 0, Early: 0, Misses: 0
Total misses (from ip) 2810799
Total accesses (misses) 96296402 2810799
Pref: Addr 0 IP 0 Current 0
CPU 0 L2C berti prefetcher final stats
Channel_0_RQ_row_buffer_hit 1494552
Channel_0_RQ_row_buffer_miss 1250773
Channel_0_WQ_row_buffer_hit 657807
Channel_0_WQ_row_buffer_miss 946475
Channel_0_WQ_full 3300
Channel_0_dbus_congested 1980102

avg_congested_cycle 8

EzSearch AVG IPC :0.89040: L2-Pf-HR :0.80038 : L2-HR :0.79901 Uful:0.10596
     > Finished combination: TraceType=770-tot Sim:326000000 Prefetcher=L2berti L1=berti
