TRACE: [409000000][GPT-Neo_2_7B]_[h32][s512][d80] Warmup: 2000000 NumTraces: 409000000
L1:next_line:L2:029-SecTOP-L2-MultiMarkovDelta_ip_stride_v4-IPStrS256
*************************************************
   ChampSim Multicore Out-of-Order Simulator
   Last compiled: Oct 27 2024 01:32:09
*************************************************

trace_0 770-tot_memTraces_v3/memTraces[409000000][GPT-Neo_2_7B]_[h32][s512][d80].champsim.xz
CPU 0 L1D next line prefetcher
MK1: Size: 128 TMAX: 64 TMIN: 32 MKPTHRESH: 40
MK2: Size: 256 TMAX: 32 TMIN: 16 MK2PTHRESH: 30
MK3: Size: 384 TMAX: 16 TMIN: 8 MK3PTHRESH: 25
MK4: Size: 512 TMAX: 8 TMIN: 0 MK4PTHRESH: 20
Stride Size: 256 Prefetch Degree: 15

CPU 0 L2C prefetcher
MAIN.cc ln 751 stats print skipped
CPU 0 L2C prefetcher initialized


Cache Size: 4096
number of cache lines: 65536
CPU  0 inst:    1000003 cyc:     498238 now IPC :2.00708: AVG IPC :2.00708: L2-Pf-HR :0.90124: L2-HR :0.87975: (Sim:0h0m20s) 
CPU  0 inst:    2000002 cyc:     981122 now IPC :2.07089: AVG IPC :2.03848: L2-Pf-HR :0.93130: L2-HR :0.92012: (Sim:0h0m41s) 

Warmup complete CPU  0 instructions:    2000002 cycles:     981122 (Simulation time: 0 hr 0 min 41 sec) 

CPU  0 inst:    3000000 cyc:    1450999 now IPC :2.12821: AVG IPC :2.12821: L2-Pf-HR :0.93505: L2-HR :0.94145: (Sim:0h0m59s) 
CPU  0 inst:    4000000 cyc:    1952916 now IPC :1.99236: AVG IPC :2.05805: L2-Pf-HR :0.94886: L2-HR :0.94980: (Sim:0h1m16s) 
CPU  0 inst:    5000004 cyc:    2398047 now IPC :2.24654: AVG IPC :2.11726: L2-Pf-HR :0.93839: L2-HR :0.94350: (Sim:0h1m33s) 
CPU  0 inst:    6000002 cyc:    2931813 now IPC :1.87348: AVG IPC :2.05056: L2-Pf-HR :0.92775: L2-HR :0.93069: (Sim:0h1m51s) 
CPU  0 inst:    7000004 cyc:    3390918 now IPC :2.17816: AVG IPC :2.07487: L2-Pf-HR :0.93152: L2-HR :0.93498: (Sim:0h2m8s) 
CPU  0 inst:    8000000 cyc:    3849902 now IPC :2.17872: AVG IPC :2.09148: L2-Pf-HR :0.93638: L2-HR :0.93980: (Sim:0h2m25s) 
CPU  0 inst:    9000002 cyc:    4317900 now IPC :2.13677: AVG IPC :2.09783: L2-Pf-HR :0.94423: L2-HR :0.94668: (Sim:0h2m43s) 
CPU  0 inst:   10000003 cyc:    4787091 now IPC :2.13133: AVG IPC :2.10196: L2-Pf-HR :0.93957: L2-HR :0.94284: (Sim:0h3m0s) 
CPU  0 inst:   11000003 cyc:    5314185 now IPC :1.89719: AVG IPC :2.07705: L2-Pf-HR :0.93491: L2-HR :0.93754: (Sim:0h3m18s) 
CPU  0 inst:   12000000 cyc:    5773320 now IPC :2.17800: AVG IPC :2.08672: L2-Pf-HR :0.93543: L2-HR :0.93849: (Sim:0h3m35s) 
CPU  0 inst:   13000002 cyc:    6233786 now IPC :2.17172: AVG IPC :2.09418: L2-Pf-HR :0.93734: L2-HR :0.94046: (Sim:0h3m52s) 
CPU  0 inst:   14000002 cyc:    6692352 now IPC :2.18071: AVG IPC :2.10112: L2-Pf-HR :0.94153: L2-HR :0.94421: (Sim:0h4m9s) 
CPU  0 inst:   15000002 cyc:    7170501 now IPC :2.09140: AVG IPC :2.10037: L2-Pf-HR :0.93948: L2-HR :0.94245: (Sim:0h4m27s) 
CPU  0 inst:   16000000 cyc:    7697245 now IPC :1.89845: AVG IPC :2.08454: L2-Pf-HR :0.93650: L2-HR :0.93911: (Sim:0h4m45s) 
CPU  0 inst:   17000004 cyc:    8154729 now IPC :2.18588: AVG IPC :2.09100: L2-Pf-HR :0.93671: L2-HR :0.93967: (Sim:0h5m2s) 
CPU  0 inst:   18000000 cyc:    8614411 now IPC :2.17541: AVG IPC :2.09608: L2-Pf-HR :0.93784: L2-HR :0.94086: (Sim:0h5m19s) 
CPU  0 inst:   19000005 cyc:    9074636 now IPC :2.17286: AVG IPC :2.10045: L2-Pf-HR :0.94058: L2-HR :0.94329: (Sim:0h5m36s) 
CPU  0 inst:   20000004 cyc:    9553949 now IPC :2.08632: AVG IPC :2.09966: L2-Pf-HR :0.93953: L2-HR :0.94241: (Sim:0h5m54s) 
CPU  0 inst:   21000003 cyc:   10079265 now IPC :1.90361: AVG IPC :2.08834: L2-Pf-HR :0.93715: L2-HR :0.93983: (Sim:0h6m11s) 
CPU  0 inst:   22000001 cyc:   10538762 now IPC :2.17629: AVG IPC :2.09257: L2-Pf-HR :0.93721: L2-HR :0.94013: (Sim:0h6m29s) 
CPU  0 inst:   23000004 cyc:   10998336 now IPC :2.17593: AVG IPC :2.09639: L2-Pf-HR :0.93796: L2-HR :0.94093: (Sim:0h6m46s) 
CPU  0 inst:   24000002 cyc:   11456473 now IPC :2.18275: AVG IPC :2.10017: L2-Pf-HR :0.93992: L2-HR :0.94274: (Sim:0h7m3s) 
CPU  0 inst:   25000004 cyc:   11937875 now IPC :2.07727: AVG IPC :2.09916: L2-Pf-HR :0.93952: L2-HR :0.94234: (Sim:0h7m21s) 
CPU  0 inst:   26000004 cyc:   12461424 now IPC :1.91004: AVG IPC :2.09054: L2-Pf-HR :0.93766: L2-HR :0.94027: (Sim:0h7m38s) 
CPU  0 inst:   27000001 cyc:   12919682 now IPC :2.18217: AVG IPC :2.09405: L2-Pf-HR :0.93757: L2-HR :0.94042: (Sim:0h7m56s) 
CPU  0 inst:   28000004 cyc:   13379361 now IPC :2.17544: AVG IPC :2.09707: L2-Pf-HR :0.93814: L2-HR :0.94105: (Sim:0h8m13s) 
CPU  0 inst:   29000002 cyc:   13839321 now IPC :2.17410: AVG IPC :2.09983: L2-Pf-HR :0.93957: L2-HR :0.94235: (Sim:0h8m30s) 
CPU  0 inst:   30000000 cyc:   14330805 now IPC :2.03465: AVG IPC :2.09743: L2-Pf-HR :0.93945: L2-HR :0.94221: (Sim:0h8m48s) 
CPU  0 inst:   31000001 cyc:   14872150 now IPC :1.84725: AVG IPC :2.08768: L2-Pf-HR :0.93783: L2-HR :0.94052: (Sim:0h9m5s) 
CPU  0 inst:   32000001 cyc:   15336625 now IPC :2.15297: AVG IPC :2.08979: L2-Pf-HR :0.93766: L2-HR :0.94051: (Sim:0h9m23s) 
CPU  0 inst:   33000000 cyc:   15801044 now IPC :2.15323: AVG IPC :2.09178: L2-Pf-HR :0.93807: L2-HR :0.94098: (Sim:0h9m40s) 
CPU  0 inst:   34000002 cyc:   16261894 now IPC :2.16991: AVG IPC :2.09414: L2-Pf-HR :0.93923: L2-HR :0.94206: (Sim:0h9m58s) 
CPU  0 inst:   35000004 cyc:   16759237 now IPC :2.01069: AVG IPC :2.09150: L2-Pf-HR :0.93935: L2-HR :0.94213: (Sim:0h10m15s) 
CPU  0 inst:   36000001 cyc:   17321675 now IPC :1.77797: AVG IPC :2.08071: L2-Pf-HR :0.93810: L2-HR :0.94073: (Sim:0h10m33s) 
CPU  0 inst:   37000001 cyc:   17794092 now IPC :2.11677: AVG IPC :2.08173: L2-Pf-HR :0.93804: L2-HR :0.94080: (Sim:0h10m51s) 
CPU  0 inst:   38000000 cyc:   18265797 now IPC :2.11997: AVG IPC :2.08277: L2-Pf-HR :0.93840: L2-HR :0.94120: (Sim:0h11m8s) 
CPU  0 inst:   39000002 cyc:   18736872 now IPC :2.12281: AVG IPC :2.08383: L2-Pf-HR :0.93924: L2-HR :0.94199: (Sim:0h11m26s) 
CPU  0 inst:   40000002 cyc:   19237902 now IPC :1.99589: AVG IPC :2.08142: L2-Pf-HR :0.93959: L2-HR :0.94223: (Sim:0h11m43s) 
CPU  0 inst:   41000000 cyc:   19783621 now IPC :1.83244: AVG IPC :2.07419: L2-Pf-HR :0.93868: L2-HR :0.94123: (Sim:0h12m1s) 
CPU  0 inst:   42000004 cyc:   20266771 now IPC :2.06976: AVG IPC :2.07408: L2-Pf-HR :0.93830: L2-HR :0.94094: (Sim:0h12m19s) 
CPU  0 inst:   43000003 cyc:   20734408 now IPC :2.13841: AVG IPC :2.07560: L2-Pf-HR :0.93853: L2-HR :0.94123: (Sim:0h12m36s) 
CPU  0 inst:   44000001 cyc:   21198582 now IPC :2.15436: AVG IPC :2.07741: L2-Pf-HR :0.93925: L2-HR :0.94193: (Sim:0h12m54s) 
CPU  0 inst:   45000005 cyc:   21704561 now IPC :1.97637: AVG IPC :2.07495: L2-Pf-HR :0.93969: L2-HR :0.94224: (Sim:0h13m11s) 
CPU  0 inst:   46000002 cyc:   22222523 now IPC :1.93064: AVG IPC :2.07143: L2-Pf-HR :0.93911: L2-HR :0.94164: (Sim:0h13m29s) 
CPU  0 inst:   47000004 cyc:   22736769 now IPC :1.94460: AVG IPC :2.06843: L2-Pf-HR :0.93844: L2-HR :0.94104: (Sim:0h13m47s) 
CPU  0 inst:   48000004 cyc:   23201909 now IPC :2.14989: AVG IPC :2.07013: L2-Pf-HR :0.93861: L2-HR :0.94128: (Sim:0h14m5s) 
CPU  0 inst:   49000002 cyc:   23668864 now IPC :2.14153: AVG IPC :2.07160: L2-Pf-HR :0.93917: L2-HR :0.94182: (Sim:0h14m22s) 
CPU  0 inst:   50000000 cyc:   24176609 now IPC :1.96949: AVG IPC :2.06937: L2-Pf-HR :0.93971: L2-HR :0.94222: (Sim:0h14m40s) 
CPU  0 inst:   51000003 cyc:   24625449 now IPC :2.22797: AVG IPC :2.07238: L2-Pf-HR :0.93945: L2-HR :0.94214: (Sim:0h14m57s) 
CPU  0 inst:   52000001 cyc:   25207390 now IPC :1.71838: AVG IPC :2.06388: L2-Pf-HR :0.93848: L2-HR :0.94108: (Sim:0h15m15s) 
CPU  0 inst:   53000003 cyc:   25681313 now IPC :2.11005: AVG IPC :2.06476: L2-Pf-HR :0.93861: L2-HR :0.94126: (Sim:0h15m33s) 
CPU  0 inst:   54000002 cyc:   26149433 now IPC :2.13620: AVG IPC :2.06609: L2-Pf-HR :0.93907: L2-HR :0.94173: (Sim:0h15m50s) 
CPU  0 inst:   55000004 cyc:   26664144 now IPC :1.94284: AVG IPC :2.06362: L2-Pf-HR :0.93971: L2-HR :0.94219: (Sim:0h16m8s) 
CPU  0 inst:   56000002 cyc:   27111621 now IPC :2.23475: AVG IPC :2.06655: L2-Pf-HR :0.93938: L2-HR :0.94204: (Sim:0h16m25s) 
CPU  0 inst:   57000004 cyc:   27682648 now IPC :1.75123: AVG IPC :2.05981: L2-Pf-HR :0.93860: L2-HR :0.94116: (Sim:0h16m44s) 
CPU  0 inst:   58000003 cyc:   28144733 now IPC :2.16410: AVG IPC :2.06158: L2-Pf-HR :0.93866: L2-HR :0.94129: (Sim:0h17m1s) 
CPU  0 inst:   59000000 cyc:   28607216 now IPC :2.16224: AVG IPC :2.06327: L2-Pf-HR :0.93894: L2-HR :0.94160: (Sim:0h17m18s) 
CPU  0 inst:   60000005 cyc:   29115732 now IPC :1.96652: AVG IPC :2.06152: L2-Pf-HR :0.93954: L2-HR :0.94204: (Sim:0h17m36s) 
CPU  0 inst:   61000005 cyc:   29563450 now IPC :2.23355: AVG IPC :2.06421: L2-Pf-HR :0.93914: L2-HR :0.94183: (Sim:0h17m53s) 
CPU  0 inst:   62000001 cyc:   30133143 now IPC :1.75532: AVG IPC :2.05818: L2-Pf-HR :0.93839: L2-HR :0.94099: (Sim:0h18m12s) 
CPU  0 inst:   63000005 cyc:   30601765 now IPC :2.13392: AVG IPC :2.05937: L2-Pf-HR :0.93842: L2-HR :0.94109: (Sim:0h18m29s) 
CPU  0 inst:   64000005 cyc:   31068770 now IPC :2.14130: AVG IPC :2.06065: L2-Pf-HR :0.93875: L2-HR :0.94144: (Sim:0h18m46s) 
CPU  0 inst:   65000004 cyc:   31548585 now IPC :2.08413: AVG IPC :2.06102: L2-Pf-HR :0.93961: L2-HR :0.94219: (Sim:0h19m4s) 
CPU  0 inst:   66000003 cyc:   32031237 now IPC :2.07188: AVG IPC :2.06118: L2-Pf-HR :0.93908: L2-HR :0.94175: (Sim:0h19m21s) 
CPU  0 inst:   67000004 cyc:   32597752 now IPC :1.76518: AVG IPC :2.05588: L2-Pf-HR :0.93849: L2-HR :0.94107: (Sim:0h19m40s) 
CPU  0 inst:   68000003 cyc:   33067355 now IPC :2.12946: AVG IPC :2.05696: L2-Pf-HR :0.93854: L2-HR :0.94117: (Sim:0h19m57s) 
CPU  0 inst:   69000001 cyc:   33539643 now IPC :2.11735: AVG IPC :2.05783: L2-Pf-HR :0.93881: L2-HR :0.94145: (Sim:0h20m15s) 
CPU  0 inst:   70000001 cyc:   34010128 now IPC :2.12547: AVG IPC :2.05880: L2-Pf-HR :0.93957: L2-HR :0.94213: (Sim:0h20m32s) 
CPU  0 inst:   71000001 cyc:   34499936 now IPC :2.04162: AVG IPC :2.05855: L2-Pf-HR :0.93920: L2-HR :0.94182: (Sim:0h20m49s) 
CPU  0 inst:   72000004 cyc:   35082412 now IPC :1.71681: AVG IPC :2.05271: L2-Pf-HR :0.93855: L2-HR :0.94111: (Sim:0h21m8s) 
CPU  0 inst:   73000000 cyc:   35544089 now IPC :2.16601: AVG IPC :2.05422: L2-Pf-HR :0.93855: L2-HR :0.94118: (Sim:0h21m25s) 
CPU  0 inst:   74000005 cyc:   36008665 now IPC :2.15251: AVG IPC :2.05553: L2-Pf-HR :0.93874: L2-HR :0.94140: (Sim:0h21m43s) 
CPU  0 inst:   75000001 cyc:   36475419 now IPC :2.14245: AVG IPC :2.05667: L2-Pf-HR :0.93934: L2-HR :0.94194: (Sim:0h22m0s) 
CPU  0 inst:   76000005 cyc:   36967890 now IPC :2.03058: AVG IPC :2.05631: L2-Pf-HR :0.93909: L2-HR :0.94174: (Sim:0h22m18s) 
CPU  0 inst:   77000004 cyc:   37541011 now IPC :1.74483: AVG IPC :2.05143: L2-Pf-HR :0.93851: L2-HR :0.94110: (Sim:0h22m36s) 
CPU  0 inst:   78000000 cyc:   38006777 now IPC :2.14699: AVG IPC :2.05263: L2-Pf-HR :0.93849: L2-HR :0.94113: (Sim:0h22m54s) 
CPU  0 inst:   79000000 cyc:   38477922 now IPC :2.12249: AVG IPC :2.05351: L2-Pf-HR :0.93868: L2-HR :0.94134: (Sim:0h23m11s) 
CPU  0 inst:   80000004 cyc:   38947954 now IPC :2.12752: AVG IPC :2.05442: L2-Pf-HR :0.93923: L2-HR :0.94184: (Sim:0h23m28s) 
CPU  0 inst:   81000005 cyc:   39453751 now IPC :1.97708: AVG IPC :2.05341: L2-Pf-HR :0.93910: L2-HR :0.94172: (Sim:0h23m46s) 
CPU  0 inst:   82000001 cyc:   40025227 now IPC :1.74985: AVG IPC :2.04896: L2-Pf-HR :0.93855: L2-HR :0.94111: (Sim:0h24m4s) 
CPU  0 inst:   83000000 cyc:   40495711 now IPC :2.12547: AVG IPC :2.04988: L2-Pf-HR :0.93851: L2-HR :0.94114: (Sim:0h24m22s) 
CPU  0 inst:   84000004 cyc:   40968623 now IPC :2.11457: AVG IPC :2.05064: L2-Pf-HR :0.93862: L2-HR :0.94128: (Sim:0h24m39s) 
CPU  0 inst:   85000001 cyc:   41437340 now IPC :2.13348: AVG IPC :2.05160: L2-Pf-HR :0.93907: L2-HR :0.94170: (Sim:0h24m57s) 
CPU  0 inst:   86000000 cyc:   41935976 now IPC :2.00547: AVG IPC :2.05104: L2-Pf-HR :0.93906: L2-HR :0.94167: (Sim:0h25m14s) 
CPU  0 inst:   87000005 cyc:   42502583 now IPC :1.76490: AVG IPC :2.04713: L2-Pf-HR :0.93856: L2-HR :0.94111: (Sim:0h25m33s) 
CPU  0 inst:   88000003 cyc:   42975453 now IPC :2.11474: AVG IPC :2.04790: L2-Pf-HR :0.93847: L2-HR :0.94110: (Sim:0h25m50s) 
CPU  0 inst:   89000002 cyc:   43447670 now IPC :2.11767: AVG IPC :2.04867: L2-Pf-HR :0.93861: L2-HR :0.94125: (Sim:0h26m8s) 
CPU  0 inst:   90000004 cyc:   43915334 now IPC :2.13829: AVG IPC :2.04965: L2-Pf-HR :0.93904: L2-HR :0.94165: (Sim:0h26m25s) 
CPU  0 inst:   91000000 cyc:   44412292 now IPC :2.01223: AVG IPC :2.04922: L2-Pf-HR :0.93907: L2-HR :0.94166: (Sim:0h26m43s) 
CPU  0 inst:   92000001 cyc:   44967288 now IPC :1.80182: AVG IPC :2.04610: L2-Pf-HR :0.93859: L2-HR :0.94113: (Sim:0h27m1s) 
CPU  0 inst:   93000003 cyc:   45429081 now IPC :2.16548: AVG IPC :2.04734: L2-Pf-HR :0.93844: L2-HR :0.94106: (Sim:0h27m18s) 
CPU  0 inst:   94000003 cyc:   45894546 now IPC :2.14839: AVG IPC :2.04839: L2-Pf-HR :0.93854: L2-HR :0.94120: (Sim:0h27m36s) 
CPU  0 inst:   95000004 cyc:   46362922 now IPC :2.13504: AVG IPC :2.04928: L2-Pf-HR :0.93887: L2-HR :0.94150: (Sim:0h27m53s) 
CPU  0 inst:   96000002 cyc:   46863358 now IPC :1.99825: AVG IPC :2.04872: L2-Pf-HR :0.93897: L2-HR :0.94158: (Sim:0h28m11s) 
CPU  0 inst:   97000001 cyc:   47394653 now IPC :1.88219: AVG IPC :2.04682: L2-Pf-HR :0.93856: L2-HR :0.94116: (Sim:0h28m29s) 
CPU  0 inst:   98000003 cyc:   47881825 now IPC :2.05267: AVG IPC :2.04688: L2-Pf-HR :0.93837: L2-HR :0.94101: (Sim:0h28m46s) 
CPU  0 inst:   99000002 cyc:   48344220 now IPC :2.16265: AVG IPC :2.04801: L2-Pf-HR :0.93842: L2-HR :0.94110: (Sim:0h29m4s) 
CPU  0 inst:  100000004 cyc:   48803460 now IPC :2.17752: AVG IPC :2.04925: L2-Pf-HR :0.93870: L2-HR :0.94138: (Sim:0h29m21s) 
CPU  0 inst:  101000000 cyc:   49296545 now IPC :2.02804: AVG IPC :2.04904: L2-Pf-HR :0.93891: L2-HR :0.94152: (Sim:0h29m39s) 
CPU  0 inst:  102000004 cyc:   49817754 now IPC :1.91862: AVG IPC :2.04764: L2-Pf-HR :0.93862: L2-HR :0.94125: (Sim:0h29m56s) 
CPU  0 inst:  103000003 cyc:   50334677 now IPC :1.93452: AVG IPC :2.04646: L2-Pf-HR :0.93828: L2-HR :0.94095: (Sim:0h30m14s) 
CPU  0 inst:  104000002 cyc:   50806237 now IPC :2.12062: AVG IPC :2.04716: L2-Pf-HR :0.93832: L2-HR :0.94103: (Sim:0h30m32s) 
CPU  0 inst:  105000004 cyc:   51278732 now IPC :2.11643: AVG IPC :2.04781: L2-Pf-HR :0.93857: L2-HR :0.94127: (Sim:0h30m49s) 
CPU  0 inst:  106000005 cyc:   51788508 now IPC :1.96165: AVG IPC :2.04695: L2-Pf-HR :0.93882: L2-HR :0.94145: (Sim:0h31m7s) 
CPU  0 inst:  107000000 cyc:   52240965 now IPC :2.21014: AVG IPC :2.04839: L2-Pf-HR :0.93870: L2-HR :0.94141: (Sim:0h31m24s) 
CPU  0 inst:  108000000 cyc:   52821040 now IPC :1.72391: AVG IPC :2.04476: L2-Pf-HR :0.93826: L2-HR :0.94092: (Sim:0h31m43s) 
CPU  0 inst:  109000003 cyc:   53293096 now IPC :2.11840: AVG IPC :2.04542: L2-Pf-HR :0.93833: L2-HR :0.94102: (Sim:0h32m0s) 
CPU  0 inst:  110000005 cyc:   53761936 now IPC :2.13293: AVG IPC :2.04620: L2-Pf-HR :0.93856: L2-HR :0.94125: (Sim:0h32m18s) 
CPU  0 inst:  111000003 cyc:   54275600 now IPC :1.94679: AVG IPC :2.04524: L2-Pf-HR :0.93887: L2-HR :0.94148: (Sim:0h32m35s) 
CPU  0 inst:  112000004 cyc:   54721305 now IPC :2.24364: AVG IPC :2.04689: L2-Pf-HR :0.93870: L2-HR :0.94140: (Sim:0h32m52s) 
CPU  0 inst:  113000002 cyc:   55302425 now IPC :1.72081: AVG IPC :2.04340: L2-Pf-HR :0.93831: L2-HR :0.94096: (Sim:0h33m11s) 
CPU  0 inst:  114000003 cyc:   55774561 now IPC :2.11804: AVG IPC :2.04404: L2-Pf-HR :0.93834: L2-HR :0.94103: (Sim:0h33m29s) 
CPU  0 inst:  115000004 cyc:   56246602 now IPC :2.11846: AVG IPC :2.04468: L2-Pf-HR :0.93853: L2-HR :0.94121: (Sim:0h33m46s) 
CPU  0 inst:  116000004 cyc:   56745838 now IPC :2.00306: AVG IPC :2.04430: L2-Pf-HR :0.93889: L2-HR :0.94148: (Sim:0h34m4s) 
CPU  0 inst:  117000000 cyc:   57193929 now IPC :2.23168: AVG IPC :2.04580: L2-Pf-HR :0.93869: L2-HR :0.94138: (Sim:0h34m21s) 
CPU  0 inst:  118000002 cyc:   57772817 now IPC :1.72745: AVG IPC :2.04255: L2-Pf-HR :0.93830: L2-HR :0.94094: (Sim:0h34m39s) 
CPU  0 inst:  119000005 cyc:   58238693 now IPC :2.14650: AVG IPC :2.04340: L2-Pf-HR :0.93831: L2-HR :0.94099: (Sim:0h34m57s) 
CPU  0 inst:  120000004 cyc:   58699746 now IPC :2.16895: AVG IPC :2.04440: L2-Pf-HR :0.93843: L2-HR :0.94113: (Sim:0h35m14s) 
CPU  0 inst:  121000004 cyc:   59177085 now IPC :2.09495: AVG IPC :2.04482: L2-Pf-HR :0.93887: L2-HR :0.94152: (Sim:0h35m31s) 
CPU  0 inst:  122000004 cyc:   59659619 now IPC :2.07239: AVG IPC :2.04504: L2-Pf-HR :0.93858: L2-HR :0.94128: (Sim:0h35m49s) 
CPU  0 inst:  123000001 cyc:   60231304 now IPC :1.74921: AVG IPC :2.04219: L2-Pf-HR :0.93823: L2-HR :0.94089: (Sim:0h36m7s) 
CPU  0 inst:  124000005 cyc:   60700486 now IPC :2.13138: AVG IPC :2.04289: L2-Pf-HR :0.93825: L2-HR :0.94094: (Sim:0h36m25s) 
CPU  0 inst:  125000001 cyc:   61167645 now IPC :2.14059: AVG IPC :2.04365: L2-Pf-HR :0.93837: L2-HR :0.94108: (Sim:0h36m42s) 
CPU  0 inst:  126000003 cyc:   61637815 now IPC :2.12689: AVG IPC :2.04429: L2-Pf-HR :0.93878: L2-HR :0.94144: (Sim:0h37m0s) 
CPU  0 inst:  127000000 cyc:   62133412 now IPC :2.01776: AVG IPC :2.04408: L2-Pf-HR :0.93857: L2-HR :0.94127: (Sim:0h37m17s) 
CPU  0 inst:  128000004 cyc:   62715309 now IPC :1.71852: AVG IPC :2.04101: L2-Pf-HR :0.93822: L2-HR :0.94088: (Sim:0h37m36s) 
CPU  0 inst:  129000005 cyc:   63178958 now IPC :2.15681: AVG IPC :2.04187: L2-Pf-HR :0.93824: L2-HR :0.94094: (Sim:0h37m53s) 
CPU  0 inst:  130000001 cyc:   63651146 now IPC :2.11779: AVG IPC :2.04244: L2-Pf-HR :0.93837: L2-HR :0.94107: (Sim:0h38m11s) 
CPU  0 inst:  131000003 cyc:   64120027 now IPC :2.13274: AVG IPC :2.04311: L2-Pf-HR :0.93873: L2-HR :0.94139: (Sim:0h38m28s) 
CPU  0 inst:  132000001 cyc:   64616941 now IPC :2.01242: AVG IPC :2.04287: L2-Pf-HR :0.93860: L2-HR :0.94128: (Sim:0h38m46s) 
CPU  0 inst:  133000005 cyc:   65180067 now IPC :1.77581: AVG IPC :2.04053: L2-Pf-HR :0.93827: L2-HR :0.94091: (Sim:0h39m4s) 
CPU  0 inst:  134000002 cyc:   65650308 now IPC :2.12656: AVG IPC :2.04116: L2-Pf-HR :0.93828: L2-HR :0.94095: (Sim:0h39m22s) 
CPU  0 inst:  135000001 cyc:   66117908 now IPC :2.13858: AVG IPC :2.04186: L2-Pf-HR :0.93837: L2-HR :0.94106: (Sim:0h39m39s) 
CPU  0 inst:  136000003 cyc:   66586083 now IPC :2.13596: AVG IPC :2.04253: L2-Pf-HR :0.93869: L2-HR :0.94135: (Sim:0h39m57s) 
CPU  0 inst:  137000003 cyc:   67084941 now IPC :2.00458: AVG IPC :2.04224: L2-Pf-HR :0.93861: L2-HR :0.94128: (Sim:0h40m14s) 
CPU  0 inst:  138000000 cyc:   67657318 now IPC :1.74709: AVG IPC :2.03971: L2-Pf-HR :0.93826: L2-HR :0.94090: (Sim:0h40m32s) 
CPU  0 inst:  139000005 cyc:   68125056 now IPC :2.13796: AVG IPC :2.04039: L2-Pf-HR :0.93824: L2-HR :0.94092: (Sim:0h40m50s) 
CPU  0 inst:  140000004 cyc:   68597007 now IPC :2.11886: AVG IPC :2.04094: L2-Pf-HR :0.93833: L2-HR :0.94102: (Sim:0h41m8s) 
CPU  0 inst:  141000000 cyc:   69070415 now IPC :2.11233: AVG IPC :2.04144: L2-Pf-HR :0.93861: L2-HR :0.94127: (Sim:0h41m26s) 
CPU  0 inst:  142000001 cyc:   69571560 now IPC :1.99543: AVG IPC :2.04110: L2-Pf-HR :0.93860: L2-HR :0.94126: (Sim:0h41m43s) 
CPU  0 inst:  143000000 cyc:   70138823 now IPC :1.76285: AVG IPC :2.03882: L2-Pf-HR :0.93829: L2-HR :0.94092: (Sim:0h41m57s) 
CPU  0 inst:  144000005 cyc:   70612276 now IPC :2.11215: AVG IPC :2.03932: L2-Pf-HR :0.93822: L2-HR :0.94089: (Sim:0h42m5s) 
CPU  0 inst:  145000001 cyc:   71080015 now IPC :2.13794: AVG IPC :2.03998: L2-Pf-HR :0.93829: L2-HR :0.94097: (Sim:0h42m13s) 
CPU  0 inst:  146000003 cyc:   71545753 now IPC :2.14713: AVG IPC :2.04068: L2-Pf-HR :0.93853: L2-HR :0.94121: (Sim:0h42m21s) 
CPU  0 inst:  147000005 cyc:   72050204 now IPC :1.98236: AVG IPC :2.04027: L2-Pf-HR :0.93857: L2-HR :0.94123: (Sim:0h42m29s) 
CPU  0 inst:  148000000 cyc:   72615221 now IPC :1.76985: AVG IPC :2.03814: L2-Pf-HR :0.93827: L2-HR :0.94089: (Sim:0h42m38s) 
CPU  0 inst:  149000002 cyc:   73081485 now IPC :2.14471: AVG IPC :2.03882: L2-Pf-HR :0.93821: L2-HR :0.94088: (Sim:0h42m46s) 
CPU  0 inst:  150000004 cyc:   73552206 now IPC :2.12440: AVG IPC :2.03938: L2-Pf-HR :0.93828: L2-HR :0.94097: (Sim:0h42m54s) 
CPU  0 inst:  151000000 cyc:   74024984 now IPC :2.11515: AVG IPC :2.03987: L2-Pf-HR :0.93849: L2-HR :0.94116: (Sim:0h43m2s) 
CPU  0 inst:  152000001 cyc:   74527134 now IPC :1.99144: AVG IPC :2.03954: L2-Pf-HR :0.93856: L2-HR :0.94121: (Sim:0h43m11s) 
CPU  0 inst:  153000003 cyc:   75072926 now IPC :1.83220: AVG IPC :2.03801: L2-Pf-HR :0.93832: L2-HR :0.94095: (Sim:0h43m19s) 
CPU  0 inst:  154000002 cyc:   75557302 now IPC :2.06451: AVG IPC :2.03818: L2-Pf-HR :0.93817: L2-HR :0.94085: (Sim:0h43m27s) 
CPU  0 inst:  155000003 cyc:   76020942 now IPC :2.15685: AVG IPC :2.03892: L2-Pf-HR :0.93823: L2-HR :0.94093: (Sim:0h43m35s) 
CPU  0 inst:  156000005 cyc:   76487928 now IPC :2.14140: AVG IPC :2.03955: L2-Pf-HR :0.93841: L2-HR :0.94110: (Sim:0h43m43s) 
CPU  0 inst:  157000005 cyc:   76998197 now IPC :1.95975: AVG IPC :2.03902: L2-Pf-HR :0.93853: L2-HR :0.94118: (Sim:0h43m51s) 
CPU  0 inst:  158000000 cyc:   77510019 now IPC :1.95379: AVG IPC :2.03845: L2-Pf-HR :0.93836: L2-HR :0.94102: (Sim:0h43m59s) 
CPU  0 inst:  159000003 cyc:   78019091 now IPC :1.96436: AVG IPC :2.03796: L2-Pf-HR :0.93817: L2-HR :0.94084: (Sim:0h44m7s) 
CPU  0 inst:  160000001 cyc:   78490407 now IPC :2.12171: AVG IPC :2.03847: L2-Pf-HR :0.93821: L2-HR :0.94090: (Sim:0h44m15s) 
CPU  0 inst:  161000000 cyc:   78959712 now IPC :2.13081: AVG IPC :2.03902: L2-Pf-HR :0.93836: L2-HR :0.94106: (Sim:0h44m23s) 
CPU  0 inst:  162000002 cyc:   79468313 now IPC :1.96618: AVG IPC :2.03855: L2-Pf-HR :0.93853: L2-HR :0.94118: (Sim:0h44m31s) 
CPU  0 inst:  163000005 cyc:   79921401 now IPC :2.20708: AVG IPC :2.03952: L2-Pf-HR :0.93845: L2-HR :0.94116: (Sim:0h44m39s) 
CPU  0 inst:  164000002 cyc:   84138903 now IPC :0.23711: AVG IPC :1.94810: L2-Pf-HR :0.93445: L2-HR :0.93306: (Sim:0h45m0s) 
CPU  0 inst:  165000001 cyc:   88989080 now IPC :0.20618: AVG IPC :1.85211: L2-Pf-HR :0.93030: L2-HR :0.92513: (Sim:0h45m25s) 
CPU  0 inst:  166000000 cyc:   93995449 now IPC :0.19975: AVG IPC :1.76317: L2-Pf-HR :0.92616: L2-HR :0.91753: (Sim:0h45m49s) 
CPU  0 inst:  167000001 cyc:   99010103 now IPC :0.19942: AVG IPC :1.68318: L2-Pf-HR :0.92207: L2-HR :0.91022: (Sim:0h46m14s) 
CPU  0 inst:  168000001 cyc:  103568414 now IPC :0.21938: AVG IPC :1.61813: L2-Pf-HR :0.91867: L2-HR :0.90448: (Sim:0h46m36s) 
CPU  0 inst:  169000000 cyc:  106715945 now IPC :0.31771: AVG IPC :1.57942: L2-Pf-HR :0.91786: L2-HR :0.90358: (Sim:0h46m51s) 
CPU  0 inst:  170000000 cyc:  109863016 now IPC :0.31776: AVG IPC :1.54296: L2-Pf-HR :0.91706: L2-HR :0.90270: (Sim:0h47m6s) 
CPU  0 inst:  171000000 cyc:  113008164 now IPC :0.31795: AVG IPC :1.50856: L2-Pf-HR :0.91626: L2-HR :0.90181: (Sim:0h47m21s) 
CPU  0 inst:  172000001 cyc:  116154361 now IPC :0.31784: AVG IPC :1.47604: L2-Pf-HR :0.91546: L2-HR :0.90093: (Sim:0h47m36s) 
CPU  0 inst:  173000003 cyc:  119298981 now IPC :0.31800: AVG IPC :1.44526: L2-Pf-HR :0.91467: L2-HR :0.90005: (Sim:0h47m52s) 
CPU  0 inst:  174000002 cyc:  122443268 now IPC :0.31804: AVG IPC :1.41608: L2-Pf-HR :0.91389: L2-HR :0.89919: (Sim:0h48m10s) 
CPU  0 inst:  175000001 cyc:  125587533 now IPC :0.31804: AVG IPC :1.38837: L2-Pf-HR :0.91311: L2-HR :0.89833: (Sim:0h48m25s) 
CPU  0 inst:  176000001 cyc:  128732131 now IPC :0.31801: AVG IPC :1.36202: L2-Pf-HR :0.91234: L2-HR :0.89748: (Sim:0h48m40s) 
CPU  0 inst:  177000000 cyc:  131875693 now IPC :0.31811: AVG IPC :1.33695: L2-Pf-HR :0.91157: L2-HR :0.89663: (Sim:0h48m55s) 
CPU  0 inst:  178000000 cyc:  135018426 now IPC :0.31819: AVG IPC :1.31307: L2-Pf-HR :0.91082: L2-HR :0.89580: (Sim:0h49m10s) 
CPU  0 inst:  179000000 cyc:  138162122 now IPC :0.31810: AVG IPC :1.29027: L2-Pf-HR :0.91007: L2-HR :0.89497: (Sim:0h49m32s) 
CPU  0 inst:  180000001 cyc:  141304437 now IPC :0.31824: AVG IPC :1.26850: L2-Pf-HR :0.90933: L2-HR :0.89416: (Sim:0h50m4s) 
CPU  0 inst:  181000003 cyc:  144448343 now IPC :0.31808: AVG IPC :1.24767: L2-Pf-HR :0.90859: L2-HR :0.89334: (Sim:0h50m36s) 
CPU  0 inst:  182000003 cyc:  147591278 now IPC :0.31817: AVG IPC :1.22775: L2-Pf-HR :0.90786: L2-HR :0.89253: (Sim:0h51m9s) 
CPU  0 inst:  183000002 cyc:  150734320 now IPC :0.31816: AVG IPC :1.20866: L2-Pf-HR :0.90714: L2-HR :0.89173: (Sim:0h51m41s) 
CPU  0 inst:  184000004 cyc:  153878788 now IPC :0.31802: AVG IPC :1.19034: L2-Pf-HR :0.90642: L2-HR :0.89093: (Sim:0h52m13s) 
CPU  0 inst:  185000000 cyc:  157021553 now IPC :0.31819: AVG IPC :1.17277: L2-Pf-HR :0.90570: L2-HR :0.89014: (Sim:0h52m45s) 
CPU  0 inst:  186000004 cyc:  160163871 now IPC :0.31824: AVG IPC :1.15590: L2-Pf-HR :0.90499: L2-HR :0.88936: (Sim:0h53m17s) 
CPU  0 inst:  187000000 cyc:  163306565 now IPC :0.31820: AVG IPC :1.13969: L2-Pf-HR :0.90428: L2-HR :0.88858: (Sim:0h53m49s) 
CPU  0 inst:  188000001 cyc:  166450954 now IPC :0.31803: AVG IPC :1.12407: L2-Pf-HR :0.90358: L2-HR :0.88781: (Sim:0h54m21s) 
CPU  0 inst:  189000003 cyc:  169593994 now IPC :0.31816: AVG IPC :1.10905: L2-Pf-HR :0.90288: L2-HR :0.88704: (Sim:0h54m44s) 
CPU  0 inst:  190000003 cyc:  172737590 now IPC :0.31811: AVG IPC :1.09457: L2-Pf-HR :0.90219: L2-HR :0.88628: (Sim:0h54m59s) 
CPU  0 inst:  191000002 cyc:  175880090 now IPC :0.31822: AVG IPC :1.08062: L2-Pf-HR :0.90150: L2-HR :0.88552: (Sim:0h55m14s) 
CPU  0 inst:  192000002 cyc:  179023095 now IPC :0.31817: AVG IPC :1.06716: L2-Pf-HR :0.90082: L2-HR :0.88477: (Sim:0h55m42s) 
CPU  0 inst:  193000001 cyc:  182167637 now IPC :0.31801: AVG IPC :1.05416: L2-Pf-HR :0.90014: L2-HR :0.88403: (Sim:0h56m15s) 
CPU  0 inst:  194000002 cyc:  185310621 now IPC :0.31817: AVG IPC :1.04161: L2-Pf-HR :0.89947: L2-HR :0.88329: (Sim:0h56m47s) 
CPU  0 inst:  195000001 cyc:  188451565 now IPC :0.31838: AVG IPC :1.02950: L2-Pf-HR :0.89880: L2-HR :0.88256: (Sim:0h57m19s) 
CPU  0 inst:  196000001 cyc:  191594444 now IPC :0.31818: AVG IPC :1.01777: L2-Pf-HR :0.89814: L2-HR :0.88183: (Sim:0h57m51s) 
CPU  0 inst:  197000003 cyc:  194738559 now IPC :0.31806: AVG IPC :1.00641: L2-Pf-HR :0.89748: L2-HR :0.88111: (Sim:0h58m23s) 
CPU  0 inst:  198000003 cyc:  197882044 now IPC :0.31812: AVG IPC :0.99542: L2-Pf-HR :0.89682: L2-HR :0.88039: (Sim:0h58m55s) 
CPU  0 inst:  199000002 cyc:  201025339 now IPC :0.31814: AVG IPC :0.98478: L2-Pf-HR :0.89617: L2-HR :0.87968: (Sim:0h59m28s) 
CPU  0 inst:  200000002 cyc:  204169230 now IPC :0.31808: AVG IPC :0.97447: L2-Pf-HR :0.89553: L2-HR :0.87897: (Sim:1h0m1s) 
CPU  0 inst:  201000001 cyc:  207311571 now IPC :0.31823: AVG IPC :0.96447: L2-Pf-HR :0.89489: L2-HR :0.87826: (Sim:1h0m33s) 
CPU  0 inst:  202000000 cyc:  210455930 now IPC :0.31803: AVG IPC :0.95477: L2-Pf-HR :0.89425: L2-HR :0.87757: (Sim:1h1m5s) 
CPU  0 inst:  203000004 cyc:  213599012 now IPC :0.31816: AVG IPC :0.94536: L2-Pf-HR :0.89361: L2-HR :0.87687: (Sim:1h1m37s) 
CPU  0 inst:  204000005 cyc:  216741235 now IPC :0.31825: AVG IPC :0.93622: L2-Pf-HR :0.89299: L2-HR :0.87618: (Sim:1h2m2s) 
CPU  0 inst:  205000002 cyc:  219883870 now IPC :0.31820: AVG IPC :0.92735: L2-Pf-HR :0.89236: L2-HR :0.87550: (Sim:1h2m17s) 
CPU  0 inst:  206000003 cyc:  223026818 now IPC :0.31817: AVG IPC :0.91873: L2-Pf-HR :0.89174: L2-HR :0.87482: (Sim:1h2m32s) 
CPU  0 inst:  207000002 cyc:  226170347 now IPC :0.31811: AVG IPC :0.91035: L2-Pf-HR :0.89113: L2-HR :0.87415: (Sim:1h2m46s) 
CPU  0 inst:  208000002 cyc:  229314468 now IPC :0.31805: AVG IPC :0.90219: L2-Pf-HR :0.89051: L2-HR :0.87348: (Sim:1h3m1s) 
CPU  0 inst:  209000001 cyc:  232458155 now IPC :0.31810: AVG IPC :0.89426: L2-Pf-HR :0.88990: L2-HR :0.87281: (Sim:1h3m16s) 
CPU  0 inst:  210000000 cyc:  235601689 now IPC :0.31811: AVG IPC :0.88654: L2-Pf-HR :0.88930: L2-HR :0.87215: (Sim:1h3m31s) 
CPU  0 inst:  211000000 cyc:  238746996 now IPC :0.31793: AVG IPC :0.87902: L2-Pf-HR :0.88869: L2-HR :0.87149: (Sim:1h3m46s) 
CPU  0 inst:  212000000 cyc:  241889839 now IPC :0.31818: AVG IPC :0.87170: L2-Pf-HR :0.88809: L2-HR :0.87083: (Sim:1h4m1s) 
CPU  0 inst:  213000002 cyc:  245032694 now IPC :0.31818: AVG IPC :0.86457: L2-Pf-HR :0.88750: L2-HR :0.87019: (Sim:1h4m16s) 
CPU  0 inst:  214000003 cyc:  248175363 now IPC :0.31820: AVG IPC :0.85763: L2-Pf-HR :0.88691: L2-HR :0.86954: (Sim:1h4m31s) 
CPU  0 inst:  215000000 cyc:  251317374 now IPC :0.31827: AVG IPC :0.85086: L2-Pf-HR :0.88632: L2-HR :0.86890: (Sim:1h4m46s) 
CPU  0 inst:  216000002 cyc:  254460821 now IPC :0.31812: AVG IPC :0.84425: L2-Pf-HR :0.88574: L2-HR :0.86827: (Sim:1h5m1s) 
CPU  0 inst:  217000001 cyc:  257604911 now IPC :0.31806: AVG IPC :0.83780: L2-Pf-HR :0.88515: L2-HR :0.86763: (Sim:1h5m16s) 
CPU  0 inst:  218000000 cyc:  260748311 now IPC :0.31813: AVG IPC :0.83151: L2-Pf-HR :0.88458: L2-HR :0.86701: (Sim:1h5m30s) 
CPU  0 inst:  219000000 cyc:  263891627 now IPC :0.31814: AVG IPC :0.82538: L2-Pf-HR :0.88401: L2-HR :0.86638: (Sim:1h5m46s) 
CPU  0 inst:  220000000 cyc:  267035426 now IPC :0.31809: AVG IPC :0.81938: L2-Pf-HR :0.88344: L2-HR :0.86577: (Sim:1h6m0s) 
CPU  0 inst:  221000001 cyc:  270178125 now IPC :0.31820: AVG IPC :0.81353: L2-Pf-HR :0.88288: L2-HR :0.86516: (Sim:1h6m15s) 
CPU  0 inst:  222000003 cyc:  273321554 now IPC :0.31812: AVG IPC :0.80781: L2-Pf-HR :0.88232: L2-HR :0.86455: (Sim:1h6m29s) 
CPU  0 inst:  223000002 cyc:  276465950 now IPC :0.31803: AVG IPC :0.80222: L2-Pf-HR :0.88176: L2-HR :0.86394: (Sim:1h6m44s) 
CPU  0 inst:  224000001 cyc:  279607167 now IPC :0.31835: AVG IPC :0.79677: L2-Pf-HR :0.88120: L2-HR :0.86334: (Sim:1h6m58s) 
CPU  0 inst:  225000004 cyc:  282750311 now IPC :0.31815: AVG IPC :0.79143: L2-Pf-HR :0.88065: L2-HR :0.86274: (Sim:1h7m13s) 
CPU  0 inst:  226000000 cyc:  285893765 now IPC :0.31812: AVG IPC :0.78621: L2-Pf-HR :0.88010: L2-HR :0.86214: (Sim:1h7m27s) 
CPU  0 inst:  227000000 cyc:  289036788 now IPC :0.31817: AVG IPC :0.78110: L2-Pf-HR :0.87956: L2-HR :0.86156: (Sim:1h7m47s) 
CPU  0 inst:  228000000 cyc:  292180645 now IPC :0.31808: AVG IPC :0.77610: L2-Pf-HR :0.87901: L2-HR :0.86097: (Sim:1h8m1s) 
CPU  0 inst:  229000001 cyc:  295324400 now IPC :0.31809: AVG IPC :0.77121: L2-Pf-HR :0.87848: L2-HR :0.86039: (Sim:1h8m16s) 
CPU  0 inst:  230000003 cyc:  298467262 now IPC :0.31818: AVG IPC :0.76642: L2-Pf-HR :0.87794: L2-HR :0.85981: (Sim:1h8m30s) 
CPU  0 inst:  231000003 cyc:  301610245 now IPC :0.31817: AVG IPC :0.76174: L2-Pf-HR :0.87741: L2-HR :0.85923: (Sim:1h8m44s) 
CPU  0 inst:  232000002 cyc:  304754599 now IPC :0.31803: AVG IPC :0.75714: L2-Pf-HR :0.87688: L2-HR :0.85866: (Sim:1h9m2s) 
CPU  0 inst:  233000004 cyc:  305865462 now IPC :0.90020: AVG IPC :0.75766: L2-Pf-HR :0.87659: L2-HR :0.85826: (Sim:1h9m14s) 
CPU  0 inst:  234000000 cyc:  306426582 now IPC :1.78214: AVG IPC :0.75955: L2-Pf-HR :0.87716: L2-HR :0.85882: (Sim:1h9m22s) 
CPU  0 inst:  235000004 cyc:  306972414 now IPC :1.83207: AVG IPC :0.76146: L2-Pf-HR :0.87765: L2-HR :0.85936: (Sim:1h9m31s) 
CPU  0 inst:  236000003 cyc:  307470095 now IPC :2.00932: AVG IPC :0.76349: L2-Pf-HR :0.87834: L2-HR :0.86006: (Sim:1h9m39s) 
CPU  0 inst:  237000000 cyc:  307961381 now IPC :2.03547: AVG IPC :0.76552: L2-Pf-HR :0.87913: L2-HR :0.86085: (Sim:1h9m47s) 
CPU  0 inst:  238000003 cyc:  308686876 now IPC :1.37837: AVG IPC :0.76697: L2-Pf-HR :0.87934: L2-HR :0.86113: (Sim:1h9m57s) 
CPU  0 inst:  239000000 cyc:  309155674 now IPC :2.13311: AVG IPC :0.76904: L2-Pf-HR :0.87998: L2-HR :0.86176: (Sim:1h10m4s) 
CPU  0 inst:  240000001 cyc:  309786748 now IPC :1.58460: AVG IPC :0.77071: L2-Pf-HR :0.88038: L2-HR :0.86222: (Sim:1h10m13s) 
CPU  0 inst:  241000000 cyc:  310236335 now IPC :2.22426: AVG IPC :0.77282: L2-Pf-HR :0.88109: L2-HR :0.86291: (Sim:1h10m20s) 
CPU  0 inst:  242000001 cyc:  310777132 now IPC :1.84912: AVG IPC :0.77470: L2-Pf-HR :0.88181: L2-HR :0.86365: (Sim:1h10m28s) 
CPU  0 inst:  243000001 cyc:  311249734 now IPC :2.11595: AVG IPC :0.77675: L2-Pf-HR :0.88251: L2-HR :0.86435: (Sim:1h10m36s) 
CPU  0 inst:  244000004 cyc:  311948441 now IPC :1.43122: AVG IPC :0.77822: L2-Pf-HR :0.88261: L2-HR :0.86452: (Sim:1h10m46s) 
CPU  0 inst:  245000002 cyc:  312496760 now IPC :1.82375: AVG IPC :0.78006: L2-Pf-HR :0.88316: L2-HR :0.86506: (Sim:1h10m53s) 
CPU  0 inst:  246000000 cyc:  313055132 now IPC :1.79092: AVG IPC :0.78187: L2-Pf-HR :0.88362: L2-HR :0.86558: (Sim:1h11m2s) 
CPU  0 inst:  247000001 cyc:  313555382 now IPC :1.99900: AVG IPC :0.78381: L2-Pf-HR :0.88431: L2-HR :0.86628: (Sim:1h11m10s) 
CPU  0 inst:  248000000 cyc:  314046563 now IPC :2.03591: AVG IPC :0.78578: L2-Pf-HR :0.88497: L2-HR :0.86695: (Sim:1h11m19s) 
CPU  0 inst:  249000004 cyc:  314738951 now IPC :1.44428: AVG IPC :0.78723: L2-Pf-HR :0.88517: L2-HR :0.86721: (Sim:1h11m28s) 
CPU  0 inst:  250000005 cyc:  315204646 now IPC :2.14733: AVG IPC :0.78925: L2-Pf-HR :0.88571: L2-HR :0.86775: (Sim:1h11m36s) 
CPU  0 inst:  251000002 cyc:  315839044 now IPC :1.57629: AVG IPC :0.79083: L2-Pf-HR :0.88607: L2-HR :0.86818: (Sim:1h11m44s) 
CPU  0 inst:  252000001 cyc:  316288996 now IPC :2.22246: AVG IPC :0.79288: L2-Pf-HR :0.88667: L2-HR :0.86877: (Sim:1h11m52s) 
CPU  0 inst:  253000000 cyc:  316849775 now IPC :1.78323: AVG IPC :0.79463: L2-Pf-HR :0.88727: L2-HR :0.86940: (Sim:1h12m0s) 
CPU  0 inst:  254000003 cyc:  317324322 now IPC :2.10728: AVG IPC :0.79660: L2-Pf-HR :0.88791: L2-HR :0.87005: (Sim:1h12m10s) 
CPU  0 inst:  255000001 cyc:  317986500 now IPC :1.51016: AVG IPC :0.79809: L2-Pf-HR :0.88801: L2-HR :0.87021: (Sim:1h12m32s) 
CPU  0 inst:  256000003 cyc:  318530860 now IPC :1.83702: AVG IPC :0.79987: L2-Pf-HR :0.88853: L2-HR :0.87072: (Sim:1h12m48s) 
CPU  0 inst:  257000002 cyc:  319082352 now IPC :1.81326: AVG IPC :0.80163: L2-Pf-HR :0.88893: L2-HR :0.87117: (Sim:1h12m57s) 
CPU  0 inst:  258000002 cyc:  319590040 now IPC :1.96971: AVG IPC :0.80349: L2-Pf-HR :0.88948: L2-HR :0.87173: (Sim:1h13m4s) 
CPU  0 inst:  259000000 cyc:  320084546 now IPC :2.02222: AVG IPC :0.80538: L2-Pf-HR :0.89003: L2-HR :0.87230: (Sim:1h13m12s) 
CPU  0 inst:  260000000 cyc:  320738689 now IPC :1.52872: AVG IPC :0.80686: L2-Pf-HR :0.89022: L2-HR :0.87255: (Sim:1h13m20s) 
CPU  0 inst:  261000002 cyc:  321203646 now IPC :2.15074: AVG IPC :0.80881: L2-Pf-HR :0.89068: L2-HR :0.87301: (Sim:1h13m28s) 
CPU  0 inst:  262000000 cyc:  321824376 now IPC :1.61100: AVG IPC :0.81036: L2-Pf-HR :0.89096: L2-HR :0.87335: (Sim:1h13m36s) 
CPU  0 inst:  263000002 cyc:  322274709 now IPC :2.22058: AVG IPC :0.81234: L2-Pf-HR :0.89146: L2-HR :0.87386: (Sim:1h13m43s) 
CPU  0 inst:  264000000 cyc:  322793090 now IPC :1.92908: AVG IPC :0.81414: L2-Pf-HR :0.89199: L2-HR :0.87443: (Sim:1h13m51s) 
CPU  0 inst:  265000000 cyc:  323273211 now IPC :2.08281: AVG IPC :0.81603: L2-Pf-HR :0.89258: L2-HR :0.87503: (Sim:1h13m58s) 
CPU  0 inst:  266000000 cyc:  323843462 now IPC :1.75361: AVG IPC :0.81769: L2-Pf-HR :0.89261: L2-HR :0.87511: (Sim:1h14m7s) 
CPU  0 inst:  267000002 cyc:  324346262 now IPC :1.98887: AVG IPC :0.81951: L2-Pf-HR :0.89306: L2-HR :0.87556: (Sim:1h14m14s) 
CPU  0 inst:  268000005 cyc:  324859312 now IPC :1.94913: AVG IPC :0.82130: L2-Pf-HR :0.89336: L2-HR :0.87592: (Sim:1h14m22s) 
CPU  0 inst:  269000003 cyc:  325345496 now IPC :2.05683: AVG IPC :0.82315: L2-Pf-HR :0.89387: L2-HR :0.87644: (Sim:1h14m29s) 
CPU  0 inst:  270000002 cyc:  325825870 now IPC :2.08171: AVG IPC :0.82501: L2-Pf-HR :0.89436: L2-HR :0.87696: (Sim:1h14m37s) 
CPU  0 inst:  271000002 cyc:  326436951 now IPC :1.63644: AVG IPC :0.82653: L2-Pf-HR :0.89455: L2-HR :0.87719: (Sim:1h14m46s) 
CPU  0 inst:  272000003 cyc:  326905510 now IPC :2.13421: AVG IPC :0.82841: L2-Pf-HR :0.89496: L2-HR :0.87761: (Sim:1h14m53s) 
CPU  0 inst:  273000004 cyc:  327442287 now IPC :1.86297: AVG IPC :0.83011: L2-Pf-HR :0.89526: L2-HR :0.87795: (Sim:1h15m1s) 
CPU  0 inst:  274000000 cyc:  327935551 now IPC :2.02730: AVG IPC :0.83192: L2-Pf-HR :0.89568: L2-HR :0.87839: (Sim:1h15m9s) 
CPU  0 inst:  275000000 cyc:  328428194 now IPC :2.02987: AVG IPC :0.83372: L2-Pf-HR :0.89614: L2-HR :0.87888: (Sim:1h15m16s) 
CPU  0 inst:  276000004 cyc:  328916654 now IPC :2.04726: AVG IPC :0.83553: L2-Pf-HR :0.89667: L2-HR :0.87943: (Sim:1h15m24s) 
CPU  0 inst:  277000001 cyc:  329522682 now IPC :1.65008: AVG IPC :0.83703: L2-Pf-HR :0.89673: L2-HR :0.87953: (Sim:1h15m32s) 
CPU  0 inst:  278000000 cyc:  330028883 now IPC :1.97550: AVG IPC :0.83878: L2-Pf-HR :0.89716: L2-HR :0.87996: (Sim:1h15m40s) 
CPU  0 inst:  279000004 cyc:  330538656 now IPC :1.96167: AVG IPC :0.84052: L2-Pf-HR :0.89742: L2-HR :0.88028: (Sim:1h15m47s) 
CPU  0 inst:  280000001 cyc:  331007460 now IPC :2.13308: AVG IPC :0.84236: L2-Pf-HR :0.89795: L2-HR :0.88081: (Sim:1h15m55s) 
CPU  0 inst:  281000000 cyc:  331504226 now IPC :2.01302: AVG IPC :0.84412: L2-Pf-HR :0.89837: L2-HR :0.88127: (Sim:1h16m2s) 
CPU  0 inst:  282000001 cyc:  332021086 now IPC :1.93476: AVG IPC :0.84582: L2-Pf-HR :0.89871: L2-HR :0.88162: (Sim:1h16m9s) 
CPU  0 inst:  283000003 cyc:  332545945 now IPC :1.90528: AVG IPC :0.84750: L2-Pf-HR :0.89889: L2-HR :0.88183: (Sim:1h16m17s) 
CPU  0 inst:  284000003 cyc:  333070351 now IPC :1.90692: AVG IPC :0.84917: L2-Pf-HR :0.89924: L2-HR :0.88220: (Sim:1h16m24s) 
CPU  0 inst:  285000003 cyc:  333580602 now IPC :1.95982: AVG IPC :0.85087: L2-Pf-HR :0.89951: L2-HR :0.88253: (Sim:1h16m32s) 
CPU  0 inst:  286000005 cyc:  334069316 now IPC :2.04619: AVG IPC :0.85263: L2-Pf-HR :0.89993: L2-HR :0.88297: (Sim:1h16m39s) 
CPU  0 inst:  287000000 cyc:  334554795 now IPC :2.05981: AVG IPC :0.85438: L2-Pf-HR :0.90039: L2-HR :0.88345: (Sim:1h16m47s) 
CPU  0 inst:  288000003 cyc:  335159333 now IPC :1.65416: AVG IPC :0.85583: L2-Pf-HR :0.90046: L2-HR :0.88356: (Sim:1h16m55s) 
CPU  0 inst:  289000001 cyc:  335630960 now IPC :2.12032: AVG IPC :0.85761: L2-Pf-HR :0.90091: L2-HR :0.88401: (Sim:1h17m2s) 
CPU  0 inst:  290000002 cyc:  336190304 now IPC :1.78781: AVG IPC :0.85917: L2-Pf-HR :0.90106: L2-HR :0.88421: (Sim:1h17m10s) 
CPU  0 inst:  291000001 cyc:  336650087 now IPC :2.17494: AVG IPC :0.86097: L2-Pf-HR :0.90154: L2-HR :0.88470: (Sim:1h17m17s) 
CPU  0 inst:  292000003 cyc:  337163967 now IPC :1.94598: AVG IPC :0.86263: L2-Pf-HR :0.90194: L2-HR :0.88513: (Sim:1h17m25s) 
CPU  0 inst:  293000000 cyc:  337633386 now IPC :2.13029: AVG IPC :0.86439: L2-Pf-HR :0.90238: L2-HR :0.88558: (Sim:1h17m32s) 
CPU  0 inst:  294000003 cyc:  338202564 now IPC :1.75692: AVG IPC :0.86590: L2-Pf-HR :0.90243: L2-HR :0.88566: (Sim:1h17m40s) 
CPU  0 inst:  295000005 cyc:  338705328 now IPC :1.98901: AVG IPC :0.86757: L2-Pf-HR :0.90275: L2-HR :0.88599: (Sim:1h17m48s) 
CPU  0 inst:  296000002 cyc:  339222524 now IPC :1.93350: AVG IPC :0.86920: L2-Pf-HR :0.90304: L2-HR :0.88632: (Sim:1h17m56s) 
CPU  0 inst:  297000003 cyc:  339710897 now IPC :2.04762: AVG IPC :0.87090: L2-Pf-HR :0.90345: L2-HR :0.88675: (Sim:1h18m3s) 
CPU  0 inst:  298000001 cyc:  340197511 now IPC :2.05501: AVG IPC :0.87260: L2-Pf-HR :0.90389: L2-HR :0.88721: (Sim:1h18m10s) 
CPU  0 inst:  299000002 cyc:  340855073 now IPC :1.52077: AVG IPC :0.87385: L2-Pf-HR :0.90392: L2-HR :0.88729: (Sim:1h18m19s) 
CPU  0 inst:  300000000 cyc:  341323218 now IPC :2.13609: AVG IPC :0.87559: L2-Pf-HR :0.90429: L2-HR :0.88767: (Sim:1h18m26s) 
CPU  0 inst:  301000000 cyc:  341874455 now IPC :1.81410: AVG IPC :0.87711: L2-Pf-HR :0.90448: L2-HR :0.88791: (Sim:1h18m34s) 
CPU  0 inst:  302000005 cyc:  342325464 now IPC :2.21726: AVG IPC :0.87888: L2-Pf-HR :0.90492: L2-HR :0.88836: (Sim:1h18m41s) 
CPU  0 inst:  303000005 cyc:  342845171 now IPC :1.92416: AVG IPC :0.88047: L2-Pf-HR :0.90529: L2-HR :0.88875: (Sim:1h18m49s) 
CPU  0 inst:  304000004 cyc:  343315916 now IPC :2.12429: AVG IPC :0.88218: L2-Pf-HR :0.90569: L2-HR :0.88917: (Sim:1h18m56s) 
CPU  0 inst:  305000005 cyc:  343893695 now IPC :1.73077: AVG IPC :0.88361: L2-Pf-HR :0.90568: L2-HR :0.88918: (Sim:1h19m4s) 
CPU  0 inst:  306000001 cyc:  344418201 now IPC :1.90655: AVG IPC :0.88517: L2-Pf-HR :0.90599: L2-HR :0.88950: (Sim:1h19m11s) 
CPU  0 inst:  307000005 cyc:  344926920 now IPC :1.96573: AVG IPC :0.88677: L2-Pf-HR :0.90625: L2-HR :0.88981: (Sim:1h19m19s) 
CPU  0 inst:  308000004 cyc:  345417382 now IPC :2.03889: AVG IPC :0.88841: L2-Pf-HR :0.90663: L2-HR :0.89021: (Sim:1h19m26s) 
CPU  0 inst:  309000002 cyc:  345899687 now IPC :2.07337: AVG IPC :0.89007: L2-Pf-HR :0.90701: L2-HR :0.89061: (Sim:1h19m34s) 
CPU  0 inst:  310000005 cyc:  346492718 now IPC :1.68626: AVG IPC :0.89143: L2-Pf-HR :0.90708: L2-HR :0.89071: (Sim:1h19m42s) 
CPU  0 inst:  311000004 cyc:  346950993 now IPC :2.18209: AVG IPC :0.89314: L2-Pf-HR :0.90739: L2-HR :0.89103: (Sim:1h19m49s) 
CPU  0 inst:  312000004 cyc:  347538382 now IPC :1.70245: AVG IPC :0.89451: L2-Pf-HR :0.90751: L2-HR :0.89121: (Sim:1h19m57s) 
CPU  0 inst:  313000001 cyc:  347988233 now IPC :2.22295: AVG IPC :0.89624: L2-Pf-HR :0.90787: L2-HR :0.89158: (Sim:1h20m4s) 
CPU  0 inst:  314000002 cyc:  348509092 now IPC :1.91991: AVG IPC :0.89777: L2-Pf-HR :0.90822: L2-HR :0.89196: (Sim:1h20m11s) 
CPU  0 inst:  315000001 cyc:  348981357 now IPC :2.11745: AVG IPC :0.89942: L2-Pf-HR :0.90860: L2-HR :0.89235: (Sim:1h20m19s) 
CPU  0 inst:  316000000 cyc:  349575586 now IPC :1.68285: AVG IPC :0.90076: L2-Pf-HR :0.90857: L2-HR :0.89236: (Sim:1h20m26s) 
CPU  0 inst:  317000005 cyc:  350085611 now IPC :1.96070: AVG IPC :0.90231: L2-Pf-HR :0.90884: L2-HR :0.89265: (Sim:1h20m34s) 
CPU  0 inst:  318000000 cyc:  350587352 now IPC :1.99305: AVG IPC :0.90387: L2-Pf-HR :0.90904: L2-HR :0.89289: (Sim:1h20m41s) 
CPU  0 inst:  319000005 cyc:  351071282 now IPC :2.06642: AVG IPC :0.90548: L2-Pf-HR :0.90938: L2-HR :0.89325: (Sim:1h20m48s) 
CPU  0 inst:  320000000 cyc:  351553453 now IPC :2.07394: AVG IPC :0.90709: L2-Pf-HR :0.90972: L2-HR :0.89361: (Sim:1h20m56s) 
CPU  0 inst:  321000004 cyc:  352155347 now IPC :1.66143: AVG IPC :0.90838: L2-Pf-HR :0.90982: L2-HR :0.89373: (Sim:1h21m4s) 
CPU  0 inst:  322000005 cyc:  352616714 now IPC :2.16747: AVG IPC :0.91003: L2-Pf-HR :0.91009: L2-HR :0.89402: (Sim:1h21m11s) 
CPU  0 inst:  323000002 cyc:  353205733 now IPC :1.69773: AVG IPC :0.91135: L2-Pf-HR :0.91018: L2-HR :0.89415: (Sim:1h21m19s) 
CPU  0 inst:  324000003 cyc:  353653560 now IPC :2.23301: AVG IPC :0.91303: L2-Pf-HR :0.91051: L2-HR :0.89449: (Sim:1h21m26s) 
CPU  0 inst:  325000005 cyc:  354182238 now IPC :1.89151: AVG IPC :0.91449: L2-Pf-HR :0.91083: L2-HR :0.89484: (Sim:1h21m33s) 
CPU  0 inst:  326000004 cyc:  354655185 now IPC :2.11440: AVG IPC :0.91610: L2-Pf-HR :0.91120: L2-HR :0.89523: (Sim:1h21m40s) 
CPU  0 inst:  327000004 cyc:  355267229 now IPC :1.63387: AVG IPC :0.91734: L2-Pf-HR :0.91117: L2-HR :0.89522: (Sim:1h21m48s) 
CPU  0 inst:  328000004 cyc:  355785800 now IPC :1.92838: AVG IPC :0.91882: L2-Pf-HR :0.91141: L2-HR :0.89548: (Sim:1h21m56s) 
CPU  0 inst:  329000004 cyc:  356293848 now IPC :1.96832: AVG IPC :0.92032: L2-Pf-HR :0.91157: L2-HR :0.89569: (Sim:1h22m3s) 
CPU  0 inst:  330000000 cyc:  356777377 now IPC :2.06812: AVG IPC :0.92188: L2-Pf-HR :0.91190: L2-HR :0.89604: (Sim:1h22m10s) 
CPU  0 inst:  331000003 cyc:  357256182 now IPC :2.08854: AVG IPC :0.92344: L2-Pf-HR :0.91221: L2-HR :0.89637: (Sim:1h22m18s) 
CPU  0 inst:  332000005 cyc:  357841715 now IPC :1.70785: AVG IPC :0.92473: L2-Pf-HR :0.91228: L2-HR :0.89647: (Sim:1h22m26s) 
CPU  0 inst:  333000003 cyc:  358305031 now IPC :2.15835: AVG IPC :0.92633: L2-Pf-HR :0.91252: L2-HR :0.89672: (Sim:1h22m32s) 
CPU  0 inst:  334000003 cyc:  358864469 now IPC :1.78751: AVG IPC :0.92768: L2-Pf-HR :0.91264: L2-HR :0.89690: (Sim:1h22m40s) 
CPU  0 inst:  335000000 cyc:  359327730 now IPC :2.15860: AVG IPC :0.92927: L2-Pf-HR :0.91293: L2-HR :0.89720: (Sim:1h22m47s) 
CPU  0 inst:  336000004 cyc:  359828354 now IPC :1.99752: AVG IPC :0.93076: L2-Pf-HR :0.91323: L2-HR :0.89752: (Sim:1h22m54s) 
CPU  0 inst:  337000002 cyc:  360306643 now IPC :2.09078: AVG IPC :0.93230: L2-Pf-HR :0.91357: L2-HR :0.89789: (Sim:1h23m2s) 
CPU  0 inst:  338000000 cyc:  360899134 now IPC :1.68779: AVG IPC :0.93355: L2-Pf-HR :0.91355: L2-HR :0.89790: (Sim:1h23m9s) 
CPU  0 inst:  339000005 cyc:  361407951 now IPC :1.96535: AVG IPC :0.93500: L2-Pf-HR :0.91380: L2-HR :0.89816: (Sim:1h23m17s) 
CPU  0 inst:  340000002 cyc:  361915930 now IPC :1.96858: AVG IPC :0.93646: L2-Pf-HR :0.91391: L2-HR :0.89832: (Sim:1h23m24s) 
CPU  0 inst:  341000001 cyc:  362386403 now IPC :2.12552: AVG IPC :0.93801: L2-Pf-HR :0.91426: L2-HR :0.89866: (Sim:1h23m31s) 
CPU  0 inst:  342000004 cyc:  362874276 now IPC :2.04972: AVG IPC :0.93950: L2-Pf-HR :0.91452: L2-HR :0.89896: (Sim:1h23m39s) 
CPU  0 inst:  343000004 cyc:  363408509 now IPC :1.87184: AVG IPC :0.94088: L2-Pf-HR :0.91467: L2-HR :0.89913: (Sim:1h23m46s) 
CPU  0 inst:  344000004 cyc:  363920735 now IPC :1.95226: AVG IPC :0.94231: L2-Pf-HR :0.91481: L2-HR :0.89929: (Sim:1h23m53s) 
CPU  0 inst:  345000000 cyc:  364443780 now IPC :1.91187: AVG IPC :0.94370: L2-Pf-HR :0.91501: L2-HR :0.89950: (Sim:1h24m1s) 
CPU  0 inst:  346000004 cyc:  364953055 now IPC :1.96358: AVG IPC :0.94513: L2-Pf-HR :0.91518: L2-HR :0.89972: (Sim:1h24m8s) 
CPU  0 inst:  347000001 cyc:  365444038 now IPC :2.03672: AVG IPC :0.94660: L2-Pf-HR :0.91545: L2-HR :0.90001: (Sim:1h24m15s) 
CPU  0 inst:  348000003 cyc:  365927024 now IPC :2.07046: AVG IPC :0.94809: L2-Pf-HR :0.91577: L2-HR :0.90035: (Sim:1h24m23s) 
CPU  0 inst:  349000001 cyc:  366532414 now IPC :1.65182: AVG IPC :0.94925: L2-Pf-HR :0.91577: L2-HR :0.90036: (Sim:1h24m30s) 
CPU  0 inst:  350000000 cyc:  367005894 now IPC :2.11202: AVG IPC :0.95076: L2-Pf-HR :0.91608: L2-HR :0.90067: (Sim:1h24m37s) 
CPU  0 inst:  351000000 cyc:  367556217 now IPC :1.81711: AVG IPC :0.95206: L2-Pf-HR :0.91612: L2-HR :0.90076: (Sim:1h24m45s) 
CPU  0 inst:  352000000 cyc:  368020030 now IPC :2.15604: AVG IPC :0.95358: L2-Pf-HR :0.91643: L2-HR :0.90107: (Sim:1h24m52s) 
CPU  0 inst:  353000005 cyc:  368525376 now IPC :1.97885: AVG IPC :0.95499: L2-Pf-HR :0.91668: L2-HR :0.90136: (Sim:1h25m0s) 
CPU  0 inst:  354000000 cyc:  368999526 now IPC :2.10903: AVG IPC :0.95647: L2-Pf-HR :0.91696: L2-HR :0.90165: (Sim:1h25m7s) 
CPU  0 inst:  355000001 cyc:  369576061 now IPC :1.73450: AVG IPC :0.95769: L2-Pf-HR :0.91695: L2-HR :0.90165: (Sim:1h25m14s) 
CPU  0 inst:  356000002 cyc:  370093963 now IPC :1.93087: AVG IPC :0.95906: L2-Pf-HR :0.91715: L2-HR :0.90187: (Sim:1h25m22s) 
CPU  0 inst:  357000001 cyc:  370618013 now IPC :1.90821: AVG IPC :0.96040: L2-Pf-HR :0.91728: L2-HR :0.90204: (Sim:1h25m29s) 
CPU  0 inst:  358000005 cyc:  371107678 now IPC :2.04222: AVG IPC :0.96183: L2-Pf-HR :0.91753: L2-HR :0.90231: (Sim:1h25m36s) 
CPU  0 inst:  359000000 cyc:  371584937 now IPC :2.09529: AVG IPC :0.96329: L2-Pf-HR :0.91783: L2-HR :0.90263: (Sim:1h25m44s) 
CPU  0 inst:  360000005 cyc:  372191686 now IPC :1.64814: AVG IPC :0.96441: L2-Pf-HR :0.91783: L2-HR :0.90265: (Sim:1h25m52s) 
CPU  0 inst:  361000003 cyc:  372660578 now IPC :2.13268: AVG IPC :0.96589: L2-Pf-HR :0.91809: L2-HR :0.90291: (Sim:1h25m59s) 
CPU  0 inst:  362000001 cyc:  373218562 now IPC :1.79216: AVG IPC :0.96712: L2-Pf-HR :0.91814: L2-HR :0.90300: (Sim:1h26m6s) 
CPU  0 inst:  363000001 cyc:  373671178 now IPC :2.20938: AVG IPC :0.96863: L2-Pf-HR :0.91841: L2-HR :0.90328: (Sim:1h26m13s) 
CPU  0 inst:  364000002 cyc:  374181486 now IPC :1.95960: AVG IPC :0.96999: L2-Pf-HR :0.91866: L2-HR :0.90356: (Sim:1h26m21s) 
CPU  0 inst:  365000004 cyc:  374652579 now IPC :2.12273: AVG IPC :0.97144: L2-Pf-HR :0.91892: L2-HR :0.90384: (Sim:1h26m28s) 
CPU  0 inst:  366000002 cyc:  375229201 now IPC :1.73423: AVG IPC :0.97262: L2-Pf-HR :0.91890: L2-HR :0.90383: (Sim:1h26m36s) 
CPU  0 inst:  367000003 cyc:  375748418 now IPC :1.92598: AVG IPC :0.97394: L2-Pf-HR :0.91909: L2-HR :0.90403: (Sim:1h26m43s) 
CPU  0 inst:  368000000 cyc:  376269883 now IPC :1.91767: AVG IPC :0.97525: L2-Pf-HR :0.91920: L2-HR :0.90418: (Sim:1h26m50s) 
CPU  0 inst:  369000000 cyc:  376756183 now IPC :2.05634: AVG IPC :0.97665: L2-Pf-HR :0.91944: L2-HR :0.90444: (Sim:1h26m58s) 
CPU  0 inst:  370000001 cyc:  377236811 now IPC :2.08061: AVG IPC :0.97806: L2-Pf-HR :0.91971: L2-HR :0.90474: (Sim:1h27m5s) 
CPU  0 inst:  371000003 cyc:  377843379 now IPC :1.64862: AVG IPC :0.97914: L2-Pf-HR :0.91971: L2-HR :0.90474: (Sim:1h27m13s) 
CPU  0 inst:  372000001 cyc:  378304128 now IPC :2.17037: AVG IPC :0.98059: L2-Pf-HR :0.91993: L2-HR :0.90498: (Sim:1h27m20s) 
CPU  0 inst:  373000005 cyc:  378878695 now IPC :1.74045: AVG IPC :0.98175: L2-Pf-HR :0.91997: L2-HR :0.90507: (Sim:1h27m27s) 
CPU  0 inst:  374000003 cyc:  379327208 now IPC :2.22959: AVG IPC :0.98323: L2-Pf-HR :0.92022: L2-HR :0.90533: (Sim:1h27m35s) 
CPU  0 inst:  375000003 cyc:  379847796 now IPC :1.92090: AVG IPC :0.98452: L2-Pf-HR :0.92047: L2-HR :0.90560: (Sim:1h27m42s) 
CPU  0 inst:  376000001 cyc:  380319197 now IPC :2.12133: AVG IPC :0.98593: L2-Pf-HR :0.92073: L2-HR :0.90588: (Sim:1h27m49s) 
CPU  0 inst:  377000003 cyc:  380918470 now IPC :1.66869: AVG IPC :0.98700: L2-Pf-HR :0.92068: L2-HR :0.90585: (Sim:1h27m57s) 
CPU  0 inst:  378000004 cyc:  381430338 now IPC :1.95363: AVG IPC :0.98831: L2-Pf-HR :0.92086: L2-HR :0.90604: (Sim:1h28m5s) 
CPU  0 inst:  379000005 cyc:  381942401 now IPC :1.95289: AVG IPC :0.98960: L2-Pf-HR :0.92095: L2-HR :0.90617: (Sim:1h28m12s) 
CPU  0 inst:  380000004 cyc:  382427742 now IPC :2.06041: AVG IPC :0.99096: L2-Pf-HR :0.92119: L2-HR :0.90642: (Sim:1h28m19s) 
CPU  0 inst:  381000002 cyc:  382906286 now IPC :2.08967: AVG IPC :0.99234: L2-Pf-HR :0.92143: L2-HR :0.90669: (Sim:1h28m27s) 
CPU  0 inst:  382000000 cyc:  383488083 now IPC :1.71881: AVG IPC :0.99345: L2-Pf-HR :0.92145: L2-HR :0.90671: (Sim:1h28m35s) 
CPU  0 inst:  383000004 cyc:  383947499 now IPC :2.17669: AVG IPC :0.99487: L2-Pf-HR :0.92163: L2-HR :0.90691: (Sim:1h28m42s) 
CPU  0 inst:  384000003 cyc:  384532490 now IPC :1.70943: AVG IPC :0.99596: L2-Pf-HR :0.92166: L2-HR :0.90699: (Sim:1h28m50s) 
CPU  0 inst:  385000004 cyc:  384980817 now IPC :2.23052: AVG IPC :0.99740: L2-Pf-HR :0.92189: L2-HR :0.90722: (Sim:1h28m57s) 
CPU  0 inst:  386000001 cyc:  385506857 now IPC :1.90099: AVG IPC :0.99863: L2-Pf-HR :0.92211: L2-HR :0.90747: (Sim:1h29m4s) 
CPU  0 inst:  387000002 cyc:  385978558 now IPC :2.11999: AVG IPC :1.00001: L2-Pf-HR :0.92236: L2-HR :0.90774: (Sim:1h29m11s) 
CPU  0 inst:  388000001 cyc:  386580032 now IPC :1.66258: AVG IPC :1.00104: L2-Pf-HR :0.92231: L2-HR :0.90770: (Sim:1h29m20s) 
CPU  0 inst:  389000005 cyc:  387091147 now IPC :1.95651: AVG IPC :1.00231: L2-Pf-HR :0.92246: L2-HR :0.90787: (Sim:1h29m27s) 
CPU  0 inst:  390000000 cyc:  387617912 now IPC :1.89837: AVG IPC :1.00353: L2-Pf-HR :0.92255: L2-HR :0.90800: (Sim:1h29m35s) 
CPU  0 inst:  391000005 cyc:  388101033 now IPC :2.06989: AVG IPC :1.00486: L2-Pf-HR :0.92278: L2-HR :0.90824: (Sim:1h29m42s) 
CPU  0 inst:  392000003 cyc:  388576977 now IPC :2.10108: AVG IPC :1.00620: L2-Pf-HR :0.92301: L2-HR :0.90849: (Sim:1h29m49s) 
CPU  0 inst:  393000000 cyc:  389168006 now IPC :1.69196: AVG IPC :1.00725: L2-Pf-HR :0.92303: L2-HR :0.90852: (Sim:1h29m57s) 
CPU  0 inst:  394000002 cyc:  389630226 now IPC :2.16348: AVG IPC :1.00862: L2-Pf-HR :0.92319: L2-HR :0.90870: (Sim:1h30m4s) 
CPU  0 inst:  395000000 cyc:  390216459 now IPC :1.70580: AVG IPC :1.00967: L2-Pf-HR :0.92320: L2-HR :0.90875: (Sim:1h30m12s) 
CPU  0 inst:  396000005 cyc:  390663940 now IPC :2.23474: AVG IPC :1.01108: L2-Pf-HR :0.92343: L2-HR :0.90899: (Sim:1h30m19s) 
CPU  0 inst:  397000005 cyc:  391164178 now IPC :1.99905: AVG IPC :1.01235: L2-Pf-HR :0.92364: L2-HR :0.90923: (Sim:1h30m26s) 
CPU  0 inst:  398000000 cyc:  391641089 now IPC :2.09682: AVG IPC :1.01367: L2-Pf-HR :0.92389: L2-HR :0.90949: (Sim:1h30m34s) 
CPU  0 inst:  399000001 cyc:  392226049 now IPC :1.70952: AVG IPC :1.01471: L2-Pf-HR :0.92383: L2-HR :0.90944: (Sim:1h30m41s) 
CPU  0 inst:  400000003 cyc:  392732138 now IPC :1.97594: AVG IPC :1.01595: L2-Pf-HR :0.92398: L2-HR :0.90961: (Sim:1h30m49s) 
CPU  0 inst:  401000004 cyc:  393262615 now IPC :1.88510: AVG IPC :1.01713: L2-Pf-HR :0.92405: L2-HR :0.90971: (Sim:1h30m56s) 
CPU  0 inst:  402000004 cyc:  393741403 now IPC :2.08861: AVG IPC :1.01843: L2-Pf-HR :0.92426: L2-HR :0.90994: (Sim:1h31m4s) 
CPU  0 inst:  403000003 cyc:  394226545 now IPC :2.06125: AVG IPC :1.01972: L2-Pf-HR :0.92447: L2-HR :0.91017: (Sim:1h31m11s) 
CPU  0 inst:  404000005 cyc:  394815270 now IPC :1.69859: AVG IPC :1.02073: L2-Pf-HR :0.92451: L2-HR :0.91023: (Sim:1h31m18s) 
CPU  0 inst:  405000003 cyc:  395296362 now IPC :2.07860: AVG IPC :1.02202: L2-Pf-HR :0.92463: L2-HR :0.91036: (Sim:1h31m26s) 
CPU  0 inst:  406000005 cyc:  395836740 now IPC :1.85056: AVG IPC :1.02316: L2-Pf-HR :0.92472: L2-HR :0.91047: (Sim:1h31m33s) 
Finished CPU 0 instr: 404000003 cyc: 394855618 AVG IPC: 1.02316 (Sim time: 1h31m33s)

ChampSim completed all CPUs

[ROI Statistics]
Core_0_instructions 404000003
Core_0_cycles 394855618
Core_0_IPC 1.02316

Core_0_branch_prediction_accuracy 98.90148
Core_0_branch_MPKI 0.32729
Core_0_average_ROB_occupancy_at_mispredict 534.70786

Core_0_L1D_total_access 255981863
Core_0_L1D_total_hit 247260147 L1D_total_Hit Ratio: 0.96593
Core_0_L1D_total_miss 8721716
Core_0_L1D_loads 96620875
Core_0_L1D_load_hit 92102436 L1D_load_Hit Ratio: 0.95324
Core_0_L1D_load_miss 4518439
Core_0_L1D_RFOs 11306295
Core_0_L1D_RFO_hit 10765865 L1D_RFO_Hit Ratio: 0.95220
Core_0_L1D_RFO_miss 540430
Core_0_L1D_prefetches 148054693
Core_0_L1D_prefetch_hit 144391846 L1D_prefetch_Hit Ratio: 0.97526
Core_0_L1D_prefetch_miss 3662847
Core_0_L1D_writebacks 0
Core_0_L1D_writeback_hit 0 L1D_writeback_Hit Ratio: -nan
Core_0_L1D_writeback_miss 0
Core_0_L1D_prefetch_requested 296042961
Core_0_L1D_prefetch_issued 180433719
Core_0_L1D_prefetch_useful 2576178 L1D_Useful Ratio: 0.01428
Core_0_L1D_prefetch_useless 1105616
Core_0_L1D_prefetch_late 685272
Core_0_L1D_average_miss_latency 16907617.46760

Core_0_L1I_total_access 60614446
Core_0_L1I_total_hit 60612510 L1I_total_Hit Ratio: 0.99997
Core_0_L1I_total_miss 1936
Core_0_L1I_loads 60614446
Core_0_L1I_load_hit 60612510 L1I_load_Hit Ratio: 0.99997
Core_0_L1I_load_miss 1936
Core_0_L1I_RFOs 0
Core_0_L1I_RFO_hit 0 L1I_RFO_Hit Ratio: -nan
Core_0_L1I_RFO_miss 0
Core_0_L1I_prefetches 0
Core_0_L1I_prefetch_hit 0 L1I_prefetch_Hit Ratio: -nan
Core_0_L1I_prefetch_miss 0
Core_0_L1I_writebacks 0
Core_0_L1I_writeback_hit 0 L1I_writeback_Hit Ratio: -nan
Core_0_L1I_writeback_miss 0
Core_0_L1I_prefetch_requested 0
Core_0_L1I_prefetch_issued 0
Core_0_L1I_prefetch_useful 0 L1I_Useful Ratio: -nan
Core_0_L1I_prefetch_useless 0
Core_0_L1I_prefetch_late 0
Core_0_L1I_average_miss_latency 310.95764

Core_0_L2C_total_access 32916798
Core_0_L2C_total_hit 29969737 L2C_total_Hit Ratio: 0.91047
Core_0_L2C_total_miss 2947061
Core_0_L2C_loads 3836557
Core_0_L2C_load_hit 3186512 L2C_load_Hit Ratio: 0.83057
Core_0_L2C_load_miss 650045
Core_0_L2C_RFOs 540319
Core_0_L2C_RFO_hit 178629 L2C_RFO_Hit Ratio: 0.33060
Core_0_L2C_RFO_miss 361690
Core_0_L2C_prefetches 25707918
Core_0_L2C_prefetch_hit 23772604 L2C_prefetch_Hit Ratio: 0.92472
Core_0_L2C_prefetch_miss 1935314
Core_0_L2C_writebacks 2832004
Core_0_L2C_writeback_hit 2831992 L2C_writeback_Hit Ratio: 1.00000
Core_0_L2C_writeback_miss 12
Core_0_L2C_prefetch_requested 70718164
Core_0_L2C_prefetch_issued 35388391
Core_0_L2C_prefetch_useful 860795 L2C_Useful Ratio: 0.02432
Core_0_L2C_prefetch_useless 1068633
Core_0_L2C_prefetch_late 360877
Core_0_L2C_average_miss_latency 313.98527

Core_0_LLC_total_access 4660521
Core_0_LLC_total_hit 1708543 LLC_total_Hit Ratio: 0.36660
Core_0_LLC_total_miss 2951978
Core_0_LLC_loads 289196
Core_0_LLC_load_hit 11937 LLC_load_Hit Ratio: 0.04128
Core_0_LLC_load_miss 277259
Core_0_LLC_RFOs 361690
Core_0_LLC_RFO_hit 0 LLC_RFO_Hit Ratio: 0.00000
Core_0_LLC_RFO_miss 361690
Core_0_LLC_prefetches 2358450
Core_0_LLC_prefetch_hit 50038 LLC_prefetch_Hit Ratio: 0.02122
Core_0_LLC_prefetch_miss 2308412
Core_0_LLC_writebacks 1651185
Core_0_LLC_writeback_hit 1646568 LLC_writeback_Hit Ratio: 0.99720
Core_0_LLC_writeback_miss 4617
Core_0_LLC_prefetch_requested 0
Core_0_LLC_prefetch_issued 0
Core_0_LLC_prefetch_useful 11937 LLC_Useful Ratio: inf
Core_0_LLC_prefetch_useless 2211650
Core_0_LLC_prefetch_late 16045
Core_0_LLC_average_miss_latency 327.58529

Core_0_major_page_fault 0
Core_0_minor_page_fault 22520

CPU 0 L1D next line prefetcher final stats
CPU 0 L2C PC-based stride prefetcher final stats
Stride Degree: 15
MK1  MARKOV_LRU_SIZE: 128
MK1  MARKOV_PREDICTION_PERCENTTHRESHOLD: 40.00000
MK1  OUTLIERS_THRESHOLD_Max: 64
MK1  OUTLIERS_THRESHOLD_Min: 32
MK2  MARKOV_LRU_SIZE: 256
MK2  MARKOV_PREDICTION_PERCENTTHRESHOLD: 30.00000
MK2  OUTLIERS_THRESHOLD_Max: 32
MK2  OUTLIERS_THRESHOLD_Min: 16
MK3  MARKOV_LRU_SIZE: 384
MK3  MARKOV_PREDICTION_PERCENTTHRESHOLD: 25.00000
MK3  OUTLIERS_THRESHOLD_Max: 16
MK3  OUTLIERS_THRESHOLD_Min: 8
MK4  MARKOV_LRU_SIZE: 512
MK4  MARKOV_PREDICTION_PERCENTTHRESHOLD: 20.00000
MK4  OUTLIERS_THRESHOLD_Max: 8
MK4  OUTLIERS_THRESHOLD_Min: 0
IPStride Degree/Access Ratio: 6.19161
MK1 IPDEltaMarkov  Degree/Access Ratio: 0.27055
MK2 IPDEltaMarkov  Degree/Access Ratio: 0.80385
MK3 IPDEltaMarkov  Degree/Access Ratio: 0.69112
MK4 IPDEltaMarkov  Degree/Access Ratio: 1.28329
Channel_0_RQ_row_buffer_hit 1571524
Channel_0_RQ_row_buffer_miss 1375837
Channel_0_WQ_row_buffer_hit 564909
Channel_0_WQ_row_buffer_miss 1078976
Channel_0_WQ_full 1180
Channel_0_dbus_congested 3042055

avg_congested_cycle 8

EzSearch AVG IPC :1.02316: L2-Pf-HR :0.92472 : L2-HR :0.91047 Uful:0.02432
     > Finished combination: TraceType=770-tot Sim:404000000 Prefetcher=L2029-SecTOP-L2-MultiMarkovDelta_ip_stride_v4-IPStrS256 L1=next_line
