TRACE: [21000000]_FE_[Pythia-70M]_[h8]_[s256]_[d64] Warmup: 2000000 NumTraces: 21000000
L1:isb_ideal:L2:isb_ideal
*************************************************
   ChampSim Multicore Out-of-Order Simulator
   Last compiled: Oct 20 2024 05:12:04
*************************************************

trace_0 770-tot_memTraces_v3/memTraces[21000000]_FE_[Pythia-70M]_[h8]_[s256]_[d64].champsim.xz
L1D: Ideal ISB Prefetching
Ideal ISB Prefetching
MAIN.cc ln 751 stats print skipped
CPU  0 inst:    1000001 cyc:     503895 now IPC :1.98454: AVG IPC :1.98454: L2-Pf-HR :1.00000: L2-HR :0.89882: (Sim:0h0m5s) 
CPU  0 inst:    2000003 cyc:     984006 now IPC :2.08286: AVG IPC :2.03251: L2-Pf-HR :0.99997: L2-HR :0.92359: (Sim:0h0m9s) 

Warmup complete CPU  0 instructions:    2000003 cycles:     984006 (Simulation time: 0 hr 0 min 9 sec) 

CPU  0 inst:    3000001 cyc:    1747258 now IPC :1.31018: AVG IPC :1.31018: L2-Pf-HR :0.99998: L2-HR :0.94809: (Sim:0h0m13s) 
CPU  0 inst:    4000000 cyc:    2508280 now IPC :1.31402: AVG IPC :1.31210: L2-Pf-HR :0.99987: L2-HR :0.94775: (Sim:0h0m18s) 
CPU  0 inst:    5000001 cyc:    3277413 now IPC :1.30017: AVG IPC :1.30810: L2-Pf-HR :0.99991: L2-HR :0.94773: (Sim:0h0m23s) 
CPU  0 inst:    6000003 cyc:    4072173 now IPC :1.25824: AVG IPC :1.29527: L2-Pf-HR :0.99993: L2-HR :0.94780: (Sim:0h0m28s) 
CPU  0 inst:    7000003 cyc:    4900352 now IPC :1.20747: AVG IPC :1.27670: L2-Pf-HR :0.99993: L2-HR :0.94788: (Sim:0h0m32s) 
CPU  0 inst:    8000000 cyc:    5743925 now IPC :1.18543: AVG IPC :1.26052: L2-Pf-HR :0.99993: L2-HR :0.94767: (Sim:0h0m36s) 
CPU  0 inst:    9000000 cyc:    8472614 now IPC :0.36648: AVG IPC :0.93475: L2-Pf-HR :0.99993: L2-HR :0.90683: (Sim:0h0m43s) 
CPU  0 inst:   10000000 cyc:   13628824 now IPC :0.19394: AVG IPC :0.63267: L2-Pf-HR :0.99993: L2-HR :0.89033: (Sim:0h0m53s) 
CPU  0 inst:   11000000 cyc:   18832758 now IPC :0.19216: AVG IPC :0.50424: L2-Pf-HR :0.99993: L2-HR :0.87475: (Sim:0h1m4s) 
CPU  0 inst:   12000000 cyc:   23832272 now IPC :0.20002: AVG IPC :0.43767: L2-Pf-HR :0.99993: L2-HR :0.86002: (Sim:0h1m14s) 
CPU  0 inst:   13000000 cyc:   28831828 now IPC :0.20002: AVG IPC :0.39500: L2-Pf-HR :0.99993: L2-HR :0.84607: (Sim:0h1m24s) 
CPU  0 inst:   14000002 cyc:   30127246 now IPC :0.77195: AVG IPC :0.41176: L2-Pf-HR :0.99992: L2-HR :0.85597: (Sim:0h1m32s) 
CPU  0 inst:   15000003 cyc:   31188297 now IPC :0.94246: AVG IPC :0.43040: L2-Pf-HR :0.99992: L2-HR :0.86585: (Sim:0h1m38s) 
CPU  0 inst:   16000000 cyc:   32227591 now IPC :0.96219: AVG IPC :0.44809: L2-Pf-HR :0.99993: L2-HR :0.87388: (Sim:0h1m44s) 
CPU  0 inst:   17000002 cyc:   33269939 now IPC :0.95937: AVG IPC :0.46460: L2-Pf-HR :0.99993: L2-HR :0.88064: (Sim:0h1m49s) 
CPU  0 inst:   18000000 cyc:   34270789 now IPC :0.99915: AVG IPC :0.48067: L2-Pf-HR :0.99994: L2-HR :0.88673: (Sim:0h1m54s) 
Finished CPU 0 instr: 16000001 cyc: 33286784 AVG IPC: 0.48067 (Sim time: 0h1m54s)

ChampSim completed all CPUs

[ROI Statistics]
Core_0_instructions 16000001
Core_0_cycles 33286784
Core_0_IPC 0.48067

Core_0_branch_prediction_accuracy 98.24557
Core_0_branch_MPKI 0.63131
Core_0_average_ROB_occupancy_at_mispredict 188.03930

Core_0_L1D_total_access 4864178
Core_0_L1D_total_hit 4301214 L1D_total_Hit Ratio: 0.88426
Core_0_L1D_total_miss 562964
Core_0_L1D_loads 4314323
Core_0_L1D_load_hit 3784771 L1D_load_Hit Ratio: 0.87726
Core_0_L1D_load_miss 529552
Core_0_L1D_RFOs 538933
Core_0_L1D_RFO_hit 505521 L1D_RFO_Hit Ratio: 0.93800
Core_0_L1D_RFO_miss 33412
Core_0_L1D_prefetches 10922
Core_0_L1D_prefetch_hit 10922 L1D_prefetch_Hit Ratio: 1.00000
Core_0_L1D_prefetch_miss 0
Core_0_L1D_writebacks 0
Core_0_L1D_writeback_hit 0 L1D_writeback_Hit Ratio: -nan
Core_0_L1D_writeback_miss 0
Core_0_L1D_prefetch_requested 3164103
Core_0_L1D_prefetch_issued 1048237
Core_0_L1D_prefetch_useful 0 L1D_Useful Ratio: 0.00000
Core_0_L1D_prefetch_useless 0
Core_0_L1D_prefetch_late 0
Core_0_L1D_average_miss_latency 95.77622

Core_0_L1I_total_access 4070413
Core_0_L1I_total_hit 4065706 L1I_total_Hit Ratio: 0.99884
Core_0_L1I_total_miss 4707
Core_0_L1I_loads 4070413
Core_0_L1I_load_hit 4065706 L1I_load_Hit Ratio: 0.99884
Core_0_L1I_load_miss 4707
Core_0_L1I_RFOs 0
Core_0_L1I_RFO_hit 0 L1I_RFO_Hit Ratio: -nan
Core_0_L1I_RFO_miss 0
Core_0_L1I_prefetches 0
Core_0_L1I_prefetch_hit 0 L1I_prefetch_Hit Ratio: -nan
Core_0_L1I_prefetch_miss 0
Core_0_L1I_writebacks 0
Core_0_L1I_writeback_hit 0 L1I_writeback_Hit Ratio: -nan
Core_0_L1I_writeback_miss 0
Core_0_L1I_prefetch_requested 0
Core_0_L1I_prefetch_issued 0
Core_0_L1I_prefetch_useful 0 L1I_Useful Ratio: -nan
Core_0_L1I_prefetch_useless 0
Core_0_L1I_prefetch_late 0
Core_0_L1I_average_miss_latency 255.88761

Core_0_L2C_total_access 1509392
Core_0_L2C_total_hit 1338420 L2C_total_Hit Ratio: 0.88673
Core_0_L2C_total_miss 170972
Core_0_L2C_loads 534259
Core_0_L2C_load_hit 396403 L2C_load_Hit Ratio: 0.74197
Core_0_L2C_load_miss 137856
Core_0_L2C_RFOs 33412
Core_0_L2C_RFO_hit 373 L2C_RFO_Hit Ratio: 0.01116
Core_0_L2C_RFO_miss 33039
Core_0_L2C_prefetches 829593
Core_0_L2C_prefetch_hit 829541 L2C_prefetch_Hit Ratio: 0.99994
Core_0_L2C_prefetch_miss 52
Core_0_L2C_writebacks 112128
Core_0_L2C_writeback_hit 112103 L2C_writeback_Hit Ratio: 0.99978
Core_0_L2C_writeback_miss 25
Core_0_L2C_prefetch_requested 521690
Core_0_L2C_prefetch_issued 52
Core_0_L2C_prefetch_useful 51 L2C_Useful Ratio: 0.98077
Core_0_L2C_prefetch_useless 4
Core_0_L2C_prefetch_late 0
Core_0_L2C_average_miss_latency 274.89578

Core_0_LLC_total_access 271845
Core_0_LLC_total_hit 101554 LLC_total_Hit Ratio: 0.37357
Core_0_LLC_total_miss 170291
Core_0_LLC_loads 137856
Core_0_LLC_load_hit 1687 LLC_load_Hit Ratio: 0.01224
Core_0_LLC_load_miss 136169
Core_0_LLC_RFOs 33039
Core_0_LLC_RFO_hit 79 LLC_RFO_Hit Ratio: 0.00239
Core_0_LLC_RFO_miss 32960
Core_0_LLC_prefetches 52
Core_0_LLC_prefetch_hit 38 LLC_prefetch_Hit Ratio: 0.73077
Core_0_LLC_prefetch_miss 14
Core_0_LLC_writebacks 100898
Core_0_LLC_writeback_hit 99750 LLC_writeback_Hit Ratio: 0.98862
Core_0_LLC_writeback_miss 1148
Core_0_LLC_prefetch_requested 0
Core_0_LLC_prefetch_issued 0
Core_0_LLC_prefetch_useful 1 LLC_Useful Ratio: inf
Core_0_LLC_prefetch_useless 9
Core_0_LLC_prefetch_late 0
Core_0_LLC_average_miss_latency 245.67769

Core_0_major_page_fault 0
Core_0_minor_page_fault 2382

CPU 0 L1D next line prefetcher final stats
Prefetcher final stats
Training Unit Size: 4689
Addr table size: 80741 80741


Triggers: 153510
No Prediction: 87572 57.04645
Stream end: 1055
No translation: 554461 361.18885
Predictions: 52 0.03387


Stream divergence: 140 0.09120
Stream divergence -- new stream: 0
Channel_0_RQ_row_buffer_hit 74987
Channel_0_RQ_row_buffer_miss 94154
Channel_0_WQ_row_buffer_hit 39315
Channel_0_WQ_row_buffer_miss 58890
Channel_0_WQ_full 0
Channel_0_dbus_congested 90358

avg_congested_cycle 11

EzSearch AVG IPC :0.48067: L2-Pf-HR :0.99994 : L2-HR :0.88673 Uful:0.98077
     > Finished combination: TraceType=770-tot Sim:16000000 Prefetcher=L2isb_ideal L1=isb_ideal
