TRACE: [662000000][OPT-350M]_[h16][s1024][d64] Warmup: 2000000 NumTraces: 662000000
L1:next_line:L2:029-SecTOP-L2-MultiMarkovDelta_ip_stride_v4-MK2-P30
*************************************************
   ChampSim Multicore Out-of-Order Simulator
   Last compiled: Oct 26 2024 23:01:03
*************************************************

trace_0 770-tot_memTraces_v3/memTraces[662000000][OPT-350M]_[h16][s1024][d64].champsim.xz
CPU 0 L1D next line prefetcher
MK1: Size: 128 TMAX: 64 TMIN: 32 MKPTHRESH: 40
MK2: Size: 256 TMAX: 32 TMIN: 16 MK2PTHRESH: 30
MK3: Size: 384 TMAX: 16 TMIN: 8 MK3PTHRESH: 25
MK4: Size: 512 TMAX: 8 TMIN: 0 MK4PTHRESH: 20
Stride Size: 512 Prefetch Degree: 15

CPU 0 L2C prefetcher
MAIN.cc ln 751 stats print skipped
CPU 0 L2C prefetcher initialized


Cache Size: 4096
number of cache lines: 65536
CPU  0 inst:    1000001 cyc:     498081 now IPC :2.00771: AVG IPC :2.00771: L2-Pf-HR :0.91111: L2-HR :0.88970: (Sim:0h0m20s) 
CPU  0 inst:    2000000 cyc:     980665 now IPC :2.07218: AVG IPC :2.03943: L2-Pf-HR :0.94045: L2-HR :0.92898: (Sim:0h0m41s) 

Warmup complete CPU  0 instructions:    2000001 cycles:     980666 (Simulation time: 0 hr 0 min 41 sec) 

CPU  0 inst:    3000001 cyc:    1465980 now IPC :2.06052: AVG IPC :2.06052: L2-Pf-HR :0.90833: L2-HR :0.91958: (Sim:0h0m58s) 
CPU  0 inst:    4000002 cyc:    1939393 now IPC :2.11232: AVG IPC :2.08610: L2-Pf-HR :0.91856: L2-HR :0.92847: (Sim:0h1m16s) 
CPU  0 inst:    5000003 cyc:    2412252 now IPC :2.11480: AVG IPC :2.09558: L2-Pf-HR :0.92446: L2-HR :0.93348: (Sim:0h1m33s) 
CPU  0 inst:    6000004 cyc:    2882653 now IPC :2.12585: AVG IPC :2.10307: L2-Pf-HR :0.93530: L2-HR :0.94236: (Sim:0h1m50s) 
CPU  0 inst:    7000001 cyc:    3446044 now IPC :1.77496: AVG IPC :2.02809: L2-Pf-HR :0.92963: L2-HR :0.93475: (Sim:0h2m8s) 
CPU  0 inst:    8000001 cyc:    3901378 now IPC :2.19619: AVG IPC :2.05429: L2-Pf-HR :0.93098: L2-HR :0.93706: (Sim:0h2m25s) 
CPU  0 inst:    9000000 cyc:    4355899 now IPC :2.20012: AVG IPC :2.07393: L2-Pf-HR :0.93262: L2-HR :0.93928: (Sim:0h2m43s) 
CPU  0 inst:   10000004 cyc:    4811674 now IPC :2.19407: AVG IPC :2.08822: L2-Pf-HR :0.93419: L2-HR :0.94117: (Sim:0h3m0s) 
CPU  0 inst:   11000005 cyc:    5265107 now IPC :2.20540: AVG IPC :2.10063: L2-Pf-HR :0.93576: L2-HR :0.94296: (Sim:0h3m17s) 
CPU  0 inst:   12000005 cyc:    5719402 now IPC :2.20121: AVG IPC :2.11027: L2-Pf-HR :0.94017: L2-HR :0.94695: (Sim:0h3m34s) 
CPU  0 inst:   13000004 cyc:    6239015 now IPC :1.92451: AVG IPC :2.09191: L2-Pf-HR :0.93817: L2-HR :0.94464: (Sim:0h3m52s) 
CPU  0 inst:   14000001 cyc:    6692550 now IPC :2.20489: AVG IPC :2.10088: L2-Pf-HR :0.93824: L2-HR :0.94507: (Sim:0h4m9s) 
CPU  0 inst:   15000005 cyc:    7146591 now IPC :2.20245: AVG IPC :2.10836: L2-Pf-HR :0.93875: L2-HR :0.94579: (Sim:0h4m26s) 
CPU  0 inst:   16000000 cyc:    7601609 now IPC :2.19770: AVG IPC :2.11450: L2-Pf-HR :0.94059: L2-HR :0.94755: (Sim:0h4m43s) 
CPU  0 inst:   17000005 cyc:    8170138 now IPC :1.75893: AVG IPC :2.08638: L2-Pf-HR :0.93808: L2-HR :0.94442: (Sim:0h5m1s) 
CPU  0 inst:   18000000 cyc:    8639540 now IPC :2.13036: AVG IPC :2.08908: L2-Pf-HR :0.93785: L2-HR :0.94428: (Sim:0h5m17s) 
CPU  0 inst:   19000001 cyc:    9106328 now IPC :2.14230: AVG IPC :2.09214: L2-Pf-HR :0.93794: L2-HR :0.94442: (Sim:0h5m25s) 
CPU  0 inst:   20000005 cyc:    9571606 now IPC :2.14926: AVG IPC :2.09523: L2-Pf-HR :0.93819: L2-HR :0.94468: (Sim:0h5m32s) 
CPU  0 inst:   21000000 cyc:   10037916 now IPC :2.14449: AVG IPC :2.09777: L2-Pf-HR :0.93845: L2-HR :0.94495: (Sim:0h5m40s) 
CPU  0 inst:   22000004 cyc:   10504193 now IPC :2.14466: AVG IPC :2.10006: L2-Pf-HR :0.94019: L2-HR :0.94639: (Sim:0h5m48s) 
CPU  0 inst:   23000002 cyc:   11065344 now IPC :1.78205: AVG IPC :2.08237: L2-Pf-HR :0.93906: L2-HR :0.94483: (Sim:0h5m56s) 
CPU  0 inst:   24000002 cyc:   11523460 now IPC :2.18285: AVG IPC :2.08673: L2-Pf-HR :0.93895: L2-HR :0.94496: (Sim:0h6m4s) 
CPU  0 inst:   25000005 cyc:   11979702 now IPC :2.19183: AVG IPC :2.09109: L2-Pf-HR :0.93906: L2-HR :0.94525: (Sim:0h6m12s) 
CPU  0 inst:   26000002 cyc:   12436046 now IPC :2.19132: AVG IPC :2.09509: L2-Pf-HR :0.93928: L2-HR :0.94561: (Sim:0h6m20s) 
CPU  0 inst:   27000003 cyc:   12891910 now IPC :2.19364: AVG IPC :2.09886: L2-Pf-HR :0.93957: L2-HR :0.94601: (Sim:0h6m28s) 
CPU  0 inst:   28000003 cyc:   13344153 now IPC :2.21120: AVG IPC :2.10297: L2-Pf-HR :0.94094: L2-HR :0.94729: (Sim:0h6m36s) 
CPU  0 inst:   29000004 cyc:   13888316 now IPC :1.83769: AVG IPC :2.09178: L2-Pf-HR :0.94039: L2-HR :0.94658: (Sim:0h6m44s) 
CPU  0 inst:   30000005 cyc:   14343731 now IPC :2.19580: AVG IPC :2.09533: L2-Pf-HR :0.94041: L2-HR :0.94676: (Sim:0h6m52s) 
CPU  0 inst:   31000003 cyc:   14798695 now IPC :2.19797: AVG IPC :2.09871: L2-Pf-HR :0.94044: L2-HR :0.94692: (Sim:0h7m0s) 
CPU  0 inst:   32000000 cyc:   15251943 now IPC :2.20629: AVG IPC :2.10212: L2-Pf-HR :0.94108: L2-HR :0.94758: (Sim:0h7m7s) 
CPU  0 inst:   33000000 cyc:   15861305 now IPC :1.64106: AVG IPC :2.08324: L2-Pf-HR :0.94013: L2-HR :0.94629: (Sim:0h7m16s) 
CPU  0 inst:   34000003 cyc:   16337983 now IPC :2.09786: AVG IPC :2.08370: L2-Pf-HR :0.93996: L2-HR :0.94617: (Sim:0h7m24s) 
CPU  0 inst:   35000001 cyc:   16810531 now IPC :2.11618: AVG IPC :2.08467: L2-Pf-HR :0.93993: L2-HR :0.94618: (Sim:0h7m32s) 
CPU  0 inst:   36000005 cyc:   17278824 now IPC :2.13542: AVG IPC :2.08613: L2-Pf-HR :0.93989: L2-HR :0.94618: (Sim:0h7m40s) 
CPU  0 inst:   37000003 cyc:   17748713 now IPC :2.12816: AVG IPC :2.08730: L2-Pf-HR :0.94001: L2-HR :0.94630: (Sim:0h7m48s) 
CPU  0 inst:   38000004 cyc:   18217399 now IPC :2.13363: AVG IPC :2.08856: L2-Pf-HR :0.94076: L2-HR :0.94692: (Sim:0h7m56s) 
CPU  0 inst:   39000000 cyc:   18824602 now IPC :1.64689: AVG IPC :2.07353: L2-Pf-HR :0.94038: L2-HR :0.94622: (Sim:0h8m4s) 
CPU  0 inst:   40000002 cyc:   19289046 now IPC :2.15312: AVG IPC :2.07555: L2-Pf-HR :0.94022: L2-HR :0.94620: (Sim:0h8m12s) 
CPU  0 inst:   41000000 cyc:   19744646 now IPC :2.19490: AVG IPC :2.07845: L2-Pf-HR :0.94025: L2-HR :0.94634: (Sim:0h8m20s) 
CPU  0 inst:   42000001 cyc:   20202778 now IPC :2.18278: AVG IPC :2.08094: L2-Pf-HR :0.94032: L2-HR :0.94651: (Sim:0h8m28s) 
CPU  0 inst:   43000004 cyc:   20659517 now IPC :2.18944: AVG IPC :2.08346: L2-Pf-HR :0.94048: L2-HR :0.94674: (Sim:0h8m36s) 
CPU  0 inst:   44000000 cyc:   21117069 now IPC :2.18554: AVG IPC :2.08577: L2-Pf-HR :0.94118: L2-HR :0.94740: (Sim:0h8m44s) 
CPU  0 inst:   45000005 cyc:   21670292 now IPC :1.80760: AVG IPC :2.07834: L2-Pf-HR :0.94106: L2-HR :0.94714: (Sim:0h8m52s) 
CPU  0 inst:   46000002 cyc:   22127958 now IPC :2.18499: AVG IPC :2.08064: L2-Pf-HR :0.94100: L2-HR :0.94719: (Sim:0h9m0s) 
CPU  0 inst:   47000005 cyc:   22581537 now IPC :2.20469: AVG IPC :2.08325: L2-Pf-HR :0.94099: L2-HR :0.94728: (Sim:0h9m8s) 
CPU  0 inst:   48000001 cyc:   23035304 now IPC :2.20377: AVG IPC :2.08573: L2-Pf-HR :0.94125: L2-HR :0.94758: (Sim:0h9m16s) 
CPU  0 inst:   49000003 cyc:   23642625 now IPC :1.64658: AVG IPC :2.07396: L2-Pf-HR :0.94083: L2-HR :0.94691: (Sim:0h9m25s) 
CPU  0 inst:   50000003 cyc:   24116528 now IPC :2.11014: AVG IPC :2.07470: L2-Pf-HR :0.94063: L2-HR :0.94676: (Sim:0h9m33s) 
CPU  0 inst:   51000002 cyc:   24591764 now IPC :2.10422: AVG IPC :2.07530: L2-Pf-HR :0.94060: L2-HR :0.94676: (Sim:0h9m42s) 
CPU  0 inst:   52000000 cyc:   25067746 now IPC :2.10092: AVG IPC :2.07580: L2-Pf-HR :0.94060: L2-HR :0.94677: (Sim:0h9m50s) 
CPU  0 inst:   53000003 cyc:   25541492 now IPC :2.11084: AVG IPC :2.07648: L2-Pf-HR :0.94062: L2-HR :0.94680: (Sim:0h9m57s) 
CPU  0 inst:   54000000 cyc:   26015336 now IPC :2.11039: AVG IPC :2.07712: L2-Pf-HR :0.94103: L2-HR :0.94714: (Sim:0h10m5s) 
CPU  0 inst:   55000001 cyc:   26617973 now IPC :1.65938: AVG IPC :2.06730: L2-Pf-HR :0.94094: L2-HR :0.94680: (Sim:0h10m14s) 
CPU  0 inst:   56000001 cyc:   27081853 now IPC :2.15573: AVG IPC :2.06887: L2-Pf-HR :0.94079: L2-HR :0.94675: (Sim:0h10m22s) 
CPU  0 inst:   57000004 cyc:   27540012 now IPC :2.18265: AVG IPC :2.07083: L2-Pf-HR :0.94081: L2-HR :0.94685: (Sim:0h10m30s) 
CPU  0 inst:   58000005 cyc:   27995649 now IPC :2.19473: AVG IPC :2.07292: L2-Pf-HR :0.94082: L2-HR :0.94694: (Sim:0h10m38s) 
CPU  0 inst:   59000005 cyc:   28453495 now IPC :2.18414: AVG IPC :2.07478: L2-Pf-HR :0.94088: L2-HR :0.94706: (Sim:0h10m46s) 
CPU  0 inst:   60000005 cyc:   28910462 now IPC :2.18834: AVG IPC :2.07664: L2-Pf-HR :0.94129: L2-HR :0.94746: (Sim:0h10m54s) 
CPU  0 inst:   61000005 cyc:   29458817 now IPC :1.82364: AVG IPC :2.07176: L2-Pf-HR :0.94135: L2-HR :0.94738: (Sim:0h11m2s) 
CPU  0 inst:   62000000 cyc:   29918382 now IPC :2.17596: AVG IPC :2.07342: L2-Pf-HR :0.94127: L2-HR :0.94739: (Sim:0h11m10s) 
CPU  0 inst:   63000001 cyc:   30375181 now IPC :2.18915: AVG IPC :2.07522: L2-Pf-HR :0.94128: L2-HR :0.94747: (Sim:0h11m18s) 
CPU  0 inst:   64000001 cyc:   30831994 now IPC :2.18908: AVG IPC :2.07696: L2-Pf-HR :0.94139: L2-HR :0.94762: (Sim:0h11m26s) 
CPU  0 inst:   65000005 cyc:   31432368 now IPC :1.66564: AVG IPC :2.06885: L2-Pf-HR :0.94121: L2-HR :0.94725: (Sim:0h11m34s) 
CPU  0 inst:   66000003 cyc:   31916357 now IPC :2.06616: AVG IPC :2.06881: L2-Pf-HR :0.94100: L2-HR :0.94707: (Sim:0h11m43s) 
CPU  0 inst:   67000001 cyc:   32390947 now IPC :2.10708: AVG IPC :2.06939: L2-Pf-HR :0.94096: L2-HR :0.94705: (Sim:0h11m51s) 
CPU  0 inst:   68000005 cyc:   32868233 now IPC :2.09519: AVG IPC :2.06977: L2-Pf-HR :0.94092: L2-HR :0.94703: (Sim:0h11m59s) 
CPU  0 inst:   69000000 cyc:   33341497 now IPC :2.11297: AVG IPC :2.07040: L2-Pf-HR :0.94092: L2-HR :0.94705: (Sim:0h12m7s) 
CPU  0 inst:   70000004 cyc:   33814553 now IPC :2.11392: AVG IPC :2.07103: L2-Pf-HR :0.94117: L2-HR :0.94725: (Sim:0h12m15s) 
CPU  0 inst:   71000005 cyc:   34413338 now IPC :1.67005: AVG IPC :2.06385: L2-Pf-HR :0.94125: L2-HR :0.94712: (Sim:0h12m23s) 
CPU  0 inst:   72000002 cyc:   34883227 now IPC :2.12816: AVG IPC :2.06474: L2-Pf-HR :0.94100: L2-HR :0.94697: (Sim:0h12m31s) 
CPU  0 inst:   73000002 cyc:   35341867 now IPC :2.18036: AVG IPC :2.06628: L2-Pf-HR :0.94103: L2-HR :0.94706: (Sim:0h12m39s) 
CPU  0 inst:   74000002 cyc:   35797757 now IPC :2.19351: AVG IPC :2.06795: L2-Pf-HR :0.94105: L2-HR :0.94713: (Sim:0h12m47s) 
CPU  0 inst:   75000003 cyc:   36253362 now IPC :2.19489: AVG IPC :2.06959: L2-Pf-HR :0.94106: L2-HR :0.94720: (Sim:0h12m55s) 
CPU  0 inst:   76000000 cyc:   36710972 now IPC :2.18526: AVG IPC :2.07107: L2-Pf-HR :0.94132: L2-HR :0.94747: (Sim:0h13m3s) 
CPU  0 inst:   77000002 cyc:   37261233 now IPC :1.81732: AVG IPC :2.06722: L2-Pf-HR :0.94151: L2-HR :0.94753: (Sim:0h13m11s) 
CPU  0 inst:   78000001 cyc:   37723738 now IPC :2.16214: AVG IPC :2.06842: L2-Pf-HR :0.94141: L2-HR :0.94749: (Sim:0h13m19s) 
CPU  0 inst:   79000000 cyc:   38179574 now IPC :2.19377: AVG IPC :2.06995: L2-Pf-HR :0.94139: L2-HR :0.94753: (Sim:0h13m31s) 
CPU  0 inst:   80000005 cyc:   38634232 now IPC :2.19947: AVG IPC :2.07152: L2-Pf-HR :0.94146: L2-HR :0.94764: (Sim:0h13m48s) 
CPU  0 inst:   81000005 cyc:   39214652 now IPC :1.72289: AVG IPC :2.06622: L2-Pf-HR :0.94142: L2-HR :0.94744: (Sim:0h14m6s) 
CPU  0 inst:   82000000 cyc:   39700436 now IPC :2.05852: AVG IPC :2.06613: L2-Pf-HR :0.94118: L2-HR :0.94724: (Sim:0h14m24s) 
CPU  0 inst:   83000004 cyc:   40173322 now IPC :2.11468: AVG IPC :2.06671: L2-Pf-HR :0.94116: L2-HR :0.94723: (Sim:0h14m41s) 
CPU  0 inst:   84000005 cyc:   40647346 now IPC :2.10960: AVG IPC :2.06723: L2-Pf-HR :0.94115: L2-HR :0.94724: (Sim:0h14m59s) 
CPU  0 inst:   85000003 cyc:   41122280 now IPC :2.10555: AVG IPC :2.06768: L2-Pf-HR :0.94115: L2-HR :0.94724: (Sim:0h15m17s) 
CPU  0 inst:   86000001 cyc:   41597172 now IPC :2.10574: AVG IPC :2.06812: L2-Pf-HR :0.94129: L2-HR :0.94736: (Sim:0h15m34s) 
CPU  0 inst:   87000000 cyc:   42151806 now IPC :1.80299: AVG IPC :2.06455: L2-Pf-HR :0.94155: L2-HR :0.94744: (Sim:0h15m52s) 
CPU  0 inst:   88000003 cyc:   42653412 now IPC :1.99360: AVG IPC :2.06370: L2-Pf-HR :0.94121: L2-HR :0.94717: (Sim:0h16m10s) 
CPU  0 inst:   89000000 cyc:   43114086 now IPC :2.17073: AVG IPC :2.06487: L2-Pf-HR :0.94121: L2-HR :0.94722: (Sim:0h16m27s) 
CPU  0 inst:   90000004 cyc:   43571734 now IPC :2.18509: AVG IPC :2.06616: L2-Pf-HR :0.94123: L2-HR :0.94728: (Sim:0h16m45s) 
CPU  0 inst:   91000004 cyc:   44026158 now IPC :2.20059: AVG IPC :2.06758: L2-Pf-HR :0.94126: L2-HR :0.94736: (Sim:0h17m2s) 
CPU  0 inst:   92000004 cyc:   44482635 now IPC :2.19069: AVG IPC :2.06887: L2-Pf-HR :0.94140: L2-HR :0.94752: (Sim:0h17m20s) 
CPU  0 inst:   93000005 cyc:   45002378 now IPC :1.92403: AVG IPC :2.06716: L2-Pf-HR :0.94172: L2-HR :0.94771: (Sim:0h17m37s) 
CPU  0 inst:   94000002 cyc:   45480536 now IPC :2.09135: AVG IPC :2.06742: L2-Pf-HR :0.94149: L2-HR :0.94756: (Sim:0h17m55s) 
CPU  0 inst:   95000003 cyc:   45934846 now IPC :2.20114: AVG IPC :2.06877: L2-Pf-HR :0.94149: L2-HR :0.94760: (Sim:0h18m12s) 
CPU  0 inst:   96000004 cyc:   46391632 now IPC :2.18921: AVG IPC :2.06998: L2-Pf-HR :0.94151: L2-HR :0.94766: (Sim:0h18m30s) 
CPU  0 inst:   97000002 cyc:   46931220 now IPC :1.85326: AVG IPC :2.06744: L2-Pf-HR :0.94169: L2-HR :0.94773: (Sim:0h18m47s) 
CPU  0 inst:   98000003 cyc:   47468334 now IPC :1.86180: AVG IPC :2.06506: L2-Pf-HR :0.94132: L2-HR :0.94737: (Sim:0h19m5s) 
CPU  0 inst:   99000001 cyc:   47940562 now IPC :2.11762: AVG IPC :2.06559: L2-Pf-HR :0.94128: L2-HR :0.94734: (Sim:0h19m23s) 
CPU  0 inst:  100000002 cyc:   48412395 now IPC :2.11940: AVG IPC :2.06613: L2-Pf-HR :0.94127: L2-HR :0.94734: (Sim:0h19m41s) 
CPU  0 inst:  101000000 cyc:   48888418 now IPC :2.10073: AVG IPC :2.06647: L2-Pf-HR :0.94127: L2-HR :0.94735: (Sim:0h19m58s) 
CPU  0 inst:  102000001 cyc:   49364023 now IPC :2.10259: AVG IPC :2.06683: L2-Pf-HR :0.94134: L2-HR :0.94742: (Sim:0h20m16s) 
CPU  0 inst:  103000003 cyc:   49838822 now IPC :2.10616: AVG IPC :2.06721: L2-Pf-HR :0.94178: L2-HR :0.94777: (Sim:0h20m33s) 
CPU  0 inst:  104000001 cyc:   50438270 now IPC :1.66820: AVG IPC :2.06237: L2-Pf-HR :0.94134: L2-HR :0.94730: (Sim:0h20m51s) 
CPU  0 inst:  105000005 cyc:   50896866 now IPC :2.18058: AVG IPC :2.06346: L2-Pf-HR :0.94131: L2-HR :0.94732: (Sim:0h21m9s) 
CPU  0 inst:  106000002 cyc:   51357843 now IPC :2.16930: AVG IPC :2.06443: L2-Pf-HR :0.94134: L2-HR :0.94738: (Sim:0h21m26s) 
CPU  0 inst:  107000002 cyc:   51813121 now IPC :2.19646: AVG IPC :2.06561: L2-Pf-HR :0.94135: L2-HR :0.94743: (Sim:0h21m44s) 
CPU  0 inst:  108000002 cyc:   52268017 now IPC :2.19830: AVG IPC :2.06679: L2-Pf-HR :0.94144: L2-HR :0.94754: (Sim:0h21m52s) 
CPU  0 inst:  109000000 cyc:   52728569 now IPC :2.17130: AVG IPC :2.06772: L2-Pf-HR :0.94187: L2-HR :0.94793: (Sim:0h22m0s) 
CPU  0 inst:  110000002 cyc:   53277185 now IPC :1.82277: AVG IPC :2.06515: L2-Pf-HR :0.94157: L2-HR :0.94761: (Sim:0h22m8s) 
CPU  0 inst:  111000002 cyc:   53734266 now IPC :2.18780: AVG IPC :2.06621: L2-Pf-HR :0.94155: L2-HR :0.94764: (Sim:0h22m16s) 
CPU  0 inst:  112000003 cyc:   54189352 now IPC :2.19739: AVG IPC :2.06733: L2-Pf-HR :0.94157: L2-HR :0.94769: (Sim:0h22m24s) 
CPU  0 inst:  113000000 cyc:   54643959 now IPC :2.19970: AVG IPC :2.06845: L2-Pf-HR :0.94187: L2-HR :0.94798: (Sim:0h22m32s) 
CPU  0 inst:  114000003 cyc:   55256284 now IPC :1.63312: AVG IPC :2.06354: L2-Pf-HR :0.94143: L2-HR :0.94746: (Sim:0h22m40s) 
CPU  0 inst:  115000000 cyc:   55730621 now IPC :2.10820: AVG IPC :2.06393: L2-Pf-HR :0.94139: L2-HR :0.94744: (Sim:0h22m48s) 
CPU  0 inst:  116000002 cyc:   56199894 now IPC :2.13096: AVG IPC :2.06450: L2-Pf-HR :0.94137: L2-HR :0.94743: (Sim:0h22m57s) 
CPU  0 inst:  117000000 cyc:   56674026 now IPC :2.10911: AVG IPC :2.06488: L2-Pf-HR :0.94138: L2-HR :0.94744: (Sim:0h23m5s) 
CPU  0 inst:  118000001 cyc:   57146511 now IPC :2.11647: AVG IPC :2.06531: L2-Pf-HR :0.94141: L2-HR :0.94748: (Sim:0h23m13s) 
CPU  0 inst:  119000001 cyc:   57617527 now IPC :2.12307: AVG IPC :2.06579: L2-Pf-HR :0.94175: L2-HR :0.94776: (Sim:0h23m20s) 
CPU  0 inst:  120000002 cyc:   58201793 now IPC :1.71155: AVG IPC :2.06218: L2-Pf-HR :0.94144: L2-HR :0.94740: (Sim:0h23m29s) 
CPU  0 inst:  121000002 cyc:   58659928 now IPC :2.18276: AVG IPC :2.06313: L2-Pf-HR :0.94140: L2-HR :0.94740: (Sim:0h23m37s) 
CPU  0 inst:  122000003 cyc:   59118318 now IPC :2.18155: AVG IPC :2.06407: L2-Pf-HR :0.94142: L2-HR :0.94746: (Sim:0h23m45s) 
CPU  0 inst:  123000000 cyc:   59576579 now IPC :2.18216: AVG IPC :2.06499: L2-Pf-HR :0.94145: L2-HR :0.94751: (Sim:0h23m53s) 
CPU  0 inst:  124000000 cyc:   60031283 now IPC :2.19923: AVG IPC :2.06602: L2-Pf-HR :0.94149: L2-HR :0.94758: (Sim:0h24m0s) 
CPU  0 inst:  125000000 cyc:   60486163 now IPC :2.19838: AVG IPC :2.06704: L2-Pf-HR :0.94182: L2-HR :0.94788: (Sim:0h24m8s) 
CPU  0 inst:  126000001 cyc:   61040605 now IPC :1.80362: AVG IPC :2.06460: L2-Pf-HR :0.94161: L2-HR :0.94765: (Sim:0h24m16s) 
CPU  0 inst:  127000004 cyc:   61498329 now IPC :2.18473: AVG IPC :2.06551: L2-Pf-HR :0.94161: L2-HR :0.94768: (Sim:0h24m24s) 
CPU  0 inst:  128000005 cyc:   61954387 now IPC :2.19271: AVG IPC :2.06646: L2-Pf-HR :0.94162: L2-HR :0.94772: (Sim:0h24m32s) 
CPU  0 inst:  129000004 cyc:   62411939 now IPC :2.18554: AVG IPC :2.06735: L2-Pf-HR :0.94182: L2-HR :0.94792: (Sim:0h24m40s) 
CPU  0 inst:  130000000 cyc:   63030611 now IPC :1.61636: AVG IPC :2.06285: L2-Pf-HR :0.94151: L2-HR :0.94754: (Sim:0h24m49s) 
CPU  0 inst:  131000001 cyc:   63505744 now IPC :2.10468: AVG IPC :2.06317: L2-Pf-HR :0.94146: L2-HR :0.94750: (Sim:0h24m57s) 
CPU  0 inst:  132000005 cyc:   63981488 now IPC :2.10198: AVG IPC :2.06347: L2-Pf-HR :0.94144: L2-HR :0.94750: (Sim:0h25m8s) 
CPU  0 inst:  133000000 cyc:   64456779 now IPC :2.10396: AVG IPC :2.06377: L2-Pf-HR :0.94144: L2-HR :0.94750: (Sim:0h25m26s) 
CPU  0 inst:  134000004 cyc:   64932228 now IPC :2.10328: AVG IPC :2.06406: L2-Pf-HR :0.94146: L2-HR :0.94752: (Sim:0h25m43s) 
CPU  0 inst:  135000002 cyc:   65406991 now IPC :2.10631: AVG IPC :2.06437: L2-Pf-HR :0.94171: L2-HR :0.94773: (Sim:0h25m55s) 
CPU  0 inst:  136000000 cyc:   66013182 now IPC :1.64964: AVG IPC :2.06051: L2-Pf-HR :0.94151: L2-HR :0.94747: (Sim:0h26m3s) 
CPU  0 inst:  137000000 cyc:   66472984 now IPC :2.17485: AVG IPC :2.06131: L2-Pf-HR :0.94147: L2-HR :0.94747: (Sim:0h26m11s) 
CPU  0 inst:  138000004 cyc:   66930163 now IPC :2.18734: AVG IPC :2.06218: L2-Pf-HR :0.94148: L2-HR :0.94750: (Sim:0h26m19s) 
CPU  0 inst:  139000001 cyc:   67388718 now IPC :2.18076: AVG IPC :2.06300: L2-Pf-HR :0.94150: L2-HR :0.94755: (Sim:0h26m27s) 
CPU  0 inst:  140000005 cyc:   67845732 now IPC :2.18813: AVG IPC :2.06386: L2-Pf-HR :0.94154: L2-HR :0.94761: (Sim:0h26m35s) 
CPU  0 inst:  141000005 cyc:   68300342 now IPC :2.19969: AVG IPC :2.06478: L2-Pf-HR :0.94179: L2-HR :0.94785: (Sim:0h26m43s) 
CPU  0 inst:  142000003 cyc:   68853460 now IPC :1.80793: AVG IPC :2.06268: L2-Pf-HR :0.94166: L2-HR :0.94769: (Sim:0h26m51s) 
CPU  0 inst:  143000000 cyc:   69307226 now IPC :2.20377: AVG IPC :2.06362: L2-Pf-HR :0.94166: L2-HR :0.94772: (Sim:0h26m59s) 
CPU  0 inst:  144000002 cyc:   69764149 now IPC :2.18856: AVG IPC :2.06445: L2-Pf-HR :0.94166: L2-HR :0.94775: (Sim:0h27m7s) 
CPU  0 inst:  145000000 cyc:   70217517 now IPC :2.20571: AVG IPC :2.06537: L2-Pf-HR :0.94180: L2-HR :0.94789: (Sim:0h27m15s) 
CPU  0 inst:  146000003 cyc:   70827052 now IPC :1.64060: AVG IPC :2.06167: L2-Pf-HR :0.94156: L2-HR :0.94760: (Sim:0h27m23s) 
CPU  0 inst:  147000001 cyc:   71299223 now IPC :2.11787: AVG IPC :2.06204: L2-Pf-HR :0.94152: L2-HR :0.94757: (Sim:0h27m31s) 
CPU  0 inst:  148000003 cyc:   71771787 now IPC :2.11612: AVG IPC :2.06241: L2-Pf-HR :0.94151: L2-HR :0.94756: (Sim:0h27m39s) 
CPU  0 inst:  149000000 cyc:   72245738 now IPC :2.10992: AVG IPC :2.06272: L2-Pf-HR :0.94148: L2-HR :0.94755: (Sim:0h27m47s) 
CPU  0 inst:  150000004 cyc:   72721992 now IPC :2.09973: AVG IPC :2.06297: L2-Pf-HR :0.94151: L2-HR :0.94758: (Sim:0h28m0s) 
CPU  0 inst:  151000000 cyc:   73198056 now IPC :2.10055: AVG IPC :2.06322: L2-Pf-HR :0.94170: L2-HR :0.94773: (Sim:0h28m17s) 
CPU  0 inst:  152000000 cyc:   73807799 now IPC :1.64004: AVG IPC :2.05967: L2-Pf-HR :0.94156: L2-HR :0.94752: (Sim:0h28m36s) 
CPU  0 inst:  153000001 cyc:   74272158 now IPC :2.15351: AVG IPC :2.06027: L2-Pf-HR :0.94153: L2-HR :0.94753: (Sim:0h28m53s) 
CPU  0 inst:  154000002 cyc:   74729810 now IPC :2.18507: AVG IPC :2.06104: L2-Pf-HR :0.94154: L2-HR :0.94756: (Sim:0h29m10s) 
CPU  0 inst:  155000001 cyc:   75186494 now IPC :2.18970: AVG IPC :2.06183: L2-Pf-HR :0.94153: L2-HR :0.94759: (Sim:0h29m28s) 
CPU  0 inst:  156000004 cyc:   75645298 now IPC :2.17959: AVG IPC :2.06256: L2-Pf-HR :0.94157: L2-HR :0.94764: (Sim:0h29m45s) 
CPU  0 inst:  157000003 cyc:   76102552 now IPC :2.18697: AVG IPC :2.06331: L2-Pf-HR :0.94176: L2-HR :0.94782: (Sim:0h30m2s) 
CPU  0 inst:  158000000 cyc:   76654530 now IPC :1.81166: AVG IPC :2.06148: L2-Pf-HR :0.94169: L2-HR :0.94772: (Sim:0h30m20s) 
CPU  0 inst:  159000003 cyc:   77113380 now IPC :2.17937: AVG IPC :2.06219: L2-Pf-HR :0.94168: L2-HR :0.94774: (Sim:0h30m38s) 
CPU  0 inst:  160000005 cyc:   77569844 now IPC :2.19076: AVG IPC :2.06295: L2-Pf-HR :0.94167: L2-HR :0.94776: (Sim:0h30m55s) 
CPU  0 inst:  161000002 cyc:   78025745 now IPC :2.19345: AVG IPC :2.06373: L2-Pf-HR :0.94176: L2-HR :0.94786: (Sim:0h31m12s) 
CPU  0 inst:  162000000 cyc:   78630874 now IPC :1.65254: AVG IPC :2.06052: L2-Pf-HR :0.94161: L2-HR :0.94764: (Sim:0h31m31s) 
CPU  0 inst:  163000001 cyc:   79107146 now IPC :2.09964: AVG IPC :2.06076: L2-Pf-HR :0.94155: L2-HR :0.94760: (Sim:0h31m49s) 
CPU  0 inst:  164000005 cyc:   79577084 now IPC :2.12795: AVG IPC :2.06116: L2-Pf-HR :0.94154: L2-HR :0.94759: (Sim:0h32m6s) 
CPU  0 inst:  165000003 cyc:   80050801 now IPC :2.11096: AVG IPC :2.06146: L2-Pf-HR :0.94153: L2-HR :0.94759: (Sim:0h32m24s) 
CPU  0 inst:  166000004 cyc:   80523836 now IPC :2.11401: AVG IPC :2.06177: L2-Pf-HR :0.94153: L2-HR :0.94760: (Sim:0h32m41s) 
CPU  0 inst:  167000005 cyc:   80997516 now IPC :2.11113: AVG IPC :2.06207: L2-Pf-HR :0.94167: L2-HR :0.94771: (Sim:0h32m59s) 
CPU  0 inst:  168000004 cyc:   81593458 now IPC :1.67801: AVG IPC :2.05923: L2-Pf-HR :0.94159: L2-HR :0.94757: (Sim:0h33m17s) 
CPU  0 inst:  169000000 cyc:   82057937 now IPC :2.15294: AVG IPC :2.05976: L2-Pf-HR :0.94156: L2-HR :0.94756: (Sim:0h33m35s) 
CPU  0 inst:  170000000 cyc:   82514976 now IPC :2.18800: AVG IPC :2.06048: L2-Pf-HR :0.94156: L2-HR :0.94759: (Sim:0h33m52s) 
CPU  0 inst:  171000000 cyc:   82969175 now IPC :2.20168: AVG IPC :2.06126: L2-Pf-HR :0.94156: L2-HR :0.94762: (Sim:0h34m9s) 
CPU  0 inst:  172000003 cyc:   83428110 now IPC :2.17896: AVG IPC :2.06192: L2-Pf-HR :0.94159: L2-HR :0.94766: (Sim:0h34m27s) 
CPU  0 inst:  173000001 cyc:   83885170 now IPC :2.18789: AVG IPC :2.06261: L2-Pf-HR :0.94172: L2-HR :0.94779: (Sim:0h34m44s) 
CPU  0 inst:  174000004 cyc:   84435418 now IPC :1.81737: AVG IPC :2.06100: L2-Pf-HR :0.94171: L2-HR :0.94774: (Sim:0h35m2s) 
CPU  0 inst:  175000005 cyc:   84891627 now IPC :2.19198: AVG IPC :2.06171: L2-Pf-HR :0.94169: L2-HR :0.94775: (Sim:0h35m19s) 
CPU  0 inst:  176000001 cyc:   85347281 now IPC :2.19464: AVG IPC :2.06243: L2-Pf-HR :0.94170: L2-HR :0.94778: (Sim:0h35m37s) 
CPU  0 inst:  177000003 cyc:   85803254 now IPC :2.19312: AVG IPC :2.06313: L2-Pf-HR :0.94174: L2-HR :0.94784: (Sim:0h35m54s) 
CPU  0 inst:  178000000 cyc:   86397041 now IPC :1.68410: AVG IPC :2.06049: L2-Pf-HR :0.94166: L2-HR :0.94769: (Sim:0h36m12s) 
CPU  0 inst:  179000004 cyc:   86875208 now IPC :2.09133: AVG IPC :2.06067: L2-Pf-HR :0.94159: L2-HR :0.94764: (Sim:0h36m30s) 
CPU  0 inst:  180000002 cyc:   87349503 now IPC :2.10839: AVG IPC :2.06093: L2-Pf-HR :0.94158: L2-HR :0.94763: (Sim:0h36m48s) 
CPU  0 inst:  181000000 cyc:   87821150 now IPC :2.12023: AVG IPC :2.06125: L2-Pf-HR :0.94157: L2-HR :0.94763: (Sim:0h37m5s) 
CPU  0 inst:  182000001 cyc:   88290370 now IPC :2.13120: AVG IPC :2.06163: L2-Pf-HR :0.94157: L2-HR :0.94763: (Sim:0h37m23s) 
CPU  0 inst:  183000002 cyc:   88761935 now IPC :2.12060: AVG IPC :2.06194: L2-Pf-HR :0.94166: L2-HR :0.94771: (Sim:0h37m40s) 
CPU  0 inst:  184000002 cyc:   89362628 now IPC :1.66474: AVG IPC :2.05924: L2-Pf-HR :0.94166: L2-HR :0.94763: (Sim:0h37m59s) 
CPU  0 inst:  185000000 cyc:   89833021 now IPC :2.12588: AVG IPC :2.05960: L2-Pf-HR :0.94159: L2-HR :0.94759: (Sim:0h38m16s) 
CPU  0 inst:  186000005 cyc:   90292683 now IPC :2.17552: AVG IPC :2.06019: L2-Pf-HR :0.94159: L2-HR :0.94762: (Sim:0h38m34s) 
CPU  0 inst:  187000004 cyc:   90747805 now IPC :2.19721: AVG IPC :2.06089: L2-Pf-HR :0.94159: L2-HR :0.94764: (Sim:0h38m51s) 
CPU  0 inst:  188000005 cyc:   91205154 now IPC :2.18652: AVG IPC :2.06152: L2-Pf-HR :0.94161: L2-HR :0.94768: (Sim:0h39m9s) 
CPU  0 inst:  189000004 cyc:   91663341 now IPC :2.18251: AVG IPC :2.06214: L2-Pf-HR :0.94171: L2-HR :0.94778: (Sim:0h39m26s) 
CPU  0 inst:  190000001 cyc:   92203713 now IPC :1.85057: AVG IPC :2.06088: L2-Pf-HR :0.94176: L2-HR :0.94778: (Sim:0h39m44s) 
CPU  0 inst:  191000005 cyc:   92664164 now IPC :2.17179: AVG IPC :2.06144: L2-Pf-HR :0.94173: L2-HR :0.94778: (Sim:0h40m1s) 
CPU  0 inst:  192000000 cyc:   93120829 now IPC :2.18978: AVG IPC :2.06208: L2-Pf-HR :0.94173: L2-HR :0.94780: (Sim:0h40m19s) 
CPU  0 inst:  193000001 cyc:   93576187 now IPC :2.19608: AVG IPC :2.06273: L2-Pf-HR :0.94175: L2-HR :0.94784: (Sim:0h40m36s) 
CPU  0 inst:  194000002 cyc:   94174174 now IPC :1.67228: AVG IPC :2.06023: L2-Pf-HR :0.94172: L2-HR :0.94774: (Sim:0h40m54s) 
CPU  0 inst:  195000004 cyc:   94660139 now IPC :2.05777: AVG IPC :2.06022: L2-Pf-HR :0.94163: L2-HR :0.94767: (Sim:0h41m12s) 
CPU  0 inst:  196000005 cyc:   95135364 now IPC :2.10427: AVG IPC :2.06044: L2-Pf-HR :0.94162: L2-HR :0.94767: (Sim:0h41m30s) 
CPU  0 inst:  197000003 cyc:   95612121 now IPC :2.09750: AVG IPC :2.06063: L2-Pf-HR :0.94162: L2-HR :0.94767: (Sim:0h41m48s) 
CPU  0 inst:  198000001 cyc:   96087400 now IPC :2.10402: AVG IPC :2.06084: L2-Pf-HR :0.94161: L2-HR :0.94766: (Sim:0h42m5s) 
CPU  0 inst:  199000002 cyc:   96562211 now IPC :2.10610: AVG IPC :2.06107: L2-Pf-HR :0.94167: L2-HR :0.94771: (Sim:0h42m17s) 
CPU  0 inst:  200000005 cyc:   97147267 now IPC :1.70924: AVG IPC :2.05893: L2-Pf-HR :0.94174: L2-HR :0.94770: (Sim:0h42m26s) 
CPU  0 inst:  201000005 cyc:   97627137 now IPC :2.08390: AVG IPC :2.05905: L2-Pf-HR :0.94164: L2-HR :0.94763: (Sim:0h42m34s) 
CPU  0 inst:  202000004 cyc:   98088091 now IPC :2.16941: AVG IPC :2.05957: L2-Pf-HR :0.94164: L2-HR :0.94765: (Sim:0h42m42s) 
CPU  0 inst:  203000004 cyc:   98545793 now IPC :2.18483: AVG IPC :2.06016: L2-Pf-HR :0.94164: L2-HR :0.94767: (Sim:0h42m50s) 
CPU  0 inst:  204000002 cyc:   98998748 now IPC :2.20772: AVG IPC :2.06084: L2-Pf-HR :0.94166: L2-HR :0.94771: (Sim:0h42m58s) 
CPU  0 inst:  205000002 cyc:   99457872 now IPC :2.17806: AVG IPC :2.06139: L2-Pf-HR :0.94172: L2-HR :0.94778: (Sim:0h43m6s) 
CPU  0 inst:  206000004 cyc:  100000596 now IPC :1.84256: AVG IPC :2.06019: L2-Pf-HR :0.94183: L2-HR :0.94783: (Sim:0h43m14s) 
CPU  0 inst:  207000005 cyc:  100466827 now IPC :2.14486: AVG IPC :2.06059: L2-Pf-HR :0.94176: L2-HR :0.94779: (Sim:0h43m22s) 
CPU  0 inst:  208000003 cyc:  100920790 now IPC :2.20282: AVG IPC :2.06123: L2-Pf-HR :0.94176: L2-HR :0.94782: (Sim:0h43m30s) 
CPU  0 inst:  209000001 cyc:  101377394 now IPC :2.19008: AVG IPC :2.06182: L2-Pf-HR :0.94177: L2-HR :0.94784: (Sim:0h43m38s) 
CPU  0 inst:  210000004 cyc:  101946032 now IPC :1.75859: AVG IPC :2.06011: L2-Pf-HR :0.94181: L2-HR :0.94782: (Sim:0h43m46s) 
CPU  0 inst:  211000001 cyc:  102458289 now IPC :1.95214: AVG IPC :2.05957: L2-Pf-HR :0.94168: L2-HR :0.94770: (Sim:0h43m54s) 
CPU  0 inst:  212000002 cyc:  102934468 now IPC :2.10005: AVG IPC :2.05976: L2-Pf-HR :0.94166: L2-HR :0.94769: (Sim:0h44m2s) 
CPU  0 inst:  213000001 cyc:  103409356 now IPC :2.10576: AVG IPC :2.05997: L2-Pf-HR :0.94166: L2-HR :0.94769: (Sim:0h44m10s) 
CPU  0 inst:  214000001 cyc:  103882361 now IPC :2.11414: AVG IPC :2.06022: L2-Pf-HR :0.94166: L2-HR :0.94769: (Sim:0h44m18s) 
CPU  0 inst:  215000002 cyc:  104356665 now IPC :2.10835: AVG IPC :2.06044: L2-Pf-HR :0.94169: L2-HR :0.94773: (Sim:0h44m26s) 
CPU  0 inst:  216000001 cyc:  104872351 now IPC :1.93916: AVG IPC :2.05984: L2-Pf-HR :0.94187: L2-HR :0.94784: (Sim:0h44m35s) 
CPU  0 inst:  217000000 cyc:  105428314 now IPC :1.79868: AVG IPC :2.05845: L2-Pf-HR :0.94168: L2-HR :0.94766: (Sim:0h44m43s) 
CPU  0 inst:  218000000 cyc:  105887524 now IPC :2.17765: AVG IPC :2.05897: L2-Pf-HR :0.94168: L2-HR :0.94768: (Sim:0h44m51s) 
CPU  0 inst:  219000004 cyc:  106347083 now IPC :2.17601: AVG IPC :2.05948: L2-Pf-HR :0.94169: L2-HR :0.94770: (Sim:0h44m59s) 
CPU  0 inst:  220000001 cyc:  106803651 now IPC :2.19025: AVG IPC :2.06004: L2-Pf-HR :0.94169: L2-HR :0.94773: (Sim:0h45m7s) 
CPU  0 inst:  221000000 cyc:  107260770 now IPC :2.18761: AVG IPC :2.06059: L2-Pf-HR :0.94174: L2-HR :0.94778: (Sim:0h45m15s) 
CPU  0 inst:  222000003 cyc:  107748067 now IPC :2.05214: AVG IPC :2.06055: L2-Pf-HR :0.94194: L2-HR :0.94794: (Sim:0h45m23s) 
CPU  0 inst:  223000002 cyc:  108270378 now IPC :1.91457: AVG IPC :2.05984: L2-Pf-HR :0.94179: L2-HR :0.94781: (Sim:0h45m31s) 
CPU  0 inst:  224000004 cyc:  108727022 now IPC :2.18989: AVG IPC :2.06039: L2-Pf-HR :0.94179: L2-HR :0.94783: (Sim:0h45m39s) 
CPU  0 inst:  225000005 cyc:  109183930 now IPC :2.18863: AVG IPC :2.06094: L2-Pf-HR :0.94179: L2-HR :0.94785: (Sim:0h45m47s) 
CPU  0 inst:  226000000 cyc:  109654899 now IPC :2.12327: AVG IPC :2.06121: L2-Pf-HR :0.94192: L2-HR :0.94796: (Sim:0h45m55s) 
CPU  0 inst:  227000000 cyc:  110255092 now IPC :1.66613: AVG IPC :2.05904: L2-Pf-HR :0.94171: L2-HR :0.94773: (Sim:0h46m3s) 
CPU  0 inst:  228000002 cyc:  110726479 now IPC :2.12140: AVG IPC :2.05930: L2-Pf-HR :0.94169: L2-HR :0.94772: (Sim:0h46m11s) 
CPU  0 inst:  229000003 cyc:  111199481 now IPC :2.11416: AVG IPC :2.05954: L2-Pf-HR :0.94169: L2-HR :0.94771: (Sim:0h46m19s) 
CPU  0 inst:  230000004 cyc:  111672632 now IPC :2.11349: AVG IPC :2.05977: L2-Pf-HR :0.94169: L2-HR :0.94772: (Sim:0h46m27s) 
CPU  0 inst:  231000002 cyc:  112149384 now IPC :2.09752: AVG IPC :2.05993: L2-Pf-HR :0.94171: L2-HR :0.94774: (Sim:0h46m43s) 
CPU  0 inst:  232000003 cyc:  112621030 now IPC :2.12024: AVG IPC :2.06019: L2-Pf-HR :0.94188: L2-HR :0.94788: (Sim:0h46m59s) 
CPU  0 inst:  233000005 cyc:  113223515 now IPC :1.65980: AVG IPC :2.05804: L2-Pf-HR :0.94172: L2-HR :0.94769: (Sim:0h47m17s) 
CPU  0 inst:  234000004 cyc:  113682777 now IPC :2.17740: AVG IPC :2.05852: L2-Pf-HR :0.94170: L2-HR :0.94769: (Sim:0h47m33s) 
CPU  0 inst:  235000003 cyc:  114141575 now IPC :2.17961: AVG IPC :2.05902: L2-Pf-HR :0.94171: L2-HR :0.94772: (Sim:0h47m50s) 
CPU  0 inst:  236000001 cyc:  114599689 now IPC :2.18286: AVG IPC :2.05951: L2-Pf-HR :0.94172: L2-HR :0.94775: (Sim:0h48m7s) 
CPU  0 inst:  237000000 cyc:  115055121 now IPC :2.19572: AVG IPC :2.06006: L2-Pf-HR :0.94175: L2-HR :0.94779: (Sim:0h48m24s) 
CPU  0 inst:  238000004 cyc:  115510562 now IPC :2.19568: AVG IPC :2.06060: L2-Pf-HR :0.94193: L2-HR :0.94795: (Sim:0h48m40s) 
CPU  0 inst:  239000001 cyc:  116065091 now IPC :1.80333: AVG IPC :2.05936: L2-Pf-HR :0.94181: L2-HR :0.94783: (Sim:0h48m57s) 
CPU  0 inst:  240000004 cyc:  116519842 now IPC :2.19901: AVG IPC :2.05991: L2-Pf-HR :0.94181: L2-HR :0.94784: (Sim:0h49m14s) 
CPU  0 inst:  241000003 cyc:  116975084 now IPC :2.19663: AVG IPC :2.06044: L2-Pf-HR :0.94182: L2-HR :0.94787: (Sim:0h49m31s) 
CPU  0 inst:  242000003 cyc:  117430463 now IPC :2.19597: AVG IPC :2.06097: L2-Pf-HR :0.94193: L2-HR :0.94798: (Sim:0h49m47s) 
CPU  0 inst:  243000002 cyc:  118052526 now IPC :1.60755: AVG IPC :2.05856: L2-Pf-HR :0.94175: L2-HR :0.94776: (Sim:0h50m5s) 
CPU  0 inst:  244000005 cyc:  118526130 now IPC :2.11147: AVG IPC :2.05878: L2-Pf-HR :0.94173: L2-HR :0.94775: (Sim:0h50m21s) 
CPU  0 inst:  245000000 cyc:  118995875 now IPC :2.12880: AVG IPC :2.05906: L2-Pf-HR :0.94172: L2-HR :0.94775: (Sim:0h50m38s) 
CPU  0 inst:  246000000 cyc:  119468975 now IPC :2.11372: AVG IPC :2.05927: L2-Pf-HR :0.94172: L2-HR :0.94775: (Sim:0h50m55s) 
CPU  0 inst:  247000001 cyc:  119944641 now IPC :2.10232: AVG IPC :2.05945: L2-Pf-HR :0.94174: L2-HR :0.94776: (Sim:0h51m12s) 
CPU  0 inst:  248000002 cyc:  120417614 now IPC :2.11429: AVG IPC :2.05966: L2-Pf-HR :0.94187: L2-HR :0.94787: (Sim:0h51m28s) 
CPU  0 inst:  249000004 cyc:  121022238 now IPC :1.65392: AVG IPC :2.05762: L2-Pf-HR :0.94175: L2-HR :0.94772: (Sim:0h51m36s) 
CPU  0 inst:  250000001 cyc:  121480165 now IPC :2.18375: AVG IPC :2.05810: L2-Pf-HR :0.94173: L2-HR :0.94772: (Sim:0h51m44s) 
CPU  0 inst:  251000002 cyc:  121935489 now IPC :2.19624: AVG IPC :2.05862: L2-Pf-HR :0.94174: L2-HR :0.94774: (Sim:0h51m52s) 
CPU  0 inst:  252000001 cyc:  122395020 now IPC :2.17613: AVG IPC :2.05906: L2-Pf-HR :0.94174: L2-HR :0.94777: (Sim:0h52m0s) 
CPU  0 inst:  253000002 cyc:  122851455 now IPC :2.19089: AVG IPC :2.05956: L2-Pf-HR :0.94177: L2-HR :0.94780: (Sim:0h52m8s) 
CPU  0 inst:  254000005 cyc:  123306790 now IPC :2.19619: AVG IPC :2.06007: L2-Pf-HR :0.94191: L2-HR :0.94793: (Sim:0h52m16s) 
CPU  0 inst:  255000004 cyc:  123856890 now IPC :1.81785: AVG IPC :2.05898: L2-Pf-HR :0.94183: L2-HR :0.94784: (Sim:0h52m25s) 
CPU  0 inst:  256000001 cyc:  124312006 now IPC :2.19724: AVG IPC :2.05949: L2-Pf-HR :0.94183: L2-HR :0.94786: (Sim:0h52m33s) 
CPU  0 inst:  257000001 cyc:  124769940 now IPC :2.18372: AVG IPC :2.05995: L2-Pf-HR :0.94184: L2-HR :0.94788: (Sim:0h52m41s) 
CPU  0 inst:  258000000 cyc:  125224748 now IPC :2.19873: AVG IPC :2.06046: L2-Pf-HR :0.94192: L2-HR :0.94796: (Sim:0h52m48s) 
CPU  0 inst:  259000000 cyc:  128919272 now IPC :0.27067: AVG IPC :2.00878: L2-Pf-HR :0.94056: L2-HR :0.94487: (Sim:0h53m29s) 
CPU  0 inst:  260000002 cyc:  133743625 now IPC :0.20728: AVG IPC :1.94331: L2-Pf-HR :0.93867: L2-HR :0.94059: (Sim:0h54m21s) 
CPU  0 inst:  261000001 cyc:  138775647 now IPC :0.19873: AVG IPC :1.87960: L2-Pf-HR :0.93660: L2-HR :0.93641: (Sim:0h55m11s) 
CPU  0 inst:  262000000 cyc:  143782514 now IPC :0.19973: AVG IPC :1.82070: L2-Pf-HR :0.93450: L2-HR :0.93233: (Sim:0h56m3s) 
CPU  0 inst:  263000005 cyc:  148786357 now IPC :0.19985: AVG IPC :1.76583: L2-Pf-HR :0.93240: L2-HR :0.92834: (Sim:0h56m53s) 
CPU  0 inst:  264000004 cyc:  153788327 now IPC :0.19992: AVG IPC :1.71457: L2-Pf-HR :0.93032: L2-HR :0.92442: (Sim:0h57m44s) 
CPU  0 inst:  265000000 cyc:  158794646 now IPC :0.19975: AVG IPC :1.66652: L2-Pf-HR :0.92825: L2-HR :0.92058: (Sim:0h58m35s) 
CPU  0 inst:  266000005 cyc:  163802422 now IPC :0.19969: AVG IPC :1.62141: L2-Pf-HR :0.92620: L2-HR :0.91682: (Sim:0h59m2s) 
CPU  0 inst:  267000003 cyc:  168812098 now IPC :0.19961: AVG IPC :1.57897: L2-Pf-HR :0.92416: L2-HR :0.91313: (Sim:0h59m27s) 
CPU  0 inst:  268000000 cyc:  173350677 now IPC :0.22033: AVG IPC :1.54319: L2-Pf-HR :0.92250: L2-HR :0.91024: (Sim:0h59m49s) 
CPU  0 inst:  269000000 cyc:  176595760 now IPC :0.30816: AVG IPC :1.52037: L2-Pf-HR :0.92218: L2-HR :0.90976: (Sim:1h0m4s) 
CPU  0 inst:  270000000 cyc:  179840891 now IPC :0.30815: AVG IPC :1.49838: L2-Pf-HR :0.92186: L2-HR :0.90927: (Sim:1h0m20s) 
CPU  0 inst:  271000000 cyc:  183084064 now IPC :0.30834: AVG IPC :1.47718: L2-Pf-HR :0.92155: L2-HR :0.90879: (Sim:1h0m36s) 
CPU  0 inst:  272000004 cyc:  186330868 now IPC :0.30800: AVG IPC :1.45670: L2-Pf-HR :0.92123: L2-HR :0.90832: (Sim:1h0m53s) 
CPU  0 inst:  273000000 cyc:  189588590 now IPC :0.30696: AVG IPC :1.43684: L2-Pf-HR :0.92092: L2-HR :0.90784: (Sim:1h1m9s) 
CPU  0 inst:  274000002 cyc:  192847562 now IPC :0.30685: AVG IPC :1.41765: L2-Pf-HR :0.92061: L2-HR :0.90737: (Sim:1h1m25s) 
CPU  0 inst:  275000001 cyc:  196107569 now IPC :0.30675: AVG IPC :1.39909: L2-Pf-HR :0.92030: L2-HR :0.90689: (Sim:1h1m41s) 
CPU  0 inst:  276000004 cyc:  199360962 now IPC :0.30737: AVG IPC :1.38119: L2-Pf-HR :0.91999: L2-HR :0.90642: (Sim:1h2m4s) 
CPU  0 inst:  277000000 cyc:  202612926 now IPC :0.30751: AVG IPC :1.36387: L2-Pf-HR :0.91969: L2-HR :0.90596: (Sim:1h2m36s) 
CPU  0 inst:  278000000 cyc:  205861761 now IPC :0.30780: AVG IPC :1.34712: L2-Pf-HR :0.91938: L2-HR :0.90550: (Sim:1h2m57s) 
CPU  0 inst:  279000000 cyc:  209109190 now IPC :0.30794: AVG IPC :1.33091: L2-Pf-HR :0.91908: L2-HR :0.90504: (Sim:1h3m12s) 
CPU  0 inst:  280000000 cyc:  212356254 now IPC :0.30797: AVG IPC :1.31519: L2-Pf-HR :0.91878: L2-HR :0.90458: (Sim:1h3m32s) 
CPU  0 inst:  281000002 cyc:  215605775 now IPC :0.30774: AVG IPC :1.29994: L2-Pf-HR :0.91848: L2-HR :0.90412: (Sim:1h4m6s) 
CPU  0 inst:  282000005 cyc:  218856522 now IPC :0.30762: AVG IPC :1.28514: L2-Pf-HR :0.91819: L2-HR :0.90366: (Sim:1h4m40s) 
CPU  0 inst:  283000000 cyc:  222105664 now IPC :0.30777: AVG IPC :1.27077: L2-Pf-HR :0.91789: L2-HR :0.90321: (Sim:1h5m14s) 
CPU  0 inst:  284000000 cyc:  225352229 now IPC :0.30802: AVG IPC :1.25684: L2-Pf-HR :0.91759: L2-HR :0.90276: (Sim:1h5m48s) 
CPU  0 inst:  285000000 cyc:  228601115 now IPC :0.30780: AVG IPC :1.24330: L2-Pf-HR :0.91730: L2-HR :0.90231: (Sim:1h6m22s) 
CPU  0 inst:  286000000 cyc:  231851884 now IPC :0.30762: AVG IPC :1.23012: L2-Pf-HR :0.91700: L2-HR :0.90186: (Sim:1h6m56s) 
CPU  0 inst:  287000000 cyc:  235102610 now IPC :0.30762: AVG IPC :1.21731: L2-Pf-HR :0.91671: L2-HR :0.90141: (Sim:1h7m29s) 
CPU  0 inst:  288000000 cyc:  238352251 now IPC :0.30773: AVG IPC :1.20486: L2-Pf-HR :0.91642: L2-HR :0.90097: (Sim:1h8m3s) 
CPU  0 inst:  289000001 cyc:  241602729 now IPC :0.30765: AVG IPC :1.19274: L2-Pf-HR :0.91613: L2-HR :0.90053: (Sim:1h8m38s) 
CPU  0 inst:  290000001 cyc:  244855435 now IPC :0.30744: AVG IPC :1.18093: L2-Pf-HR :0.91584: L2-HR :0.90008: (Sim:1h9m12s) 
CPU  0 inst:  291000000 cyc:  248101411 now IPC :0.30807: AVG IPC :1.16947: L2-Pf-HR :0.91555: L2-HR :0.89964: (Sim:1h9m45s) 
CPU  0 inst:  292000000 cyc:  251350788 now IPC :0.30775: AVG IPC :1.15829: L2-Pf-HR :0.91526: L2-HR :0.89921: (Sim:1h10m19s) 
CPU  0 inst:  293000004 cyc:  254602767 now IPC :0.30751: AVG IPC :1.14738: L2-Pf-HR :0.91497: L2-HR :0.89877: (Sim:1h10m54s) 
CPU  0 inst:  294000000 cyc:  257852888 now IPC :0.30768: AVG IPC :1.13675: L2-Pf-HR :0.91468: L2-HR :0.89833: (Sim:1h11m27s) 
CPU  0 inst:  295000000 cyc:  261102436 now IPC :0.30774: AVG IPC :1.12640: L2-Pf-HR :0.91440: L2-HR :0.89790: (Sim:1h12m1s) 
CPU  0 inst:  296000001 cyc:  264351649 now IPC :0.30777: AVG IPC :1.11630: L2-Pf-HR :0.91412: L2-HR :0.89747: (Sim:1h12m35s) 
CPU  0 inst:  297000001 cyc:  267602212 now IPC :0.30764: AVG IPC :1.10644: L2-Pf-HR :0.91383: L2-HR :0.89704: (Sim:1h13m9s) 
CPU  0 inst:  298000000 cyc:  270852895 now IPC :0.30763: AVG IPC :1.09682: L2-Pf-HR :0.91355: L2-HR :0.89661: (Sim:1h13m42s) 
CPU  0 inst:  299000000 cyc:  274103661 now IPC :0.30762: AVG IPC :1.08742: L2-Pf-HR :0.91327: L2-HR :0.89618: (Sim:1h14m17s) 
CPU  0 inst:  300000000 cyc:  277349740 now IPC :0.30806: AVG IPC :1.07827: L2-Pf-HR :0.91299: L2-HR :0.89576: (Sim:1h14m51s) 
CPU  0 inst:  301000000 cyc:  280599529 now IPC :0.30771: AVG IPC :1.06931: L2-Pf-HR :0.91271: L2-HR :0.89534: (Sim:1h15m24s) 
CPU  0 inst:  302000000 cyc:  283845950 now IPC :0.30803: AVG IPC :1.06058: L2-Pf-HR :0.91243: L2-HR :0.89492: (Sim:1h15m58s) 
CPU  0 inst:  303000000 cyc:  287097220 now IPC :0.30757: AVG IPC :1.05202: L2-Pf-HR :0.91216: L2-HR :0.89450: (Sim:1h16m32s) 
CPU  0 inst:  304000001 cyc:  290346180 now IPC :0.30779: AVG IPC :1.04366: L2-Pf-HR :0.91188: L2-HR :0.89408: (Sim:1h17m6s) 
CPU  0 inst:  305000005 cyc:  293596650 now IPC :0.30765: AVG IPC :1.03549: L2-Pf-HR :0.91161: L2-HR :0.89366: (Sim:1h17m39s) 
CPU  0 inst:  306000000 cyc:  296847132 now IPC :0.30765: AVG IPC :1.02749: L2-Pf-HR :0.91133: L2-HR :0.89325: (Sim:1h18m13s) 
CPU  0 inst:  307000000 cyc:  300094778 now IPC :0.30792: AVG IPC :1.01968: L2-Pf-HR :0.91106: L2-HR :0.89283: (Sim:1h18m48s) 
CPU  0 inst:  308000000 cyc:  303344170 now IPC :0.30775: AVG IPC :1.01203: L2-Pf-HR :0.91079: L2-HR :0.89242: (Sim:1h19m22s) 
CPU  0 inst:  309000000 cyc:  306591622 now IPC :0.30793: AVG IPC :1.00455: L2-Pf-HR :0.91051: L2-HR :0.89201: (Sim:1h19m55s) 
CPU  0 inst:  310000004 cyc:  309841193 now IPC :0.30773: AVG IPC :0.99721: L2-Pf-HR :0.91024: L2-HR :0.89160: (Sim:1h20m29s) 
CPU  0 inst:  311000000 cyc:  313087406 now IPC :0.30805: AVG IPC :0.99005: L2-Pf-HR :0.90998: L2-HR :0.89120: (Sim:1h21m3s) 
CPU  0 inst:  312000001 cyc:  316339758 now IPC :0.30747: AVG IPC :0.98301: L2-Pf-HR :0.90971: L2-HR :0.89079: (Sim:1h21m37s) 
CPU  0 inst:  313000000 cyc:  319590969 now IPC :0.30758: AVG IPC :0.97611: L2-Pf-HR :0.90944: L2-HR :0.89039: (Sim:1h22m10s) 
CPU  0 inst:  314000004 cyc:  322839156 now IPC :0.30787: AVG IPC :0.96937: L2-Pf-HR :0.90917: L2-HR :0.88998: (Sim:1h22m44s) 
CPU  0 inst:  315000000 cyc:  326087750 now IPC :0.30782: AVG IPC :0.96276: L2-Pf-HR :0.90891: L2-HR :0.88958: (Sim:1h23m18s) 
CPU  0 inst:  316000000 cyc:  329336620 now IPC :0.30780: AVG IPC :0.95628: L2-Pf-HR :0.90864: L2-HR :0.88918: (Sim:1h23m52s) 
CPU  0 inst:  317000000 cyc:  332584983 now IPC :0.30785: AVG IPC :0.94993: L2-Pf-HR :0.90838: L2-HR :0.88878: (Sim:1h24m26s) 
CPU  0 inst:  318000005 cyc:  335832087 now IPC :0.30797: AVG IPC :0.94370: L2-Pf-HR :0.90812: L2-HR :0.88839: (Sim:1h25m0s) 
CPU  0 inst:  319000001 cyc:  339080830 now IPC :0.30781: AVG IPC :0.93759: L2-Pf-HR :0.90786: L2-HR :0.88799: (Sim:1h25m33s) 
CPU  0 inst:  320000000 cyc:  342332865 now IPC :0.30750: AVG IPC :0.93159: L2-Pf-HR :0.90759: L2-HR :0.88760: (Sim:1h26m6s) 
CPU  0 inst:  321000000 cyc:  345579360 now IPC :0.30802: AVG IPC :0.92571: L2-Pf-HR :0.90733: L2-HR :0.88721: (Sim:1h26m40s) 
CPU  0 inst:  322000000 cyc:  348829174 now IPC :0.30771: AVG IPC :0.91994: L2-Pf-HR :0.90707: L2-HR :0.88682: (Sim:1h27m14s) 
CPU  0 inst:  323000000 cyc:  352077017 now IPC :0.30790: AVG IPC :0.91428: L2-Pf-HR :0.90681: L2-HR :0.88643: (Sim:1h27m50s) 
CPU  0 inst:  324000000 cyc:  355326780 now IPC :0.30771: AVG IPC :0.90872: L2-Pf-HR :0.90656: L2-HR :0.88604: (Sim:1h28m26s) 
CPU  0 inst:  325000000 cyc:  358574249 now IPC :0.30793: AVG IPC :0.90326: L2-Pf-HR :0.90630: L2-HR :0.88565: (Sim:1h29m3s) 
CPU  0 inst:  326000002 cyc:  361823618 now IPC :0.30775: AVG IPC :0.89790: L2-Pf-HR :0.90604: L2-HR :0.88527: (Sim:1h29m39s) 
CPU  0 inst:  327000001 cyc:  365075279 now IPC :0.30753: AVG IPC :0.89263: L2-Pf-HR :0.90579: L2-HR :0.88488: (Sim:1h30m15s) 
CPU  0 inst:  328000000 cyc:  368321705 now IPC :0.30803: AVG IPC :0.88746: L2-Pf-HR :0.90554: L2-HR :0.88450: (Sim:1h30m51s) 
CPU  0 inst:  329000000 cyc:  371571349 now IPC :0.30773: AVG IPC :0.88238: L2-Pf-HR :0.90528: L2-HR :0.88412: (Sim:1h31m27s) 
CPU  0 inst:  330000000 cyc:  374820537 now IPC :0.30777: AVG IPC :0.87738: L2-Pf-HR :0.90503: L2-HR :0.88374: (Sim:1h32m4s) 
CPU  0 inst:  331000004 cyc:  378071012 now IPC :0.30765: AVG IPC :0.87247: L2-Pf-HR :0.90478: L2-HR :0.88336: (Sim:1h32m40s) 
CPU  0 inst:  332000000 cyc:  381319410 now IPC :0.30784: AVG IPC :0.86765: L2-Pf-HR :0.90452: L2-HR :0.88298: (Sim:1h33m16s) 
CPU  0 inst:  333000002 cyc:  384567793 now IPC :0.30785: AVG IPC :0.86291: L2-Pf-HR :0.90427: L2-HR :0.88261: (Sim:1h33m52s) 
CPU  0 inst:  334000000 cyc:  387817906 now IPC :0.30768: AVG IPC :0.85824: L2-Pf-HR :0.90403: L2-HR :0.88223: (Sim:1h34m28s) 
CPU  0 inst:  335000004 cyc:  391067574 now IPC :0.30772: AVG IPC :0.85366: L2-Pf-HR :0.90378: L2-HR :0.88186: (Sim:1h35m4s) 
CPU  0 inst:  336000000 cyc:  394318972 now IPC :0.30756: AVG IPC :0.84914: L2-Pf-HR :0.90353: L2-HR :0.88149: (Sim:1h35m41s) 
CPU  0 inst:  337000000 cyc:  397567610 now IPC :0.30782: AVG IPC :0.84471: L2-Pf-HR :0.90328: L2-HR :0.88112: (Sim:1h36m17s) 
CPU  0 inst:  338000000 cyc:  400818160 now IPC :0.30764: AVG IPC :0.84034: L2-Pf-HR :0.90303: L2-HR :0.88075: (Sim:1h36m53s) 
CPU  0 inst:  339000000 cyc:  404067950 now IPC :0.30771: AVG IPC :0.83605: L2-Pf-HR :0.90279: L2-HR :0.88038: (Sim:1h37m29s) 
CPU  0 inst:  340000000 cyc:  407317182 now IPC :0.30777: AVG IPC :0.83182: L2-Pf-HR :0.90254: L2-HR :0.88001: (Sim:1h38m5s) 
CPU  0 inst:  341000001 cyc:  410565378 now IPC :0.30786: AVG IPC :0.82767: L2-Pf-HR :0.90230: L2-HR :0.87965: (Sim:1h38m41s) 
CPU  0 inst:  342000001 cyc:  413819346 now IPC :0.30732: AVG IPC :0.82357: L2-Pf-HR :0.90206: L2-HR :0.87928: (Sim:1h39m17s) 
CPU  0 inst:  343000000 cyc:  417066260 now IPC :0.30798: AVG IPC :0.81954: L2-Pf-HR :0.90181: L2-HR :0.87892: (Sim:1h39m54s) 
CPU  0 inst:  344000000 cyc:  420314131 now IPC :0.30789: AVG IPC :0.81558: L2-Pf-HR :0.90157: L2-HR :0.87856: (Sim:1h40m30s) 
CPU  0 inst:  345000000 cyc:  423562198 now IPC :0.30788: AVG IPC :0.81168: L2-Pf-HR :0.90133: L2-HR :0.87820: (Sim:1h41m6s) 
CPU  0 inst:  346000000 cyc:  426811392 now IPC :0.30777: AVG IPC :0.80783: L2-Pf-HR :0.90109: L2-HR :0.87784: (Sim:1h41m42s) 
CPU  0 inst:  347000000 cyc:  430061385 now IPC :0.30769: AVG IPC :0.80404: L2-Pf-HR :0.90085: L2-HR :0.87748: (Sim:1h42m19s) 
CPU  0 inst:  348000001 cyc:  433312229 now IPC :0.30761: AVG IPC :0.80031: L2-Pf-HR :0.90061: L2-HR :0.87713: (Sim:1h42m55s) 
CPU  0 inst:  349000001 cyc:  436563189 now IPC :0.30760: AVG IPC :0.79663: L2-Pf-HR :0.90038: L2-HR :0.87677: (Sim:1h43m31s) 
CPU  0 inst:  350000000 cyc:  439812867 now IPC :0.30772: AVG IPC :0.79301: L2-Pf-HR :0.90014: L2-HR :0.87642: (Sim:1h44m7s) 
CPU  0 inst:  351000000 cyc:  443062715 now IPC :0.30771: AVG IPC :0.78945: L2-Pf-HR :0.89990: L2-HR :0.87607: (Sim:1h44m43s) 
CPU  0 inst:  352000004 cyc:  446310137 now IPC :0.30794: AVG IPC :0.78593: L2-Pf-HR :0.89967: L2-HR :0.87572: (Sim:1h45m19s) 
CPU  0 inst:  353000000 cyc:  449557320 now IPC :0.30796: AVG IPC :0.78247: L2-Pf-HR :0.89943: L2-HR :0.87537: (Sim:1h45m56s) 
CPU  0 inst:  354000000 cyc:  452806113 now IPC :0.30781: AVG IPC :0.77906: L2-Pf-HR :0.89920: L2-HR :0.87502: (Sim:1h46m32s) 
CPU  0 inst:  355000000 cyc:  456055027 now IPC :0.30780: AVG IPC :0.77570: L2-Pf-HR :0.89897: L2-HR :0.87467: (Sim:1h47m8s) 
CPU  0 inst:  356000000 cyc:  459306482 now IPC :0.30755: AVG IPC :0.77238: L2-Pf-HR :0.89874: L2-HR :0.87432: (Sim:1h47m44s) 
CPU  0 inst:  357000001 cyc:  462560760 now IPC :0.30729: AVG IPC :0.76910: L2-Pf-HR :0.89850: L2-HR :0.87398: (Sim:1h48m20s) 
CPU  0 inst:  358000000 cyc:  465808597 now IPC :0.30790: AVG IPC :0.76587: L2-Pf-HR :0.89827: L2-HR :0.87363: (Sim:1h48m56s) 
CPU  0 inst:  359000000 cyc:  469054263 now IPC :0.30810: AVG IPC :0.76270: L2-Pf-HR :0.89804: L2-HR :0.87329: (Sim:1h49m32s) 
CPU  0 inst:  360000000 cyc:  472298825 now IPC :0.30821: AVG IPC :0.75957: L2-Pf-HR :0.89782: L2-HR :0.87295: (Sim:1h50m8s) 
CPU  0 inst:  361000000 cyc:  475548235 now IPC :0.30775: AVG IPC :0.75648: L2-Pf-HR :0.89759: L2-HR :0.87261: (Sim:1h50m44s) 
CPU  0 inst:  362000000 cyc:  478797640 now IPC :0.30775: AVG IPC :0.75343: L2-Pf-HR :0.89736: L2-HR :0.87227: (Sim:1h51m21s) 
CPU  0 inst:  363000000 cyc:  482049228 now IPC :0.30754: AVG IPC :0.75041: L2-Pf-HR :0.89713: L2-HR :0.87193: (Sim:1h51m57s) 
CPU  0 inst:  364000001 cyc:  485298474 now IPC :0.30776: AVG IPC :0.74744: L2-Pf-HR :0.89691: L2-HR :0.87160: (Sim:1h52m33s) 
CPU  0 inst:  365000000 cyc:  488550059 now IPC :0.30754: AVG IPC :0.74451: L2-Pf-HR :0.89668: L2-HR :0.87126: (Sim:1h53m9s) 
CPU  0 inst:  366000000 cyc:  491798603 now IPC :0.30783: AVG IPC :0.74162: L2-Pf-HR :0.89645: L2-HR :0.87092: (Sim:1h53m45s) 
CPU  0 inst:  367000000 cyc:  495047817 now IPC :0.30777: AVG IPC :0.73877: L2-Pf-HR :0.89623: L2-HR :0.87059: (Sim:1h54m21s) 
CPU  0 inst:  368000000 cyc:  498298942 now IPC :0.30759: AVG IPC :0.73595: L2-Pf-HR :0.89600: L2-HR :0.87026: (Sim:1h54m57s) 
CPU  0 inst:  369000004 cyc:  501548957 now IPC :0.30769: AVG IPC :0.73317: L2-Pf-HR :0.89578: L2-HR :0.86992: (Sim:1h55m33s) 
CPU  0 inst:  370000000 cyc:  504798383 now IPC :0.30775: AVG IPC :0.73042: L2-Pf-HR :0.89556: L2-HR :0.86959: (Sim:1h56m10s) 
CPU  0 inst:  371000002 cyc:  508047858 now IPC :0.30774: AVG IPC :0.72771: L2-Pf-HR :0.89534: L2-HR :0.86927: (Sim:1h56m46s) 
CPU  0 inst:  372000001 cyc:  511300385 now IPC :0.30745: AVG IPC :0.72504: L2-Pf-HR :0.89511: L2-HR :0.86894: (Sim:1h57m22s) 
CPU  0 inst:  373000004 cyc:  514550016 now IPC :0.30773: AVG IPC :0.72240: L2-Pf-HR :0.89489: L2-HR :0.86861: (Sim:1h57m58s) 
CPU  0 inst:  374000000 cyc:  517799846 now IPC :0.30771: AVG IPC :0.71979: L2-Pf-HR :0.89467: L2-HR :0.86828: (Sim:1h58m34s) 
CPU  0 inst:  375000000 cyc:  521049614 now IPC :0.30771: AVG IPC :0.71721: L2-Pf-HR :0.89445: L2-HR :0.86796: (Sim:1h59m11s) 
CPU  0 inst:  376000000 cyc:  524298007 now IPC :0.30784: AVG IPC :0.71467: L2-Pf-HR :0.89423: L2-HR :0.86763: (Sim:1h59m47s) 
CPU  0 inst:  377000000 cyc:  527547694 now IPC :0.30772: AVG IPC :0.71216: L2-Pf-HR :0.89402: L2-HR :0.86731: (Sim:2h0m23s) 
CPU  0 inst:  378000002 cyc:  530797122 now IPC :0.30775: AVG IPC :0.70968: L2-Pf-HR :0.89380: L2-HR :0.86699: (Sim:2h0m59s) 
CPU  0 inst:  379000005 cyc:  534047017 now IPC :0.30770: AVG IPC :0.70723: L2-Pf-HR :0.89358: L2-HR :0.86667: (Sim:2h1m35s) 
CPU  0 inst:  380000000 cyc:  537297915 now IPC :0.30761: AVG IPC :0.70481: L2-Pf-HR :0.89337: L2-HR :0.86635: (Sim:2h2m11s) 
CPU  0 inst:  381000000 cyc:  540546477 now IPC :0.30783: AVG IPC :0.70242: L2-Pf-HR :0.89315: L2-HR :0.86603: (Sim:2h2m48s) 
CPU  0 inst:  382000000 cyc:  543796368 now IPC :0.30770: AVG IPC :0.70005: L2-Pf-HR :0.89294: L2-HR :0.86571: (Sim:2h3m24s) 
CPU  0 inst:  383000000 cyc:  547043252 now IPC :0.30799: AVG IPC :0.69772: L2-Pf-HR :0.89272: L2-HR :0.86540: (Sim:2h3m58s) 
CPU  0 inst:  384000000 cyc:  550289197 now IPC :0.30808: AVG IPC :0.69542: L2-Pf-HR :0.89251: L2-HR :0.86508: (Sim:2h4m33s) 
CPU  0 inst:  385000000 cyc:  553538651 now IPC :0.30774: AVG IPC :0.69314: L2-Pf-HR :0.89230: L2-HR :0.86477: (Sim:2h5m7s) 
CPU  0 inst:  386000001 cyc:  556789135 now IPC :0.30765: AVG IPC :0.69089: L2-Pf-HR :0.89209: L2-HR :0.86446: (Sim:2h5m40s) 
CPU  0 inst:  387000001 cyc:  560041395 now IPC :0.30748: AVG IPC :0.68866: L2-Pf-HR :0.89188: L2-HR :0.86414: (Sim:2h6m14s) 
CPU  0 inst:  388000000 cyc:  563290832 now IPC :0.30775: AVG IPC :0.68645: L2-Pf-HR :0.89167: L2-HR :0.86383: (Sim:2h6m48s) 
CPU  0 inst:  389000000 cyc:  566539550 now IPC :0.30781: AVG IPC :0.68428: L2-Pf-HR :0.89146: L2-HR :0.86352: (Sim:2h7m22s) 
CPU  0 inst:  390000004 cyc:  569786146 now IPC :0.30802: AVG IPC :0.68213: L2-Pf-HR :0.89125: L2-HR :0.86321: (Sim:2h7m55s) 
CPU  0 inst:  391000000 cyc:  573032305 now IPC :0.30806: AVG IPC :0.68001: L2-Pf-HR :0.89104: L2-HR :0.86291: (Sim:2h8m29s) 
CPU  0 inst:  392000000 cyc:  576280611 now IPC :0.30785: AVG IPC :0.67791: L2-Pf-HR :0.89083: L2-HR :0.86260: (Sim:2h9m4s) 
CPU  0 inst:  393000001 cyc:  579530805 now IPC :0.30767: AVG IPC :0.67583: L2-Pf-HR :0.89062: L2-HR :0.86229: (Sim:2h9m38s) 
CPU  0 inst:  394000001 cyc:  582785822 now IPC :0.30722: AVG IPC :0.67377: L2-Pf-HR :0.89042: L2-HR :0.86199: (Sim:2h10m12s) 
CPU  0 inst:  395000000 cyc:  586032528 now IPC :0.30800: AVG IPC :0.67174: L2-Pf-HR :0.89010: L2-HR :0.86158: (Sim:2h10m45s) 
CPU  0 inst:  396000003 cyc:  586659342 now IPC :1.59537: AVG IPC :0.67272: L2-Pf-HR :0.88996: L2-HR :0.86152: (Sim:2h11m7s) 
CPU  0 inst:  397000005 cyc:  587273503 now IPC :1.62824: AVG IPC :0.67372: L2-Pf-HR :0.88986: L2-HR :0.86149: (Sim:2h11m29s) 
CPU  0 inst:  398000002 cyc:  587882088 now IPC :1.64315: AVG IPC :0.67473: L2-Pf-HR :0.88976: L2-HR :0.86146: (Sim:2h11m50s) 
CPU  0 inst:  399000005 cyc:  588517063 now IPC :1.57487: AVG IPC :0.67570: L2-Pf-HR :0.88963: L2-HR :0.86140: (Sim:2h12m12s) 
CPU  0 inst:  400000004 cyc:  589045417 now IPC :1.89267: AVG IPC :0.67680: L2-Pf-HR :0.88965: L2-HR :0.86146: (Sim:2h12m33s) 
CPU  0 inst:  401000004 cyc:  589549542 now IPC :1.98364: AVG IPC :0.67792: L2-Pf-HR :0.88969: L2-HR :0.86154: (Sim:2h12m54s) 
CPU  0 inst:  402000005 cyc:  590053375 now IPC :1.98479: AVG IPC :0.67903: L2-Pf-HR :0.88973: L2-HR :0.86162: (Sim:2h13m14s) 
CPU  0 inst:  403000001 cyc:  590557210 now IPC :1.98477: AVG IPC :0.68015: L2-Pf-HR :0.88973: L2-HR :0.86167: (Sim:2h13m35s) 
CPU  0 inst:  404000000 cyc:  591087364 now IPC :1.88624: AVG IPC :0.68123: L2-Pf-HR :0.88976: L2-HR :0.86174: (Sim:2h13m57s) 
CPU  0 inst:  405000005 cyc:  591589774 now IPC :1.99042: AVG IPC :0.68235: L2-Pf-HR :0.88986: L2-HR :0.86186: (Sim:2h14m18s) 
CPU  0 inst:  406000001 cyc:  592092244 now IPC :1.99016: AVG IPC :0.68346: L2-Pf-HR :0.88995: L2-HR :0.86198: (Sim:2h14m39s) 
CPU  0 inst:  407000000 cyc:  592595536 now IPC :1.98692: AVG IPC :0.68457: L2-Pf-HR :0.89001: L2-HR :0.86207: (Sim:2h14m58s) 
CPU  0 inst:  408000004 cyc:  593123020 now IPC :1.89580: AVG IPC :0.68565: L2-Pf-HR :0.89000: L2-HR :0.86211: (Sim:2h15m19s) 
CPU  0 inst:  409000003 cyc:  593630070 now IPC :1.97219: AVG IPC :0.68675: L2-Pf-HR :0.89006: L2-HR :0.86220: (Sim:2h15m40s) 
CPU  0 inst:  410000003 cyc:  594138082 now IPC :1.96846: AVG IPC :0.68784: L2-Pf-HR :0.89013: L2-HR :0.86229: (Sim:2h16m1s) 
CPU  0 inst:  411000002 cyc:  594643303 now IPC :1.97933: AVG IPC :0.68894: L2-Pf-HR :0.89018: L2-HR :0.86237: (Sim:2h16m22s) 
CPU  0 inst:  412000003 cyc:  595220846 now IPC :1.73147: AVG IPC :0.68996: L2-Pf-HR :0.89012: L2-HR :0.86235: (Sim:2h16m42s) 
CPU  0 inst:  413000002 cyc:  595823291 now IPC :1.65990: AVG IPC :0.69094: L2-Pf-HR :0.89000: L2-HR :0.86230: (Sim:2h17m4s) 
CPU  0 inst:  414000005 cyc:  596431426 now IPC :1.64438: AVG IPC :0.69191: L2-Pf-HR :0.88991: L2-HR :0.86227: (Sim:2h17m26s) 
CPU  0 inst:  415000003 cyc:  597040597 now IPC :1.64157: AVG IPC :0.69288: L2-Pf-HR :0.88979: L2-HR :0.86222: (Sim:2h17m48s) 
CPU  0 inst:  416000003 cyc:  597627822 now IPC :1.70292: AVG IPC :0.69388: L2-Pf-HR :0.88970: L2-HR :0.86219: (Sim:2h18m9s) 
CPU  0 inst:  417000001 cyc:  598132179 now IPC :1.98272: AVG IPC :0.69497: L2-Pf-HR :0.88975: L2-HR :0.86229: (Sim:2h18m29s) 
CPU  0 inst:  418000005 cyc:  598636465 now IPC :1.98301: AVG IPC :0.69605: L2-Pf-HR :0.88979: L2-HR :0.86236: (Sim:2h18m50s) 
CPU  0 inst:  419000005 cyc:  599140493 now IPC :1.98402: AVG IPC :0.69714: L2-Pf-HR :0.88982: L2-HR :0.86244: (Sim:2h19m11s) 
CPU  0 inst:  420000005 cyc:  599651400 now IPC :1.95730: AVG IPC :0.69821: L2-Pf-HR :0.88981: L2-HR :0.86248: (Sim:2h19m33s) 
CPU  0 inst:  421000002 cyc:  600168350 now IPC :1.93442: AVG IPC :0.69928: L2-Pf-HR :0.88990: L2-HR :0.86259: (Sim:2h19m55s) 
CPU  0 inst:  422000001 cyc:  600670360 now IPC :1.99199: AVG IPC :0.70036: L2-Pf-HR :0.88998: L2-HR :0.86270: (Sim:2h20m18s) 
CPU  0 inst:  423000003 cyc:  601172200 now IPC :1.99267: AVG IPC :0.70144: L2-Pf-HR :0.89006: L2-HR :0.86281: (Sim:2h20m40s) 
CPU  0 inst:  424000002 cyc:  601682560 now IPC :1.95940: AVG IPC :0.70251: L2-Pf-HR :0.89008: L2-HR :0.86287: (Sim:2h21m2s) 
CPU  0 inst:  425000001 cyc:  602203599 now IPC :1.91924: AVG IPC :0.70357: L2-Pf-HR :0.89014: L2-HR :0.86295: (Sim:2h21m25s) 
CPU  0 inst:  426000004 cyc:  602707006 now IPC :1.98647: AVG IPC :0.70464: L2-Pf-HR :0.89020: L2-HR :0.86304: (Sim:2h21m47s) 
CPU  0 inst:  427000005 cyc:  603210040 now IPC :1.98794: AVG IPC :0.70571: L2-Pf-HR :0.89029: L2-HR :0.86315: (Sim:2h22m9s) 
CPU  0 inst:  428000005 cyc:  603713890 now IPC :1.98472: AVG IPC :0.70678: L2-Pf-HR :0.89032: L2-HR :0.86321: (Sim:2h22m31s) 
CPU  0 inst:  429000003 cyc:  604287997 now IPC :1.74183: AVG IPC :0.70777: L2-Pf-HR :0.89022: L2-HR :0.86317: (Sim:2h22m54s) 
CPU  0 inst:  430000005 cyc:  604856764 now IPC :1.75819: AVG IPC :0.70875: L2-Pf-HR :0.89011: L2-HR :0.86312: (Sim:2h23m17s) 
CPU  0 inst:  431000000 cyc:  605428549 now IPC :1.74890: AVG IPC :0.70974: L2-Pf-HR :0.89000: L2-HR :0.86308: (Sim:2h23m39s) 
CPU  0 inst:  432000000 cyc:  605998746 now IPC :1.75378: AVG IPC :0.71072: L2-Pf-HR :0.88990: L2-HR :0.86304: (Sim:2h24m2s) 
CPU  0 inst:  433000002 cyc:  606544879 now IPC :1.83106: AVG IPC :0.71173: L2-Pf-HR :0.88985: L2-HR :0.86304: (Sim:2h24m25s) 
CPU  0 inst:  434000001 cyc:  607048169 now IPC :1.98692: AVG IPC :0.71279: L2-Pf-HR :0.88989: L2-HR :0.86312: (Sim:2h24m47s) 
CPU  0 inst:  435000005 cyc:  607551435 now IPC :1.98703: AVG IPC :0.71385: L2-Pf-HR :0.88994: L2-HR :0.86321: (Sim:2h25m10s) 
CPU  0 inst:  436000004 cyc:  608054961 now IPC :1.98599: AVG IPC :0.71490: L2-Pf-HR :0.88996: L2-HR :0.86328: (Sim:2h25m32s) 
CPU  0 inst:  437000005 cyc:  608569599 now IPC :1.94312: AVG IPC :0.71594: L2-Pf-HR :0.88995: L2-HR :0.86331: (Sim:2h25m53s) 
CPU  0 inst:  438000003 cyc:  609071352 now IPC :1.99301: AVG IPC :0.71700: L2-Pf-HR :0.89006: L2-HR :0.86344: (Sim:2h26m14s) 
CPU  0 inst:  439000002 cyc:  609573500 now IPC :1.99144: AVG IPC :0.71805: L2-Pf-HR :0.89015: L2-HR :0.86355: (Sim:2h26m35s) 
CPU  0 inst:  440000002 cyc:  610075391 now IPC :1.99246: AVG IPC :0.71910: L2-Pf-HR :0.89023: L2-HR :0.86366: (Sim:2h26m57s) 
CPU  0 inst:  441000001 cyc:  610589536 now IPC :1.94497: AVG IPC :0.72013: L2-Pf-HR :0.89023: L2-HR :0.86370: (Sim:2h27m17s) 
CPU  0 inst:  442000005 cyc:  611094346 now IPC :1.98095: AVG IPC :0.72118: L2-Pf-HR :0.89030: L2-HR :0.86380: (Sim:2h27m38s) 
CPU  0 inst:  443000002 cyc:  611597960 now IPC :1.98564: AVG IPC :0.72222: L2-Pf-HR :0.89037: L2-HR :0.86389: (Sim:2h27m59s) 
CPU  0 inst:  444000004 cyc:  612101050 now IPC :1.98772: AVG IPC :0.72326: L2-Pf-HR :0.89045: L2-HR :0.86399: (Sim:2h28m20s) 
CPU  0 inst:  445000003 cyc:  612608555 now IPC :1.97042: AVG IPC :0.72430: L2-Pf-HR :0.89048: L2-HR :0.86404: (Sim:2h28m41s) 
CPU  0 inst:  446000002 cyc:  613191406 now IPC :1.71570: AVG IPC :0.72524: L2-Pf-HR :0.89035: L2-HR :0.86397: (Sim:2h29m2s) 
CPU  0 inst:  447000004 cyc:  613762075 now IPC :1.75233: AVG IPC :0.72620: L2-Pf-HR :0.89025: L2-HR :0.86393: (Sim:2h29m24s) 
CPU  0 inst:  448000000 cyc:  614330777 now IPC :1.75838: AVG IPC :0.72715: L2-Pf-HR :0.89014: L2-HR :0.86389: (Sim:2h29m45s) 
CPU  0 inst:  449000002 cyc:  614909436 now IPC :1.72814: AVG IPC :0.72810: L2-Pf-HR :0.89003: L2-HR :0.86383: (Sim:2h30m7s) 
CPU  0 inst:  450000004 cyc:  615435216 now IPC :1.90194: AVG IPC :0.72910: L2-Pf-HR :0.89003: L2-HR :0.86388: (Sim:2h30m28s) 
CPU  0 inst:  451000003 cyc:  615939172 now IPC :1.98430: AVG IPC :0.73013: L2-Pf-HR :0.89008: L2-HR :0.86396: (Sim:2h30m49s) 
CPU  0 inst:  452000001 cyc:  616443385 now IPC :1.98328: AVG IPC :0.73116: L2-Pf-HR :0.89012: L2-HR :0.86403: (Sim:2h31m9s) 
CPU  0 inst:  453000002 cyc:  616947152 now IPC :1.98505: AVG IPC :0.73218: L2-Pf-HR :0.89012: L2-HR :0.86407: (Sim:2h31m30s) 
CPU  0 inst:  454000005 cyc:  617461627 now IPC :1.94373: AVG IPC :0.73319: L2-Pf-HR :0.89016: L2-HR :0.86415: (Sim:2h31m51s) 
CPU  0 inst:  455000005 cyc:  617963698 now IPC :1.99175: AVG IPC :0.73422: L2-Pf-HR :0.89025: L2-HR :0.86426: (Sim:2h32m12s) 
CPU  0 inst:  456000005 cyc:  618465127 now IPC :1.99430: AVG IPC :0.73524: L2-Pf-HR :0.89032: L2-HR :0.86435: (Sim:2h32m34s) 
CPU  0 inst:  457000002 cyc:  618967496 now IPC :1.99056: AVG IPC :0.73626: L2-Pf-HR :0.89037: L2-HR :0.86443: (Sim:2h32m55s) 
CPU  0 inst:  458000003 cyc:  619481721 now IPC :1.94468: AVG IPC :0.73727: L2-Pf-HR :0.89040: L2-HR :0.86449: (Sim:2h33m16s) 
CPU  0 inst:  459000003 cyc:  619984718 now IPC :1.98808: AVG IPC :0.73828: L2-Pf-HR :0.89045: L2-HR :0.86457: (Sim:2h33m36s) 
CPU  0 inst:  460000005 cyc:  620488354 now IPC :1.98556: AVG IPC :0.73930: L2-Pf-HR :0.89051: L2-HR :0.86465: (Sim:2h33m57s) 
CPU  0 inst:  461000003 cyc:  620991491 now IPC :1.98753: AVG IPC :0.74031: L2-Pf-HR :0.89056: L2-HR :0.86473: (Sim:2h34m18s) 
CPU  0 inst:  462000003 cyc:  621530780 now IPC :1.85429: AVG IPC :0.74128: L2-Pf-HR :0.89055: L2-HR :0.86475: (Sim:2h34m39s) 
CPU  0 inst:  463000004 cyc:  622109826 now IPC :1.72698: AVG IPC :0.74220: L2-Pf-HR :0.89042: L2-HR :0.86468: (Sim:2h35m0s) 
CPU  0 inst:  464000004 cyc:  622679682 now IPC :1.75483: AVG IPC :0.74312: L2-Pf-HR :0.89033: L2-HR :0.86464: (Sim:2h35m22s) 
CPU  0 inst:  465000001 cyc:  623248402 now IPC :1.75833: AVG IPC :0.74405: L2-Pf-HR :0.89023: L2-HR :0.86460: (Sim:2h35m43s) 
CPU  0 inst:  466000004 cyc:  623825063 now IPC :1.73413: AVG IPC :0.74497: L2-Pf-HR :0.89012: L2-HR :0.86455: (Sim:2h36m5s) 
CPU  0 inst:  467000001 cyc:  624328602 now IPC :1.98594: AVG IPC :0.74597: L2-Pf-HR :0.89016: L2-HR :0.86462: (Sim:2h36m26s) 
CPU  0 inst:  468000001 cyc:  624832147 now IPC :1.98592: AVG IPC :0.74697: L2-Pf-HR :0.89021: L2-HR :0.86471: (Sim:2h36m46s) 
CPU  0 inst:  469000002 cyc:  625335654 now IPC :1.98607: AVG IPC :0.74797: L2-Pf-HR :0.89025: L2-HR :0.86478: (Sim:2h37m7s) 
CPU  0 inst:  470000001 cyc:  625842785 now IPC :1.97188: AVG IPC :0.74897: L2-Pf-HR :0.89023: L2-HR :0.86481: (Sim:2h37m28s) 
CPU  0 inst:  471000001 cyc:  626352311 now IPC :1.96261: AVG IPC :0.74995: L2-Pf-HR :0.89030: L2-HR :0.86490: (Sim:2h37m49s) 
CPU  0 inst:  472000005 cyc:  626854074 now IPC :1.99298: AVG IPC :0.75095: L2-Pf-HR :0.89038: L2-HR :0.86501: (Sim:2h38m10s) 
CPU  0 inst:  473000004 cyc:  627355727 now IPC :1.99341: AVG IPC :0.75195: L2-Pf-HR :0.89045: L2-HR :0.86510: (Sim:2h38m31s) 
CPU  0 inst:  474000000 cyc:  627857707 now IPC :1.99210: AVG IPC :0.75294: L2-Pf-HR :0.89050: L2-HR :0.86518: (Sim:2h38m52s) 
CPU  0 inst:  475000005 cyc:  628373193 now IPC :1.93993: AVG IPC :0.75391: L2-Pf-HR :0.89053: L2-HR :0.86524: (Sim:2h39m13s) 
CPU  0 inst:  476000005 cyc:  628876402 now IPC :1.98725: AVG IPC :0.75490: L2-Pf-HR :0.89060: L2-HR :0.86532: (Sim:2h39m33s) 
CPU  0 inst:  477000005 cyc:  629379908 now IPC :1.98607: AVG IPC :0.75589: L2-Pf-HR :0.89066: L2-HR :0.86541: (Sim:2h39m54s) 
CPU  0 inst:  478000000 cyc:  629883741 now IPC :1.98477: AVG IPC :0.75687: L2-Pf-HR :0.89072: L2-HR :0.86548: (Sim:2h40m15s) 
CPU  0 inst:  479000000 cyc:  630443493 now IPC :1.78651: AVG IPC :0.75779: L2-Pf-HR :0.89063: L2-HR :0.86545: (Sim:2h40m36s) 
CPU  0 inst:  480000004 cyc:  631013866 now IPC :1.75325: AVG IPC :0.75869: L2-Pf-HR :0.89055: L2-HR :0.86541: (Sim:2h40m58s) 
CPU  0 inst:  481000004 cyc:  631583598 now IPC :1.75521: AVG IPC :0.75959: L2-Pf-HR :0.89045: L2-HR :0.86537: (Sim:2h41m19s) 
CPU  0 inst:  482000001 cyc:  632156759 now IPC :1.74471: AVG IPC :0.76049: L2-Pf-HR :0.89036: L2-HR :0.86533: (Sim:2h41m41s) 
CPU  0 inst:  483000000 cyc:  632716696 now IPC :1.78591: AVG IPC :0.76139: L2-Pf-HR :0.89029: L2-HR :0.86531: (Sim:2h42m2s) 
CPU  0 inst:  484000005 cyc:  633223404 now IPC :1.97353: AVG IPC :0.76237: L2-Pf-HR :0.89033: L2-HR :0.86538: (Sim:2h42m23s) 
CPU  0 inst:  485000003 cyc:  633729868 now IPC :1.97447: AVG IPC :0.76334: L2-Pf-HR :0.89036: L2-HR :0.86545: (Sim:2h42m44s) 
CPU  0 inst:  486000000 cyc:  634236989 now IPC :1.97191: AVG IPC :0.76430: L2-Pf-HR :0.89037: L2-HR :0.86550: (Sim:2h43m5s) 
CPU  0 inst:  487000003 cyc:  634753448 now IPC :1.93627: AVG IPC :0.76526: L2-Pf-HR :0.89035: L2-HR :0.86552: (Sim:2h43m26s) 
CPU  0 inst:  488000002 cyc:  635255335 now IPC :1.99248: AVG IPC :0.76623: L2-Pf-HR :0.89044: L2-HR :0.86562: (Sim:2h43m47s) 
CPU  0 inst:  489000000 cyc:  635758032 now IPC :1.98927: AVG IPC :0.76720: L2-Pf-HR :0.89052: L2-HR :0.86572: (Sim:2h44m8s) 
CPU  0 inst:  490000005 cyc:  636260150 now IPC :1.99157: AVG IPC :0.76817: L2-Pf-HR :0.89057: L2-HR :0.86580: (Sim:2h44m29s) 
CPU  0 inst:  491000005 cyc:  636766499 now IPC :1.97492: AVG IPC :0.76913: L2-Pf-HR :0.89061: L2-HR :0.86586: (Sim:2h44m50s) 
CPU  0 inst:  492000000 cyc:  637280103 now IPC :1.94702: AVG IPC :0.77008: L2-Pf-HR :0.89063: L2-HR :0.86591: (Sim:2h45m11s) 
CPU  0 inst:  493000001 cyc:  637784826 now IPC :1.98129: AVG IPC :0.77104: L2-Pf-HR :0.89067: L2-HR :0.86597: (Sim:2h45m31s) 
CPU  0 inst:  494000001 cyc:  638288313 now IPC :1.98615: AVG IPC :0.77200: L2-Pf-HR :0.89071: L2-HR :0.86603: (Sim:2h45m52s) 
CPU  0 inst:  495000002 cyc:  638794960 now IPC :1.97376: AVG IPC :0.77295: L2-Pf-HR :0.89073: L2-HR :0.86608: (Sim:2h46m13s) 
CPU  0 inst:  496000002 cyc:  639370859 now IPC :1.73642: AVG IPC :0.77382: L2-Pf-HR :0.89064: L2-HR :0.86604: (Sim:2h46m34s) 
CPU  0 inst:  497000001 cyc:  639948236 now IPC :1.73197: AVG IPC :0.77469: L2-Pf-HR :0.89053: L2-HR :0.86597: (Sim:2h46m56s) 
CPU  0 inst:  498000003 cyc:  640516406 now IPC :1.76004: AVG IPC :0.77556: L2-Pf-HR :0.89043: L2-HR :0.86593: (Sim:2h47m17s) 
CPU  0 inst:  499000001 cyc:  641089581 now IPC :1.74466: AVG IPC :0.77643: L2-Pf-HR :0.89034: L2-HR :0.86589: (Sim:2h47m39s) 
CPU  0 inst:  500000001 cyc:  641626280 now IPC :1.86324: AVG IPC :0.77734: L2-Pf-HR :0.89031: L2-HR :0.86590: (Sim:2h48m0s) 
CPU  0 inst:  501000000 cyc:  642129071 now IPC :1.98890: AVG IPC :0.77829: L2-Pf-HR :0.89035: L2-HR :0.86596: (Sim:2h48m21s) 
CPU  0 inst:  502000000 cyc:  642632090 now IPC :1.98800: AVG IPC :0.77924: L2-Pf-HR :0.89037: L2-HR :0.86602: (Sim:2h48m42s) 
CPU  0 inst:  503000003 cyc:  643135612 now IPC :1.98602: AVG IPC :0.78019: L2-Pf-HR :0.89038: L2-HR :0.86606: (Sim:2h49m2s) 
CPU  0 inst:  504000002 cyc:  643649563 now IPC :1.94571: AVG IPC :0.78112: L2-Pf-HR :0.89038: L2-HR :0.86610: (Sim:2h49m24s) 
CPU  0 inst:  505000004 cyc:  644151281 now IPC :1.99316: AVG IPC :0.78206: L2-Pf-HR :0.89047: L2-HR :0.86620: (Sim:2h49m45s) 
CPU  0 inst:  506000002 cyc:  644653205 now IPC :1.99233: AVG IPC :0.78301: L2-Pf-HR :0.89055: L2-HR :0.86630: (Sim:2h50m5s) 
CPU  0 inst:  507000004 cyc:  645155449 now IPC :1.99107: AVG IPC :0.78395: L2-Pf-HR :0.89061: L2-HR :0.86638: (Sim:2h50m27s) 
CPU  0 inst:  508000002 cyc:  645672660 now IPC :1.93344: AVG IPC :0.78487: L2-Pf-HR :0.89061: L2-HR :0.86641: (Sim:2h50m48s) 
CPU  0 inst:  509000000 cyc:  646177368 now IPC :1.98134: AVG IPC :0.78581: L2-Pf-HR :0.89066: L2-HR :0.86648: (Sim:2h51m8s) 
CPU  0 inst:  510000002 cyc:  646680919 now IPC :1.98590: AVG IPC :0.78674: L2-Pf-HR :0.89072: L2-HR :0.86656: (Sim:2h51m29s) 
CPU  0 inst:  511000003 cyc:  647184399 now IPC :1.98618: AVG IPC :0.78768: L2-Pf-HR :0.89077: L2-HR :0.86663: (Sim:2h51m50s) 
CPU  0 inst:  512000001 cyc:  647714108 now IPC :1.88783: AVG IPC :0.78858: L2-Pf-HR :0.89075: L2-HR :0.86664: (Sim:2h52m11s) 
CPU  0 inst:  513000002 cyc:  648287413 now IPC :1.74427: AVG IPC :0.78942: L2-Pf-HR :0.89065: L2-HR :0.86659: (Sim:2h52m32s) 
CPU  0 inst:  514000004 cyc:  648860909 now IPC :1.74369: AVG IPC :0.79027: L2-Pf-HR :0.89056: L2-HR :0.86655: (Sim:2h52m54s) 
CPU  0 inst:  515000001 cyc:  649434640 now IPC :1.74297: AVG IPC :0.79111: L2-Pf-HR :0.89047: L2-HR :0.86650: (Sim:2h53m15s) 
CPU  0 inst:  516000000 cyc:  650014429 now IPC :1.72476: AVG IPC :0.79195: L2-Pf-HR :0.89037: L2-HR :0.86645: (Sim:2h53m37s) 
CPU  0 inst:  517000003 cyc:  650525091 now IPC :1.95825: AVG IPC :0.79286: L2-Pf-HR :0.89039: L2-HR :0.86650: (Sim:2h53m58s) 
CPU  0 inst:  518000003 cyc:  651028916 now IPC :1.98482: AVG IPC :0.79379: L2-Pf-HR :0.89044: L2-HR :0.86658: (Sim:2h54m18s) 
CPU  0 inst:  519000002 cyc:  651532801 now IPC :1.98458: AVG IPC :0.79471: L2-Pf-HR :0.89047: L2-HR :0.86664: (Sim:2h54m39s) 
CPU  0 inst:  520000003 cyc:  652036432 now IPC :1.98558: AVG IPC :0.79563: L2-Pf-HR :0.89047: L2-HR :0.86668: (Sim:2h55m0s) 
CPU  0 inst:  521000000 cyc:  652549582 now IPC :1.94874: AVG IPC :0.79654: L2-Pf-HR :0.89052: L2-HR :0.86675: (Sim:2h55m21s) 
CPU  0 inst:  522000005 cyc:  653051137 now IPC :1.99381: AVG IPC :0.79746: L2-Pf-HR :0.89061: L2-HR :0.86686: (Sim:2h55m42s) 
CPU  0 inst:  523000001 cyc:  653553125 now IPC :1.99207: AVG IPC :0.79838: L2-Pf-HR :0.89067: L2-HR :0.86694: (Sim:2h56m3s) 
CPU  0 inst:  524000000 cyc:  654054987 now IPC :1.99258: AVG IPC :0.79930: L2-Pf-HR :0.89072: L2-HR :0.86701: (Sim:2h56m24s) 
CPU  0 inst:  525000004 cyc:  654569849 now IPC :1.94228: AVG IPC :0.80020: L2-Pf-HR :0.89075: L2-HR :0.86707: (Sim:2h56m45s) 
CPU  0 inst:  526000000 cyc:  655073478 now IPC :1.98558: AVG IPC :0.80111: L2-Pf-HR :0.89081: L2-HR :0.86715: (Sim:2h57m3s) 
CPU  0 inst:  527000002 cyc:  655576462 now IPC :1.98814: AVG IPC :0.80202: L2-Pf-HR :0.89086: L2-HR :0.86722: (Sim:2h57m13s) 
CPU  0 inst:  528000002 cyc:  656079632 now IPC :1.98740: AVG IPC :0.80293: L2-Pf-HR :0.89093: L2-HR :0.86731: (Sim:2h57m23s) 
CPU  0 inst:  529000003 cyc:  656625935 now IPC :1.83049: AVG IPC :0.80379: L2-Pf-HR :0.89091: L2-HR :0.86732: (Sim:2h57m32s) 
CPU  0 inst:  530000003 cyc:  657201687 now IPC :1.73686: AVG IPC :0.80461: L2-Pf-HR :0.89080: L2-HR :0.86726: (Sim:2h57m42s) 
CPU  0 inst:  531000003 cyc:  657774795 now IPC :1.74487: AVG IPC :0.80543: L2-Pf-HR :0.89070: L2-HR :0.86721: (Sim:2h57m52s) 
CPU  0 inst:  532000002 cyc:  658347640 now IPC :1.74567: AVG IPC :0.80625: L2-Pf-HR :0.89062: L2-HR :0.86717: (Sim:2h58m2s) 
CPU  0 inst:  533000004 cyc:  658908002 now IPC :1.78456: AVG IPC :0.80708: L2-Pf-HR :0.89055: L2-HR :0.86714: (Sim:2h58m14s) 
CPU  0 inst:  534000004 cyc:  659414314 now IPC :1.97507: AVG IPC :0.80798: L2-Pf-HR :0.89059: L2-HR :0.86721: (Sim:2h58m37s) 
CPU  0 inst:  535000001 cyc:  659920654 now IPC :1.97495: AVG IPC :0.80887: L2-Pf-HR :0.89063: L2-HR :0.86727: (Sim:2h58m59s) 
CPU  0 inst:  536000002 cyc:  660427185 now IPC :1.97421: AVG IPC :0.80977: L2-Pf-HR :0.89064: L2-HR :0.86732: (Sim:2h59m21s) 
CPU  0 inst:  537000004 cyc:  660944250 now IPC :1.93400: AVG IPC :0.81065: L2-Pf-HR :0.89061: L2-HR :0.86733: (Sim:2h59m36s) 
CPU  0 inst:  538000003 cyc:  661447248 now IPC :1.98808: AVG IPC :0.81155: L2-Pf-HR :0.89069: L2-HR :0.86742: (Sim:2h59m50s) 
CPU  0 inst:  539000005 cyc:  661949527 now IPC :1.99093: AVG IPC :0.81244: L2-Pf-HR :0.89076: L2-HR :0.86751: (Sim:3h0m11s) 
CPU  0 inst:  540000001 cyc:  662451646 now IPC :1.99155: AVG IPC :0.81334: L2-Pf-HR :0.89082: L2-HR :0.86759: (Sim:3h0m33s) 
CPU  0 inst:  541000002 cyc:  662957034 now IPC :1.97868: AVG IPC :0.81423: L2-Pf-HR :0.89083: L2-HR :0.86762: (Sim:3h0m56s) 
CPU  0 inst:  542000005 cyc:  663469725 now IPC :1.95050: AVG IPC :0.81511: L2-Pf-HR :0.89087: L2-HR :0.86768: (Sim:3h1m18s) 
CPU  0 inst:  543000000 cyc:  663973451 now IPC :1.98520: AVG IPC :0.81600: L2-Pf-HR :0.89091: L2-HR :0.86774: (Sim:3h1m39s) 
CPU  0 inst:  544000004 cyc:  664476794 now IPC :1.98672: AVG IPC :0.81688: L2-Pf-HR :0.89096: L2-HR :0.86780: (Sim:3h2m1s) 
CPU  0 inst:  545000000 cyc:  664980412 now IPC :1.98562: AVG IPC :0.81777: L2-Pf-HR :0.89100: L2-HR :0.86785: (Sim:3h2m23s) 
CPU  0 inst:  546000002 cyc:  665551813 now IPC :1.75009: AVG IPC :0.81857: L2-Pf-HR :0.89090: L2-HR :0.86780: (Sim:3h2m46s) 
CPU  0 inst:  547000004 cyc:  666121105 now IPC :1.75657: AVG IPC :0.81938: L2-Pf-HR :0.89081: L2-HR :0.86776: (Sim:3h3m8s) 
CPU  0 inst:  548000002 cyc:  666691559 now IPC :1.75299: AVG IPC :0.82018: L2-Pf-HR :0.89073: L2-HR :0.86772: (Sim:3h3m31s) 
CPU  0 inst:  549000005 cyc:  667263075 now IPC :1.74974: AVG IPC :0.82097: L2-Pf-HR :0.89065: L2-HR :0.86768: (Sim:3h3m53s) 
CPU  0 inst:  550000005 cyc:  667810063 now IPC :1.82819: AVG IPC :0.82180: L2-Pf-HR :0.89061: L2-HR :0.86767: (Sim:3h4m16s) 
CPU  0 inst:  551000001 cyc:  668313902 now IPC :1.98475: AVG IPC :0.82268: L2-Pf-HR :0.89065: L2-HR :0.86774: (Sim:3h4m38s) 
CPU  0 inst:  552000005 cyc:  668817188 now IPC :1.98695: AVG IPC :0.82355: L2-Pf-HR :0.89068: L2-HR :0.86779: (Sim:3h5m0s) 
CPU  0 inst:  553000000 cyc:  669321203 now IPC :1.98406: AVG IPC :0.82443: L2-Pf-HR :0.89070: L2-HR :0.86784: (Sim:3h5m22s) 
CPU  0 inst:  554000000 cyc:  669834923 now IPC :1.94659: AVG IPC :0.82529: L2-Pf-HR :0.89069: L2-HR :0.86786: (Sim:3h5m44s) 
CPU  0 inst:  555000002 cyc:  670336547 now IPC :1.99353: AVG IPC :0.82617: L2-Pf-HR :0.89076: L2-HR :0.86795: (Sim:3h6m6s) 
CPU  0 inst:  556000003 cyc:  670838590 now IPC :1.99186: AVG IPC :0.82704: L2-Pf-HR :0.89084: L2-HR :0.86804: (Sim:3h6m28s) 
CPU  0 inst:  557000001 cyc:  671341114 now IPC :1.98995: AVG IPC :0.82791: L2-Pf-HR :0.89089: L2-HR :0.86811: (Sim:3h6m50s) 
CPU  0 inst:  558000000 cyc:  671854714 now IPC :1.94704: AVG IPC :0.82877: L2-Pf-HR :0.89090: L2-HR :0.86815: (Sim:3h7m12s) 
CPU  0 inst:  559000001 cyc:  672360113 now IPC :1.97864: AVG IPC :0.82964: L2-Pf-HR :0.89094: L2-HR :0.86820: (Sim:3h7m34s) 
CPU  0 inst:  560000005 cyc:  672863898 now IPC :1.98498: AVG IPC :0.83050: L2-Pf-HR :0.89098: L2-HR :0.86827: (Sim:3h7m55s) 
CPU  0 inst:  561000002 cyc:  673367519 now IPC :1.98561: AVG IPC :0.83137: L2-Pf-HR :0.89101: L2-HR :0.86831: (Sim:3h8m17s) 
CPU  0 inst:  562000002 cyc:  673874365 now IPC :1.97299: AVG IPC :0.83223: L2-Pf-HR :0.89105: L2-HR :0.86837: (Sim:3h8m39s) 
CPU  0 inst:  563000003 cyc:  674459695 now IPC :1.70844: AVG IPC :0.83299: L2-Pf-HR :0.89094: L2-HR :0.86830: (Sim:3h9m2s) 
CPU  0 inst:  564000000 cyc:  675038291 now IPC :1.72832: AVG IPC :0.83376: L2-Pf-HR :0.89084: L2-HR :0.86825: (Sim:3h9m24s) 
CPU  0 inst:  565000000 cyc:  675614410 now IPC :1.73575: AVG IPC :0.83453: L2-Pf-HR :0.89076: L2-HR :0.86821: (Sim:3h9m47s) 
CPU  0 inst:  566000005 cyc:  676194468 now IPC :1.72397: AVG IPC :0.83529: L2-Pf-HR :0.89066: L2-HR :0.86815: (Sim:3h10m10s) 
CPU  0 inst:  567000001 cyc:  676706934 now IPC :1.95134: AVG IPC :0.83614: L2-Pf-HR :0.89069: L2-HR :0.86820: (Sim:3h10m32s) 
CPU  0 inst:  568000003 cyc:  677210439 now IPC :1.98608: AVG IPC :0.83699: L2-Pf-HR :0.89073: L2-HR :0.86827: (Sim:3h10m53s) 
CPU  0 inst:  569000004 cyc:  677714381 now IPC :1.98436: AVG IPC :0.83785: L2-Pf-HR :0.89076: L2-HR :0.86833: (Sim:3h11m14s) 
CPU  0 inst:  570000005 cyc:  678217562 now IPC :1.98736: AVG IPC :0.83870: L2-Pf-HR :0.89078: L2-HR :0.86839: (Sim:3h11m34s) 
CPU  0 inst:  571000001 cyc:  678731858 now IPC :1.94440: AVG IPC :0.83954: L2-Pf-HR :0.89082: L2-HR :0.86845: (Sim:3h11m54s) 
CPU  0 inst:  572000000 cyc:  679233833 now IPC :1.99213: AVG IPC :0.84039: L2-Pf-HR :0.89089: L2-HR :0.86854: (Sim:3h12m13s) 
CPU  0 inst:  573000001 cyc:  679735555 now IPC :1.99314: AVG IPC :0.84125: L2-Pf-HR :0.89096: L2-HR :0.86862: (Sim:3h12m34s) 
CPU  0 inst:  574000004 cyc:  680237678 now IPC :1.99155: AVG IPC :0.84210: L2-Pf-HR :0.89101: L2-HR :0.86869: (Sim:3h12m55s) 
CPU  0 inst:  575000005 cyc:  680752415 now IPC :1.94274: AVG IPC :0.84293: L2-Pf-HR :0.89102: L2-HR :0.86872: (Sim:3h13m16s) 
CPU  0 inst:  576000004 cyc:  681255638 now IPC :1.98719: AVG IPC :0.84378: L2-Pf-HR :0.89107: L2-HR :0.86878: (Sim:3h13m36s) 
CPU  0 inst:  577000002 cyc:  681759352 now IPC :1.98525: AVG IPC :0.84462: L2-Pf-HR :0.89112: L2-HR :0.86885: (Sim:3h13m57s) 
CPU  0 inst:  578000000 cyc:  682263219 now IPC :1.98465: AVG IPC :0.84546: L2-Pf-HR :0.89116: L2-HR :0.86891: (Sim:3h14m18s) 
CPU  0 inst:  579000005 cyc:  682804173 now IPC :1.84860: AVG IPC :0.84626: L2-Pf-HR :0.89112: L2-HR :0.86889: (Sim:3h14m40s) 
CPU  0 inst:  580000001 cyc:  683377815 now IPC :1.74324: AVG IPC :0.84701: L2-Pf-HR :0.89103: L2-HR :0.86884: (Sim:3h15m0s) 
CPU  0 inst:  581000005 cyc:  683948846 now IPC :1.75123: AVG IPC :0.84777: L2-Pf-HR :0.89095: L2-HR :0.86880: (Sim:3h15m21s) 
CPU  0 inst:  582000002 cyc:  684520997 now IPC :1.74779: AVG IPC :0.84852: L2-Pf-HR :0.89087: L2-HR :0.86876: (Sim:3h15m43s) 
CPU  0 inst:  583000000 cyc:  685095306 now IPC :1.74122: AVG IPC :0.84927: L2-Pf-HR :0.89079: L2-HR :0.86872: (Sim:3h16m6s) 
CPU  0 inst:  584000001 cyc:  685602337 now IPC :1.97227: AVG IPC :0.85010: L2-Pf-HR :0.89084: L2-HR :0.86880: (Sim:3h16m27s) 
CPU  0 inst:  585000001 cyc:  686108948 now IPC :1.97390: AVG IPC :0.85094: L2-Pf-HR :0.89088: L2-HR :0.86886: (Sim:3h16m48s) 
CPU  0 inst:  586000005 cyc:  686615823 now IPC :1.97288: AVG IPC :0.85176: L2-Pf-HR :0.89091: L2-HR :0.86892: (Sim:3h17m10s) 
CPU  0 inst:  587000003 cyc:  687127270 now IPC :1.95523: AVG IPC :0.85259: L2-Pf-HR :0.89091: L2-HR :0.86896: (Sim:3h17m30s) 
CPU  0 inst:  588000003 cyc:  687636459 now IPC :1.96391: AVG IPC :0.85341: L2-Pf-HR :0.89097: L2-HR :0.86903: (Sim:3h17m50s) 
CPU  0 inst:  589000004 cyc:  688138393 now IPC :1.99230: AVG IPC :0.85424: L2-Pf-HR :0.89104: L2-HR :0.86912: (Sim:3h18m12s) 
CPU  0 inst:  590000003 cyc:  688640228 now IPC :1.99268: AVG IPC :0.85507: L2-Pf-HR :0.89110: L2-HR :0.86919: (Sim:3h18m33s) 
CPU  0 inst:  591000001 cyc:  689142431 now IPC :1.99122: AVG IPC :0.85590: L2-Pf-HR :0.89114: L2-HR :0.86925: (Sim:3h18m54s) 
CPU  0 inst:  592000001 cyc:  689661721 now IPC :1.92571: AVG IPC :0.85671: L2-Pf-HR :0.89116: L2-HR :0.86930: (Sim:3h19m15s) 
CPU  0 inst:  593000000 cyc:  690166296 now IPC :1.98186: AVG IPC :0.85753: L2-Pf-HR :0.89121: L2-HR :0.86936: (Sim:3h19m34s) 
CPU  0 inst:  594000004 cyc:  690670429 now IPC :1.98361: AVG IPC :0.85836: L2-Pf-HR :0.89126: L2-HR :0.86942: (Sim:3h19m56s) 
CPU  0 inst:  595000005 cyc:  691174213 now IPC :1.98498: AVG IPC :0.85918: L2-Pf-HR :0.89128: L2-HR :0.86947: (Sim:3h20m17s) 
CPU  0 inst:  596000000 cyc:  691732348 now IPC :1.79167: AVG IPC :0.85993: L2-Pf-HR :0.89124: L2-HR :0.86945: (Sim:3h20m39s) 
CPU  0 inst:  597000005 cyc:  692308584 now IPC :1.73541: AVG IPC :0.86066: L2-Pf-HR :0.89114: L2-HR :0.86940: (Sim:3h21m0s) 
CPU  0 inst:  598000003 cyc:  692886084 now IPC :1.73160: AVG IPC :0.86139: L2-Pf-HR :0.89105: L2-HR :0.86934: (Sim:3h21m21s) 
CPU  0 inst:  599000004 cyc:  693456625 now IPC :1.75272: AVG IPC :0.86212: L2-Pf-HR :0.89097: L2-HR :0.86930: (Sim:3h21m43s) 
CPU  0 inst:  600000000 cyc:  694006586 now IPC :1.81830: AVG IPC :0.86288: L2-Pf-HR :0.89093: L2-HR :0.86930: (Sim:3h22m5s) 
CPU  0 inst:  601000002 cyc:  694512778 now IPC :1.97554: AVG IPC :0.86369: L2-Pf-HR :0.89097: L2-HR :0.86936: (Sim:3h22m27s) 
CPU  0 inst:  602000000 cyc:  695018801 now IPC :1.97619: AVG IPC :0.86451: L2-Pf-HR :0.89099: L2-HR :0.86941: (Sim:3h22m48s) 
CPU  0 inst:  603000005 cyc:  695525130 now IPC :1.97501: AVG IPC :0.86532: L2-Pf-HR :0.89101: L2-HR :0.86946: (Sim:3h23m8s) 
CPU  0 inst:  604000001 cyc:  696042565 now IPC :1.93260: AVG IPC :0.86611: L2-Pf-HR :0.89102: L2-HR :0.86950: (Sim:3h23m29s) 
CPU  0 inst:  605000003 cyc:  696544339 now IPC :1.99293: AVG IPC :0.86692: L2-Pf-HR :0.89109: L2-HR :0.86958: (Sim:3h23m51s) 
CPU  0 inst:  606000003 cyc:  697046256 now IPC :1.99236: AVG IPC :0.86773: L2-Pf-HR :0.89115: L2-HR :0.86966: (Sim:3h24m12s) 
CPU  0 inst:  607000002 cyc:  697548144 now IPC :1.99247: AVG IPC :0.86854: L2-Pf-HR :0.89120: L2-HR :0.86973: (Sim:3h24m33s) 
CPU  0 inst:  608000005 cyc:  698063480 now IPC :1.94049: AVG IPC :0.86934: L2-Pf-HR :0.89122: L2-HR :0.86977: (Sim:3h24m53s) 
CPU  0 inst:  609000002 cyc:  698569359 now IPC :1.97675: AVG IPC :0.87014: L2-Pf-HR :0.89128: L2-HR :0.86984: (Sim:3h25m14s) 
CPU  0 inst:  610000001 cyc:  699072303 now IPC :1.98829: AVG IPC :0.87095: L2-Pf-HR :0.89133: L2-HR :0.86991: (Sim:3h25m35s) 
CPU  0 inst:  611000004 cyc:  699575317 now IPC :1.98802: AVG IPC :0.87175: L2-Pf-HR :0.89138: L2-HR :0.86997: (Sim:3h25m56s) 
CPU  0 inst:  612000005 cyc:  700081715 now IPC :1.97473: AVG IPC :0.87255: L2-Pf-HR :0.89143: L2-HR :0.87003: (Sim:3h26m17s) 
CPU  0 inst:  613000003 cyc:  700664691 now IPC :1.71533: AVG IPC :0.87325: L2-Pf-HR :0.89134: L2-HR :0.86998: (Sim:3h26m39s) 
CPU  0 inst:  614000000 cyc:  701235452 now IPC :1.75204: AVG IPC :0.87397: L2-Pf-HR :0.89127: L2-HR :0.86994: (Sim:3h26m59s) 
CPU  0 inst:  615000005 cyc:  701804591 now IPC :1.75705: AVG IPC :0.87468: L2-Pf-HR :0.89119: L2-HR :0.86991: (Sim:3h27m20s) 
CPU  0 inst:  616000004 cyc:  702373336 now IPC :1.75826: AVG IPC :0.87540: L2-Pf-HR :0.89112: L2-HR :0.86987: (Sim:3h27m41s) 
CPU  0 inst:  617000002 cyc:  702907188 now IPC :1.87317: AVG IPC :0.87616: L2-Pf-HR :0.89110: L2-HR :0.86987: (Sim:3h28m2s) 
CPU  0 inst:  618000003 cyc:  703410884 now IPC :1.98533: AVG IPC :0.87696: L2-Pf-HR :0.89113: L2-HR :0.86993: (Sim:3h28m22s) 
CPU  0 inst:  619000004 cyc:  703914202 now IPC :1.98682: AVG IPC :0.87775: L2-Pf-HR :0.89115: L2-HR :0.86998: (Sim:3h28m43s) 
CPU  0 inst:  620000003 cyc:  704417608 now IPC :1.98647: AVG IPC :0.87854: L2-Pf-HR :0.89116: L2-HR :0.87001: (Sim:3h29m3s) 
CPU  0 inst:  621000003 cyc:  704931353 now IPC :1.94649: AVG IPC :0.87932: L2-Pf-HR :0.89117: L2-HR :0.87005: (Sim:3h29m23s) 
CPU  0 inst:  622000000 cyc:  705433288 now IPC :1.99228: AVG IPC :0.88012: L2-Pf-HR :0.89124: L2-HR :0.87013: (Sim:3h29m44s) 
CPU  0 inst:  623000005 cyc:  705934920 now IPC :1.99350: AVG IPC :0.88091: L2-Pf-HR :0.89130: L2-HR :0.87021: (Sim:3h30m4s) 
CPU  0 inst:  624000004 cyc:  706436845 now IPC :1.99233: AVG IPC :0.88170: L2-Pf-HR :0.89136: L2-HR :0.87028: (Sim:3h30m25s) 
CPU  0 inst:  625000001 cyc:  706951122 now IPC :1.94447: AVG IPC :0.88247: L2-Pf-HR :0.89136: L2-HR :0.87031: (Sim:3h30m45s) 
CPU  0 inst:  626000004 cyc:  707454773 now IPC :1.98551: AVG IPC :0.88326: L2-Pf-HR :0.89141: L2-HR :0.87037: (Sim:3h31m5s) 
CPU  0 inst:  627000003 cyc:  707957672 now IPC :1.98847: AVG IPC :0.88405: L2-Pf-HR :0.89147: L2-HR :0.87044: (Sim:3h31m26s) 
CPU  0 inst:  628000001 cyc:  708461136 now IPC :1.98624: AVG IPC :0.88483: L2-Pf-HR :0.89151: L2-HR :0.87049: (Sim:3h31m47s) 
CPU  0 inst:  629000001 cyc:  708992085 now IPC :1.88342: AVG IPC :0.88558: L2-Pf-HR :0.89150: L2-HR :0.87051: (Sim:3h32m8s) 
CPU  0 inst:  630000002 cyc:  709561815 now IPC :1.75522: AVG IPC :0.88628: L2-Pf-HR :0.89142: L2-HR :0.87046: (Sim:3h32m30s) 
CPU  0 inst:  631000001 cyc:  710137671 now IPC :1.73654: AVG IPC :0.88697: L2-Pf-HR :0.89134: L2-HR :0.87041: (Sim:3h32m51s) 
CPU  0 inst:  632000000 cyc:  710715023 now IPC :1.73204: AVG IPC :0.88766: L2-Pf-HR :0.89125: L2-HR :0.87036: (Sim:3h33m13s) 
CPU  0 inst:  633000002 cyc:  711284542 now IPC :1.75587: AVG IPC :0.88835: L2-Pf-HR :0.89119: L2-HR :0.87033: (Sim:3h33m33s) 
CPU  0 inst:  634000004 cyc:  711794952 now IPC :1.95921: AVG IPC :0.88912: L2-Pf-HR :0.89121: L2-HR :0.87037: (Sim:3h33m54s) 
CPU  0 inst:  635000005 cyc:  712299294 now IPC :1.98278: AVG IPC :0.88990: L2-Pf-HR :0.89124: L2-HR :0.87042: (Sim:3h34m15s) 
CPU  0 inst:  636000000 cyc:  712803307 now IPC :1.98407: AVG IPC :0.89067: L2-Pf-HR :0.89126: L2-HR :0.87047: (Sim:3h34m37s) 
CPU  0 inst:  637000000 cyc:  713309802 now IPC :1.97435: AVG IPC :0.89144: L2-Pf-HR :0.89125: L2-HR :0.87048: (Sim:3h34m58s) 
CPU  0 inst:  638000004 cyc:  713821583 now IPC :1.95397: AVG IPC :0.89220: L2-Pf-HR :0.89131: L2-HR :0.87056: (Sim:3h35m18s) 
CPU  0 inst:  639000000 cyc:  714323762 now IPC :1.99131: AVG IPC :0.89298: L2-Pf-HR :0.89137: L2-HR :0.87063: (Sim:3h35m38s) 
CPU  0 inst:  640000005 cyc:  714825576 now IPC :1.99278: AVG IPC :0.89375: L2-Pf-HR :0.89142: L2-HR :0.87070: (Sim:3h35m59s) 
CPU  0 inst:  641000004 cyc:  715327616 now IPC :1.99187: AVG IPC :0.89452: L2-Pf-HR :0.89146: L2-HR :0.87076: (Sim:3h36m20s) 
CPU  0 inst:  642000004 cyc:  715844236 now IPC :1.93566: AVG IPC :0.89528: L2-Pf-HR :0.89147: L2-HR :0.87079: (Sim:3h36m42s) 
CPU  0 inst:  643000003 cyc:  716349728 now IPC :1.97827: AVG IPC :0.89604: L2-Pf-HR :0.89152: L2-HR :0.87084: (Sim:3h37m2s) 
CPU  0 inst:  644000003 cyc:  716854447 now IPC :1.98130: AVG IPC :0.89681: L2-Pf-HR :0.89157: L2-HR :0.87091: (Sim:3h37m21s) 
CPU  0 inst:  645000001 cyc:  717358030 now IPC :1.98577: AVG IPC :0.89757: L2-Pf-HR :0.89162: L2-HR :0.87097: (Sim:3h37m43s) 
CPU  0 inst:  646000004 cyc:  717920390 now IPC :1.77823: AVG IPC :0.89826: L2-Pf-HR :0.89157: L2-HR :0.87095: (Sim:3h38m4s) 
CPU  0 inst:  647000003 cyc:  718491999 now IPC :1.74945: AVG IPC :0.89894: L2-Pf-HR :0.89149: L2-HR :0.87090: (Sim:3h38m26s) 
CPU  0 inst:  648000005 cyc:  719060981 now IPC :1.75753: AVG IPC :0.89962: L2-Pf-HR :0.89142: L2-HR :0.87086: (Sim:3h38m47s) 
CPU  0 inst:  649000002 cyc:  719633462 now IPC :1.74678: AVG IPC :0.90030: L2-Pf-HR :0.89135: L2-HR :0.87083: (Sim:3h39m2s) 
CPU  0 inst:  650000001 cyc:  720199082 now IPC :1.76797: AVG IPC :0.90098: L2-Pf-HR :0.89130: L2-HR :0.87080: (Sim:3h39m11s) 
CPU  0 inst:  651000004 cyc:  720705480 now IPC :1.97474: AVG IPC :0.90173: L2-Pf-HR :0.89134: L2-HR :0.87086: (Sim:3h39m21s) 
CPU  0 inst:  652000001 cyc:  721212072 now IPC :1.97397: AVG IPC :0.90249: L2-Pf-HR :0.89137: L2-HR :0.87092: (Sim:3h39m30s) 
CPU  0 inst:  653000005 cyc:  721718385 now IPC :1.97507: AVG IPC :0.90324: L2-Pf-HR :0.89139: L2-HR :0.87097: (Sim:3h39m39s) 
CPU  0 inst:  654000004 cyc:  722234175 now IPC :1.93877: AVG IPC :0.90398: L2-Pf-HR :0.89138: L2-HR :0.87098: (Sim:3h39m49s) 
CPU  0 inst:  655000001 cyc:  722737042 now IPC :1.98859: AVG IPC :0.90474: L2-Pf-HR :0.89144: L2-HR :0.87106: (Sim:3h39m58s) 
CPU  0 inst:  656000001 cyc:  723238978 now IPC :1.99229: AVG IPC :0.90549: L2-Pf-HR :0.89151: L2-HR :0.87113: (Sim:3h40m7s) 
CPU  0 inst:  657000002 cyc:  723740996 now IPC :1.99196: AVG IPC :0.90625: L2-Pf-HR :0.89157: L2-HR :0.87120: (Sim:3h40m16s) 
CPU  0 inst:  658000001 cyc:  724247237 now IPC :1.97534: AVG IPC :0.90700: L2-Pf-HR :0.89157: L2-HR :0.87123: (Sim:3h40m26s) 
CPU  0 inst:  659000003 cyc:  724762485 now IPC :1.94082: AVG IPC :0.90773: L2-Pf-HR :0.89160: L2-HR :0.87127: (Sim:3h40m40s) 
Finished CPU 0 instr: 657000002 cyc: 723781819 AVG IPC: 0.90773 (Sim time: 3h40m40s)

ChampSim completed all CPUs

[ROI Statistics]
Core_0_instructions 657000002
Core_0_cycles 723781819
Core_0_IPC 0.90773

Core_0_branch_prediction_accuracy 99.58944
Core_0_branch_MPKI 0.11916
Core_0_average_ROB_occupancy_at_mispredict 571.35073

Core_0_L1D_total_access 451405195
Core_0_L1D_total_hit 435354466 L1D_total_Hit Ratio: 0.96444
Core_0_L1D_total_miss 16050729
Core_0_L1D_loads 191456187
Core_0_L1D_load_hit 186347514 L1D_load_Hit Ratio: 0.97332
Core_0_L1D_load_miss 5108673
Core_0_L1D_RFOs 17215576
Core_0_L1D_RFO_hit 16215637 L1D_RFO_Hit Ratio: 0.94192
Core_0_L1D_RFO_miss 999939
Core_0_L1D_prefetches 242733432
Core_0_L1D_prefetch_hit 232791315 L1D_prefetch_Hit Ratio: 0.95904
Core_0_L1D_prefetch_miss 9942117
Core_0_L1D_writebacks 0
Core_0_L1D_writeback_hit 0 L1D_writeback_Hit Ratio: -nan
Core_0_L1D_writeback_miss 0
Core_0_L1D_prefetch_requested 579365070
Core_0_L1D_prefetch_issued 294538675
Core_0_L1D_prefetch_useful 7205678 L1D_Useful Ratio: 0.02446
Core_0_L1D_prefetch_useless 2757774
Core_0_L1D_prefetch_late 635775
Core_0_L1D_average_miss_latency 7510318.63307

Core_0_L1I_total_access 103129968
Core_0_L1I_total_hit 103127977 L1I_total_Hit Ratio: 0.99998
Core_0_L1I_total_miss 1991
Core_0_L1I_loads 103129968
Core_0_L1I_load_hit 103127977 L1I_load_Hit Ratio: 0.99998
Core_0_L1I_load_miss 1991
Core_0_L1I_RFOs 0
Core_0_L1I_RFO_hit 0 L1I_RFO_Hit Ratio: -nan
Core_0_L1I_RFO_miss 0
Core_0_L1I_prefetches 0
Core_0_L1I_prefetch_hit 0 L1I_prefetch_Hit Ratio: -nan
Core_0_L1I_prefetch_miss 0
Core_0_L1I_writebacks 0
Core_0_L1I_writeback_hit 0 L1I_writeback_Hit Ratio: -nan
Core_0_L1I_writeback_miss 0
Core_0_L1I_prefetch_requested 0
Core_0_L1I_prefetch_issued 0
Core_0_L1I_prefetch_useful 0 L1I_Useful Ratio: -nan
Core_0_L1I_prefetch_useless 0
Core_0_L1I_prefetch_late 0
Core_0_L1I_average_miss_latency 337.12958

Core_0_L2C_total_access 46787321
Core_0_L2C_total_hit 40764383 L2C_total_Hit Ratio: 0.87127
Core_0_L2C_total_miss 6022938
Core_0_L2C_loads 4476585
Core_0_L2C_load_hit 3511921 L2C_load_Hit Ratio: 0.78451
Core_0_L2C_load_miss 964664
Core_0_L2C_RFOs 999935
Core_0_L2C_RFO_hit 284 L2C_RFO_Hit Ratio: 0.00028
Core_0_L2C_RFO_miss 999651
Core_0_L2C_prefetches 37439739
Core_0_L2C_prefetch_hit 33381154 L2C_prefetch_Hit Ratio: 0.89160
Core_0_L2C_prefetch_miss 4058585
Core_0_L2C_writebacks 3871062
Core_0_L2C_writeback_hit 3871024 L2C_writeback_Hit Ratio: 0.99999
Core_0_L2C_writeback_miss 38
Core_0_L2C_prefetch_requested 75187832
Core_0_L2C_prefetch_issued 40113999
Core_0_L2C_prefetch_useful 1128886 L2C_Useful Ratio: 0.02814
Core_0_L2C_prefetch_useless 2891269
Core_0_L2C_prefetch_late 621050
Core_0_L2C_average_miss_latency 279.96209

Core_0_LLC_total_access 9321114
Core_0_LLC_total_hit 3805456 LLC_total_Hit Ratio: 0.40826
Core_0_LLC_total_miss 5515658
Core_0_LLC_loads 343623
Core_0_LLC_load_hit 96224 LLC_load_Hit Ratio: 0.28003
Core_0_LLC_load_miss 247399
Core_0_LLC_RFOs 999651
Core_0_LLC_RFO_hit 129 LLC_RFO_Hit Ratio: 0.00013
Core_0_LLC_RFO_miss 999522
Core_0_LLC_prefetches 4735013
Core_0_LLC_prefetch_hit 479672 LLC_prefetch_Hit Ratio: 0.10130
Core_0_LLC_prefetch_miss 4255341
Core_0_LLC_writebacks 3242827
Core_0_LLC_writeback_hit 3229431 LLC_writeback_Hit Ratio: 0.99587
Core_0_LLC_writeback_miss 13396
Core_0_LLC_prefetch_requested 0
Core_0_LLC_prefetch_issued 0
Core_0_LLC_prefetch_useful 89973 LLC_Useful Ratio: inf
Core_0_LLC_prefetch_useless 4066073
Core_0_LLC_prefetch_late 3302
Core_0_LLC_average_miss_latency 310.08683

Core_0_major_page_fault 0
Core_0_minor_page_fault 37887

CPU 0 L1D next line prefetcher final stats
CPU 0 L2C PC-based stride prefetcher final stats
Stride Degree: 15
MK1  MARKOV_LRU_SIZE: 128
MK1  MARKOV_PREDICTION_PERCENTTHRESHOLD: 40.00000
MK1  OUTLIERS_THRESHOLD_Max: 64
MK1  OUTLIERS_THRESHOLD_Min: 32
MK2  MARKOV_LRU_SIZE: 256
MK2  MARKOV_PREDICTION_PERCENTTHRESHOLD: 30.00000
MK2  OUTLIERS_THRESHOLD_Max: 32
MK2  OUTLIERS_THRESHOLD_Min: 16
MK3  MARKOV_LRU_SIZE: 384
MK3  MARKOV_PREDICTION_PERCENTTHRESHOLD: 25.00000
MK3  OUTLIERS_THRESHOLD_Max: 16
MK3  OUTLIERS_THRESHOLD_Min: 8
MK4  MARKOV_LRU_SIZE: 512
MK4  MARKOV_PREDICTION_PERCENTTHRESHOLD: 20.00000
MK4  OUTLIERS_THRESHOLD_Max: 8
MK4  OUTLIERS_THRESHOLD_Min: 0
IPStride Degree/Access Ratio: 3.38936
MK1 IPDEltaMarkov  Degree/Access Ratio: 0.47057
MK2 IPDEltaMarkov  Degree/Access Ratio: 0.14989
MK3 IPDEltaMarkov  Degree/Access Ratio: 0.35199
MK4 IPDEltaMarkov  Degree/Access Ratio: 0.87571
Channel_0_RQ_row_buffer_hit 2761849
Channel_0_RQ_row_buffer_miss 2740413
Channel_0_WQ_row_buffer_hit 946775
Channel_0_WQ_row_buffer_miss 2264532
Channel_0_WQ_full 6734
Channel_0_dbus_congested 4945091

avg_congested_cycle 8

EzSearch AVG IPC :0.90773: L2-Pf-HR :0.89160 : L2-HR :0.87127 Uful:0.02814
     > Finished combination: TraceType=770-tot Sim:657000000 Prefetcher=L2029-SecTOP-L2-MultiMarkovDelta_ip_stride_v4-MK2-P30 L1=next_line
