TRACE: [2366000000][OPT-6_7B]_[h32][s1024][d128] Warmup: 2000000 NumTraces: 2366000000
L1:berti:L2:berti
*************************************************
   ChampSim Multicore Out-of-Order Simulator
   Last compiled: Oct 26 2024 17:01:48
*************************************************

trace_0 770-tot_memTraces_v3/memTraces[2366000000][OPT-6_7B]_[h32][s1024][d128].champsim.xz
CPU 0 L1D Berti prefetcher
CPU 0 L2C Berti prefetcher
MAIN.cc ln 751 stats print skipped
CPU  0 inst:    1000000 cyc:     498016 now IPC :2.00797: AVG IPC :2.00797: L2-Pf-HR :0.65005: L2-HR :0.66529: (Sim:0h0m9s) 
CPU  0 inst:    2000002 cyc:     982824 now IPC :2.06268: AVG IPC :2.03495: L2-Pf-HR :0.74939: L2-HR :0.75099: (Sim:0h0m19s) 

Warmup complete CPU  0 instructions:    2000002 cycles:     982824 (Simulation time: 0 hr 0 min 19 sec) 

CPU  0 inst:    3000001 cyc:    1459722 now IPC :2.09688: AVG IPC :2.09688: L2-Pf-HR :0.88819: L2-HR :0.88891: (Sim:0h0m28s) 
CPU  0 inst:    4000003 cyc:    1933741 now IPC :2.10962: AVG IPC :2.10323: L2-Pf-HR :0.88821: L2-HR :0.89066: (Sim:0h0m36s) 
CPU  0 inst:    5000001 cyc:    2404865 now IPC :2.12258: AVG IPC :2.10964: L2-Pf-HR :0.88880: L2-HR :0.89199: (Sim:0h0m45s) 
CPU  0 inst:    6000004 cyc:    2880960 now IPC :2.10043: AVG IPC :2.10733: L2-Pf-HR :0.88923: L2-HR :0.89263: (Sim:0h0m53s) 
CPU  0 inst:    7000005 cyc:    3355927 now IPC :2.10541: AVG IPC :2.10695: L2-Pf-HR :0.89060: L2-HR :0.89381: (Sim:0h1m2s) 
CPU  0 inst:    8000002 cyc:    3832624 now IPC :2.09776: AVG IPC :2.10541: L2-Pf-HR :0.89136: L2-HR :0.89423: (Sim:0h1m10s) 
CPU  0 inst:    9000005 cyc:    4306912 now IPC :2.10843: AVG IPC :2.10584: L2-Pf-HR :0.89224: L2-HR :0.89516: (Sim:0h1m19s) 
CPU  0 inst:   10000003 cyc:    4780665 now IPC :2.11080: AVG IPC :2.10646: L2-Pf-HR :0.89241: L2-HR :0.89527: (Sim:0h1m27s) 
CPU  0 inst:   11000000 cyc:    5251444 now IPC :2.12413: AVG IPC :2.10841: L2-Pf-HR :0.89467: L2-HR :0.89731: (Sim:0h1m36s) 
CPU  0 inst:   12000000 cyc:    5730897 now IPC :2.08571: AVG IPC :2.10612: L2-Pf-HR :0.89953: L2-HR :0.90134: (Sim:0h1m45s) 
CPU  0 inst:   13000002 cyc:    6306952 now IPC :1.73595: AVG IPC :2.06607: L2-Pf-HR :0.89630: L2-HR :0.89406: (Sim:0h1m54s) 
CPU  0 inst:   14000005 cyc:    6778314 now IPC :2.12152: AVG IPC :2.07058: L2-Pf-HR :0.89639: L2-HR :0.89454: (Sim:0h2m3s) 
CPU  0 inst:   15000004 cyc:    7234699 now IPC :2.19113: AVG IPC :2.07938: L2-Pf-HR :0.89820: L2-HR :0.89679: (Sim:0h2m12s) 
CPU  0 inst:   16000005 cyc:    7684097 now IPC :2.22520: AVG IPC :2.08916: L2-Pf-HR :0.90003: L2-HR :0.89904: (Sim:0h2m20s) 
CPU  0 inst:   17000000 cyc:    8136102 now IPC :2.21235: AVG IPC :2.09694: L2-Pf-HR :0.90164: L2-HR :0.90098: (Sim:0h2m29s) 
CPU  0 inst:   18000001 cyc:    8585221 now IPC :2.22658: AVG IPC :2.10460: L2-Pf-HR :0.90333: L2-HR :0.90297: (Sim:0h2m37s) 
CPU  0 inst:   19000001 cyc:    9037882 now IPC :2.20916: AVG IPC :2.11048: L2-Pf-HR :0.90488: L2-HR :0.90471: (Sim:0h2m46s) 
CPU  0 inst:   20000000 cyc:    9488526 now IPC :2.21904: AVG IPC :2.11623: L2-Pf-HR :0.90611: L2-HR :0.90619: (Sim:0h2m54s) 
CPU  0 inst:   21000000 cyc:    9940503 now IPC :2.21250: AVG IPC :2.12108: L2-Pf-HR :0.90747: L2-HR :0.90774: (Sim:0h3m2s) 
CPU  0 inst:   22000001 cyc:   10391094 now IPC :2.21931: AVG IPC :2.12579: L2-Pf-HR :0.90872: L2-HR :0.90919: (Sim:0h3m11s) 
CPU  0 inst:   23000001 cyc:   10843692 now IPC :2.20947: AVG IPC :2.12963: L2-Pf-HR :0.91135: L2-HR :0.91167: (Sim:0h3m19s) 
CPU  0 inst:   24000003 cyc:   11361333 now IPC :1.93184: AVG IPC :2.11977: L2-Pf-HR :0.91311: L2-HR :0.91171: (Sim:0h3m28s) 
CPU  0 inst:   25000005 cyc:   11846803 now IPC :2.05986: AVG IPC :2.11709: L2-Pf-HR :0.91223: L2-HR :0.91075: (Sim:0h3m36s) 
CPU  0 inst:   26000000 cyc:   12305466 now IPC :2.18024: AVG IPC :2.11965: L2-Pf-HR :0.91264: L2-HR :0.91133: (Sim:0h3m45s) 
CPU  0 inst:   27000005 cyc:   12757223 now IPC :2.21359: AVG IPC :2.12325: L2-Pf-HR :0.91327: L2-HR :0.91219: (Sim:0h3m53s) 
CPU  0 inst:   28000000 cyc:   13211401 now IPC :2.20177: AVG IPC :2.12617: L2-Pf-HR :0.91383: L2-HR :0.91293: (Sim:0h4m1s) 
CPU  0 inst:   29000002 cyc:   13666186 now IPC :2.19885: AVG IPC :2.12877: L2-Pf-HR :0.91419: L2-HR :0.91348: (Sim:0h4m10s) 
CPU  0 inst:   30000000 cyc:   14116506 now IPC :2.22064: AVG IPC :2.13192: L2-Pf-HR :0.91486: L2-HR :0.91431: (Sim:0h4m18s) 
CPU  0 inst:   31000002 cyc:   14569795 now IPC :2.20610: AVG IPC :2.13440: L2-Pf-HR :0.91611: L2-HR :0.91556: (Sim:0h4m26s) 
CPU  0 inst:   32000002 cyc:   15136017 now IPC :1.76609: AVG IPC :2.11966: L2-Pf-HR :0.91654: L2-HR :0.91378: (Sim:0h4m35s) 
CPU  0 inst:   33000001 cyc:   15637708 now IPC :1.99326: AVG IPC :2.11534: L2-Pf-HR :0.91505: L2-HR :0.91219: (Sim:0h4m44s) 
CPU  0 inst:   34000000 cyc:   16121623 now IPC :2.06648: AVG IPC :2.11377: L2-Pf-HR :0.91442: L2-HR :0.91158: (Sim:0h4m53s) 
CPU  0 inst:   35000002 cyc:   16587016 now IPC :2.14873: AVG IPC :2.11482: L2-Pf-HR :0.91427: L2-HR :0.91159: (Sim:0h5m2s) 
CPU  0 inst:   36000001 cyc:   17060175 now IPC :2.11345: AVG IPC :2.11478: L2-Pf-HR :0.91432: L2-HR :0.91166: (Sim:0h5m10s) 
CPU  0 inst:   37000000 cyc:   17527319 now IPC :2.14067: AVG IPC :2.11551: L2-Pf-HR :0.91444: L2-HR :0.91183: (Sim:0h5m19s) 
CPU  0 inst:   38000000 cyc:   17997546 now IPC :2.12663: AVG IPC :2.11581: L2-Pf-HR :0.91433: L2-HR :0.91177: (Sim:0h5m28s) 
CPU  0 inst:   39000000 cyc:   18468858 now IPC :2.12174: AVG IPC :2.11597: L2-Pf-HR :0.91422: L2-HR :0.91171: (Sim:0h5m37s) 
CPU  0 inst:   40000002 cyc:   18942962 now IPC :2.10925: AVG IPC :2.11580: L2-Pf-HR :0.91436: L2-HR :0.91187: (Sim:0h5m45s) 
CPU  0 inst:   41000002 cyc:   19412803 now IPC :2.12838: AVG IPC :2.11612: L2-Pf-HR :0.91453: L2-HR :0.91200: (Sim:0h5m54s) 
CPU  0 inst:   42000004 cyc:   19878364 now IPC :2.14795: AVG IPC :2.11690: L2-Pf-HR :0.91480: L2-HR :0.91230: (Sim:0h6m3s) 
CPU  0 inst:   43000000 cyc:   20357289 now IPC :2.08800: AVG IPC :2.11619: L2-Pf-HR :0.91588: L2-HR :0.91317: (Sim:0h6m12s) 
CPU  0 inst:   44000000 cyc:   20931389 now IPC :1.74186: AVG IPC :2.10541: L2-Pf-HR :0.91610: L2-HR :0.91187: (Sim:0h6m21s) 
CPU  0 inst:   45000000 cyc:   21420095 now IPC :2.04622: AVG IPC :2.10400: L2-Pf-HR :0.91524: L2-HR :0.91116: (Sim:0h6m30s) 
CPU  0 inst:   46000005 cyc:   21891816 now IPC :2.11991: AVG IPC :2.10436: L2-Pf-HR :0.91510: L2-HR :0.91122: (Sim:0h6m40s) 
CPU  0 inst:   47000002 cyc:   22353233 now IPC :2.16723: AVG IPC :2.10572: L2-Pf-HR :0.91520: L2-HR :0.91151: (Sim:0h6m49s) 
CPU  0 inst:   48000000 cyc:   22814808 now IPC :2.16649: AVG IPC :2.10700: L2-Pf-HR :0.91539: L2-HR :0.91187: (Sim:0h6m57s) 
CPU  0 inst:   49000001 cyc:   23270765 now IPC :2.19319: AVG IPC :2.10876: L2-Pf-HR :0.91563: L2-HR :0.91228: (Sim:0h7m6s) 
CPU  0 inst:   50000002 cyc:   23725269 now IPC :2.20020: AVG IPC :2.11059: L2-Pf-HR :0.91589: L2-HR :0.91270: (Sim:0h7m15s) 
CPU  0 inst:   51000004 cyc:   24182006 now IPC :2.18945: AVG IPC :2.11214: L2-Pf-HR :0.91610: L2-HR :0.91307: (Sim:0h7m24s) 
CPU  0 inst:   52000004 cyc:   24636232 now IPC :2.20155: AVG IPC :2.11386: L2-Pf-HR :0.91639: L2-HR :0.91350: (Sim:0h7m32s) 
CPU  0 inst:   53000004 cyc:   25094313 now IPC :2.18302: AVG IPC :2.11517: L2-Pf-HR :0.91671: L2-HR :0.91394: (Sim:0h7m41s) 
CPU  0 inst:   54000005 cyc:   25543413 now IPC :2.22668: AVG IPC :2.11721: L2-Pf-HR :0.91719: L2-HR :0.91454: (Sim:0h7m50s) 
CPU  0 inst:   55000005 cyc:   25995307 now IPC :2.21291: AVG IPC :2.11894: L2-Pf-HR :0.91831: L2-HR :0.91563: (Sim:0h7m58s) 
CPU  0 inst:   56000001 cyc:   26576890 now IPC :1.71944: AVG IPC :2.10986: L2-Pf-HR :0.91818: L2-HR :0.91476: (Sim:0h8m7s) 
CPU  0 inst:   57000005 cyc:   27053719 now IPC :2.09720: AVG IPC :2.10963: L2-Pf-HR :0.91794: L2-HR :0.91464: (Sim:0h8m16s) 
CPU  0 inst:   58000002 cyc:   27515513 now IPC :2.16546: AVG IPC :2.11060: L2-Pf-HR :0.91802: L2-HR :0.91487: (Sim:0h8m25s) 
CPU  0 inst:   59000002 cyc:   27979026 now IPC :2.15744: AVG IPC :2.11141: L2-Pf-HR :0.91821: L2-HR :0.91517: (Sim:0h8m33s) 
CPU  0 inst:   60000001 cyc:   28438457 now IPC :2.17660: AVG IPC :2.11250: L2-Pf-HR :0.91838: L2-HR :0.91547: (Sim:0h8m42s) 
CPU  0 inst:   61000002 cyc:   28902740 now IPC :2.15386: AVG IPC :2.11319: L2-Pf-HR :0.91852: L2-HR :0.91572: (Sim:0h8m51s) 
CPU  0 inst:   62000002 cyc:   29366258 now IPC :2.15741: AVG IPC :2.11391: L2-Pf-HR :0.91878: L2-HR :0.91606: (Sim:0h8m59s) 
CPU  0 inst:   63000004 cyc:   29828337 now IPC :2.16414: AVG IPC :2.11471: L2-Pf-HR :0.91958: L2-HR :0.91686: (Sim:0h9m7s) 
CPU  0 inst:   64000004 cyc:   30477403 now IPC :1.54068: AVG IPC :2.10208: L2-Pf-HR :0.91916: L2-HR :0.91532: (Sim:0h9m17s) 
CPU  0 inst:   65000000 cyc:   30993909 now IPC :1.93608: AVG IPC :2.09922: L2-Pf-HR :0.91853: L2-HR :0.91465: (Sim:0h9m26s) 
CPU  0 inst:   66000000 cyc:   31476311 now IPC :2.07296: AVG IPC :2.09881: L2-Pf-HR :0.91835: L2-HR :0.91454: (Sim:0h9m34s) 
CPU  0 inst:   67000001 cyc:   31971662 now IPC :2.01877: AVG IPC :2.09753: L2-Pf-HR :0.91816: L2-HR :0.91441: (Sim:0h9m43s) 
CPU  0 inst:   68000002 cyc:   32463308 now IPC :2.03399: AVG IPC :2.09654: L2-Pf-HR :0.91812: L2-HR :0.91440: (Sim:0h9m52s) 
CPU  0 inst:   69000001 cyc:   32958168 now IPC :2.02077: AVG IPC :2.09536: L2-Pf-HR :0.91810: L2-HR :0.91440: (Sim:0h10m1s) 
CPU  0 inst:   70000000 cyc:   33449797 now IPC :2.03405: AVG IPC :2.09444: L2-Pf-HR :0.91808: L2-HR :0.91439: (Sim:0h10m10s) 
CPU  0 inst:   71000005 cyc:   33937886 now IPC :2.04882: AVG IPC :2.09376: L2-Pf-HR :0.91810: L2-HR :0.91445: (Sim:0h10m19s) 
CPU  0 inst:   72000005 cyc:   34422457 now IPC :2.06368: AVG IPC :2.09332: L2-Pf-HR :0.91800: L2-HR :0.91441: (Sim:0h10m28s) 
CPU  0 inst:   73000003 cyc:   34903640 now IPC :2.07821: AVG IPC :2.09311: L2-Pf-HR :0.91799: L2-HR :0.91445: (Sim:0h10m37s) 
CPU  0 inst:   74000001 cyc:   35389641 now IPC :2.05760: AVG IPC :2.09261: L2-Pf-HR :0.91828: L2-HR :0.91470: (Sim:0h10m46s) 
CPU  0 inst:   75000000 cyc:   35880210 now IPC :2.03845: AVG IPC :2.09185: L2-Pf-HR :0.91891: L2-HR :0.91524: (Sim:0h10m55s) 
CPU  0 inst:   76000003 cyc:   36539200 now IPC :1.51748: AVG IPC :2.08120: L2-Pf-HR :0.91851: L2-HR :0.91405: (Sim:0h11m5s) 
CPU  0 inst:   77000002 cyc:   37022301 now IPC :2.06996: AVG IPC :2.08105: L2-Pf-HR :0.91812: L2-HR :0.91378: (Sim:0h11m14s) 
CPU  0 inst:   78000005 cyc:   37484634 now IPC :2.16295: AVG IPC :2.08209: L2-Pf-HR :0.91809: L2-HR :0.91390: (Sim:0h11m23s) 
CPU  0 inst:   79000000 cyc:   37948195 now IPC :2.15720: AVG IPC :2.08303: L2-Pf-HR :0.91813: L2-HR :0.91406: (Sim:0h11m32s) 
CPU  0 inst:   80000001 cyc:   38409636 now IPC :2.16713: AVG IPC :2.08407: L2-Pf-HR :0.91824: L2-HR :0.91427: (Sim:0h11m41s) 
CPU  0 inst:   81000004 cyc:   38867415 now IPC :2.18447: AVG IPC :2.08528: L2-Pf-HR :0.91834: L2-HR :0.91448: (Sim:0h11m50s) 
CPU  0 inst:   82000005 cyc:   39330897 now IPC :2.15758: AVG IPC :2.08615: L2-Pf-HR :0.91841: L2-HR :0.91464: (Sim:0h11m59s) 
CPU  0 inst:   83000002 cyc:   39791521 now IPC :2.17096: AVG IPC :2.08716: L2-Pf-HR :0.91853: L2-HR :0.91485: (Sim:0h12m8s) 
CPU  0 inst:   84000003 cyc:   40255497 now IPC :2.15529: AVG IPC :2.08797: L2-Pf-HR :0.91869: L2-HR :0.91510: (Sim:0h12m17s) 
CPU  0 inst:   85000002 cyc:   40710297 now IPC :2.19877: AVG IPC :2.08923: L2-Pf-HR :0.91890: L2-HR :0.91539: (Sim:0h12m25s) 
CPU  0 inst:   86000005 cyc:   41167630 now IPC :2.18660: AVG IPC :2.09034: L2-Pf-HR :0.91939: L2-HR :0.91591: (Sim:0h12m34s) 
CPU  0 inst:   87000004 cyc:   41703347 now IPC :1.86666: AVG IPC :2.08740: L2-Pf-HR :0.91985: L2-HR :0.91602: (Sim:0h12m43s) 
CPU  0 inst:   88000004 cyc:   42236437 now IPC :1.87586: AVG IPC :2.08467: L2-Pf-HR :0.91956: L2-HR :0.91565: (Sim:0h12m52s) 
CPU  0 inst:   89000000 cyc:   42704995 now IPC :2.13420: AVG IPC :2.08522: L2-Pf-HR :0.91957: L2-HR :0.91574: (Sim:0h13m0s) 
CPU  0 inst:   90000000 cyc:   43167185 now IPC :2.16361: AVG IPC :2.08608: L2-Pf-HR :0.91966: L2-HR :0.91591: (Sim:0h13m9s) 
CPU  0 inst:   91000001 cyc:   43628315 now IPC :2.16859: AVG IPC :2.08697: L2-Pf-HR :0.91978: L2-HR :0.91611: (Sim:0h13m18s) 
CPU  0 inst:   92000001 cyc:   44089103 now IPC :2.17020: AVG IPC :2.08786: L2-Pf-HR :0.91989: L2-HR :0.91631: (Sim:0h13m28s) 
CPU  0 inst:   93000005 cyc:   44551027 now IPC :2.16487: AVG IPC :2.08868: L2-Pf-HR :0.92000: L2-HR :0.91651: (Sim:0h13m37s) 
CPU  0 inst:   94000003 cyc:   45016245 now IPC :2.14953: AVG IPC :2.08932: L2-Pf-HR :0.92027: L2-HR :0.91681: (Sim:0h13m46s) 
CPU  0 inst:   95000002 cyc:   45615669 now IPC :1.66827: AVG IPC :2.08367: L2-Pf-HR :0.92035: L2-HR :0.91639: (Sim:0h13m55s) 
CPU  0 inst:   96000001 cyc:   46161299 now IPC :1.83274: AVG IPC :2.08064: L2-Pf-HR :0.91990: L2-HR :0.91583: (Sim:0h14m4s) 
CPU  0 inst:   97000000 cyc:   46652779 now IPC :2.03467: AVG IPC :2.08014: L2-Pf-HR :0.91963: L2-HR :0.91559: (Sim:0h14m13s) 
CPU  0 inst:   98000001 cyc:   47148152 now IPC :2.01868: AVG IPC :2.07948: L2-Pf-HR :0.91952: L2-HR :0.91552: (Sim:0h14m24s) 
CPU  0 inst:   99000001 cyc:   47634989 now IPC :2.05408: AVG IPC :2.07922: L2-Pf-HR :0.91951: L2-HR :0.91553: (Sim:0h14m44s) 
CPU  0 inst:  100000003 cyc:   48123774 now IPC :2.04589: AVG IPC :2.07887: L2-Pf-HR :0.91939: L2-HR :0.91545: (Sim:0h15m4s) 
CPU  0 inst:  101000005 cyc:   48618158 now IPC :2.02272: AVG IPC :2.07829: L2-Pf-HR :0.91932: L2-HR :0.91537: (Sim:0h15m23s) 
CPU  0 inst:  102000003 cyc:   49099509 now IPC :2.07748: AVG IPC :2.07828: L2-Pf-HR :0.91931: L2-HR :0.91540: (Sim:0h15m43s) 
CPU  0 inst:  103000000 cyc:   49581395 now IPC :2.07517: AVG IPC :2.07825: L2-Pf-HR :0.91928: L2-HR :0.91541: (Sim:0h16m2s) 
CPU  0 inst:  104000005 cyc:   50059397 now IPC :2.09205: AVG IPC :2.07838: L2-Pf-HR :0.91933: L2-HR :0.91548: (Sim:0h16m22s) 
CPU  0 inst:  105000005 cyc:   50560222 now IPC :1.99671: AVG IPC :2.07756: L2-Pf-HR :0.91928: L2-HR :0.91545: (Sim:0h16m41s) 
CPU  0 inst:  106000002 cyc:   51051962 now IPC :2.03359: AVG IPC :2.07713: L2-Pf-HR :0.91956: L2-HR :0.91568: (Sim:0h17m1s) 
CPU  0 inst:  107000005 cyc:   51684310 now IPC :1.58141: AVG IPC :2.07095: L2-Pf-HR :0.91970: L2-HR :0.91526: (Sim:0h17m21s) 
CPU  0 inst:  108000005 cyc:   52201673 now IPC :1.93288: AVG IPC :2.06955: L2-Pf-HR :0.91942: L2-HR :0.91497: (Sim:0h17m42s) 
CPU  0 inst:  109000005 cyc:   52683624 now IPC :2.07490: AVG IPC :2.06960: L2-Pf-HR :0.91923: L2-HR :0.91486: (Sim:0h18m2s) 
CPU  0 inst:  110000004 cyc:   53142602 now IPC :2.17875: AVG IPC :2.07056: L2-Pf-HR :0.91920: L2-HR :0.91494: (Sim:0h18m22s) 
CPU  0 inst:  111000002 cyc:   53606976 now IPC :2.15343: AVG IPC :2.07129: L2-Pf-HR :0.91921: L2-HR :0.91503: (Sim:0h18m41s) 
CPU  0 inst:  112000000 cyc:   54067005 now IPC :2.17377: AVG IPC :2.07218: L2-Pf-HR :0.91925: L2-HR :0.91515: (Sim:0h19m1s) 
CPU  0 inst:  113000000 cyc:   54531988 now IPC :2.15062: AVG IPC :2.07286: L2-Pf-HR :0.91927: L2-HR :0.91525: (Sim:0h19m20s) 
CPU  0 inst:  114000003 cyc:   55001033 now IPC :2.13200: AVG IPC :2.07337: L2-Pf-HR :0.91933: L2-HR :0.91538: (Sim:0h19m39s) 
CPU  0 inst:  115000003 cyc:   55464000 now IPC :2.15998: AVG IPC :2.07411: L2-Pf-HR :0.91940: L2-HR :0.91551: (Sim:0h19m58s) 
CPU  0 inst:  116000003 cyc:   55926303 now IPC :2.16308: AVG IPC :2.07486: L2-Pf-HR :0.91950: L2-HR :0.91569: (Sim:0h20m18s) 
CPU  0 inst:  117000005 cyc:   56386654 now IPC :2.17226: AVG IPC :2.07567: L2-Pf-HR :0.91964: L2-HR :0.91590: (Sim:0h20m38s) 
CPU  0 inst:  118000004 cyc:   56845304 now IPC :2.18031: AVG IPC :2.07653: L2-Pf-HR :0.92015: L2-HR :0.91641: (Sim:0h20m57s) 
CPU  0 inst:  119000002 cyc:   57438663 now IPC :1.68532: AVG IPC :2.07242: L2-Pf-HR :0.92018: L2-HR :0.91611: (Sim:0h21m18s) 
CPU  0 inst:  120000003 cyc:   57918667 now IPC :2.08332: AVG IPC :2.07251: L2-Pf-HR :0.92001: L2-HR :0.91599: (Sim:0h21m37s) 
CPU  0 inst:  121000000 cyc:   58383428 now IPC :2.15164: AVG IPC :2.07315: L2-Pf-HR :0.92003: L2-HR :0.91608: (Sim:0h21m56s) 
CPU  0 inst:  122000004 cyc:   58844866 now IPC :2.16715: AVG IPC :2.07390: L2-Pf-HR :0.92011: L2-HR :0.91623: (Sim:0h22m15s) 
CPU  0 inst:  123000002 cyc:   59310221 now IPC :2.14889: AVG IPC :2.07450: L2-Pf-HR :0.92019: L2-HR :0.91637: (Sim:0h22m34s) 
CPU  0 inst:  124000000 cyc:   59775602 now IPC :2.14877: AVG IPC :2.07508: L2-Pf-HR :0.92025: L2-HR :0.91649: (Sim:0h22m53s) 
CPU  0 inst:  125000003 cyc:   60239067 now IPC :2.15767: AVG IPC :2.07573: L2-Pf-HR :0.92034: L2-HR :0.91664: (Sim:0h23m12s) 
CPU  0 inst:  126000001 cyc:   60700628 now IPC :2.16656: AVG IPC :2.07643: L2-Pf-HR :0.92070: L2-HR :0.91701: (Sim:0h23m31s) 
CPU  0 inst:  127000003 cyc:   61345333 now IPC :1.55110: AVG IPC :2.07082: L2-Pf-HR :0.92052: L2-HR :0.91632: (Sim:0h23m52s) 
CPU  0 inst:  128000005 cyc:   61852792 now IPC :1.97061: AVG IPC :2.06999: L2-Pf-HR :0.92014: L2-HR :0.91596: (Sim:0h24m11s) 
CPU  0 inst:  129000000 cyc:   62345889 now IPC :2.02799: AVG IPC :2.06965: L2-Pf-HR :0.91996: L2-HR :0.91583: (Sim:0h24m31s) 
CPU  0 inst:  130000003 cyc:   62838747 now IPC :2.02899: AVG IPC :2.06932: L2-Pf-HR :0.91992: L2-HR :0.91581: (Sim:0h24m51s) 
CPU  0 inst:  131000004 cyc:   63330021 now IPC :2.03553: AVG IPC :2.06906: L2-Pf-HR :0.91986: L2-HR :0.91577: (Sim:0h25m10s) 
CPU  0 inst:  132000005 cyc:   63822746 now IPC :2.02953: AVG IPC :2.06875: L2-Pf-HR :0.91983: L2-HR :0.91576: (Sim:0h25m30s) 
CPU  0 inst:  133000000 cyc:   64310300 now IPC :2.05104: AVG IPC :2.06861: L2-Pf-HR :0.91982: L2-HR :0.91577: (Sim:0h25m50s) 
CPU  0 inst:  134000004 cyc:   64787029 now IPC :2.09764: AVG IPC :2.06883: L2-Pf-HR :0.91973: L2-HR :0.91573: (Sim:0h26m9s) 
CPU  0 inst:  135000001 cyc:   65265726 now IPC :2.08900: AVG IPC :2.06898: L2-Pf-HR :0.91971: L2-HR :0.91574: (Sim:0h26m29s) 
CPU  0 inst:  136000000 cyc:   65757314 now IPC :2.03422: AVG IPC :2.06872: L2-Pf-HR :0.91970: L2-HR :0.91572: (Sim:0h26m49s) 
CPU  0 inst:  137000005 cyc:   66249299 now IPC :2.03259: AVG IPC :2.06844: L2-Pf-HR :0.91978: L2-HR :0.91580: (Sim:0h27m8s) 
CPU  0 inst:  138000002 cyc:   66734055 now IPC :2.06289: AVG IPC :2.06840: L2-Pf-HR :0.92014: L2-HR :0.91611: (Sim:0h27m28s) 
CPU  0 inst:  139000002 cyc:   67376336 now IPC :1.55695: AVG IPC :2.06345: L2-Pf-HR :0.92004: L2-HR :0.91557: (Sim:0h27m48s) 
CPU  0 inst:  140000001 cyc:   67867869 now IPC :2.03445: AVG IPC :2.06324: L2-Pf-HR :0.91978: L2-HR :0.91535: (Sim:0h28m9s) 
CPU  0 inst:  141000002 cyc:   68333296 now IPC :2.14857: AVG IPC :2.06383: L2-Pf-HR :0.91971: L2-HR :0.91537: (Sim:0h28m28s) 
CPU  0 inst:  142000002 cyc:   68793498 now IPC :2.17296: AVG IPC :2.06457: L2-Pf-HR :0.91973: L2-HR :0.91545: (Sim:0h28m48s) 
CPU  0 inst:  143000003 cyc:   69253577 now IPC :2.17354: AVG IPC :2.06531: L2-Pf-HR :0.91975: L2-HR :0.91553: (Sim:0h29m7s) 
CPU  0 inst:  144000000 cyc:   69715125 now IPC :2.16662: AVG IPC :2.06599: L2-Pf-HR :0.91973: L2-HR :0.91559: (Sim:0h29m26s) 
CPU  0 inst:  145000003 cyc:   70172182 now IPC :2.18792: AVG IPC :2.06679: L2-Pf-HR :0.91973: L2-HR :0.91566: (Sim:0h29m46s) 
CPU  0 inst:  146000003 cyc:   70628556 now IPC :2.19119: AVG IPC :2.06761: L2-Pf-HR :0.91978: L2-HR :0.91577: (Sim:0h30m5s) 
CPU  0 inst:  147000004 cyc:   71087663 now IPC :2.17814: AVG IPC :2.06833: L2-Pf-HR :0.91984: L2-HR :0.91589: (Sim:0h30m24s) 
CPU  0 inst:  148000002 cyc:   71545005 now IPC :2.18654: AVG IPC :2.06910: L2-Pf-HR :0.91992: L2-HR :0.91603: (Sim:0h30m43s) 
CPU  0 inst:  149000001 cyc:   72000832 now IPC :2.19381: AVG IPC :2.06990: L2-Pf-HR :0.92016: L2-HR :0.91629: (Sim:0h31m2s) 
CPU  0 inst:  150000000 cyc:   72469492 now IPC :2.13374: AVG IPC :2.07032: L2-Pf-HR :0.92056: L2-HR :0.91667: (Sim:0h31m21s) 
CPU  0 inst:  151000003 cyc:   73044167 now IPC :1.74012: AVG IPC :2.06768: L2-Pf-HR :0.92030: L2-HR :0.91618: (Sim:0h31m41s) 
CPU  0 inst:  152000002 cyc:   73512758 now IPC :2.13406: AVG IPC :2.06811: L2-Pf-HR :0.92028: L2-HR :0.91620: (Sim:0h32m0s) 
CPU  0 inst:  153000000 cyc:   73971076 now IPC :2.18189: AVG IPC :2.06883: L2-Pf-HR :0.92032: L2-HR :0.91630: (Sim:0h32m19s) 
CPU  0 inst:  154000002 cyc:   74430069 now IPC :2.17869: AVG IPC :2.06951: L2-Pf-HR :0.92039: L2-HR :0.91642: (Sim:0h32m38s) 
CPU  0 inst:  155000000 cyc:   74892165 now IPC :2.16405: AVG IPC :2.07010: L2-Pf-HR :0.92044: L2-HR :0.91652: (Sim:0h32m57s) 
CPU  0 inst:  156000003 cyc:   75353464 now IPC :2.16780: AVG IPC :2.07071: L2-Pf-HR :0.92049: L2-HR :0.91662: (Sim:0h33m16s) 
CPU  0 inst:  157000003 cyc:   75814586 now IPC :2.16862: AVG IPC :2.07131: L2-Pf-HR :0.92060: L2-HR :0.91678: (Sim:0h33m34s) 
CPU  0 inst:  158000000 cyc:   76376706 now IPC :1.77897: AVG IPC :2.06913: L2-Pf-HR :0.92071: L2-HR :0.91662: (Sim:0h33m54s) 
CPU  0 inst:  159000003 cyc:   76944635 now IPC :1.76079: AVG IPC :2.06683: L2-Pf-HR :0.92054: L2-HR :0.91633: (Sim:0h34m14s) 
CPU  0 inst:  160000000 cyc:   77451183 now IPC :1.97414: AVG IPC :2.06621: L2-Pf-HR :0.92031: L2-HR :0.91612: (Sim:0h34m33s) 
CPU  0 inst:  161000002 cyc:   77945973 now IPC :2.02106: AVG IPC :2.06592: L2-Pf-HR :0.92028: L2-HR :0.91609: (Sim:0h34m53s) 
CPU  0 inst:  162000001 cyc:   78439873 now IPC :2.02470: AVG IPC :2.06566: L2-Pf-HR :0.92020: L2-HR :0.91604: (Sim:0h35m12s) 
CPU  0 inst:  163000000 cyc:   78934464 now IPC :2.02187: AVG IPC :2.06538: L2-Pf-HR :0.92013: L2-HR :0.91599: (Sim:0h35m32s) 
CPU  0 inst:  164000005 cyc:   79426780 now IPC :2.03123: AVG IPC :2.06517: L2-Pf-HR :0.92010: L2-HR :0.91598: (Sim:0h35m51s) 
CPU  0 inst:  165000001 cyc:   79915343 now IPC :2.04681: AVG IPC :2.06506: L2-Pf-HR :0.92010: L2-HR :0.91600: (Sim:0h36m11s) 
CPU  0 inst:  166000000 cyc:   80401277 now IPC :2.05789: AVG IPC :2.06501: L2-Pf-HR :0.92011: L2-HR :0.91602: (Sim:0h36m30s) 
CPU  0 inst:  167000002 cyc:   80898046 now IPC :2.01301: AVG IPC :2.06469: L2-Pf-HR :0.92007: L2-HR :0.91599: (Sim:0h36m50s) 
CPU  0 inst:  168000004 cyc:   81391341 now IPC :2.02719: AVG IPC :2.06446: L2-Pf-HR :0.92002: L2-HR :0.91595: (Sim:0h37m9s) 
CPU  0 inst:  169000002 cyc:   81877963 now IPC :2.05498: AVG IPC :2.06440: L2-Pf-HR :0.92021: L2-HR :0.91613: (Sim:0h37m28s) 
CPU  0 inst:  170000005 cyc:   82484528 now IPC :1.64863: AVG IPC :2.06131: L2-Pf-HR :0.92031: L2-HR :0.91593: (Sim:0h37m49s) 
CPU  0 inst:  171000004 cyc:   83032545 now IPC :1.82476: AVG IPC :2.05973: L2-Pf-HR :0.92018: L2-HR :0.91572: (Sim:0h38m9s) 
CPU  0 inst:  172000004 cyc:   83519861 now IPC :2.05206: AVG IPC :2.05968: L2-Pf-HR :0.92004: L2-HR :0.91561: (Sim:0h38m29s) 
CPU  0 inst:  173000000 cyc:   83984296 now IPC :2.15315: AVG IPC :2.06020: L2-Pf-HR :0.92001: L2-HR :0.91565: (Sim:0h38m48s) 
CPU  0 inst:  174000003 cyc:   84442879 now IPC :2.18064: AVG IPC :2.06087: L2-Pf-HR :0.92003: L2-HR :0.91572: (Sim:0h39m7s) 
CPU  0 inst:  175000005 cyc:   84906275 now IPC :2.15799: AVG IPC :2.06140: L2-Pf-HR :0.92004: L2-HR :0.91578: (Sim:0h39m27s) 
CPU  0 inst:  176000002 cyc:   85368211 now IPC :2.16480: AVG IPC :2.06197: L2-Pf-HR :0.92006: L2-HR :0.91585: (Sim:0h39m46s) 
CPU  0 inst:  177000002 cyc:   85830173 now IPC :2.16468: AVG IPC :2.06253: L2-Pf-HR :0.92011: L2-HR :0.91595: (Sim:0h40m5s) 
CPU  0 inst:  178000002 cyc:   86291752 now IPC :2.16648: AVG IPC :2.06309: L2-Pf-HR :0.92016: L2-HR :0.91604: (Sim:0h40m24s) 
CPU  0 inst:  179000002 cyc:   86750057 now IPC :2.18195: AVG IPC :2.06373: L2-Pf-HR :0.92020: L2-HR :0.91613: (Sim:0h40m43s) 
CPU  0 inst:  180000001 cyc:   87209356 now IPC :2.17723: AVG IPC :2.06433: L2-Pf-HR :0.92024: L2-HR :0.91622: (Sim:0h41m2s) 
CPU  0 inst:  181000004 cyc:   87668959 now IPC :2.17580: AVG IPC :2.06492: L2-Pf-HR :0.92052: L2-HR :0.91650: (Sim:0h41m22s) 
CPU  0 inst:  182000005 cyc:   88243613 now IPC :1.74018: AVG IPC :2.06278: L2-Pf-HR :0.92062: L2-HR :0.91639: (Sim:0h41m42s) 
CPU  0 inst:  183000001 cyc:   88733337 now IPC :2.04196: AVG IPC :2.06267: L2-Pf-HR :0.92048: L2-HR :0.91627: (Sim:0h42m1s) 
CPU  0 inst:  184000003 cyc:   89194605 now IPC :2.16794: AVG IPC :2.06322: L2-Pf-HR :0.92050: L2-HR :0.91634: (Sim:0h42m20s) 
CPU  0 inst:  185000003 cyc:   89657650 now IPC :2.15962: AVG IPC :2.06372: L2-Pf-HR :0.92054: L2-HR :0.91642: (Sim:0h42m39s) 
CPU  0 inst:  186000002 cyc:   90121695 now IPC :2.15496: AVG IPC :2.06419: L2-Pf-HR :0.92057: L2-HR :0.91650: (Sim:0h42m58s) 
CPU  0 inst:  187000004 cyc:   90585882 now IPC :2.15431: AVG IPC :2.06466: L2-Pf-HR :0.92062: L2-HR :0.91659: (Sim:0h43m17s) 
CPU  0 inst:  188000001 cyc:   91046225 now IPC :2.17229: AVG IPC :2.06521: L2-Pf-HR :0.92067: L2-HR :0.91668: (Sim:0h43m35s) 
CPU  0 inst:  189000004 cyc:   91510064 now IPC :2.15593: AVG IPC :2.06568: L2-Pf-HR :0.92089: L2-HR :0.91690: (Sim:0h43m54s) 
CPU  0 inst:  190000003 cyc:   92149620 now IPC :1.56358: AVG IPC :2.06215: L2-Pf-HR :0.92082: L2-HR :0.91651: (Sim:0h44m15s) 
CPU  0 inst:  191000000 cyc:   92671044 now IPC :1.91782: AVG IPC :2.06133: L2-Pf-HR :0.92053: L2-HR :0.91622: (Sim:0h44m35s) 
CPU  0 inst:  192000001 cyc:   93166867 now IPC :2.01685: AVG IPC :2.06109: L2-Pf-HR :0.92043: L2-HR :0.91614: (Sim:0h44m54s) 
CPU  0 inst:  193000000 cyc:   93650818 now IPC :2.06632: AVG IPC :2.06112: L2-Pf-HR :0.92039: L2-HR :0.91612: (Sim:0h45m14s) 
CPU  0 inst:  194000000 cyc:   94148751 now IPC :2.00830: AVG IPC :2.06084: L2-Pf-HR :0.92037: L2-HR :0.91611: (Sim:0h45m33s) 
CPU  0 inst:  195000005 cyc:   94637417 now IPC :2.04640: AVG IPC :2.06076: L2-Pf-HR :0.92035: L2-HR :0.91610: (Sim:0h45m47s) 
CPU  0 inst:  196000001 cyc:   95123853 now IPC :2.05576: AVG IPC :2.06074: L2-Pf-HR :0.92028: L2-HR :0.91606: (Sim:0h45m57s) 
CPU  0 inst:  197000001 cyc:   95609652 now IPC :2.05846: AVG IPC :2.06073: L2-Pf-HR :0.92025: L2-HR :0.91606: (Sim:0h46m7s) 
CPU  0 inst:  198000001 cyc:   96105771 now IPC :2.01565: AVG IPC :2.06049: L2-Pf-HR :0.92023: L2-HR :0.91604: (Sim:0h46m16s) 
CPU  0 inst:  199000004 cyc:   96598085 now IPC :2.03123: AVG IPC :2.06034: L2-Pf-HR :0.92024: L2-HR :0.91606: (Sim:0h46m26s) 
CPU  0 inst:  200000005 cyc:   97085051 now IPC :2.05353: AVG IPC :2.06031: L2-Pf-HR :0.92031: L2-HR :0.91613: (Sim:0h46m35s) 
CPU  0 inst:  201000003 cyc:   97575485 now IPC :2.03901: AVG IPC :2.06020: L2-Pf-HR :0.92051: L2-HR :0.91630: (Sim:0h46m48s) 
CPU  0 inst:  202000000 cyc:   98229331 now IPC :1.52941: AVG IPC :2.05663: L2-Pf-HR :0.92052: L2-HR :0.91597: (Sim:0h46m58s) 
CPU  0 inst:  203000000 cyc:   98723415 now IPC :2.02395: AVG IPC :2.05646: L2-Pf-HR :0.92031: L2-HR :0.91580: (Sim:0h47m8s) 
CPU  0 inst:  204000001 cyc:   99193431 now IPC :2.12759: AVG IPC :2.05680: L2-Pf-HR :0.92029: L2-HR :0.91582: (Sim:0h47m18s) 
CPU  0 inst:  205000001 cyc:   99654422 now IPC :2.16924: AVG IPC :2.05733: L2-Pf-HR :0.92029: L2-HR :0.91587: (Sim:0h47m28s) 
CPU  0 inst:  206000002 cyc:  100121933 now IPC :2.13899: AVG IPC :2.05771: L2-Pf-HR :0.92032: L2-HR :0.91594: (Sim:0h47m37s) 
CPU  0 inst:  207000003 cyc:  100584885 now IPC :2.16005: AVG IPC :2.05819: L2-Pf-HR :0.92033: L2-HR :0.91600: (Sim:0h47m46s) 
CPU  0 inst:  208000002 cyc:  101047958 now IPC :2.15948: AVG IPC :2.05866: L2-Pf-HR :0.92035: L2-HR :0.91606: (Sim:0h47m56s) 
CPU  0 inst:  209000000 cyc:  101506931 now IPC :2.17877: AVG IPC :2.05921: L2-Pf-HR :0.92038: L2-HR :0.91614: (Sim:0h48m5s) 
CPU  0 inst:  210000000 cyc:  101967517 now IPC :2.17115: AVG IPC :2.05972: L2-Pf-HR :0.92041: L2-HR :0.91621: (Sim:0h48m15s) 
CPU  0 inst:  211000004 cyc:  102425594 now IPC :2.18305: AVG IPC :2.06028: L2-Pf-HR :0.92044: L2-HR :0.91628: (Sim:0h48m24s) 
CPU  0 inst:  212000004 cyc:  102885137 now IPC :2.17607: AVG IPC :2.06080: L2-Pf-HR :0.92058: L2-HR :0.91644: (Sim:0h48m34s) 
CPU  0 inst:  213000001 cyc:  103345920 now IPC :2.17021: AVG IPC :2.06129: L2-Pf-HR :0.92082: L2-HR :0.91668: (Sim:0h48m43s) 
CPU  0 inst:  214000003 cyc:  103948327 now IPC :1.66001: AVG IPC :2.05894: L2-Pf-HR :0.92070: L2-HR :0.91640: (Sim:0h48m53s) 
CPU  0 inst:  215000001 cyc:  104424448 now IPC :2.10030: AVG IPC :2.05913: L2-Pf-HR :0.92066: L2-HR :0.91639: (Sim:0h49m2s) 
CPU  0 inst:  216000003 cyc:  104889449 now IPC :2.15054: AVG IPC :2.05954: L2-Pf-HR :0.92070: L2-HR :0.91646: (Sim:0h49m12s) 
CPU  0 inst:  217000001 cyc:  105352154 now IPC :2.16120: AVG IPC :2.05999: L2-Pf-HR :0.92073: L2-HR :0.91653: (Sim:0h49m21s) 
CPU  0 inst:  218000000 cyc:  105821714 now IPC :2.12965: AVG IPC :2.06030: L2-Pf-HR :0.92077: L2-HR :0.91661: (Sim:0h49m30s) 
CPU  0 inst:  219000004 cyc:  106286817 now IPC :2.15007: AVG IPC :2.06070: L2-Pf-HR :0.92082: L2-HR :0.91669: (Sim:0h49m39s) 
CPU  0 inst:  220000000 cyc:  106750311 now IPC :2.15752: AVG IPC :2.06112: L2-Pf-HR :0.92086: L2-HR :0.91676: (Sim:0h49m49s) 
CPU  0 inst:  221000005 cyc:  107216529 now IPC :2.14493: AVG IPC :2.06149: L2-Pf-HR :0.92113: L2-HR :0.91702: (Sim:0h49m58s) 
CPU  0 inst:  222000001 cyc:  107879522 now IPC :1.50831: AVG IPC :2.05806: L2-Pf-HR :0.92084: L2-HR :0.91647: (Sim:0h50m8s) 
CPU  0 inst:  223000004 cyc:  108388588 now IPC :1.96439: AVG IPC :2.05762: L2-Pf-HR :0.92070: L2-HR :0.91634: (Sim:0h50m17s) 
CPU  0 inst:  224000004 cyc:  108881495 now IPC :2.02878: AVG IPC :2.05749: L2-Pf-HR :0.92062: L2-HR :0.91628: (Sim:0h50m27s) 
CPU  0 inst:  225000002 cyc:  109371515 now IPC :2.04073: AVG IPC :2.05741: L2-Pf-HR :0.92054: L2-HR :0.91623: (Sim:0h50m37s) 
CPU  0 inst:  226000003 cyc:  109858401 now IPC :2.05387: AVG IPC :2.05739: L2-Pf-HR :0.92053: L2-HR :0.91623: (Sim:0h50m46s) 
CPU  0 inst:  227000004 cyc:  110348869 now IPC :2.03887: AVG IPC :2.05731: L2-Pf-HR :0.92052: L2-HR :0.91623: (Sim:0h50m55s) 
CPU  0 inst:  228000002 cyc:  110835734 now IPC :2.05395: AVG IPC :2.05730: L2-Pf-HR :0.92051: L2-HR :0.91624: (Sim:0h51m5s) 
CPU  0 inst:  229000002 cyc:  111328821 now IPC :2.02804: AVG IPC :2.05717: L2-Pf-HR :0.92048: L2-HR :0.91621: (Sim:0h51m14s) 
CPU  0 inst:  230000000 cyc:  111822160 now IPC :2.02700: AVG IPC :2.05703: L2-Pf-HR :0.92043: L2-HR :0.91617: (Sim:0h51m24s) 
CPU  0 inst:  231000004 cyc:  112312028 now IPC :2.04137: AVG IPC :2.05696: L2-Pf-HR :0.92044: L2-HR :0.91619: (Sim:0h51m34s) 
CPU  0 inst:  232000000 cyc:  112806502 now IPC :2.02234: AVG IPC :2.05681: L2-Pf-HR :0.92056: L2-HR :0.91629: (Sim:0h51m43s) 
CPU  0 inst:  233000005 cyc:  113327172 now IPC :1.92061: AVG IPC :2.05618: L2-Pf-HR :0.92074: L2-HR :0.91638: (Sim:0h51m53s) 
CPU  0 inst:  234000001 cyc:  113940777 now IPC :1.62971: AVG IPC :2.05386: L2-Pf-HR :0.92055: L2-HR :0.91602: (Sim:0h52m3s) 
CPU  0 inst:  235000002 cyc:  114417217 now IPC :2.09890: AVG IPC :2.05405: L2-Pf-HR :0.92044: L2-HR :0.91596: (Sim:0h52m13s) 
CPU  0 inst:  236000000 cyc:  114880332 now IPC :2.15929: AVG IPC :2.05448: L2-Pf-HR :0.92043: L2-HR :0.91599: (Sim:0h52m22s) 
CPU  0 inst:  237000000 cyc:  115342620 now IPC :2.16315: AVG IPC :2.05492: L2-Pf-HR :0.92044: L2-HR :0.91604: (Sim:0h52m32s) 
CPU  0 inst:  238000005 cyc:  115805473 now IPC :2.16052: AVG IPC :2.05534: L2-Pf-HR :0.92047: L2-HR :0.91610: (Sim:0h52m41s) 
CPU  0 inst:  239000002 cyc:  116265263 now IPC :2.17490: AVG IPC :2.05582: L2-Pf-HR :0.92050: L2-HR :0.91616: (Sim:0h52m50s) 
CPU  0 inst:  240000003 cyc:  116723847 now IPC :2.18063: AVG IPC :2.05631: L2-Pf-HR :0.92052: L2-HR :0.91623: (Sim:0h53m0s) 
CPU  0 inst:  241000001 cyc:  117182334 now IPC :2.18108: AVG IPC :2.05681: L2-Pf-HR :0.92057: L2-HR :0.91630: (Sim:0h53m9s) 
CPU  0 inst:  242000001 cyc:  117643902 now IPC :2.16653: AVG IPC :2.05724: L2-Pf-HR :0.92061: L2-HR :0.91638: (Sim:0h53m18s) 
CPU  0 inst:  243000001 cyc:  118104236 now IPC :2.17234: AVG IPC :2.05769: L2-Pf-HR :0.92066: L2-HR :0.91646: (Sim:0h53m27s) 
CPU  0 inst:  244000001 cyc:  118565576 now IPC :2.16760: AVG IPC :2.05813: L2-Pf-HR :0.92085: L2-HR :0.91665: (Sim:0h53m36s) 
CPU  0 inst:  245000000 cyc:  119124300 now IPC :1.78979: AVG IPC :2.05686: L2-Pf-HR :0.92095: L2-HR :0.91660: (Sim:0h53m45s) 
CPU  0 inst:  246000000 cyc:  119620008 now IPC :2.01732: AVG IPC :2.05669: L2-Pf-HR :0.92085: L2-HR :0.91651: (Sim:0h53m55s) 
CPU  0 inst:  247000005 cyc:  120088901 now IPC :2.13269: AVG IPC :2.05699: L2-Pf-HR :0.92086: L2-HR :0.91655: (Sim:0h54m4s) 
CPU  0 inst:  248000001 cyc:  120551974 now IPC :2.15948: AVG IPC :2.05739: L2-Pf-HR :0.92089: L2-HR :0.91661: (Sim:0h54m17s) 
CPU  0 inst:  249000003 cyc:  121010641 now IPC :2.18024: AVG IPC :2.05786: L2-Pf-HR :0.92093: L2-HR :0.91669: (Sim:0h54m36s) 
CPU  0 inst:  250000003 cyc:  121476248 now IPC :2.14773: AVG IPC :2.05820: L2-Pf-HR :0.92096: L2-HR :0.91675: (Sim:0h54m55s) 
CPU  0 inst:  251000002 cyc:  121943008 now IPC :2.14243: AVG IPC :2.05853: L2-Pf-HR :0.92100: L2-HR :0.91682: (Sim:0h55m14s) 
CPU  0 inst:  252000005 cyc:  122404969 now IPC :2.16469: AVG IPC :2.05893: L2-Pf-HR :0.92112: L2-HR :0.91696: (Sim:0h55m33s) 
CPU  0 inst:  253000003 cyc:  123042316 now IPC :1.56900: AVG IPC :2.05637: L2-Pf-HR :0.92110: L2-HR :0.91670: (Sim:0h55m53s) 
CPU  0 inst:  254000005 cyc:  123563368 now IPC :1.91920: AVG IPC :2.05579: L2-Pf-HR :0.92091: L2-HR :0.91651: (Sim:0h56m13s) 
CPU  0 inst:  255000000 cyc:  124068531 now IPC :1.97955: AVG IPC :2.05548: L2-Pf-HR :0.92081: L2-HR :0.91642: (Sim:0h56m32s) 
CPU  0 inst:  256000000 cyc:  124559217 now IPC :2.03796: AVG IPC :2.05541: L2-Pf-HR :0.92079: L2-HR :0.91642: (Sim:0h56m52s) 
CPU  0 inst:  257000005 cyc:  125061799 now IPC :1.98974: AVG IPC :2.05514: L2-Pf-HR :0.92077: L2-HR :0.91639: (Sim:0h57m11s) 
CPU  0 inst:  258000004 cyc:  125550156 now IPC :2.04768: AVG IPC :2.05511: L2-Pf-HR :0.92072: L2-HR :0.91637: (Sim:0h57m31s) 
CPU  0 inst:  259000001 cyc:  126032347 now IPC :2.07386: AVG IPC :2.05519: L2-Pf-HR :0.92070: L2-HR :0.91636: (Sim:0h57m51s) 
CPU  0 inst:  260000002 cyc:  126523956 now IPC :2.03414: AVG IPC :2.05510: L2-Pf-HR :0.92069: L2-HR :0.91636: (Sim:0h58m10s) 
CPU  0 inst:  261000002 cyc:  127012566 now IPC :2.04662: AVG IPC :2.05507: L2-Pf-HR :0.92068: L2-HR :0.91636: (Sim:0h58m30s) 
CPU  0 inst:  262000000 cyc:  127500027 now IPC :2.05144: AVG IPC :2.05506: L2-Pf-HR :0.92068: L2-HR :0.91637: (Sim:0h58m49s) 
CPU  0 inst:  263000000 cyc:  127995825 now IPC :2.01695: AVG IPC :2.05491: L2-Pf-HR :0.92067: L2-HR :0.91637: (Sim:0h59m9s) 
CPU  0 inst:  264000001 cyc:  128476339 now IPC :2.08111: AVG IPC :2.05501: L2-Pf-HR :0.92082: L2-HR :0.91651: (Sim:0h59m28s) 
CPU  0 inst:  265000005 cyc:  129137416 now IPC :1.51269: AVG IPC :2.05221: L2-Pf-HR :0.92085: L2-HR :0.91627: (Sim:0h59m49s) 
CPU  0 inst:  266000000 cyc:  129633699 now IPC :2.01497: AVG IPC :2.05207: L2-Pf-HR :0.92070: L2-HR :0.91615: (Sim:1h0m10s) 
CPU  0 inst:  267000000 cyc:  130103765 now IPC :2.12736: AVG IPC :2.05234: L2-Pf-HR :0.92068: L2-HR :0.91617: (Sim:1h0m30s) 
CPU  0 inst:  268000005 cyc:  130563921 now IPC :2.17319: AVG IPC :2.05277: L2-Pf-HR :0.92068: L2-HR :0.91620: (Sim:1h0m49s) 
CPU  0 inst:  269000000 cyc:  131021441 now IPC :2.18569: AVG IPC :2.05324: L2-Pf-HR :0.92069: L2-HR :0.91625: (Sim:1h1m8s) 
CPU  0 inst:  270000002 cyc:  131482815 now IPC :2.16744: AVG IPC :2.05364: L2-Pf-HR :0.92072: L2-HR :0.91631: (Sim:1h1m27s) 
CPU  0 inst:  271000002 cyc:  131944560 now IPC :2.16570: AVG IPC :2.05404: L2-Pf-HR :0.92075: L2-HR :0.91637: (Sim:1h1m47s) 
CPU  0 inst:  272000002 cyc:  132402632 now IPC :2.18306: AVG IPC :2.05448: L2-Pf-HR :0.92077: L2-HR :0.91643: (Sim:1h2m6s) 
CPU  0 inst:  273000005 cyc:  132869133 now IPC :2.14362: AVG IPC :2.05480: L2-Pf-HR :0.92080: L2-HR :0.91649: (Sim:1h2m25s) 
CPU  0 inst:  274000005 cyc:  133329942 now IPC :2.17010: AVG IPC :2.05520: L2-Pf-HR :0.92083: L2-HR :0.91655: (Sim:1h2m44s) 
CPU  0 inst:  275000003 cyc:  133792555 now IPC :2.16163: AVG IPC :2.05557: L2-Pf-HR :0.92091: L2-HR :0.91665: (Sim:1h3m3s) 
CPU  0 inst:  276000000 cyc:  134255579 now IPC :2.15971: AVG IPC :2.05593: L2-Pf-HR :0.92112: L2-HR :0.91685: (Sim:1h3m22s) 
CPU  0 inst:  277000001 cyc:  134850113 now IPC :1.68199: AVG IPC :2.05427: L2-Pf-HR :0.92107: L2-HR :0.91667: (Sim:1h3m42s) 
CPU  0 inst:  278000000 cyc:  135325428 now IPC :2.10387: AVG IPC :2.05445: L2-Pf-HR :0.92103: L2-HR :0.91665: (Sim:1h4m1s) 
CPU  0 inst:  279000002 cyc:  135787367 now IPC :2.16479: AVG IPC :2.05483: L2-Pf-HR :0.92104: L2-HR :0.91670: (Sim:1h4m20s) 
CPU  0 inst:  280000000 cyc:  136248485 now IPC :2.16864: AVG IPC :2.05521: L2-Pf-HR :0.92107: L2-HR :0.91676: (Sim:1h4m38s) 
CPU  0 inst:  281000002 cyc:  136712811 now IPC :2.15366: AVG IPC :2.05555: L2-Pf-HR :0.92111: L2-HR :0.91682: (Sim:1h4m57s) 
CPU  0 inst:  282000003 cyc:  137174251 now IPC :2.16713: AVG IPC :2.05593: L2-Pf-HR :0.92113: L2-HR :0.91687: (Sim:1h5m16s) 
CPU  0 inst:  283000002 cyc:  137636338 now IPC :2.16409: AVG IPC :2.05630: L2-Pf-HR :0.92118: L2-HR :0.91694: (Sim:1h5m35s) 
CPU  0 inst:  284000005 cyc:  138100671 now IPC :2.15363: AVG IPC :2.05663: L2-Pf-HR :0.92135: L2-HR :0.91712: (Sim:1h5m53s) 
CPU  0 inst:  285000001 cyc:  138776100 now IPC :1.48053: AVG IPC :2.05380: L2-Pf-HR :0.92120: L2-HR :0.91674: (Sim:1h6m14s) 
CPU  0 inst:  286000000 cyc:  139290850 now IPC :1.94269: AVG IPC :2.05339: L2-Pf-HR :0.92104: L2-HR :0.91659: (Sim:1h6m34s) 
CPU  0 inst:  287000005 cyc:  139780463 now IPC :2.04244: AVG IPC :2.05335: L2-Pf-HR :0.92100: L2-HR :0.91656: (Sim:1h6m54s) 
CPU  0 inst:  288000002 cyc:  140279813 now IPC :2.00260: AVG IPC :2.05317: L2-Pf-HR :0.92095: L2-HR :0.91652: (Sim:1h7m14s) 
CPU  0 inst:  289000000 cyc:  140765369 now IPC :2.05949: AVG IPC :2.05319: L2-Pf-HR :0.92093: L2-HR :0.91652: (Sim:1h7m34s) 
CPU  0 inst:  290000003 cyc:  141247322 now IPC :2.07490: AVG IPC :2.05326: L2-Pf-HR :0.92092: L2-HR :0.91652: (Sim:1h7m54s) 
CPU  0 inst:  291000001 cyc:  141744210 now IPC :2.01252: AVG IPC :2.05312: L2-Pf-HR :0.92089: L2-HR :0.91650: (Sim:1h8m14s) 
CPU  0 inst:  292000005 cyc:  142226428 now IPC :2.07376: AVG IPC :2.05319: L2-Pf-HR :0.92086: L2-HR :0.91648: (Sim:1h8m34s) 
CPU  0 inst:  293000002 cyc:  142720894 now IPC :2.02238: AVG IPC :2.05308: L2-Pf-HR :0.92084: L2-HR :0.91647: (Sim:1h8m54s) 
CPU  0 inst:  294000004 cyc:  143211423 now IPC :2.03862: AVG IPC :2.05303: L2-Pf-HR :0.92084: L2-HR :0.91647: (Sim:1h9m15s) 
CPU  0 inst:  295000000 cyc:  143697117 now IPC :2.05890: AVG IPC :2.05305: L2-Pf-HR :0.92092: L2-HR :0.91655: (Sim:1h9m34s) 
CPU  0 inst:  296000000 cyc:  144195448 now IPC :2.00670: AVG IPC :2.05289: L2-Pf-HR :0.92107: L2-HR :0.91668: (Sim:1h9m54s) 
CPU  0 inst:  297000004 cyc:  144844449 now IPC :1.54084: AVG IPC :2.05058: L2-Pf-HR :0.92090: L2-HR :0.91634: (Sim:1h10m15s) 
CPU  0 inst:  298000000 cyc:  145324428 now IPC :2.08342: AVG IPC :2.05069: L2-Pf-HR :0.92082: L2-HR :0.91630: (Sim:1h10m36s) 
CPU  0 inst:  299000000 cyc:  145788402 now IPC :2.15529: AVG IPC :2.05103: L2-Pf-HR :0.92082: L2-HR :0.91633: (Sim:1h10m56s) 
CPU  0 inst:  300000002 cyc:  146246845 now IPC :2.18130: AVG IPC :2.05144: L2-Pf-HR :0.92083: L2-HR :0.91637: (Sim:1h11m15s) 
CPU  0 inst:  301000005 cyc:  146702635 now IPC :2.19400: AVG IPC :2.05188: L2-Pf-HR :0.92087: L2-HR :0.91644: (Sim:1h11m34s) 
CPU  0 inst:  302000004 cyc:  147161879 now IPC :2.17749: AVG IPC :2.05228: L2-Pf-HR :0.92089: L2-HR :0.91649: (Sim:1h11m54s) 
CPU  0 inst:  303000005 cyc:  147619253 now IPC :2.18640: AVG IPC :2.05270: L2-Pf-HR :0.92090: L2-HR :0.91654: (Sim:1h12m14s) 
CPU  0 inst:  304000005 cyc:  148080658 now IPC :2.16729: AVG IPC :2.05306: L2-Pf-HR :0.92093: L2-HR :0.91659: (Sim:1h12m33s) 
CPU  0 inst:  305000003 cyc:  148538393 now IPC :2.18467: AVG IPC :2.05346: L2-Pf-HR :0.92096: L2-HR :0.91665: (Sim:1h12m53s) 
CPU  0 inst:  306000000 cyc:  148995274 now IPC :2.18875: AVG IPC :2.05388: L2-Pf-HR :0.92100: L2-HR :0.91671: (Sim:1h13m12s) 
CPU  0 inst:  307000000 cyc:  149456677 now IPC :2.16730: AVG IPC :2.05423: L2-Pf-HR :0.92114: L2-HR :0.91686: (Sim:1h13m31s) 
CPU  0 inst:  308000001 cyc:  149989373 now IPC :1.87725: AVG IPC :2.05360: L2-Pf-HR :0.92122: L2-HR :0.91685: (Sim:1h13m51s) 
CPU  0 inst:  309000005 cyc:  150506000 now IPC :1.93564: AVG IPC :2.05319: L2-Pf-HR :0.92114: L2-HR :0.91675: (Sim:1h14m11s) 
CPU  0 inst:  310000001 cyc:  150969753 now IPC :2.15631: AVG IPC :2.05351: L2-Pf-HR :0.92114: L2-HR :0.91678: (Sim:1h14m30s) 
CPU  0 inst:  311000002 cyc:  151431532 now IPC :2.16554: AVG IPC :2.05386: L2-Pf-HR :0.92116: L2-HR :0.91683: (Sim:1h14m49s) 
CPU  0 inst:  312000004 cyc:  151896724 now IPC :2.14965: AVG IPC :2.05415: L2-Pf-HR :0.92118: L2-HR :0.91687: (Sim:1h15m9s) 
CPU  0 inst:  313000002 cyc:  152363139 now IPC :2.14401: AVG IPC :2.05443: L2-Pf-HR :0.92120: L2-HR :0.91692: (Sim:1h15m28s) 
CPU  0 inst:  314000004 cyc:  152824358 now IPC :2.16817: AVG IPC :2.05477: L2-Pf-HR :0.92124: L2-HR :0.91698: (Sim:1h15m47s) 
CPU  0 inst:  315000005 cyc:  153286636 now IPC :2.16320: AVG IPC :2.05510: L2-Pf-HR :0.92133: L2-HR :0.91709: (Sim:1h16m7s) 
CPU  0 inst:  316000000 cyc:  153891228 now IPC :1.65400: AVG IPC :2.05352: L2-Pf-HR :0.92136: L2-HR :0.91694: (Sim:1h16m27s) 
CPU  0 inst:  317000003 cyc:  154428150 now IPC :1.86247: AVG IPC :2.05285: L2-Pf-HR :0.92122: L2-HR :0.91678: (Sim:1h16m48s) 
CPU  0 inst:  318000004 cyc:  154927194 now IPC :2.00383: AVG IPC :2.05269: L2-Pf-HR :0.92114: L2-HR :0.91671: (Sim:1h17m8s) 
CPU  0 inst:  319000002 cyc:  155419944 now IPC :2.02942: AVG IPC :2.05262: L2-Pf-HR :0.92111: L2-HR :0.91668: (Sim:1h17m28s) 
CPU  0 inst:  320000001 cyc:  155911261 now IPC :2.03534: AVG IPC :2.05256: L2-Pf-HR :0.92107: L2-HR :0.91666: (Sim:1h17m48s) 
CPU  0 inst:  321000004 cyc:  156398603 now IPC :2.05195: AVG IPC :2.05256: L2-Pf-HR :0.92106: L2-HR :0.91665: (Sim:1h18m8s) 
CPU  0 inst:  322000000 cyc:  156895608 now IPC :2.01204: AVG IPC :2.05243: L2-Pf-HR :0.92104: L2-HR :0.91664: (Sim:1h18m28s) 
CPU  0 inst:  323000005 cyc:  157380409 now IPC :2.06271: AVG IPC :2.05246: L2-Pf-HR :0.92104: L2-HR :0.91665: (Sim:1h18m48s) 
CPU  0 inst:  324000000 cyc:  157875095 now IPC :2.02147: AVG IPC :2.05236: L2-Pf-HR :0.92103: L2-HR :0.91664: (Sim:1h19m8s) 
CPU  0 inst:  325000003 cyc:  158367947 now IPC :2.02901: AVG IPC :2.05229: L2-Pf-HR :0.92101: L2-HR :0.91663: (Sim:1h19m28s) 
CPU  0 inst:  326000000 cyc:  158849763 now IPC :2.07547: AVG IPC :2.05236: L2-Pf-HR :0.92100: L2-HR :0.91663: (Sim:1h19m48s) 
CPU  0 inst:  327000004 cyc:  159347598 now IPC :2.00871: AVG IPC :2.05222: L2-Pf-HR :0.92111: L2-HR :0.91672: (Sim:1h20m7s) 
CPU  0 inst:  328000002 cyc:  159981027 now IPC :1.57871: AVG IPC :2.05034: L2-Pf-HR :0.92111: L2-HR :0.91656: (Sim:1h20m28s) 
CPU  0 inst:  329000000 cyc:  160478014 now IPC :2.01212: AVG IPC :2.05022: L2-Pf-HR :0.92100: L2-HR :0.91646: (Sim:1h20m49s) 
CPU  0 inst:  330000000 cyc:  160950272 now IPC :2.11749: AVG IPC :2.05042: L2-Pf-HR :0.92096: L2-HR :0.91646: (Sim:1h21m10s) 
CPU  0 inst:  331000002 cyc:  161407968 now IPC :2.18486: AVG IPC :2.05080: L2-Pf-HR :0.92097: L2-HR :0.91650: (Sim:1h21m30s) 
CPU  0 inst:  332000005 cyc:  161864472 now IPC :2.19057: AVG IPC :2.05120: L2-Pf-HR :0.92098: L2-HR :0.91654: (Sim:1h21m49s) 
CPU  0 inst:  333000004 cyc:  162323321 now IPC :2.17936: AVG IPC :2.05156: L2-Pf-HR :0.92101: L2-HR :0.91659: (Sim:1h22m9s) 
CPU  0 inst:  334000004 cyc:  162778259 now IPC :2.19810: AVG IPC :2.05197: L2-Pf-HR :0.92101: L2-HR :0.91663: (Sim:1h22m28s) 
CPU  0 inst:  335000000 cyc:  163236873 now IPC :2.18047: AVG IPC :2.05234: L2-Pf-HR :0.92103: L2-HR :0.91668: (Sim:1h22m48s) 
CPU  0 inst:  336000001 cyc:  163697692 now IPC :2.17005: AVG IPC :2.05267: L2-Pf-HR :0.92106: L2-HR :0.91673: (Sim:1h23m8s) 
CPU  0 inst:  337000000 cyc:  164155304 now IPC :2.18526: AVG IPC :2.05304: L2-Pf-HR :0.92109: L2-HR :0.91678: (Sim:1h23m27s) 
CPU  0 inst:  338000004 cyc:  164609598 now IPC :2.20123: AVG IPC :2.05345: L2-Pf-HR :0.92114: L2-HR :0.91686: (Sim:1h23m47s) 
CPU  0 inst:  339000000 cyc:  165066171 now IPC :2.19022: AVG IPC :2.05383: L2-Pf-HR :0.92131: L2-HR :0.91703: (Sim:1h24m7s) 
CPU  0 inst:  340000005 cyc:  165660955 now IPC :1.68129: AVG IPC :2.05249: L2-Pf-HR :0.92130: L2-HR :0.91691: (Sim:1h24m27s) 
CPU  0 inst:  341000000 cyc:  166150193 now IPC :2.04398: AVG IPC :2.05246: L2-Pf-HR :0.92125: L2-HR :0.91688: (Sim:1h24m47s) 
CPU  0 inst:  342000001 cyc:  166616083 now IPC :2.14643: AVG IPC :2.05273: L2-Pf-HR :0.92125: L2-HR :0.91691: (Sim:1h25m6s) 
CPU  0 inst:  343000005 cyc:  167078190 now IPC :2.16401: AVG IPC :2.05304: L2-Pf-HR :0.92127: L2-HR :0.91694: (Sim:1h25m25s) 
CPU  0 inst:  344000002 cyc:  167537713 now IPC :2.17616: AVG IPC :2.05338: L2-Pf-HR :0.92129: L2-HR :0.91699: (Sim:1h25m45s) 
CPU  0 inst:  345000003 cyc:  168001516 now IPC :2.15609: AVG IPC :2.05366: L2-Pf-HR :0.92131: L2-HR :0.91704: (Sim:1h26m4s) 
CPU  0 inst:  346000004 cyc:  168466777 now IPC :2.14933: AVG IPC :2.05393: L2-Pf-HR :0.92134: L2-HR :0.91709: (Sim:1h26m23s) 
CPU  0 inst:  347000003 cyc:  168930129 now IPC :2.15818: AVG IPC :2.05422: L2-Pf-HR :0.92149: L2-HR :0.91723: (Sim:1h26m42s) 
CPU  0 inst:  348000004 cyc:  169574085 now IPC :1.55290: AVG IPC :2.05230: L2-Pf-HR :0.92138: L2-HR :0.91696: (Sim:1h27m3s) 
CPU  0 inst:  349000000 cyc:  170078156 now IPC :1.98384: AVG IPC :2.05210: L2-Pf-HR :0.92124: L2-HR :0.91683: (Sim:1h27m23s) 
CPU  0 inst:  350000005 cyc:  170574602 now IPC :2.01433: AVG IPC :2.05199: L2-Pf-HR :0.92119: L2-HR :0.91678: (Sim:1h27m44s) 
CPU  0 inst:  351000002 cyc:  171065221 now IPC :2.03824: AVG IPC :2.05195: L2-Pf-HR :0.92117: L2-HR :0.91677: (Sim:1h28m4s) 
CPU  0 inst:  352000000 cyc:  171559385 now IPC :2.02362: AVG IPC :2.05186: L2-Pf-HR :0.92116: L2-HR :0.91678: (Sim:1h28m23s) 
CPU  0 inst:  353000000 cyc:  172062284 now IPC :1.98847: AVG IPC :2.05168: L2-Pf-HR :0.92113: L2-HR :0.91675: (Sim:1h28m44s) 
CPU  0 inst:  354000001 cyc:  172548978 now IPC :2.05468: AVG IPC :2.05169: L2-Pf-HR :0.92111: L2-HR :0.91675: (Sim:1h29m3s) 
CPU  0 inst:  355000001 cyc:  173044082 now IPC :2.01978: AVG IPC :2.05159: L2-Pf-HR :0.92109: L2-HR :0.91673: (Sim:1h29m24s) 
CPU  0 inst:  356000005 cyc:  173534289 now IPC :2.03996: AVG IPC :2.05156: L2-Pf-HR :0.92108: L2-HR :0.91673: (Sim:1h29m44s) 
CPU  0 inst:  357000002 cyc:  174012791 now IPC :2.08985: AVG IPC :2.05167: L2-Pf-HR :0.92108: L2-HR :0.91675: (Sim:1h30m3s) 
CPU  0 inst:  358000000 cyc:  174502799 now IPC :2.04078: AVG IPC :2.05164: L2-Pf-HR :0.92112: L2-HR :0.91678: (Sim:1h30m23s) 
CPU  0 inst:  359000004 cyc:  174987341 now IPC :2.06381: AVG IPC :2.05167: L2-Pf-HR :0.92123: L2-HR :0.91688: (Sim:1h30m43s) 
CPU  0 inst:  360000005 cyc:  175642625 now IPC :1.52606: AVG IPC :2.04970: L2-Pf-HR :0.92116: L2-HR :0.91665: (Sim:1h31m4s) 
CPU  0 inst:  361000003 cyc:  176125596 now IPC :2.07051: AVG IPC :2.04976: L2-Pf-HR :0.92106: L2-HR :0.91657: (Sim:1h31m25s) 
CPU  0 inst:  362000002 cyc:  176593540 now IPC :2.13701: AVG IPC :2.04999: L2-Pf-HR :0.92103: L2-HR :0.91658: (Sim:1h31m45s) 
CPU  0 inst:  363000003 cyc:  177050899 now IPC :2.18647: AVG IPC :2.05034: L2-Pf-HR :0.92104: L2-HR :0.91662: (Sim:1h32m5s) 
CPU  0 inst:  364000003 cyc:  177510080 now IPC :2.17779: AVG IPC :2.05067: L2-Pf-HR :0.92107: L2-HR :0.91666: (Sim:1h32m25s) 
CPU  0 inst:  365000000 cyc:  177968544 now IPC :2.18119: AVG IPC :2.05101: L2-Pf-HR :0.92108: L2-HR :0.91670: (Sim:1h32m44s) 
CPU  0 inst:  366000004 cyc:  178430796 now IPC :2.16333: AVG IPC :2.05131: L2-Pf-HR :0.92110: L2-HR :0.91675: (Sim:1h33m4s) 
CPU  0 inst:  367000001 cyc:  178892312 now IPC :2.16677: AVG IPC :2.05160: L2-Pf-HR :0.92112: L2-HR :0.91679: (Sim:1h33m23s) 
CPU  0 inst:  368000005 cyc:  179350476 now IPC :2.18263: AVG IPC :2.05194: L2-Pf-HR :0.92115: L2-HR :0.91684: (Sim:1h33m43s) 
CPU  0 inst:  369000000 cyc:  179803691 now IPC :2.20645: AVG IPC :2.05233: L2-Pf-HR :0.92118: L2-HR :0.91690: (Sim:1h34m2s) 
CPU  0 inst:  370000003 cyc:  180260393 now IPC :2.18962: AVG IPC :2.05268: L2-Pf-HR :0.92129: L2-HR :0.91701: (Sim:1h34m21s) 
CPU  0 inst:  371000001 cyc:  180737570 now IPC :2.09565: AVG IPC :2.05280: L2-Pf-HR :0.92144: L2-HR :0.91714: (Sim:1h34m41s) 
CPU  0 inst:  372000005 cyc:  181330117 now IPC :1.68764: AVG IPC :2.05160: L2-Pf-HR :0.92131: L2-HR :0.91694: (Sim:1h35m1s) 
CPU  0 inst:  373000001 cyc:  181798806 now IPC :2.13360: AVG IPC :2.05181: L2-Pf-HR :0.92131: L2-HR :0.91696: (Sim:1h35m21s) 
CPU  0 inst:  374000002 cyc:  182261529 now IPC :2.16112: AVG IPC :2.05209: L2-Pf-HR :0.92133: L2-HR :0.91700: (Sim:1h35m40s) 
CPU  0 inst:  375000002 cyc:  182723867 now IPC :2.16292: AVG IPC :2.05237: L2-Pf-HR :0.92135: L2-HR :0.91705: (Sim:1h35m59s) 
CPU  0 inst:  376000002 cyc:  183192238 now IPC :2.13506: AVG IPC :2.05258: L2-Pf-HR :0.92137: L2-HR :0.91709: (Sim:1h36m19s) 
CPU  0 inst:  377000004 cyc:  183654774 now IPC :2.16200: AVG IPC :2.05286: L2-Pf-HR :0.92139: L2-HR :0.91713: (Sim:1h36m38s) 
CPU  0 inst:  378000002 cyc:  184117749 now IPC :2.15994: AVG IPC :2.05313: L2-Pf-HR :0.92144: L2-HR :0.91719: (Sim:1h36m57s) 
CPU  0 inst:  379000002 cyc:  184703635 now IPC :1.70682: AVG IPC :2.05203: L2-Pf-HR :0.92148: L2-HR :0.91711: (Sim:1h37m18s) 
CPU  0 inst:  380000003 cyc:  185269346 now IPC :1.76769: AVG IPC :2.05115: L2-Pf-HR :0.92140: L2-HR :0.91699: (Sim:1h37m38s) 
CPU  0 inst:  381000005 cyc:  185781634 now IPC :1.95203: AVG IPC :2.05088: L2-Pf-HR :0.92132: L2-HR :0.91691: (Sim:1h37m58s) 
CPU  0 inst:  382000000 cyc:  186271068 now IPC :2.04317: AVG IPC :2.05086: L2-Pf-HR :0.92127: L2-HR :0.91687: (Sim:1h38m18s) 
CPU  0 inst:  383000002 cyc:  186756317 now IPC :2.06080: AVG IPC :2.05088: L2-Pf-HR :0.92124: L2-HR :0.91686: (Sim:1h38m38s) 
CPU  0 inst:  384000002 cyc:  187255682 now IPC :2.00254: AVG IPC :2.05076: L2-Pf-HR :0.92122: L2-HR :0.91684: (Sim:1h38m59s) 
CPU  0 inst:  385000000 cyc:  187739569 now IPC :2.06659: AVG IPC :2.05080: L2-Pf-HR :0.92122: L2-HR :0.91685: (Sim:1h39m18s) 
CPU  0 inst:  386000002 cyc:  188231293 now IPC :2.03367: AVG IPC :2.05075: L2-Pf-HR :0.92121: L2-HR :0.91684: (Sim:1h39m38s) 
CPU  0 inst:  387000001 cyc:  188719840 now IPC :2.04688: AVG IPC :2.05074: L2-Pf-HR :0.92119: L2-HR :0.91683: (Sim:1h39m58s) 
CPU  0 inst:  388000002 cyc:  189196400 now IPC :2.09837: AVG IPC :2.05086: L2-Pf-HR :0.92116: L2-HR :0.91682: (Sim:1h40m16s) 
CPU  0 inst:  389000003 cyc:  189693791 now IPC :2.01049: AVG IPC :2.05076: L2-Pf-HR :0.92115: L2-HR :0.91681: (Sim:1h40m34s) 
CPU  0 inst:  390000001 cyc:  190178628 now IPC :2.06254: AVG IPC :2.05079: L2-Pf-HR :0.92124: L2-HR :0.91690: (Sim:1h40m53s) 
CPU  0 inst:  391000003 cyc:  190801135 now IPC :1.60641: AVG IPC :2.04933: L2-Pf-HR :0.92125: L2-HR :0.91679: (Sim:1h41m12s) 
CPU  0 inst:  392000003 cyc:  191321979 now IPC :1.91996: AVG IPC :2.04897: L2-Pf-HR :0.92117: L2-HR :0.91671: (Sim:1h41m31s) 
CPU  0 inst:  393000001 cyc:  191795508 now IPC :2.11180: AVG IPC :2.04913: L2-Pf-HR :0.92112: L2-HR :0.91668: (Sim:1h41m52s) 
CPU  0 inst:  394000005 cyc:  192254653 now IPC :2.17797: AVG IPC :2.04944: L2-Pf-HR :0.92111: L2-HR :0.91670: (Sim:1h42m10s) 
CPU  0 inst:  395000000 cyc:  192712629 now IPC :2.18351: AVG IPC :2.04976: L2-Pf-HR :0.92113: L2-HR :0.91674: (Sim:1h42m29s) 
CPU  0 inst:  396000004 cyc:  193174827 now IPC :2.16358: AVG IPC :2.05003: L2-Pf-HR :0.92114: L2-HR :0.91677: (Sim:1h42m47s) 
CPU  0 inst:  397000004 cyc:  193636625 now IPC :2.16545: AVG IPC :2.05031: L2-Pf-HR :0.92115: L2-HR :0.91681: (Sim:1h43m5s) 
CPU  0 inst:  398000003 cyc:  194099939 now IPC :2.15836: AVG IPC :2.05057: L2-Pf-HR :0.92117: L2-HR :0.91685: (Sim:1h43m25s) 
CPU  0 inst:  399000003 cyc:  194560782 now IPC :2.16994: AVG IPC :2.05085: L2-Pf-HR :0.92119: L2-HR :0.91689: (Sim:1h43m43s) 
CPU  0 inst:  400000003 cyc:  195017438 now IPC :2.18983: AVG IPC :2.05118: L2-Pf-HR :0.92122: L2-HR :0.91694: (Sim:1h44m1s) 
CPU  0 inst:  401000003 cyc:  195471613 now IPC :2.20179: AVG IPC :2.05153: L2-Pf-HR :0.92126: L2-HR :0.91700: (Sim:1h44m20s) 
CPU  0 inst:  402000005 cyc:  195927527 now IPC :2.19340: AVG IPC :2.05186: L2-Pf-HR :0.92140: L2-HR :0.91714: (Sim:1h44m38s) 
CPU  0 inst:  403000001 cyc:  196515631 now IPC :1.70037: AVG IPC :2.05081: L2-Pf-HR :0.92142: L2-HR :0.91707: (Sim:1h44m57s) 
CPU  0 inst:  404000002 cyc:  197003232 now IPC :2.05086: AVG IPC :2.05081: L2-Pf-HR :0.92136: L2-HR :0.91702: (Sim:1h45m15s) 
CPU  0 inst:  405000001 cyc:  197466975 now IPC :2.15636: AVG IPC :2.05106: L2-Pf-HR :0.92137: L2-HR :0.91705: (Sim:1h45m33s) 
CPU  0 inst:  406000004 cyc:  197926329 now IPC :2.17698: AVG IPC :2.05135: L2-Pf-HR :0.92138: L2-HR :0.91708: (Sim:1h45m52s) 
CPU  0 inst:  407000001 cyc:  198392967 now IPC :2.14298: AVG IPC :2.05157: L2-Pf-HR :0.92140: L2-HR :0.91712: (Sim:1h46m10s) 
CPU  0 inst:  408000005 cyc:  198856881 now IPC :2.15558: AVG IPC :2.05181: L2-Pf-HR :0.92142: L2-HR :0.91716: (Sim:1h46m28s) 
CPU  0 inst:  409000004 cyc:  199315814 now IPC :2.17897: AVG IPC :2.05210: L2-Pf-HR :0.92145: L2-HR :0.91720: (Sim:1h46m47s) 
CPU  0 inst:  410000000 cyc:  199777519 now IPC :2.16588: AVG IPC :2.05237: L2-Pf-HR :0.92154: L2-HR :0.91730: (Sim:1h47m5s) 
CPU  0 inst:  411000004 cyc:  200435673 now IPC :1.51941: AVG IPC :2.05061: L2-Pf-HR :0.92151: L2-HR :0.91712: (Sim:1h47m25s) 
CPU  0 inst:  412000003 cyc:  200955756 now IPC :1.92277: AVG IPC :2.05028: L2-Pf-HR :0.92139: L2-HR :0.91699: (Sim:1h47m44s) 
CPU  0 inst:  413000001 cyc:  201450980 now IPC :2.01928: AVG IPC :2.05020: L2-Pf-HR :0.92134: L2-HR :0.91695: (Sim:1h48m3s) 
CPU  0 inst:  414000001 cyc:  201934032 now IPC :2.07017: AVG IPC :2.05025: L2-Pf-HR :0.92132: L2-HR :0.91695: (Sim:1h48m22s) 
CPU  0 inst:  415000003 cyc:  202426590 now IPC :2.03022: AVG IPC :2.05020: L2-Pf-HR :0.92130: L2-HR :0.91693: (Sim:1h48m41s) 
CPU  0 inst:  416000002 cyc:  202908870 now IPC :2.07348: AVG IPC :2.05026: L2-Pf-HR :0.92128: L2-HR :0.91692: (Sim:1h48m58s) 
CPU  0 inst:  417000004 cyc:  203405753 now IPC :2.01255: AVG IPC :2.05016: L2-Pf-HR :0.92127: L2-HR :0.91691: (Sim:1h49m18s) 
CPU  0 inst:  418000005 cyc:  203891147 now IPC :2.06018: AVG IPC :2.05019: L2-Pf-HR :0.92126: L2-HR :0.91691: (Sim:1h49m37s) 
CPU  0 inst:  419000003 cyc:  204367235 now IPC :2.10045: AVG IPC :2.05030: L2-Pf-HR :0.92125: L2-HR :0.91691: (Sim:1h49m55s) 
CPU  0 inst:  420000001 cyc:  204866440 now IPC :2.00318: AVG IPC :2.05019: L2-Pf-HR :0.92125: L2-HR :0.91691: (Sim:1h50m14s) 
CPU  0 inst:  421000005 cyc:  205352412 now IPC :2.05774: AVG IPC :2.05021: L2-Pf-HR :0.92127: L2-HR :0.91693: (Sim:1h50m33s) 
CPU  0 inst:  422000000 cyc:  205838904 now IPC :2.05552: AVG IPC :2.05022: L2-Pf-HR :0.92136: L2-HR :0.91700: (Sim:1h50m52s) 
CPU  0 inst:  423000001 cyc:  206492526 now IPC :1.52994: AVG IPC :2.04857: L2-Pf-HR :0.92132: L2-HR :0.91683: (Sim:1h51m13s) 
CPU  0 inst:  424000002 cyc:  206983387 now IPC :2.03724: AVG IPC :2.04854: L2-Pf-HR :0.92123: L2-HR :0.91676: (Sim:1h51m31s) 
CPU  0 inst:  425000001 cyc:  207456895 now IPC :2.11189: AVG IPC :2.04868: L2-Pf-HR :0.92122: L2-HR :0.91677: (Sim:1h51m51s) 
CPU  0 inst:  426000004 cyc:  207917427 now IPC :2.17141: AVG IPC :2.04896: L2-Pf-HR :0.92122: L2-HR :0.91680: (Sim:1h52m10s) 
CPU  0 inst:  427000002 cyc:  208377077 now IPC :2.17556: AVG IPC :2.04924: L2-Pf-HR :0.92123: L2-HR :0.91683: (Sim:1h52m29s) 
CPU  0 inst:  428000003 cyc:  208838636 now IPC :2.16657: AVG IPC :2.04950: L2-Pf-HR :0.92125: L2-HR :0.91687: (Sim:1h52m48s) 
CPU  0 inst:  429000004 cyc:  209298790 now IPC :2.17319: AVG IPC :2.04977: L2-Pf-HR :0.92126: L2-HR :0.91690: (Sim:1h53m7s) 
CPU  0 inst:  430000005 cyc:  209760771 now IPC :2.16459: AVG IPC :2.05002: L2-Pf-HR :0.92127: L2-HR :0.91693: (Sim:1h53m26s) 
CPU  0 inst:  431000003 cyc:  210221378 now IPC :2.17104: AVG IPC :2.05029: L2-Pf-HR :0.92129: L2-HR :0.91697: (Sim:1h53m44s) 
CPU  0 inst:  432000001 cyc:  210677850 now IPC :2.19071: AVG IPC :2.05060: L2-Pf-HR :0.92132: L2-HR :0.91702: (Sim:1h54m3s) 
CPU  0 inst:  433000005 cyc:  211140716 now IPC :2.16046: AVG IPC :2.05084: L2-Pf-HR :0.92140: L2-HR :0.91710: (Sim:1h54m21s) 
CPU  0 inst:  434000001 cyc:  211610760 now IPC :2.12745: AVG IPC :2.05101: L2-Pf-HR :0.92153: L2-HR :0.91723: (Sim:1h54m40s) 
CPU  0 inst:  435000003 cyc:  212205991 now IPC :1.68002: AVG IPC :2.04996: L2-Pf-HR :0.92146: L2-HR :0.91707: (Sim:1h54m59s) 
CPU  0 inst:  436000004 cyc:  212680333 now IPC :2.10819: AVG IPC :2.05010: L2-Pf-HR :0.92145: L2-HR :0.91708: (Sim:1h55m18s) 
CPU  0 inst:  437000001 cyc:  213139880 now IPC :2.17605: AVG IPC :2.05037: L2-Pf-HR :0.92147: L2-HR :0.91711: (Sim:1h55m36s) 
CPU  0 inst:  438000003 cyc:  213602045 now IPC :2.16373: AVG IPC :2.05061: L2-Pf-HR :0.92149: L2-HR :0.91715: (Sim:1h55m55s) 
CPU  0 inst:  439000002 cyc:  214066553 now IPC :2.15281: AVG IPC :2.05084: L2-Pf-HR :0.92149: L2-HR :0.91718: (Sim:1h56m13s) 
CPU  0 inst:  440000003 cyc:  214526994 now IPC :2.17183: AVG IPC :2.05110: L2-Pf-HR :0.92151: L2-HR :0.91722: (Sim:1h56m32s) 
CPU  0 inst:  441000001 cyc:  214989492 now IPC :2.16217: AVG IPC :2.05134: L2-Pf-HR :0.92155: L2-HR :0.91727: (Sim:1h56m51s) 
CPU  0 inst:  442000000 cyc:  215500786 now IPC :1.95582: AVG IPC :2.05111: L2-Pf-HR :0.92165: L2-HR :0.91731: (Sim:1h57m9s) 
CPU  0 inst:  443000002 cyc:  216141804 now IPC :1.56002: AVG IPC :2.04965: L2-Pf-HR :0.92152: L2-HR :0.91710: (Sim:1h57m30s) 
CPU  0 inst:  444000004 cyc:  216649977 now IPC :1.96784: AVG IPC :2.04945: L2-Pf-HR :0.92143: L2-HR :0.91702: (Sim:1h57m49s) 
CPU  0 inst:  445000003 cyc:  217139373 now IPC :2.04333: AVG IPC :2.04944: L2-Pf-HR :0.92140: L2-HR :0.91700: (Sim:1h58m8s) 
CPU  0 inst:  446000003 cyc:  217641098 now IPC :1.99312: AVG IPC :2.04931: L2-Pf-HR :0.92138: L2-HR :0.91698: (Sim:1h58m28s) 
CPU  0 inst:  447000004 cyc:  218124575 now IPC :2.06835: AVG IPC :2.04935: L2-Pf-HR :0.92137: L2-HR :0.91699: (Sim:1h58m46s) 
CPU  0 inst:  448000004 cyc:  218620982 now IPC :2.01448: AVG IPC :2.04927: L2-Pf-HR :0.92136: L2-HR :0.91697: (Sim:1h59m5s) 
CPU  0 inst:  449000000 cyc:  219105876 now IPC :2.06230: AVG IPC :2.04930: L2-Pf-HR :0.92134: L2-HR :0.91696: (Sim:1h59m25s) 
CPU  0 inst:  450000001 cyc:  219592402 now IPC :2.05539: AVG IPC :2.04932: L2-Pf-HR :0.92132: L2-HR :0.91695: (Sim:1h59m43s) 
CPU  0 inst:  451000005 cyc:  220094729 now IPC :1.99074: AVG IPC :2.04918: L2-Pf-HR :0.92131: L2-HR :0.91695: (Sim:2h0m3s) 
CPU  0 inst:  452000002 cyc:  220580613 now IPC :2.05810: AVG IPC :2.04920: L2-Pf-HR :0.92132: L2-HR :0.91696: (Sim:2h0m22s) 
CPU  0 inst:  453000001 cyc:  221069673 now IPC :2.04474: AVG IPC :2.04919: L2-Pf-HR :0.92138: L2-HR :0.91702: (Sim:2h0m41s) 
CPU  0 inst:  454000000 cyc:  221641875 now IPC :1.74763: AVG IPC :2.04841: L2-Pf-HR :0.92139: L2-HR :0.91694: (Sim:2h1m2s) 
CPU  0 inst:  455000002 cyc:  222197349 now IPC :1.80027: AVG IPC :2.04779: L2-Pf-HR :0.92134: L2-HR :0.91686: (Sim:2h1m21s) 
CPU  0 inst:  456000002 cyc:  222683798 now IPC :2.05571: AVG IPC :2.04780: L2-Pf-HR :0.92129: L2-HR :0.91682: (Sim:2h1m41s) 
CPU  0 inst:  457000000 cyc:  223148123 now IPC :2.15366: AVG IPC :2.04802: L2-Pf-HR :0.92128: L2-HR :0.91684: (Sim:2h2m1s) 
CPU  0 inst:  458000000 cyc:  223607736 now IPC :2.17574: AVG IPC :2.04829: L2-Pf-HR :0.92129: L2-HR :0.91687: (Sim:2h2m19s) 
CPU  0 inst:  459000001 cyc:  224068475 now IPC :2.17043: AVG IPC :2.04854: L2-Pf-HR :0.92130: L2-HR :0.91690: (Sim:2h2m38s) 
CPU  0 inst:  460000000 cyc:  224529223 now IPC :2.17038: AVG IPC :2.04879: L2-Pf-HR :0.92131: L2-HR :0.91693: (Sim:2h2m56s) 
CPU  0 inst:  461000001 cyc:  224988051 now IPC :2.17947: AVG IPC :2.04906: L2-Pf-HR :0.92132: L2-HR :0.91696: (Sim:2h3m15s) 
CPU  0 inst:  462000000 cyc:  225443996 now IPC :2.19324: AVG IPC :2.04935: L2-Pf-HR :0.92134: L2-HR :0.91700: (Sim:2h3m34s) 
CPU  0 inst:  463000004 cyc:  225899327 now IPC :2.19621: AVG IPC :2.04965: L2-Pf-HR :0.92136: L2-HR :0.91704: (Sim:2h3m52s) 
CPU  0 inst:  464000002 cyc:  226357642 now IPC :2.18190: AVG IPC :2.04992: L2-Pf-HR :0.92139: L2-HR :0.91708: (Sim:2h4m12s) 
CPU  0 inst:  465000002 cyc:  226816724 now IPC :2.17826: AVG IPC :2.05018: L2-Pf-HR :0.92149: L2-HR :0.91719: (Sim:2h4m31s) 
CPU  0 inst:  466000003 cyc:  227383191 now IPC :1.76533: AVG IPC :2.04947: L2-Pf-HR :0.92153: L2-HR :0.91715: (Sim:2h4m51s) 
CPU  0 inst:  467000001 cyc:  227871746 now IPC :2.04685: AVG IPC :2.04946: L2-Pf-HR :0.92147: L2-HR :0.91710: (Sim:2h5m10s) 
CPU  0 inst:  468000000 cyc:  228336943 now IPC :2.14962: AVG IPC :2.04967: L2-Pf-HR :0.92148: L2-HR :0.91713: (Sim:2h5m28s) 
CPU  0 inst:  469000003 cyc:  228802557 now IPC :2.14771: AVG IPC :2.04987: L2-Pf-HR :0.92149: L2-HR :0.91716: (Sim:2h5m47s) 
CPU  0 inst:  470000000 cyc:  229264754 now IPC :2.16357: AVG IPC :2.05010: L2-Pf-HR :0.92151: L2-HR :0.91720: (Sim:2h6m6s) 
CPU  0 inst:  471000004 cyc:  229727341 now IPC :2.16176: AVG IPC :2.05032: L2-Pf-HR :0.92153: L2-HR :0.91723: (Sim:2h6m24s) 
CPU  0 inst:  472000002 cyc:  230190293 now IPC :2.16005: AVG IPC :2.05054: L2-Pf-HR :0.92155: L2-HR :0.91727: (Sim:2h6m43s) 
CPU  0 inst:  473000005 cyc:  230655453 now IPC :2.14980: AVG IPC :2.05075: L2-Pf-HR :0.92162: L2-HR :0.91734: (Sim:2h7m1s) 
CPU  0 inst:  474000000 cyc:  231296176 now IPC :1.56073: AVG IPC :2.04938: L2-Pf-HR :0.92162: L2-HR :0.91720: (Sim:2h7m21s) 
CPU  0 inst:  475000004 cyc:  231818436 now IPC :1.91476: AVG IPC :2.04908: L2-Pf-HR :0.92151: L2-HR :0.91710: (Sim:2h7m40s) 
CPU  0 inst:  476000005 cyc:  232315315 now IPC :2.01256: AVG IPC :2.04900: L2-Pf-HR :0.92148: L2-HR :0.91708: (Sim:2h7m59s) 
CPU  0 inst:  477000001 cyc:  232810364 now IPC :2.01999: AVG IPC :2.04894: L2-Pf-HR :0.92145: L2-HR :0.91705: (Sim:2h8m19s) 
CPU  0 inst:  478000003 cyc:  233291860 now IPC :2.07686: AVG IPC :2.04899: L2-Pf-HR :0.92143: L2-HR :0.91704: (Sim:2h8m38s) 
CPU  0 inst:  479000001 cyc:  233786176 now IPC :2.02299: AVG IPC :2.04894: L2-Pf-HR :0.92142: L2-HR :0.91703: (Sim:2h8m57s) 
CPU  0 inst:  480000001 cyc:  234275328 now IPC :2.04435: AVG IPC :2.04893: L2-Pf-HR :0.92140: L2-HR :0.91702: (Sim:2h9m17s) 
CPU  0 inst:  481000000 cyc:  234756442 now IPC :2.07851: AVG IPC :2.04899: L2-Pf-HR :0.92140: L2-HR :0.91703: (Sim:2h9m36s) 
CPU  0 inst:  482000002 cyc:  235251993 now IPC :2.01796: AVG IPC :2.04893: L2-Pf-HR :0.92139: L2-HR :0.91702: (Sim:2h9m55s) 
CPU  0 inst:  483000001 cyc:  235732851 now IPC :2.07961: AVG IPC :2.04899: L2-Pf-HR :0.92138: L2-HR :0.91702: (Sim:2h10m14s) 
CPU  0 inst:  484000003 cyc:  236227484 now IPC :2.02170: AVG IPC :2.04893: L2-Pf-HR :0.92138: L2-HR :0.91702: (Sim:2h10m33s) 
CPU  0 inst:  485000005 cyc:  236712830 now IPC :2.06039: AVG IPC :2.04895: L2-Pf-HR :0.92146: L2-HR :0.91709: (Sim:2h10m52s) 
CPU  0 inst:  486000001 cyc:  237346733 now IPC :1.57752: AVG IPC :2.04769: L2-Pf-HR :0.92146: L2-HR :0.91696: (Sim:2h11m13s) 
CPU  0 inst:  487000000 cyc:  237844329 now IPC :2.00966: AVG IPC :2.04761: L2-Pf-HR :0.92136: L2-HR :0.91688: (Sim:2h11m33s) 
CPU  0 inst:  488000001 cyc:  238317718 now IPC :2.11243: AVG IPC :2.04774: L2-Pf-HR :0.92135: L2-HR :0.91689: (Sim:2h11m53s) 
CPU  0 inst:  489000001 cyc:  238778897 now IPC :2.16836: AVG IPC :2.04797: L2-Pf-HR :0.92135: L2-HR :0.91691: (Sim:2h12m12s) 
CPU  0 inst:  490000001 cyc:  239244651 now IPC :2.14706: AVG IPC :2.04817: L2-Pf-HR :0.92135: L2-HR :0.91693: (Sim:2h12m31s) 
CPU  0 inst:  491000005 cyc:  239707939 now IPC :2.15849: AVG IPC :2.04838: L2-Pf-HR :0.92136: L2-HR :0.91696: (Sim:2h12m50s) 
CPU  0 inst:  492000003 cyc:  240168272 now IPC :2.17234: AVG IPC :2.04862: L2-Pf-HR :0.92137: L2-HR :0.91698: (Sim:2h13m8s) 
CPU  0 inst:  493000002 cyc:  240627565 now IPC :2.17726: AVG IPC :2.04887: L2-Pf-HR :0.92138: L2-HR :0.91702: (Sim:2h13m28s) 
CPU  0 inst:  494000005 cyc:  241087906 now IPC :2.17231: AVG IPC :2.04910: L2-Pf-HR :0.92140: L2-HR :0.91705: (Sim:2h13m46s) 
CPU  0 inst:  495000003 cyc:  241552316 now IPC :2.15327: AVG IPC :2.04930: L2-Pf-HR :0.92143: L2-HR :0.91709: (Sim:2h14m5s) 
CPU  0 inst:  496000000 cyc:  242009782 now IPC :2.18595: AVG IPC :2.04956: L2-Pf-HR :0.92148: L2-HR :0.91715: (Sim:2h14m24s) 
CPU  0 inst:  497000001 cyc:  242467815 now IPC :2.18325: AVG IPC :2.04982: L2-Pf-HR :0.92159: L2-HR :0.91726: (Sim:2h14m42s) 
CPU  0 inst:  498000001 cyc:  243064048 now IPC :1.67720: AVG IPC :2.04890: L2-Pf-HR :0.92156: L2-HR :0.91716: (Sim:2h15m2s) 
CPU  0 inst:  499000005 cyc:  243543065 now IPC :2.08762: AVG IPC :2.04898: L2-Pf-HR :0.92154: L2-HR :0.91714: (Sim:2h15m20s) 
CPU  0 inst:  500000003 cyc:  244003384 now IPC :2.17240: AVG IPC :2.04921: L2-Pf-HR :0.92154: L2-HR :0.91716: (Sim:2h15m39s) 
CPU  0 inst:  501000002 cyc:  244467222 now IPC :2.15592: AVG IPC :2.04941: L2-Pf-HR :0.92155: L2-HR :0.91719: (Sim:2h15m58s) 
CPU  0 inst:  502000004 cyc:  244926685 now IPC :2.17646: AVG IPC :2.04965: L2-Pf-HR :0.92157: L2-HR :0.91722: (Sim:2h16m16s) 
CPU  0 inst:  503000003 cyc:  245388522 now IPC :2.16526: AVG IPC :2.04987: L2-Pf-HR :0.92159: L2-HR :0.91726: (Sim:2h16m35s) 
CPU  0 inst:  504000002 cyc:  245851032 now IPC :2.16211: AVG IPC :2.05008: L2-Pf-HR :0.92161: L2-HR :0.91730: (Sim:2h16m54s) 
CPU  0 inst:  505000003 cyc:  246319991 now IPC :2.13238: AVG IPC :2.05024: L2-Pf-HR :0.92172: L2-HR :0.91740: (Sim:2h17m12s) 
CPU  0 inst:  506000000 cyc:  246988034 now IPC :1.49691: AVG IPC :2.04874: L2-Pf-HR :0.92160: L2-HR :0.91717: (Sim:2h17m33s) 
CPU  0 inst:  507000004 cyc:  247491297 now IPC :1.98704: AVG IPC :2.04861: L2-Pf-HR :0.92152: L2-HR :0.91709: (Sim:2h17m55s) 
CPU  0 inst:  508000000 cyc:  247984694 now IPC :2.02676: AVG IPC :2.04857: L2-Pf-HR :0.92150: L2-HR :0.91708: (Sim:2h18m16s) 
CPU  0 inst:  509000004 cyc:  248465114 now IPC :2.08152: AVG IPC :2.04863: L2-Pf-HR :0.92149: L2-HR :0.91708: (Sim:2h18m35s) 
CPU  0 inst:  510000001 cyc:  248962617 now IPC :2.01003: AVG IPC :2.04855: L2-Pf-HR :0.92148: L2-HR :0.91706: (Sim:2h18m55s) 
CPU  0 inst:  511000002 cyc:  249449982 now IPC :2.05185: AVG IPC :2.04856: L2-Pf-HR :0.92145: L2-HR :0.91704: (Sim:2h19m13s) 
CPU  0 inst:  512000004 cyc:  249939329 now IPC :2.04354: AVG IPC :2.04855: L2-Pf-HR :0.92143: L2-HR :0.91704: (Sim:2h19m33s) 
CPU  0 inst:  513000002 cyc:  250435637 now IPC :2.01487: AVG IPC :2.04848: L2-Pf-HR :0.92142: L2-HR :0.91703: (Sim:2h19m52s) 
CPU  0 inst:  514000002 cyc:  250920538 now IPC :2.06228: AVG IPC :2.04851: L2-Pf-HR :0.92142: L2-HR :0.91704: (Sim:2h20m12s) 
CPU  0 inst:  515000002 cyc:  251413803 now IPC :2.02731: AVG IPC :2.04847: L2-Pf-HR :0.92142: L2-HR :0.91704: (Sim:2h20m31s) 
CPU  0 inst:  516000004 cyc:  251909941 now IPC :2.01557: AVG IPC :2.04840: L2-Pf-HR :0.92147: L2-HR :0.91708: (Sim:2h20m51s) 
CPU  0 inst:  517000000 cyc:  252392744 now IPC :2.07123: AVG IPC :2.04845: L2-Pf-HR :0.92155: L2-HR :0.91715: (Sim:2h21m11s) 
CPU  0 inst:  518000001 cyc:  253033379 now IPC :1.56095: AVG IPC :2.04721: L2-Pf-HR :0.92146: L2-HR :0.91695: (Sim:2h21m32s) 
CPU  0 inst:  519000001 cyc:  253514996 now IPC :2.07634: AVG IPC :2.04726: L2-Pf-HR :0.92140: L2-HR :0.91691: (Sim:2h21m53s) 
CPU  0 inst:  520000004 cyc:  253982090 now IPC :2.14090: AVG IPC :2.04744: L2-Pf-HR :0.92140: L2-HR :0.91693: (Sim:2h22m13s) 
CPU  0 inst:  521000001 cyc:  254440553 now IPC :2.18119: AVG IPC :2.04768: L2-Pf-HR :0.92140: L2-HR :0.91695: (Sim:2h22m33s) 
CPU  0 inst:  522000003 cyc:  254903516 now IPC :2.16000: AVG IPC :2.04788: L2-Pf-HR :0.92141: L2-HR :0.91697: (Sim:2h22m52s) 
CPU  0 inst:  523000004 cyc:  255365428 now IPC :2.16492: AVG IPC :2.04810: L2-Pf-HR :0.92142: L2-HR :0.91700: (Sim:2h23m11s) 
CPU  0 inst:  524000000 cyc:  255824280 now IPC :2.17934: AVG IPC :2.04833: L2-Pf-HR :0.92144: L2-HR :0.91703: (Sim:2h23m29s) 
CPU  0 inst:  525000000 cyc:  256283369 now IPC :2.17823: AVG IPC :2.04857: L2-Pf-HR :0.92145: L2-HR :0.91706: (Sim:2h23m40s) 
CPU  0 inst:  526000000 cyc:  256742834 now IPC :2.17644: AVG IPC :2.04880: L2-Pf-HR :0.92146: L2-HR :0.91709: (Sim:2h23m50s) 
CPU  0 inst:  527000000 cyc:  257201705 now IPC :2.17926: AVG IPC :2.04903: L2-Pf-HR :0.92148: L2-HR :0.91713: (Sim:2h23m59s) 
CPU  0 inst:  528000001 cyc:  257656293 now IPC :2.19980: AVG IPC :2.04930: L2-Pf-HR :0.92157: L2-HR :0.91722: (Sim:2h24m8s) 
CPU  0 inst:  529000002 cyc:  258229512 now IPC :1.74454: AVG IPC :2.04862: L2-Pf-HR :0.92161: L2-HR :0.91720: (Sim:2h24m26s) 
CPU  0 inst:  530000001 cyc:  258733072 now IPC :1.98586: AVG IPC :2.04849: L2-Pf-HR :0.92156: L2-HR :0.91715: (Sim:2h24m46s) 
CPU  0 inst:  531000003 cyc:  259201335 now IPC :2.13556: AVG IPC :2.04865: L2-Pf-HR :0.92157: L2-HR :0.91717: (Sim:2h25m5s) 
CPU  0 inst:  532000001 cyc:  259664472 now IPC :2.15918: AVG IPC :2.04885: L2-Pf-HR :0.92158: L2-HR :0.91720: (Sim:2h25m25s) 
CPU  0 inst:  533000002 cyc:  260127074 now IPC :2.16169: AVG IPC :2.04905: L2-Pf-HR :0.92159: L2-HR :0.91723: (Sim:2h25m44s) 
CPU  0 inst:  534000004 cyc:  260591991 now IPC :2.15093: AVG IPC :2.04923: L2-Pf-HR :0.92160: L2-HR :0.91725: (Sim:2h26m4s) 
CPU  0 inst:  535000000 cyc:  261052221 now IPC :2.17282: AVG IPC :2.04945: L2-Pf-HR :0.92162: L2-HR :0.91729: (Sim:2h26m24s) 
CPU  0 inst:  536000002 cyc:  261519173 now IPC :2.14155: AVG IPC :2.04962: L2-Pf-HR :0.92169: L2-HR :0.91735: (Sim:2h26m43s) 
CPU  0 inst:  537000003 cyc:  262141810 now IPC :1.60607: AVG IPC :2.04856: L2-Pf-HR :0.92170: L2-HR :0.91725: (Sim:2h27m4s) 
CPU  0 inst:  538000004 cyc:  262671185 now IPC :1.88902: AVG IPC :2.04824: L2-Pf-HR :0.92161: L2-HR :0.91716: (Sim:2h27m24s) 
CPU  0 inst:  539000000 cyc:  263164465 now IPC :2.02724: AVG IPC :2.04820: L2-Pf-HR :0.92156: L2-HR :0.91711: (Sim:2h27m45s) 
CPU  0 inst:  540000005 cyc:  263646111 now IPC :2.07622: AVG IPC :2.04825: L2-Pf-HR :0.92153: L2-HR :0.91709: (Sim:2h28m5s) 
CPU  0 inst:  541000004 cyc:  264143489 now IPC :2.01054: AVG IPC :2.04818: L2-Pf-HR :0.92150: L2-HR :0.91707: (Sim:2h28m25s) 
CPU  0 inst:  542000002 cyc:  264620092 now IPC :2.09818: AVG IPC :2.04827: L2-Pf-HR :0.92150: L2-HR :0.91708: (Sim:2h28m45s) 
CPU  0 inst:  543000000 cyc:  265116286 now IPC :2.01534: AVG IPC :2.04821: L2-Pf-HR :0.92149: L2-HR :0.91707: (Sim:2h29m5s) 
CPU  0 inst:  544000005 cyc:  265615369 now IPC :2.00368: AVG IPC :2.04812: L2-Pf-HR :0.92148: L2-HR :0.91706: (Sim:2h29m26s) 
CPU  0 inst:  545000002 cyc:  266102392 now IPC :2.05328: AVG IPC :2.04813: L2-Pf-HR :0.92147: L2-HR :0.91706: (Sim:2h29m46s) 
CPU  0 inst:  546000003 cyc:  266597081 now IPC :2.02147: AVG IPC :2.04808: L2-Pf-HR :0.92146: L2-HR :0.91705: (Sim:2h30m6s) 
CPU  0 inst:  547000000 cyc:  267091949 now IPC :2.02073: AVG IPC :2.04803: L2-Pf-HR :0.92145: L2-HR :0.91705: (Sim:2h30m26s) 
CPU  0 inst:  548000005 cyc:  267576316 now IPC :2.06456: AVG IPC :2.04806: L2-Pf-HR :0.92153: L2-HR :0.91712: (Sim:2h30m46s) 
CPU  0 inst:  549000005 cyc:  268225175 now IPC :1.54117: AVG IPC :2.04683: L2-Pf-HR :0.92155: L2-HR :0.91702: (Sim:2h31m7s) 
CPU  0 inst:  550000000 cyc:  268722794 now IPC :2.00956: AVG IPC :2.04676: L2-Pf-HR :0.92146: L2-HR :0.91695: (Sim:2h31m28s) 
CPU  0 inst:  551000000 cyc:  269197625 now IPC :2.10601: AVG IPC :2.04687: L2-Pf-HR :0.92144: L2-HR :0.91695: (Sim:2h31m48s) 
CPU  0 inst:  552000001 cyc:  269659255 now IPC :2.16624: AVG IPC :2.04707: L2-Pf-HR :0.92143: L2-HR :0.91695: (Sim:2h32m8s) 
CPU  0 inst:  553000000 cyc:  270119960 now IPC :2.17058: AVG IPC :2.04728: L2-Pf-HR :0.92143: L2-HR :0.91697: (Sim:2h32m28s) 
CPU  0 inst:  554000001 cyc:  270580445 now IPC :2.17163: AVG IPC :2.04750: L2-Pf-HR :0.92143: L2-HR :0.91699: (Sim:2h32m48s) 
CPU  0 inst:  555000002 cyc:  271039419 now IPC :2.17877: AVG IPC :2.04772: L2-Pf-HR :0.92144: L2-HR :0.91702: (Sim:2h33m8s) 
CPU  0 inst:  556000002 cyc:  271502438 now IPC :2.15974: AVG IPC :2.04791: L2-Pf-HR :0.92145: L2-HR :0.91704: (Sim:2h33m28s) 
CPU  0 inst:  557000001 cyc:  271966044 now IPC :2.15700: AVG IPC :2.04810: L2-Pf-HR :0.92146: L2-HR :0.91707: (Sim:2h33m47s) 
CPU  0 inst:  558000001 cyc:  272425925 now IPC :2.17448: AVG IPC :2.04831: L2-Pf-HR :0.92148: L2-HR :0.91710: (Sim:2h34m7s) 
CPU  0 inst:  559000001 cyc:  272888100 now IPC :2.16368: AVG IPC :2.04851: L2-Pf-HR :0.92152: L2-HR :0.91715: (Sim:2h34m26s) 
CPU  0 inst:  560000001 cyc:  273346240 now IPC :2.18274: AVG IPC :2.04873: L2-Pf-HR :0.92163: L2-HR :0.91726: (Sim:2h34m46s) 
CPU  0 inst:  561000000 cyc:  273939724 now IPC :1.68496: AVG IPC :2.04794: L2-Pf-HR :0.92161: L2-HR :0.91717: (Sim:2h35m6s) 
CPU  0 inst:  562000004 cyc:  274417888 now IPC :2.09134: AVG IPC :2.04802: L2-Pf-HR :0.92157: L2-HR :0.91715: (Sim:2h35m26s) 
CPU  0 inst:  563000001 cyc:  274879346 now IPC :2.16704: AVG IPC :2.04822: L2-Pf-HR :0.92158: L2-HR :0.91718: (Sim:2h35m45s) 
CPU  0 inst:  564000005 cyc:  275344097 now IPC :2.15170: AVG IPC :2.04839: L2-Pf-HR :0.92159: L2-HR :0.91720: (Sim:2h36m5s) 
CPU  0 inst:  565000000 cyc:  275805564 now IPC :2.16699: AVG IPC :2.04859: L2-Pf-HR :0.92160: L2-HR :0.91723: (Sim:2h36m24s) 
CPU  0 inst:  566000001 cyc:  276270687 now IPC :2.14997: AVG IPC :2.04876: L2-Pf-HR :0.92162: L2-HR :0.91725: (Sim:2h36m43s) 
CPU  0 inst:  567000000 cyc:  276736404 now IPC :2.14722: AVG IPC :2.04893: L2-Pf-HR :0.92163: L2-HR :0.91729: (Sim:2h37m3s) 
CPU  0 inst:  568000002 cyc:  277198188 now IPC :2.16552: AVG IPC :2.04913: L2-Pf-HR :0.92172: L2-HR :0.91737: (Sim:2h37m22s) 
CPU  0 inst:  569000005 cyc:  277881627 now IPC :1.46319: AVG IPC :2.04768: L2-Pf-HR :0.92164: L2-HR :0.91719: (Sim:2h37m44s) 
CPU  0 inst:  570000004 cyc:  278397042 now IPC :1.94018: AVG IPC :2.04748: L2-Pf-HR :0.92156: L2-HR :0.91711: (Sim:2h38m4s) 
CPU  0 inst:  571000003 cyc:  278882963 now IPC :2.05795: AVG IPC :2.04750: L2-Pf-HR :0.92154: L2-HR :0.91710: (Sim:2h38m24s) 
CPU  0 inst:  572000001 cyc:  279375042 now IPC :2.03219: AVG IPC :2.04747: L2-Pf-HR :0.92153: L2-HR :0.91709: (Sim:2h38m44s) 
CPU  0 inst:  573000004 cyc:  279858704 now IPC :2.06757: AVG IPC :2.04751: L2-Pf-HR :0.92151: L2-HR :0.91708: (Sim:2h39m4s) 
CPU  0 inst:  574000003 cyc:  280353410 now IPC :2.02140: AVG IPC :2.04746: L2-Pf-HR :0.92149: L2-HR :0.91706: (Sim:2h39m24s) 
CPU  0 inst:  575000005 cyc:  280849282 now IPC :2.01665: AVG IPC :2.04741: L2-Pf-HR :0.92148: L2-HR :0.91706: (Sim:2h39m44s) 
CPU  0 inst:  576000001 cyc:  281336875 now IPC :2.05088: AVG IPC :2.04741: L2-Pf-HR :0.92148: L2-HR :0.91706: (Sim:2h40m3s) 
CPU  0 inst:  577000000 cyc:  281827766 now IPC :2.03711: AVG IPC :2.04739: L2-Pf-HR :0.92148: L2-HR :0.91706: (Sim:2h40m23s) 
CPU  0 inst:  578000003 cyc:  282314036 now IPC :2.05648: AVG IPC :2.04741: L2-Pf-HR :0.92147: L2-HR :0.91706: (Sim:2h40m42s) 
CPU  0 inst:  579000003 cyc:  282804585 now IPC :2.03853: AVG IPC :2.04739: L2-Pf-HR :0.92149: L2-HR :0.91708: (Sim:2h41m2s) 
CPU  0 inst:  580000005 cyc:  283303662 now IPC :2.00370: AVG IPC :2.04732: L2-Pf-HR :0.92156: L2-HR :0.91714: (Sim:2h41m21s) 
CPU  0 inst:  581000001 cyc:  283948714 now IPC :1.55026: AVG IPC :2.04618: L2-Pf-HR :0.92150: L2-HR :0.91698: (Sim:2h41m42s) 
CPU  0 inst:  582000001 cyc:  284436066 now IPC :2.05190: AVG IPC :2.04619: L2-Pf-HR :0.92145: L2-HR :0.91694: (Sim:2h42m2s) 
CPU  0 inst:  583000001 cyc:  284905110 now IPC :2.13200: AVG IPC :2.04633: L2-Pf-HR :0.92144: L2-HR :0.91695: (Sim:2h42m22s) 
CPU  0 inst:  584000000 cyc:  285367476 now IPC :2.16279: AVG IPC :2.04652: L2-Pf-HR :0.92144: L2-HR :0.91696: (Sim:2h42m41s) 
CPU  0 inst:  585000004 cyc:  285831753 now IPC :2.15390: AVG IPC :2.04670: L2-Pf-HR :0.92144: L2-HR :0.91698: (Sim:2h43m0s) 
CPU  0 inst:  586000004 cyc:  286291960 now IPC :2.17294: AVG IPC :2.04690: L2-Pf-HR :0.92144: L2-HR :0.91700: (Sim:2h43m19s) 
CPU  0 inst:  587000002 cyc:  286754973 now IPC :2.15976: AVG IPC :2.04709: L2-Pf-HR :0.92145: L2-HR :0.91702: (Sim:2h43m39s) 
CPU  0 inst:  588000004 cyc:  287220212 now IPC :2.14944: AVG IPC :2.04725: L2-Pf-HR :0.92145: L2-HR :0.91704: (Sim:2h43m58s) 
CPU  0 inst:  589000004 cyc:  287686516 now IPC :2.14452: AVG IPC :2.04741: L2-Pf-HR :0.92146: L2-HR :0.91706: (Sim:2h44m17s) 
CPU  0 inst:  590000005 cyc:  288146748 now IPC :2.17282: AVG IPC :2.04761: L2-Pf-HR :0.92148: L2-HR :0.91710: (Sim:2h44m36s) 
CPU  0 inst:  591000001 cyc:  288606640 now IPC :2.17441: AVG IPC :2.04781: L2-Pf-HR :0.92155: L2-HR :0.91717: (Sim:2h44m56s) 
CPU  0 inst:  592000004 cyc:  289148842 now IPC :1.84434: AVG IPC :2.04743: L2-Pf-HR :0.92160: L2-HR :0.91717: (Sim:2h45m15s) 
CPU  0 inst:  593000000 cyc:  289683516 now IPC :1.87029: AVG IPC :2.04710: L2-Pf-HR :0.92156: L2-HR :0.91711: (Sim:2h45m35s) 
CPU  0 inst:  594000000 cyc:  290152059 now IPC :2.13428: AVG IPC :2.04724: L2-Pf-HR :0.92156: L2-HR :0.91713: (Sim:2h45m54s) 
CPU  0 inst:  595000000 cyc:  290618069 now IPC :2.14588: AVG IPC :2.04740: L2-Pf-HR :0.92157: L2-HR :0.91715: (Sim:2h46m13s) 
CPU  0 inst:  596000003 cyc:  291082677 now IPC :2.15236: AVG IPC :2.04757: L2-Pf-HR :0.92158: L2-HR :0.91717: (Sim:2h46m32s) 
CPU  0 inst:  597000002 cyc:  291544292 now IPC :2.16631: AVG IPC :2.04776: L2-Pf-HR :0.92159: L2-HR :0.91720: (Sim:2h46m51s) 
CPU  0 inst:  598000005 cyc:  292003851 now IPC :2.17601: AVG IPC :2.04796: L2-Pf-HR :0.92160: L2-HR :0.91723: (Sim:2h47m10s) 
CPU  0 inst:  599000003 cyc:  292473349 now IPC :2.12993: AVG IPC :2.04809: L2-Pf-HR :0.92164: L2-HR :0.91728: (Sim:2h47m29s) 
CPU  0 inst:  600000003 cyc:  293068873 now IPC :1.67919: AVG IPC :2.04734: L2-Pf-HR :0.92165: L2-HR :0.91721: (Sim:2h47m49s) 
CPU  0 inst:  601000005 cyc:  293623635 now IPC :1.80258: AVG IPC :2.04688: L2-Pf-HR :0.92158: L2-HR :0.91712: (Sim:2h48m9s) 
CPU  0 inst:  602000002 cyc:  294125329 now IPC :1.99324: AVG IPC :2.04679: L2-Pf-HR :0.92153: L2-HR :0.91708: (Sim:2h48m28s) 
CPU  0 inst:  603000004 cyc:  294626318 now IPC :1.99606: AVG IPC :2.04670: L2-Pf-HR :0.92151: L2-HR :0.91706: (Sim:2h48m48s) 
CPU  0 inst:  604000001 cyc:  295111154 now IPC :2.06255: AVG IPC :2.04673: L2-Pf-HR :0.92150: L2-HR :0.91706: (Sim:2h49m7s) 
CPU  0 inst:  605000003 cyc:  295597888 now IPC :2.05451: AVG IPC :2.04674: L2-Pf-HR :0.92149: L2-HR :0.91706: (Sim:2h49m27s) 
CPU  0 inst:  606000001 cyc:  296092633 now IPC :2.02124: AVG IPC :2.04670: L2-Pf-HR :0.92147: L2-HR :0.91704: (Sim:2h49m47s) 
CPU  0 inst:  607000005 cyc:  296570846 now IPC :2.09113: AVG IPC :2.04677: L2-Pf-HR :0.92146: L2-HR :0.91704: (Sim:2h50m6s) 
CPU  0 inst:  608000002 cyc:  297058590 now IPC :2.05025: AVG IPC :2.04677: L2-Pf-HR :0.92144: L2-HR :0.91702: (Sim:2h50m26s) 
CPU  0 inst:  609000000 cyc:  297544197 now IPC :2.05927: AVG IPC :2.04679: L2-Pf-HR :0.92145: L2-HR :0.91703: (Sim:2h50m45s) 
CPU  0 inst:  610000003 cyc:  298029822 now IPC :2.05921: AVG IPC :2.04681: L2-Pf-HR :0.92144: L2-HR :0.91703: (Sim:2h51m5s) 
CPU  0 inst:  611000005 cyc:  298526779 now IPC :2.01225: AVG IPC :2.04676: L2-Pf-HR :0.92150: L2-HR :0.91708: (Sim:2h51m24s) 
CPU  0 inst:  612000004 cyc:  299165106 now IPC :1.56659: AVG IPC :2.04573: L2-Pf-HR :0.92152: L2-HR :0.91700: (Sim:2h51m45s) 
CPU  0 inst:  613000004 cyc:  299681109 now IPC :1.93797: AVG IPC :2.04554: L2-Pf-HR :0.92147: L2-HR :0.91694: (Sim:2h52m5s) 
CPU  0 inst:  614000001 cyc:  300161838 now IPC :2.08017: AVG IPC :2.04560: L2-Pf-HR :0.92144: L2-HR :0.91692: (Sim:2h52m25s) 
CPU  0 inst:  615000004 cyc:  300625718 now IPC :2.15574: AVG IPC :2.04577: L2-Pf-HR :0.92143: L2-HR :0.91693: (Sim:2h52m44s) 
CPU  0 inst:  616000003 cyc:  301086117 now IPC :2.17203: AVG IPC :2.04596: L2-Pf-HR :0.92143: L2-HR :0.91695: (Sim:2h53m3s) 
CPU  0 inst:  617000000 cyc:  301544703 now IPC :2.18061: AVG IPC :2.04617: L2-Pf-HR :0.92143: L2-HR :0.91697: (Sim:2h53m22s) 
CPU  0 inst:  618000005 cyc:  302009014 now IPC :2.15374: AVG IPC :2.04633: L2-Pf-HR :0.92144: L2-HR :0.91699: (Sim:2h53m41s) 
CPU  0 inst:  619000002 cyc:  302472967 now IPC :2.15538: AVG IPC :2.04650: L2-Pf-HR :0.92144: L2-HR :0.91700: (Sim:2h54m0s) 
CPU  0 inst:  620000004 cyc:  302932064 now IPC :2.17819: AVG IPC :2.04670: L2-Pf-HR :0.92145: L2-HR :0.91703: (Sim:2h54m19s) 
CPU  0 inst:  621000003 cyc:  303385846 now IPC :2.20370: AVG IPC :2.04694: L2-Pf-HR :0.92146: L2-HR :0.91705: (Sim:2h54m38s) 
CPU  0 inst:  622000004 cyc:  303844567 now IPC :2.17998: AVG IPC :2.04714: L2-Pf-HR :0.92148: L2-HR :0.91709: (Sim:2h54m57s) 
CPU  0 inst:  623000000 cyc:  304298656 now IPC :2.20220: AVG IPC :2.04737: L2-Pf-HR :0.92156: L2-HR :0.91717: (Sim:2h55m16s) 
CPU  0 inst:  624000002 cyc:  304884880 now IPC :1.70584: AVG IPC :2.04671: L2-Pf-HR :0.92157: L2-HR :0.91711: (Sim:2h55m35s) 
CPU  0 inst:  625000004 cyc:  305365448 now IPC :2.08088: AVG IPC :2.04677: L2-Pf-HR :0.92153: L2-HR :0.91709: (Sim:2h55m54s) 
CPU  0 inst:  626000001 cyc:  305827507 now IPC :2.16422: AVG IPC :2.04694: L2-Pf-HR :0.92154: L2-HR :0.91711: (Sim:2h56m13s) 
CPU  0 inst:  627000004 cyc:  306286972 now IPC :2.17645: AVG IPC :2.04714: L2-Pf-HR :0.92155: L2-HR :0.91714: (Sim:2h56m32s) 
[...]
daa-> Hits: 1, Late: 0, Early: 0, Misses: 0
dab-> Hits: 3, Late: 0, Early: 0, Misses: 0
dac-> Hits: 10, Late: 0, Early: 0, Misses: 0
dad-> Hits: 13, Late: 0, Early: 0, Misses: 0
dae-> Hits: 1, Late: 0, Early: 0, Misses: 0
daf-> Hits: 3, Late: 0, Early: 0, Misses: 0
db0-> Hits: 6, Late: 4, Early: 0, Misses: 0
db1-> Hits: 78, Late: 20350, Early: 0, Misses: 0
db3-> Hits: 2, Late: 0, Early: 0, Misses: 0
db5-> Hits: 3, Late: 0, Early: 0, Misses: 0
db6-> Hits: 1, Late: 0, Early: 0, Misses: 0
db7-> Hits: 3, Late: 0, Early: 0, Misses: 0
db8-> Hits: 3, Late: 0, Early: 0, Misses: 0
db9-> Hits: 2, Late: 0, Early: 0, Misses: 0
dba-> Hits: 3, Late: 57, Early: 0, Misses: 0
dbb-> Hits: 2, Late: 0, Early: 0, Misses: 0
dbc-> Hits: 1, Late: 0, Early: 0, Misses: 0
dbd-> Hits: 1, Late: 0, Early: 0, Misses: 0
dbe-> Hits: 5, Late: 0, Early: 0, Misses: 0
dbf-> Hits: 7, Late: 1, Early: 0, Misses: 0
dc0-> Hits: 19, Late: 5, Early: 0, Misses: 0
dc1-> Hits: 80, Late: 8174, Early: 0, Misses: 0
dc2-> Hits: 3, Late: 2, Early: 0, Misses: 0
dc3-> Hits: 6, Late: 0, Early: 0, Misses: 0
dc7-> Hits: 10, Late: 1, Early: 0, Misses: 0
dc8-> Hits: 3, Late: 1, Early: 0, Misses: 0
dca-> Hits: 3, Late: 0, Early: 0, Misses: 0
dcb-> Hits: 6, Late: 0, Early: 0, Misses: 0
dcc-> Hits: 69, Late: 2, Early: 0, Misses: 0
dcd-> Hits: 69, Late: 0, Early: 0, Misses: 0
dcf-> Hits: 63, Late: 0, Early: 0, Misses: 0
dd1-> Hits: 228, Late: 12145, Early: 0, Misses: 0
dd2-> Hits: 2, Late: 2, Early: 0, Misses: 0
dd3-> Hits: 67, Late: 0, Early: 0, Misses: 0
dd5-> Hits: 3, Late: 0, Early: 0, Misses: 0
dd6-> Hits: 4, Late: 0, Early: 0, Misses: 0
dd8-> Hits: 70, Late: 0, Early: 0, Misses: 0
dd9-> Hits: 63, Late: 0, Early: 0, Misses: 0
dda-> Hits: 4, Late: 159, Early: 0, Misses: 0
ddc-> Hits: 5, Late: 0, Early: 0, Misses: 0
dde-> Hits: 4, Late: 0, Early: 0, Misses: 0
ddf-> Hits: 4, Late: 0, Early: 0, Misses: 0
de0-> Hits: 3, Late: 0, Early: 0, Misses: 0
de2-> Hits: 2, Late: 0, Early: 0, Misses: 0
de3-> Hits: 4, Late: 0, Early: 0, Misses: 0
de4-> Hits: 2, Late: 0, Early: 0, Misses: 0
de7-> Hits: 1, Late: 0, Early: 0, Misses: 0
deb-> Hits: 1, Late: 0, Early: 0, Misses: 0
dec-> Hits: 1, Late: 0, Early: 0, Misses: 0
ded-> Hits: 5, Late: 0, Early: 0, Misses: 0
dee-> Hits: 12, Late: 56, Early: 0, Misses: 0
def-> Hits: 5, Late: 0, Early: 0, Misses: 0
df0-> Hits: 1, Late: 0, Early: 0, Misses: 0
df1-> Hits: 17, Late: 0, Early: 0, Misses: 0
df2-> Hits: 3, Late: 0, Early: 0, Misses: 0
df3-> Hits: 6, Late: 0, Early: 0, Misses: 0
df4-> Hits: 1, Late: 0, Early: 0, Misses: 0
df5-> Hits: 6, Late: 0, Early: 0, Misses: 0
df7-> Hits: 7, Late: 0, Early: 0, Misses: 0
df8-> Hits: 1, Late: 0, Early: 0, Misses: 0
df9-> Hits: 2, Late: 0, Early: 0, Misses: 0
dfb-> Hits: 1, Late: 0, Early: 0, Misses: 0
dfd-> Hits: 3, Late: 0, Early: 0, Misses: 0
e00-> Hits: 22, Late: 0, Early: 0, Misses: 0
e01-> Hits: 2, Late: 0, Early: 0, Misses: 0
e02-> Hits: 3, Late: 0, Early: 0, Misses: 0
e03-> Hits: 1, Late: 0, Early: 0, Misses: 0
e05-> Hits: 3, Late: 1, Early: 0, Misses: 0
e06-> Hits: 27, Late: 46, Early: 0, Misses: 0
e07-> Hits: 0, Late: 63, Early: 0, Misses: 0
e0f-> Hits: 2, Late: 63, Early: 0, Misses: 0
e10-> Hits: 1, Late: 0, Early: 0, Misses: 0
e12-> Hits: 6, Late: 0, Early: 0, Misses: 0
e13-> Hits: 7, Late: 0, Early: 0, Misses: 0
e14-> Hits: 3, Late: 0, Early: 0, Misses: 0
e15-> Hits: 2, Late: 0, Early: 0, Misses: 0
e16-> Hits: 2, Late: 0, Early: 0, Misses: 0
e17-> Hits: 1, Late: 0, Early: 0, Misses: 0
e18-> Hits: 4, Late: 0, Early: 0, Misses: 0
e19-> Hits: 264, Late: 408, Early: 0, Misses: 0
e1a-> Hits: 2, Late: 0, Early: 0, Misses: 0
e1b-> Hits: 96, Late: 573, Early: 0, Misses: 0
e1c-> Hits: 4, Late: 0, Early: 0, Misses: 0
e1d-> Hits: 0, Late: 3, Early: 0, Misses: 0
e1e-> Hits: 0, Late: 638, Early: 0, Misses: 31
e20-> Hits: 12, Late: 4, Early: 0, Misses: 0
e22-> Hits: 3, Late: 0, Early: 0, Misses: 0
e23-> Hits: 7, Late: 639, Early: 0, Misses: 30
e25-> Hits: 1, Late: 0, Early: 0, Misses: 0
e26-> Hits: 2, Late: 0, Early: 0, Misses: 0
e28-> Hits: 9, Late: 665, Early: 0, Misses: 3
e29-> Hits: 284, Late: 385, Early: 0, Misses: 0
e2a-> Hits: 2, Late: 1, Early: 0, Misses: 0
e2c-> Hits: 1, Late: 669, Early: 0, Misses: 0
e2d-> Hits: 2, Late: 0, Early: 0, Misses: 0
e2f-> Hits: 2, Late: 0, Early: 0, Misses: 0
e30-> Hits: 18, Late: 0, Early: 0, Misses: 0
e31-> Hits: 1, Late: 668, Early: 0, Misses: 0
e33-> Hits: 3, Late: 0, Early: 0, Misses: 0
e34-> Hits: 1, Late: 0, Early: 0, Misses: 0
e35-> Hits: 16, Late: 0, Early: 0, Misses: 0
e36-> Hits: 2, Late: 0, Early: 0, Misses: 0
e38-> Hits: 1, Late: 0, Early: 0, Misses: 0
e39-> Hits: 7, Late: 662, Early: 0, Misses: 0
e3a-> Hits: 1, Late: 0, Early: 0, Misses: 0
e3b-> Hits: 0, Late: 1, Early: 0, Misses: 0
e3c-> Hits: 8, Late: 1, Early: 0, Misses: 0
e3d-> Hits: 15, Late: 2, Early: 0, Misses: 0
e3e-> Hits: 1, Late: 0, Early: 0, Misses: 0
e3f-> Hits: 1, Late: 0, Early: 0, Misses: 0
e40-> Hits: 6, Late: 1, Early: 0, Misses: 0
e41-> Hits: 237, Late: 886, Early: 0, Misses: 0
e42-> Hits: 2, Late: 0, Early: 0, Misses: 0
e43-> Hits: 1, Late: 0, Early: 0, Misses: 0
e44-> Hits: 3, Late: 0, Early: 0, Misses: 0
e45-> Hits: 1, Late: 1, Early: 0, Misses: 0
e47-> Hits: 2, Late: 0, Early: 0, Misses: 0
e48-> Hits: 3, Late: 0, Early: 0, Misses: 0
e49-> Hits: 2, Late: 667, Early: 0, Misses: 0
e4a-> Hits: 1, Late: 0, Early: 0, Misses: 0
e4c-> Hits: 1, Late: 1, Early: 0, Misses: 0
e4d-> Hits: 2, Late: 0, Early: 0, Misses: 0
e4f-> Hits: 2, Late: 0, Early: 0, Misses: 0
e50-> Hits: 0, Late: 3, Early: 0, Misses: 0
e51-> Hits: 2, Late: 0, Early: 0, Misses: 0
e54-> Hits: 1, Late: 0, Early: 0, Misses: 0
e55-> Hits: 3, Late: 0, Early: 0, Misses: 0
e57-> Hits: 8, Late: 0, Early: 0, Misses: 0
e58-> Hits: 2, Late: 0, Early: 0, Misses: 0
e59-> Hits: 20, Late: 0, Early: 0, Misses: 0
e5a-> Hits: 22, Late: 0, Early: 0, Misses: 0
e5b-> Hits: 22, Late: 0, Early: 0, Misses: 0
e5c-> Hits: 2, Late: 0, Early: 0, Misses: 0
e5d-> Hits: 20, Late: 0, Early: 0, Misses: 0
e5e-> Hits: 7, Late: 0, Early: 0, Misses: 0
e5f-> Hits: 20, Late: 0, Early: 0, Misses: 0
e60-> Hits: 6, Late: 2, Early: 0, Misses: 0
e61-> Hits: 22, Late: 0, Early: 0, Misses: 0
e62-> Hits: 2, Late: 0, Early: 0, Misses: 0
e63-> Hits: 26, Late: 0, Early: 0, Misses: 0
e64-> Hits: 0, Late: 1, Early: 0, Misses: 0
e65-> Hits: 6, Late: 0, Early: 0, Misses: 0
e68-> Hits: 2, Late: 0, Early: 0, Misses: 0
e6b-> Hits: 1, Late: 0, Early: 0, Misses: 0
e6c-> Hits: 1, Late: 0, Early: 0, Misses: 0
e6f-> Hits: 2, Late: 0, Early: 0, Misses: 0
e70-> Hits: 4, Late: 2, Early: 0, Misses: 0
e71-> Hits: 6, Late: 0, Early: 0, Misses: 0
e72-> Hits: 62, Late: 0, Early: 0, Misses: 0
e73-> Hits: 2, Late: 0, Early: 0, Misses: 0
e74-> Hits: 5, Late: 0, Early: 0, Misses: 0
e75-> Hits: 6, Late: 0, Early: 0, Misses: 0
e76-> Hits: 6, Late: 0, Early: 0, Misses: 0
e77-> Hits: 1, Late: 0, Early: 0, Misses: 0
e79-> Hits: 2, Late: 0, Early: 0, Misses: 0
e7a-> Hits: 1, Late: 0, Early: 0, Misses: 0
e7b-> Hits: 1, Late: 0, Early: 0, Misses: 0
e7d-> Hits: 0, Late: 63, Early: 0, Misses: 0
e7e-> Hits: 0, Late: 63, Early: 0, Misses: 0
e7f-> Hits: 66, Late: 0, Early: 0, Misses: 0
e80-> Hits: 1, Late: 0, Early: 0, Misses: 0
e81-> Hits: 69, Late: 0, Early: 0, Misses: 0
e82-> Hits: 4, Late: 0, Early: 0, Misses: 0
e83-> Hits: 66, Late: 0, Early: 0, Misses: 0
e84-> Hits: 379, Late: 279, Early: 0, Misses: 0
e85-> Hits: 63, Late: 0, Early: 0, Misses: 0
e86-> Hits: 3, Late: 0, Early: 0, Misses: 0
e87-> Hits: 63, Late: 0, Early: 0, Misses: 0
e88-> Hits: 671, Late: 0, Early: 0, Misses: 0
e8a-> Hits: 3, Late: 0, Early: 0, Misses: 0
e8b-> Hits: 2, Late: 0, Early: 0, Misses: 0
e8d-> Hits: 1, Late: 0, Early: 0, Misses: 0
e90-> Hits: 2, Late: 0, Early: 0, Misses: 0
e91-> Hits: 2, Late: 0, Early: 0, Misses: 0
e92-> Hits: 4, Late: 0, Early: 0, Misses: 0
e94-> Hits: 4, Late: 0, Early: 0, Misses: 0
e95-> Hits: 1, Late: 0, Early: 0, Misses: 0
e96-> Hits: 1, Late: 0, Early: 0, Misses: 0
e97-> Hits: 2, Late: 0, Early: 0, Misses: 0
e98-> Hits: 2, Late: 0, Early: 0, Misses: 0
e99-> Hits: 620, Late: 50, Early: 0, Misses: 0
e9a-> Hits: 2, Late: 0, Early: 0, Misses: 0
e9d-> Hits: 1, Late: 0, Early: 0, Misses: 0
e9f-> Hits: 1, Late: 0, Early: 0, Misses: 0
ea0-> Hits: 2, Late: 1, Early: 0, Misses: 0
ea1-> Hits: 5, Late: 0, Early: 0, Misses: 0
ea2-> Hits: 2, Late: 0, Early: 0, Misses: 0
ea5-> Hits: 1, Late: 0, Early: 0, Misses: 0
ea6-> Hits: 1, Late: 0, Early: 0, Misses: 0
ea7-> Hits: 1, Late: 0, Early: 0, Misses: 0
ea8-> Hits: 1, Late: 0, Early: 0, Misses: 0
ea9-> Hits: 3, Late: 0, Early: 0, Misses: 0
eaa-> Hits: 1, Late: 0, Early: 0, Misses: 0
eab-> Hits: 7, Late: 0, Early: 0, Misses: 0
eac-> Hits: 1, Late: 0, Early: 0, Misses: 0
eaf-> Hits: 0, Late: 1, Early: 0, Misses: 0
eb0-> Hits: 888399, Late: 889619, Early: 0, Misses: 0
eb3-> Hits: 1, Late: 0, Early: 0, Misses: 0
eb4-> Hits: 1, Late: 0, Early: 0, Misses: 0
eb5-> Hits: 1362622, Late: 315500, Early: 0, Misses: 0
eb6-> Hits: 4, Late: 1, Early: 0, Misses: 0
eb8-> Hits: 1, Late: 0, Early: 0, Misses: 0
eba-> Hits: 875430, Late: 890230, Early: 0, Misses: 0
ebc-> Hits: 3, Late: 0, Early: 0, Misses: 0
ebd-> Hits: 1, Late: 0, Early: 0, Misses: 0
ebe-> Hits: 2, Late: 0, Early: 0, Misses: 0
ebf-> Hits: 2, Late: 1, Early: 0, Misses: 0
ec0-> Hits: 1342669, Late: 337389, Early: 0, Misses: 0
ec1-> Hits: 13, Late: 0, Early: 0, Misses: 0
ec2-> Hits: 2, Late: 0, Early: 0, Misses: 0
ec3-> Hits: 2, Late: 0, Early: 0, Misses: 0
ec4-> Hits: 1, Late: 1, Early: 0, Misses: 0
ec5-> Hits: 5, Late: 0, Early: 0, Misses: 0
ec6-> Hits: 840674, Late: 911321, Early: 0, Misses: 0
ec7-> Hits: 1, Late: 1, Early: 0, Misses: 0
ec8-> Hits: 1, Late: 0, Early: 0, Misses: 0
eca-> Hits: 1, Late: 0, Early: 0, Misses: 0
ecb-> Hits: 0, Late: 1, Early: 0, Misses: 0
ecc-> Hits: 1319151, Late: 354792, Early: 0, Misses: 0
ecd-> Hits: 1, Late: 0, Early: 0, Misses: 0
ece-> Hits: 0, Late: 1, Early: 0, Misses: 0
ecf-> Hits: 2, Late: 0, Early: 0, Misses: 0
ed0-> Hits: 3, Late: 0, Early: 0, Misses: 0
ed1-> Hits: 671, Late: 1, Early: 0, Misses: 0
ed2-> Hits: 771652, Late: 953562, Early: 0, Misses: 0
ed3-> Hits: 2, Late: 0, Early: 0, Misses: 0
ed5-> Hits: 5, Late: 1, Early: 0, Misses: 0
ed6-> Hits: 1, Late: 0, Early: 0, Misses: 0
ed7-> Hits: 3, Late: 0, Early: 0, Misses: 0
ed8-> Hits: 1281244, Late: 379442, Early: 0, Misses: 0
ed9-> Hits: 5, Late: 0, Early: 0, Misses: 0
edb-> Hits: 2, Late: 0, Early: 0, Misses: 0
edc-> Hits: 3, Late: 0, Early: 0, Misses: 0
edf-> Hits: 0, Late: 1, Early: 0, Misses: 0
ee0-> Hits: 421, Late: 255, Early: 0, Misses: 0
ee1-> Hits: 6, Late: 64, Early: 0, Misses: 0
ee2-> Hits: 3, Late: 0, Early: 0, Misses: 0
ee3-> Hits: 5, Late: 0, Early: 0, Misses: 0
ee4-> Hits: 8, Late: 0, Early: 0, Misses: 0
ee5-> Hits: 5, Late: 0, Early: 0, Misses: 0
ee7-> Hits: 5, Late: 0, Early: 0, Misses: 0
ee8-> Hits: 2, Late: 0, Early: 0, Misses: 0
ee9-> Hits: 6, Late: 0, Early: 0, Misses: 0
eea-> Hits: 5, Late: 0, Early: 0, Misses: 0
eeb-> Hits: 2, Late: 0, Early: 0, Misses: 0
eec-> Hits: 2, Late: 0, Early: 0, Misses: 0
eed-> Hits: 2, Late: 0, Early: 0, Misses: 0
eee-> Hits: 2, Late: 0, Early: 0, Misses: 0
eef-> Hits: 16, Late: 0, Early: 0, Misses: 0
ef0-> Hits: 5, Late: 0, Early: 0, Misses: 0
ef1-> Hits: 2, Late: 0, Early: 0, Misses: 0
ef2-> Hits: 3, Late: 0, Early: 0, Misses: 0
ef3-> Hits: 1, Late: 0, Early: 0, Misses: 0
ef4-> Hits: 69, Late: 0, Early: 0, Misses: 0
ef5-> Hits: 1, Late: 0, Early: 0, Misses: 0
ef6-> Hits: 2, Late: 0, Early: 0, Misses: 0
ef7-> Hits: 2, Late: 0, Early: 0, Misses: 0
ef8-> Hits: 3, Late: 2, Early: 0, Misses: 0
ef9-> Hits: 1, Late: 0, Early: 0, Misses: 0
efa-> Hits: 8, Late: 0, Early: 0, Misses: 0
efb-> Hits: 5, Late: 0, Early: 0, Misses: 0
efc-> Hits: 4, Late: 0, Early: 0, Misses: 0
efd-> Hits: 2, Late: 0, Early: 0, Misses: 0
efe-> Hits: 679786, Late: 1673173, Early: 0, Misses: 63
eff-> Hits: 6, Late: 0, Early: 0, Misses: 0
f00-> Hits: 4, Late: 0, Early: 0, Misses: 0
f01-> Hits: 4, Late: 0, Early: 0, Misses: 0
f02-> Hits: 4, Late: 0, Early: 0, Misses: 0
f03-> Hits: 2, Late: 0, Early: 0, Misses: 0
f04-> Hits: 6, Late: 0, Early: 0, Misses: 0
f05-> Hits: 3, Late: 0, Early: 0, Misses: 0
f06-> Hits: 8, Late: 0, Early: 0, Misses: 0
f07-> Hits: 2, Late: 0, Early: 0, Misses: 0
f08-> Hits: 4, Late: 0, Early: 0, Misses: 0
f09-> Hits: 9, Late: 0, Early: 0, Misses: 0
f0b-> Hits: 2, Late: 0, Early: 0, Misses: 0
f0c-> Hits: 6, Late: 2, Early: 0, Misses: 0
f0d-> Hits: 2, Late: 0, Early: 0, Misses: 0
f0e-> Hits: 1, Late: 0, Early: 0, Misses: 0
f10-> Hits: 38, Late: 4, Early: 0, Misses: 0
f13-> Hits: 32, Late: 0, Early: 0, Misses: 0
f15-> Hits: 1, Late: 0, Early: 0, Misses: 0
f16-> Hits: 3, Late: 0, Early: 0, Misses: 0
f17-> Hits: 675, Late: 0, Early: 0, Misses: 0
f18-> Hits: 1, Late: 0, Early: 0, Misses: 0
f19-> Hits: 4, Late: 4, Early: 0, Misses: 0
f1c-> Hits: 1, Late: 0, Early: 0, Misses: 0
f1e-> Hits: 2, Late: 0, Early: 0, Misses: 1
f20-> Hits: 626, Late: 361, Early: 0, Misses: 0
f21-> Hits: 47, Late: 44, Early: 0, Misses: 0
f22-> Hits: 8, Late: 0, Early: 0, Misses: 1
f23-> Hits: 40, Late: 0, Early: 0, Misses: 0
f24-> Hits: 37, Late: 0, Early: 0, Misses: 0
f25-> Hits: 912, Late: 60, Early: 0, Misses: 0
f26-> Hits: 1, Late: 0, Early: 0, Misses: 0
f27-> Hits: 8, Late: 0, Early: 0, Misses: 0
f28-> Hits: 2, Late: 0, Early: 0, Misses: 0
f29-> Hits: 20, Late: 8, Early: 0, Misses: 0
f2a-> Hits: 611, Late: 380, Early: 0, Misses: 0
f2b-> Hits: 64, Late: 1, Early: 0, Misses: 0
f2f-> Hits: 5, Late: 0, Early: 0, Misses: 0
f30-> Hits: 896, Late: 90, Early: 0, Misses: 0
f31-> Hits: 2307, Late: 0, Early: 0, Misses: 0
f32-> Hits: 35, Late: 0, Early: 0, Misses: 0
f33-> Hits: 9, Late: 0, Early: 0, Misses: 0
f34-> Hits: 1, Late: 2, Early: 0, Misses: 0
f37-> Hits: 5, Late: 0, Early: 0, Misses: 0
f39-> Hits: 3, Late: 0, Early: 0, Misses: 0
f3b-> Hits: 8, Late: 0, Early: 0, Misses: 0
f3c-> Hits: 8, Late: 0, Early: 0, Misses: 0
f3d-> Hits: 681, Late: 6, Early: 0, Misses: 0
f3e-> Hits: 1, Late: 0, Early: 0, Misses: 0
f3f-> Hits: 15, Late: 0, Early: 0, Misses: 0
f40-> Hits: 608, Late: 354, Early: 0, Misses: 0
f41-> Hits: 8, Late: 0, Early: 0, Misses: 0
f43-> Hits: 9, Late: 0, Early: 0, Misses: 0
f44-> Hits: 5, Late: 0, Early: 0, Misses: 0
f45-> Hits: 876, Late: 84, Early: 0, Misses: 0
f47-> Hits: 18, Late: 0, Early: 0, Misses: 0
f49-> Hits: 2, Late: 0, Early: 0, Misses: 0
f4a-> Hits: 601, Late: 361, Early: 0, Misses: 0
f4c-> Hits: 0, Late: 1, Early: 0, Misses: 0
f50-> Hits: 860, Late: 98, Early: 0, Misses: 0
f53-> Hits: 7, Late: 0, Early: 0, Misses: 0
f54-> Hits: 2, Late: 0, Early: 0, Misses: 0
f59-> Hits: 1580, Late: 942, Early: 0, Misses: 1
f5a-> Hits: 68, Late: 0, Early: 0, Misses: 0
f5b-> Hits: 1, Late: 0, Early: 0, Misses: 0
f5d-> Hits: 0, Late: 0, Early: 0, Misses: 1
f5e-> Hits: 1, Late: 0, Early: 0, Misses: 0
f5f-> Hits: 589, Late: 354, Early: 0, Misses: 0
f60-> Hits: 10, Late: 2, Early: 0, Misses: 0
f61-> Hits: 1, Late: 0, Early: 0, Misses: 0
f63-> Hits: 2, Late: 0, Early: 0, Misses: 0
f64-> Hits: 2863, Late: 592, Early: 0, Misses: 0
f65-> Hits: 4, Late: 1, Early: 0, Misses: 0
f66-> Hits: 28, Late: 0, Early: 0, Misses: 0
f68-> Hits: 2, Late: 0, Early: 0, Misses: 0
f69-> Hits: 592, Late: 348, Early: 0, Misses: 0
f6c-> Hits: 182, Late: 1, Early: 0, Misses: 0
f6d-> Hits: 8, Late: 0, Early: 0, Misses: 0
f6f-> Hits: 842, Late: 103, Early: 0, Misses: 0
f70-> Hits: 0, Late: 66, Early: 0, Misses: 0
f73-> Hits: 1, Late: 1, Early: 0, Misses: 0
f74-> Hits: 1565, Late: 958, Early: 0, Misses: 0
f78-> Hits: 1835, Late: 687, Early: 0, Misses: 0
f7a-> Hits: 4, Late: 0, Early: 0, Misses: 0
f7d-> Hits: 8, Late: 0, Early: 0, Misses: 0
f7e-> Hits: 579, Late: 342, Early: 0, Misses: 0
f7f-> Hits: 3, Late: 1, Early: 0, Misses: 0
f80-> Hits: 4, Late: 1, Early: 0, Misses: 0
f83-> Hits: 846, Late: 65, Early: 0, Misses: 0
f85-> Hits: 3, Late: 0, Early: 0, Misses: 0
f86-> Hits: 3, Late: 1, Early: 0, Misses: 0
f87-> Hits: 14, Late: 0, Early: 0, Misses: 0
f88-> Hits: 549, Late: 369, Early: 0, Misses: 0
f89-> Hits: 1, Late: 0, Early: 0, Misses: 0
f8b-> Hits: 238, Late: 16, Early: 0, Misses: 0
f8c-> Hits: 6, Late: 0, Early: 0, Misses: 0
f8d-> Hits: 4, Late: 0, Early: 0, Misses: 0
f8e-> Hits: 811, Late: 99, Early: 0, Misses: 0
f8f-> Hits: 1, Late: 0, Early: 0, Misses: 0
f90-> Hits: 6, Late: 0, Early: 0, Misses: 0
f91-> Hits: 1, Late: 0, Early: 0, Misses: 0
f92-> Hits: 2, Late: 0, Early: 0, Misses: 0
f93-> Hits: 6, Late: 0, Early: 0, Misses: 0
f94-> Hits: 1, Late: 0, Early: 0, Misses: 0
f95-> Hits: 0, Late: 2, Early: 0, Misses: 0
f96-> Hits: 1, Late: 0, Early: 0, Misses: 0
f98-> Hits: 1, Late: 0, Early: 0, Misses: 0
f9a-> Hits: 15, Late: 0, Early: 0, Misses: 0
f9c-> Hits: 3, Late: 0, Early: 0, Misses: 0
f9d-> Hits: 17, Late: 3, Early: 0, Misses: 0
f9e-> Hits: 1, Late: 0, Early: 0, Misses: 0
f9f-> Hits: 7, Late: 0, Early: 0, Misses: 0
fa0-> Hits: 4, Late: 1, Early: 0, Misses: 0
fa1-> Hits: 1, Late: 0, Early: 0, Misses: 0
fa4-> Hits: 1, Late: 0, Early: 0, Misses: 0
faa-> Hits: 3, Late: 0, Early: 0, Misses: 0
fb0-> Hits: 1487, Late: 1057, Early: 0, Misses: 0
fb1-> Hits: 5, Late: 1, Early: 0, Misses: 0
fb3-> Hits: 10, Late: 0, Early: 0, Misses: 0
fb6-> Hits: 1, Late: 0, Early: 0, Misses: 0
fb8-> Hits: 5, Late: 1, Early: 0, Misses: 0
fba-> Hits: 171, Late: 104, Early: 0, Misses: 0
fbb-> Hits: 62, Late: 2, Early: 0, Misses: 0
fbd-> Hits: 1, Late: 0, Early: 0, Misses: 0
fbe-> Hits: 1, Late: 0, Early: 0, Misses: 0
fbf-> Hits: 2, Late: 0, Early: 0, Misses: 0
fc0-> Hits: 4, Late: 0, Early: 0, Misses: 0
fc1-> Hits: 943, Late: 27, Early: 0, Misses: 54
fc4-> Hits: 8, Late: 0, Early: 0, Misses: 0
fc5-> Hits: 3, Late: 0, Early: 0, Misses: 0
fc6-> Hits: 2, Late: 0, Early: 0, Misses: 0
fc7-> Hits: 2, Late: 0, Early: 0, Misses: 0
fc8-> Hits: 9, Late: 0, Early: 0, Misses: 0
fca-> Hits: 2, Late: 0, Early: 0, Misses: 0
fcb-> Hits: 1, Late: 0, Early: 0, Misses: 0
fcd-> Hits: 1, Late: 1, Early: 0, Misses: 0
fce-> Hits: 1, Late: 0, Early: 0, Misses: 0
fd0-> Hits: 4, Late: 0, Early: 0, Misses: 0
fd2-> Hits: 1, Late: 0, Early: 0, Misses: 0
fd5-> Hits: 926, Late: 41, Early: 0, Misses: 57
fd6-> Hits: 6, Late: 0, Early: 0, Misses: 0
fd7-> Hits: 6, Late: 0, Early: 0, Misses: 0
fd8-> Hits: 10, Late: 0, Early: 0, Misses: 0
fda-> Hits: 6, Late: 0, Early: 0, Misses: 0
fdc-> Hits: 7, Late: 1, Early: 0, Misses: 0
fde-> Hits: 8, Late: 0, Early: 0, Misses: 0
fdf-> Hits: 155, Late: 3, Early: 0, Misses: 0
fe0-> Hits: 11, Late: 0, Early: 0, Misses: 0
fe1-> Hits: 4, Late: 0, Early: 0, Misses: 0
fe2-> Hits: 2, Late: 0, Early: 0, Misses: 0
fe3-> Hits: 4, Late: 0, Early: 0, Misses: 0
fe4-> Hits: 63, Late: 2, Early: 0, Misses: 0
fe5-> Hits: 6, Late: 7, Early: 0, Misses: 0
fe6-> Hits: 2, Late: 0, Early: 0, Misses: 0
fe7-> Hits: 1, Late: 1, Early: 0, Misses: 0
fe8-> Hits: 555, Late: 331, Early: 0, Misses: 0
feb-> Hits: 1, Late: 2, Early: 0, Misses: 0
fec-> Hits: 6, Late: 0, Early: 0, Misses: 0
fed-> Hits: 789, Late: 89, Early: 0, Misses: 0
fee-> Hits: 1, Late: 0, Early: 0, Misses: 0
fef-> Hits: 0, Late: 1, Early: 0, Misses: 0
ff0-> Hits: 7, Late: 0, Early: 0, Misses: 0
ff2-> Hits: 2583, Late: 823, Early: 0, Misses: 0
ff3-> Hits: 14, Late: 0, Early: 0, Misses: 0
ff5-> Hits: 1, Late: 0, Early: 0, Misses: 0
ff7-> Hits: 4, Late: 0, Early: 0, Misses: 0
ff8-> Hits: 757, Late: 107, Early: 0, Misses: 0
ff9-> Hits: 121, Late: 22, Early: 0, Misses: 0
ffd-> Hits: 2, Late: 0, Early: 0, Misses: 0
ffe-> Hits: 20, Late: 0, Early: 0, Misses: 0
fff-> Hits: 12, Late: 0, Early: 0, Misses: 0
Total misses (from ip) 13630580
Total accesses (misses) 559461297 13630580
Pref: Addr 0 IP 0 Current 0
CPU 0 L2C berti prefetcher final stats
Channel_0_RQ_row_buffer_hit 6519666
Channel_0_RQ_row_buffer_miss 5046905
Channel_0_WQ_row_buffer_hit 2297322
Channel_0_WQ_row_buffer_miss 4262636
Channel_0_WQ_full 4827
Channel_0_dbus_congested 7875862

avg_congested_cycle 8

EzSearch AVG IPC :1.22166: L2-Pf-HR :0.86217 : L2-HR :0.84401 Uful:0.09197
     > Finished combination: TraceType=770-tot Sim:2361000000 Prefetcher=L2berti L1=berti
