TRACE: [75000000]_FE_[GPT-Neo_1_3B]_[h16]_[s256]_[d128] Warmup: 2000000 NumTraces: 75000000
L1:no:L2:spp_berti_src
Initialize SIGNATURE TABLE
ST_SET: 1
ST_WAY: 256
ST_TAG_BIT: 16
ST_TAG_MASK: ffff

Initialize PATTERN TABLE
PT_SET: 512
PT_WAY: 4
SIG_DELTA_BIT: 7
C_SIG_BIT: 4
C_DELTA_BIT: 4

Initialize PREFETCH FILTER
FILTER_SET: 1024
*************************************************
   ChampSim Multicore Out-of-Order Simulator
   Last compiled: Oct 26 2024 16:58:38
*************************************************

trace_0 770-tot_memTraces_v3/memTraces[75000000]_FE_[GPT-Neo_1_3B]_[h16]_[s256]_[d128].champsim.xz
ST_WAYS: 256
PT_SETS: 512
MAIN.cc ln 751 stats print skipped
CPU  0 inst:    1000000 cyc:     499409 now IPC :2.00237: AVG IPC :2.00237: L2-Pf-HR :0.98236: L2-HR :0.85960: (Sim:0h0m6s) 
CPU  0 inst:    2000002 cyc:     984655 now IPC :2.06081: AVG IPC :2.03117: L2-Pf-HR :0.98944: L2-HR :0.90758: (Sim:0h0m13s) 

Warmup complete CPU  0 instructions:    2000002 cycles:     984655 (Simulation time: 0 hr 0 min 13 sec) 

CPU  0 inst:    3000002 cyc:    1579313 now IPC :1.68164: AVG IPC :1.68164: L2-Pf-HR :0.99859: L2-HR :0.92348: (Sim:0h0m18s) 
CPU  0 inst:    4000001 cyc:    2123535 now IPC :1.83748: AVG IPC :1.75611: L2-Pf-HR :0.99875: L2-HR :0.93353: (Sim:0h0m24s) 
CPU  0 inst:    5000000 cyc:    2703719 now IPC :1.72359: AVG IPC :1.74513: L2-Pf-HR :0.99868: L2-HR :0.93096: (Sim:0h0m30s) 
CPU  0 inst:    6000002 cyc:    3254514 now IPC :1.81556: AVG IPC :1.76222: L2-Pf-HR :0.99875: L2-HR :0.93308: (Sim:0h0m36s) 
CPU  0 inst:    7000004 cyc:    3838900 now IPC :1.71120: AVG IPC :1.75178: L2-Pf-HR :0.99878: L2-HR :0.93203: (Sim:0h0m42s) 
CPU  0 inst:    8000000 cyc:    4378436 now IPC :1.85344: AVG IPC :1.76794: L2-Pf-HR :0.99878: L2-HR :0.93355: (Sim:0h0m48s) 
CPU  0 inst:    9000005 cyc:    4969724 now IPC :1.69123: AVG IPC :1.75656: L2-Pf-HR :0.99877: L2-HR :0.93221: (Sim:0h0m54s) 
CPU  0 inst:   10000004 cyc:    5506117 now IPC :1.86430: AVG IPC :1.76934: L2-Pf-HR :0.99882: L2-HR :0.93387: (Sim:0h1m0s) 
CPU  0 inst:   11000000 cyc:    6091798 now IPC :1.70741: AVG IPC :1.76224: L2-Pf-HR :0.99876: L2-HR :0.93283: (Sim:0h1m6s) 
CPU  0 inst:   12000005 cyc:    6637212 now IPC :1.83348: AVG IPC :1.76911: L2-Pf-HR :0.99881: L2-HR :0.93388: (Sim:0h1m12s) 
CPU  0 inst:   13000001 cyc:    7222257 now IPC :1.70926: AVG IPC :1.76350: L2-Pf-HR :0.99878: L2-HR :0.93319: (Sim:0h1m18s) 
CPU  0 inst:   14000001 cyc:    7758777 now IPC :1.86386: AVG IPC :1.77145: L2-Pf-HR :0.99879: L2-HR :0.93420: (Sim:0h1m24s) 
CPU  0 inst:   15000001 cyc:    8351893 now IPC :1.68601: AVG IPC :1.76457: L2-Pf-HR :0.99877: L2-HR :0.93345: (Sim:0h1m31s) 
CPU  0 inst:   16000001 cyc:    8893437 now IPC :1.84657: AVG IPC :1.77018: L2-Pf-HR :0.99879: L2-HR :0.93445: (Sim:0h1m37s) 
CPU  0 inst:   17000004 cyc:    9476956 now IPC :1.71375: AVG IPC :1.76631: L2-Pf-HR :0.99877: L2-HR :0.93400: (Sim:0h1m43s) 
CPU  0 inst:   18000005 cyc:   10027915 now IPC :1.81502: AVG IPC :1.76927: L2-Pf-HR :0.99878: L2-HR :0.93460: (Sim:0h1m49s) 
CPU  0 inst:   19000004 cyc:   10610450 now IPC :1.71663: AVG IPC :1.76609: L2-Pf-HR :0.99878: L2-HR :0.93447: (Sim:0h1m56s) 
CPU  0 inst:   20000001 cyc:   11162670 now IPC :1.81087: AVG IPC :1.76852: L2-Pf-HR :0.99879: L2-HR :0.93489: (Sim:0h2m2s) 
CPU  0 inst:   21000002 cyc:   11743868 now IPC :1.72059: AVG IPC :1.76593: L2-Pf-HR :0.99880: L2-HR :0.93470: (Sim:0h2m9s) 
CPU  0 inst:   22000004 cyc:   12289088 now IPC :1.83413: AVG IPC :1.76922: L2-Pf-HR :0.99882: L2-HR :0.93537: (Sim:0h2m15s) 
CPU  0 inst:   23000000 cyc:   12875813 now IPC :1.70437: AVG IPC :1.76602: L2-Pf-HR :0.99880: L2-HR :0.93493: (Sim:0h2m22s) 
CPU  0 inst:   24000002 cyc:   13421241 now IPC :1.83343: AVG IPC :1.76897: L2-Pf-HR :0.99882: L2-HR :0.93555: (Sim:0h2m28s) 
CPU  0 inst:   25000001 cyc:   14001136 now IPC :1.72445: AVG IPC :1.76699: L2-Pf-HR :0.99881: L2-HR :0.93530: (Sim:0h2m34s) 
CPU  0 inst:   26000005 cyc:   14554031 now IPC :1.80867: AVG IPC :1.76869: L2-Pf-HR :0.99882: L2-HR :0.93569: (Sim:0h2m41s) 
CPU  0 inst:   27000005 cyc:   15128880 now IPC :1.73959: AVG IPC :1.76751: L2-Pf-HR :0.99881: L2-HR :0.93547: (Sim:0h2m47s) 
CPU  0 inst:   28000001 cyc:   15682975 now IPC :1.80474: AVG IPC :1.76891: L2-Pf-HR :0.99883: L2-HR :0.93598: (Sim:0h2m54s) 
CPU  0 inst:   29000000 cyc:   16258681 now IPC :1.73700: AVG IPC :1.76771: L2-Pf-HR :0.99881: L2-HR :0.93559: (Sim:0h3m0s) 
CPU  0 inst:   30000005 cyc:   16820709 now IPC :1.77928: AVG IPC :1.76812: L2-Pf-HR :0.99883: L2-HR :0.93602: (Sim:0h3m7s) 
CPU  0 inst:   31000005 cyc:   17370792 now IPC :1.81791: AVG IPC :1.76979: L2-Pf-HR :0.99882: L2-HR :0.93658: (Sim:0h3m13s) 
CPU  0 inst:   32000001 cyc:   17967704 now IPC :1.67528: AVG IPC :1.76647: L2-Pf-HR :0.99883: L2-HR :0.93606: (Sim:0h3m20s) 
CPU  0 inst:   33000000 cyc:   18508682 now IPC :1.84850: AVG IPC :1.76900: L2-Pf-HR :0.99882: L2-HR :0.93662: (Sim:0h3m27s) 
CPU  0 inst:   34000001 cyc:   20071826 now IPC :0.63974: AVG IPC :1.67652: L2-Pf-HR :0.99780: L2-HR :0.90794: (Sim:0h3m36s) 
CPU  0 inst:   35000001 cyc:   23140787 now IPC :0.32584: AVG IPC :1.48943: L2-Pf-HR :0.99606: L2-HR :0.90294: (Sim:0h3m47s) 
CPU  0 inst:   36000001 cyc:   26219121 now IPC :0.32485: AVG IPC :1.34736: L2-Pf-HR :0.99400: L2-HR :0.89704: (Sim:0h3m59s) 
CPU  0 inst:   37000001 cyc:   29299629 now IPC :0.32462: AVG IPC :1.23610: L2-Pf-HR :0.99188: L2-HR :0.89106: (Sim:0h4m11s) 
CPU  0 inst:   38000001 cyc:   32380699 now IPC :0.32456: AVG IPC :1.14664: L2-Pf-HR :0.98974: L2-HR :0.88517: (Sim:0h4m22s) 
CPU  0 inst:   39000001 cyc:   35464482 now IPC :0.32428: AVG IPC :1.07309: L2-Pf-HR :0.98763: L2-HR :0.87943: (Sim:0h4m34s) 
CPU  0 inst:   40000001 cyc:   38549159 now IPC :0.32418: AVG IPC :1.01159: L2-Pf-HR :0.98550: L2-HR :0.87382: (Sim:0h4m46s) 
CPU  0 inst:   41000001 cyc:   41630801 now IPC :0.32450: AVG IPC :0.95950: L2-Pf-HR :0.98339: L2-HR :0.86835: (Sim:0h4m58s) 
CPU  0 inst:   42000003 cyc:   44660422 now IPC :0.33007: AVG IPC :0.91584: L2-Pf-HR :0.98136: L2-HR :0.86195: (Sim:0h5m9s) 
CPU  0 inst:   43000004 cyc:   45425103 now IPC :1.30774: AVG IPC :0.92258: L2-Pf-HR :0.98207: L2-HR :0.86419: (Sim:0h5m23s) 
CPU  0 inst:   44000000 cyc:   45999750 now IPC :1.74019: AVG IPC :0.93302: L2-Pf-HR :0.98301: L2-HR :0.86886: (Sim:0h5m32s) 
CPU  0 inst:   45000005 cyc:   46652466 now IPC :1.53207: AVG IPC :0.94158: L2-Pf-HR :0.98375: L2-HR :0.87172: (Sim:0h5m42s) 
CPU  0 inst:   46000004 cyc:   47199136 now IPC :1.82926: AVG IPC :0.95208: L2-Pf-HR :0.98445: L2-HR :0.87530: (Sim:0h5m50s) 
CPU  0 inst:   47000000 cyc:   47875703 now IPC :1.47804: AVG IPC :0.95967: L2-Pf-HR :0.98511: L2-HR :0.87807: (Sim:0h6m2s) 
CPU  0 inst:   48000004 cyc:   48445219 now IPC :1.75588: AVG IPC :0.96923: L2-Pf-HR :0.98570: L2-HR :0.88116: (Sim:0h6m12s) 
CPU  0 inst:   49000002 cyc:   49097013 now IPC :1.53422: AVG IPC :0.97688: L2-Pf-HR :0.98627: L2-HR :0.88375: (Sim:0h6m21s) 
CPU  0 inst:   50000002 cyc:   49662112 now IPC :1.76960: AVG IPC :0.98608: L2-Pf-HR :0.98676: L2-HR :0.88636: (Sim:0h6m30s) 
CPU  0 inst:   51000003 cyc:   50303998 now IPC :1.55791: AVG IPC :0.99353: L2-Pf-HR :0.98725: L2-HR :0.88857: (Sim:0h6m41s) 
CPU  0 inst:   52000003 cyc:   50888475 now IPC :1.71093: AVG IPC :1.00193: L2-Pf-HR :0.98768: L2-HR :0.89092: (Sim:0h6m52s) 
CPU  0 inst:   53000001 cyc:   51603371 now IPC :1.39880: AVG IPC :1.00753: L2-Pf-HR :0.98809: L2-HR :0.89282: (Sim:0h7m3s) 
CPU  0 inst:   54000001 cyc:   52155231 now IPC :1.81205: AVG IPC :1.01621: L2-Pf-HR :0.98847: L2-HR :0.89510: (Sim:0h7m13s) 
CPU  0 inst:   55000000 cyc:   52818429 now IPC :1.50784: AVG IPC :1.02250: L2-Pf-HR :0.98882: L2-HR :0.89659: (Sim:0h7m24s) 
CPU  0 inst:   56000005 cyc:   53394099 now IPC :1.73712: AVG IPC :1.03035: L2-Pf-HR :0.98915: L2-HR :0.89860: (Sim:0h7m35s) 
CPU  0 inst:   57000005 cyc:   54061700 now IPC :1.49790: AVG IPC :1.03623: L2-Pf-HR :0.98946: L2-HR :0.89995: (Sim:0h7m48s) 
CPU  0 inst:   58000000 cyc:   54660635 now IPC :1.66962: AVG IPC :1.04330: L2-Pf-HR :0.98976: L2-HR :0.90176: (Sim:0h7m59s) 
CPU  0 inst:   59000001 cyc:   55319520 now IPC :1.51772: AVG IPC :1.04905: L2-Pf-HR :0.99004: L2-HR :0.90303: (Sim:0h8m10s) 
CPU  0 inst:   60000004 cyc:   55925848 now IPC :1.64928: AVG IPC :1.05567: L2-Pf-HR :0.99029: L2-HR :0.90464: (Sim:0h8m21s) 
CPU  0 inst:   61000004 cyc:   56582793 now IPC :1.52220: AVG IPC :1.06119: L2-Pf-HR :0.99054: L2-HR :0.90577: (Sim:0h8m32s) 
CPU  0 inst:   62000000 cyc:   57154959 now IPC :1.74774: AVG IPC :1.06818: L2-Pf-HR :0.99076: L2-HR :0.90728: (Sim:0h8m42s) 
CPU  0 inst:   63000002 cyc:   57749595 now IPC :1.68170: AVG IPC :1.07461: L2-Pf-HR :0.99101: L2-HR :0.90884: (Sim:0h8m53s) 
CPU  0 inst:   64000001 cyc:   58426509 now IPC :1.47729: AVG IPC :1.07935: L2-Pf-HR :0.99120: L2-HR :0.90968: (Sim:0h9m8s) 
CPU  0 inst:   65000004 cyc:   59005969 now IPC :1.72575: AVG IPC :1.08581: L2-Pf-HR :0.99141: L2-HR :0.91117: (Sim:0h9m20s) 
CPU  0 inst:   66000005 cyc:   59677676 now IPC :1.48875: AVG IPC :1.09042: L2-Pf-HR :0.99159: L2-HR :0.91186: (Sim:0h9m32s) 
CPU  0 inst:   67000003 cyc:   60252670 now IPC :1.73915: AVG IPC :1.09671: L2-Pf-HR :0.99178: L2-HR :0.91312: (Sim:0h9m42s) 
CPU  0 inst:   68000005 cyc:   60886437 now IPC :1.57787: AVG IPC :1.10180: L2-Pf-HR :0.99195: L2-HR :0.91396: (Sim:0h9m52s) 
CPU  0 inst:   69000003 cyc:   61459948 now IPC :1.74364: AVG IPC :1.10789: L2-Pf-HR :0.99211: L2-HR :0.91502: (Sim:0h10m3s) 
CPU  0 inst:   70000003 cyc:   62052435 now IPC :1.68780: AVG IPC :1.11352: L2-Pf-HR :0.99228: L2-HR :0.91580: (Sim:0h10m11s) 
CPU  0 inst:   71000004 cyc:   62609119 now IPC :1.79635: AVG IPC :1.11969: L2-Pf-HR :0.99243: L2-HR :0.91682: (Sim:0h10m21s) 
CPU  0 inst:   72000005 cyc:   63226029 now IPC :1.62098: AVG IPC :1.12465: L2-Pf-HR :0.99257: L2-HR :0.91748: (Sim:0h10m31s) 
Finished CPU 0 instr: 70000003 cyc: 62241374 AVG IPC: 1.12465 (Sim time: 0h10m31s)

ChampSim completed all CPUs

[ROI Statistics]
Core_0_instructions 70000003
Core_0_cycles 62241374
Core_0_IPC 1.12465

Core_0_branch_prediction_accuracy 97.65568
Core_0_branch_MPKI 0.58861
Core_0_average_ROB_occupancy_at_mispredict 494.18957

Core_0_L1D_total_access 17789246
Core_0_L1D_total_hit 16534096 L1D_total_Hit Ratio: 0.92944
Core_0_L1D_total_miss 1255150
Core_0_L1D_loads 16207108
Core_0_L1D_load_hit 15026199 L1D_load_Hit Ratio: 0.92714
Core_0_L1D_load_miss 1180909
Core_0_L1D_RFOs 1582138
Core_0_L1D_RFO_hit 1507897 L1D_RFO_Hit Ratio: 0.95308
Core_0_L1D_RFO_miss 74241
Core_0_L1D_prefetches 0
Core_0_L1D_prefetch_hit 0 L1D_prefetch_Hit Ratio: -nan
Core_0_L1D_prefetch_miss 0
Core_0_L1D_writebacks 0
Core_0_L1D_writeback_hit 0 L1D_writeback_Hit Ratio: -nan
Core_0_L1D_writeback_miss 0
Core_0_L1D_prefetch_requested 0
Core_0_L1D_prefetch_issued 0
Core_0_L1D_prefetch_useful 0 L1D_Useful Ratio: -nan
Core_0_L1D_prefetch_useless 0
Core_0_L1D_prefetch_late 0
Core_0_L1D_average_miss_latency 86.18941

Core_0_L1I_total_access 9044728
Core_0_L1I_total_hit 9042841 L1I_total_Hit Ratio: 0.99979
Core_0_L1I_total_miss 1887
Core_0_L1I_loads 9044728
Core_0_L1I_load_hit 9042841 L1I_load_Hit Ratio: 0.99979
Core_0_L1I_load_miss 1887
Core_0_L1I_RFOs 0
Core_0_L1I_RFO_hit 0 L1I_RFO_Hit Ratio: -nan
Core_0_L1I_RFO_miss 0
Core_0_L1I_prefetches 0
Core_0_L1I_prefetch_hit 0 L1I_prefetch_Hit Ratio: -nan
Core_0_L1I_prefetch_miss 0
Core_0_L1I_writebacks 0
Core_0_L1I_writeback_hit 0 L1I_writeback_Hit Ratio: -nan
Core_0_L1I_writeback_miss 0
Core_0_L1I_prefetch_requested 0
Core_0_L1I_prefetch_issued 0
Core_0_L1I_prefetch_useful 0 L1I_Useful Ratio: -nan
Core_0_L1I_prefetch_useless 0
Core_0_L1I_prefetch_late 0
Core_0_L1I_average_miss_latency 235.77424

Core_0_L2C_total_access 5373604
Core_0_L2C_total_hit 4930153 L2C_total_Hit Ratio: 0.91748
Core_0_L2C_total_miss 443451
Core_0_L2C_loads 1182791
Core_0_L2C_load_hit 833375 L2C_load_Hit Ratio: 0.70458
Core_0_L2C_load_miss 349416
Core_0_L2C_RFOs 74225
Core_0_L2C_RFO_hit 8110 L2C_RFO_Hit Ratio: 0.10926
Core_0_L2C_RFO_miss 66115
Core_0_L2C_prefetches 3757675
Core_0_L2C_prefetch_hit 3729760 L2C_prefetch_Hit Ratio: 0.99257
Core_0_L2C_prefetch_miss 27915
Core_0_L2C_writebacks 358913
Core_0_L2C_writeback_hit 358908 L2C_writeback_Hit Ratio: 0.99999
Core_0_L2C_writeback_miss 5
Core_0_L2C_prefetch_requested 7691904
Core_0_L2C_prefetch_issued 7265880
Core_0_L2C_prefetch_useful 28927 L2C_Useful Ratio: 0.00398
Core_0_L2C_prefetch_useless 75
Core_0_L2C_prefetch_late 48473
Core_0_L2C_average_miss_latency 195.17832

Core_0_LLC_total_access 1391881
Core_0_LLC_total_hit 1085881 LLC_total_Hit Ratio: 0.78015
Core_0_LLC_total_miss 306000
Core_0_LLC_loads 301051
Core_0_LLC_load_hit 148540 LLC_load_Hit Ratio: 0.49340
Core_0_LLC_load_miss 152511
Core_0_LLC_RFOs 66115
Core_0_LLC_RFO_hit 96 LLC_RFO_Hit Ratio: 0.00145
Core_0_LLC_RFO_miss 66019
Core_0_LLC_prefetches 813164
Core_0_LLC_prefetch_hit 727748 LLC_prefetch_Hit Ratio: 0.89496
Core_0_LLC_prefetch_miss 85416
Core_0_LLC_writebacks 211551
Core_0_LLC_writeback_hit 209497 LLC_writeback_Hit Ratio: 0.99029
Core_0_LLC_writeback_miss 2054
Core_0_LLC_prefetch_requested 0
Core_0_LLC_prefetch_issued 0
Core_0_LLC_prefetch_useful 59710 LLC_Useful Ratio: inf
Core_0_LLC_prefetch_useless 17825
Core_0_LLC_prefetch_late 54865
Core_0_LLC_average_miss_latency 282.70469

Core_0_major_page_fault 0
Core_0_minor_page_fault 5060

 All Calls: 1215025
 Critical Calls: 1215025
------------------
Depth Distribution
------------------
depth 0: 0
depth 1: 1060537
depth 2: 1006765
depth 3: 956812
depth 4: 914769
depth 5: 862359
depth 6: 769891
depth 7: 587745
depth 8: 426480
depth 9: 286945
depth 10: 188886
depth 11: 110080
depth 12: 61291
depth 13: 21357
depth 14: 6047
depth 15: 5906
depth 16: 10
depth 17: 0
depth 18: 0
depth 19: 0
depth 20: 0
depth 21: 0
depth 22: 0
depth 23: 0
depth 24: 0
depth 25: 0
depth 26: 0
depth 27: 0
depth 28: 0
depth 29: 0
Total: 7265880
-----------------------------
-----------------------------
	Captured at Filter
-----------------------------
depth 0: 0
depth 1: 70058
depth 2: 70385
depth 3: 68689
depth 4: 67238
depth 5: 64855
depth 6: 54373
depth 7: 40691
depth 8: 27421
depth 9: 12995
depth 10: 5698
depth 11: 2672
depth 12: 932
depth 13: 138
depth 14: 27
depth 15: 27
depth 16: 0
depth 17: 0
depth 18: 0
depth 19: 0
depth 20: 0
depth 21: 0
depth 22: 0
depth 23: 0
depth 24: 0
depth 25: 0
depth 26: 0
depth 27: 0
depth 28: 0
depth 29: 0
-----------------------------
-----------------------------
		Lost at Page
-----------------------------
depth 0: 0
depth 1: 38918
depth 2: 55514
depth 3: 67024
depth 4: 73944
depth 5: 90802
depth 6: 102666
depth 7: 94347
depth 8: 79591
depth 9: 61245
depth 10: 45221
depth 11: 29266
depth 12: 17441
depth 13: 5839
depth 14: 1697
depth 15: 1816
depth 16: 0
depth 17: 0
depth 18: 0
depth 19: 0
depth 20: 0
depth 21: 0
depth 22: 0
depth 23: 0
depth 24: 0
depth 25: 0
depth 26: 0
depth 27: 0
depth 28: 0
depth 29: 0
-----------------------------
-----------------------------
	Lost due to PQ Size
-----------------------------
426024
-----------------------------
ST read accesses: 1175839
ST write accesses: 6952
PT read accesses: 49704152
PT write accesses: 1759841
FILTER read accesses: 9620015
FILTER write accesses: 1762507
GHR read accesses: 4592864
GHR write accesses: 752342
GHR counter read accesses: 41912406
GHR counter write accesses: 2536136
ST tag read accesses: 451926407
ST tag write accesses: 6730158
Channel_0_RQ_row_buffer_hit 236369
Channel_0_RQ_row_buffer_miss 67573
Channel_0_WQ_row_buffer_hit 51573
Channel_0_WQ_row_buffer_miss 50970
Channel_0_WQ_full 0
Channel_0_dbus_congested 103901

avg_congested_cycle 8

EzSearch AVG IPC :1.12465: L2-Pf-HR :0.99257 : L2-HR :0.91748 Uful:0.00398
     > Finished combination: TraceType=770-tot Sim:70000000 Prefetcher=L2spp_berti_src L1=no
