TRACE: [32000000]_FE_[OPT-125M]_[h12]_[s256]_[d64] Warmup: 2000000 NumTraces: 32000000
L1:ipcp:L2:ipcp
*************************************************
   ChampSim Multicore Out-of-Order Simulator
   Last compiled: Oct 27 2024 02:43:47
*************************************************

trace_0 770-tot_memTraces_v3/memTraces[32000000]_FE_[OPT-125M]_[h12]_[s256]_[d64].champsim.xz
MAIN.cc ln 751 stats print skipped
CPU  0 inst:    1000000 cyc:     499174 now IPC :2.00331: AVG IPC :2.00331: L2-Pf-HR :0.88133: L2-HR :0.79061: (Sim:0h0m19s) 
CPU  0 inst:    2000004 cyc:     987205 now IPC :2.04906: AVG IPC :2.02593: L2-Pf-HR :0.92642: L2-HR :0.84313: (Sim:0h0m40s) 

Warmup complete CPU  0 instructions:    2000004 cycles:     987205 (Simulation time: 0 hr 0 min 40 sec) 

CPU  0 inst:    3000004 cyc:    1602185 now IPC :1.62607: AVG IPC :1.62607: L2-Pf-HR :0.95755: L2-HR :0.85849: (Sim:0h0m59s) 
CPU  0 inst:    4000000 cyc:    2212872 now IPC :1.63749: AVG IPC :1.63176: L2-Pf-HR :0.95902: L2-HR :0.85859: (Sim:0h1m16s) 
CPU  0 inst:    5000001 cyc:    2826888 now IPC :1.62862: AVG IPC :1.63071: L2-Pf-HR :0.95923: L2-HR :0.85767: (Sim:0h1m33s) 
CPU  0 inst:    6000004 cyc:    3439977 now IPC :1.63109: AVG IPC :1.63081: L2-Pf-HR :0.95934: L2-HR :0.85811: (Sim:0h1m50s) 
CPU  0 inst:    7000000 cyc:    4050622 now IPC :1.63761: AVG IPC :1.63216: L2-Pf-HR :0.95991: L2-HR :0.85889: (Sim:0h2m8s) 
CPU  0 inst:    8000002 cyc:    4663694 now IPC :1.63113: AVG IPC :1.63199: L2-Pf-HR :0.95984: L2-HR :0.85892: (Sim:0h2m26s) 
CPU  0 inst:    9000004 cyc:    5274998 now IPC :1.63585: AVG IPC :1.63254: L2-Pf-HR :0.95993: L2-HR :0.85895: (Sim:0h2m44s) 
CPU  0 inst:   10000000 cyc:    5884905 now IPC :1.63959: AVG IPC :1.63342: L2-Pf-HR :0.95977: L2-HR :0.85921: (Sim:0h3m2s) 
CPU  0 inst:   11000001 cyc:    6497398 now IPC :1.63267: AVG IPC :1.63334: L2-Pf-HR :0.96009: L2-HR :0.85934: (Sim:0h3m20s) 
CPU  0 inst:   12000001 cyc:    7111043 now IPC :1.62961: AVG IPC :1.63296: L2-Pf-HR :0.95995: L2-HR :0.85902: (Sim:0h3m38s) 
CPU  0 inst:   13000005 cyc:    7811512 now IPC :1.42762: AVG IPC :1.61189: L2-Pf-HR :0.93566: L2-HR :0.83520: (Sim:0h3m55s) 
CPU  0 inst:   14000000 cyc:   10073226 now IPC :0.44214: AVG IPC :1.32071: L2-Pf-HR :0.92795: L2-HR :0.84337: (Sim:0h4m16s) 
CPU  0 inst:   15000000 cyc:   13039258 now IPC :0.33715: AVG IPC :1.07865: L2-Pf-HR :0.91777: L2-HR :0.83806: (Sim:0h4m28s) 
CPU  0 inst:   16000000 cyc:   16005077 now IPC :0.33717: AVG IPC :0.93222: L2-Pf-HR :0.90304: L2-HR :0.82994: (Sim:0h4m40s) 
CPU  0 inst:   17000000 cyc:   18971793 now IPC :0.33707: AVG IPC :0.83405: L2-Pf-HR :0.88040: L2-HR :0.81697: (Sim:0h4m52s) 
CPU  0 inst:   18000000 cyc:   21938388 now IPC :0.33709: AVG IPC :0.76368: L2-Pf-HR :0.85860: L2-HR :0.80429: (Sim:0h5m4s) 
CPU  0 inst:   19000000 cyc:   24904816 now IPC :0.33711: AVG IPC :0.71077: L2-Pf-HR :0.83886: L2-HR :0.79273: (Sim:0h5m15s) 
CPU  0 inst:   20000004 cyc:   26543965 now IPC :0.61008: AVG IPC :0.70431: L2-Pf-HR :0.82777: L2-HR :0.78610: (Sim:0h5m25s) 
CPU  0 inst:   21000005 cyc:   27063741 now IPC :1.92391: AVG IPC :0.72862: L2-Pf-HR :0.82712: L2-HR :0.78687: (Sim:0h5m34s) 
CPU  0 inst:   22000003 cyc:   27586221 now IPC :1.91395: AVG IPC :0.75191: L2-Pf-HR :0.82705: L2-HR :0.78790: (Sim:0h5m42s) 
CPU  0 inst:   23000000 cyc:   28107511 now IPC :1.91831: AVG IPC :0.77433: L2-Pf-HR :0.82648: L2-HR :0.78844: (Sim:0h5m51s) 
CPU  0 inst:   24000003 cyc:   28628465 now IPC :1.91956: AVG IPC :0.79591: L2-Pf-HR :0.82621: L2-HR :0.78913: (Sim:0h5m59s) 
CPU  0 inst:   25000002 cyc:   29156326 now IPC :1.89444: AVG IPC :0.81650: L2-Pf-HR :0.82524: L2-HR :0.78927: (Sim:0h6m7s) 
CPU  0 inst:   26000001 cyc:   29678030 now IPC :1.91679: AVG IPC :0.83650: L2-Pf-HR :0.82445: L2-HR :0.78945: (Sim:0h6m16s) 
CPU  0 inst:   27000002 cyc:   30201409 now IPC :1.91066: AVG IPC :0.85575: L2-Pf-HR :0.82362: L2-HR :0.78955: (Sim:0h6m24s) 
CPU  0 inst:   28000004 cyc:   30730299 now IPC :1.89076: AVG IPC :0.87415: L2-Pf-HR :0.82337: L2-HR :0.79001: (Sim:0h6m33s) 
CPU  0 inst:   29000003 cyc:   31260061 now IPC :1.88764: AVG IPC :0.89189: L2-Pf-HR :0.82292: L2-HR :0.79019: (Sim:0h6m41s) 
Finished CPU 0 instr: 27000005 cyc: 30272857 AVG IPC: 0.89189 (Sim time: 0h6m41s)

ChampSim completed all CPUs

[ROI Statistics]
Core_0_instructions 27000005
Core_0_cycles 30272857
Core_0_IPC 0.89189

Core_0_branch_prediction_accuracy 98.37822
Core_0_branch_MPKI 0.53456
Core_0_average_ROB_occupancy_at_mispredict 329.03970

Core_0_L1D_total_access 13971149
Core_0_L1D_total_hit 13520851 L1D_total_Hit Ratio: 0.96777
Core_0_L1D_total_miss 450298
Core_0_L1D_loads 7768616
Core_0_L1D_load_hit 7589204 L1D_load_Hit Ratio: 0.97691
Core_0_L1D_load_miss 179412
Core_0_L1D_RFOs 868606
Core_0_L1D_RFO_hit 837103 L1D_RFO_Hit Ratio: 0.96373
Core_0_L1D_RFO_miss 31503
Core_0_L1D_prefetches 5333927
Core_0_L1D_prefetch_hit 5094544 L1D_prefetch_Hit Ratio: 0.95512
Core_0_L1D_prefetch_miss 239383
Core_0_L1D_writebacks 0
Core_0_L1D_writeback_hit 0 L1D_writeback_Hit Ratio: -nan
Core_0_L1D_writeback_miss 0
Core_0_L1D_prefetch_requested 15805344
Core_0_L1D_prefetch_issued 7973207
Core_0_L1D_prefetch_useful 248037 L1D_Useful Ratio: 0.03111
Core_0_L1D_prefetch_useless 5577
Core_0_L1D_prefetch_late 42187
Core_0_L1D_average_miss_latency 773834.40466

Core_0_L1I_total_access 3980703
Core_0_L1I_total_hit 3978886 L1I_total_Hit Ratio: 0.99954
Core_0_L1I_total_miss 1817
Core_0_L1I_loads 3980703
Core_0_L1I_load_hit 3978886 L1I_load_Hit Ratio: 0.99954
Core_0_L1I_load_miss 1817
Core_0_L1I_RFOs 0
Core_0_L1I_RFO_hit 0 L1I_RFO_Hit Ratio: -nan
Core_0_L1I_RFO_miss 0
Core_0_L1I_prefetches 0
Core_0_L1I_prefetch_hit 0 L1I_prefetch_Hit Ratio: -nan
Core_0_L1I_prefetch_miss 0
Core_0_L1I_writebacks 0
Core_0_L1I_writeback_hit 0 L1I_writeback_Hit Ratio: -nan
Core_0_L1I_writeback_miss 0
Core_0_L1I_prefetch_requested 0
Core_0_L1I_prefetch_issued 0
Core_0_L1I_prefetch_useful 0 L1I_Useful Ratio: -nan
Core_0_L1I_prefetch_useless 0
Core_0_L1I_prefetch_late 0
Core_0_L1I_average_miss_latency 171.36544

Core_0_L2C_total_access 1064391
Core_0_L2C_total_hit 841073 L2C_total_Hit Ratio: 0.79019
Core_0_L2C_total_miss 223318
Core_0_L2C_loads 139118
Core_0_L2C_load_hit 65643 L2C_load_Hit Ratio: 0.47185
Core_0_L2C_load_miss 73475
Core_0_L2C_RFOs 31497
Core_0_L2C_RFO_hit 8976 L2C_RFO_Hit Ratio: 0.28498
Core_0_L2C_RFO_miss 22521
Core_0_L2C_prefetches 718551
Core_0_L2C_prefetch_hit 591312 L2C_prefetch_Hit Ratio: 0.82292
Core_0_L2C_prefetch_miss 127239
Core_0_L2C_writebacks 175225
Core_0_L2C_writeback_hit 175142 L2C_writeback_Hit Ratio: 0.99953
Core_0_L2C_writeback_miss 83
Core_0_L2C_prefetch_requested 1059075
Core_0_L2C_prefetch_issued 1041744
Core_0_L2C_prefetch_useful 20327 L2C_Useful Ratio: 0.01951
Core_0_L2C_prefetch_useless 62612
Core_0_L2C_prefetch_late 4835
Core_0_L2C_average_miss_latency 122.62863

Core_0_LLC_total_access 338651
Core_0_LLC_total_hit 204300 LLC_total_Hit Ratio: 0.60328
Core_0_LLC_total_miss 134351
Core_0_LLC_loads 68699
Core_0_LLC_load_hit 12991 LLC_load_Hit Ratio: 0.18910
Core_0_LLC_load_miss 55708
Core_0_LLC_RFOs 22521
Core_0_LLC_RFO_hit 95 LLC_RFO_Hit Ratio: 0.00422
Core_0_LLC_RFO_miss 22426
Core_0_LLC_prefetches 132015
Core_0_LLC_prefetch_hit 75828 LLC_prefetch_Hit Ratio: 0.57439
Core_0_LLC_prefetch_miss 56187
Core_0_LLC_writebacks 115416
Core_0_LLC_writeback_hit 115386 LLC_writeback_Hit Ratio: 0.99974
Core_0_LLC_writeback_miss 30
Core_0_LLC_prefetch_requested 0
Core_0_LLC_prefetch_issued 0
Core_0_LLC_prefetch_useful 3688 LLC_Useful Ratio: inf
Core_0_LLC_prefetch_useless 9909
Core_0_LLC_prefetch_late 0
Core_0_LLC_average_miss_latency 138.14079

Core_0_major_page_fault 0
Core_0_minor_page_fault 3170


Channel_0_RQ_row_buffer_hit 125313
Channel_0_RQ_row_buffer_miss 9008
Channel_0_WQ_row_buffer_hit 2150
Channel_0_WQ_row_buffer_miss 2831
Channel_0_WQ_full 0
Channel_0_dbus_congested 43676

avg_congested_cycle 8

EzSearch AVG IPC :0.89189: L2-Pf-HR :0.82292 : L2-HR :0.79019 Uful:0.01951
     > Finished combination: TraceType=770-tot Sim:27000000 Prefetcher=L2ipcp L1=ipcp
