TRACE: [42000000]_FE_[OPT-350M]_[h16]_[s256]_[d64] Warmup: 2000000 NumTraces: 42000000
L1:no:L2:no
*************************************************
   ChampSim Multicore Out-of-Order Simulator
   Last compiled: Oct 27 2024 02:25:50
*************************************************

trace_0 770-tot_memTraces_v3/memTraces[42000000]_FE_[OPT-350M]_[h16]_[s256]_[d64].champsim.xz
MAIN.cc ln 751 stats print skipped
CPU  0 inst:    1000002 cyc:     499899 now IPC :2.00041: AVG IPC :2.00041: L2-Pf-HR :-nan: L2-HR :0.53737: (Sim:0h0m20s) 
CPU  0 inst:    2000000 cyc:     988079 now IPC :2.04842: AVG IPC :2.02413: L2-Pf-HR :-nan: L2-HR :0.61538: (Sim:0h0m40s) 

Warmup complete CPU  0 instructions:    2000002 cycles:     988080 (Simulation time: 0 hr 0 min 40 sec) 

CPU  0 inst:    3000003 cyc:    1615741 now IPC :1.59322: AVG IPC :1.59322: L2-Pf-HR :-nan: L2-HR :0.69896: (Sim:0h0m57s) 
CPU  0 inst:    4000003 cyc:    2241625 now IPC :1.59774: AVG IPC :1.59548: L2-Pf-HR :-nan: L2-HR :0.69775: (Sim:0h1m15s) 
CPU  0 inst:    5000005 cyc:    2866791 now IPC :1.59958: AVG IPC :1.59684: L2-Pf-HR :-nan: L2-HR :0.69730: (Sim:0h1m32s) 
CPU  0 inst:    6000000 cyc:    3493046 now IPC :1.59679: AVG IPC :1.59683: L2-Pf-HR :-nan: L2-HR :0.69768: (Sim:0h1m48s) 
CPU  0 inst:    7000002 cyc:    4118891 now IPC :1.59784: AVG IPC :1.59703: L2-Pf-HR :-nan: L2-HR :0.69793: (Sim:0h2m4s) 
CPU  0 inst:    8000003 cyc:    4746474 now IPC :1.59342: AVG IPC :1.59643: L2-Pf-HR :-nan: L2-HR :0.69690: (Sim:0h2m22s) 
CPU  0 inst:    9000005 cyc:    5369940 now IPC :1.60394: AVG IPC :1.59750: L2-Pf-HR :-nan: L2-HR :0.69741: (Sim:0h2m39s) 
CPU  0 inst:   10000005 cyc:    5997825 now IPC :1.59265: AVG IPC :1.59689: L2-Pf-HR :-nan: L2-HR :0.69760: (Sim:0h2m57s) 
CPU  0 inst:   11000005 cyc:    6623030 now IPC :1.59948: AVG IPC :1.59718: L2-Pf-HR :-nan: L2-HR :0.69774: (Sim:0h3m15s) 
CPU  0 inst:   12000001 cyc:    7249331 now IPC :1.59667: AVG IPC :1.59712: L2-Pf-HR :-nan: L2-HR :0.69784: (Sim:0h3m32s) 
CPU  0 inst:   13000005 cyc:    7876290 now IPC :1.59501: AVG IPC :1.59693: L2-Pf-HR :-nan: L2-HR :0.69788: (Sim:0h3m50s) 
CPU  0 inst:   14000004 cyc:    8501006 now IPC :1.60073: AVG IPC :1.59725: L2-Pf-HR :-nan: L2-HR :0.69826: (Sim:0h4m8s) 
CPU  0 inst:   15000000 cyc:    9128358 now IPC :1.59400: AVG IPC :1.59700: L2-Pf-HR :-nan: L2-HR :0.69783: (Sim:0h4m26s) 
CPU  0 inst:   16000002 cyc:    9749923 now IPC :1.60885: AVG IPC :1.59784: L2-Pf-HR :-nan: L2-HR :0.69831: (Sim:0h4m44s) 
CPU  0 inst:   17000002 cyc:   10408147 now IPC :1.51924: AVG IPC :1.59235: L2-Pf-HR :-nan: L2-HR :0.69806: (Sim:0h5m1s) 
CPU  0 inst:   18000000 cyc:   11981136 now IPC :0.63573: AVG IPC :1.45546: L2-Pf-HR :-nan: L2-HR :0.64638: (Sim:0h5m23s) 
CPU  0 inst:   19000000 cyc:   15170825 now IPC :0.31351: AVG IPC :1.19864: L2-Pf-HR :-nan: L2-HR :0.63236: (Sim:0h5m50s) 
CPU  0 inst:   20000000 cyc:   18381522 now IPC :0.31146: AVG IPC :1.03487: L2-Pf-HR :-nan: L2-HR :0.61796: (Sim:0h6m18s) 
CPU  0 inst:   21000000 cyc:   21600117 now IPC :0.31069: AVG IPC :0.92179: L2-Pf-HR :-nan: L2-HR :0.60436: (Sim:0h6m46s) 
CPU  0 inst:   22000000 cyc:   24818254 now IPC :0.31074: AVG IPC :0.83927: L2-Pf-HR :-nan: L2-HR :0.59205: (Sim:0h7m14s) 
CPU  0 inst:   23000000 cyc:   28037718 now IPC :0.31061: AVG IPC :0.77635: L2-Pf-HR :-nan: L2-HR :0.58072: (Sim:0h7m43s) 
CPU  0 inst:   24000000 cyc:   31270489 now IPC :0.30933: AVG IPC :0.72649: L2-Pf-HR :-nan: L2-HR :0.57036: (Sim:0h8m11s) 
CPU  0 inst:   25000000 cyc:   34592507 now IPC :0.30102: AVG IPC :0.68443: L2-Pf-HR :-nan: L2-HR :0.56085: (Sim:0h8m39s) 
CPU  0 inst:   26000001 cyc:   37974518 now IPC :0.29568: AVG IPC :0.64889: L2-Pf-HR :-nan: L2-HR :0.55196: (Sim:0h9m4s) 
CPU  0 inst:   27000000 cyc:   38621558 now IPC :1.54550: AVG IPC :0.66430: L2-Pf-HR :-nan: L2-HR :0.55052: (Sim:0h9m14s) 
CPU  0 inst:   28000004 cyc:   39232281 now IPC :1.63741: AVG IPC :0.67984: L2-Pf-HR :-nan: L2-HR :0.54903: (Sim:0h9m26s) 
CPU  0 inst:   29000003 cyc:   39862691 now IPC :1.58627: AVG IPC :0.69454: L2-Pf-HR :-nan: L2-HR :0.54854: (Sim:0h9m47s) 
CPU  0 inst:   30000003 cyc:   40454610 now IPC :1.68942: AVG IPC :0.70946: L2-Pf-HR :-nan: L2-HR :0.54765: (Sim:0h10m8s) 
CPU  0 inst:   31000005 cyc:   41085381 now IPC :1.58536: AVG IPC :0.72324: L2-Pf-HR :-nan: L2-HR :0.54643: (Sim:0h10m29s) 
CPU  0 inst:   32000003 cyc:   41661695 now IPC :1.73516: AVG IPC :0.73758: L2-Pf-HR :-nan: L2-HR :0.54530: (Sim:0h10m49s) 
CPU  0 inst:   33000002 cyc:   42258441 now IPC :1.67575: AVG IPC :0.75114: L2-Pf-HR :-nan: L2-HR :0.54414: (Sim:0h11m10s) 
CPU  0 inst:   34000003 cyc:   42839507 now IPC :1.72098: AVG IPC :0.76461: L2-Pf-HR :-nan: L2-HR :0.54298: (Sim:0h11m30s) 
CPU  0 inst:   35000005 cyc:   43428326 now IPC :1.69832: AVG IPC :0.77756: L2-Pf-HR :-nan: L2-HR :0.54258: (Sim:0h11m50s) 
CPU  0 inst:   36000000 cyc:   44013860 now IPC :1.70783: AVG IPC :0.79022: L2-Pf-HR :-nan: L2-HR :0.54230: (Sim:0h12m11s) 
CPU  0 inst:   37000000 cyc:   44598931 now IPC :1.70919: AVG IPC :0.80255: L2-Pf-HR :-nan: L2-HR :0.54140: (Sim:0h12m32s) 
CPU  0 inst:   38000001 cyc:   45183683 now IPC :1.71013: AVG IPC :0.81456: L2-Pf-HR :-nan: L2-HR :0.54062: (Sim:0h12m52s) 
CPU  0 inst:   39000005 cyc:   45768378 now IPC :1.71030: AVG IPC :0.82626: L2-Pf-HR :-nan: L2-HR :0.53982: (Sim:0h13m13s) 
Finished CPU 0 instr: 37000003 cyc: 44780298 AVG IPC: 0.82626 (Sim time: 0h13m13s)

ChampSim completed all CPUs

[ROI Statistics]
Core_0_instructions 37000003
Core_0_cycles 44780298
Core_0_IPC 0.82626

Core_0_branch_prediction_accuracy 98.43855
Core_0_branch_MPKI 0.50535
Core_0_average_ROB_occupancy_at_mispredict 336.93299

Core_0_L1D_total_access 11692803
Core_0_L1D_total_hit 11160857 L1D_total_Hit Ratio: 0.95451
Core_0_L1D_total_miss 531946
Core_0_L1D_loads 10540372
Core_0_L1D_load_hit 10074742 L1D_load_Hit Ratio: 0.95582
Core_0_L1D_load_miss 465630
Core_0_L1D_RFOs 1152431
Core_0_L1D_RFO_hit 1086115 L1D_RFO_Hit Ratio: 0.94246
Core_0_L1D_RFO_miss 66316
Core_0_L1D_prefetches 0
Core_0_L1D_prefetch_hit 0 L1D_prefetch_Hit Ratio: -nan
Core_0_L1D_prefetch_miss 0
Core_0_L1D_writebacks 0
Core_0_L1D_writeback_hit 0 L1D_writeback_Hit Ratio: -nan
Core_0_L1D_writeback_miss 0
Core_0_L1D_prefetch_requested 0
Core_0_L1D_prefetch_issued 0
Core_0_L1D_prefetch_useful 0 L1D_Useful Ratio: -nan
Core_0_L1D_prefetch_useless 0
Core_0_L1D_prefetch_late 0
Core_0_L1D_average_miss_latency 98.03171

Core_0_L1I_total_access 5283617
Core_0_L1I_total_hit 5281786 L1I_total_Hit Ratio: 0.99965
Core_0_L1I_total_miss 1831
Core_0_L1I_loads 5283617
Core_0_L1I_load_hit 5281786 L1I_load_Hit Ratio: 0.99965
Core_0_L1I_load_miss 1831
Core_0_L1I_RFOs 0
Core_0_L1I_RFO_hit 0 L1I_RFO_Hit Ratio: -nan
Core_0_L1I_RFO_miss 0
Core_0_L1I_prefetches 0
Core_0_L1I_prefetch_hit 0 L1I_prefetch_Hit Ratio: -nan
Core_0_L1I_prefetch_miss 0
Core_0_L1I_writebacks 0
Core_0_L1I_writeback_hit 0 L1I_writeback_Hit Ratio: -nan
Core_0_L1I_writeback_miss 0
Core_0_L1I_prefetch_requested 0
Core_0_L1I_prefetch_issued 0
Core_0_L1I_prefetch_useful 0 L1I_Useful Ratio: -nan
Core_0_L1I_prefetch_useless 0
Core_0_L1I_prefetch_late 0
Core_0_L1I_average_miss_latency 233.02512

Core_0_L2C_total_access 771936
Core_0_L2C_total_hit 416708 L2C_total_Hit Ratio: 0.53982
Core_0_L2C_total_miss 355228
Core_0_L2C_loads 467461
Core_0_L2C_load_hit 177968 L2C_load_Hit Ratio: 0.38071
Core_0_L2C_load_miss 289493
Core_0_L2C_RFOs 66316
Core_0_L2C_RFO_hit 586 L2C_RFO_Hit Ratio: 0.00884
Core_0_L2C_RFO_miss 65730
Core_0_L2C_prefetches 0
Core_0_L2C_prefetch_hit 0 L2C_prefetch_Hit Ratio: -nan
Core_0_L2C_prefetch_miss 0
Core_0_L2C_writebacks 238159
Core_0_L2C_writeback_hit 238154 L2C_writeback_Hit Ratio: 0.99998
Core_0_L2C_writeback_miss 5
Core_0_L2C_prefetch_requested 0
Core_0_L2C_prefetch_issued 0
Core_0_L2C_prefetch_useful 0 L2C_Useful Ratio: -nan
Core_0_L2C_prefetch_useless 0
Core_0_L2C_prefetch_late 0
Core_0_L2C_average_miss_latency 119.05174

Core_0_LLC_total_access 549296
Core_0_LLC_total_hit 357703 LLC_total_Hit Ratio: 0.65120
Core_0_LLC_total_miss 191593
Core_0_LLC_loads 289493
Core_0_LLC_load_hit 163576 LLC_load_Hit Ratio: 0.56504
Core_0_LLC_load_miss 125917
Core_0_LLC_RFOs 65730
Core_0_LLC_RFO_hit 59 LLC_RFO_Hit Ratio: 0.00090
Core_0_LLC_RFO_miss 65671
Core_0_LLC_prefetches 0
Core_0_LLC_prefetch_hit 0 LLC_prefetch_Hit Ratio: -nan
Core_0_LLC_prefetch_miss 0
Core_0_LLC_writebacks 194073
Core_0_LLC_writeback_hit 194068 LLC_writeback_Hit Ratio: 0.99997
Core_0_LLC_writeback_miss 5
Core_0_LLC_prefetch_requested 0
Core_0_LLC_prefetch_issued 0
Core_0_LLC_prefetch_useful 0 LLC_Useful Ratio: -nan
Core_0_LLC_prefetch_useless 0
Core_0_LLC_prefetch_late 0
Core_0_LLC_average_miss_latency 146.44183

Core_0_major_page_fault 0
Core_0_minor_page_fault 3913

Channel_0_RQ_row_buffer_hit 163636
Channel_0_RQ_row_buffer_miss 27950
Channel_0_WQ_row_buffer_hit 19163
Channel_0_WQ_row_buffer_miss 19921
Channel_0_WQ_full 0
Channel_0_dbus_congested 29166

avg_congested_cycle 7

EzSearch AVG IPC :0.82626: L2-Pf-HR :-nan : L2-HR :0.53982 Uful:-nan
     > Finished combination: TraceType=770-tot Sim:37000000 Prefetcher=L2no L1=no
