TRACE: [662000000][OPT-350M]_[h16][s1024][d64] Warmup: 2000000 NumTraces: 662000000
L1:bingo_dpc3:L2:bingo_dpc3
*************************************************
   ChampSim Multicore Out-of-Order Simulator
   Last compiled: Oct 26 2024 22:35:39
*************************************************

trace_0 770-tot_memTraces_v3/memTraces[662000000][OPT-350M]_[h16][s1024][d64].champsim.xz
Bingo PHT WAYS: 16 and PHT_SIZE: 16384
Bingo2 PHT WAYS: 16 and PHT_SIZE: 16384
MAIN.cc ln 751 stats print skipped
CPU  0 inst:    1000001 cyc:     497579 now IPC :2.00973: AVG IPC :2.00973: L2-Pf-HR :0.77594: L2-HR :0.64455: (Sim:0h0m21s) 
CPU  0 inst:    2000000 cyc:     979629 now IPC :2.07447: AVG IPC :2.04159: L2-Pf-HR :0.81505: L2-HR :0.73089: (Sim:0h0m43s) 

Warmup complete CPU  0 instructions:    2000001 cycles:     979630 (Simulation time: 0 hr 0 min 43 sec) 

CPU  0 inst:    3000000 cyc:    1591790 now IPC :1.63356: AVG IPC :1.63356: L2-Pf-HR :0.92751: L2-HR :0.81246: (Sim:0h1m1s) 
CPU  0 inst:    4000002 cyc:    2180448 now IPC :1.69878: AVG IPC :1.66553: L2-Pf-HR :0.89557: L2-HR :0.80408: (Sim:0h1m20s) 
CPU  0 inst:    5000005 cyc:    2756711 now IPC :1.73532: AVG IPC :1.68816: L2-Pf-HR :0.88345: L2-HR :0.80756: (Sim:0h1m38s) 
CPU  0 inst:    6000004 cyc:    3359457 now IPC :1.65907: AVG IPC :1.68080: L2-Pf-HR :0.88705: L2-HR :0.80401: (Sim:0h1m57s) 
CPU  0 inst:    7000001 cyc:    3990826 now IPC :1.58386: AVG IPC :1.66047: L2-Pf-HR :0.88940: L2-HR :0.80918: (Sim:0h2m15s) 
CPU  0 inst:    8000001 cyc:    4569913 now IPC :1.72686: AVG IPC :1.67118: L2-Pf-HR :0.90062: L2-HR :0.81567: (Sim:0h2m33s) 
CPU  0 inst:    9000003 cyc:    5162020 now IPC :1.68889: AVG IPC :1.67368: L2-Pf-HR :0.91211: L2-HR :0.81897: (Sim:0h2m52s) 
CPU  0 inst:   10000000 cyc:    5750576 now IPC :1.69907: AVG IPC :1.67682: L2-Pf-HR :0.91913: L2-HR :0.82003: (Sim:0h3m10s) 
CPU  0 inst:   11000005 cyc:    6336982 now IPC :1.70531: AVG IPC :1.67994: L2-Pf-HR :0.92459: L2-HR :0.82228: (Sim:0h3m29s) 
CPU  0 inst:   12000002 cyc:    6919192 now IPC :1.71759: AVG IPC :1.68363: L2-Pf-HR :0.92804: L2-HR :0.82279: (Sim:0h3m47s) 
CPU  0 inst:   13000004 cyc:    7542736 now IPC :1.60374: AVG IPC :1.67604: L2-Pf-HR :0.92999: L2-HR :0.82325: (Sim:0h4m6s) 
CPU  0 inst:   14000000 cyc:    8134772 now IPC :1.68908: AVG IPC :1.67712: L2-Pf-HR :0.93407: L2-HR :0.82325: (Sim:0h4m24s) 
CPU  0 inst:   15000005 cyc:    8701831 now IPC :1.76349: AVG IPC :1.68346: L2-Pf-HR :0.93315: L2-HR :0.82391: (Sim:0h4m42s) 
CPU  0 inst:   16000000 cyc:    9264750 now IPC :1.77645: AVG IPC :1.68978: L2-Pf-HR :0.93267: L2-HR :0.82511: (Sim:0h5m1s) 
CPU  0 inst:   17000005 cyc:    9917228 now IPC :1.53263: AVG IPC :1.67830: L2-Pf-HR :0.92999: L2-HR :0.82349: (Sim:0h5m19s) 
CPU  0 inst:   18000000 cyc:   10523078 now IPC :1.65057: AVG IPC :1.67654: L2-Pf-HR :0.93018: L2-HR :0.82363: (Sim:0h5m38s) 
CPU  0 inst:   19000002 cyc:   11125116 now IPC :1.66103: AVG IPC :1.67562: L2-Pf-HR :0.92971: L2-HR :0.82349: (Sim:0h5m57s) 
CPU  0 inst:   20000001 cyc:   11700250 now IPC :1.73872: AVG IPC :1.67901: L2-Pf-HR :0.92737: L2-HR :0.82414: (Sim:0h6m15s) 
CPU  0 inst:   21000003 cyc:   12297618 now IPC :1.67401: AVG IPC :1.67874: L2-Pf-HR :0.92681: L2-HR :0.82413: (Sim:0h6m34s) 
CPU  0 inst:   22000001 cyc:   12895814 now IPC :1.67169: AVG IPC :1.67839: L2-Pf-HR :0.92617: L2-HR :0.82429: (Sim:0h6m52s) 
CPU  0 inst:   23000002 cyc:   13552985 now IPC :1.52168: AVG IPC :1.67020: L2-Pf-HR :0.92633: L2-HR :0.82440: (Sim:0h7m11s) 
CPU  0 inst:   24000005 cyc:   14165245 now IPC :1.63330: AVG IPC :1.66849: L2-Pf-HR :0.92884: L2-HR :0.82478: (Sim:0h7m30s) 
CPU  0 inst:   25000005 cyc:   14775625 now IPC :1.63832: AVG IPC :1.66715: L2-Pf-HR :0.93118: L2-HR :0.82502: (Sim:0h7m49s) 
CPU  0 inst:   26000002 cyc:   15349742 now IPC :1.74180: AVG IPC :1.67013: L2-Pf-HR :0.93120: L2-HR :0.82576: (Sim:0h8m7s) 
CPU  0 inst:   27000003 cyc:   15943243 now IPC :1.68492: AVG IPC :1.67072: L2-Pf-HR :0.93177: L2-HR :0.82600: (Sim:0h8m26s) 
CPU  0 inst:   28000003 cyc:   16539038 now IPC :1.67843: AVG IPC :1.67101: L2-Pf-HR :0.93284: L2-HR :0.82662: (Sim:0h8m44s) 
CPU  0 inst:   29000004 cyc:   17210922 now IPC :1.48835: AVG IPC :1.66345: L2-Pf-HR :0.93326: L2-HR :0.82643: (Sim:0h9m3s) 
CPU  0 inst:   30000005 cyc:   17848731 now IPC :1.56787: AVG IPC :1.65984: L2-Pf-HR :0.93493: L2-HR :0.82648: (Sim:0h9m22s) 
CPU  0 inst:   31000002 cyc:   18437560 now IPC :1.69828: AVG IPC :1.66114: L2-Pf-HR :0.93388: L2-HR :0.82685: (Sim:0h9m41s) 
CPU  0 inst:   32000005 cyc:   19038573 now IPC :1.66386: AVG IPC :1.66123: L2-Pf-HR :0.93303: L2-HR :0.82702: (Sim:0h9m59s) 
CPU  0 inst:   33000000 cyc:   19749225 now IPC :1.40715: AVG IPC :1.65161: L2-Pf-HR :0.93135: L2-HR :0.82663: (Sim:0h10m19s) 
CPU  0 inst:   34000003 cyc:   20403050 now IPC :1.52947: AVG IPC :1.64750: L2-Pf-HR :0.93126: L2-HR :0.82641: (Sim:0h10m38s) 
CPU  0 inst:   35000003 cyc:   21056162 now IPC :1.53113: AVG IPC :1.64371: L2-Pf-HR :0.93132: L2-HR :0.82644: (Sim:0h10m54s) 
CPU  0 inst:   36000005 cyc:   21672559 now IPC :1.62233: AVG IPC :1.64307: L2-Pf-HR :0.93037: L2-HR :0.82637: (Sim:0h11m2s) 
CPU  0 inst:   37000004 cyc:   22314163 now IPC :1.55859: AVG IPC :1.64053: L2-Pf-HR :0.93009: L2-HR :0.82658: (Sim:0h11m10s) 
CPU  0 inst:   38000002 cyc:   22963656 now IPC :1.53966: AVG IPC :1.63755: L2-Pf-HR :0.93025: L2-HR :0.82640: (Sim:0h11m18s) 
CPU  0 inst:   39000003 cyc:   23690060 now IPC :1.37665: AVG IPC :1.62921: L2-Pf-HR :0.92986: L2-HR :0.82630: (Sim:0h11m27s) 
CPU  0 inst:   40000003 cyc:   24344572 now IPC :1.52786: AVG IPC :1.62637: L2-Pf-HR :0.93124: L2-HR :0.82644: (Sim:0h11m35s) 
CPU  0 inst:   41000003 cyc:   24998096 now IPC :1.53017: AVG IPC :1.62375: L2-Pf-HR :0.93254: L2-HR :0.82668: (Sim:0h11m43s) 
CPU  0 inst:   42000001 cyc:   25617481 now IPC :1.61450: AVG IPC :1.62352: L2-Pf-HR :0.93294: L2-HR :0.82682: (Sim:0h11m51s) 
CPU  0 inst:   43000002 cyc:   26260268 now IPC :1.55573: AVG IPC :1.62179: L2-Pf-HR :0.93371: L2-HR :0.82723: (Sim:0h11m59s) 
CPU  0 inst:   44000000 cyc:   26907533 now IPC :1.54496: AVG IPC :1.61988: L2-Pf-HR :0.93447: L2-HR :0.82730: (Sim:0h12m8s) 
CPU  0 inst:   45000005 cyc:   27607972 now IPC :1.42768: AVG IPC :1.61482: L2-Pf-HR :0.93457: L2-HR :0.82724: (Sim:0h12m16s) 
CPU  0 inst:   46000002 cyc:   28265779 now IPC :1.52020: AVG IPC :1.61254: L2-Pf-HR :0.93559: L2-HR :0.82732: (Sim:0h12m24s) 
CPU  0 inst:   47000005 cyc:   28881149 now IPC :1.62504: AVG IPC :1.61282: L2-Pf-HR :0.93513: L2-HR :0.82735: (Sim:0h12m33s) 
CPU  0 inst:   48000005 cyc:   29489941 now IPC :1.64260: AVG IPC :1.61345: L2-Pf-HR :0.93432: L2-HR :0.82754: (Sim:0h12m41s) 
CPU  0 inst:   49000000 cyc:   30198472 now IPC :1.41136: AVG IPC :1.60855: L2-Pf-HR :0.93318: L2-HR :0.82732: (Sim:0h12m49s) 
CPU  0 inst:   50000003 cyc:   30843959 now IPC :1.54922: AVG IPC :1.60727: L2-Pf-HR :0.93304: L2-HR :0.82733: (Sim:0h12m58s) 
CPU  0 inst:   51000002 cyc:   31493952 now IPC :1.53848: AVG IPC :1.60580: L2-Pf-HR :0.93299: L2-HR :0.82723: (Sim:0h13m6s) 
CPU  0 inst:   52000000 cyc:   32116723 now IPC :1.60572: AVG IPC :1.60580: L2-Pf-HR :0.93247: L2-HR :0.82737: (Sim:0h13m14s) 
CPU  0 inst:   53000003 cyc:   32764989 now IPC :1.54258: AVG IPC :1.60451: L2-Pf-HR :0.93205: L2-HR :0.82727: (Sim:0h13m23s) 
CPU  0 inst:   54000000 cyc:   33414008 now IPC :1.54078: AVG IPC :1.60324: L2-Pf-HR :0.93197: L2-HR :0.82735: (Sim:0h13m31s) 
CPU  0 inst:   55000001 cyc:   34139448 now IPC :1.37848: AVG IPC :1.59832: L2-Pf-HR :0.93145: L2-HR :0.82720: (Sim:0h13m40s) 
CPU  0 inst:   56000001 cyc:   34783458 now IPC :1.55277: AVG IPC :1.59745: L2-Pf-HR :0.93235: L2-HR :0.82732: (Sim:0h13m48s) 
CPU  0 inst:   57000001 cyc:   35431323 now IPC :1.54353: AVG IPC :1.59644: L2-Pf-HR :0.93326: L2-HR :0.82737: (Sim:0h13m57s) 
CPU  0 inst:   58000005 cyc:   36046046 now IPC :1.62676: AVG IPC :1.59697: L2-Pf-HR :0.93356: L2-HR :0.82760: (Sim:0h14m5s) 
CPU  0 inst:   59000005 cyc:   36680109 now IPC :1.57713: AVG IPC :1.59662: L2-Pf-HR :0.93395: L2-HR :0.82768: (Sim:0h14m13s) 
CPU  0 inst:   60000001 cyc:   37316308 now IPC :1.57183: AVG IPC :1.59618: L2-Pf-HR :0.93446: L2-HR :0.82792: (Sim:0h14m21s) 
CPU  0 inst:   61000005 cyc:   38001940 now IPC :1.45851: AVG IPC :1.59363: L2-Pf-HR :0.93446: L2-HR :0.82788: (Sim:0h14m30s) 
CPU  0 inst:   62000000 cyc:   38657864 now IPC :1.52456: AVG IPC :1.59243: L2-Pf-HR :0.93522: L2-HR :0.82784: (Sim:0h14m38s) 
CPU  0 inst:   63000001 cyc:   39282863 now IPC :1.60000: AVG IPC :1.59255: L2-Pf-HR :0.93523: L2-HR :0.82783: (Sim:0h14m46s) 
CPU  0 inst:   64000001 cyc:   39900393 now IPC :1.61935: AVG IPC :1.59298: L2-Pf-HR :0.93489: L2-HR :0.82806: (Sim:0h14m55s) 
CPU  0 inst:   65000002 cyc:   40599985 now IPC :1.42941: AVG IPC :1.59009: L2-Pf-HR :0.93383: L2-HR :0.82787: (Sim:0h15m3s) 
CPU  0 inst:   66000002 cyc:   41234500 now IPC :1.57601: AVG IPC :1.58987: L2-Pf-HR :0.93371: L2-HR :0.82775: (Sim:0h15m11s) 
CPU  0 inst:   67000001 cyc:   41871610 now IPC :1.56959: AVG IPC :1.58955: L2-Pf-HR :0.93344: L2-HR :0.82776: (Sim:0h15m20s) 
CPU  0 inst:   68000001 cyc:   42487103 now IPC :1.62471: AVG IPC :1.59008: L2-Pf-HR :0.93301: L2-HR :0.82769: (Sim:0h15m29s) 
CPU  0 inst:   69000000 cyc:   43117165 now IPC :1.58714: AVG IPC :1.59003: L2-Pf-HR :0.93286: L2-HR :0.82779: (Sim:0h15m37s) 
CPU  0 inst:   70000004 cyc:   43754198 now IPC :1.56978: AVG IPC :1.58973: L2-Pf-HR :0.93265: L2-HR :0.82772: (Sim:0h15m45s) 
CPU  0 inst:   71000004 cyc:   44480555 now IPC :1.37673: AVG IPC :1.58617: L2-Pf-HR :0.93229: L2-HR :0.82762: (Sim:0h15m53s) 
CPU  0 inst:   72000002 cyc:   45137561 now IPC :1.52205: AVG IPC :1.58522: L2-Pf-HR :0.93302: L2-HR :0.82765: (Sim:0h16m2s) 
CPU  0 inst:   73000002 cyc:   45793688 now IPC :1.52410: AVG IPC :1.58432: L2-Pf-HR :0.93370: L2-HR :0.82779: (Sim:0h16m10s) 
CPU  0 inst:   74000002 cyc:   46420081 now IPC :1.59644: AVG IPC :1.58449: L2-Pf-HR :0.93397: L2-HR :0.82782: (Sim:0h16m19s) 
CPU  0 inst:   75000003 cyc:   47061940 now IPC :1.55798: AVG IPC :1.58412: L2-Pf-HR :0.93424: L2-HR :0.82803: (Sim:0h16m27s) 
CPU  0 inst:   76000000 cyc:   47708449 now IPC :1.54676: AVG IPC :1.58361: L2-Pf-HR :0.93461: L2-HR :0.82807: (Sim:0h16m35s) 
CPU  0 inst:   77000002 cyc:   48402415 now IPC :1.44100: AVG IPC :1.58152: L2-Pf-HR :0.93465: L2-HR :0.82812: (Sim:0h16m44s) 
CPU  0 inst:   78000004 cyc:   49059784 now IPC :1.52122: AVG IPC :1.58069: L2-Pf-HR :0.93523: L2-HR :0.82805: (Sim:0h16m52s) 
CPU  0 inst:   79000000 cyc:   49688176 now IPC :1.59136: AVG IPC :1.58083: L2-Pf-HR :0.93536: L2-HR :0.82809: (Sim:0h17m0s) 
CPU  0 inst:   80000000 cyc:   50294673 now IPC :1.64881: AVG IPC :1.58167: L2-Pf-HR :0.93483: L2-HR :0.82824: (Sim:0h17m8s) 
CPU  0 inst:   81000005 cyc:   50987435 now IPC :1.44350: AVG IPC :1.57975: L2-Pf-HR :0.93399: L2-HR :0.82810: (Sim:0h17m17s) 
CPU  0 inst:   82000001 cyc:   51626682 now IPC :1.56433: AVG IPC :1.57956: L2-Pf-HR :0.93403: L2-HR :0.82805: (Sim:0h17m25s) 
CPU  0 inst:   83000004 cyc:   52272810 now IPC :1.54769: AVG IPC :1.57916: L2-Pf-HR :0.93399: L2-HR :0.82794: (Sim:0h17m33s) 
CPU  0 inst:   84000000 cyc:   52893212 now IPC :1.61185: AVG IPC :1.57955: L2-Pf-HR :0.93381: L2-HR :0.82798: (Sim:0h17m42s) 
CPU  0 inst:   85000002 cyc:   53532254 now IPC :1.56485: AVG IPC :1.57937: L2-Pf-HR :0.93369: L2-HR :0.82793: (Sim:0h17m50s) 
CPU  0 inst:   86000001 cyc:   54174163 now IPC :1.55785: AVG IPC :1.57911: L2-Pf-HR :0.93366: L2-HR :0.82793: (Sim:0h17m58s) 
CPU  0 inst:   87000003 cyc:   54864999 now IPC :1.44752: AVG IPC :1.57742: L2-Pf-HR :0.93320: L2-HR :0.82780: (Sim:0h18m7s) 
CPU  0 inst:   88000002 cyc:   55540712 now IPC :1.47992: AVG IPC :1.57622: L2-Pf-HR :0.93377: L2-HR :0.82788: (Sim:0h18m15s) 
CPU  0 inst:   89000005 cyc:   56199250 now IPC :1.51852: AVG IPC :1.57553: L2-Pf-HR :0.93434: L2-HR :0.82789: (Sim:0h18m24s) 
CPU  0 inst:   90000001 cyc:   56828061 now IPC :1.59030: AVG IPC :1.57569: L2-Pf-HR :0.93460: L2-HR :0.82805: (Sim:0h18m32s) 
CPU  0 inst:   91000000 cyc:   57472519 now IPC :1.55169: AVG IPC :1.57542: L2-Pf-HR :0.93478: L2-HR :0.82807: (Sim:0h18m40s) 
CPU  0 inst:   92000004 cyc:   58118935 now IPC :1.54700: AVG IPC :1.57510: L2-Pf-HR :0.93511: L2-HR :0.82822: (Sim:0h18m48s) 
CPU  0 inst:   93000005 cyc:   58793386 now IPC :1.48269: AVG IPC :1.57402: L2-Pf-HR :0.93511: L2-HR :0.82824: (Sim:0h19m7s) 
CPU  0 inst:   94000002 cyc:   59456176 now IPC :1.50877: AVG IPC :1.57328: L2-Pf-HR :0.93555: L2-HR :0.82820: (Sim:0h19m25s) 
CPU  0 inst:   95000003 cyc:   60088757 now IPC :1.58083: AVG IPC :1.57336: L2-Pf-HR :0.93577: L2-HR :0.82822: (Sim:0h19m44s) 
CPU  0 inst:   96000004 cyc:   60710591 now IPC :1.60815: AVG IPC :1.57372: L2-Pf-HR :0.93531: L2-HR :0.82821: (Sim:0h20m1s) 
CPU  0 inst:   97000002 cyc:   61387937 now IPC :1.47635: AVG IPC :1.57263: L2-Pf-HR :0.93472: L2-HR :0.82822: (Sim:0h20m18s) 
CPU  0 inst:   98000000 cyc:   62064335 now IPC :1.47842: AVG IPC :1.57159: L2-Pf-HR :0.93470: L2-HR :0.82812: (Sim:0h20m36s) 
CPU  0 inst:   99000001 cyc:   62718038 now IPC :1.52975: AVG IPC :1.57115: L2-Pf-HR :0.93464: L2-HR :0.82809: (Sim:0h20m55s) 
CPU  0 inst:  100000002 cyc:   63362704 now IPC :1.55119: AVG IPC :1.57094: L2-Pf-HR :0.93445: L2-HR :0.82801: (Sim:0h21m14s) 
CPU  0 inst:  101000001 cyc:   63993864 now IPC :1.58438: AVG IPC :1.57107: L2-Pf-HR :0.93435: L2-HR :0.82811: (Sim:0h21m32s) 
CPU  0 inst:  102000003 cyc:   64645777 now IPC :1.53395: AVG IPC :1.57069: L2-Pf-HR :0.93420: L2-HR :0.82806: (Sim:0h21m50s) 
CPU  0 inst:  103000003 cyc:   65295163 now IPC :1.53992: AVG IPC :1.57038: L2-Pf-HR :0.93422: L2-HR :0.82814: (Sim:0h22m7s) 
CPU  0 inst:  104000001 cyc:   66034864 now IPC :1.35189: AVG IPC :1.56790: L2-Pf-HR :0.93421: L2-HR :0.82798: (Sim:0h22m25s) 
CPU  0 inst:  105000000 cyc:   66691234 now IPC :1.52353: AVG IPC :1.56746: L2-Pf-HR :0.93466: L2-HR :0.82809: (Sim:0h22m43s) 
CPU  0 inst:  106000005 cyc:   67349539 now IPC :1.51906: AVG IPC :1.56698: L2-Pf-HR :0.93489: L2-HR :0.82797: (Sim:0h23m2s) 
CPU  0 inst:  107000005 cyc:   67966602 now IPC :1.62058: AVG IPC :1.56747: L2-Pf-HR :0.93507: L2-HR :0.82823: (Sim:0h23m20s) 
CPU  0 inst:  108000003 cyc:   68614347 now IPC :1.54381: AVG IPC :1.56724: L2-Pf-HR :0.93533: L2-HR :0.82829: (Sim:0h23m38s) 
CPU  0 inst:  109000000 cyc:   69258257 now IPC :1.55301: AVG IPC :1.56711: L2-Pf-HR :0.93560: L2-HR :0.82844: (Sim:0h23m55s) 
CPU  0 inst:  110000001 cyc:   69962283 now IPC :1.42040: AVG IPC :1.56561: L2-Pf-HR :0.93569: L2-HR :0.82830: (Sim:0h24m13s) 
CPU  0 inst:  111000004 cyc:   70613416 now IPC :1.53579: AVG IPC :1.56533: L2-Pf-HR :0.93597: L2-HR :0.82820: (Sim:0h24m31s) 
CPU  0 inst:  112000003 cyc:   71205838 now IPC :1.68798: AVG IPC :1.56637: L2-Pf-HR :0.93571: L2-HR :0.82836: (Sim:0h24m49s) 
CPU  0 inst:  113000002 cyc:   71804095 now IPC :1.67152: AVG IPC :1.56726: L2-Pf-HR :0.93549: L2-HR :0.82854: (Sim:0h25m8s) 
CPU  0 inst:  114000002 cyc:   72541181 now IPC :1.35669: AVG IPC :1.56509: L2-Pf-HR :0.93498: L2-HR :0.82825: (Sim:0h25m26s) 
CPU  0 inst:  115000000 cyc:   73188510 now IPC :1.54481: AVG IPC :1.56490: L2-Pf-HR :0.93497: L2-HR :0.82825: (Sim:0h25m43s) 
CPU  0 inst:  116000002 cyc:   73844378 now IPC :1.52470: AVG IPC :1.56454: L2-Pf-HR :0.93491: L2-HR :0.82815: (Sim:0h26m1s) 
CPU  0 inst:  117000000 cyc:   74460731 now IPC :1.62244: AVG IPC :1.56503: L2-Pf-HR :0.93463: L2-HR :0.82820: (Sim:0h26m20s) 
CPU  0 inst:  118000001 cyc:   75117892 now IPC :1.52170: AVG IPC :1.56464: L2-Pf-HR :0.93465: L2-HR :0.82818: (Sim:0h26m38s) 
CPU  0 inst:  119000000 cyc:   75758501 now IPC :1.56101: AVG IPC :1.56461: L2-Pf-HR :0.93452: L2-HR :0.82819: (Sim:0h26m57s) 
CPU  0 inst:  120000002 cyc:   76475447 now IPC :1.39481: AVG IPC :1.56300: L2-Pf-HR :0.93451: L2-HR :0.82813: (Sim:0h27m16s) 
CPU  0 inst:  121000005 cyc:   77122968 now IPC :1.54436: AVG IPC :1.56284: L2-Pf-HR :0.93492: L2-HR :0.82812: (Sim:0h27m33s) 
CPU  0 inst:  122000002 cyc:   77768325 now IPC :1.54953: AVG IPC :1.56273: L2-Pf-HR :0.93530: L2-HR :0.82820: (Sim:0h27m50s) 
CPU  0 inst:  123000000 cyc:   78377860 now IPC :1.64059: AVG IPC :1.56334: L2-Pf-HR :0.93536: L2-HR :0.82826: (Sim:0h28m9s) 
CPU  0 inst:  124000000 cyc:   79014385 now IPC :1.57103: AVG IPC :1.56341: L2-Pf-HR :0.93561: L2-HR :0.82834: (Sim:0h28m27s) 
CPU  0 inst:  125000000 cyc:   79640164 now IPC :1.59801: AVG IPC :1.56368: L2-Pf-HR :0.93582: L2-HR :0.82842: (Sim:0h28m45s) 
CPU  0 inst:  126000001 cyc:   80352508 now IPC :1.40382: AVG IPC :1.56225: L2-Pf-HR :0.93591: L2-HR :0.82832: (Sim:0h29m4s) 
CPU  0 inst:  127000005 cyc:   81005913 now IPC :1.53045: AVG IPC :1.56199: L2-Pf-HR :0.93627: L2-HR :0.82832: (Sim:0h29m23s) 
CPU  0 inst:  128000005 cyc:   81600507 now IPC :1.68182: AVG IPC :1.56287: L2-Pf-HR :0.93596: L2-HR :0.82840: (Sim:0h29m41s) 
CPU  0 inst:  129000003 cyc:   82217205 now IPC :1.62154: AVG IPC :1.56332: L2-Pf-HR :0.93578: L2-HR :0.82844: (Sim:0h29m58s) 
CPU  0 inst:  130000000 cyc:   82939656 now IPC :1.38417: AVG IPC :1.56174: L2-Pf-HR :0.93547: L2-HR :0.82830: (Sim:0h30m16s) 
CPU  0 inst:  131000003 cyc:   83588315 now IPC :1.54165: AVG IPC :1.56158: L2-Pf-HR :0.93548: L2-HR :0.82826: (Sim:0h30m35s) 
CPU  0 inst:  132000005 cyc:   84231799 now IPC :1.55404: AVG IPC :1.56152: L2-Pf-HR :0.93533: L2-HR :0.82823: (Sim:0h30m53s) 
CPU  0 inst:  133000000 cyc:   84848204 now IPC :1.62230: AVG IPC :1.56197: L2-Pf-HR :0.93503: L2-HR :0.82828: (Sim:0h31m12s) 
CPU  0 inst:  134000000 cyc:   85488131 now IPC :1.56268: AVG IPC :1.56197: L2-Pf-HR :0.93485: L2-HR :0.82828: (Sim:0h31m31s) 
CPU  0 inst:  135000002 cyc:   86134080 now IPC :1.54811: AVG IPC :1.56187: L2-Pf-HR :0.93469: L2-HR :0.82821: (Sim:0h31m48s) 
CPU  0 inst:  136000001 cyc:   86866729 now IPC :1.36491: AVG IPC :1.56019: L2-Pf-HR :0.93468: L2-HR :0.82819: (Sim:0h32m6s) 
CPU  0 inst:  137000001 cyc:   87523244 now IPC :1.52319: AVG IPC :1.55991: L2-Pf-HR :0.93504: L2-HR :0.82827: (Sim:0h32m24s) 
CPU  0 inst:  138000001 cyc:   88180038 now IPC :1.52255: AVG IPC :1.55963: L2-Pf-HR :0.93540: L2-HR :0.82826: (Sim:0h32m43s) 
CPU  0 inst:  139000000 cyc:   88797131 now IPC :1.62050: AVG IPC :1.56005: L2-Pf-HR :0.93541: L2-HR :0.82836: (Sim:0h33m1s) 
CPU  0 inst:  140000003 cyc:   89443238 now IPC :1.54774: AVG IPC :1.55996: L2-Pf-HR :0.93557: L2-HR :0.82840: (Sim:0h33m20s) 
CPU  0 inst:  141000005 cyc:   90091934 now IPC :1.54156: AVG IPC :1.55983: L2-Pf-HR :0.93573: L2-HR :0.82842: (Sim:0h33m37s) 
CPU  0 inst:  142000003 cyc:   90791020 now IPC :1.43044: AVG IPC :1.55882: L2-Pf-HR :0.93584: L2-HR :0.82840: (Sim:0h33m55s) 
CPU  0 inst:  143000000 cyc:   91439921 now IPC :1.54106: AVG IPC :1.55869: L2-Pf-HR :0.93614: L2-HR :0.82842: (Sim:0h34m13s) 
CPU  0 inst:  144000003 cyc:   92041095 now IPC :1.66342: AVG IPC :1.55939: L2-Pf-HR :0.93595: L2-HR :0.82845: (Sim:0h34m31s) 
CPU  0 inst:  145000004 cyc:   92654253 now IPC :1.63090: AVG IPC :1.55986: L2-Pf-HR :0.93578: L2-HR :0.82852: (Sim:0h34m49s) 
CPU  0 inst:  146000003 cyc:   93370782 now IPC :1.39562: AVG IPC :1.55859: L2-Pf-HR :0.93540: L2-HR :0.82839: (Sim:0h35m8s) 
CPU  0 inst:  147000005 cyc:   94023199 now IPC :1.53277: AVG IPC :1.55841: L2-Pf-HR :0.93543: L2-HR :0.82836: (Sim:0h35m26s) 
CPU  0 inst:  148000003 cyc:   94682180 now IPC :1.51749: AVG IPC :1.55812: L2-Pf-HR :0.93546: L2-HR :0.82830: (Sim:0h35m44s) 
CPU  0 inst:  149000000 cyc:   95307441 now IPC :1.59933: AVG IPC :1.55840: L2-Pf-HR :0.93522: L2-HR :0.82830: (Sim:0h36m2s) 
CPU  0 inst:  150000003 cyc:   95957751 now IPC :1.53773: AVG IPC :1.55825: L2-Pf-HR :0.93516: L2-HR :0.82830: (Sim:0h36m20s) 
CPU  0 inst:  151000000 cyc:   96616926 now IPC :1.51704: AVG IPC :1.55797: L2-Pf-HR :0.93512: L2-HR :0.82826: (Sim:0h36m39s) 
CPU  0 inst:  152000000 cyc:   97350350 now IPC :1.36347: AVG IPC :1.55649: L2-Pf-HR :0.93501: L2-HR :0.82823: (Sim:0h36m58s) 
CPU  0 inst:  153000005 cyc:   98010869 now IPC :1.51397: AVG IPC :1.55620: L2-Pf-HR :0.93533: L2-HR :0.82821: (Sim:0h37m16s) 
CPU  0 inst:  154000005 cyc:   98670196 now IPC :1.51670: AVG IPC :1.55593: L2-Pf-HR :0.93565: L2-HR :0.82829: (Sim:0h37m33s) 
CPU  0 inst:  155000001 cyc:   99291739 now IPC :1.60889: AVG IPC :1.55627: L2-Pf-HR :0.93568: L2-HR :0.82831: (Sim:0h37m51s) 
CPU  0 inst:  156000004 cyc:   99937005 now IPC :1.54975: AVG IPC :1.55623: L2-Pf-HR :0.93582: L2-HR :0.82839: (Sim:0h38m10s) 
CPU  0 inst:  157000001 cyc:  100587434 now IPC :1.53744: AVG IPC :1.55610: L2-Pf-HR :0.93600: L2-HR :0.82842: (Sim:0h38m28s) 
CPU  0 inst:  158000000 cyc:  101290949 now IPC :1.42143: AVG IPC :1.55516: L2-Pf-HR :0.93600: L2-HR :0.82840: (Sim:0h38m47s) 
CPU  0 inst:  159000003 cyc:  101953425 now IPC :1.50949: AVG IPC :1.55486: L2-Pf-HR :0.93628: L2-HR :0.82839: (Sim:0h39m6s) 
CPU  0 inst:  160000002 cyc:  102574975 now IPC :1.60888: AVG IPC :1.55519: L2-Pf-HR :0.93619: L2-HR :0.82839: (Sim:0h39m24s) 
CPU  0 inst:  161000002 cyc:  103186206 now IPC :1.63604: AVG IPC :1.55567: L2-Pf-HR :0.93597: L2-HR :0.82848: (Sim:0h39m42s) 
CPU  0 inst:  162000000 cyc:  103894794 now IPC :1.41125: AVG IPC :1.55468: L2-Pf-HR :0.93560: L2-HR :0.82837: (Sim:0h40m1s) 
CPU  0 inst:  163000004 cyc:  104539071 now IPC :1.55213: AVG IPC :1.55466: L2-Pf-HR :0.93564: L2-HR :0.82832: (Sim:0h40m19s) 
CPU  0 inst:  164000002 cyc:  105176087 now IPC :1.56982: AVG IPC :1.55476: L2-Pf-HR :0.93565: L2-HR :0.82831: (Sim:0h40m38s) 
CPU  0 inst:  165000003 cyc:  105792380 now IPC :1.62261: AVG IPC :1.55515: L2-Pf-HR :0.93551: L2-HR :0.82829: (Sim:0h40m56s) 
CPU  0 inst:  166000005 cyc:  106432220 now IPC :1.56289: AVG IPC :1.55520: L2-Pf-HR :0.93540: L2-HR :0.82825: (Sim:0h41m14s) 
CPU  0 inst:  167000003 cyc:  107065020 now IPC :1.58027: AVG IPC :1.55535: L2-Pf-HR :0.93536: L2-HR :0.82826: (Sim:0h41m33s) 
CPU  0 inst:  168000004 cyc:  107781572 now IPC :1.39557: AVG IPC :1.55428: L2-Pf-HR :0.93516: L2-HR :0.82820: (Sim:0h41m53s) 
CPU  0 inst:  169000000 cyc:  108438483 now IPC :1.52227: AVG IPC :1.55408: L2-Pf-HR :0.93545: L2-HR :0.82826: (Sim:0h42m11s) 
CPU  0 inst:  170000000 cyc:  109096933 now IPC :1.51872: AVG IPC :1.55387: L2-Pf-HR :0.93573: L2-HR :0.82825: (Sim:0h42m29s) 
CPU  0 inst:  171000000 cyc:  109718269 now IPC :1.60944: AVG IPC :1.55419: L2-Pf-HR :0.93579: L2-HR :0.82832: (Sim:0h42m46s) 
CPU  0 inst:  172000003 cyc:  110363209 now IPC :1.55054: AVG IPC :1.55416: L2-Pf-HR :0.93592: L2-HR :0.82836: (Sim:0h43m4s) 
CPU  0 inst:  173000001 cyc:  111011681 now IPC :1.54208: AVG IPC :1.55409: L2-Pf-HR :0.93608: L2-HR :0.82840: (Sim:0h43m22s) 
CPU  0 inst:  174000005 cyc:  111708590 now IPC :1.43491: AVG IPC :1.55334: L2-Pf-HR :0.93607: L2-HR :0.82839: (Sim:0h43m36s) 
CPU  0 inst:  175000005 cyc:  112360558 now IPC :1.53382: AVG IPC :1.55323: L2-Pf-HR :0.93632: L2-HR :0.82836: (Sim:0h43m44s) 
CPU  0 inst:  176000001 cyc:  112980809 now IPC :1.61224: AVG IPC :1.55356: L2-Pf-HR :0.93629: L2-HR :0.82839: (Sim:0h43m53s) 
CPU  0 inst:  177000000 cyc:  113588919 now IPC :1.64444: AVG IPC :1.55405: L2-Pf-HR :0.93603: L2-HR :0.82844: (Sim:0h44m1s) 
CPU  0 inst:  178000000 cyc:  114280793 now IPC :1.44535: AVG IPC :1.55338: L2-Pf-HR :0.93570: L2-HR :0.82838: (Sim:0h44m9s) 
CPU  0 inst:  179000003 cyc:  114931499 now IPC :1.53680: AVG IPC :1.55329: L2-Pf-HR :0.93567: L2-HR :0.82836: (Sim:0h44m18s) 
CPU  0 inst:  180000004 cyc:  115580129 now IPC :1.54171: AVG IPC :1.55322: L2-Pf-HR :0.93561: L2-HR :0.82833: (Sim:0h44m26s) 
CPU  0 inst:  181000000 cyc:  116204144 now IPC :1.60252: AVG IPC :1.55349: L2-Pf-HR :0.93545: L2-HR :0.82833: (Sim:0h44m34s) 
CPU  0 inst:  182000001 cyc:  116844142 now IPC :1.56251: AVG IPC :1.55354: L2-Pf-HR :0.93538: L2-HR :0.82833: (Sim:0h44m43s) 
CPU  0 inst:  183000001 cyc:  117487948 now IPC :1.55326: AVG IPC :1.55354: L2-Pf-HR :0.93529: L2-HR :0.82834: (Sim:0h44m51s) 
CPU  0 inst:  184000005 cyc:  118218199 now IPC :1.36940: AVG IPC :1.55239: L2-Pf-HR :0.93513: L2-HR :0.82829: (Sim:0h45m0s) 
CPU  0 inst:  185000000 cyc:  118872649 now IPC :1.52799: AVG IPC :1.55225: L2-Pf-HR :0.93540: L2-HR :0.82827: (Sim:0h45m8s) 
CPU  0 inst:  186000005 cyc:  119526055 now IPC :1.53045: AVG IPC :1.55213: L2-Pf-HR :0.93566: L2-HR :0.82833: (Sim:0h45m17s) 
CPU  0 inst:  187000005 cyc:  120148839 now IPC :1.60569: AVG IPC :1.55241: L2-Pf-HR :0.93575: L2-HR :0.82835: (Sim:0h45m25s) 
CPU  0 inst:  188000001 cyc:  120791251 now IPC :1.55663: AVG IPC :1.55244: L2-Pf-HR :0.93589: L2-HR :0.82840: (Sim:0h45m33s) 
CPU  0 inst:  189000001 cyc:  121435388 now IPC :1.55246: AVG IPC :1.55244: L2-Pf-HR :0.93606: L2-HR :0.82844: (Sim:0h45m42s) 
CPU  0 inst:  190000003 cyc:  122118235 now IPC :1.46446: AVG IPC :1.55194: L2-Pf-HR :0.93606: L2-HR :0.82842: (Sim:0h45m50s) 
CPU  0 inst:  191000001 cyc:  122757341 now IPC :1.56468: AVG IPC :1.55201: L2-Pf-HR :0.93628: L2-HR :0.82843: (Sim:0h45m58s) 
CPU  0 inst:  192000001 cyc:  123372333 now IPC :1.62604: AVG IPC :1.55238: L2-Pf-HR :0.93631: L2-HR :0.82844: (Sim:0h46m7s) 
CPU  0 inst:  193000002 cyc:  123976686 now IPC :1.65466: AVG IPC :1.55288: L2-Pf-HR :0.93614: L2-HR :0.82847: (Sim:0h46m15s) 
CPU  0 inst:  194000002 cyc:  124673162 now IPC :1.43580: AVG IPC :1.55222: L2-Pf-HR :0.93581: L2-HR :0.82844: (Sim:0h46m23s) 
CPU  0 inst:  195000004 cyc:  125329014 now IPC :1.52474: AVG IPC :1.55208: L2-Pf-HR :0.93582: L2-HR :0.82839: (Sim:0h46m32s) 
CPU  0 inst:  196000004 cyc:  125975025 now IPC :1.54796: AVG IPC :1.55206: L2-Pf-HR :0.93579: L2-HR :0.82839: (Sim:0h46m40s) 
CPU  0 inst:  197000000 cyc:  126582293 now IPC :1.64671: AVG IPC :1.55251: L2-Pf-HR :0.93557: L2-HR :0.82839: (Sim:0h46m49s) 
CPU  0 inst:  198000001 cyc:  127228643 now IPC :1.54715: AVG IPC :1.55249: L2-Pf-HR :0.93553: L2-HR :0.82839: (Sim:0h46m57s) 
CPU  0 inst:  199000003 cyc:  127868789 now IPC :1.56215: AVG IPC :1.55254: L2-Pf-HR :0.93546: L2-HR :0.82837: (Sim:0h47m6s) 
CPU  0 inst:  200000005 cyc:  128584132 now IPC :1.39793: AVG IPC :1.55167: L2-Pf-HR :0.93520: L2-HR :0.82832: (Sim:0h47m14s) 
CPU  0 inst:  201000001 cyc:  129247738 now IPC :1.50691: AVG IPC :1.55144: L2-Pf-HR :0.93544: L2-HR :0.82836: (Sim:0h47m23s) 
CPU  0 inst:  202000004 cyc:  129910374 now IPC :1.50913: AVG IPC :1.55122: L2-Pf-HR :0.93568: L2-HR :0.82836: (Sim:0h47m31s) 
CPU  0 inst:  203000003 cyc:  130540915 now IPC :1.58594: AVG IPC :1.55139: L2-Pf-HR :0.93577: L2-HR :0.82841: (Sim:0h47m40s) 
CPU  0 inst:  204000003 cyc:  131189968 now IPC :1.54071: AVG IPC :1.55134: L2-Pf-HR :0.93591: L2-HR :0.82845: (Sim:0h47m48s) 
CPU  0 inst:  205000003 cyc:  131843006 now IPC :1.53130: AVG IPC :1.55124: L2-Pf-HR :0.93606: L2-HR :0.82848: (Sim:0h47m57s) 
CPU  0 inst:  206000004 cyc:  132537803 now IPC :1.43927: AVG IPC :1.55064: L2-Pf-HR :0.93603: L2-HR :0.82850: (Sim:0h48m5s) 
CPU  0 inst:  207000005 cyc:  133183262 now IPC :1.54929: AVG IPC :1.55064: L2-Pf-HR :0.93622: L2-HR :0.82849: (Sim:0h48m14s) 
CPU  0 inst:  208000002 cyc:  133810526 now IPC :1.59422: AVG IPC :1.55084: L2-Pf-HR :0.93625: L2-HR :0.82844: (Sim:0h48m22s) 
CPU  0 inst:  209000001 cyc:  134418531 now IPC :1.64472: AVG IPC :1.55127: L2-Pf-HR :0.93616: L2-HR :0.82853: (Sim:0h48m30s) 
CPU  0 inst:  210000004 cyc:  135114811 now IPC :1.43621: AVG IPC :1.55067: L2-Pf-HR :0.93588: L2-HR :0.82848: (Sim:0h48m39s) 
CPU  0 inst:  211000004 cyc:  135769001 now IPC :1.52861: AVG IPC :1.55057: L2-Pf-HR :0.93586: L2-HR :0.82847: (Sim:0h48m47s) 
CPU  0 inst:  212000005 cyc:  136421991 now IPC :1.53142: AVG IPC :1.55048: L2-Pf-HR :0.93584: L2-HR :0.82842: (Sim:0h48m56s) 
CPU  0 inst:  213000001 cyc:  137047035 now IPC :1.59988: AVG IPC :1.55070: L2-Pf-HR :0.93569: L2-HR :0.82843: (Sim:0h49m4s) 
CPU  0 inst:  214000001 cyc:  137679165 now IPC :1.58195: AVG IPC :1.55085: L2-Pf-HR :0.93560: L2-HR :0.82843: (Sim:0h49m12s) 
CPU  0 inst:  215000004 cyc:  138325717 now IPC :1.54667: AVG IPC :1.55083: L2-Pf-HR :0.93554: L2-HR :0.82844: (Sim:0h49m21s) 
CPU  0 inst:  216000001 cyc:  139009299 now IPC :1.46288: AVG IPC :1.55039: L2-Pf-HR :0.93542: L2-HR :0.82839: (Sim:0h49m29s) 
CPU  0 inst:  217000000 cyc:  139711380 now IPC :1.42434: AVG IPC :1.54975: L2-Pf-HR :0.93558: L2-HR :0.82838: (Sim:0h49m38s) 
CPU  0 inst:  218000005 cyc:  140363957 now IPC :1.53239: AVG IPC :1.54967: L2-Pf-HR :0.93580: L2-HR :0.82842: (Sim:0h49m46s) 
CPU  0 inst:  219000003 cyc:  141007315 now IPC :1.55434: AVG IPC :1.54969: L2-Pf-HR :0.93589: L2-HR :0.82840: (Sim:0h49m55s) 
CPU  0 inst:  220000003 cyc:  141633217 now IPC :1.59769: AVG IPC :1.54991: L2-Pf-HR :0.93598: L2-HR :0.82848: (Sim:0h50m3s) 
CPU  0 inst:  221000003 cyc:  142275670 now IPC :1.55653: AVG IPC :1.54994: L2-Pf-HR :0.93610: L2-HR :0.82853: (Sim:0h50m13s) 
CPU  0 inst:  222000003 cyc:  142933267 now IPC :1.52069: AVG IPC :1.54980: L2-Pf-HR :0.93613: L2-HR :0.82855: (Sim:0h50m32s) 
CPU  0 inst:  223000002 cyc:  143620972 now IPC :1.45411: AVG IPC :1.54934: L2-Pf-HR :0.93626: L2-HR :0.82851: (Sim:0h50m51s) 
CPU  0 inst:  224000004 cyc:  144266245 now IPC :1.54973: AVG IPC :1.54934: L2-Pf-HR :0.93636: L2-HR :0.82848: (Sim:0h51m9s) 
CPU  0 inst:  225000005 cyc:  144882627 now IPC :1.62237: AVG IPC :1.54966: L2-Pf-HR :0.93630: L2-HR :0.82854: (Sim:0h51m27s) 
CPU  0 inst:  226000000 cyc:  145507822 now IPC :1.59949: AVG IPC :1.54987: L2-Pf-HR :0.93615: L2-HR :0.82859: (Sim:0h51m45s) 
CPU  0 inst:  227000000 cyc:  146233027 now IPC :1.37892: AVG IPC :1.54902: L2-Pf-HR :0.93593: L2-HR :0.82846: (Sim:0h52m5s) 
CPU  0 inst:  228000002 cyc:  146893493 now IPC :1.51409: AVG IPC :1.54886: L2-Pf-HR :0.93593: L2-HR :0.82848: (Sim:0h52m23s) 
CPU  0 inst:  229000002 cyc:  147559457 now IPC :1.50158: AVG IPC :1.54864: L2-Pf-HR :0.93584: L2-HR :0.82839: (Sim:0h52m41s) 
CPU  0 inst:  230000004 cyc:  148181810 now IPC :1.60681: AVG IPC :1.54889: L2-Pf-HR :0.93567: L2-HR :0.82844: (Sim:0h53m0s) 
CPU  0 inst:  231000004 cyc:  148841068 now IPC :1.51686: AVG IPC :1.54875: L2-Pf-HR :0.93569: L2-HR :0.82844: (Sim:0h53m19s) 
CPU  0 inst:  232000003 cyc:  149488118 now IPC :1.54547: AVG IPC :1.54873: L2-Pf-HR :0.93560: L2-HR :0.82846: (Sim:0h53m37s) 
CPU  0 inst:  233000005 cyc:  150231156 now IPC :1.34583: AVG IPC :1.54772: L2-Pf-HR :0.93559: L2-HR :0.82841: (Sim:0h53m56s) 
CPU  0 inst:  234000005 cyc:  150892172 now IPC :1.51282: AVG IPC :1.54757: L2-Pf-HR :0.93581: L2-HR :0.82841: (Sim:0h54m15s) 
CPU  0 inst:  235000003 cyc:  151552263 now IPC :1.51494: AVG IPC :1.54743: L2-Pf-HR :0.93596: L2-HR :0.82842: (Sim:0h54m33s) 
CPU  0 inst:  236000000 cyc:  152173773 now IPC :1.60898: AVG IPC :1.54768: L2-Pf-HR :0.93604: L2-HR :0.82848: (Sim:0h54m52s) 
CPU  0 inst:  237000000 cyc:  152825738 now IPC :1.53382: AVG IPC :1.54762: L2-Pf-HR :0.93616: L2-HR :0.82850: (Sim:0h55m10s) 
CPU  0 inst:  238000000 cyc:  153464461 now IPC :1.56562: AVG IPC :1.54769: L2-Pf-HR :0.93627: L2-HR :0.82857: (Sim:0h55m29s) 
CPU  0 inst:  239000001 cyc:  154171040 now IPC :1.41527: AVG IPC :1.54708: L2-Pf-HR :0.93632: L2-HR :0.82850: (Sim:0h55m48s) 
CPU  0 inst:  240000000 cyc:  154809757 now IPC :1.56564: AVG IPC :1.54716: L2-Pf-HR :0.93648: L2-HR :0.82852: (Sim:0h56m6s) 
CPU  0 inst:  241000003 cyc:  155407147 now IPC :1.67395: AVG IPC :1.54765: L2-Pf-HR :0.93628: L2-HR :0.82853: (Sim:0h56m24s) 
CPU  0 inst:  242000003 cyc:  155999248 now IPC :1.68890: AVG IPC :1.54819: L2-Pf-HR :0.93614: L2-HR :0.82860: (Sim:0h56m42s) 
CPU  0 inst:  243000002 cyc:  156734881 now IPC :1.35937: AVG IPC :1.54730: L2-Pf-HR :0.93594: L2-HR :0.82851: (Sim:0h57m1s) 
CPU  0 inst:  244000004 cyc:  157388144 now IPC :1.53078: AVG IPC :1.54723: L2-Pf-HR :0.93592: L2-HR :0.82847: (Sim:0h57m20s) 
CPU  0 inst:  245000003 cyc:  158034585 now IPC :1.54693: AVG IPC :1.54723: L2-Pf-HR :0.93585: L2-HR :0.82847: (Sim:0h57m38s) 
CPU  0 inst:  246000003 cyc:  158654295 now IPC :1.61366: AVG IPC :1.54749: L2-Pf-HR :0.93567: L2-HR :0.82847: (Sim:0h57m56s) 
CPU  0 inst:  247000000 cyc:  159304011 now IPC :1.53913: AVG IPC :1.54746: L2-Pf-HR :0.93558: L2-HR :0.82849: (Sim:0h58m15s) 
CPU  0 inst:  248000003 cyc:  159942892 now IPC :1.56524: AVG IPC :1.54753: L2-Pf-HR :0.93542: L2-HR :0.82845: (Sim:0h58m34s) 
CPU  0 inst:  249000004 cyc:  160674205 now IPC :1.36740: AVG IPC :1.54670: L2-Pf-HR :0.93541: L2-HR :0.82844: (Sim:0h58m52s) 
CPU  0 inst:  250000001 cyc:  161330319 now IPC :1.52412: AVG IPC :1.54661: L2-Pf-HR :0.93561: L2-HR :0.82847: (Sim:0h59m11s) 
CPU  0 inst:  251000003 cyc:  161985464 now IPC :1.52638: AVG IPC :1.54653: L2-Pf-HR :0.93580: L2-HR :0.82849: (Sim:0h59m30s) 
CPU  0 inst:  252000001 cyc:  162603417 now IPC :1.61824: AVG IPC :1.54680: L2-Pf-HR :0.93582: L2-HR :0.82852: (Sim:0h59m48s) 
CPU  0 inst:  253000002 cyc:  163246998 now IPC :1.55381: AVG IPC :1.54683: L2-Pf-HR :0.93593: L2-HR :0.82856: (Sim:1h0m7s) 
CPU  0 inst:  254000005 cyc:  163893206 now IPC :1.54749: AVG IPC :1.54683: L2-Pf-HR :0.93602: L2-HR :0.82856: (Sim:1h0m25s) 
CPU  0 inst:  255000001 cyc:  164589703 now IPC :1.43575: AVG IPC :1.54636: L2-Pf-HR :0.93607: L2-HR :0.82856: (Sim:1h0m43s) 
CPU  0 inst:  256000001 cyc:  165246644 now IPC :1.52221: AVG IPC :1.54626: L2-Pf-HR :0.93624: L2-HR :0.82856: (Sim:1h1m2s) 
CPU  0 inst:  257000001 cyc:  165859023 now IPC :1.63298: AVG IPC :1.54659: L2-Pf-HR :0.93614: L2-HR :0.82857: (Sim:1h1m21s) 
CPU  0 inst:  258000005 cyc:  166473456 now IPC :1.62752: AVG IPC :1.54689: L2-Pf-HR :0.93604: L2-HR :0.82863: (Sim:1h1m38s) 
CPU  0 inst:  259000003 cyc:  170197713 now IPC :0.26851: AVG IPC :1.51875: L2-Pf-HR :0.92972: L2-HR :0.82162: (Sim:1h2m16s) 
CPU  0 inst:  260000002 cyc:  175156858 now IPC :0.20165: AVG IPC :1.48125: L2-Pf-HR :0.92036: L2-HR :0.81223: (Sim:1h3m3s) 
CPU  0 inst:  261000000 cyc:  180261561 now IPC :0.19590: AVG IPC :1.44465: L2-Pf-HR :0.91120: L2-HR :0.80347: (Sim:1h3m51s) 
CPU  0 inst:  262000000 cyc:  185364254 now IPC :0.19597: AVG IPC :1.41010: L2-Pf-HR :0.90236: L2-HR :0.79524: (Sim:1h4m23s) 
CPU  0 inst:  263000002 cyc:  190466941 now IPC :0.19598: AVG IPC :1.37740: L2-Pf-HR :0.89374: L2-HR :0.78752: (Sim:1h4m46s) 
CPU  0 inst:  264000001 cyc:  195571932 now IPC :0.19589: AVG IPC :1.34640: L2-Pf-HR :0.88535: L2-HR :0.78026: (Sim:1h5m9s) 
CPU  0 inst:  265000003 cyc:  200679791 now IPC :0.19578: AVG IPC :1.31697: L2-Pf-HR :0.87719: L2-HR :0.77341: (Sim:1h5m31s) 
CPU  0 inst:  266000005 cyc:  205788406 now IPC :0.19575: AVG IPC :1.28901: L2-Pf-HR :0.86924: L2-HR :0.76694: (Sim:1h5m54s) 
CPU  0 inst:  267000003 cyc:  210897034 now IPC :0.19575: AVG IPC :1.26240: L2-Pf-HR :0.86149: L2-HR :0.76082: (Sim:1h6m17s) 
CPU  0 inst:  268000000 cyc:  215681250 now IPC :0.20902: AVG IPC :1.23893: L2-Pf-HR :0.85555: L2-HR :0.75617: (Sim:1h6m37s) 
CPU  0 inst:  269000000 cyc:  218953765 now IPC :0.30558: AVG IPC :1.22492: L2-Pf-HR :0.85346: L2-HR :0.75503: (Sim:1h6m53s) 
CPU  0 inst:  270000000 cyc:  222226351 now IPC :0.30557: AVG IPC :1.21132: L2-Pf-HR :0.85138: L2-HR :0.75389: (Sim:1h7m9s) 
CPU  0 inst:  271000000 cyc:  225499145 now IPC :0.30555: AVG IPC :1.19811: L2-Pf-HR :0.84931: L2-HR :0.75276: (Sim:1h7m41s) 
CPU  0 inst:  272000004 cyc:  228771613 now IPC :0.30558: AVG IPC :1.18529: L2-Pf-HR :0.84724: L2-HR :0.75163: (Sim:1h8m16s) 
CPU  0 inst:  273000000 cyc:  232044535 now IPC :0.30554: AVG IPC :1.17283: L2-Pf-HR :0.84519: L2-HR :0.75052: (Sim:1h8m50s) 
CPU  0 inst:  274000002 cyc:  235318524 now IPC :0.30544: AVG IPC :1.16071: L2-Pf-HR :0.84316: L2-HR :0.74941: (Sim:1h9m25s) 
CPU  0 inst:  275000001 cyc:  238593836 now IPC :0.30531: AVG IPC :1.14892: L2-Pf-HR :0.84113: L2-HR :0.74830: (Sim:1h9m59s) 
CPU  0 inst:  276000004 cyc:  241865593 now IPC :0.30565: AVG IPC :1.13747: L2-Pf-HR :0.83911: L2-HR :0.74720: (Sim:1h10m33s) 
CPU  0 inst:  277000000 cyc:  245137020 now IPC :0.30568: AVG IPC :1.12632: L2-Pf-HR :0.83709: L2-HR :0.74610: (Sim:1h11m8s) 
CPU  0 inst:  278000000 cyc:  248407035 now IPC :0.30581: AVG IPC :1.11548: L2-Pf-HR :0.83508: L2-HR :0.74502: (Sim:1h11m42s) 
CPU  0 inst:  279000000 cyc:  251677045 now IPC :0.30581: AVG IPC :1.10492: L2-Pf-HR :0.83308: L2-HR :0.74393: (Sim:1h12m16s) 
CPU  0 inst:  280000000 cyc:  254946549 now IPC :0.30586: AVG IPC :1.09463: L2-Pf-HR :0.83109: L2-HR :0.74285: (Sim:1h12m50s) 
CPU  0 inst:  281000002 cyc:  258217194 now IPC :0.30575: AVG IPC :1.08460: L2-Pf-HR :0.82912: L2-HR :0.74178: (Sim:1h13m24s) 
CPU  0 inst:  282000005 cyc:  261489480 now IPC :0.30560: AVG IPC :1.07482: L2-Pf-HR :0.82715: L2-HR :0.74072: (Sim:1h13m59s) 
CPU  0 inst:  283000000 cyc:  264760615 now IPC :0.30570: AVG IPC :1.06528: L2-Pf-HR :0.82520: L2-HR :0.73966: (Sim:1h14m33s) 
CPU  0 inst:  284000000 cyc:  268030329 now IPC :0.30584: AVG IPC :1.05598: L2-Pf-HR :0.82324: L2-HR :0.73860: (Sim:1h15m7s) 
CPU  0 inst:  285000000 cyc:  271300152 now IPC :0.30583: AVG IPC :1.04691: L2-Pf-HR :0.82130: L2-HR :0.73755: (Sim:1h15m40s) 
CPU  0 inst:  286000000 cyc:  274571191 now IPC :0.30571: AVG IPC :1.03804: L2-Pf-HR :0.81936: L2-HR :0.73651: (Sim:1h15m55s) 
CPU  0 inst:  287000000 cyc:  277841737 now IPC :0.30576: AVG IPC :1.02939: L2-Pf-HR :0.81744: L2-HR :0.73547: (Sim:1h16m11s) 
CPU  0 inst:  288000000 cyc:  281112322 now IPC :0.30576: AVG IPC :1.02094: L2-Pf-HR :0.81552: L2-HR :0.73444: (Sim:1h16m26s) 
CPU  0 inst:  289000001 cyc:  284383819 now IPC :0.30567: AVG IPC :1.01269: L2-Pf-HR :0.81363: L2-HR :0.73341: (Sim:1h16m42s) 
CPU  0 inst:  290000001 cyc:  287656915 now IPC :0.30552: AVG IPC :1.00461: L2-Pf-HR :0.81173: L2-HR :0.73239: (Sim:1h17m8s) 
CPU  0 inst:  291000000 cyc:  290926335 now IPC :0.30586: AVG IPC :0.99673: L2-Pf-HR :0.80984: L2-HR :0.73137: (Sim:1h17m39s) 
CPU  0 inst:  292000000 cyc:  294196750 now IPC :0.30577: AVG IPC :0.98903: L2-Pf-HR :0.80796: L2-HR :0.73036: (Sim:1h18m12s) 
CPU  0 inst:  293000004 cyc:  297467819 now IPC :0.30571: AVG IPC :0.98149: L2-Pf-HR :0.80609: L2-HR :0.72935: (Sim:1h18m45s) 
CPU  0 inst:  294000000 cyc:  300738304 now IPC :0.30576: AVG IPC :0.97412: L2-Pf-HR :0.80422: L2-HR :0.72835: (Sim:1h19m17s) 
CPU  0 inst:  295000000 cyc:  304008935 now IPC :0.30575: AVG IPC :0.96690: L2-Pf-HR :0.80237: L2-HR :0.72735: (Sim:1h19m48s) 
CPU  0 inst:  296000001 cyc:  307279402 now IPC :0.30577: AVG IPC :0.95984: L2-Pf-HR :0.80053: L2-HR :0.72636: (Sim:1h20m21s) 
CPU  0 inst:  297000001 cyc:  310551525 now IPC :0.30561: AVG IPC :0.95293: L2-Pf-HR :0.79870: L2-HR :0.72537: (Sim:1h20m54s) 
CPU  0 inst:  298000000 cyc:  313822908 now IPC :0.30568: AVG IPC :0.94616: L2-Pf-HR :0.79687: L2-HR :0.72439: (Sim:1h21m27s) 
CPU  0 inst:  299000000 cyc:  317093526 now IPC :0.30575: AVG IPC :0.93953: L2-Pf-HR :0.79505: L2-HR :0.72341: (Sim:1h21m58s) 
CPU  0 inst:  300000000 cyc:  320362830 now IPC :0.30588: AVG IPC :0.93305: L2-Pf-HR :0.79324: L2-HR :0.72244: (Sim:1h22m30s) 
CPU  0 inst:  301000000 cyc:  323633185 now IPC :0.30578: AVG IPC :0.92669: L2-Pf-HR :0.79143: L2-HR :0.72147: (Sim:1h23m4s) 
CPU  0 inst:  302000000 cyc:  326902433 now IPC :0.30588: AVG IPC :0.92046: L2-Pf-HR :0.78964: L2-HR :0.72051: (Sim:1h23m37s) 
CPU  0 inst:  303000000 cyc:  330173401 now IPC :0.30572: AVG IPC :0.91436: L2-Pf-HR :0.78785: L2-HR :0.71955: (Sim:1h24m10s) 
CPU  0 inst:  304000001 cyc:  333444233 now IPC :0.30573: AVG IPC :0.90837: L2-Pf-HR :0.78608: L2-HR :0.71860: (Sim:1h24m42s) 
CPU  0 inst:  305000005 cyc:  336716520 now IPC :0.30560: AVG IPC :0.90249: L2-Pf-HR :0.78431: L2-HR :0.71765: (Sim:1h25m13s) 
CPU  0 inst:  306000000 cyc:  339987283 now IPC :0.30574: AVG IPC :0.89673: L2-Pf-HR :0.78255: L2-HR :0.71671: (Sim:1h25m47s) 
CPU  0 inst:  307000000 cyc:  343256807 now IPC :0.30585: AVG IPC :0.89109: L2-Pf-HR :0.78079: L2-HR :0.71577: (Sim:1h26m20s) 
CPU  0 inst:  308000000 cyc:  346527423 now IPC :0.30575: AVG IPC :0.88555: L2-Pf-HR :0.77904: L2-HR :0.71483: (Sim:1h26m52s) 
CPU  0 inst:  309000000 cyc:  349797364 now IPC :0.30582: AVG IPC :0.88012: L2-Pf-HR :0.77730: L2-HR :0.71390: (Sim:1h27m23s) 
CPU  0 inst:  310000004 cyc:  353067598 now IPC :0.30579: AVG IPC :0.87478: L2-Pf-HR :0.77557: L2-HR :0.71298: (Sim:1h27m57s) 
CPU  0 inst:  311000000 cyc:  356337560 now IPC :0.30581: AVG IPC :0.86955: L2-Pf-HR :0.77385: L2-HR :0.71206: (Sim:1h28m30s) 
CPU  0 inst:  312000001 cyc:  359610771 now IPC :0.30551: AVG IPC :0.86440: L2-Pf-HR :0.77214: L2-HR :0.71114: (Sim:1h29m1s) 
CPU  0 inst:  313000000 cyc:  362881832 now IPC :0.30571: AVG IPC :0.85935: L2-Pf-HR :0.77043: L2-HR :0.71023: (Sim:1h29m33s) 
CPU  0 inst:  314000004 cyc:  366151757 now IPC :0.30582: AVG IPC :0.85439: L2-Pf-HR :0.76873: L2-HR :0.70932: (Sim:1h30m7s) 
CPU  0 inst:  315000000 cyc:  369421803 now IPC :0.30580: AVG IPC :0.84952: L2-Pf-HR :0.76703: L2-HR :0.70842: (Sim:1h30m40s) 
CPU  0 inst:  316000000 cyc:  372691892 now IPC :0.30580: AVG IPC :0.84474: L2-Pf-HR :0.76535: L2-HR :0.70752: (Sim:1h31m11s) 
CPU  0 inst:  317000000 cyc:  375962042 now IPC :0.30580: AVG IPC :0.84004: L2-Pf-HR :0.76367: L2-HR :0.70662: (Sim:1h31m43s) 
CPU  0 inst:  318000005 cyc:  379232192 now IPC :0.30580: AVG IPC :0.83542: L2-Pf-HR :0.76200: L2-HR :0.70573: (Sim:1h32m16s) 
CPU  0 inst:  319000001 cyc:  382503089 now IPC :0.30573: AVG IPC :0.83088: L2-Pf-HR :0.76034: L2-HR :0.70485: (Sim:1h32m49s) 
CPU  0 inst:  320000000 cyc:  385775871 now IPC :0.30555: AVG IPC :0.82641: L2-Pf-HR :0.75868: L2-HR :0.70396: (Sim:1h33m20s) 
CPU  0 inst:  321000000 cyc:  389045238 now IPC :0.30587: AVG IPC :0.82203: L2-Pf-HR :0.75703: L2-HR :0.70309: (Sim:1h33m52s) 
CPU  0 inst:  322000000 cyc:  392315402 now IPC :0.30580: AVG IPC :0.81771: L2-Pf-HR :0.75539: L2-HR :0.70221: (Sim:1h34m26s) 
CPU  0 inst:  323000000 cyc:  395585245 now IPC :0.30583: AVG IPC :0.81347: L2-Pf-HR :0.75375: L2-HR :0.70134: (Sim:1h34m59s) 
CPU  0 inst:  324000000 cyc:  398855477 now IPC :0.30579: AVG IPC :0.80930: L2-Pf-HR :0.75213: L2-HR :0.70048: (Sim:1h35m31s) 
CPU  0 inst:  325000000 cyc:  402125320 now IPC :0.30583: AVG IPC :0.80519: L2-Pf-HR :0.75050: L2-HR :0.69961: (Sim:1h36m3s) 
CPU  0 inst:  326000002 cyc:  405396224 now IPC :0.30573: AVG IPC :0.80115: L2-Pf-HR :0.74890: L2-HR :0.69876: (Sim:1h36m35s) 
CPU  0 inst:  327000001 cyc:  408669504 now IPC :0.30550: AVG IPC :0.79717: L2-Pf-HR :0.74729: L2-HR :0.69791: (Sim:1h37m8s) 
CPU  0 inst:  328000000 cyc:  411939528 now IPC :0.30581: AVG IPC :0.79326: L2-Pf-HR :0.74569: L2-HR :0.69706: (Sim:1h37m41s) 
CPU  0 inst:  329000000 cyc:  415209717 now IPC :0.30579: AVG IPC :0.78942: L2-Pf-HR :0.74410: L2-HR :0.69621: (Sim:1h38m13s) 
CPU  0 inst:  330000000 cyc:  418480202 now IPC :0.30577: AVG IPC :0.78563: L2-Pf-HR :0.74251: L2-HR :0.69537: (Sim:1h38m44s) 
CPU  0 inst:  331000004 cyc:  421750363 now IPC :0.30580: AVG IPC :0.78190: L2-Pf-HR :0.74093: L2-HR :0.69453: (Sim:1h39m18s) 
CPU  0 inst:  332000000 cyc:  425020268 now IPC :0.30582: AVG IPC :0.77823: L2-Pf-HR :0.73935: L2-HR :0.69370: (Sim:1h39m51s) 
CPU  0 inst:  333000002 cyc:  428290590 now IPC :0.30578: AVG IPC :0.77461: L2-Pf-HR :0.73779: L2-HR :0.69287: (Sim:1h40m22s) 
CPU  0 inst:  334000000 cyc:  431562100 now IPC :0.30567: AVG IPC :0.77105: L2-Pf-HR :0.73624: L2-HR :0.69204: (Sim:1h40m54s) 
CPU  0 inst:  335000004 cyc:  434834016 now IPC :0.30563: AVG IPC :0.76754: L2-Pf-HR :0.73468: L2-HR :0.69122: (Sim:1h41m27s) 
CPU  0 inst:  336000000 cyc:  438105099 now IPC :0.30571: AVG IPC :0.76408: L2-Pf-HR :0.73314: L2-HR :0.69040: (Sim:1h42m0s) 
CPU  0 inst:  337000000 cyc:  441375038 now IPC :0.30582: AVG IPC :0.76068: L2-Pf-HR :0.73160: L2-HR :0.68959: (Sim:1h42m32s) 
CPU  0 inst:  338000000 cyc:  444645856 now IPC :0.30573: AVG IPC :0.75733: L2-Pf-HR :0.73006: L2-HR :0.68877: (Sim:1h43m3s) 
CPU  0 inst:  339000000 cyc:  447916640 now IPC :0.30574: AVG IPC :0.75402: L2-Pf-HR :0.72854: L2-HR :0.68797: (Sim:1h43m37s) 
CPU  0 inst:  340000000 cyc:  451186899 now IPC :0.30579: AVG IPC :0.75077: L2-Pf-HR :0.72701: L2-HR :0.68716: (Sim:1h44m10s) 
CPU  0 inst:  341000001 cyc:  454457283 now IPC :0.30577: AVG IPC :0.74756: L2-Pf-HR :0.72550: L2-HR :0.68636: (Sim:1h44m41s) 
CPU  0 inst:  342000001 cyc:  457730874 now IPC :0.30547: AVG IPC :0.74439: L2-Pf-HR :0.72400: L2-HR :0.68557: (Sim:1h45m12s) 
CPU  0 inst:  343000000 cyc:  461000865 now IPC :0.30581: AVG IPC :0.74127: L2-Pf-HR :0.72249: L2-HR :0.68477: (Sim:1h45m46s) 
CPU  0 inst:  344000000 cyc:  464270973 now IPC :0.30580: AVG IPC :0.73820: L2-Pf-HR :0.72100: L2-HR :0.68398: (Sim:1h46m19s) 
CPU  0 inst:  345000000 cyc:  467540900 now IPC :0.30582: AVG IPC :0.73517: L2-Pf-HR :0.71951: L2-HR :0.68320: (Sim:1h46m51s) 
CPU  0 inst:  346000000 cyc:  470810960 now IPC :0.30580: AVG IPC :0.73218: L2-Pf-HR :0.71803: L2-HR :0.68242: (Sim:1h47m23s) 
CPU  0 inst:  347000000 cyc:  474082034 now IPC :0.30571: AVG IPC :0.72923: L2-Pf-HR :0.71654: L2-HR :0.68164: (Sim:1h47m55s) 
CPU  0 inst:  348000001 cyc:  477352852 now IPC :0.30573: AVG IPC :0.72632: L2-Pf-HR :0.71508: L2-HR :0.68086: (Sim:1h48m27s) 
CPU  0 inst:  349000001 cyc:  480625110 now IPC :0.30560: AVG IPC :0.72345: L2-Pf-HR :0.71362: L2-HR :0.68009: (Sim:1h49m1s) 
CPU  0 inst:  350000000 cyc:  483896463 now IPC :0.30568: AVG IPC :0.72062: L2-Pf-HR :0.71216: L2-HR :0.67932: (Sim:1h49m32s) 
CPU  0 inst:  351000000 cyc:  487167047 now IPC :0.30576: AVG IPC :0.71783: L2-Pf-HR :0.71071: L2-HR :0.67856: (Sim:1h50m4s) 
CPU  0 inst:  352000004 cyc:  490436755 now IPC :0.30584: AVG IPC :0.71508: L2-Pf-HR :0.70926: L2-HR :0.67779: (Sim:1h50m36s) 
CPU  0 inst:  353000000 cyc:  493706467 now IPC :0.30584: AVG IPC :0.71236: L2-Pf-HR :0.70782: L2-HR :0.67704: (Sim:1h51m9s) 
CPU  0 inst:  354000000 cyc:  496976823 now IPC :0.30578: AVG IPC :0.70968: L2-Pf-HR :0.70638: L2-HR :0.67628: (Sim:1h51m41s) 
CPU  0 inst:  355000000 cyc:  500247548 now IPC :0.30574: AVG IPC :0.70704: L2-Pf-HR :0.70495: L2-HR :0.67553: (Sim:1h52m13s) 
CPU  0 inst:  356000000 cyc:  503518899 now IPC :0.30568: AVG IPC :0.70442: L2-Pf-HR :0.70353: L2-HR :0.67478: (Sim:1h52m45s) 
CPU  0 inst:  357000001 cyc:  506792454 now IPC :0.30548: AVG IPC :0.70184: L2-Pf-HR :0.70211: L2-HR :0.67404: (Sim:1h53m18s) 
CPU  0 inst:  358000000 cyc:  510062066 now IPC :0.30585: AVG IPC :0.69930: L2-Pf-HR :0.70070: L2-HR :0.67330: (Sim:1h53m50s) 
CPU  0 inst:  359000000 cyc:  513331191 now IPC :0.30589: AVG IPC :0.69679: L2-Pf-HR :0.69929: L2-HR :0.67256: (Sim:1h54m21s) 
CPU  0 inst:  360000000 cyc:  516600247 now IPC :0.30590: AVG IPC :0.69431: L2-Pf-HR :0.69789: L2-HR :0.67182: (Sim:1h54m54s) 
CPU  0 inst:  361000000 cyc:  519870911 now IPC :0.30575: AVG IPC :0.69186: L2-Pf-HR :0.69649: L2-HR :0.67109: (Sim:1h55m27s) 
CPU  0 inst:  362000000 cyc:  523141561 now IPC :0.30575: AVG IPC :0.68944: L2-Pf-HR :0.69510: L2-HR :0.67036: (Sim:1h55m59s) 
CPU  0 inst:  363000000 cyc:  526413249 now IPC :0.30565: AVG IPC :0.68705: L2-Pf-HR :0.69372: L2-HR :0.66963: (Sim:1h56m30s) 
CPU  0 inst:  364000001 cyc:  529684693 now IPC :0.30568: AVG IPC :0.68469: L2-Pf-HR :0.69234: L2-HR :0.66891: (Sim:1h57m3s) 
CPU  0 inst:  365000000 cyc:  532956606 now IPC :0.30563: AVG IPC :0.68236: L2-Pf-HR :0.69097: L2-HR :0.66819: (Sim:1h57m36s) 
CPU  0 inst:  366000000 cyc:  536226786 now IPC :0.30579: AVG IPC :0.68006: L2-Pf-HR :0.68960: L2-HR :0.66748: (Sim:1h58m9s) 
CPU  0 inst:  367000000 cyc:  539497130 now IPC :0.30578: AVG IPC :0.67779: L2-Pf-HR :0.68824: L2-HR :0.66676: (Sim:1h58m41s) 
CPU  0 inst:  368000000 cyc:  542768007 now IPC :0.30573: AVG IPC :0.67554: L2-Pf-HR :0.68688: L2-HR :0.66605: (Sim:1h59m12s) 
CPU  0 inst:  369000004 cyc:  546038679 now IPC :0.30575: AVG IPC :0.67332: L2-Pf-HR :0.68553: L2-HR :0.66534: (Sim:1h59m45s) 
CPU  0 inst:  370000000 cyc:  549309023 now IPC :0.30578: AVG IPC :0.67113: L2-Pf-HR :0.68418: L2-HR :0.66464: (Sim:2h0m18s) 
CPU  0 inst:  371000002 cyc:  552580145 now IPC :0.30571: AVG IPC :0.66896: L2-Pf-HR :0.68284: L2-HR :0.66394: (Sim:2h0m50s) 
CPU  0 inst:  372000001 cyc:  555853443 now IPC :0.30550: AVG IPC :0.66682: L2-Pf-HR :0.68151: L2-HR :0.66324: (Sim:2h1m21s) 
CPU  0 inst:  373000004 cyc:  559124050 now IPC :0.30575: AVG IPC :0.66470: L2-Pf-HR :0.68018: L2-HR :0.66254: (Sim:2h1m54s) 
CPU  0 inst:  374000000 cyc:  562394938 now IPC :0.30573: AVG IPC :0.66261: L2-Pf-HR :0.67885: L2-HR :0.66185: (Sim:2h2m27s) 
CPU  0 inst:  375000000 cyc:  565665061 now IPC :0.30580: AVG IPC :0.66054: L2-Pf-HR :0.67753: L2-HR :0.66116: (Sim:2h2m59s) 
CPU  0 inst:  376000000 cyc:  568935025 now IPC :0.30581: AVG IPC :0.65850: L2-Pf-HR :0.67622: L2-HR :0.66047: (Sim:2h3m30s) 
CPU  0 inst:  377000000 cyc:  572205292 now IPC :0.30579: AVG IPC :0.65648: L2-Pf-HR :0.67491: L2-HR :0.65979: (Sim:2h4m3s) 
CPU  0 inst:  378000002 cyc:  575476295 now IPC :0.30572: AVG IPC :0.65449: L2-Pf-HR :0.67360: L2-HR :0.65911: (Sim:2h4m36s) 
CPU  0 inst:  379000005 cyc:  578748351 now IPC :0.30562: AVG IPC :0.65251: L2-Pf-HR :0.67231: L2-HR :0.65843: (Sim:2h5m8s) 
CPU  0 inst:  380000000 cyc:  582020361 now IPC :0.30562: AVG IPC :0.65056: L2-Pf-HR :0.67101: L2-HR :0.65776: (Sim:2h5m39s) 
CPU  0 inst:  381000000 cyc:  585290552 now IPC :0.30579: AVG IPC :0.64863: L2-Pf-HR :0.66972: L2-HR :0.65708: (Sim:2h6m11s) 
CPU  0 inst:  382000000 cyc:  588561150 now IPC :0.30575: AVG IPC :0.64672: L2-Pf-HR :0.66844: L2-HR :0.65641: (Sim:2h6m44s) 
CPU  0 inst:  383000000 cyc:  591830956 now IPC :0.30583: AVG IPC :0.64483: L2-Pf-HR :0.66715: L2-HR :0.65574: (Sim:2h7m16s) 
CPU  0 inst:  384000000 cyc:  595100077 now IPC :0.30589: AVG IPC :0.64297: L2-Pf-HR :0.66588: L2-HR :0.65508: (Sim:2h7m47s) 
CPU  0 inst:  385000000 cyc:  598370670 now IPC :0.30575: AVG IPC :0.64112: L2-Pf-HR :0.66461: L2-HR :0.65442: (Sim:2h8m20s) 
CPU  0 inst:  386000001 cyc:  601642121 now IPC :0.30568: AVG IPC :0.63929: L2-Pf-HR :0.66335: L2-HR :0.65376: (Sim:2h8m53s) 
CPU  0 inst:  387000001 cyc:  604914960 now IPC :0.30555: AVG IPC :0.63749: L2-Pf-HR :0.66209: L2-HR :0.65310: (Sim:2h9m26s) 
CPU  0 inst:  388000000 cyc:  608185588 now IPC :0.30575: AVG IPC :0.63570: L2-Pf-HR :0.66083: L2-HR :0.65245: (Sim:2h9m58s) 
CPU  0 inst:  389000000 cyc:  611455643 now IPC :0.30581: AVG IPC :0.63393: L2-Pf-HR :0.65958: L2-HR :0.65180: (Sim:2h10m29s) 
CPU  0 inst:  390000004 cyc:  614724781 now IPC :0.30589: AVG IPC :0.63218: L2-Pf-HR :0.65833: L2-HR :0.65115: (Sim:2h11m1s) 
CPU  0 inst:  391000000 cyc:  617994126 now IPC :0.30587: AVG IPC :0.63046: L2-Pf-HR :0.65709: L2-HR :0.65051: (Sim:2h11m34s) 
CPU  0 inst:  392000000 cyc:  621263777 now IPC :0.30584: AVG IPC :0.62874: L2-Pf-HR :0.65585: L2-HR :0.64986: (Sim:2h12m7s) 
CPU  0 inst:  393000001 cyc:  624534651 now IPC :0.30573: AVG IPC :0.62705: L2-Pf-HR :0.65462: L2-HR :0.64922: (Sim:2h12m38s) 
CPU  0 inst:  394000001 cyc:  627808083 now IPC :0.30549: AVG IPC :0.62537: L2-Pf-HR :0.65340: L2-HR :0.64859: (Sim:2h13m10s) 
CPU  0 inst:  395000000 cyc:  631056276 now IPC :0.30786: AVG IPC :0.62373: L2-Pf-HR :0.65218: L2-HR :0.64789: (Sim:2h13m42s) 
CPU  0 inst:  396000003 cyc:  631675251 now IPC :1.61558: AVG IPC :0.62471: L2-Pf-HR :0.65255: L2-HR :0.64811: (Sim:2h14m3s) 
CPU  0 inst:  397000005 cyc:  632269655 now IPC :1.68236: AVG IPC :0.62570: L2-Pf-HR :0.65288: L2-HR :0.64837: (Sim:2h14m23s) 
CPU  0 inst:  398000000 cyc:  632860507 now IPC :1.69246: AVG IPC :0.62670: L2-Pf-HR :0.65321: L2-HR :0.64863: (Sim:2h14m43s) 
CPU  0 inst:  399000005 cyc:  633470002 now IPC :1.64071: AVG IPC :0.62768: L2-Pf-HR :0.65348: L2-HR :0.64885: (Sim:2h15m3s) 
CPU  0 inst:  400000004 cyc:  634069337 now IPC :1.66851: AVG IPC :0.62866: L2-Pf-HR :0.65400: L2-HR :0.64913: (Sim:2h15m24s) 
CPU  0 inst:  401000004 cyc:  634631523 now IPC :1.77877: AVG IPC :0.62968: L2-Pf-HR :0.65447: L2-HR :0.64947: (Sim:2h15m43s) 
CPU  0 inst:  402000005 cyc:  635192120 now IPC :1.78381: AVG IPC :0.63070: L2-Pf-HR :0.65494: L2-HR :0.64979: (Sim:2h16m4s) 
CPU  0 inst:  403000001 cyc:  635748459 now IPC :1.79746: AVG IPC :0.63173: L2-Pf-HR :0.65540: L2-HR :0.65012: (Sim:2h16m24s) 
CPU  0 inst:  404000000 cyc:  636344085 now IPC :1.67890: AVG IPC :0.63271: L2-Pf-HR :0.65582: L2-HR :0.65041: (Sim:2h16m45s) 
CPU  0 inst:  405000005 cyc:  636894886 now IPC :1.81555: AVG IPC :0.63373: L2-Pf-HR :0.65628: L2-HR :0.65073: (Sim:2h17m5s) 
CPU  0 inst:  406000001 cyc:  637442877 now IPC :1.82484: AVG IPC :0.63476: L2-Pf-HR :0.65675: L2-HR :0.65105: (Sim:2h17m24s) 
CPU  0 inst:  407000000 cyc:  637990479 now IPC :1.82614: AVG IPC :0.63578: L2-Pf-HR :0.65720: L2-HR :0.65138: (Sim:2h17m44s) 
CPU  0 inst:  408000004 cyc:  638571674 now IPC :1.72060: AVG IPC :0.63677: L2-Pf-HR :0.65753: L2-HR :0.65164: (Sim:2h18m4s) 
CPU  0 inst:  409000003 cyc:  639131024 now IPC :1.78779: AVG IPC :0.63778: L2-Pf-HR :0.65801: L2-HR :0.65196: (Sim:2h18m25s) 
CPU  0 inst:  410000003 cyc:  639689335 now IPC :1.79112: AVG IPC :0.63879: L2-Pf-HR :0.65848: L2-HR :0.65229: (Sim:2h18m44s) 
CPU  0 inst:  411000002 cyc:  640249134 now IPC :1.78635: AVG IPC :0.63979: L2-Pf-HR :0.65894: L2-HR :0.65261: (Sim:2h19m5s) 
CPU  0 inst:  412000003 cyc:  640856547 now IPC :1.64633: AVG IPC :0.64075: L2-Pf-HR :0.65923: L2-HR :0.65286: (Sim:2h19m25s) 
CPU  0 inst:  413000002 cyc:  641443081 now IPC :1.70493: AVG IPC :0.64172: L2-Pf-HR :0.65953: L2-HR :0.65308: (Sim:2h19m45s) 
CPU  0 inst:  414000005 cyc:  642030547 now IPC :1.70223: AVG IPC :0.64269: L2-Pf-HR :0.65982: L2-HR :0.65331: (Sim:2h20m5s) 
CPU  0 inst:  415000003 cyc:  642621062 now IPC :1.69343: AVG IPC :0.64366: L2-Pf-HR :0.66005: L2-HR :0.65351: (Sim:2h20m25s) 
CPU  0 inst:  416000003 cyc:  643218349 now IPC :1.67424: AVG IPC :0.64462: L2-Pf-HR :0.66032: L2-HR :0.65376: (Sim:2h20m46s) 
CPU  0 inst:  417000001 cyc:  643774483 now IPC :1.79812: AVG IPC :0.64562: L2-Pf-HR :0.66072: L2-HR :0.65405: (Sim:2h21m6s) 
CPU  0 inst:  418000003 cyc:  644336172 now IPC :1.78035: AVG IPC :0.64661: L2-Pf-HR :0.66107: L2-HR :0.65433: (Sim:2h21m26s) 
CPU  0 inst:  419000005 cyc:  644895660 now IPC :1.78735: AVG IPC :0.64760: L2-Pf-HR :0.66141: L2-HR :0.65462: (Sim:2h21m46s) 
CPU  0 inst:  420000004 cyc:  645454608 now IPC :1.78907: AVG IPC :0.64859: L2-Pf-HR :0.66185: L2-HR :0.65495: (Sim:2h22m6s) 
CPU  0 inst:  421000002 cyc:  646012892 now IPC :1.79120: AVG IPC :0.64958: L2-Pf-HR :0.66223: L2-HR :0.65524: (Sim:2h22m26s) 
CPU  0 inst:  422000001 cyc:  646551212 now IPC :1.85763: AVG IPC :0.65059: L2-Pf-HR :0.66263: L2-HR :0.65554: (Sim:2h22m46s) 
CPU  0 inst:  423000003 cyc:  647087382 now IPC :1.86508: AVG IPC :0.65159: L2-Pf-HR :0.66307: L2-HR :0.65586: (Sim:2h23m6s) 
CPU  0 inst:  424000002 cyc:  647626807 now IPC :1.85382: AVG IPC :0.65260: L2-Pf-HR :0.66343: L2-HR :0.65614: (Sim:2h23m26s) 
CPU  0 inst:  425000001 cyc:  648191032 now IPC :1.77234: AVG IPC :0.65357: L2-Pf-HR :0.66381: L2-HR :0.65644: (Sim:2h23m46s) 
CPU  0 inst:  426000005 cyc:  648751232 now IPC :1.78508: AVG IPC :0.65455: L2-Pf-HR :0.66421: L2-HR :0.65672: (Sim:2h24m7s) 
CPU  0 inst:  427000005 cyc:  649308037 now IPC :1.79596: AVG IPC :0.65553: L2-Pf-HR :0.66465: L2-HR :0.65703: (Sim:2h24m27s) 
CPU  0 inst:  428000005 cyc:  649860394 now IPC :1.81042: AVG IPC :0.65652: L2-Pf-HR :0.66506: L2-HR :0.65733: (Sim:2h24m47s) 
CPU  0 inst:  429000003 cyc:  650450209 now IPC :1.69544: AVG IPC :0.65746: L2-Pf-HR :0.66528: L2-HR :0.65754: (Sim:2h25m7s) 
CPU  0 inst:  430000005 cyc:  651018869 now IPC :1.75852: AVG IPC :0.65842: L2-Pf-HR :0.66555: L2-HR :0.65775: (Sim:2h25m27s) 
CPU  0 inst:  431000000 cyc:  651589992 now IPC :1.75093: AVG IPC :0.65938: L2-Pf-HR :0.66580: L2-HR :0.65796: (Sim:2h25m47s) 
CPU  0 inst:  432000000 cyc:  652162497 now IPC :1.74671: AVG IPC :0.66034: L2-Pf-HR :0.66605: L2-HR :0.65818: (Sim:2h26m7s) 
CPU  0 inst:  433000002 cyc:  652736854 now IPC :1.74108: AVG IPC :0.66129: L2-Pf-HR :0.66628: L2-HR :0.65839: (Sim:2h26m27s) 
CPU  0 inst:  434000002 cyc:  653282712 now IPC :1.83198: AVG IPC :0.66227: L2-Pf-HR :0.66667: L2-HR :0.65868: (Sim:2h26m47s) 
CPU  0 inst:  435000005 cyc:  653826904 now IPC :1.83759: AVG IPC :0.66325: L2-Pf-HR :0.66705: L2-HR :0.65899: (Sim:2h27m7s) 
CPU  0 inst:  436000004 cyc:  654372144 now IPC :1.83405: AVG IPC :0.66423: L2-Pf-HR :0.66742: L2-HR :0.65928: (Sim:2h27m27s) 
CPU  0 inst:  437000005 cyc:  654929146 now IPC :1.79533: AVG IPC :0.66519: L2-Pf-HR :0.66771: L2-HR :0.65955: (Sim:2h27m47s) 
CPU  0 inst:  438000003 cyc:  655451721 now IPC :1.91360: AVG IPC :0.66619: L2-Pf-HR :0.66812: L2-HR :0.65984: (Sim:2h28m7s) 
CPU  0 inst:  439000002 cyc:  655977149 now IPC :1.90321: AVG IPC :0.66718: L2-Pf-HR :0.66851: L2-HR :0.66014: (Sim:2h28m27s) 
CPU  0 inst:  440000002 cyc:  656501030 now IPC :1.90883: AVG IPC :0.66817: L2-Pf-HR :0.66891: L2-HR :0.66044: (Sim:2h28m46s) 
CPU  0 inst:  441000001 cyc:  657040622 now IPC :1.85325: AVG IPC :0.66915: L2-Pf-HR :0.66919: L2-HR :0.66069: (Sim:2h29m6s) 
CPU  0 inst:  442000005 cyc:  657581939 now IPC :1.84735: AVG IPC :0.67012: L2-Pf-HR :0.66956: L2-HR :0.66097: (Sim:2h29m27s) 
CPU  0 inst:  443000005 cyc:  658126439 now IPC :1.83655: AVG IPC :0.67108: L2-Pf-HR :0.66995: L2-HR :0.66126: (Sim:2h29m47s) 
CPU  0 inst:  444000004 cyc:  658672696 now IPC :1.83064: AVG IPC :0.67205: L2-Pf-HR :0.67033: L2-HR :0.66155: (Sim:2h30m6s) 
CPU  0 inst:  445000001 cyc:  659226954 now IPC :1.80421: AVG IPC :0.67300: L2-Pf-HR :0.67066: L2-HR :0.66181: (Sim:2h30m26s) 
CPU  0 inst:  446000002 cyc:  659809884 now IPC :1.71547: AVG IPC :0.67392: L2-Pf-HR :0.67087: L2-HR :0.66200: (Sim:2h30m42s) 
CPU  0 inst:  447000004 cyc:  660381311 now IPC :1.75001: AVG IPC :0.67485: L2-Pf-HR :0.67111: L2-HR :0.66220: (Sim:2h30m53s) 
CPU  0 inst:  448000000 cyc:  660952464 now IPC :1.75084: AVG IPC :0.67579: L2-Pf-HR :0.67134: L2-HR :0.66240: (Sim:2h31m2s) 
CPU  0 inst:  449000002 cyc:  661528910 now IPC :1.73477: AVG IPC :0.67671: L2-Pf-HR :0.67150: L2-HR :0.66256: (Sim:2h31m11s) 
CPU  0 inst:  450000004 cyc:  662087555 now IPC :1.79005: AVG IPC :0.67765: L2-Pf-HR :0.67179: L2-HR :0.66281: (Sim:2h31m21s) 
CPU  0 inst:  451000003 cyc:  662634804 now IPC :1.82732: AVG IPC :0.67860: L2-Pf-HR :0.67215: L2-HR :0.66309: (Sim:2h31m30s) 
CPU  0 inst:  452000002 cyc:  663185632 now IPC :1.81545: AVG IPC :0.67955: L2-Pf-HR :0.67247: L2-HR :0.66335: (Sim:2h31m39s) 
CPU  0 inst:  453000002 cyc:  663736032 now IPC :1.81686: AVG IPC :0.68049: L2-Pf-HR :0.67278: L2-HR :0.66361: (Sim:2h31m48s) 
CPU  0 inst:  454000005 cyc:  664278890 now IPC :1.84211: AVG IPC :0.68144: L2-Pf-HR :0.67315: L2-HR :0.66391: (Sim:2h31m57s) 
CPU  0 inst:  455000005 cyc:  664810724 now IPC :1.88029: AVG IPC :0.68240: L2-Pf-HR :0.67347: L2-HR :0.66416: (Sim:2h32m6s) 
CPU  0 inst:  456000004 cyc:  665341633 now IPC :1.88356: AVG IPC :0.68336: L2-Pf-HR :0.67379: L2-HR :0.66443: (Sim:2h32m15s) 
CPU  0 inst:  457000002 cyc:  665874608 now IPC :1.87626: AVG IPC :0.68432: L2-Pf-HR :0.67412: L2-HR :0.66469: (Sim:2h32m24s) 
CPU  0 inst:  458000003 cyc:  666415952 now IPC :1.84726: AVG IPC :0.68526: L2-Pf-HR :0.67444: L2-HR :0.66497: (Sim:2h32m33s) 
CPU  0 inst:  459000005 cyc:  666959904 now IPC :1.83840: AVG IPC :0.68621: L2-Pf-HR :0.67475: L2-HR :0.66521: (Sim:2h32m42s) 
CPU  0 inst:  460000000 cyc:  667508718 now IPC :1.82210: AVG IPC :0.68714: L2-Pf-HR :0.67508: L2-HR :0.66547: (Sim:2h32m51s) 
CPU  0 inst:  461000003 cyc:  668054911 now IPC :1.83086: AVG IPC :0.68808: L2-Pf-HR :0.67546: L2-HR :0.66575: (Sim:2h33m1s) 
CPU  0 inst:  462000003 cyc:  668621045 now IPC :1.76637: AVG IPC :0.68899: L2-Pf-HR :0.67575: L2-HR :0.66601: (Sim:2h33m10s) 
CPU  0 inst:  463000005 cyc:  669199418 now IPC :1.72899: AVG IPC :0.68989: L2-Pf-HR :0.67591: L2-HR :0.66616: (Sim:2h33m19s) 
CPU  0 inst:  464000004 cyc:  669771587 now IPC :1.74773: AVG IPC :0.69080: L2-Pf-HR :0.67612: L2-HR :0.66635: (Sim:2h33m28s) 
CPU  0 inst:  465000002 cyc:  670343474 now IPC :1.74859: AVG IPC :0.69170: L2-Pf-HR :0.67633: L2-HR :0.66654: (Sim:2h33m37s) 
CPU  0 inst:  466000004 cyc:  670928631 now IPC :1.70895: AVG IPC :0.69259: L2-Pf-HR :0.67644: L2-HR :0.66668: (Sim:2h33m46s) 
CPU  0 inst:  467000001 cyc:  671473229 now IPC :1.83621: AVG IPC :0.69352: L2-Pf-HR :0.67674: L2-HR :0.66693: (Sim:2h33m56s) 
CPU  0 inst:  468000001 cyc:  672022333 now IPC :1.82115: AVG IPC :0.69444: L2-Pf-HR :0.67705: L2-HR :0.66720: (Sim:2h34m5s) 
CPU  0 inst:  469000002 cyc:  672568573 now IPC :1.83070: AVG IPC :0.69537: L2-Pf-HR :0.67736: L2-HR :0.66746: (Sim:2h34m14s) 
CPU  0 inst:  470000001 cyc:  673124670 now IPC :1.79825: AVG IPC :0.69628: L2-Pf-HR :0.67760: L2-HR :0.66770: (Sim:2h34m23s) 
CPU  0 inst:  471000001 cyc:  673653888 now IPC :1.88958: AVG IPC :0.69722: L2-Pf-HR :0.67792: L2-HR :0.66797: (Sim:2h34m33s) 
CPU  0 inst:  472000005 cyc:  674177835 now IPC :1.90860: AVG IPC :0.69816: L2-Pf-HR :0.67828: L2-HR :0.66825: (Sim:2h34m42s) 
CPU  0 inst:  473000004 cyc:  674698930 now IPC :1.91903: AVG IPC :0.69910: L2-Pf-HR :0.67863: L2-HR :0.66853: (Sim:2h34m51s) 
CPU  0 inst:  474000000 cyc:  675224198 now IPC :1.90378: AVG IPC :0.70004: L2-Pf-HR :0.67898: L2-HR :0.66881: (Sim:2h35m0s) 
CPU  0 inst:  475000005 cyc:  675769999 now IPC :1.83218: AVG IPC :0.70096: L2-Pf-HR :0.67919: L2-HR :0.66902: (Sim:2h35m9s) 
CPU  0 inst:  476000005 cyc:  676313508 now IPC :1.83990: AVG IPC :0.70188: L2-Pf-HR :0.67951: L2-HR :0.66927: (Sim:2h35m18s) 
CPU  0 inst:  477000005 cyc:  676854993 now IPC :1.84677: AVG IPC :0.70279: L2-Pf-HR :0.67984: L2-HR :0.66953: (Sim:2h35m28s) 
CPU  0 inst:  478000000 cyc:  677407749 now IPC :1.80911: AVG IPC :0.70370: L2-Pf-HR :0.68017: L2-HR :0.66979: (Sim:2h35m37s) 
CPU  0 inst:  479000000 cyc:  677985076 now IPC :1.73212: AVG IPC :0.70457: L2-Pf-HR :0.68035: L2-HR :0.66997: (Sim:2h35m46s) 
CPU  0 inst:  480000005 cyc:  678556678 now IPC :1.74948: AVG IPC :0.70545: L2-Pf-HR :0.68054: L2-HR :0.67014: (Sim:2h35m57s) 
CPU  0 inst:  481000004 cyc:  679127985 now IPC :1.75037: AVG IPC :0.70634: L2-Pf-HR :0.68073: L2-HR :0.67032: (Sim:2h36m6s) 
CPU  0 inst:  482000001 cyc:  679699017 now IPC :1.75121: AVG IPC :0.70721: L2-Pf-HR :0.68090: L2-HR :0.67049: (Sim:2h36m15s) 
CPU  0 inst:  483000000 cyc:  680278442 now IPC :1.72585: AVG IPC :0.70808: L2-Pf-HR :0.68103: L2-HR :0.67067: (Sim:2h36m25s) 
CPU  0 inst:  484000005 cyc:  680827093 now IPC :1.82266: AVG IPC :0.70898: L2-Pf-HR :0.68132: L2-HR :0.67092: (Sim:2h36m46s) 
CPU  0 inst:  485000003 cyc:  681377615 now IPC :1.81645: AVG IPC :0.70988: L2-Pf-HR :0.68161: L2-HR :0.67117: (Sim:2h37m8s) 
CPU  0 inst:  486000000 cyc:  681929650 now IPC :1.81147: AVG IPC :0.71077: L2-Pf-HR :0.68185: L2-HR :0.67141: (Sim:2h37m29s) 
CPU  0 inst:  487000003 cyc:  682485935 now IPC :1.79765: AVG IPC :0.71166: L2-Pf-HR :0.68212: L2-HR :0.67166: (Sim:2h37m50s) 
CPU  0 inst:  488000002 cyc:  683009777 now IPC :1.90897: AVG IPC :0.71258: L2-Pf-HR :0.68241: L2-HR :0.67190: (Sim:2h38m11s) 
CPU  0 inst:  489000000 cyc:  683536651 now IPC :1.89798: AVG IPC :0.71349: L2-Pf-HR :0.68270: L2-HR :0.67214: (Sim:2h38m32s) 
CPU  0 inst:  490000005 cyc:  684061259 now IPC :1.90619: AVG IPC :0.71441: L2-Pf-HR :0.68297: L2-HR :0.67237: (Sim:2h38m53s) 
CPU  0 inst:  491000005 cyc:  684583061 now IPC :1.91644: AVG IPC :0.71533: L2-Pf-HR :0.68329: L2-HR :0.67264: (Sim:2h39m14s) 
CPU  0 inst:  492000000 cyc:  685137765 now IPC :1.80275: AVG IPC :0.71621: L2-Pf-HR :0.68351: L2-HR :0.67284: (Sim:2h39m35s) 
CPU  0 inst:  493000001 cyc:  685686293 now IPC :1.82306: AVG IPC :0.71710: L2-Pf-HR :0.68378: L2-HR :0.67306: (Sim:2h39m56s) 
CPU  0 inst:  494000002 cyc:  686236690 now IPC :1.81687: AVG IPC :0.71798: L2-Pf-HR :0.68407: L2-HR :0.67329: (Sim:2h40m17s) 
CPU  0 inst:  495000002 cyc:  686790179 now IPC :1.80672: AVG IPC :0.71886: L2-Pf-HR :0.68432: L2-HR :0.67351: (Sim:2h40m38s) 
CPU  0 inst:  496000002 cyc:  687366830 now IPC :1.73415: AVG IPC :0.71971: L2-Pf-HR :0.68452: L2-HR :0.67371: (Sim:2h41m0s) 
CPU  0 inst:  497000001 cyc:  687943507 now IPC :1.73407: AVG IPC :0.72056: L2-Pf-HR :0.68464: L2-HR :0.67385: (Sim:2h41m21s) 
CPU  0 inst:  498000003 cyc:  688514889 now IPC :1.75015: AVG IPC :0.72142: L2-Pf-HR :0.68481: L2-HR :0.67402: (Sim:2h41m42s) 
CPU  0 inst:  499000003 cyc:  689087152 now IPC :1.74745: AVG IPC :0.72227: L2-Pf-HR :0.68498: L2-HR :0.67419: (Sim:2h42m3s) 
CPU  0 inst:  500000001 cyc:  689657247 now IPC :1.75409: AVG IPC :0.72312: L2-Pf-HR :0.68513: L2-HR :0.67436: (Sim:2h42m25s) 
CPU  0 inst:  501000000 cyc:  690203592 now IPC :1.83034: AVG IPC :0.72400: L2-Pf-HR :0.68541: L2-HR :0.67459: (Sim:2h42m46s) 
CPU  0 inst:  502000004 cyc:  690751703 now IPC :1.82446: AVG IPC :0.72488: L2-Pf-HR :0.68568: L2-HR :0.67483: (Sim:2h43m7s) 
CPU  0 inst:  503000003 cyc:  691296897 now IPC :1.83421: AVG IPC :0.72575: L2-Pf-HR :0.68594: L2-HR :0.67506: (Sim:2h43m28s) 
CPU  0 inst:  504000002 cyc:  691848186 now IPC :1.81393: AVG IPC :0.72662: L2-Pf-HR :0.68613: L2-HR :0.67526: (Sim:2h43m49s) 
CPU  0 inst:  505000004 cyc:  692372164 now IPC :1.90848: AVG IPC :0.72752: L2-Pf-HR :0.68642: L2-HR :0.67550: (Sim:2h44m10s) 
CPU  0 inst:  506000002 cyc:  692902263 now IPC :1.88644: AVG IPC :0.72841: L2-Pf-HR :0.68672: L2-HR :0.67575: (Sim:2h44m31s) 
CPU  0 inst:  507000004 cyc:  693427307 now IPC :1.90461: AVG IPC :0.72930: L2-Pf-HR :0.68701: L2-HR :0.67600: (Sim:2h44m52s) 
CPU  0 inst:  508000002 cyc:  693973903 now IPC :1.82950: AVG IPC :0.73016: L2-Pf-HR :0.68719: L2-HR :0.67619: (Sim:2h45m14s) 
CPU  0 inst:  509000000 cyc:  694514683 now IPC :1.84918: AVG IPC :0.73104: L2-Pf-HR :0.68747: L2-HR :0.67641: (Sim:2h45m35s) 
CPU  0 inst:  510000002 cyc:  695056842 now IPC :1.84448: AVG IPC :0.73191: L2-Pf-HR :0.68776: L2-HR :0.67664: (Sim:2h45m56s) 
CPU  0 inst:  511000003 cyc:  695603038 now IPC :1.83085: AVG IPC :0.73277: L2-Pf-HR :0.68804: L2-HR :0.67687: (Sim:2h46m17s) 
CPU  0 inst:  512000001 cyc:  696173257 now IPC :1.75371: AVG IPC :0.73361: L2-Pf-HR :0.68823: L2-HR :0.67706: (Sim:2h46m38s) 
CPU  0 inst:  513000002 cyc:  696744377 now IPC :1.75095: AVG IPC :0.73444: L2-Pf-HR :0.68839: L2-HR :0.67722: (Sim:2h46m59s) 
CPU  0 inst:  514000004 cyc:  697319808 now IPC :1.73783: AVG IPC :0.73527: L2-Pf-HR :0.68854: L2-HR :0.67737: (Sim:2h47m21s) 
CPU  0 inst:  515000001 cyc:  697890637 now IPC :1.75183: AVG IPC :0.73611: L2-Pf-HR :0.68870: L2-HR :0.67753: (Sim:2h47m42s) 
CPU  0 inst:  516000001 cyc:  698470862 now IPC :1.72347: AVG IPC :0.73693: L2-Pf-HR :0.68880: L2-HR :0.67766: (Sim:2h48m3s) 
CPU  0 inst:  517000003 cyc:  699024063 now IPC :1.80766: AVG IPC :0.73778: L2-Pf-HR :0.68902: L2-HR :0.67787: (Sim:2h48m24s) 
CPU  0 inst:  518000003 cyc:  699570172 now IPC :1.83114: AVG IPC :0.73863: L2-Pf-HR :0.68927: L2-HR :0.67810: (Sim:2h48m46s) 
CPU  0 inst:  519000003 cyc:  700122380 now IPC :1.81091: AVG IPC :0.73948: L2-Pf-HR :0.68951: L2-HR :0.67832: (Sim:2h49m7s) 
CPU  0 inst:  520000003 cyc:  700674738 now IPC :1.81042: AVG IPC :0.74032: L2-Pf-HR :0.68970: L2-HR :0.67851: (Sim:2h49m28s) 
CPU  0 inst:  521000000 cyc:  701215992 now IPC :1.84756: AVG IPC :0.74118: L2-Pf-HR :0.68994: L2-HR :0.67873: (Sim:2h49m49s) 
CPU  0 inst:  522000005 cyc:  701738907 now IPC :1.91237: AVG IPC :0.74205: L2-Pf-HR :0.69022: L2-HR :0.67897: (Sim:2h50m10s) 
CPU  0 inst:  523000001 cyc:  702267141 now IPC :1.89309: AVG IPC :0.74292: L2-Pf-HR :0.69046: L2-HR :0.67919: (Sim:2h50m31s) 
CPU  0 inst:  524000000 cyc:  702795344 now IPC :1.89321: AVG IPC :0.74379: L2-Pf-HR :0.69069: L2-HR :0.67941: (Sim:2h50m52s) 
CPU  0 inst:  525000004 cyc:  703343130 now IPC :1.82554: AVG IPC :0.74463: L2-Pf-HR :0.69090: L2-HR :0.67962: (Sim:2h51m13s) 
CPU  0 inst:  526000000 cyc:  703889080 now IPC :1.83166: AVG IPC :0.74547: L2-Pf-HR :0.69114: L2-HR :0.67982: (Sim:2h51m35s) 
CPU  0 inst:  527000002 cyc:  704442554 now IPC :1.80677: AVG IPC :0.74631: L2-Pf-HR :0.69138: L2-HR :0.68003: (Sim:2h51m56s) 
CPU  0 inst:  528000002 cyc:  704991378 now IPC :1.82208: AVG IPC :0.74715: L2-Pf-HR :0.69164: L2-HR :0.68025: (Sim:2h52m17s) 
CPU  0 inst:  529000003 cyc:  705556985 now IPC :1.76801: AVG IPC :0.74797: L2-Pf-HR :0.69184: L2-HR :0.68045: (Sim:2h52m38s) 
CPU  0 inst:  530000001 cyc:  706133258 now IPC :1.73529: AVG IPC :0.74877: L2-Pf-HR :0.69193: L2-HR :0.68056: (Sim:2h52m57s) 
CPU  0 inst:  531000003 cyc:  706709562 now IPC :1.73520: AVG IPC :0.74958: L2-Pf-HR :0.69204: L2-HR :0.68069: (Sim:2h53m17s) 
CPU  0 inst:  532000002 cyc:  707281194 now IPC :1.74938: AVG IPC :0.75039: L2-Pf-HR :0.69218: L2-HR :0.68084: (Sim:2h53m38s) 
CPU  0 inst:  533000004 cyc:  707856593 now IPC :1.73793: AVG IPC :0.75119: L2-Pf-HR :0.69228: L2-HR :0.68098: (Sim:2h53m59s) 
CPU  0 inst:  534000004 cyc:  708401934 now IPC :1.83372: AVG IPC :0.75203: L2-Pf-HR :0.69249: L2-HR :0.68118: (Sim:2h54m20s) 
CPU  0 inst:  535000001 cyc:  708950985 now IPC :1.82132: AVG IPC :0.75286: L2-Pf-HR :0.69271: L2-HR :0.68140: (Sim:2h54m37s) 
CPU  0 inst:  536000003 cyc:  709503421 now IPC :1.81017: AVG IPC :0.75368: L2-Pf-HR :0.69293: L2-HR :0.68162: (Sim:2h54m46s) 
CPU  0 inst:  537000003 cyc:  710062873 now IPC :1.78746: AVG IPC :0.75450: L2-Pf-HR :0.69308: L2-HR :0.68180: (Sim:2h54m56s) 
CPU  0 inst:  538000003 cyc:  710580420 now IPC :1.93219: AVG IPC :0.75535: L2-Pf-HR :0.69335: L2-HR :0.68203: (Sim:2h55m5s) 
CPU  0 inst:  539000005 cyc:  711101182 now IPC :1.92027: AVG IPC :0.75621: L2-Pf-HR :0.69362: L2-HR :0.68227: (Sim:2h55m14s) 
CPU  0 inst:  540000001 cyc:  711619428 now IPC :1.92958: AVG IPC :0.75706: L2-Pf-HR :0.69390: L2-HR :0.68251: (Sim:2h55m24s) 
CPU  0 inst:  541000004 cyc:  712142196 now IPC :1.91290: AVG IPC :0.75791: L2-Pf-HR :0.69410: L2-HR :0.68270: (Sim:2h55m33s) 
CPU  0 inst:  542000005 cyc:  712692834 now IPC :1.81608: AVG IPC :0.75873: L2-Pf-HR :0.69429: L2-HR :0.68288: (Sim:2h55m43s) 
CPU  0 inst:  543000000 cyc:  713234348 now IPC :1.84667: AVG IPC :0.75956: L2-Pf-HR :0.69454: L2-HR :0.68309: (Sim:2h55m55s) 
CPU  0 inst:  544000004 cyc:  713779850 now IPC :1.83318: AVG IPC :0.76038: L2-Pf-HR :0.69480: L2-HR :0.68331: (Sim:2h56m4s) 
CPU  0 inst:  545000002 cyc:  714326084 now IPC :1.83071: AVG IPC :0.76120: L2-Pf-HR :0.69505: L2-HR :0.68352: (Sim:2h56m15s) 
CPU  0 inst:  546000002 cyc:  714908596 now IPC :1.71670: AVG IPC :0.76198: L2-Pf-HR :0.69514: L2-HR :0.68365: (Sim:2h56m24s) 
CPU  0 inst:  547000004 cyc:  715479052 now IPC :1.75299: AVG IPC :0.76277: L2-Pf-HR :0.69527: L2-HR :0.68378: (Sim:2h56m33s) 
CPU  0 inst:  548000002 cyc:  716052048 now IPC :1.74521: AVG IPC :0.76356: L2-Pf-HR :0.69540: L2-HR :0.68392: (Sim:2h56m43s) 
CPU  0 inst:  549000005 cyc:  716624140 now IPC :1.74798: AVG IPC :0.76435: L2-Pf-HR :0.69552: L2-HR :0.68406: (Sim:2h56m52s) 
CPU  0 inst:  550000005 cyc:  717193583 now IPC :1.75610: AVG IPC :0.76513: L2-Pf-HR :0.69561: L2-HR :0.68419: (Sim:2h57m2s) 
CPU  0 inst:  551000001 cyc:  717740181 now IPC :1.82949: AVG IPC :0.76595: L2-Pf-HR :0.69582: L2-HR :0.68438: (Sim:2h57m11s) 
CPU  0 inst:  552000005 cyc:  718286482 now IPC :1.83050: AVG IPC :0.76676: L2-Pf-HR :0.69603: L2-HR :0.68458: (Sim:2h57m20s) 
CPU  0 inst:  553000000 cyc:  718837458 now IPC :1.81495: AVG IPC :0.76756: L2-Pf-HR :0.69623: L2-HR :0.68478: (Sim:2h57m30s) 
CPU  0 inst:  554000000 cyc:  719388120 now IPC :1.81600: AVG IPC :0.76837: L2-Pf-HR :0.69638: L2-HR :0.68495: (Sim:2h57m39s) 
CPU  0 inst:  555000002 cyc:  719909717 now IPC :1.91719: AVG IPC :0.76920: L2-Pf-HR :0.69662: L2-HR :0.68517: (Sim:2h57m48s) 
CPU  0 inst:  556000003 cyc:  720432933 now IPC :1.91126: AVG IPC :0.77003: L2-Pf-HR :0.69687: L2-HR :0.68539: (Sim:2h57m58s) 
CPU  0 inst:  557000001 cyc:  720961047 now IPC :1.89353: AVG IPC :0.77085: L2-Pf-HR :0.69708: L2-HR :0.68559: (Sim:2h58m7s) 
CPU  0 inst:  558000000 cyc:  721497785 now IPC :1.86310: AVG IPC :0.77167: L2-Pf-HR :0.69725: L2-HR :0.68578: (Sim:2h58m17s) 
CPU  0 inst:  559000001 cyc:  722041487 now IPC :1.83924: AVG IPC :0.77247: L2-Pf-HR :0.69746: L2-HR :0.68596: (Sim:2h58m26s) 
CPU  0 inst:  560000005 cyc:  722588476 now IPC :1.82820: AVG IPC :0.77327: L2-Pf-HR :0.69767: L2-HR :0.68615: (Sim:2h58m35s) 
CPU  0 inst:  561000002 cyc:  723141558 now IPC :1.80804: AVG IPC :0.77406: L2-Pf-HR :0.69787: L2-HR :0.68633: (Sim:2h58m49s) 
CPU  0 inst:  562000002 cyc:  723687619 now IPC :1.83130: AVG IPC :0.77486: L2-Pf-HR :0.69812: L2-HR :0.68655: (Sim:2h59m10s) 
CPU  0 inst:  563000003 cyc:  724270826 now IPC :1.71466: AVG IPC :0.77562: L2-Pf-HR :0.69819: L2-HR :0.68666: (Sim:2h59m30s) 
CPU  0 inst:  564000000 cyc:  724851484 now IPC :1.72218: AVG IPC :0.77638: L2-Pf-HR :0.69826: L2-HR :0.68676: (Sim:2h59m51s) 
CPU  0 inst:  565000000 cyc:  725430278 now IPC :1.72773: AVG IPC :0.77714: L2-Pf-HR :0.69836: L2-HR :0.68688: (Sim:3h0m13s) 
CPU  0 inst:  566000005 cyc:  726007512 now IPC :1.73241: AVG IPC :0.77790: L2-Pf-HR :0.69843: L2-HR :0.68698: (Sim:3h0m34s) 
CPU  0 inst:  567000003 cyc:  726555529 now IPC :1.82476: AVG IPC :0.77869: L2-Pf-HR :0.69860: L2-HR :0.68717: (Sim:3h0m55s) 
CPU  0 inst:  568000003 cyc:  727105686 now IPC :1.81766: AVG IPC :0.77948: L2-Pf-HR :0.69879: L2-HR :0.68736: (Sim:3h1m16s) 
CPU  0 inst:  569000003 cyc:  727655478 now IPC :1.81887: AVG IPC :0.78027: L2-Pf-HR :0.69899: L2-HR :0.68755: (Sim:3h1m37s) 
CPU  0 inst:  570000005 cyc:  728198314 now IPC :1.84218: AVG IPC :0.78106: L2-Pf-HR :0.69918: L2-HR :0.68774: (Sim:3h1m58s) 
CPU  0 inst:  571000001 cyc:  728738735 now IPC :1.85040: AVG IPC :0.78185: L2-Pf-HR :0.69932: L2-HR :0.68792: (Sim:3h2m19s) 
CPU  0 inst:  572000000 cyc:  729262855 now IPC :1.90796: AVG IPC :0.78266: L2-Pf-HR :0.69955: L2-HR :0.68812: (Sim:3h2m39s) 
CPU  0 inst:  573000001 cyc:  729786387 now IPC :1.91010: AVG IPC :0.78347: L2-Pf-HR :0.69978: L2-HR :0.68833: (Sim:3h3m0s) 
CPU  0 inst:  574000004 cyc:  730308955 now IPC :1.91363: AVG IPC :0.78428: L2-Pf-HR :0.69999: L2-HR :0.68853: (Sim:3h3m21s) 
CPU  0 inst:  575000005 cyc:  730852669 now IPC :1.83920: AVG IPC :0.78507: L2-Pf-HR :0.70010: L2-HR :0.68868: (Sim:3h3m41s) 
CPU  0 inst:  576000004 cyc:  731396984 now IPC :1.83717: AVG IPC :0.78585: L2-Pf-HR :0.70031: L2-HR :0.68886: (Sim:3h4m2s) 
CPU  0 inst:  577000002 cyc:  731942382 now IPC :1.83352: AVG IPC :0.78663: L2-Pf-HR :0.70053: L2-HR :0.68904: (Sim:3h4m23s) 
CPU  0 inst:  578000000 cyc:  732489295 now IPC :1.82844: AVG IPC :0.78741: L2-Pf-HR :0.70075: L2-HR :0.68924: (Sim:3h4m44s) 
CPU  0 inst:  579000005 cyc:  733059300 now IPC :1.75438: AVG IPC :0.78817: L2-Pf-HR :0.70086: L2-HR :0.68938: (Sim:3h5m5s) 
CPU  0 inst:  580000001 cyc:  733632777 now IPC :1.74374: AVG IPC :0.78891: L2-Pf-HR :0.70097: L2-HR :0.68950: (Sim:3h5m26s) 
CPU  0 inst:  581000005 cyc:  734202072 now IPC :1.75657: AVG IPC :0.78966: L2-Pf-HR :0.70108: L2-HR :0.68962: (Sim:3h5m47s) 
CPU  0 inst:  582000002 cyc:  734778036 now IPC :1.73621: AVG IPC :0.79041: L2-Pf-HR :0.70119: L2-HR :0.68975: (Sim:3h6m9s) 
CPU  0 inst:  583000000 cyc:  735361394 now IPC :1.71421: AVG IPC :0.79114: L2-Pf-HR :0.70124: L2-HR :0.68984: (Sim:3h6m30s) 
CPU  0 inst:  584000001 cyc:  735910182 now IPC :1.82220: AVG IPC :0.79191: L2-Pf-HR :0.70143: L2-HR :0.69004: (Sim:3h6m51s) 
CPU  0 inst:  585000001 cyc:  736459285 now IPC :1.82115: AVG IPC :0.79268: L2-Pf-HR :0.70162: L2-HR :0.69024: (Sim:3h7m12s) 
CPU  0 inst:  586000005 cyc:  737011249 now IPC :1.81172: AVG IPC :0.79344: L2-Pf-HR :0.70181: L2-HR :0.69043: (Sim:3h7m33s) 
CPU  0 inst:  587000005 cyc:  737563397 now IPC :1.81111: AVG IPC :0.79421: L2-Pf-HR :0.70196: L2-HR :0.69061: (Sim:3h7m53s) 
CPU  0 inst:  588000003 cyc:  738093723 now IPC :1.88563: AVG IPC :0.79499: L2-Pf-HR :0.70214: L2-HR :0.69079: (Sim:3h8m14s) 
CPU  0 inst:  589000004 cyc:  738618150 now IPC :1.90684: AVG IPC :0.79578: L2-Pf-HR :0.70236: L2-HR :0.69099: (Sim:3h8m35s) 
CPU  0 inst:  590000003 cyc:  739140702 now IPC :1.91368: AVG IPC :0.79657: L2-Pf-HR :0.70258: L2-HR :0.69119: (Sim:3h8m56s) 
CPU  0 inst:  591000001 cyc:  739662936 now IPC :1.91485: AVG IPC :0.79736: L2-Pf-HR :0.70276: L2-HR :0.69137: (Sim:3h9m16s) 
CPU  0 inst:  592000001 cyc:  740211535 now IPC :1.82283: AVG IPC :0.79813: L2-Pf-HR :0.70290: L2-HR :0.69153: (Sim:3h9m37s) 
CPU  0 inst:  593000000 cyc:  740756801 now IPC :1.83397: AVG IPC :0.79889: L2-Pf-HR :0.70311: L2-HR :0.69172: (Sim:3h9m58s) 
CPU  0 inst:  594000004 cyc:  741304201 now IPC :1.82683: AVG IPC :0.79965: L2-Pf-HR :0.70330: L2-HR :0.69190: (Sim:3h10m19s) 
CPU  0 inst:  595000005 cyc:  741856426 now IPC :1.81086: AVG IPC :0.80040: L2-Pf-HR :0.70349: L2-HR :0.69207: (Sim:3h10m40s) 
CPU  0 inst:  596000000 cyc:  742423667 now IPC :1.76291: AVG IPC :0.80114: L2-Pf-HR :0.70363: L2-HR :0.69223: (Sim:3h11m1s) 
CPU  0 inst:  597000005 cyc:  742999925 now IPC :1.73534: AVG IPC :0.80186: L2-Pf-HR :0.70370: L2-HR :0.69233: (Sim:3h11m22s) 
CPU  0 inst:  598000001 cyc:  743579021 now IPC :1.72682: AVG IPC :0.80259: L2-Pf-HR :0.70375: L2-HR :0.69242: (Sim:3h11m44s) 
CPU  0 inst:  599000004 cyc:  744152706 now IPC :1.74312: AVG IPC :0.80331: L2-Pf-HR :0.70384: L2-HR :0.69253: (Sim:3h12m5s) 
CPU  0 inst:  600000000 cyc:  744720009 now IPC :1.76272: AVG IPC :0.80404: L2-Pf-HR :0.70395: L2-HR :0.69267: (Sim:3h12m26s) 
CPU  0 inst:  601000000 cyc:  745271975 now IPC :1.81171: AVG IPC :0.80479: L2-Pf-HR :0.70410: L2-HR :0.69283: (Sim:3h12m47s) 
CPU  0 inst:  602000000 cyc:  745825327 now IPC :1.80717: AVG IPC :0.80554: L2-Pf-HR :0.70427: L2-HR :0.69301: (Sim:3h13m8s) 
CPU  0 inst:  603000000 cyc:  746374959 now IPC :1.81940: AVG IPC :0.80628: L2-Pf-HR :0.70444: L2-HR :0.69320: (Sim:3h13m29s) 
CPU  0 inst:  604000001 cyc:  746930916 now IPC :1.79870: AVG IPC :0.80702: L2-Pf-HR :0.70459: L2-HR :0.69338: (Sim:3h13m50s) 
CPU  0 inst:  605000003 cyc:  747454347 now IPC :1.91048: AVG IPC :0.80780: L2-Pf-HR :0.70477: L2-HR :0.69355: (Sim:3h14m10s) 
CPU  0 inst:  606000003 cyc:  747982881 now IPC :1.89203: AVG IPC :0.80856: L2-Pf-HR :0.70498: L2-HR :0.69375: (Sim:3h14m31s) 
CPU  0 inst:  607000002 cyc:  748508183 now IPC :1.90366: AVG IPC :0.80933: L2-Pf-HR :0.70518: L2-HR :0.69394: (Sim:3h14m52s) 
CPU  0 inst:  608000005 cyc:  749042188 now IPC :1.87265: AVG IPC :0.81009: L2-Pf-HR :0.70531: L2-HR :0.69409: (Sim:3h15m12s) 
CPU  0 inst:  609000002 cyc:  749586244 now IPC :1.83804: AVG IPC :0.81084: L2-Pf-HR :0.70548: L2-HR :0.69426: (Sim:3h15m33s) 
CPU  0 inst:  610000001 cyc:  750129424 now IPC :1.84101: AVG IPC :0.81159: L2-Pf-HR :0.70567: L2-HR :0.69444: (Sim:3h15m54s) 
CPU  0 inst:  611000004 cyc:  750675359 now IPC :1.83173: AVG IPC :0.81233: L2-Pf-HR :0.70586: L2-HR :0.69461: (Sim:3h16m15s) 
CPU  0 inst:  612000005 cyc:  751229055 now IPC :1.80605: AVG IPC :0.81306: L2-Pf-HR :0.70602: L2-HR :0.69477: (Sim:3h16m36s) 
CPU  0 inst:  613000003 cyc:  751812317 now IPC :1.71449: AVG IPC :0.81376: L2-Pf-HR :0.70610: L2-HR :0.69488: (Sim:3h16m57s) 
CPU  0 inst:  614000000 cyc:  752383340 now IPC :1.75124: AVG IPC :0.81448: L2-Pf-HR :0.70619: L2-HR :0.69499: (Sim:3h17m19s) 
CPU  0 inst:  615000005 cyc:  752955049 now IPC :1.74915: AVG IPC :0.81519: L2-Pf-HR :0.70628: L2-HR :0.69510: (Sim:3h17m40s) 
CPU  0 inst:  616000004 cyc:  753524672 now IPC :1.75555: AVG IPC :0.81590: L2-Pf-HR :0.70637: L2-HR :0.69521: (Sim:3h18m1s) 
CPU  0 inst:  617000002 cyc:  754094755 now IPC :1.75413: AVG IPC :0.81661: L2-Pf-HR :0.70645: L2-HR :0.69532: (Sim:3h18m22s) 
CPU  0 inst:  618000003 cyc:  754644076 now IPC :1.82043: AVG IPC :0.81734: L2-Pf-HR :0.70661: L2-HR :0.69549: (Sim:3h18m43s) 
CPU  0 inst:  619000002 cyc:  755189906 now IPC :1.83207: AVG IPC :0.81807: L2-Pf-HR :0.70677: L2-HR :0.69566: (Sim:3h19m4s) 
CPU  0 inst:  620000003 cyc:  755733642 now IPC :1.83913: AVG IPC :0.81881: L2-Pf-HR :0.70693: L2-HR :0.69582: (Sim:3h19m25s) 
CPU  0 inst:  621000003 cyc:  756283158 now IPC :1.81978: AVG IPC :0.81954: L2-Pf-HR :0.70704: L2-HR :0.69596: (Sim:3h19m46s) 
CPU  0 inst:  622000000 cyc:  756802908 now IPC :1.92400: AVG IPC :0.82030: L2-Pf-HR :0.70722: L2-HR :0.69613: (Sim:3h20m7s) 
CPU  0 inst:  623000005 cyc:  757324348 now IPC :1.91778: AVG IPC :0.82105: L2-Pf-HR :0.70741: L2-HR :0.69631: (Sim:3h20m28s) 
CPU  0 inst:  624000004 cyc:  757843155 now IPC :1.92750: AVG IPC :0.82181: L2-Pf-HR :0.70760: L2-HR :0.69649: (Sim:3h20m48s) 
CPU  0 inst:  625000001 cyc:  758382405 now IPC :1.85442: AVG IPC :0.82255: L2-Pf-HR :0.70768: L2-HR :0.69662: (Sim:3h21m9s) 
CPU  0 inst:  626000004 cyc:  758929289 now IPC :1.82855: AVG IPC :0.82327: L2-Pf-HR :0.70785: L2-HR :0.69677: (Sim:3h21m30s) 
CPU  0 inst:  627000003 cyc:  759473768 now IPC :1.83662: AVG IPC :0.82400: L2-Pf-HR :0.70803: L2-HR :0.69694: (Sim:3h21m50s) 
CPU  0 inst:  628000005 cyc:  760020804 now IPC :1.82804: AVG IPC :0.82472: L2-Pf-HR :0.70818: L2-HR :0.69709: (Sim:3h22m11s) 
CPU  0 inst:  629000001 cyc:  760583234 now IPC :1.77799: AVG IPC :0.82543: L2-Pf-HR :0.70829: L2-HR :0.69723: (Sim:3h22m33s) 
CPU  0 inst:  630000002 cyc:  761152795 now IPC :1.75574: AVG IPC :0.82613: L2-Pf-HR :0.70838: L2-HR :0.69733: (Sim:3h22m54s) 
CPU  0 inst:  631000001 cyc:  761733614 now IPC :1.72171: AVG IPC :0.82681: L2-Pf-HR :0.70843: L2-HR :0.69742: (Sim:3h23m15s) 
CPU  0 inst:  632000000 cyc:  762312434 now IPC :1.72765: AVG IPC :0.82750: L2-Pf-HR :0.70847: L2-HR :0.69750: (Sim:3h23m36s) 
CPU  0 inst:  633000002 cyc:  762877628 now IPC :1.76931: AVG IPC :0.82819: L2-Pf-HR :0.70858: L2-HR :0.69763: (Sim:3h23m57s) 
CPU  0 inst:  634000000 cyc:  763431996 now IPC :1.80385: AVG IPC :0.82890: L2-Pf-HR :0.70867: L2-HR :0.69774: (Sim:3h24m18s) 
CPU  0 inst:  635000005 cyc:  763984542 now IPC :1.80981: AVG IPC :0.82961: L2-Pf-HR :0.70878: L2-HR :0.69788: (Sim:3h24m39s) 
CPU  0 inst:  636000000 cyc:  764536618 now IPC :1.81134: AVG IPC :0.83032: L2-Pf-HR :0.70891: L2-HR :0.69803: (Sim:3h25m0s) 
CPU  0 inst:  637000000 cyc:  765087263 now IPC :1.81605: AVG IPC :0.83103: L2-Pf-HR :0.70901: L2-HR :0.69816: (Sim:3h25m21s) 
CPU  0 inst:  638000004 cyc:  765612053 now IPC :1.90553: AVG IPC :0.83177: L2-Pf-HR :0.70921: L2-HR :0.69835: (Sim:3h25m42s) 
CPU  0 inst:  639000000 cyc:  766130519 now IPC :1.92876: AVG IPC :0.83252: L2-Pf-HR :0.70938: L2-HR :0.69852: (Sim:3h26m2s) 
CPU  0 inst:  640000005 cyc:  766647132 now IPC :1.93569: AVG IPC :0.83326: L2-Pf-HR :0.70957: L2-HR :0.69870: (Sim:3h26m23s) 
CPU  0 inst:  641000004 cyc:  767164747 now IPC :1.93194: AVG IPC :0.83400: L2-Pf-HR :0.70975: L2-HR :0.69887: (Sim:3h26m43s) 
CPU  0 inst:  642000001 cyc:  767714609 now IPC :1.81863: AVG IPC :0.83471: L2-Pf-HR :0.70984: L2-HR :0.69899: (Sim:3h27m4s) 
CPU  0 inst:  643000003 cyc:  768258751 now IPC :1.83776: AVG IPC :0.83542: L2-Pf-HR :0.71000: L2-HR :0.69915: (Sim:3h27m25s) 
CPU  0 inst:  644000003 cyc:  768805156 now IPC :1.83014: AVG IPC :0.83613: L2-Pf-HR :0.71017: L2-HR :0.69930: (Sim:3h27m45s) 
CPU  0 inst:  645000001 cyc:  769353633 now IPC :1.82323: AVG IPC :0.83683: L2-Pf-HR :0.71034: L2-HR :0.69946: (Sim:3h28m6s) 
CPU  0 inst:  646000004 cyc:  769930027 now IPC :1.73493: AVG IPC :0.83751: L2-Pf-HR :0.71039: L2-HR :0.69956: (Sim:3h28m28s) 
CPU  0 inst:  647000003 cyc:  770500247 now IPC :1.75371: AVG IPC :0.83818: L2-Pf-HR :0.71046: L2-HR :0.69966: (Sim:3h28m49s) 
CPU  0 inst:  648000005 cyc:  771074266 now IPC :1.74211: AVG IPC :0.83886: L2-Pf-HR :0.71054: L2-HR :0.69976: (Sim:3h29m10s) 
CPU  0 inst:  649000002 cyc:  771645422 now IPC :1.75083: AVG IPC :0.83953: L2-Pf-HR :0.71062: L2-HR :0.69986: (Sim:3h29m31s) 
CPU  0 inst:  650000001 cyc:  772225386 now IPC :1.72424: AVG IPC :0.84020: L2-Pf-HR :0.71065: L2-HR :0.69995: (Sim:3h29m52s) 
CPU  0 inst:  651000004 cyc:  772771960 now IPC :1.82958: AVG IPC :0.84090: L2-Pf-HR :0.71081: L2-HR :0.70011: (Sim:3h30m13s) 
CPU  0 inst:  652000005 cyc:  773321461 now IPC :1.81983: AVG IPC :0.84160: L2-Pf-HR :0.71097: L2-HR :0.70028: (Sim:3h30m34s) 
CPU  0 inst:  653000005 cyc:  773867532 now IPC :1.83126: AVG IPC :0.84230: L2-Pf-HR :0.71111: L2-HR :0.70044: (Sim:3h30m54s) 
CPU  0 inst:  654000004 cyc:  774433144 now IPC :1.76799: AVG IPC :0.84297: L2-Pf-HR :0.71121: L2-HR :0.70058: (Sim:3h31m15s) 
CPU  0 inst:  655000001 cyc:  774955007 now IPC :1.91621: AVG IPC :0.84370: L2-Pf-HR :0.71137: L2-HR :0.70074: (Sim:3h31m36s) 
CPU  0 inst:  656000001 cyc:  775479530 now IPC :1.90649: AVG IPC :0.84442: L2-Pf-HR :0.71154: L2-HR :0.70091: (Sim:3h31m57s) 
CPU  0 inst:  657000002 cyc:  776004098 now IPC :1.90633: AVG IPC :0.84513: L2-Pf-HR :0.71171: L2-HR :0.70107: (Sim:3h32m18s) 
CPU  0 inst:  658000001 cyc:  776531226 now IPC :1.89707: AVG IPC :0.84585: L2-Pf-HR :0.71183: L2-HR :0.70121: (Sim:3h32m39s) 
CPU  0 inst:  659000001 cyc:  777084668 now IPC :1.80687: AVG IPC :0.84653: L2-Pf-HR :0.71195: L2-HR :0.70134: (Sim:3h33m0s) 
Finished CPU 0 instr: 657000000 cyc: 776105038 AVG IPC: 0.84653 (Sim time: 3h33m0s)

ChampSim completed all CPUs

[ROI Statistics]
Core_0_instructions 657000000
Core_0_cycles 776105038
Core_0_IPC 0.84653

Core_0_branch_prediction_accuracy 99.58944
Core_0_branch_MPKI 0.11916
Core_0_average_ROB_occupancy_at_mispredict 571.27442

Core_0_L1D_total_access 220621826
Core_0_L1D_total_hit 207050310 L1D_total_Hit Ratio: 0.93849
Core_0_L1D_total_miss 13571516
Core_0_L1D_loads 191083948
Core_0_L1D_load_hit 186769082 L1D_load_Hit Ratio: 0.97742
Core_0_L1D_load_miss 4314866
Core_0_L1D_RFOs 17334875
Core_0_L1D_RFO_hit 16577394 L1D_RFO_Hit Ratio: 0.95630
Core_0_L1D_RFO_miss 757481
Core_0_L1D_prefetches 12203003
Core_0_L1D_prefetch_hit 3703834 L1D_prefetch_Hit Ratio: 0.30352
Core_0_L1D_prefetch_miss 8499169
Core_0_L1D_writebacks 0
Core_0_L1D_writeback_hit 0 L1D_writeback_Hit Ratio: -nan
Core_0_L1D_writeback_miss 0
Core_0_L1D_prefetch_requested 13965501
Core_0_L1D_prefetch_issued 13965501
Core_0_L1D_prefetch_useful 8348073 L1D_Useful Ratio: 0.59776
Core_0_L1D_prefetch_useless 177336
Core_0_L1D_prefetch_late 567087
Core_0_L1D_average_miss_latency 11201838.84386

Core_0_L1I_total_access 104922778
Core_0_L1I_total_hit 104920787 L1I_total_Hit Ratio: 0.99998
Core_0_L1I_total_miss 1991
Core_0_L1I_loads 104922778
Core_0_L1I_load_hit 104920787 L1I_load_Hit Ratio: 0.99998
Core_0_L1I_load_miss 1991
Core_0_L1I_RFOs 0
Core_0_L1I_RFO_hit 0 L1I_RFO_Hit Ratio: -nan
Core_0_L1I_RFO_miss 0
Core_0_L1I_prefetches 0
Core_0_L1I_prefetch_hit 0 L1I_prefetch_Hit Ratio: -nan
Core_0_L1I_prefetch_miss 0
Core_0_L1I_writebacks 0
Core_0_L1I_writeback_hit 0 L1I_writeback_Hit Ratio: -nan
Core_0_L1I_writeback_miss 0
Core_0_L1I_prefetch_requested 0
Core_0_L1I_prefetch_issued 0
Core_0_L1I_prefetch_useful 0 L1I_Useful Ratio: -nan
Core_0_L1I_prefetch_useless 0
Core_0_L1I_prefetch_late 0
Core_0_L1I_average_miss_latency 270.96986

Core_0_L2C_total_access 18641133
Core_0_L2C_total_hit 13073752 L2C_total_Hit Ratio: 0.70134
Core_0_L2C_total_miss 5567381
Core_0_L2C_loads 3750741
Core_0_L2C_load_hit 1896854 L2C_load_Hit Ratio: 0.50573
Core_0_L2C_load_miss 1853887
Core_0_L2C_RFOs 757480
Core_0_L2C_RFO_hit 89 L2C_RFO_Hit Ratio: 0.00012
Core_0_L2C_RFO_miss 757391
Core_0_L2C_prefetches 10262308
Core_0_L2C_prefetch_hit 7306216 L2C_prefetch_Hit Ratio: 0.71195
Core_0_L2C_prefetch_miss 2956092
Core_0_L2C_writebacks 3870604
Core_0_L2C_writeback_hit 3870593 L2C_writeback_Hit Ratio: 1.00000
Core_0_L2C_writeback_miss 11
Core_0_L2C_prefetch_requested 3163670
Core_0_L2C_prefetch_issued 3163670
Core_0_L2C_prefetch_useful 337047 L2C_Useful Ratio: 0.10654
Core_0_L2C_prefetch_useless 2577683
Core_0_L2C_prefetch_late 645168
Core_0_L2C_average_miss_latency 341.08566

Core_0_LLC_total_access 8790707
Core_0_LLC_total_hit 3272182 LLC_total_Hit Ratio: 0.37223
Core_0_LLC_total_miss 5518525
Core_0_LLC_loads 1208725
Core_0_LLC_load_hit 45179 LLC_load_Hit Ratio: 0.03738
Core_0_LLC_load_miss 1163546
Core_0_LLC_RFOs 757391
Core_0_LLC_RFO_hit 302 LLC_RFO_Hit Ratio: 0.00040
Core_0_LLC_RFO_miss 757089
Core_0_LLC_prefetches 3601254
Core_0_LLC_prefetch_hit 33033 LLC_prefetch_Hit Ratio: 0.00917
Core_0_LLC_prefetch_miss 3568221
Core_0_LLC_writebacks 3223337
Core_0_LLC_writeback_hit 3193668 LLC_writeback_Hit Ratio: 0.99080
Core_0_LLC_writeback_miss 29669
Core_0_LLC_prefetch_requested 0
Core_0_LLC_prefetch_issued 0
Core_0_LLC_prefetch_useful 42259 LLC_Useful Ratio: inf
Core_0_LLC_prefetch_useless 3422517
Core_0_LLC_prefetch_late 0
Core_0_LLC_average_miss_latency 352.65697

Core_0_major_page_fault 0
Core_0_minor_page_fault 37887

[Bingo] PHT Access: 1715864
[Bingo] PHT Hit PC+Addr: 651129
[Bingo] PHT Hit PC+Offs: 1009332
[Bingo] PHT Miss: 55403
[Bingo] Prefetch PC+Addr: 0
[Bingo] Prefetch PC+Offs: 0
[Bingo] Useful PC+Addr: 0
[Bingo] Useful PC+Offs: 0
[Bingo] Useless PC+Addr: 0
[Bingo] Useless PC+Offs: 0
[Bingo] L1 Prefetch per Region: 10.17914
[Bingo] L2 Prefetch per Region: 0.33189
[Bingo] L3 Prefetch per Region: 0.00000
[Bingo] No Prefetch per Region: 21.48896
[Bingo] Number of Voters Mean: 15.77982
[Bingo] Number of Voters SD: 1.77207
PHT read accesses: 22343533
PHT write accesses: 1643720
AT read accesses: 180828540
AT write accesses: 180828659
FT read accesses: 27777741
FT write accesses: 1715864
PS read accesses: 15085431
PS write accesses: 1660461
PHT tag read accesses: 65001486
PHT tag write accesses: 2294849
AT tag read accesses: 3355194304
AT tag write accesses: 182472268
FT tag read accesses: 509436917
FT tag write accesses: 16460698
PS tag read accesses: 3131592609
PS tag write accesses: 16711397
[Bingo2] PHT Access: 969173
[Bingo2] PHT Hit PC+Addr: 35736
[Bingo2] PHT Hit PC+Offs: 896504
[Bingo2] PHT Miss: 36933
[Bingo2] Prefetch PC+Addr: 0
[Bingo2] Prefetch PC+Offs: 0
[Bingo2] Useful PC+Addr: 0
[Bingo2] Useful PC+Offs: 0
[Bingo2] Useless PC+Addr: 0
[Bingo2] Useless PC+Offs: 0
[Bingo2] L1 Prefetch per Region: 0.00000
[Bingo2] L2 Prefetch per Region: 5.02291
[Bingo2] L3 Prefetch per Region: 0.00000
[Bingo2] No Prefetch per Region: 26.97709
[Bingo2] Number of Voters Mean: 15.65723
[Bingo2] Number of Voters SD: 1.75861
PHT read accesses: 14654763
PHT write accesses: 760364
AT read accesses: 2660197
AT write accesses: 3420138
FT read accesses: 2526167
FT write accesses: 969173
PS read accesses: 2055735
PS write accesses: 932240
PHT tag read accesses: 39338488
PHT tag write accesses: 796100
AT tag read accesses: 184803358
AT tag write accesses: 3420561
FT tag read accesses: 154785636
FT tag write accesses: 2613182
PS tag read accesses: 94005570
PS tag write accesses: 2981374
Channel_0_RQ_row_buffer_hit 3142188
Channel_0_RQ_row_buffer_miss 2346668
Channel_0_WQ_row_buffer_hit 1264302
Channel_0_WQ_row_buffer_miss 1943980
Channel_0_WQ_full 8554
Channel_0_dbus_congested 5108003

avg_congested_cycle 8

EzSearch AVG IPC :0.84653: L2-Pf-HR :0.71195 : L2-HR :0.70134 Uful:0.10654
     > Finished combination: TraceType=770-tot Sim:657000000 Prefetcher=L2bingo_dpc3 L1=bingo_dpc3
