TRACE: [496000000][OPT-125M]_[h12][s1024][d64] Warmup: 2000000 NumTraces: 496000000
L1:next_line:L2:029-SecTOP-L2-MultiMarkovDelta_ip_stride_v4-MK2-P30
*************************************************
   ChampSim Multicore Out-of-Order Simulator
   Last compiled: Oct 26 2024 18:04:48
*************************************************

trace_0 770-tot_memTraces_v3/memTraces[496000000][OPT-125M]_[h12][s1024][d64].champsim.xz
CPU 0 L1D next line prefetcher
MK1: Size: 128 TMAX: 64 TMIN: 32 MKPTHRESH: 40
MK2: Size: 256 TMAX: 32 TMIN: 16 MK2PTHRESH: 30
MK3: Size: 384 TMAX: 16 TMIN: 8 MK3PTHRESH: 25
MK4: Size: 512 TMAX: 8 TMIN: 0 MK4PTHRESH: 20
Stride Size: 512 Prefetch Degree: 15

CPU 0 L2C prefetcher
MAIN.cc ln 751 stats print skipped
CPU 0 L2C prefetcher initialized


Cache Size: 4096
number of cache lines: 65536
CPU  0 inst:    1000002 cyc:     497718 now IPC :2.00917: AVG IPC :2.00917: L2-Pf-HR :0.90836: L2-HR :0.88797: (Sim:0h0m20s) 
CPU  0 inst:    2000000 cyc:     980131 now IPC :2.07291: AVG IPC :2.04054: L2-Pf-HR :0.93830: L2-HR :0.92732: (Sim:0h0m43s) 

Warmup complete CPU  0 instructions:    2000002 cycles:     980132 (Simulation time: 0 hr 0 min 43 sec) 

CPU  0 inst:    3000002 cyc:    1465086 now IPC :2.06205: AVG IPC :2.06205: L2-Pf-HR :0.90506: L2-HR :0.91791: (Sim:0h1m1s) 
CPU  0 inst:    4000000 cyc:    1937529 now IPC :2.11665: AVG IPC :2.08900: L2-Pf-HR :0.91438: L2-HR :0.92606: (Sim:0h1m19s) 
CPU  0 inst:    5000001 cyc:    2408035 now IPC :2.12537: AVG IPC :2.10098: L2-Pf-HR :0.91971: L2-HR :0.93064: (Sim:0h1m37s) 
CPU  0 inst:    6000005 cyc:    2877184 now IPC :2.13153: AVG IPC :2.10854: L2-Pf-HR :0.93097: L2-HR :0.93969: (Sim:0h1m54s) 
CPU  0 inst:    7000002 cyc:    3444807 now IPC :1.76173: AVG IPC :2.02867: L2-Pf-HR :0.92602: L2-HR :0.93245: (Sim:0h2m13s) 
CPU  0 inst:    8000001 cyc:    3901803 now IPC :2.18820: AVG IPC :2.05362: L2-Pf-HR :0.92818: L2-HR :0.93529: (Sim:0h2m30s) 
CPU  0 inst:    9000005 cyc:    4354692 now IPC :2.20806: AVG IPC :2.07435: L2-Pf-HR :0.93032: L2-HR :0.93786: (Sim:0h2m48s) 
CPU  0 inst:   10000002 cyc:    4811180 now IPC :2.19063: AVG IPC :2.08820: L2-Pf-HR :0.93183: L2-HR :0.93968: (Sim:0h3m6s) 
CPU  0 inst:   11000000 cyc:    5266929 now IPC :2.19419: AVG IPC :2.09947: L2-Pf-HR :0.93377: L2-HR :0.94170: (Sim:0h3m23s) 
CPU  0 inst:   12000002 cyc:    5721091 now IPC :2.20186: AVG IPC :2.10928: L2-Pf-HR :0.93857: L2-HR :0.94596: (Sim:0h3m41s) 
CPU  0 inst:   13000005 cyc:    6240032 now IPC :1.92701: AVG IPC :2.09130: L2-Pf-HR :0.93693: L2-HR :0.94394: (Sim:0h3m59s) 
CPU  0 inst:   14000002 cyc:    6695153 now IPC :2.19721: AVG IPC :2.09973: L2-Pf-HR :0.93714: L2-HR :0.94445: (Sim:0h4m17s) 
CPU  0 inst:   15000004 cyc:    7146577 now IPC :2.21522: AVG IPC :2.10818: L2-Pf-HR :0.93761: L2-HR :0.94514: (Sim:0h4m34s) 
CPU  0 inst:   16000005 cyc:    7601586 now IPC :2.19776: AVG IPC :2.11434: L2-Pf-HR :0.93967: L2-HR :0.94706: (Sim:0h4m52s) 
CPU  0 inst:   17000001 cyc:    8169259 now IPC :1.76157: AVG IPC :2.08648: L2-Pf-HR :0.93698: L2-HR :0.94374: (Sim:0h5m10s) 
CPU  0 inst:   18000000 cyc:    8636131 now IPC :2.14191: AVG IPC :2.08986: L2-Pf-HR :0.93695: L2-HR :0.94377: (Sim:0h5m28s) 
CPU  0 inst:   19000000 cyc:    9103364 now IPC :2.14026: AVG IPC :2.09276: L2-Pf-HR :0.93709: L2-HR :0.94394: (Sim:0h5m46s) 
CPU  0 inst:   20000003 cyc:    9568415 now IPC :2.15031: AVG IPC :2.09588: L2-Pf-HR :0.93733: L2-HR :0.94418: (Sim:0h6m4s) 
CPU  0 inst:   21000001 cyc:   10034015 now IPC :2.14776: AVG IPC :2.09855: L2-Pf-HR :0.93761: L2-HR :0.94446: (Sim:0h6m22s) 
CPU  0 inst:   22000000 cyc:   10501442 now IPC :2.13937: AVG IPC :2.10055: L2-Pf-HR :0.93932: L2-HR :0.94587: (Sim:0h6m39s) 
CPU  0 inst:   23000003 cyc:   11066840 now IPC :1.76867: AVG IPC :2.08195: L2-Pf-HR :0.93819: L2-HR :0.94434: (Sim:0h6m58s) 
CPU  0 inst:   24000003 cyc:   11524429 now IPC :2.18537: AVG IPC :2.08644: L2-Pf-HR :0.93819: L2-HR :0.94455: (Sim:0h7m16s) 
CPU  0 inst:   25000003 cyc:   11979917 now IPC :2.19545: AVG IPC :2.09095: L2-Pf-HR :0.93833: L2-HR :0.94486: (Sim:0h7m33s) 
CPU  0 inst:   26000003 cyc:   12434055 now IPC :2.20197: AVG IPC :2.09535: L2-Pf-HR :0.93848: L2-HR :0.94517: (Sim:0h7m51s) 
CPU  0 inst:   27000004 cyc:   12891023 now IPC :2.18834: AVG IPC :2.09892: L2-Pf-HR :0.93885: L2-HR :0.94563: (Sim:0h8m9s) 
CPU  0 inst:   28000004 cyc:   13347199 now IPC :2.19214: AVG IPC :2.10236: L2-Pf-HR :0.94030: L2-HR :0.94695: (Sim:0h8m26s) 
CPU  0 inst:   29000005 cyc:   13890294 now IPC :1.84130: AVG IPC :2.09138: L2-Pf-HR :0.93984: L2-HR :0.94630: (Sim:0h8m45s) 
CPU  0 inst:   30000001 cyc:   14345331 now IPC :2.19761: AVG IPC :2.09499: L2-Pf-HR :0.93987: L2-HR :0.94647: (Sim:0h9m3s) 
CPU  0 inst:   31000002 cyc:   14802182 now IPC :2.18890: AVG IPC :2.09810: L2-Pf-HR :0.93991: L2-HR :0.94664: (Sim:0h9m20s) 
CPU  0 inst:   32000004 cyc:   15257152 now IPC :2.19795: AVG IPC :2.10128: L2-Pf-HR :0.94055: L2-HR :0.94729: (Sim:0h9m38s) 
CPU  0 inst:   33000000 cyc:   15867333 now IPC :1.63885: AVG IPC :2.08233: L2-Pf-HR :0.93955: L2-HR :0.94597: (Sim:0h9m57s) 
CPU  0 inst:   34000001 cyc:   16341186 now IPC :2.11036: AVG IPC :2.08319: L2-Pf-HR :0.93936: L2-HR :0.94585: (Sim:0h10m15s) 
CPU  0 inst:   35000005 cyc:   16816050 now IPC :2.10587: AVG IPC :2.08387: L2-Pf-HR :0.93939: L2-HR :0.94588: (Sim:0h10m33s) 
CPU  0 inst:   36000002 cyc:   17286165 now IPC :2.12713: AVG IPC :2.08512: L2-Pf-HR :0.93939: L2-HR :0.94592: (Sim:0h10m51s) 
CPU  0 inst:   37000000 cyc:   17758066 now IPC :2.11908: AVG IPC :2.08607: L2-Pf-HR :0.93947: L2-HR :0.94600: (Sim:0h11m9s) 
CPU  0 inst:   38000004 cyc:   18232711 now IPC :2.10685: AVG IPC :2.08664: L2-Pf-HR :0.94025: L2-HR :0.94665: (Sim:0h11m27s) 
CPU  0 inst:   39000004 cyc:   18835284 now IPC :1.65955: AVG IPC :2.07223: L2-Pf-HR :0.93983: L2-HR :0.94596: (Sim:0h11m46s) 
CPU  0 inst:   40000001 cyc:   19297194 now IPC :2.16492: AVG IPC :2.07457: L2-Pf-HR :0.93968: L2-HR :0.94594: (Sim:0h12m4s) 
CPU  0 inst:   41000001 cyc:   19754023 now IPC :2.18900: AVG IPC :2.07735: L2-Pf-HR :0.93978: L2-HR :0.94614: (Sim:0h12m22s) 
CPU  0 inst:   42000001 cyc:   20210575 now IPC :2.19033: AVG IPC :2.08004: L2-Pf-HR :0.93982: L2-HR :0.94627: (Sim:0h12m40s) 
CPU  0 inst:   43000005 cyc:   20668047 now IPC :2.18593: AVG IPC :2.08250: L2-Pf-HR :0.93997: L2-HR :0.94650: (Sim:0h12m58s) 
CPU  0 inst:   44000000 cyc:   21125970 now IPC :2.18376: AVG IPC :2.08480: L2-Pf-HR :0.94071: L2-HR :0.94719: (Sim:0h13m16s) 
CPU  0 inst:   45000000 cyc:   21675131 now IPC :1.82096: AVG IPC :2.07780: L2-Pf-HR :0.94065: L2-HR :0.94695: (Sim:0h13m34s) 
CPU  0 inst:   46000000 cyc:   22132352 now IPC :2.18713: AVG IPC :2.08016: L2-Pf-HR :0.94059: L2-HR :0.94701: (Sim:0h13m52s) 
CPU  0 inst:   47000000 cyc:   22587049 now IPC :2.19927: AVG IPC :2.08267: L2-Pf-HR :0.94060: L2-HR :0.94711: (Sim:0h14m10s) 
CPU  0 inst:   48000001 cyc:   23040799 now IPC :2.20386: AVG IPC :2.08516: L2-Pf-HR :0.94090: L2-HR :0.94743: (Sim:0h14m28s) 
CPU  0 inst:   49000003 cyc:   23643909 now IPC :1.65808: AVG IPC :2.07379: L2-Pf-HR :0.94043: L2-HR :0.94672: (Sim:0h14m46s) 
CPU  0 inst:   50000004 cyc:   24119547 now IPC :2.10244: AVG IPC :2.07438: L2-Pf-HR :0.94027: L2-HR :0.94660: (Sim:0h15m5s) 
CPU  0 inst:   51000000 cyc:   24591204 now IPC :2.12018: AVG IPC :2.07530: L2-Pf-HR :0.94025: L2-HR :0.94660: (Sim:0h15m23s) 
CPU  0 inst:   52000000 cyc:   25067764 now IPC :2.09837: AVG IPC :2.07575: L2-Pf-HR :0.94025: L2-HR :0.94661: (Sim:0h15m41s) 
CPU  0 inst:   53000002 cyc:   25542480 now IPC :2.10653: AVG IPC :2.07635: L2-Pf-HR :0.94030: L2-HR :0.94666: (Sim:0h15m59s) 
CPU  0 inst:   54000002 cyc:   26015788 now IPC :2.11279: AVG IPC :2.07704: L2-Pf-HR :0.94071: L2-HR :0.94701: (Sim:0h16m17s) 
CPU  0 inst:   55000005 cyc:   26615278 now IPC :1.66809: AVG IPC :2.06747: L2-Pf-HR :0.94060: L2-HR :0.94666: (Sim:0h16m36s) 
CPU  0 inst:   56000002 cyc:   27077552 now IPC :2.16321: AVG IPC :2.06917: L2-Pf-HR :0.94042: L2-HR :0.94660: (Sim:0h16m54s) 
CPU  0 inst:   57000002 cyc:   27536990 now IPC :2.17657: AVG IPC :2.07103: L2-Pf-HR :0.94047: L2-HR :0.94671: (Sim:0h17m12s) 
CPU  0 inst:   58000005 cyc:   27994983 now IPC :2.18345: AVG IPC :2.07293: L2-Pf-HR :0.94052: L2-HR :0.94682: (Sim:0h17m29s) 
CPU  0 inst:   59000002 cyc:   28451883 now IPC :2.18866: AVG IPC :2.07486: L2-Pf-HR :0.94057: L2-HR :0.94694: (Sim:0h17m47s) 
CPU  0 inst:   60000003 cyc:   28908143 now IPC :2.19174: AVG IPC :2.07677: L2-Pf-HR :0.94096: L2-HR :0.94732: (Sim:0h18m5s) 
CPU  0 inst:   61000003 cyc:   29450482 now IPC :1.84387: AVG IPC :2.07233: L2-Pf-HR :0.94104: L2-HR :0.94726: (Sim:0h18m23s) 
CPU  0 inst:   62000004 cyc:   29909687 now IPC :2.17768: AVG IPC :2.07400: L2-Pf-HR :0.94096: L2-HR :0.94726: (Sim:0h18m41s) 
CPU  0 inst:   63000005 cyc:   30364183 now IPC :2.20024: AVG IPC :2.07596: L2-Pf-HR :0.94100: L2-HR :0.94737: (Sim:0h18m59s) 
CPU  0 inst:   64000005 cyc:   30819224 now IPC :2.19760: AVG IPC :2.07781: L2-Pf-HR :0.94111: L2-HR :0.94752: (Sim:0h19m17s) 
CPU  0 inst:   65000000 cyc:   31402188 now IPC :1.71536: AVG IPC :2.07087: L2-Pf-HR :0.94090: L2-HR :0.94713: (Sim:0h19m36s) 
CPU  0 inst:   66000001 cyc:   31882576 now IPC :2.08165: AVG IPC :2.07103: L2-Pf-HR :0.94071: L2-HR :0.94697: (Sim:0h19m54s) 
CPU  0 inst:   67000000 cyc:   32355301 now IPC :2.11539: AVG IPC :2.07170: L2-Pf-HR :0.94066: L2-HR :0.94694: (Sim:0h20m12s) 
CPU  0 inst:   68000000 cyc:   32831770 now IPC :2.09877: AVG IPC :2.07211: L2-Pf-HR :0.94067: L2-HR :0.94696: (Sim:0h20m30s) 
CPU  0 inst:   69000000 cyc:   33308714 now IPC :2.09668: AVG IPC :2.07247: L2-Pf-HR :0.94068: L2-HR :0.94697: (Sim:0h20m48s) 
CPU  0 inst:   70000002 cyc:   33781899 now IPC :2.11334: AVG IPC :2.07306: L2-Pf-HR :0.94093: L2-HR :0.94718: (Sim:0h21m6s) 
CPU  0 inst:   71000003 cyc:   34363141 now IPC :1.72046: AVG IPC :2.06692: L2-Pf-HR :0.94105: L2-HR :0.94708: (Sim:0h21m25s) 
CPU  0 inst:   72000004 cyc:   34834156 now IPC :2.12308: AVG IPC :2.06770: L2-Pf-HR :0.94079: L2-HR :0.94692: (Sim:0h21m43s) 
CPU  0 inst:   73000002 cyc:   35291348 now IPC :2.18726: AVG IPC :2.06929: L2-Pf-HR :0.94079: L2-HR :0.94699: (Sim:0h22m1s) 
CPU  0 inst:   74000000 cyc:   35750785 now IPC :2.17657: AVG IPC :2.07071: L2-Pf-HR :0.94084: L2-HR :0.94708: (Sim:0h22m18s) 
CPU  0 inst:   75000001 cyc:   36204213 now IPC :2.20542: AVG IPC :2.07245: L2-Pf-HR :0.94088: L2-HR :0.94717: (Sim:0h22m36s) 
CPU  0 inst:   76000004 cyc:   36659278 now IPC :2.19749: AVG IPC :2.07404: L2-Pf-HR :0.94110: L2-HR :0.94741: (Sim:0h22m54s) 
CPU  0 inst:   77000001 cyc:   37205935 now IPC :1.82930: AVG IPC :2.07035: L2-Pf-HR :0.94129: L2-HR :0.94747: (Sim:0h23m12s) 
CPU  0 inst:   78000005 cyc:   37666361 now IPC :2.17191: AVG IPC :2.07162: L2-Pf-HR :0.94120: L2-HR :0.94744: (Sim:0h23m30s) 
CPU  0 inst:   79000000 cyc:   38123694 now IPC :2.18658: AVG IPC :2.07304: L2-Pf-HR :0.94122: L2-HR :0.94751: (Sim:0h23m48s) 
CPU  0 inst:   80000000 cyc:   38576869 now IPC :2.20665: AVG IPC :2.07465: L2-Pf-HR :0.94126: L2-HR :0.94760: (Sim:0h24m6s) 
CPU  0 inst:   81000003 cyc:   39169725 now IPC :1.68676: AVG IPC :2.06863: L2-Pf-HR :0.94125: L2-HR :0.94742: (Sim:0h24m25s) 
CPU  0 inst:   82000002 cyc:   39657165 now IPC :2.05153: AVG IPC :2.06841: L2-Pf-HR :0.94101: L2-HR :0.94721: (Sim:0h24m43s) 
CPU  0 inst:   83000002 cyc:   40130502 now IPC :2.11266: AVG IPC :2.06895: L2-Pf-HR :0.94096: L2-HR :0.94719: (Sim:0h25m1s) 
CPU  0 inst:   84000000 cyc:   40602422 now IPC :2.11900: AVG IPC :2.06954: L2-Pf-HR :0.94096: L2-HR :0.94720: (Sim:0h25m19s) 
CPU  0 inst:   85000001 cyc:   41079552 now IPC :2.09587: AVG IPC :2.06986: L2-Pf-HR :0.94096: L2-HR :0.94720: (Sim:0h25m37s) 
CPU  0 inst:   86000002 cyc:   41548509 now IPC :2.13239: AVG IPC :2.07058: L2-Pf-HR :0.94108: L2-HR :0.94731: (Sim:0h25m55s) 
CPU  0 inst:   87000001 cyc:   42109004 now IPC :1.78414: AVG IPC :2.06667: L2-Pf-HR :0.94139: L2-HR :0.94743: (Sim:0h26m14s) 
CPU  0 inst:   88000001 cyc:   42619300 now IPC :1.95965: AVG IPC :2.06536: L2-Pf-HR :0.94105: L2-HR :0.94715: (Sim:0h26m32s) 
CPU  0 inst:   89000001 cyc:   43076591 now IPC :2.18679: AVG IPC :2.06668: L2-Pf-HR :0.94104: L2-HR :0.94719: (Sim:0h26m50s) 
CPU  0 inst:   90000005 cyc:   43534523 now IPC :2.18374: AVG IPC :2.06794: L2-Pf-HR :0.94107: L2-HR :0.94726: (Sim:0h27m8s) 
CPU  0 inst:   91000004 cyc:   43992950 now IPC :2.18137: AVG IPC :2.06915: L2-Pf-HR :0.94109: L2-HR :0.94732: (Sim:0h27m26s) 
CPU  0 inst:   92000005 cyc:   44446920 now IPC :2.20279: AVG IPC :2.07055: L2-Pf-HR :0.94124: L2-HR :0.94749: (Sim:0h27m44s) 
CPU  0 inst:   93000004 cyc:   44970774 now IPC :1.90893: AVG IPC :2.06862: L2-Pf-HR :0.94155: L2-HR :0.94768: (Sim:0h28m2s) 
CPU  0 inst:   94000005 cyc:   45447675 now IPC :2.09687: AVG IPC :2.06892: L2-Pf-HR :0.94136: L2-HR :0.94755: (Sim:0h28m20s) 
CPU  0 inst:   95000003 cyc:   45903183 now IPC :2.19535: AVG IPC :2.07021: L2-Pf-HR :0.94136: L2-HR :0.94759: (Sim:0h28m38s) 
CPU  0 inst:   96000004 cyc:   46360018 now IPC :2.18898: AVG IPC :2.07140: L2-Pf-HR :0.94140: L2-HR :0.94767: (Sim:0h28m56s) 
CPU  0 inst:   97000001 cyc:   46904406 now IPC :1.83692: AVG IPC :2.06862: L2-Pf-HR :0.94156: L2-HR :0.94772: (Sim:0h29m14s) 
CPU  0 inst:   98000001 cyc:   47440975 now IPC :1.86369: AVG IPC :2.06626: L2-Pf-HR :0.94120: L2-HR :0.94737: (Sim:0h29m32s) 
CPU  0 inst:   99000002 cyc:   47914200 now IPC :2.11316: AVG IPC :2.06673: L2-Pf-HR :0.94118: L2-HR :0.94736: (Sim:0h29m51s) 
CPU  0 inst:  100000000 cyc:   48386996 now IPC :2.11507: AVG IPC :2.06721: L2-Pf-HR :0.94116: L2-HR :0.94735: (Sim:0h30m9s) 
CPU  0 inst:  101000005 cyc:   48860892 now IPC :2.11018: AVG IPC :2.06764: L2-Pf-HR :0.94116: L2-HR :0.94735: (Sim:0h30m27s) 
CPU  0 inst:  102000005 cyc:   49335647 now IPC :2.10635: AVG IPC :2.06802: L2-Pf-HR :0.94122: L2-HR :0.94741: (Sim:0h30m45s) 
CPU  0 inst:  103000000 cyc:   49812664 now IPC :2.09635: AVG IPC :2.06829: L2-Pf-HR :0.94166: L2-HR :0.94777: (Sim:0h31m2s) 
CPU  0 inst:  104000005 cyc:   50410878 now IPC :1.67165: AVG IPC :2.06349: L2-Pf-HR :0.94123: L2-HR :0.94729: (Sim:0h31m22s) 
CPU  0 inst:  105000001 cyc:   50867321 now IPC :2.19085: AVG IPC :2.06466: L2-Pf-HR :0.94122: L2-HR :0.94733: (Sim:0h31m39s) 
CPU  0 inst:  106000000 cyc:   51323558 now IPC :2.19184: AVG IPC :2.06581: L2-Pf-HR :0.94123: L2-HR :0.94738: (Sim:0h31m56s) 
CPU  0 inst:  107000000 cyc:   51780900 now IPC :2.18655: AVG IPC :2.06690: L2-Pf-HR :0.94127: L2-HR :0.94745: (Sim:0h32m12s) 
CPU  0 inst:  108000000 cyc:   52237920 now IPC :2.18809: AVG IPC :2.06798: L2-Pf-HR :0.94136: L2-HR :0.94756: (Sim:0h32m28s) 
CPU  0 inst:  109000005 cyc:   52695446 now IPC :2.18568: AVG IPC :2.06902: L2-Pf-HR :0.94178: L2-HR :0.94794: (Sim:0h32m45s) 
CPU  0 inst:  110000000 cyc:   53229031 now IPC :1.87411: AVG IPC :2.06703: L2-Pf-HR :0.94149: L2-HR :0.94764: (Sim:0h33m2s) 
CPU  0 inst:  111000000 cyc:   53685304 now IPC :2.19167: AVG IPC :2.06811: L2-Pf-HR :0.94148: L2-HR :0.94767: (Sim:0h33m18s) 
CPU  0 inst:  112000005 cyc:   54139592 now IPC :2.20126: AVG IPC :2.06925: L2-Pf-HR :0.94149: L2-HR :0.94771: (Sim:0h33m34s) 
CPU  0 inst:  113000003 cyc:   54593852 now IPC :2.20138: AVG IPC :2.07037: L2-Pf-HR :0.94180: L2-HR :0.94800: (Sim:0h33m52s) 
CPU  0 inst:  114000001 cyc:   55209785 now IPC :1.62355: AVG IPC :2.06529: L2-Pf-HR :0.94136: L2-HR :0.94749: (Sim:0h34m10s) 
CPU  0 inst:  115000004 cyc:   55687886 now IPC :2.09161: AVG IPC :2.06552: L2-Pf-HR :0.94132: L2-HR :0.94747: (Sim:0h34m26s) 
CPU  0 inst:  116000001 cyc:   56162028 now IPC :2.10907: AVG IPC :2.06589: L2-Pf-HR :0.94131: L2-HR :0.94746: (Sim:0h34m43s) 
CPU  0 inst:  117000004 cyc:   56637096 now IPC :2.10497: AVG IPC :2.06623: L2-Pf-HR :0.94129: L2-HR :0.94745: (Sim:0h34m59s) 
CPU  0 inst:  118000002 cyc:   57111505 now IPC :2.10788: AVG IPC :2.06658: L2-Pf-HR :0.94132: L2-HR :0.94749: (Sim:0h35m16s) 
CPU  0 inst:  119000003 cyc:   57583421 now IPC :2.11902: AVG IPC :2.06702: L2-Pf-HR :0.94165: L2-HR :0.94776: (Sim:0h35m33s) 
CPU  0 inst:  120000000 cyc:   58190870 now IPC :1.64622: AVG IPC :2.06255: L2-Pf-HR :0.94136: L2-HR :0.94741: (Sim:0h35m51s) 
CPU  0 inst:  121000000 cyc:   58650854 now IPC :2.17399: AVG IPC :2.06344: L2-Pf-HR :0.94135: L2-HR :0.94743: (Sim:0h36m7s) 
CPU  0 inst:  122000001 cyc:   59107703 now IPC :2.18891: AVG IPC :2.06442: L2-Pf-HR :0.94135: L2-HR :0.94747: (Sim:0h36m23s) 
CPU  0 inst:  123000005 cyc:   59566793 now IPC :2.17823: AVG IPC :2.06532: L2-Pf-HR :0.94137: L2-HR :0.94752: (Sim:0h36m41s) 
CPU  0 inst:  124000000 cyc:   60024998 now IPC :2.18242: AVG IPC :2.06623: L2-Pf-HR :0.94143: L2-HR :0.94760: (Sim:0h36m57s) 
CPU  0 inst:  125000004 cyc:   60479921 now IPC :2.19818: AVG IPC :2.06723: L2-Pf-HR :0.94176: L2-HR :0.94790: (Sim:0h37m13s) 
CPU  0 inst:  126000004 cyc:   61035060 now IPC :1.80135: AVG IPC :2.06478: L2-Pf-HR :0.94157: L2-HR :0.94769: (Sim:0h37m30s) 
CPU  0 inst:  127000004 cyc:   61493371 now IPC :2.18192: AVG IPC :2.06566: L2-Pf-HR :0.94156: L2-HR :0.94771: (Sim:0h37m47s) 
CPU  0 inst:  128000005 cyc:   61947156 now IPC :2.20369: AVG IPC :2.06669: L2-Pf-HR :0.94156: L2-HR :0.94775: (Sim:0h38m4s) 
CPU  0 inst:  129000002 cyc:   62402161 now IPC :2.19777: AVG IPC :2.06766: L2-Pf-HR :0.94177: L2-HR :0.94795: (Sim:0h38m21s) 
CPU  0 inst:  130000004 cyc:   63019433 now IPC :1.62003: AVG IPC :2.06321: L2-Pf-HR :0.94145: L2-HR :0.94756: (Sim:0h38m38s) 
CPU  0 inst:  131000005 cyc:   63493904 now IPC :2.10761: AVG IPC :2.06355: L2-Pf-HR :0.94142: L2-HR :0.94754: (Sim:0h38m54s) 
CPU  0 inst:  132000000 cyc:   63967106 now IPC :2.11325: AVG IPC :2.06392: L2-Pf-HR :0.94140: L2-HR :0.94753: (Sim:0h39m12s) 
CPU  0 inst:  133000001 cyc:   64437405 now IPC :2.12631: AVG IPC :2.06438: L2-Pf-HR :0.94139: L2-HR :0.94752: (Sim:0h39m29s) 
CPU  0 inst:  134000001 cyc:   64910634 now IPC :2.11314: AVG IPC :2.06474: L2-Pf-HR :0.94141: L2-HR :0.94755: (Sim:0h39m45s) 
CPU  0 inst:  135000003 cyc:   65381804 now IPC :2.12238: AVG IPC :2.06516: L2-Pf-HR :0.94166: L2-HR :0.94776: (Sim:0h40m2s) 
CPU  0 inst:  136000004 cyc:   65987370 now IPC :1.65135: AVG IPC :2.06131: L2-Pf-HR :0.94146: L2-HR :0.94748: (Sim:0h40m20s) 
CPU  0 inst:  137000001 cyc:   66448617 now IPC :2.16803: AVG IPC :2.06206: L2-Pf-HR :0.94144: L2-HR :0.94750: (Sim:0h40m36s) 
CPU  0 inst:  138000005 cyc:   66907247 now IPC :2.18042: AVG IPC :2.06288: L2-Pf-HR :0.94144: L2-HR :0.94753: (Sim:0h40m54s) 
CPU  0 inst:  139000005 cyc:   67363397 now IPC :2.19226: AVG IPC :2.06377: L2-Pf-HR :0.94145: L2-HR :0.94757: (Sim:0h41m10s) 
CPU  0 inst:  140000005 cyc:   67820797 now IPC :2.18627: AVG IPC :2.06461: L2-Pf-HR :0.94150: L2-HR :0.94764: (Sim:0h41m25s) 
CPU  0 inst:  141000002 cyc:   68277508 now IPC :2.18956: AVG IPC :2.06546: L2-Pf-HR :0.94177: L2-HR :0.94788: (Sim:0h41m40s) 
CPU  0 inst:  142000001 cyc:   68833797 now IPC :1.79762: AVG IPC :2.06326: L2-Pf-HR :0.94165: L2-HR :0.94774: (Sim:0h41m59s) 
CPU  0 inst:  143000004 cyc:   69287168 now IPC :2.20571: AVG IPC :2.06421: L2-Pf-HR :0.94165: L2-HR :0.94776: (Sim:0h42m14s) 
CPU  0 inst:  144000005 cyc:   69745742 now IPC :2.18068: AVG IPC :2.06499: L2-Pf-HR :0.94165: L2-HR :0.94779: (Sim:0h42m31s) 
CPU  0 inst:  145000001 cyc:   70200060 now IPC :2.20109: AVG IPC :2.06588: L2-Pf-HR :0.94178: L2-HR :0.94793: (Sim:0h42m48s) 
CPU  0 inst:  146000004 cyc:   70811700 now IPC :1.63495: AVG IPC :2.06210: L2-Pf-HR :0.94156: L2-HR :0.94764: (Sim:0h43m6s) 
CPU  0 inst:  147000002 cyc:   71288623 now IPC :2.09677: AVG IPC :2.06234: L2-Pf-HR :0.94152: L2-HR :0.94761: (Sim:0h43m22s) 
CPU  0 inst:  148000000 cyc:   71763758 now IPC :2.10466: AVG IPC :2.06262: L2-Pf-HR :0.94152: L2-HR :0.94761: (Sim:0h43m40s) 
CPU  0 inst:  149000004 cyc:   72238649 now IPC :2.10575: AVG IPC :2.06291: L2-Pf-HR :0.94150: L2-HR :0.94760: (Sim:0h43m57s) 
CPU  0 inst:  150000005 cyc:   72714677 now IPC :2.10072: AVG IPC :2.06316: L2-Pf-HR :0.94151: L2-HR :0.94761: (Sim:0h44m13s) 
CPU  0 inst:  151000000 cyc:   73189459 now IPC :2.10622: AVG IPC :2.06345: L2-Pf-HR :0.94170: L2-HR :0.94777: (Sim:0h44m30s) 
CPU  0 inst:  152000003 cyc:   73799019 now IPC :1.64053: AVG IPC :2.05991: L2-Pf-HR :0.94157: L2-HR :0.94757: (Sim:0h44m48s) 
CPU  0 inst:  153000003 cyc:   74261108 now IPC :2.16409: AVG IPC :2.06056: L2-Pf-HR :0.94154: L2-HR :0.94757: (Sim:0h45m5s) 
CPU  0 inst:  154000003 cyc:   74719791 now IPC :2.18016: AVG IPC :2.06131: L2-Pf-HR :0.94155: L2-HR :0.94761: (Sim:0h45m22s) 
CPU  0 inst:  155000003 cyc:   75177349 now IPC :2.18552: AVG IPC :2.06207: L2-Pf-HR :0.94156: L2-HR :0.94764: (Sim:0h45m39s) 
CPU  0 inst:  156000003 cyc:   75633578 now IPC :2.19188: AVG IPC :2.06287: L2-Pf-HR :0.94158: L2-HR :0.94769: (Sim:0h45m55s) 
CPU  0 inst:  157000003 cyc:   76090862 now IPC :2.18682: AVG IPC :2.06362: L2-Pf-HR :0.94178: L2-HR :0.94787: (Sim:0h46m12s) 
CPU  0 inst:  158000000 cyc:   76644398 now IPC :1.80656: AVG IPC :2.06174: L2-Pf-HR :0.94173: L2-HR :0.94779: (Sim:0h46m30s) 
CPU  0 inst:  159000002 cyc:   77103117 now IPC :2.17999: AVG IPC :2.06245: L2-Pf-HR :0.94171: L2-HR :0.94779: (Sim:0h46m46s) 
CPU  0 inst:  160000003 cyc:   77560356 now IPC :2.18704: AVG IPC :2.06320: L2-Pf-HR :0.94171: L2-HR :0.94782: (Sim:0h47m3s) 
CPU  0 inst:  161000003 cyc:   78016743 now IPC :2.19112: AVG IPC :2.06395: L2-Pf-HR :0.94180: L2-HR :0.94792: (Sim:0h47m20s) 
CPU  0 inst:  162000004 cyc:   78625388 now IPC :1.64300: AVG IPC :2.06065: L2-Pf-HR :0.94165: L2-HR :0.94770: (Sim:0h47m37s) 
CPU  0 inst:  163000002 cyc:   79098930 now IPC :2.11174: AVG IPC :2.06096: L2-Pf-HR :0.94159: L2-HR :0.94766: (Sim:0h47m55s) 
CPU  0 inst:  164000003 cyc:   79573188 now IPC :2.10856: AVG IPC :2.06125: L2-Pf-HR :0.94158: L2-HR :0.94765: (Sim:0h48m11s) 
CPU  0 inst:  165000001 cyc:   80047990 now IPC :2.10614: AVG IPC :2.06152: L2-Pf-HR :0.94157: L2-HR :0.94765: (Sim:0h48m28s) 
CPU  0 inst:  166000002 cyc:   80520083 now IPC :2.11823: AVG IPC :2.06186: L2-Pf-HR :0.94157: L2-HR :0.94766: (Sim:0h48m46s) 
CPU  0 inst:  167000001 cyc:   80994325 now IPC :2.10863: AVG IPC :2.06213: L2-Pf-HR :0.94171: L2-HR :0.94777: (Sim:0h49m2s) 
CPU  0 inst:  168000003 cyc:   81588003 now IPC :1.68442: AVG IPC :2.05935: L2-Pf-HR :0.94164: L2-HR :0.94764: (Sim:0h49m20s) 
CPU  0 inst:  169000004 cyc:   82051729 now IPC :2.15645: AVG IPC :2.05991: L2-Pf-HR :0.94160: L2-HR :0.94762: (Sim:0h49m37s) 
CPU  0 inst:  170000000 cyc:   82510815 now IPC :2.17823: AVG IPC :2.06057: L2-Pf-HR :0.94160: L2-HR :0.94765: (Sim:0h49m54s) 
CPU  0 inst:  171000004 cyc:   82967037 now IPC :2.19192: AVG IPC :2.06130: L2-Pf-HR :0.94161: L2-HR :0.94768: (Sim:0h50m11s) 
CPU  0 inst:  172000004 cyc:   83421566 now IPC :2.20008: AVG IPC :2.06207: L2-Pf-HR :0.94163: L2-HR :0.94772: (Sim:0h50m28s) 
CPU  0 inst:  173000004 cyc:   83878946 now IPC :2.18637: AVG IPC :2.06276: L2-Pf-HR :0.94176: L2-HR :0.94785: (Sim:0h50m44s) 
CPU  0 inst:  174000000 cyc:   84417308 now IPC :1.85748: AVG IPC :2.06143: L2-Pf-HR :0.94177: L2-HR :0.94782: (Sim:0h51m1s) 
CPU  0 inst:  175000000 cyc:   84875398 now IPC :2.18298: AVG IPC :2.06209: L2-Pf-HR :0.94174: L2-HR :0.94781: (Sim:0h51m19s) 
CPU  0 inst:  176000001 cyc:   85330274 now IPC :2.19840: AVG IPC :2.06283: L2-Pf-HR :0.94175: L2-HR :0.94785: (Sim:0h51m35s) 
CPU  0 inst:  177000001 cyc:   85785183 now IPC :2.19824: AVG IPC :2.06356: L2-Pf-HR :0.94179: L2-HR :0.94790: (Sim:0h51m51s) 
CPU  0 inst:  178000001 cyc:   86387384 now IPC :1.66058: AVG IPC :2.06071: L2-Pf-HR :0.94170: L2-HR :0.94775: (Sim:0h52m9s) 
CPU  0 inst:  179000005 cyc:   86869580 now IPC :2.07385: AVG IPC :2.06079: L2-Pf-HR :0.94163: L2-HR :0.94770: (Sim:0h52m26s) 
CPU  0 inst:  180000000 cyc:   87341272 now IPC :2.12002: AVG IPC :2.06111: L2-Pf-HR :0.94161: L2-HR :0.94769: (Sim:0h52m43s) 
CPU  0 inst:  181000004 cyc:   87814018 now IPC :2.11531: AVG IPC :2.06141: L2-Pf-HR :0.94162: L2-HR :0.94770: (Sim:0h53m1s) 
CPU  0 inst:  182000005 cyc:   88287010 now IPC :2.11420: AVG IPC :2.06169: L2-Pf-HR :0.94161: L2-HR :0.94769: (Sim:0h53m17s) 
CPU  0 inst:  183000000 cyc:   88762016 now IPC :2.10523: AVG IPC :2.06193: L2-Pf-HR :0.94170: L2-HR :0.94777: (Sim:0h53m33s) 
CPU  0 inst:  184000004 cyc:   89368784 now IPC :1.64808: AVG IPC :2.05909: L2-Pf-HR :0.94171: L2-HR :0.94770: (Sim:0h53m52s) 
CPU  0 inst:  185000005 cyc:   89838718 now IPC :2.12796: AVG IPC :2.05945: L2-Pf-HR :0.94162: L2-HR :0.94765: (Sim:0h54m9s) 
CPU  0 inst:  186000005 cyc:   90296881 now IPC :2.18263: AVG IPC :2.06008: L2-Pf-HR :0.94163: L2-HR :0.94768: (Sim:0h54m25s) 
CPU  0 inst:  187000005 cyc:   90755042 now IPC :2.18264: AVG IPC :2.06071: L2-Pf-HR :0.94164: L2-HR :0.94770: (Sim:0h54m42s) 
CPU  0 inst:  188000003 cyc:   91209836 now IPC :2.19879: AVG IPC :2.06141: L2-Pf-HR :0.94165: L2-HR :0.94773: (Sim:0h55m0s) 
CPU  0 inst:  189000002 cyc:   91665792 now IPC :2.19319: AVG IPC :2.06207: L2-Pf-HR :0.94175: L2-HR :0.94784: (Sim:0h55m16s) 
CPU  0 inst:  190000005 cyc:   92212567 now IPC :1.82891: AVG IPC :2.06067: L2-Pf-HR :0.94180: L2-HR :0.94784: (Sim:0h55m34s) 
CPU  0 inst:  191000003 cyc:   92671437 now IPC :2.17926: AVG IPC :2.06126: L2-Pf-HR :0.94176: L2-HR :0.94783: (Sim:0h55m50s) 
CPU  0 inst:  192000005 cyc:   93129027 now IPC :2.18537: AVG IPC :2.06188: L2-Pf-HR :0.94176: L2-HR :0.94785: (Sim:0h56m6s) 
CPU  0 inst:  193000005 cyc:   93582760 now IPC :2.20394: AVG IPC :2.06258: L2-Pf-HR :0.94178: L2-HR :0.94789: (Sim:0h56m24s) 
CPU  0 inst:  194000004 cyc:   95226942 now IPC :0.60820: AVG IPC :2.03720: L2-Pf-HR :0.94121: L2-HR :0.94649: (Sim:0h56m48s) 
CPU  0 inst:  195000000 cyc:  100020286 now IPC :0.20862: AVG IPC :1.94870: L2-Pf-HR :0.93870: L2-HR :0.94075: (Sim:0h57m39s) 
CPU  0 inst:  196000005 cyc:  105016327 now IPC :0.20016: AVG IPC :1.86474: L2-Pf-HR :0.93619: L2-HR :0.93516: (Sim:0h58m32s) 
CPU  0 inst:  197000004 cyc:  110005057 now IPC :0.20045: AVG IPC :1.78858: L2-Pf-HR :0.93368: L2-HR :0.92971: (Sim:0h59m25s) 
CPU  0 inst:  198000000 cyc:  114990826 now IPC :0.20057: AVG IPC :1.71914: L2-Pf-HR :0.93120: L2-HR :0.92441: (Sim:1h0m17s) 
CPU  0 inst:  199000001 cyc:  119981226 now IPC :0.20038: AVG IPC :1.65545: L2-Pf-HR :0.92873: L2-HR :0.91924: (Sim:1h1m8s) 
CPU  0 inst:  200000004 cyc:  124973527 now IPC :0.20031: AVG IPC :1.59686: L2-Pf-HR :0.92628: L2-HR :0.91420: (Sim:1h2m1s) 
CPU  0 inst:  201000000 cyc:  129661034 now IPC :0.21333: AVG IPC :1.54646: L2-Pf-HR :0.92409: L2-HR :0.90987: (Sim:1h2m51s) 
CPU  0 inst:  202000000 cyc:  132905100 now IPC :0.30826: AVG IPC :1.51601: L2-Pf-HR :0.92365: L2-HR :0.90922: (Sim:1h3m24s) 
CPU  0 inst:  203000002 cyc:  136162091 now IPC :0.30703: AVG IPC :1.48688: L2-Pf-HR :0.92323: L2-HR :0.90857: (Sim:1h3m57s) 
CPU  0 inst:  204000005 cyc:  139423037 now IPC :0.30666: AVG IPC :1.45909: L2-Pf-HR :0.92280: L2-HR :0.90793: (Sim:1h4m31s) 
CPU  0 inst:  205000000 cyc:  142681614 now IPC :0.30688: AVG IPC :1.43259: L2-Pf-HR :0.92237: L2-HR :0.90729: (Sim:1h5m5s) 
CPU  0 inst:  206000000 cyc:  145939790 now IPC :0.30692: AVG IPC :1.40729: L2-Pf-HR :0.92195: L2-HR :0.90666: (Sim:1h5m39s) 
CPU  0 inst:  207000000 cyc:  149198145 now IPC :0.30690: AVG IPC :1.38310: L2-Pf-HR :0.92153: L2-HR :0.90603: (Sim:1h6m13s) 
CPU  0 inst:  208000004 cyc:  152455868 now IPC :0.30696: AVG IPC :1.35995: L2-Pf-HR :0.92112: L2-HR :0.90540: (Sim:1h6m47s) 
CPU  0 inst:  209000000 cyc:  155710634 now IPC :0.30724: AVG IPC :1.33781: L2-Pf-HR :0.92070: L2-HR :0.90478: (Sim:1h7m20s) 
CPU  0 inst:  210000001 cyc:  158964091 now IPC :0.30737: AVG IPC :1.31659: L2-Pf-HR :0.92029: L2-HR :0.90416: (Sim:1h7m55s) 
CPU  0 inst:  211000001 cyc:  162213215 now IPC :0.30778: AVG IPC :1.29626: L2-Pf-HR :0.91989: L2-HR :0.90355: (Sim:1h8m29s) 
CPU  0 inst:  212000004 cyc:  165462864 now IPC :0.30773: AVG IPC :1.27673: L2-Pf-HR :0.91948: L2-HR :0.90295: (Sim:1h9m1s) 
CPU  0 inst:  213000000 cyc:  168714175 now IPC :0.30757: AVG IPC :1.25794: L2-Pf-HR :0.91908: L2-HR :0.90234: (Sim:1h9m36s) 
CPU  0 inst:  214000000 cyc:  171962466 now IPC :0.30785: AVG IPC :1.23989: L2-Pf-HR :0.91868: L2-HR :0.90174: (Sim:1h10m9s) 
CPU  0 inst:  215000000 cyc:  175216856 now IPC :0.30728: AVG IPC :1.22247: L2-Pf-HR :0.91828: L2-HR :0.90114: (Sim:1h10m43s) 
CPU  0 inst:  216000000 cyc:  178469724 now IPC :0.30742: AVG IPC :1.20570: L2-Pf-HR :0.91788: L2-HR :0.90054: (Sim:1h11m16s) 
CPU  0 inst:  217000000 cyc:  181719860 now IPC :0.30768: AVG IPC :1.18956: L2-Pf-HR :0.91748: L2-HR :0.89994: (Sim:1h11m48s) 
CPU  0 inst:  218000001 cyc:  184965975 now IPC :0.30806: AVG IPC :1.17400: L2-Pf-HR :0.91710: L2-HR :0.89936: (Sim:1h12m22s) 
CPU  0 inst:  219000003 cyc:  188217674 now IPC :0.30753: AVG IPC :1.15896: L2-Pf-HR :0.91671: L2-HR :0.89877: (Sim:1h12m56s) 
CPU  0 inst:  220000000 cyc:  191467575 now IPC :0.30770: AVG IPC :1.14443: L2-Pf-HR :0.91632: L2-HR :0.89819: (Sim:1h13m29s) 
CPU  0 inst:  221000000 cyc:  194719530 now IPC :0.30751: AVG IPC :1.13038: L2-Pf-HR :0.91593: L2-HR :0.89761: (Sim:1h14m3s) 
CPU  0 inst:  222000000 cyc:  197967791 now IPC :0.30786: AVG IPC :1.11682: L2-Pf-HR :0.91554: L2-HR :0.89703: (Sim:1h14m37s) 
CPU  0 inst:  223000000 cyc:  201219023 now IPC :0.30758: AVG IPC :1.10368: L2-Pf-HR :0.91516: L2-HR :0.89645: (Sim:1h15m10s) 
CPU  0 inst:  224000000 cyc:  204469473 now IPC :0.30765: AVG IPC :1.09097: L2-Pf-HR :0.91477: L2-HR :0.89588: (Sim:1h15m44s) 
CPU  0 inst:  225000001 cyc:  207718236 now IPC :0.30781: AVG IPC :1.07866: L2-Pf-HR :0.91440: L2-HR :0.89531: (Sim:1h16m4s) 
CPU  0 inst:  226000005 cyc:  210966611 now IPC :0.30785: AVG IPC :1.06674: L2-Pf-HR :0.91402: L2-HR :0.89475: (Sim:1h16m20s) 
CPU  0 inst:  227000000 cyc:  214218248 now IPC :0.30754: AVG IPC :1.05516: L2-Pf-HR :0.91364: L2-HR :0.89418: (Sim:1h16m36s) 
CPU  0 inst:  228000000 cyc:  217466555 now IPC :0.30785: AVG IPC :1.04395: L2-Pf-HR :0.91327: L2-HR :0.89363: (Sim:1h16m51s) 
CPU  0 inst:  229000004 cyc:  220713528 now IPC :0.30798: AVG IPC :1.03307: L2-Pf-HR :0.91290: L2-HR :0.89307: (Sim:1h17m7s) 
CPU  0 inst:  230000000 cyc:  223962808 now IPC :0.30776: AVG IPC :1.02250: L2-Pf-HR :0.91253: L2-HR :0.89251: (Sim:1h17m23s) 
CPU  0 inst:  231000000 cyc:  227211531 now IPC :0.30781: AVG IPC :1.01224: L2-Pf-HR :0.91216: L2-HR :0.89196: (Sim:1h17m38s) 
CPU  0 inst:  232000000 cyc:  230461754 now IPC :0.30767: AVG IPC :1.00226: L2-Pf-HR :0.91179: L2-HR :0.89141: (Sim:1h17m54s) 
CPU  0 inst:  233000000 cyc:  233710959 now IPC :0.30777: AVG IPC :0.99256: L2-Pf-HR :0.91142: L2-HR :0.89087: (Sim:1h18m9s) 
CPU  0 inst:  234000003 cyc:  236964104 now IPC :0.30740: AVG IPC :0.98312: L2-Pf-HR :0.91106: L2-HR :0.89032: (Sim:1h18m25s) 
CPU  0 inst:  235000000 cyc:  240211349 now IPC :0.30795: AVG IPC :0.97395: L2-Pf-HR :0.91070: L2-HR :0.88978: (Sim:1h18m40s) 
CPU  0 inst:  236000000 cyc:  243460902 now IPC :0.30773: AVG IPC :0.96502: L2-Pf-HR :0.91034: L2-HR :0.88925: (Sim:1h18m55s) 
CPU  0 inst:  237000000 cyc:  246712875 now IPC :0.30751: AVG IPC :0.95632: L2-Pf-HR :0.90997: L2-HR :0.88871: (Sim:1h19m11s) 
CPU  0 inst:  238000000 cyc:  249962083 now IPC :0.30777: AVG IPC :0.94786: L2-Pf-HR :0.90962: L2-HR :0.88818: (Sim:1h19m26s) 
CPU  0 inst:  239000000 cyc:  253210719 now IPC :0.30782: AVG IPC :0.93962: L2-Pf-HR :0.90926: L2-HR :0.88765: (Sim:1h19m41s) 
CPU  0 inst:  240000000 cyc:  256459006 now IPC :0.30785: AVG IPC :0.93158: L2-Pf-HR :0.90891: L2-HR :0.88712: (Sim:1h19m57s) 
CPU  0 inst:  241000001 cyc:  259706656 now IPC :0.30792: AVG IPC :0.92376: L2-Pf-HR :0.90856: L2-HR :0.88660: (Sim:1h20m12s) 
CPU  0 inst:  242000000 cyc:  262958908 now IPC :0.30748: AVG IPC :0.91610: L2-Pf-HR :0.90820: L2-HR :0.88607: (Sim:1h20m32s) 
CPU  0 inst:  243000000 cyc:  266208573 now IPC :0.30772: AVG IPC :0.90865: L2-Pf-HR :0.90785: L2-HR :0.88555: (Sim:1h20m47s) 
CPU  0 inst:  244000000 cyc:  269459387 now IPC :0.30762: AVG IPC :0.90137: L2-Pf-HR :0.90750: L2-HR :0.88504: (Sim:1h21m3s) 
CPU  0 inst:  245000000 cyc:  272708028 now IPC :0.30782: AVG IPC :0.89428: L2-Pf-HR :0.90716: L2-HR :0.88452: (Sim:1h21m24s) 
CPU  0 inst:  246000004 cyc:  275957923 now IPC :0.30770: AVG IPC :0.88734: L2-Pf-HR :0.90681: L2-HR :0.88401: (Sim:1h21m40s) 
CPU  0 inst:  247000000 cyc:  279208043 now IPC :0.30768: AVG IPC :0.88057: L2-Pf-HR :0.90647: L2-HR :0.88350: (Sim:1h21m56s) 
CPU  0 inst:  248000002 cyc:  282459749 now IPC :0.30753: AVG IPC :0.87395: L2-Pf-HR :0.90613: L2-HR :0.88299: (Sim:1h22m11s) 
CPU  0 inst:  249000003 cyc:  285710545 now IPC :0.30762: AVG IPC :0.86749: L2-Pf-HR :0.90579: L2-HR :0.88249: (Sim:1h22m27s) 
CPU  0 inst:  250000004 cyc:  288959523 now IPC :0.30779: AVG IPC :0.86117: L2-Pf-HR :0.90545: L2-HR :0.88199: (Sim:1h22m43s) 
CPU  0 inst:  251000000 cyc:  292208048 now IPC :0.30783: AVG IPC :0.85500: L2-Pf-HR :0.90511: L2-HR :0.88149: (Sim:1h22m58s) 
CPU  0 inst:  252000000 cyc:  295456401 now IPC :0.30785: AVG IPC :0.84896: L2-Pf-HR :0.90477: L2-HR :0.88099: (Sim:1h23m14s) 
CPU  0 inst:  253000000 cyc:  298708721 now IPC :0.30747: AVG IPC :0.84305: L2-Pf-HR :0.90444: L2-HR :0.88049: (Sim:1h23m30s) 
CPU  0 inst:  254000000 cyc:  301955173 now IPC :0.30803: AVG IPC :0.83728: L2-Pf-HR :0.90411: L2-HR :0.88000: (Sim:1h23m45s) 
CPU  0 inst:  255000002 cyc:  305206886 now IPC :0.30753: AVG IPC :0.83162: L2-Pf-HR :0.90377: L2-HR :0.87951: (Sim:1h24m0s) 
CPU  0 inst:  256000001 cyc:  308457888 now IPC :0.30760: AVG IPC :0.82608: L2-Pf-HR :0.90344: L2-HR :0.87902: (Sim:1h24m16s) 
CPU  0 inst:  257000000 cyc:  311706628 now IPC :0.30781: AVG IPC :0.82066: L2-Pf-HR :0.90312: L2-HR :0.87854: (Sim:1h24m31s) 
CPU  0 inst:  258000000 cyc:  314957216 now IPC :0.30764: AVG IPC :0.81535: L2-Pf-HR :0.90279: L2-HR :0.87805: (Sim:1h24m46s) 
CPU  0 inst:  259000000 cyc:  318206317 now IPC :0.30778: AVG IPC :0.81015: L2-Pf-HR :0.90246: L2-HR :0.87757: (Sim:1h25m2s) 
CPU  0 inst:  260000000 cyc:  321454178 now IPC :0.30789: AVG IPC :0.80506: L2-Pf-HR :0.90214: L2-HR :0.87709: (Sim:1h25m17s) 
CPU  0 inst:  261000000 cyc:  324706699 now IPC :0.30745: AVG IPC :0.80006: L2-Pf-HR :0.90181: L2-HR :0.87661: (Sim:1h25m33s) 
CPU  0 inst:  262000000 cyc:  327953833 now IPC :0.30796: AVG IPC :0.79517: L2-Pf-HR :0.90149: L2-HR :0.87614: (Sim:1h25m48s) 
CPU  0 inst:  263000001 cyc:  331203357 now IPC :0.30774: AVG IPC :0.79037: L2-Pf-HR :0.90117: L2-HR :0.87567: (Sim:1h26m4s) 
CPU  0 inst:  264000003 cyc:  334455963 now IPC :0.30745: AVG IPC :0.78566: L2-Pf-HR :0.90085: L2-HR :0.87520: (Sim:1h26m19s) 
CPU  0 inst:  265000000 cyc:  337707879 now IPC :0.30751: AVG IPC :0.78105: L2-Pf-HR :0.90053: L2-HR :0.87473: (Sim:1h26m35s) 
CPU  0 inst:  266000000 cyc:  340956544 now IPC :0.30782: AVG IPC :0.77652: L2-Pf-HR :0.90022: L2-HR :0.87426: (Sim:1h26m50s) 
CPU  0 inst:  267000004 cyc:  344205060 now IPC :0.30783: AVG IPC :0.77209: L2-Pf-HR :0.89990: L2-HR :0.87380: (Sim:1h27m5s) 
CPU  0 inst:  268000000 cyc:  347454567 now IPC :0.30774: AVG IPC :0.76773: L2-Pf-HR :0.89959: L2-HR :0.87334: (Sim:1h27m21s) 
CPU  0 inst:  269000000 cyc:  350705811 now IPC :0.30757: AVG IPC :0.76346: L2-Pf-HR :0.89927: L2-HR :0.87288: (Sim:1h27m36s) 
CPU  0 inst:  270000001 cyc:  353953568 now IPC :0.30791: AVG IPC :0.75926: L2-Pf-HR :0.89896: L2-HR :0.87242: (Sim:1h27m51s) 
CPU  0 inst:  271000000 cyc:  357205334 now IPC :0.30752: AVG IPC :0.75514: L2-Pf-HR :0.89865: L2-HR :0.87197: (Sim:1h28m7s) 
CPU  0 inst:  272000000 cyc:  360456748 now IPC :0.30756: AVG IPC :0.75109: L2-Pf-HR :0.89835: L2-HR :0.87151: (Sim:1h28m23s) 
CPU  0 inst:  273000000 cyc:  363706970 now IPC :0.30767: AVG IPC :0.74712: L2-Pf-HR :0.89804: L2-HR :0.87106: (Sim:1h28m40s) 
CPU  0 inst:  274000000 cyc:  366952819 now IPC :0.30809: AVG IPC :0.74322: L2-Pf-HR :0.89773: L2-HR :0.87061: (Sim:1h28m55s) 
CPU  0 inst:  275000000 cyc:  370203632 now IPC :0.30762: AVG IPC :0.73939: L2-Pf-HR :0.89743: L2-HR :0.87017: (Sim:1h29m11s) 
CPU  0 inst:  276000000 cyc:  373453062 now IPC :0.30775: AVG IPC :0.73562: L2-Pf-HR :0.89712: L2-HR :0.86972: (Sim:1h29m30s) 
CPU  0 inst:  277000000 cyc:  376702617 now IPC :0.30773: AVG IPC :0.73192: L2-Pf-HR :0.89682: L2-HR :0.86928: (Sim:1h30m5s) 
CPU  0 inst:  278000001 cyc:  379955003 now IPC :0.30747: AVG IPC :0.72828: L2-Pf-HR :0.89652: L2-HR :0.86884: (Sim:1h30m40s) 
CPU  0 inst:  279000003 cyc:  383204475 now IPC :0.30774: AVG IPC :0.72471: L2-Pf-HR :0.89622: L2-HR :0.86840: (Sim:1h31m14s) 
CPU  0 inst:  280000000 cyc:  386454284 now IPC :0.30771: AVG IPC :0.72119: L2-Pf-HR :0.89592: L2-HR :0.86796: (Sim:1h31m49s) 
CPU  0 inst:  281000000 cyc:  389703130 now IPC :0.30780: AVG IPC :0.71773: L2-Pf-HR :0.89563: L2-HR :0.86753: (Sim:1h32m24s) 
CPU  0 inst:  282000000 cyc:  392951315 now IPC :0.30786: AVG IPC :0.71434: L2-Pf-HR :0.89533: L2-HR :0.86709: (Sim:1h32m58s) 
CPU  0 inst:  283000000 cyc:  396199149 now IPC :0.30790: AVG IPC :0.71100: L2-Pf-HR :0.89504: L2-HR :0.86666: (Sim:1h33m33s) 
CPU  0 inst:  284000004 cyc:  399447576 now IPC :0.30784: AVG IPC :0.70771: L2-Pf-HR :0.89474: L2-HR :0.86623: (Sim:1h34m8s) 
CPU  0 inst:  285000000 cyc:  402697787 now IPC :0.30767: AVG IPC :0.70447: L2-Pf-HR :0.89445: L2-HR :0.86581: (Sim:1h34m42s) 
CPU  0 inst:  286000003 cyc:  405950879 now IPC :0.30740: AVG IPC :0.70129: L2-Pf-HR :0.89416: L2-HR :0.86538: (Sim:1h35m17s) 
CPU  0 inst:  287000000 cyc:  409199997 now IPC :0.30777: AVG IPC :0.69815: L2-Pf-HR :0.89387: L2-HR :0.86496: (Sim:1h35m52s) 
CPU  0 inst:  288000004 cyc:  412447604 now IPC :0.30792: AVG IPC :0.69507: L2-Pf-HR :0.89358: L2-HR :0.86454: (Sim:1h36m27s) 
CPU  0 inst:  289000000 cyc:  415699576 now IPC :0.30750: AVG IPC :0.69203: L2-Pf-HR :0.89329: L2-HR :0.86411: (Sim:1h37m2s) 
CPU  0 inst:  290000000 cyc:  418947525 now IPC :0.30789: AVG IPC :0.68905: L2-Pf-HR :0.89301: L2-HR :0.86370: (Sim:1h37m36s) 
CPU  0 inst:  291000000 cyc:  422197079 now IPC :0.30773: AVG IPC :0.68611: L2-Pf-HR :0.89272: L2-HR :0.86328: (Sim:1h38m11s) 
CPU  0 inst:  292000000 cyc:  425446287 now IPC :0.30777: AVG IPC :0.68321: L2-Pf-HR :0.89244: L2-HR :0.86287: (Sim:1h38m46s) 
CPU  0 inst:  293000001 cyc:  428695488 now IPC :0.30777: AVG IPC :0.68036: L2-Pf-HR :0.89216: L2-HR :0.86245: (Sim:1h39m21s) 
CPU  0 inst:  294000001 cyc:  431946341 now IPC :0.30761: AVG IPC :0.67755: L2-Pf-HR :0.89187: L2-HR :0.86204: (Sim:1h39m56s) 
CPU  0 inst:  295000000 cyc:  435198972 now IPC :0.30744: AVG IPC :0.67477: L2-Pf-HR :0.89159: L2-HR :0.86163: (Sim:1h40m31s) 
CPU  0 inst:  296000000 cyc:  438448393 now IPC :0.30775: AVG IPC :0.67205: L2-Pf-HR :0.89131: L2-HR :0.86123: (Sim:1h41m5s) 
CPU  0 inst:  297000001 cyc:  439861014 now IPC :0.70790: AVG IPC :0.67216: L2-Pf-HR :0.89096: L2-HR :0.86093: (Sim:1h41m31s) 
CPU  0 inst:  298000000 cyc:  440460347 now IPC :1.66852: AVG IPC :0.67352: L2-Pf-HR :0.89081: L2-HR :0.86088: (Sim:1h41m53s) 
CPU  0 inst:  299000003 cyc:  441064075 now IPC :1.65638: AVG IPC :0.67487: L2-Pf-HR :0.89067: L2-HR :0.86083: (Sim:1h42m16s) 
CPU  0 inst:  300000000 cyc:  441686934 now IPC :1.60549: AVG IPC :0.67619: L2-Pf-HR :0.89051: L2-HR :0.86077: (Sim:1h42m38s) 
CPU  0 inst:  301000000 cyc:  442260843 now IPC :1.74244: AVG IPC :0.67757: L2-Pf-HR :0.89044: L2-HR :0.86077: (Sim:1h43m0s) 
CPU  0 inst:  302000002 cyc:  442764965 now IPC :1.98365: AVG IPC :0.67906: L2-Pf-HR :0.89049: L2-HR :0.86088: (Sim:1h43m22s) 
CPU  0 inst:  303000000 cyc:  443268646 now IPC :1.98538: AVG IPC :0.68055: L2-Pf-HR :0.89054: L2-HR :0.86098: (Sim:1h43m44s) 
CPU  0 inst:  304000005 cyc:  443772697 now IPC :1.98394: AVG IPC :0.68203: L2-Pf-HR :0.89054: L2-HR :0.86106: (Sim:1h44m5s) 
CPU  0 inst:  305000002 cyc:  444297813 now IPC :1.90434: AVG IPC :0.68348: L2-Pf-HR :0.89058: L2-HR :0.86115: (Sim:1h44m27s) 
CPU  0 inst:  306000005 cyc:  444800821 now IPC :1.98805: AVG IPC :0.68496: L2-Pf-HR :0.89072: L2-HR :0.86133: (Sim:1h44m49s) 
CPU  0 inst:  307000004 cyc:  445303439 now IPC :1.98958: AVG IPC :0.68644: L2-Pf-HR :0.89085: L2-HR :0.86149: (Sim:1h45m10s) 
CPU  0 inst:  308000005 cyc:  445806043 now IPC :1.98964: AVG IPC :0.68791: L2-Pf-HR :0.89094: L2-HR :0.86163: (Sim:1h45m32s) 
CPU  0 inst:  309000001 cyc:  446331656 now IPC :1.90253: AVG IPC :0.68934: L2-Pf-HR :0.89099: L2-HR :0.86173: (Sim:1h45m53s) 
CPU  0 inst:  310000001 cyc:  446837359 now IPC :1.97745: AVG IPC :0.69080: L2-Pf-HR :0.89106: L2-HR :0.86184: (Sim:1h46m14s) 
CPU  0 inst:  311000001 cyc:  447340970 now IPC :1.98566: AVG IPC :0.69227: L2-Pf-HR :0.89114: L2-HR :0.86197: (Sim:1h46m36s) 
CPU  0 inst:  312000000 cyc:  447844512 now IPC :1.98593: AVG IPC :0.69372: L2-Pf-HR :0.89124: L2-HR :0.86209: (Sim:1h46m57s) 
CPU  0 inst:  313000002 cyc:  448386286 now IPC :1.84579: AVG IPC :0.69512: L2-Pf-HR :0.89129: L2-HR :0.86219: (Sim:1h47m18s) 
CPU  0 inst:  314000000 cyc:  449007341 now IPC :1.61016: AVG IPC :0.69639: L2-Pf-HR :0.89111: L2-HR :0.86211: (Sim:1h47m41s) 
CPU  0 inst:  315000001 cyc:  449629941 now IPC :1.60617: AVG IPC :0.69765: L2-Pf-HR :0.89096: L2-HR :0.86206: (Sim:1h48m3s) 
CPU  0 inst:  316000000 cyc:  450228417 now IPC :1.67091: AVG IPC :0.69895: L2-Pf-HR :0.89083: L2-HR :0.86202: (Sim:1h48m26s) 
CPU  0 inst:  317000005 cyc:  450830941 now IPC :1.65969: AVG IPC :0.70023: L2-Pf-HR :0.89066: L2-HR :0.86195: (Sim:1h48m48s) 
CPU  0 inst:  318000000 cyc:  451354613 now IPC :1.90958: AVG IPC :0.70164: L2-Pf-HR :0.89070: L2-HR :0.86205: (Sim:1h49m10s) 
CPU  0 inst:  319000004 cyc:  451861386 now IPC :1.97328: AVG IPC :0.70307: L2-Pf-HR :0.89076: L2-HR :0.86217: (Sim:1h49m31s) 
CPU  0 inst:  320000001 cyc:  452368036 now IPC :1.97374: AVG IPC :0.70449: L2-Pf-HR :0.89081: L2-HR :0.86228: (Sim:1h49m53s) 
CPU  0 inst:  321000001 cyc:  452874346 now IPC :1.97507: AVG IPC :0.70592: L2-Pf-HR :0.89081: L2-HR :0.86235: (Sim:1h50m15s) 
CPU  0 inst:  322000003 cyc:  453394596 now IPC :1.92216: AVG IPC :0.70732: L2-Pf-HR :0.89086: L2-HR :0.86245: (Sim:1h50m36s) 
CPU  0 inst:  323000001 cyc:  453897270 now IPC :1.98936: AVG IPC :0.70874: L2-Pf-HR :0.89098: L2-HR :0.86260: (Sim:1h50m58s) 
CPU  0 inst:  324000000 cyc:  454399741 now IPC :1.99016: AVG IPC :0.71016: L2-Pf-HR :0.89109: L2-HR :0.86275: (Sim:1h51m19s) 
CPU  0 inst:  325000002 cyc:  454901999 now IPC :1.99101: AVG IPC :0.71158: L2-Pf-HR :0.89116: L2-HR :0.86286: (Sim:1h51m40s) 
CPU  0 inst:  326000002 cyc:  455421430 now IPC :1.92518: AVG IPC :0.71296: L2-Pf-HR :0.89115: L2-HR :0.86290: (Sim:1h52m2s) 
CPU  0 inst:  327000004 cyc:  455925352 now IPC :1.98444: AVG IPC :0.71437: L2-Pf-HR :0.89122: L2-HR :0.86301: (Sim:1h52m23s) 
CPU  0 inst:  328000002 cyc:  456428913 now IPC :1.98585: AVG IPC :0.71578: L2-Pf-HR :0.89129: L2-HR :0.86311: (Sim:1h52m44s) 
CPU  0 inst:  329000000 cyc:  456932497 now IPC :1.98576: AVG IPC :0.71718: L2-Pf-HR :0.89135: L2-HR :0.86320: (Sim:1h52m56s) 
CPU  0 inst:  330000002 cyc:  457478572 now IPC :1.83125: AVG IPC :0.71851: L2-Pf-HR :0.89127: L2-HR :0.86318: (Sim:1h53m5s) 
CPU  0 inst:  331000005 cyc:  458049449 now IPC :1.75170: AVG IPC :0.71980: L2-Pf-HR :0.89112: L2-HR :0.86312: (Sim:1h53m15s) 
CPU  0 inst:  332000001 cyc:  458620779 now IPC :1.75029: AVG IPC :0.72109: L2-Pf-HR :0.89099: L2-HR :0.86308: (Sim:1h53m25s) 
CPU  0 inst:  333000005 cyc:  459191374 now IPC :1.75256: AVG IPC :0.72237: L2-Pf-HR :0.89086: L2-HR :0.86302: (Sim:1h53m35s) 
CPU  0 inst:  334000001 cyc:  459764671 now IPC :1.74429: AVG IPC :0.72365: L2-Pf-HR :0.89072: L2-HR :0.86297: (Sim:1h53m44s) 
CPU  0 inst:  335000003 cyc:  460268590 now IPC :1.98445: AVG IPC :0.72503: L2-Pf-HR :0.89078: L2-HR :0.86308: (Sim:1h53m54s) 
CPU  0 inst:  336000001 cyc:  460771885 now IPC :1.98690: AVG IPC :0.72642: L2-Pf-HR :0.89083: L2-HR :0.86318: (Sim:1h54m4s) 
CPU  0 inst:  337000003 cyc:  461275418 now IPC :1.98597: AVG IPC :0.72779: L2-Pf-HR :0.89085: L2-HR :0.86326: (Sim:1h54m13s) 
CPU  0 inst:  338000004 cyc:  461782076 now IPC :1.97372: AVG IPC :0.72916: L2-Pf-HR :0.89083: L2-HR :0.86331: (Sim:1h54m23s) 
CPU  0 inst:  339000000 cyc:  462291371 now IPC :1.96349: AVG IPC :0.73053: L2-Pf-HR :0.89093: L2-HR :0.86345: (Sim:1h54m33s) 
CPU  0 inst:  340000001 cyc:  462793478 now IPC :1.99161: AVG IPC :0.73190: L2-Pf-HR :0.89105: L2-HR :0.86359: (Sim:1h54m43s) 
CPU  0 inst:  341000003 cyc:  463295713 now IPC :1.99110: AVG IPC :0.73327: L2-Pf-HR :0.89114: L2-HR :0.86372: (Sim:1h54m52s) 
CPU  0 inst:  342000001 cyc:  463799300 now IPC :1.98575: AVG IPC :0.73463: L2-Pf-HR :0.89117: L2-HR :0.86380: (Sim:1h55m2s) 
CPU  0 inst:  343000000 cyc:  464315692 now IPC :1.93651: AVG IPC :0.73597: L2-Pf-HR :0.89123: L2-HR :0.86390: (Sim:1h55m12s) 
CPU  0 inst:  344000004 cyc:  464819997 now IPC :1.98293: AVG IPC :0.73732: L2-Pf-HR :0.89130: L2-HR :0.86400: (Sim:1h55m21s) 
CPU  0 inst:  345000000 cyc:  465323456 now IPC :1.98625: AVG IPC :0.73868: L2-Pf-HR :0.89136: L2-HR :0.86410: (Sim:1h55m31s) 
CPU  0 inst:  346000001 cyc:  465826613 now IPC :1.98745: AVG IPC :0.74003: L2-Pf-HR :0.89141: L2-HR :0.86419: (Sim:1h55m40s) 
CPU  0 inst:  347000005 cyc:  466394787 now IPC :1.76003: AVG IPC :0.74127: L2-Pf-HR :0.89130: L2-HR :0.86415: (Sim:1h55m50s) 
CPU  0 inst:  348000004 cyc:  466968810 now IPC :1.74209: AVG IPC :0.74251: L2-Pf-HR :0.89114: L2-HR :0.86407: (Sim:1h56m1s) 
CPU  0 inst:  349000000 cyc:  467538276 now IPC :1.75602: AVG IPC :0.74374: L2-Pf-HR :0.89102: L2-HR :0.86403: (Sim:1h56m23s) 
CPU  0 inst:  350000002 cyc:  468110188 now IPC :1.74852: AVG IPC :0.74497: L2-Pf-HR :0.89089: L2-HR :0.86398: (Sim:1h56m45s) 
CPU  0 inst:  351000000 cyc:  468657722 now IPC :1.82637: AVG IPC :0.74624: L2-Pf-HR :0.89082: L2-HR :0.86398: (Sim:1h57m7s) 
CPU  0 inst:  352000002 cyc:  469161853 now IPC :1.98362: AVG IPC :0.74757: L2-Pf-HR :0.89089: L2-HR :0.86409: (Sim:1h57m28s) 
CPU  0 inst:  353000004 cyc:  469665709 now IPC :1.98470: AVG IPC :0.74890: L2-Pf-HR :0.89094: L2-HR :0.86419: (Sim:1h57m50s) 
CPU  0 inst:  354000003 cyc:  470168989 now IPC :1.98696: AVG IPC :0.75023: L2-Pf-HR :0.89097: L2-HR :0.86428: (Sim:1h58m11s) 
CPU  0 inst:  355000005 cyc:  470684094 now IPC :1.94136: AVG IPC :0.75154: L2-Pf-HR :0.89098: L2-HR :0.86434: (Sim:1h58m33s) 
CPU  0 inst:  356000004 cyc:  471186421 now IPC :1.99073: AVG IPC :0.75286: L2-Pf-HR :0.89109: L2-HR :0.86448: (Sim:1h58m54s) 
CPU  0 inst:  357000002 cyc:  471688264 now IPC :1.99265: AVG IPC :0.75418: L2-Pf-HR :0.89122: L2-HR :0.86464: (Sim:1h59m15s) 
CPU  0 inst:  358000003 cyc:  472190321 now IPC :1.99181: AVG IPC :0.75550: L2-Pf-HR :0.89131: L2-HR :0.86477: (Sim:1h59m36s) 
CPU  0 inst:  359000002 cyc:  472705523 now IPC :1.94098: AVG IPC :0.75680: L2-Pf-HR :0.89134: L2-HR :0.86484: (Sim:1h59m58s) 
CPU  0 inst:  360000005 cyc:  473210173 now IPC :1.98158: AVG IPC :0.75811: L2-Pf-HR :0.89140: L2-HR :0.86493: (Sim:2h0m19s) 
CPU  0 inst:  361000004 cyc:  473713770 now IPC :1.98571: AVG IPC :0.75941: L2-Pf-HR :0.89149: L2-HR :0.86506: (Sim:2h0m40s) 
CPU  0 inst:  362000002 cyc:  474217510 now IPC :1.98515: AVG IPC :0.76072: L2-Pf-HR :0.89157: L2-HR :0.86516: (Sim:2h1m1s) 
CPU  0 inst:  363000002 cyc:  474724338 now IPC :1.97306: AVG IPC :0.76201: L2-Pf-HR :0.89160: L2-HR :0.86524: (Sim:2h1m22s) 
CPU  0 inst:  364000001 cyc:  475306548 now IPC :1.71759: AVG IPC :0.76319: L2-Pf-HR :0.89144: L2-HR :0.86515: (Sim:2h1m44s) 
CPU  0 inst:  365000005 cyc:  475878166 now IPC :1.74943: AVG IPC :0.76437: L2-Pf-HR :0.89130: L2-HR :0.86508: (Sim:2h2m6s) 
CPU  0 inst:  366000004 cyc:  476446953 now IPC :1.75813: AVG IPC :0.76556: L2-Pf-HR :0.89118: L2-HR :0.86504: (Sim:2h2m28s) 
CPU  0 inst:  367000000 cyc:  477022271 now IPC :1.73816: AVG IPC :0.76674: L2-Pf-HR :0.89105: L2-HR :0.86498: (Sim:2h2m49s) 
CPU  0 inst:  368000001 cyc:  477553814 now IPC :1.88132: AVG IPC :0.76798: L2-Pf-HR :0.89104: L2-HR :0.86502: (Sim:2h3m11s) 
CPU  0 inst:  369000002 cyc:  478057011 now IPC :1.98730: AVG IPC :0.76927: L2-Pf-HR :0.89109: L2-HR :0.86512: (Sim:2h3m32s) 
CPU  0 inst:  370000003 cyc:  478560708 now IPC :1.98532: AVG IPC :0.77055: L2-Pf-HR :0.89113: L2-HR :0.86520: (Sim:2h3m54s) 
CPU  0 inst:  371000005 cyc:  479064547 now IPC :1.98476: AVG IPC :0.77183: L2-Pf-HR :0.89111: L2-HR :0.86524: (Sim:2h4m15s) 
CPU  0 inst:  372000002 cyc:  479579415 now IPC :1.94224: AVG IPC :0.77309: L2-Pf-HR :0.89114: L2-HR :0.86531: (Sim:2h4m36s) 
CPU  0 inst:  373000002 cyc:  480081861 now IPC :1.99026: AVG IPC :0.77437: L2-Pf-HR :0.89126: L2-HR :0.86545: (Sim:2h4m57s) 
CPU  0 inst:  374000005 cyc:  480584858 now IPC :1.98809: AVG IPC :0.77564: L2-Pf-HR :0.89134: L2-HR :0.86557: (Sim:2h5m19s) 
CPU  0 inst:  375000004 cyc:  481087137 now IPC :1.99092: AVG IPC :0.77691: L2-Pf-HR :0.89138: L2-HR :0.86565: (Sim:2h5m40s) 
CPU  0 inst:  376000000 cyc:  481600898 now IPC :1.94642: AVG IPC :0.77816: L2-Pf-HR :0.89141: L2-HR :0.86572: (Sim:2h6m1s) 
CPU  0 inst:  377000001 cyc:  482104699 now IPC :1.98491: AVG IPC :0.77942: L2-Pf-HR :0.89147: L2-HR :0.86580: (Sim:2h6m22s) 
CPU  0 inst:  378000001 cyc:  482608234 now IPC :1.98596: AVG IPC :0.78069: L2-Pf-HR :0.89154: L2-HR :0.86590: (Sim:2h6m43s) 
CPU  0 inst:  379000000 cyc:  483111944 now IPC :1.98527: AVG IPC :0.78194: L2-Pf-HR :0.89160: L2-HR :0.86599: (Sim:2h7m4s) 
CPU  0 inst:  380000000 cyc:  483646672 now IPC :1.87011: AVG IPC :0.78315: L2-Pf-HR :0.89160: L2-HR :0.86603: (Sim:2h7m26s) 
CPU  0 inst:  381000001 cyc:  484223182 now IPC :1.73458: AVG IPC :0.78428: L2-Pf-HR :0.89144: L2-HR :0.86595: (Sim:2h7m48s) 
CPU  0 inst:  382000005 cyc:  484797248 now IPC :1.74197: AVG IPC :0.78542: L2-Pf-HR :0.89132: L2-HR :0.86589: (Sim:2h8m9s) 
CPU  0 inst:  383000005 cyc:  485367077 now IPC :1.75491: AVG IPC :0.78656: L2-Pf-HR :0.89120: L2-HR :0.86584: (Sim:2h8m31s) 
CPU  0 inst:  384000001 cyc:  485942495 now IPC :1.73786: AVG IPC :0.78769: L2-Pf-HR :0.89108: L2-HR :0.86578: (Sim:2h8m53s) 
CPU  0 inst:  385000003 cyc:  486446928 now IPC :1.98243: AVG IPC :0.78893: L2-Pf-HR :0.89112: L2-HR :0.86587: (Sim:2h9m14s) 
CPU  0 inst:  386000005 cyc:  486950382 now IPC :1.98628: AVG IPC :0.79017: L2-Pf-HR :0.89117: L2-HR :0.86596: (Sim:2h9m36s) 
CPU  0 inst:  387000002 cyc:  487454078 now IPC :1.98532: AVG IPC :0.79141: L2-Pf-HR :0.89121: L2-HR :0.86604: (Sim:2h9m57s) 
CPU  0 inst:  388000001 cyc:  487960067 now IPC :1.97633: AVG IPC :0.79264: L2-Pf-HR :0.89118: L2-HR :0.86607: (Sim:2h10m18s) 
CPU  0 inst:  389000000 cyc:  488470325 now IPC :1.95979: AVG IPC :0.79386: L2-Pf-HR :0.89128: L2-HR :0.86619: (Sim:2h10m31s) 
CPU  0 inst:  390000001 cyc:  488972399 now IPC :1.99174: AVG IPC :0.79509: L2-Pf-HR :0.89139: L2-HR :0.86633: (Sim:2h10m40s) 
CPU  0 inst:  391000004 cyc:  489474792 now IPC :1.99048: AVG IPC :0.79632: L2-Pf-HR :0.89148: L2-HR :0.86645: (Sim:2h10m50s) 
CPU  0 inst:  392000004 cyc:  489977079 now IPC :1.99089: AVG IPC :0.79755: L2-Pf-HR :0.89153: L2-HR :0.86654: (Sim:2h10m59s) 
CPU  0 inst:  393000004 cyc:  490496091 now IPC :1.92674: AVG IPC :0.79875: L2-Pf-HR :0.89154: L2-HR :0.86658: (Sim:2h11m9s) 
CPU  0 inst:  394000000 cyc:  490999936 now IPC :1.98473: AVG IPC :0.79997: L2-Pf-HR :0.89161: L2-HR :0.86667: (Sim:2h11m18s) 
CPU  0 inst:  395000000 cyc:  491503252 now IPC :1.98682: AVG IPC :0.80119: L2-Pf-HR :0.89168: L2-HR :0.86677: (Sim:2h11m34s) 
CPU  0 inst:  396000001 cyc:  492007095 now IPC :1.98475: AVG IPC :0.80240: L2-Pf-HR :0.89175: L2-HR :0.86687: (Sim:2h11m43s) 
CPU  0 inst:  397000002 cyc:  492564049 now IPC :1.79548: AVG IPC :0.80353: L2-Pf-HR :0.89165: L2-HR :0.86683: (Sim:2h11m57s) 
CPU  0 inst:  398000001 cyc:  493136335 now IPC :1.74738: AVG IPC :0.80462: L2-Pf-HR :0.89154: L2-HR :0.86677: (Sim:2h12m7s) 
CPU  0 inst:  399000002 cyc:  493707802 now IPC :1.74988: AVG IPC :0.80572: L2-Pf-HR :0.89142: L2-HR :0.86672: (Sim:2h12m17s) 
CPU  0 inst:  400000005 cyc:  494280286 now IPC :1.74678: AVG IPC :0.80681: L2-Pf-HR :0.89131: L2-HR :0.86667: (Sim:2h12m28s) 
CPU  0 inst:  401000002 cyc:  494840845 now IPC :1.78393: AVG IPC :0.80792: L2-Pf-HR :0.89122: L2-HR :0.86663: (Sim:2h12m38s) 
CPU  0 inst:  402000002 cyc:  495344085 now IPC :1.98712: AVG IPC :0.80912: L2-Pf-HR :0.89127: L2-HR :0.86673: (Sim:2h12m48s) 
CPU  0 inst:  403000003 cyc:  495846874 now IPC :1.98891: AVG IPC :0.81032: L2-Pf-HR :0.89132: L2-HR :0.86681: (Sim:2h13m5s) 
CPU  0 inst:  404000003 cyc:  496349688 now IPC :1.98881: AVG IPC :0.81152: L2-Pf-HR :0.89135: L2-HR :0.86688: (Sim:2h13m28s) 
CPU  0 inst:  405000003 cyc:  496863079 now IPC :1.94783: AVG IPC :0.81269: L2-Pf-HR :0.89133: L2-HR :0.86692: (Sim:2h13m50s) 
CPU  0 inst:  406000005 cyc:  497364956 now IPC :1.99252: AVG IPC :0.81388: L2-Pf-HR :0.89145: L2-HR :0.86706: (Sim:2h14m13s) 
CPU  0 inst:  407000002 cyc:  497866852 now IPC :1.99244: AVG IPC :0.81508: L2-Pf-HR :0.89156: L2-HR :0.86719: (Sim:2h14m35s) 
CPU  0 inst:  408000003 cyc:  498369380 now IPC :1.98994: AVG IPC :0.81626: L2-Pf-HR :0.89162: L2-HR :0.86729: (Sim:2h14m58s) 
CPU  0 inst:  409000005 cyc:  498874449 now IPC :1.97993: AVG IPC :0.81744: L2-Pf-HR :0.89168: L2-HR :0.86738: (Sim:2h15m20s) 
CPU  0 inst:  410000001 cyc:  499386569 now IPC :1.95266: AVG IPC :0.81861: L2-Pf-HR :0.89172: L2-HR :0.86745: (Sim:2h15m42s) 
CPU  0 inst:  411000003 cyc:  499890487 now IPC :1.98445: AVG IPC :0.81979: L2-Pf-HR :0.89180: L2-HR :0.86755: (Sim:2h16m5s) 
CPU  0 inst:  412000005 cyc:  500393794 now IPC :1.98686: AVG IPC :0.82096: L2-Pf-HR :0.89186: L2-HR :0.86763: (Sim:2h16m27s) 
CPU  0 inst:  413000000 cyc:  500897927 now IPC :1.98359: AVG IPC :0.82214: L2-Pf-HR :0.89189: L2-HR :0.86770: (Sim:2h16m49s) 
CPU  0 inst:  414000005 cyc:  501473180 now IPC :1.73837: AVG IPC :0.82319: L2-Pf-HR :0.89179: L2-HR :0.86765: (Sim:2h17m12s) 
CPU  0 inst:  415000005 cyc:  502048574 now IPC :1.73794: AVG IPC :0.82424: L2-Pf-HR :0.89165: L2-HR :0.86757: (Sim:2h17m35s) 
CPU  0 inst:  416000001 cyc:  502621846 now IPC :1.74437: AVG IPC :0.82529: L2-Pf-HR :0.89152: L2-HR :0.86751: (Sim:2h17m58s) 
CPU  0 inst:  417000002 cyc:  503192693 now IPC :1.75178: AVG IPC :0.82634: L2-Pf-HR :0.89141: L2-HR :0.86745: (Sim:2h18m21s) 
CPU  0 inst:  418000002 cyc:  503727999 now IPC :1.86809: AVG IPC :0.82745: L2-Pf-HR :0.89139: L2-HR :0.86747: (Sim:2h18m44s) 
CPU  0 inst:  419000000 cyc:  504231530 now IPC :1.98597: AVG IPC :0.82861: L2-Pf-HR :0.89144: L2-HR :0.86756: (Sim:2h19m6s) 
CPU  0 inst:  420000000 cyc:  504734990 now IPC :1.98626: AVG IPC :0.82977: L2-Pf-HR :0.89148: L2-HR :0.86764: (Sim:2h19m29s) 
CPU  0 inst:  421000002 cyc:  505238697 now IPC :1.98529: AVG IPC :0.83092: L2-Pf-HR :0.89149: L2-HR :0.86769: (Sim:2h19m51s) 
CPU  0 inst:  422000005 cyc:  505752836 now IPC :1.94501: AVG IPC :0.83206: L2-Pf-HR :0.89150: L2-HR :0.86774: (Sim:2h20m14s) 
CPU  0 inst:  423000003 cyc:  506254789 now IPC :1.99221: AVG IPC :0.83321: L2-Pf-HR :0.89160: L2-HR :0.86787: (Sim:2h20m36s) 
CPU  0 inst:  424000000 cyc:  506756987 now IPC :1.99124: AVG IPC :0.83436: L2-Pf-HR :0.89169: L2-HR :0.86798: (Sim:2h20m59s) 
CPU  0 inst:  425000000 cyc:  507259297 now IPC :1.99080: AVG IPC :0.83551: L2-Pf-HR :0.89176: L2-HR :0.86807: (Sim:2h21m21s) 
CPU  0 inst:  426000002 cyc:  507774311 now IPC :1.94170: AVG IPC :0.83663: L2-Pf-HR :0.89177: L2-HR :0.86812: (Sim:2h21m44s) 
CPU  0 inst:  427000001 cyc:  508277586 now IPC :1.98698: AVG IPC :0.83777: L2-Pf-HR :0.89182: L2-HR :0.86820: (Sim:2h22m6s) 
CPU  0 inst:  428000004 cyc:  508781446 now IPC :1.98468: AVG IPC :0.83891: L2-Pf-HR :0.89189: L2-HR :0.86829: (Sim:2h22m22s) 
CPU  0 inst:  429000002 cyc:  509284880 now IPC :1.98635: AVG IPC :0.84005: L2-Pf-HR :0.89195: L2-HR :0.86837: (Sim:2h22m32s) 
CPU  0 inst:  430000002 cyc:  509817568 now IPC :1.87727: AVG IPC :0.84113: L2-Pf-HR :0.89193: L2-HR :0.86839: (Sim:2h22m44s) 
CPU  0 inst:  431000001 cyc:  510390618 now IPC :1.74505: AVG IPC :0.84215: L2-Pf-HR :0.89181: L2-HR :0.86832: (Sim:2h22m57s) 
CPU  0 inst:  432000001 cyc:  510959574 now IPC :1.75761: AVG IPC :0.84317: L2-Pf-HR :0.89170: L2-HR :0.86827: (Sim:2h23m7s) 
CPU  0 inst:  433000004 cyc:  511529969 now IPC :1.75318: AVG IPC :0.84419: L2-Pf-HR :0.89159: L2-HR :0.86821: (Sim:2h23m17s) 
CPU  0 inst:  434000002 cyc:  512110819 now IPC :1.72161: AVG IPC :0.84519: L2-Pf-HR :0.89146: L2-HR :0.86814: (Sim:2h23m27s) 
CPU  0 inst:  435000003 cyc:  512624300 now IPC :1.94749: AVG IPC :0.84629: L2-Pf-HR :0.89150: L2-HR :0.86821: (Sim:2h23m37s) 
CPU  0 inst:  436000002 cyc:  513127703 now IPC :1.98648: AVG IPC :0.84741: L2-Pf-HR :0.89154: L2-HR :0.86829: (Sim:2h23m46s) 
CPU  0 inst:  437000004 cyc:  513631302 now IPC :1.98571: AVG IPC :0.84853: L2-Pf-HR :0.89157: L2-HR :0.86836: (Sim:2h23m56s) 
CPU  0 inst:  438000002 cyc:  514135061 now IPC :1.98507: AVG IPC :0.84965: L2-Pf-HR :0.89155: L2-HR :0.86839: (Sim:2h24m6s) 
CPU  0 inst:  439000005 cyc:  514650199 now IPC :1.94123: AVG IPC :0.85074: L2-Pf-HR :0.89159: L2-HR :0.86846: (Sim:2h24m16s) 
CPU  0 inst:  440000005 cyc:  515153200 now IPC :1.98807: AVG IPC :0.85185: L2-Pf-HR :0.89169: L2-HR :0.86859: (Sim:2h24m33s) 
CPU  0 inst:  441000001 cyc:  515655657 now IPC :1.99021: AVG IPC :0.85296: L2-Pf-HR :0.89178: L2-HR :0.86870: (Sim:2h24m55s) 
CPU  0 inst:  442000001 cyc:  516158251 now IPC :1.98968: AVG IPC :0.85407: L2-Pf-HR :0.89183: L2-HR :0.86878: (Sim:2h25m17s) 
CPU  0 inst:  443000004 cyc:  516676622 now IPC :1.92913: AVG IPC :0.85515: L2-Pf-HR :0.89186: L2-HR :0.86884: (Sim:2h25m38s) 
CPU  0 inst:  444000003 cyc:  517181154 now IPC :1.98203: AVG IPC :0.85626: L2-Pf-HR :0.89195: L2-HR :0.86895: (Sim:2h25m59s) 
CPU  0 inst:  445000001 cyc:  517684428 now IPC :1.98699: AVG IPC :0.85736: L2-Pf-HR :0.89203: L2-HR :0.86905: (Sim:2h26m20s) 
CPU  0 inst:  446000002 cyc:  518188125 now IPC :1.98532: AVG IPC :0.85846: L2-Pf-HR :0.89208: L2-HR :0.86913: (Sim:2h26m41s) 
CPU  0 inst:  447000005 cyc:  518733232 now IPC :1.83451: AVG IPC :0.85948: L2-Pf-HR :0.89205: L2-HR :0.86913: (Sim:2h27m3s) 
CPU  0 inst:  448000002 cyc:  519307734 now IPC :1.74063: AVG IPC :0.86046: L2-Pf-HR :0.89193: L2-HR :0.86907: (Sim:2h27m25s) 
CPU  0 inst:  449000002 cyc:  519885259 now IPC :1.73153: AVG IPC :0.86143: L2-Pf-HR :0.89180: L2-HR :0.86900: (Sim:2h27m46s) 
CPU  0 inst:  450000004 cyc:  520459646 now IPC :1.74099: AVG IPC :0.86240: L2-Pf-HR :0.89170: L2-HR :0.86894: (Sim:2h28m8s) 
CPU  0 inst:  451000004 cyc:  521022466 now IPC :1.77677: AVG IPC :0.86339: L2-Pf-HR :0.89162: L2-HR :0.86892: (Sim:2h28m30s) 
CPU  0 inst:  452000005 cyc:  521525586 now IPC :1.98760: AVG IPC :0.86448: L2-Pf-HR :0.89166: L2-HR :0.86899: (Sim:2h28m51s) 
CPU  0 inst:  453000000 cyc:  522029385 now IPC :1.98491: AVG IPC :0.86556: L2-Pf-HR :0.89169: L2-HR :0.86905: (Sim:2h29m12s) 
CPU  0 inst:  454000002 cyc:  522532916 now IPC :1.98598: AVG IPC :0.86664: L2-Pf-HR :0.89171: L2-HR :0.86910: (Sim:2h29m33s) 
CPU  0 inst:  455000001 cyc:  523047386 now IPC :1.94375: AVG IPC :0.86770: L2-Pf-HR :0.89167: L2-HR :0.86912: (Sim:2h29m55s) 
CPU  0 inst:  456000000 cyc:  523549928 now IPC :1.98988: AVG IPC :0.86878: L2-Pf-HR :0.89176: L2-HR :0.86922: (Sim:2h30m16s) 
CPU  0 inst:  457000000 cyc:  524052142 now IPC :1.99118: AVG IPC :0.86986: L2-Pf-HR :0.89185: L2-HR :0.86933: (Sim:2h30m37s) 
CPU  0 inst:  458000005 cyc:  524554362 now IPC :1.99117: AVG IPC :0.87094: L2-Pf-HR :0.89193: L2-HR :0.86943: (Sim:2h30m58s) 
CPU  0 inst:  459000003 cyc:  525059578 now IPC :1.97935: AVG IPC :0.87201: L2-Pf-HR :0.89194: L2-HR :0.86948: (Sim:2h31m19s) 
CPU  0 inst:  460000001 cyc:  525571760 now IPC :1.95243: AVG IPC :0.87306: L2-Pf-HR :0.89199: L2-HR :0.86955: (Sim:2h31m40s) 
CPU  0 inst:  461000003 cyc:  526075697 now IPC :1.98438: AVG IPC :0.87413: L2-Pf-HR :0.89204: L2-HR :0.86962: (Sim:2h32m1s) 
CPU  0 inst:  462000000 cyc:  526579378 now IPC :1.98538: AVG IPC :0.87519: L2-Pf-HR :0.89210: L2-HR :0.86970: (Sim:2h32m22s) 
CPU  0 inst:  463000005 cyc:  527082981 now IPC :1.98570: AVG IPC :0.87625: L2-Pf-HR :0.89214: L2-HR :0.86977: (Sim:2h32m43s) 
CPU  0 inst:  464000003 cyc:  527659810 now IPC :1.73361: AVG IPC :0.87719: L2-Pf-HR :0.89203: L2-HR :0.86970: (Sim:2h33m5s) 
CPU  0 inst:  465000000 cyc:  528230078 now IPC :1.75356: AVG IPC :0.87814: L2-Pf-HR :0.89192: L2-HR :0.86964: (Sim:2h33m26s) 
CPU  0 inst:  466000001 cyc:  528800718 now IPC :1.75242: AVG IPC :0.87909: L2-Pf-HR :0.89181: L2-HR :0.86958: (Sim:2h33m48s) 
CPU  0 inst:  467000001 cyc:  529373587 now IPC :1.74560: AVG IPC :0.88003: L2-Pf-HR :0.89171: L2-HR :0.86953: (Sim:2h34m10s) 
CPU  0 inst:  468000005 cyc:  529925036 now IPC :1.81341: AVG IPC :0.88100: L2-Pf-HR :0.89166: L2-HR :0.86952: (Sim:2h34m31s) 
CPU  0 inst:  469000004 cyc:  530428490 now IPC :1.98628: AVG IPC :0.88205: L2-Pf-HR :0.89170: L2-HR :0.86959: (Sim:2h34m53s) 
CPU  0 inst:  470000005 cyc:  530932236 now IPC :1.98513: AVG IPC :0.88310: L2-Pf-HR :0.89175: L2-HR :0.86966: (Sim:2h35m14s) 
CPU  0 inst:  471000004 cyc:  531435592 now IPC :1.98666: AVG IPC :0.88415: L2-Pf-HR :0.89177: L2-HR :0.86972: (Sim:2h35m35s) 
CPU  0 inst:  472000001 cyc:  531949770 now IPC :1.94485: AVG IPC :0.88517: L2-Pf-HR :0.89175: L2-HR :0.86975: (Sim:2h35m56s) 
CPU  0 inst:  473000001 cyc:  532451966 now IPC :1.99125: AVG IPC :0.88622: L2-Pf-HR :0.89184: L2-HR :0.86985: (Sim:2h36m18s) 
CPU  0 inst:  474000000 cyc:  532953838 now IPC :1.99254: AVG IPC :0.88726: L2-Pf-HR :0.89192: L2-HR :0.86996: (Sim:2h36m39s) 
CPU  0 inst:  475000001 cyc:  533456322 now IPC :1.99012: AVG IPC :0.88830: L2-Pf-HR :0.89199: L2-HR :0.87004: (Sim:2h37m0s) 
CPU  0 inst:  476000003 cyc:  533970044 now IPC :1.94658: AVG IPC :0.88932: L2-Pf-HR :0.89199: L2-HR :0.87008: (Sim:2h37m21s) 
CPU  0 inst:  477000005 cyc:  534474691 now IPC :1.98159: AVG IPC :0.89036: L2-Pf-HR :0.89204: L2-HR :0.87015: (Sim:2h37m42s) 
CPU  0 inst:  478000000 cyc:  534978055 now IPC :1.98662: AVG IPC :0.89139: L2-Pf-HR :0.89211: L2-HR :0.87024: (Sim:2h38m3s) 
CPU  0 inst:  479000001 cyc:  535481591 now IPC :1.98596: AVG IPC :0.89242: L2-Pf-HR :0.89216: L2-HR :0.87031: (Sim:2h38m24s) 
CPU  0 inst:  480000000 cyc:  535987985 now IPC :1.97474: AVG IPC :0.89344: L2-Pf-HR :0.89219: L2-HR :0.87037: (Sim:2h38m45s) 
CPU  0 inst:  481000001 cyc:  536572473 now IPC :1.71090: AVG IPC :0.89434: L2-Pf-HR :0.89207: L2-HR :0.87030: (Sim:2h39m7s) 
CPU  0 inst:  482000004 cyc:  537148630 now IPC :1.73564: AVG IPC :0.89524: L2-Pf-HR :0.89196: L2-HR :0.87023: (Sim:2h39m28s) 
CPU  0 inst:  483000003 cyc:  537724999 now IPC :1.73500: AVG IPC :0.89614: L2-Pf-HR :0.89185: L2-HR :0.87017: (Sim:2h39m50s) 
CPU  0 inst:  484000000 cyc:  538303996 now IPC :1.72712: AVG IPC :0.89704: L2-Pf-HR :0.89174: L2-HR :0.87010: (Sim:2h40m12s) 
CPU  0 inst:  485000001 cyc:  538819008 now IPC :1.94170: AVG IPC :0.89804: L2-Pf-HR :0.89176: L2-HR :0.87016: (Sim:2h40m33s) 
CPU  0 inst:  486000001 cyc:  539325439 now IPC :1.97460: AVG IPC :0.89905: L2-Pf-HR :0.89179: L2-HR :0.87023: (Sim:2h40m54s) 
CPU  0 inst:  487000005 cyc:  539831958 now IPC :1.97427: AVG IPC :0.90006: L2-Pf-HR :0.89181: L2-HR :0.87028: (Sim:2h41m16s) 
CPU  0 inst:  488000005 cyc:  540338180 now IPC :1.97542: AVG IPC :0.90107: L2-Pf-HR :0.89182: L2-HR :0.87033: (Sim:2h41m37s) 
CPU  0 inst:  489000002 cyc:  540853143 now IPC :1.94188: AVG IPC :0.90206: L2-Pf-HR :0.89185: L2-HR :0.87038: (Sim:2h41m58s) 
CPU  0 inst:  490000002 cyc:  541355407 now IPC :1.99098: AVG IPC :0.90308: L2-Pf-HR :0.89193: L2-HR :0.87048: (Sim:2h42m19s) 
CPU  0 inst:  491000002 cyc:  541857281 now IPC :1.99253: AVG IPC :0.90409: L2-Pf-HR :0.89201: L2-HR :0.87058: (Sim:2h42m40s) 
CPU  0 inst:  492000001 cyc:  542359281 now IPC :1.99203: AVG IPC :0.90510: L2-Pf-HR :0.89206: L2-HR :0.87066: (Sim:2h43m1s) 
CPU  0 inst:  493000003 cyc:  542875722 now IPC :1.93633: AVG IPC :0.90608: L2-Pf-HR :0.89208: L2-HR :0.87070: (Sim:2h43m22s) 
Finished CPU 0 instr: 491000001 cyc: 541895590 AVG IPC: 0.90608 (Sim time: 2h43m22s)

ChampSim completed all CPUs

[ROI Statistics]
Core_0_instructions 491000001
Core_0_cycles 541895590
Core_0_IPC 0.90608

Core_0_branch_prediction_accuracy 99.58586
Core_0_branch_MPKI 0.12051
Core_0_average_ROB_occupancy_at_mispredict 567.89150

Core_0_L1D_total_access 337625990
Core_0_L1D_total_hit 325619349 L1D_total_Hit Ratio: 0.96444
Core_0_L1D_total_miss 12006641
Core_0_L1D_loads 143114924
Core_0_L1D_load_hit 139288775 L1D_load_Hit Ratio: 0.97327
Core_0_L1D_load_miss 3826149
Core_0_L1D_RFOs 12886625
Core_0_L1D_RFO_hit 12136635 L1D_RFO_Hit Ratio: 0.94180
Core_0_L1D_RFO_miss 749990
Core_0_L1D_prefetches 181624441
Core_0_L1D_prefetch_hit 174193939 L1D_prefetch_Hit Ratio: 0.95909
Core_0_L1D_prefetch_miss 7430502
Core_0_L1D_writebacks 0
Core_0_L1D_writeback_hit 0 L1D_writeback_Hit Ratio: -nan
Core_0_L1D_writeback_miss 0
Core_0_L1D_prefetch_requested 433608285
Core_0_L1D_prefetch_issued 220578988
Core_0_L1D_prefetch_useful 5389692 L1D_Useful Ratio: 0.02443
Core_0_L1D_prefetch_useless 2062587
Core_0_L1D_prefetch_late 463699
Core_0_L1D_average_miss_latency 5512238.24756

Core_0_L1I_total_access 77167721
Core_0_L1I_total_hit 77165743 L1I_total_Hit Ratio: 0.99997
Core_0_L1I_total_miss 1978
Core_0_L1I_loads 77167721
Core_0_L1I_load_hit 77165743 L1I_load_Hit Ratio: 0.99997
Core_0_L1I_load_miss 1978
Core_0_L1I_RFOs 0
Core_0_L1I_RFO_hit 0 L1I_RFO_Hit Ratio: -nan
Core_0_L1I_RFO_miss 0
Core_0_L1I_prefetches 0
Core_0_L1I_prefetch_hit 0 L1I_prefetch_Hit Ratio: -nan
Core_0_L1I_prefetch_miss 0
Core_0_L1I_writebacks 0
Core_0_L1I_writeback_hit 0 L1I_writeback_Hit Ratio: -nan
Core_0_L1I_writeback_miss 0
Core_0_L1I_prefetch_requested 0
Core_0_L1I_prefetch_issued 0
Core_0_L1I_prefetch_useful 0 L1I_Useful Ratio: -nan
Core_0_L1I_prefetch_useless 0
Core_0_L1I_prefetch_late 0
Core_0_L1I_average_miss_latency 315.11729

Core_0_L2C_total_access 34928088
Core_0_L2C_total_hit 30411947 L2C_total_Hit Ratio: 0.87070
Core_0_L2C_total_miss 4516141
Core_0_L2C_loads 3366005
Core_0_L2C_load_hit 2612050 L2C_load_Hit Ratio: 0.77601
Core_0_L2C_load_miss 753955
Core_0_L2C_RFOs 749963
Core_0_L2C_RFO_hit 183 L2C_RFO_Hit Ratio: 0.00024
Core_0_L2C_RFO_miss 749780
Core_0_L2C_prefetches 27912735
Core_0_L2C_prefetch_hit 24900358 L2C_prefetch_Hit Ratio: 0.89208
Core_0_L2C_prefetch_miss 3012377
Core_0_L2C_writebacks 2899385
Core_0_L2C_writeback_hit 2899356 L2C_writeback_Hit Ratio: 0.99999
Core_0_L2C_writeback_miss 29
Core_0_L2C_prefetch_requested 56198949
Core_0_L2C_prefetch_issued 30119413
Core_0_L2C_prefetch_useful 830191 L2C_Useful Ratio: 0.02756
Core_0_L2C_prefetch_useless 2143946
Core_0_L2C_prefetch_late 507268
Core_0_L2C_average_miss_latency 276.08330

Core_0_LLC_total_access 6966542
Core_0_LLC_total_hit 2831063 LLC_total_Hit Ratio: 0.40638
Core_0_LLC_total_miss 4135479
Core_0_LLC_loads 246698
Core_0_LLC_load_hit 73716 LLC_load_Hit Ratio: 0.29881
Core_0_LLC_load_miss 172982
Core_0_LLC_RFOs 749780
Core_0_LLC_RFO_hit 113 LLC_RFO_Hit Ratio: 0.00015
Core_0_LLC_RFO_miss 749667
Core_0_LLC_prefetches 3536651
Core_0_LLC_prefetch_hit 334115 LLC_prefetch_Hit Ratio: 0.09447
Core_0_LLC_prefetch_miss 3202536
Core_0_LLC_writebacks 2433413
Core_0_LLC_writeback_hit 2423119 LLC_writeback_Hit Ratio: 0.99577
Core_0_LLC_writeback_miss 10294
Core_0_LLC_prefetch_requested 0
Core_0_LLC_prefetch_issued 0
Core_0_LLC_prefetch_useful 68847 LLC_Useful Ratio: inf
Core_0_LLC_prefetch_useless 3034861
Core_0_LLC_prefetch_late 875
Core_0_LLC_average_miss_latency 296.12175

Core_0_major_page_fault 0
Core_0_minor_page_fault 28665

CPU 0 L1D next line prefetcher final stats
CPU 0 L2C PC-based stride prefetcher final stats
Stride Degree: 15
MK1  MARKOV_LRU_SIZE: 128
MK1  MARKOV_PREDICTION_PERCENTTHRESHOLD: 40.00000
MK1  OUTLIERS_THRESHOLD_Max: 64
MK1  OUTLIERS_THRESHOLD_Min: 32
MK2  MARKOV_LRU_SIZE: 256
MK2  MARKOV_PREDICTION_PERCENTTHRESHOLD: 30.00000
MK2  OUTLIERS_THRESHOLD_Max: 32
MK2  OUTLIERS_THRESHOLD_Min: 16
MK3  MARKOV_LRU_SIZE: 384
MK3  MARKOV_PREDICTION_PERCENTTHRESHOLD: 25.00000
MK3  OUTLIERS_THRESHOLD_Max: 16
MK3  OUTLIERS_THRESHOLD_Min: 8
MK4  MARKOV_LRU_SIZE: 512
MK4  MARKOV_PREDICTION_PERCENTTHRESHOLD: 20.00000
MK4  OUTLIERS_THRESHOLD_Max: 8
MK4  OUTLIERS_THRESHOLD_Min: 0
IPStride Degree/Access Ratio: 3.39713
MK1 IPDEltaMarkov  Degree/Access Ratio: 0.47005
MK2 IPDEltaMarkov  Degree/Access Ratio: 0.09538
MK3 IPDEltaMarkov  Degree/Access Ratio: 0.39444
MK4 IPDEltaMarkov  Degree/Access Ratio: 0.86967
Channel_0_RQ_row_buffer_hit 2057912
Channel_0_RQ_row_buffer_miss 2067273
Channel_0_WQ_row_buffer_hit 705222
Channel_0_WQ_row_buffer_miss 1702403
Channel_0_WQ_full 4368
Channel_0_dbus_congested 3691272

avg_congested_cycle 8

EzSearch AVG IPC :0.90608: L2-Pf-HR :0.89208 : L2-HR :0.87070 Uful:0.02756
     > Finished combination: TraceType=770-tot Sim:491000000 Prefetcher=L2029-SecTOP-L2-MultiMarkovDelta_ip_stride_v4-MK2-P30 L1=next_line
