TRACE: [125000000][OPT-125M]_[h12][s512][d64] Warmup: 2000000 NumTraces: 125000000
L1:ipcp:L2:ipcp
*************************************************
   ChampSim Multicore Out-of-Order Simulator
   Last compiled: Oct 20 2024 04:58:10
*************************************************

trace_0 770-tot_memTraces_v3/memTraces[125000000][OPT-125M]_[h12][s512][d64].champsim.xz
MAIN.cc ln 751 stats print skipped
CPU  0 inst:    1000001 cyc:     502421 now IPC :1.99036: AVG IPC :1.99036: L2-Pf-HR :0.84904: L2-HR :0.77054: (Sim:0h0m4s) 
CPU  0 inst:    2000002 cyc:     976462 now IPC :2.10952: AVG IPC :2.04821: L2-Pf-HR :0.89401: L2-HR :0.80564: (Sim:0h0m8s) 

Warmup complete CPU  0 instructions:    2000002 cycles:     976462 (Simulation time: 0 hr 0 min 8 sec) 

CPU  0 inst:    3000002 cyc:    1663358 now IPC :1.45582: AVG IPC :1.45582: L2-Pf-HR :0.93217: L2-HR :0.83735: (Sim:0h0m13s) 
CPU  0 inst:    4000000 cyc:    2353973 now IPC :1.44798: AVG IPC :1.45189: L2-Pf-HR :0.93526: L2-HR :0.85498: (Sim:0h0m17s) 
CPU  0 inst:    5000003 cyc:    3112602 now IPC :1.31817: AVG IPC :1.40440: L2-Pf-HR :0.92259: L2-HR :0.84481: (Sim:0h0m22s) 
CPU  0 inst:    6000002 cyc:    3839126 now IPC :1.37642: AVG IPC :1.39730: L2-Pf-HR :0.92662: L2-HR :0.84547: (Sim:0h0m26s) 
CPU  0 inst:    7000003 cyc:    4561957 now IPC :1.38345: AVG IPC :1.39451: L2-Pf-HR :0.92719: L2-HR :0.84424: (Sim:0h0m31s) 
CPU  0 inst:    8000000 cyc:    5322694 now IPC :1.31451: AVG IPC :1.38051: L2-Pf-HR :0.92899: L2-HR :0.84793: (Sim:0h0m36s) 
CPU  0 inst:    9000002 cyc:    6158276 now IPC :1.19677: AVG IPC :1.35088: L2-Pf-HR :0.92479: L2-HR :0.84517: (Sim:0h0m40s) 
CPU  0 inst:   10000003 cyc:    6921646 now IPC :1.30998: AVG IPC :1.34563: L2-Pf-HR :0.92639: L2-HR :0.84514: (Sim:0h0m44s) 
CPU  0 inst:   11000002 cyc:    7683925 now IPC :1.31185: AVG IPC :1.34179: L2-Pf-HR :0.92697: L2-HR :0.84473: (Sim:0h0m47s) 
CPU  0 inst:   12000000 cyc:    8444577 now IPC :1.31466: AVG IPC :1.33903: L2-Pf-HR :0.92725: L2-HR :0.84651: (Sim:0h0m50s) 
CPU  0 inst:   13000003 cyc:    9278448 now IPC :1.19923: AVG IPC :1.32498: L2-Pf-HR :0.92481: L2-HR :0.84528: (Sim:0h0m55s) 
CPU  0 inst:   14000002 cyc:   10033974 now IPC :1.32358: AVG IPC :1.32487: L2-Pf-HR :0.92533: L2-HR :0.84495: (Sim:0h0m59s) 
CPU  0 inst:   15000003 cyc:   10788352 now IPC :1.32560: AVG IPC :1.32492: L2-Pf-HR :0.92564: L2-HR :0.84433: (Sim:0h1m4s) 
CPU  0 inst:   16000000 cyc:   11569254 now IPC :1.28057: AVG IPC :1.32165: L2-Pf-HR :0.92620: L2-HR :0.84540: (Sim:0h1m7s) 
CPU  0 inst:   17000001 cyc:   12402169 now IPC :1.20060: AVG IPC :1.31283: L2-Pf-HR :0.92471: L2-HR :0.84502: (Sim:0h1m10s) 
CPU  0 inst:   18000000 cyc:   13151558 now IPC :1.33442: AVG IPC :1.31416: L2-Pf-HR :0.92499: L2-HR :0.84468: (Sim:0h1m14s) 
CPU  0 inst:   19000001 cyc:   13913586 now IPC :1.31229: AVG IPC :1.31405: L2-Pf-HR :0.92542: L2-HR :0.84450: (Sim:0h1m17s) 
CPU  0 inst:   20000000 cyc:   14683185 now IPC :1.29938: AVG IPC :1.31322: L2-Pf-HR :0.92579: L2-HR :0.84510: (Sim:0h1m22s) 
CPU  0 inst:   21000000 cyc:   15516222 now IPC :1.20043: AVG IPC :1.30676: L2-Pf-HR :0.92440: L2-HR :0.84479: (Sim:0h1m27s) 
CPU  0 inst:   22000001 cyc:   16262376 now IPC :1.34021: AVG IPC :1.30839: L2-Pf-HR :0.92494: L2-HR :0.84476: (Sim:0h1m32s) 
CPU  0 inst:   23000000 cyc:   17004376 now IPC :1.34771: AVG IPC :1.31021: L2-Pf-HR :0.92537: L2-HR :0.84468: (Sim:0h1m36s) 
CPU  0 inst:   24000000 cyc:   17775827 now IPC :1.29626: AVG IPC :1.30957: L2-Pf-HR :0.92546: L2-HR :0.84475: (Sim:0h1m41s) 
CPU  0 inst:   25000003 cyc:   18603094 now IPC :1.20880: AVG IPC :1.30484: L2-Pf-HR :0.92456: L2-HR :0.84479: (Sim:0h1m46s) 
CPU  0 inst:   26000002 cyc:   19352429 now IPC :1.33452: AVG IPC :1.30605: L2-Pf-HR :0.92505: L2-HR :0.84473: (Sim:0h1m50s) 
CPU  0 inst:   27000002 cyc:   20102428 now IPC :1.33334: AVG IPC :1.30712: L2-Pf-HR :0.92536: L2-HR :0.84458: (Sim:0h1m53s) 
CPU  0 inst:   28000000 cyc:   20883377 now IPC :1.28049: AVG IPC :1.30608: L2-Pf-HR :0.92563: L2-HR :0.84468: (Sim:0h1m56s) 
CPU  0 inst:   29000003 cyc:   21706563 now IPC :1.21480: AVG IPC :1.30245: L2-Pf-HR :0.92463: L2-HR :0.84483: (Sim:0h1m59s) 
CPU  0 inst:   30000002 cyc:   22458922 now IPC :1.32915: AVG IPC :1.30339: L2-Pf-HR :0.92487: L2-HR :0.84473: (Sim:0h2m3s) 
CPU  0 inst:   31000000 cyc:   23214851 now IPC :1.32287: AVG IPC :1.30405: L2-Pf-HR :0.92511: L2-HR :0.84461: (Sim:0h2m6s) 
CPU  0 inst:   32000000 cyc:   23990989 now IPC :1.28843: AVG IPC :1.30352: L2-Pf-HR :0.92536: L2-HR :0.84459: (Sim:0h2m9s) 
CPU  0 inst:   33000001 cyc:   24765613 now IPC :1.29095: AVG IPC :1.30312: L2-Pf-HR :0.92529: L2-HR :0.84541: (Sim:0h2m12s) 
CPU  0 inst:   34000002 cyc:   25563827 now IPC :1.25280: AVG IPC :1.30148: L2-Pf-HR :0.92494: L2-HR :0.84487: (Sim:0h2m16s) 
CPU  0 inst:   35000002 cyc:   26314218 now IPC :1.33264: AVG IPC :1.30240: L2-Pf-HR :0.92520: L2-HR :0.84482: (Sim:0h2m21s) 
CPU  0 inst:   36000000 cyc:   27073644 now IPC :1.31678: AVG IPC :1.30282: L2-Pf-HR :0.92538: L2-HR :0.84471: (Sim:0h2m25s) 
CPU  0 inst:   37000001 cyc:   27821530 now IPC :1.33710: AVG IPC :1.30378: L2-Pf-HR :0.92562: L2-HR :0.84572: (Sim:0h2m28s) 
CPU  0 inst:   38000001 cyc:   28658928 now IPC :1.19418: AVG IPC :1.30046: L2-Pf-HR :0.92463: L2-HR :0.84488: (Sim:0h2m32s) 
CPU  0 inst:   39000001 cyc:   29417477 now IPC :1.31831: AVG IPC :1.30094: L2-Pf-HR :0.92478: L2-HR :0.84479: (Sim:0h2m35s) 
CPU  0 inst:   40000000 cyc:   30175906 now IPC :1.31851: AVG IPC :1.30139: L2-Pf-HR :0.92499: L2-HR :0.84471: (Sim:0h2m38s) 
CPU  0 inst:   41000002 cyc:   30933285 now IPC :1.32035: AVG IPC :1.30187: L2-Pf-HR :0.92534: L2-HR :0.84550: (Sim:0h2m41s) 
CPU  0 inst:   42000001 cyc:   31769615 now IPC :1.19570: AVG IPC :1.29899: L2-Pf-HR :0.92467: L2-HR :0.84502: (Sim:0h2m44s) 
CPU  0 inst:   43000002 cyc:   32525139 now IPC :1.32359: AVG IPC :1.29958: L2-Pf-HR :0.92472: L2-HR :0.84487: (Sim:0h2m47s) 
CPU  0 inst:   44000000 cyc:   33274979 now IPC :1.33362: AVG IPC :1.30037: L2-Pf-HR :0.92475: L2-HR :0.84467: (Sim:0h2m50s) 
CPU  0 inst:   45000001 cyc:   34047777 now IPC :1.29400: AVG IPC :1.30022: L2-Pf-HR :0.92491: L2-HR :0.84518: (Sim:0h2m54s) 
CPU  0 inst:   46000000 cyc:   34887024 now IPC :1.19154: AVG IPC :1.29753: L2-Pf-HR :0.92433: L2-HR :0.84485: (Sim:0h2m57s) 
CPU  0 inst:   47000001 cyc:   35646682 now IPC :1.31638: AVG IPC :1.29794: L2-Pf-HR :0.92455: L2-HR :0.84479: (Sim:0h3m1s) 
CPU  0 inst:   48000000 cyc:   36402010 now IPC :1.32393: AVG IPC :1.29850: L2-Pf-HR :0.92470: L2-HR :0.84468: (Sim:0h3m4s) 
CPU  0 inst:   49000001 cyc:   37167520 now IPC :1.30632: AVG IPC :1.29866: L2-Pf-HR :0.92488: L2-HR :0.84507: (Sim:0h3m9s) 
CPU  0 inst:   50000003 cyc:   40924212 now IPC :0.26619: AVG IPC :1.20157: L2-Pf-HR :0.89565: L2-HR :0.82874: (Sim:0h3m18s) 
CPU  0 inst:   51000001 cyc:   47427941 now IPC :0.15376: AVG IPC :1.05486: L2-Pf-HR :0.84684: L2-HR :0.80305: (Sim:0h3m28s) 
CPU  0 inst:   52000000 cyc:   51658476 now IPC :0.23638: AVG IPC :0.98654: L2-Pf-HR :0.83285: L2-HR :0.79448: (Sim:0h3m36s) 
CPU  0 inst:   53000000 cyc:   55196087 now IPC :0.28268: AVG IPC :0.94062: L2-Pf-HR :0.82871: L2-HR :0.79082: (Sim:0h3m45s) 
CPU  0 inst:   54000002 cyc:   58725862 now IPC :0.28330: AVG IPC :0.90044: L2-Pf-HR :0.82462: L2-HR :0.78723: (Sim:0h3m54s) 
CPU  0 inst:   55000001 cyc:   62253758 now IPC :0.28345: AVG IPC :0.86492: L2-Pf-HR :0.82057: L2-HR :0.78370: (Sim:0h4m3s) 
CPU  0 inst:   56000000 cyc:   65783998 now IPC :0.28327: AVG IPC :0.83324: L2-Pf-HR :0.81658: L2-HR :0.78023: (Sim:0h4m11s) 
CPU  0 inst:   57000003 cyc:   69314111 now IPC :0.28328: AVG IPC :0.80483: L2-Pf-HR :0.81264: L2-HR :0.77683: (Sim:0h4m20s) 
CPU  0 inst:   58000000 cyc:   72841594 now IPC :0.28349: AVG IPC :0.77924: L2-Pf-HR :0.80875: L2-HR :0.77349: (Sim:0h4m29s) 
CPU  0 inst:   59000000 cyc:   76371404 now IPC :0.28330: AVG IPC :0.75602: L2-Pf-HR :0.80491: L2-HR :0.77021: (Sim:0h4m37s) 
CPU  0 inst:   60000000 cyc:   79900742 now IPC :0.28334: AVG IPC :0.73488: L2-Pf-HR :0.80112: L2-HR :0.76699: (Sim:0h4m46s) 
CPU  0 inst:   61000002 cyc:   83429112 now IPC :0.28342: AVG IPC :0.71556: L2-Pf-HR :0.79737: L2-HR :0.76382: (Sim:0h4m55s) 
CPU  0 inst:   62000000 cyc:   86959086 now IPC :0.28329: AVG IPC :0.69782: L2-Pf-HR :0.79367: L2-HR :0.76071: (Sim:0h5m4s) 
CPU  0 inst:   63000000 cyc:   90486336 now IPC :0.28351: AVG IPC :0.68149: L2-Pf-HR :0.79001: L2-HR :0.75765: (Sim:0h5m13s) 
CPU  0 inst:   64000000 cyc:   94013438 now IPC :0.28352: AVG IPC :0.66640: L2-Pf-HR :0.78640: L2-HR :0.75465: (Sim:0h5m22s) 
CPU  0 inst:   65000002 cyc:   97543541 now IPC :0.28328: AVG IPC :0.65240: L2-Pf-HR :0.78283: L2-HR :0.75169: (Sim:0h5m31s) 
CPU  0 inst:   66000000 cyc:  101074644 now IPC :0.28320: AVG IPC :0.63937: L2-Pf-HR :0.77931: L2-HR :0.74878: (Sim:0h5m40s) 
CPU  0 inst:   67000000 cyc:  104606442 now IPC :0.28314: AVG IPC :0.62723: L2-Pf-HR :0.77582: L2-HR :0.74592: (Sim:0h5m49s) 
CPU  0 inst:   68000000 cyc:  108133894 now IPC :0.28349: AVG IPC :0.61592: L2-Pf-HR :0.77237: L2-HR :0.74311: (Sim:0h5m57s) 
CPU  0 inst:   69000002 cyc:  111663732 now IPC :0.28330: AVG IPC :0.60531: L2-Pf-HR :0.76897: L2-HR :0.74035: (Sim:0h6m6s) 
CPU  0 inst:   70000000 cyc:  115194237 now IPC :0.28325: AVG IPC :0.59535: L2-Pf-HR :0.76561: L2-HR :0.73762: (Sim:0h6m15s) 
CPU  0 inst:   71000000 cyc:  118724292 now IPC :0.28328: AVG IPC :0.58600: L2-Pf-HR :0.76227: L2-HR :0.73495: (Sim:0h6m24s) 
CPU  0 inst:   72000000 cyc:  122255409 now IPC :0.28320: AVG IPC :0.57718: L2-Pf-HR :0.75899: L2-HR :0.73231: (Sim:0h6m33s) 
CPU  0 inst:   73000000 cyc:  125785653 now IPC :0.28327: AVG IPC :0.56887: L2-Pf-HR :0.75574: L2-HR :0.72972: (Sim:0h6m42s) 
CPU  0 inst:   74000001 cyc:  129313508 now IPC :0.28346: AVG IPC :0.56102: L2-Pf-HR :0.75252: L2-HR :0.72716: (Sim:0h6m51s) 
CPU  0 inst:   75000000 cyc:  132845610 now IPC :0.28312: AVG IPC :0.55358: L2-Pf-HR :0.74934: L2-HR :0.72465: (Sim:0h7m0s) 
CPU  0 inst:   76000000 cyc:  134745441 now IPC :0.52636: AVG IPC :0.55319: L2-Pf-HR :0.75205: L2-HR :0.72768: (Sim:0h7m7s) 
CPU  0 inst:   77000002 cyc:  135413148 now IPC :1.49767: AVG IPC :0.55788: L2-Pf-HR :0.75911: L2-HR :0.73486: (Sim:0h7m12s) 
CPU  0 inst:   78000001 cyc:  136066331 now IPC :1.53096: AVG IPC :0.56259: L2-Pf-HR :0.76571: L2-HR :0.74161: (Sim:0h7m17s) 
CPU  0 inst:   79000001 cyc:  136645416 now IPC :1.72686: AVG IPC :0.56756: L2-Pf-HR :0.77206: L2-HR :0.74814: (Sim:0h7m21s) 
CPU  0 inst:   80000000 cyc:  137321792 now IPC :1.47847: AVG IPC :0.57208: L2-Pf-HR :0.77734: L2-HR :0.75381: (Sim:0h7m26s) 
CPU  0 inst:   81000000 cyc:  137960747 now IPC :1.56506: AVG IPC :0.57671: L2-Pf-HR :0.78287: L2-HR :0.75958: (Sim:0h7m31s) 
CPU  0 inst:   82000001 cyc:  138586626 now IPC :1.59775: AVG IPC :0.58135: L2-Pf-HR :0.78799: L2-HR :0.76498: (Sim:0h7m36s) 
CPU  0 inst:   83000002 cyc:  139161518 now IPC :1.73946: AVG IPC :0.58617: L2-Pf-HR :0.79281: L2-HR :0.77012: (Sim:0h7m41s) 
CPU  0 inst:   84000000 cyc:  139781072 now IPC :1.61406: AVG IPC :0.59076: L2-Pf-HR :0.79689: L2-HR :0.77465: (Sim:0h7m46s) 
CPU  0 inst:   85000003 cyc:  140409569 now IPC :1.59110: AVG IPC :0.59527: L2-Pf-HR :0.80118: L2-HR :0.77926: (Sim:0h7m51s) 
CPU  0 inst:   86000003 cyc:  141041115 now IPC :1.58342: AVG IPC :0.59972: L2-Pf-HR :0.80509: L2-HR :0.78354: (Sim:0h7m55s) 
CPU  0 inst:   87000000 cyc:  141615685 now IPC :1.74043: AVG IPC :0.60438: L2-Pf-HR :0.80891: L2-HR :0.78772: (Sim:0h8m0s) 
CPU  0 inst:   88000000 cyc:  142218644 now IPC :1.65849: AVG IPC :0.60888: L2-Pf-HR :0.81213: L2-HR :0.79140: (Sim:0h8m5s) 
CPU  0 inst:   89000000 cyc:  142850313 now IPC :1.58311: AVG IPC :0.61322: L2-Pf-HR :0.81550: L2-HR :0.79514: (Sim:0h8m10s) 
CPU  0 inst:   90000002 cyc:  143476461 now IPC :1.59707: AVG IPC :0.61754: L2-Pf-HR :0.81887: L2-HR :0.79884: (Sim:0h8m15s) 
CPU  0 inst:   91000000 cyc:  144069672 now IPC :1.68574: AVG IPC :0.62197: L2-Pf-HR :0.82158: L2-HR :0.80199: (Sim:0h8m20s) 
CPU  0 inst:   92000000 cyc:  144645527 now IPC :1.73655: AVG IPC :0.62644: L2-Pf-HR :0.82451: L2-HR :0.80530: (Sim:0h8m23s) 
CPU  0 inst:   93000001 cyc:  145293492 now IPC :1.54329: AVG IPC :0.63056: L2-Pf-HR :0.82706: L2-HR :0.80825: (Sim:0h8m26s) 
CPU  0 inst:   94000002 cyc:  145917851 now IPC :1.60164: AVG IPC :0.63474: L2-Pf-HR :0.82977: L2-HR :0.81130: (Sim:0h8m30s) 
CPU  0 inst:   95000001 cyc:  146521945 now IPC :1.65537: AVG IPC :0.63898: L2-Pf-HR :0.83191: L2-HR :0.81389: (Sim:0h8m33s) 
CPU  0 inst:   96000000 cyc:  147096192 now IPC :1.74141: AVG IPC :0.64331: L2-Pf-HR :0.83430: L2-HR :0.81664: (Sim:0h8m36s) 
CPU  0 inst:   97000000 cyc:  147729511 now IPC :1.57898: AVG IPC :0.64735: L2-Pf-HR :0.83646: L2-HR :0.81916: (Sim:0h8m39s) 
CPU  0 inst:   98000000 cyc:  148359330 now IPC :1.58776: AVG IPC :0.65136: L2-Pf-HR :0.83867: L2-HR :0.82171: (Sim:0h8m43s) 
CPU  0 inst:   99000001 cyc:  148968213 now IPC :1.64235: AVG IPC :0.65544: L2-Pf-HR :0.84049: L2-HR :0.82393: (Sim:0h8m46s) 
CPU  0 inst:  100000000 cyc:  149541947 now IPC :1.74297: AVG IPC :0.65964: L2-Pf-HR :0.84249: L2-HR :0.82627: (Sim:0h8m49s) 
CPU  0 inst:  101000001 cyc:  150174005 now IPC :1.58213: AVG IPC :0.66355: L2-Pf-HR :0.84435: L2-HR :0.82847: (Sim:0h8m52s) 
CPU  0 inst:  102000000 cyc:  150802257 now IPC :1.59172: AVG IPC :0.66744: L2-Pf-HR :0.84621: L2-HR :0.83065: (Sim:0h8m56s) 
CPU  0 inst:  103000002 cyc:  151423951 now IPC :1.60851: AVG IPC :0.67133: L2-Pf-HR :0.84770: L2-HR :0.83251: (Sim:0h8m59s) 
CPU  0 inst:  104000000 cyc:  151999185 now IPC :1.73842: AVG IPC :0.67540: L2-Pf-HR :0.84946: L2-HR :0.83458: (Sim:0h9m2s) 
CPU  0 inst:  105000001 cyc:  152610983 now IPC :1.63453: AVG IPC :0.67926: L2-Pf-HR :0.85103: L2-HR :0.83646: (Sim:0h9m5s) 
CPU  0 inst:  106000003 cyc:  153246663 now IPC :1.57312: AVG IPC :0.68300: L2-Pf-HR :0.85259: L2-HR :0.83832: (Sim:0h9m8s) 
CPU  0 inst:  107000000 cyc:  153874898 now IPC :1.59176: AVG IPC :0.68673: L2-Pf-HR :0.85390: L2-HR :0.83996: (Sim:0h9m12s) 
CPU  0 inst:  108000000 cyc:  154449368 now IPC :1.74073: AVG IPC :0.69068: L2-Pf-HR :0.85541: L2-HR :0.84176: (Sim:0h9m15s) 
CPU  0 inst:  109000003 cyc:  155061303 now IPC :1.63417: AVG IPC :0.69442: L2-Pf-HR :0.85675: L2-HR :0.84339: (Sim:0h9m19s) 
CPU  0 inst:  110000003 cyc:  155697377 now IPC :1.57214: AVG IPC :0.69803: L2-Pf-HR :0.85805: L2-HR :0.84498: (Sim:0h9m24s) 
CPU  0 inst:  111000001 cyc:  156329253 now IPC :1.58259: AVG IPC :0.70163: L2-Pf-HR :0.85925: L2-HR :0.84647: (Sim:0h9m29s) 
CPU  0 inst:  112000000 cyc:  156906038 now IPC :1.73375: AVG IPC :0.70545: L2-Pf-HR :0.86056: L2-HR :0.84805: (Sim:0h9m34s) 
CPU  0 inst:  113000000 cyc:  157495184 now IPC :1.69737: AVG IPC :0.70918: L2-Pf-HR :0.86181: L2-HR :0.84955: (Sim:0h9m38s) 
CPU  0 inst:  114000003 cyc:  158137904 now IPC :1.55589: AVG IPC :0.71264: L2-Pf-HR :0.86284: L2-HR :0.85088: (Sim:0h9m41s) 
CPU  0 inst:  115000003 cyc:  158761123 now IPC :1.60457: AVG IPC :0.71617: L2-Pf-HR :0.86408: L2-HR :0.85235: (Sim:0h9m45s) 
CPU  0 inst:  116000000 cyc:  159355734 now IPC :1.68177: AVG IPC :0.71979: L2-Pf-HR :0.86510: L2-HR :0.85363: (Sim:0h9m48s) 
CPU  0 inst:  117000000 cyc:  159929419 now IPC :1.74312: AVG IPC :0.72348: L2-Pf-HR :0.86624: L2-HR :0.85501: (Sim:0h9m51s) 
CPU  0 inst:  118000000 cyc:  160578151 now IPC :1.54147: AVG IPC :0.72681: L2-Pf-HR :0.86705: L2-HR :0.85610: (Sim:0h9m54s) 
CPU  0 inst:  119000001 cyc:  161204731 now IPC :1.59597: AVG IPC :0.73021: L2-Pf-HR :0.86813: L2-HR :0.85740: (Sim:0h9m58s) 
CPU  0 inst:  120000000 cyc:  161809378 now IPC :1.65386: AVG IPC :0.73368: L2-Pf-HR :0.86908: L2-HR :0.85857: (Sim:0h10m1s) 
CPU  0 inst:  121000002 cyc:  162384131 now IPC :1.73988: AVG IPC :0.73726: L2-Pf-HR :0.87007: L2-HR :0.85978: (Sim:0h10m4s) 
CPU  0 inst:  122000002 cyc:  163021832 now IPC :1.56813: AVG IPC :0.74053: L2-Pf-HR :0.87080: L2-HR :0.86078: (Sim:0h10m7s) 
Finished CPU 0 instr: 120000000 cyc: 162045370 AVG IPC: 0.74053 (Sim time: 0h10m7s)

ChampSim completed all CPUs

[ROI Statistics]
Core_0_instructions 120000000
Core_0_cycles 162045370
Core_0_IPC 0.74053

Core_0_branch_prediction_accuracy 99.19469
Core_0_branch_MPKI 0.24154
Core_0_average_ROB_occupancy_at_mispredict 236.12158

Core_0_L1D_total_access 61315956
Core_0_L1D_total_hit 56341625 L1D_total_Hit Ratio: 0.91887
Core_0_L1D_total_miss 4974331
Core_0_L1D_loads 32877056
Core_0_L1D_load_hit 30770953 L1D_load_Hit Ratio: 0.93594
Core_0_L1D_load_miss 2106103
Core_0_L1D_RFOs 3273439
Core_0_L1D_RFO_hit 3092761 L1D_RFO_Hit Ratio: 0.94480
Core_0_L1D_RFO_miss 180678
Core_0_L1D_prefetches 25165461
Core_0_L1D_prefetch_hit 22477911 L1D_prefetch_Hit Ratio: 0.89320
Core_0_L1D_prefetch_miss 2687550
Core_0_L1D_writebacks 0
Core_0_L1D_writeback_hit 0 L1D_writeback_Hit Ratio: -nan
Core_0_L1D_writeback_miss 0
Core_0_L1D_prefetch_requested 60446887
Core_0_L1D_prefetch_issued 33462667
Core_0_L1D_prefetch_useful 2443294 L1D_Useful Ratio: 0.07302
Core_0_L1D_prefetch_useless 270234
Core_0_L1D_prefetch_late 193417
Core_0_L1D_average_miss_latency 1919513.87949

Core_0_L1I_total_access 30430664
Core_0_L1I_total_hit 30425712 L1I_total_Hit Ratio: 0.99984
Core_0_L1I_total_miss 4952
Core_0_L1I_loads 30430664
Core_0_L1I_load_hit 30425712 L1I_load_Hit Ratio: 0.99984
Core_0_L1I_load_miss 4952
Core_0_L1I_RFOs 0
Core_0_L1I_RFO_hit 0 L1I_RFO_Hit Ratio: -nan
Core_0_L1I_RFO_miss 0
Core_0_L1I_prefetches 0
Core_0_L1I_prefetch_hit 0 L1I_prefetch_Hit Ratio: -nan
Core_0_L1I_prefetch_miss 0
Core_0_L1I_writebacks 0
Core_0_L1I_writeback_hit 0 L1I_writeback_Hit Ratio: -nan
Core_0_L1I_writeback_miss 0
Core_0_L1I_prefetch_requested 0
Core_0_L1I_prefetch_issued 0
Core_0_L1I_prefetch_useful 0 L1I_Useful Ratio: -nan
Core_0_L1I_prefetch_useless 0
Core_0_L1I_prefetch_late 0
Core_0_L1I_average_miss_latency 296.22557

Core_0_L2C_total_access 9484686
Core_0_L2C_total_hit 8164202 L2C_total_Hit Ratio: 0.86078
Core_0_L2C_total_miss 1320484
Core_0_L2C_loads 1917701
Core_0_L2C_load_hit 1604760 L2C_load_Hit Ratio: 0.83681
Core_0_L2C_load_miss 312941
Core_0_L2C_RFOs 180671
Core_0_L2C_RFO_hit 32646 L2C_RFO_Hit Ratio: 0.18069
Core_0_L2C_RFO_miss 148025
Core_0_L2C_prefetches 6639993
Core_0_L2C_prefetch_hit 5782131 L2C_prefetch_Hit Ratio: 0.87080
Core_0_L2C_prefetch_miss 857862
Core_0_L2C_writebacks 746321
Core_0_L2C_writeback_hit 744665 L2C_writeback_Hit Ratio: 0.99778
Core_0_L2C_writeback_miss 1656
Core_0_L2C_prefetch_requested 7624905
Core_0_L2C_prefetch_issued 7477418
Core_0_L2C_prefetch_useful 130153 L2C_Useful Ratio: 0.01741
Core_0_L2C_prefetch_useless 730920
Core_0_L2C_prefetch_late 6428
Core_0_L2C_average_miss_latency 268.66715

Core_0_LLC_total_access 2037768
Core_0_LLC_total_hit 972191 LLC_total_Hit Ratio: 0.47709
Core_0_LLC_total_miss 1065577
Core_0_LLC_loads 306643
Core_0_LLC_load_hit 75811 LLC_load_Hit Ratio: 0.24723
Core_0_LLC_load_miss 230832
Core_0_LLC_RFOs 148021
Core_0_LLC_RFO_hit 267 LLC_RFO_Hit Ratio: 0.00180
Core_0_LLC_RFO_miss 147754
Core_0_LLC_prefetches 864162
Core_0_LLC_prefetch_hit 177377 LLC_prefetch_Hit Ratio: 0.20526
Core_0_LLC_prefetch_miss 686785
Core_0_LLC_writebacks 718942
Core_0_LLC_writeback_hit 718736 LLC_writeback_Hit Ratio: 0.99971
Core_0_LLC_writeback_miss 206
Core_0_LLC_prefetch_requested 0
Core_0_LLC_prefetch_issued 0
Core_0_LLC_prefetch_useful 20148 LLC_Useful Ratio: inf
Core_0_LLC_prefetch_useless 645810
Core_0_LLC_prefetch_late 0
Core_0_LLC_average_miss_latency 295.50191

Core_0_major_page_fault 0
Core_0_minor_page_fault 8629


Channel_0_RQ_row_buffer_hit 533830
Channel_0_RQ_row_buffer_miss 531541
Channel_0_WQ_row_buffer_hit 190376
Channel_0_WQ_row_buffer_miss 423373
Channel_0_WQ_full 0
Channel_0_dbus_congested 885960

avg_congested_cycle 11

EzSearch AVG IPC :0.74053: L2-Pf-HR :0.87080 : L2-HR :0.86078 Uful:0.01741
     > Finished combination: TraceType=770-tot Sim:120000000 Prefetcher=L2ipcp L1=ipcp
