TRACE: [662000000][OPT-350M]_[h16][s1024][d64] Warmup: 2000000 NumTraces: 662000000
L1:next_line:L2:029-SecTOP-L2-MultiMarkovDelta_ip_stride_v4-IPStrS256
*************************************************
   ChampSim Multicore Out-of-Order Simulator
   Last compiled: Oct 26 2024 23:06:13
*************************************************

trace_0 770-tot_memTraces_v3/memTraces[662000000][OPT-350M]_[h16][s1024][d64].champsim.xz
CPU 0 L1D next line prefetcher
MK1: Size: 128 TMAX: 64 TMIN: 32 MKPTHRESH: 40
MK2: Size: 256 TMAX: 32 TMIN: 16 MK2PTHRESH: 30
MK3: Size: 384 TMAX: 16 TMIN: 8 MK3PTHRESH: 25
MK4: Size: 512 TMAX: 8 TMIN: 0 MK4PTHRESH: 20
Stride Size: 256 Prefetch Degree: 15

CPU 0 L2C prefetcher
MAIN.cc ln 751 stats print skipped
CPU 0 L2C prefetcher initialized


Cache Size: 4096
number of cache lines: 65536
CPU  0 inst:    1000001 cyc:     498083 now IPC :2.00770: AVG IPC :2.00770: L2-Pf-HR :0.91130: L2-HR :0.88985: (Sim:0h0m21s) 
CPU  0 inst:    2000000 cyc:     980667 now IPC :2.07218: AVG IPC :2.03943: L2-Pf-HR :0.94055: L2-HR :0.92906: (Sim:0h0m42s) 

Warmup complete CPU  0 instructions:    2000001 cycles:     980668 (Simulation time: 0 hr 0 min 42 sec) 

CPU  0 inst:    3000001 cyc:    1465982 now IPC :2.06052: AVG IPC :2.06052: L2-Pf-HR :0.90833: L2-HR :0.91958: (Sim:0h1m0s) 
CPU  0 inst:    4000002 cyc:    1939334 now IPC :2.11259: AVG IPC :2.08623: L2-Pf-HR :0.91856: L2-HR :0.92848: (Sim:0h1m17s) 
CPU  0 inst:    5000003 cyc:    2411979 now IPC :2.11575: AVG IPC :2.09598: L2-Pf-HR :0.92443: L2-HR :0.93348: (Sim:0h1m34s) 
CPU  0 inst:    6000004 cyc:    2882374 now IPC :2.12587: AVG IPC :2.10338: L2-Pf-HR :0.93528: L2-HR :0.94236: (Sim:0h1m52s) 
CPU  0 inst:    7000001 cyc:    3446340 now IPC :1.77315: AVG IPC :2.02784: L2-Pf-HR :0.92953: L2-HR :0.93476: (Sim:0h2m10s) 
CPU  0 inst:    8000001 cyc:    3901676 now IPC :2.19618: AVG IPC :2.05409: L2-Pf-HR :0.93092: L2-HR :0.93708: (Sim:0h2m27s) 
CPU  0 inst:    9000000 cyc:    4356195 now IPC :2.20013: AVG IPC :2.07375: L2-Pf-HR :0.93256: L2-HR :0.93929: (Sim:0h2m44s) 
CPU  0 inst:   10000004 cyc:    4811970 now IPC :2.19407: AVG IPC :2.08806: L2-Pf-HR :0.93413: L2-HR :0.94118: (Sim:0h3m1s) 
CPU  0 inst:   11000005 cyc:    5265404 now IPC :2.20539: AVG IPC :2.10048: L2-Pf-HR :0.93571: L2-HR :0.94297: (Sim:0h3m19s) 
CPU  0 inst:   12000005 cyc:    5719700 now IPC :2.20121: AVG IPC :2.11014: L2-Pf-HR :0.94013: L2-HR :0.94696: (Sim:0h3m36s) 
CPU  0 inst:   13000004 cyc:    6239404 now IPC :1.92417: AVG IPC :2.09176: L2-Pf-HR :0.93816: L2-HR :0.94467: (Sim:0h3m53s) 
CPU  0 inst:   14000001 cyc:    6692773 now IPC :2.20570: AVG IPC :2.10080: L2-Pf-HR :0.93822: L2-HR :0.94510: (Sim:0h4m1s) 
CPU  0 inst:   15000005 cyc:    7146814 now IPC :2.20245: AVG IPC :2.10829: L2-Pf-HR :0.93873: L2-HR :0.94582: (Sim:0h4m10s) 
CPU  0 inst:   16000000 cyc:    7601834 now IPC :2.19769: AVG IPC :2.11443: L2-Pf-HR :0.94058: L2-HR :0.94757: (Sim:0h4m19s) 
CPU  0 inst:   17000005 cyc:    8170559 now IPC :1.75833: AVG IPC :2.08626: L2-Pf-HR :0.93808: L2-HR :0.94441: (Sim:0h4m27s) 
CPU  0 inst:   18000000 cyc:    8639692 now IPC :2.13158: AVG IPC :2.08904: L2-Pf-HR :0.93787: L2-HR :0.94430: (Sim:0h4m35s) 
CPU  0 inst:   19000001 cyc:    9106587 now IPC :2.14181: AVG IPC :2.09207: L2-Pf-HR :0.93796: L2-HR :0.94444: (Sim:0h4m43s) 
CPU  0 inst:   20000005 cyc:    9571553 now IPC :2.15070: AVG IPC :2.09524: L2-Pf-HR :0.93820: L2-HR :0.94470: (Sim:0h4m51s) 
CPU  0 inst:   21000000 cyc:   10037673 now IPC :2.14536: AVG IPC :2.09782: L2-Pf-HR :0.93846: L2-HR :0.94497: (Sim:0h4m59s) 
CPU  0 inst:   22000004 cyc:   10503575 now IPC :2.14638: AVG IPC :2.10020: L2-Pf-HR :0.94020: L2-HR :0.94641: (Sim:0h5m7s) 
CPU  0 inst:   23000002 cyc:   11064306 now IPC :1.78338: AVG IPC :2.08258: L2-Pf-HR :0.93904: L2-HR :0.94485: (Sim:0h5m15s) 
CPU  0 inst:   24000002 cyc:   11522140 now IPC :2.18420: AVG IPC :2.08700: L2-Pf-HR :0.93896: L2-HR :0.94499: (Sim:0h5m23s) 
CPU  0 inst:   25000005 cyc:   11978440 now IPC :2.19155: AVG IPC :2.09133: L2-Pf-HR :0.93906: L2-HR :0.94528: (Sim:0h5m31s) 
CPU  0 inst:   26000002 cyc:   12434788 now IPC :2.19130: AVG IPC :2.09532: L2-Pf-HR :0.93928: L2-HR :0.94564: (Sim:0h5m38s) 
CPU  0 inst:   27000003 cyc:   12890646 now IPC :2.19367: AVG IPC :2.09908: L2-Pf-HR :0.93957: L2-HR :0.94603: (Sim:0h5m46s) 
CPU  0 inst:   28000003 cyc:   13342728 now IPC :2.21199: AVG IPC :2.10321: L2-Pf-HR :0.94094: L2-HR :0.94731: (Sim:0h5m54s) 
CPU  0 inst:   29000004 cyc:   13885934 now IPC :1.84092: AVG IPC :2.09217: L2-Pf-HR :0.94041: L2-HR :0.94662: (Sim:0h6m2s) 
CPU  0 inst:   30000005 cyc:   14341173 now IPC :2.19665: AVG IPC :2.09573: L2-Pf-HR :0.94043: L2-HR :0.94679: (Sim:0h6m10s) 
CPU  0 inst:   31000003 cyc:   14796140 now IPC :2.19796: AVG IPC :2.09910: L2-Pf-HR :0.94046: L2-HR :0.94696: (Sim:0h6m18s) 
CPU  0 inst:   32000000 cyc:   15249389 now IPC :2.20629: AVG IPC :2.10250: L2-Pf-HR :0.94110: L2-HR :0.94761: (Sim:0h6m26s) 
CPU  0 inst:   33000000 cyc:   15859298 now IPC :1.63959: AVG IPC :2.08353: L2-Pf-HR :0.94019: L2-HR :0.94634: (Sim:0h6m34s) 
CPU  0 inst:   34000003 cyc:   16336902 now IPC :2.09379: AVG IPC :2.08384: L2-Pf-HR :0.94003: L2-HR :0.94623: (Sim:0h6m42s) 
CPU  0 inst:   35000001 cyc:   16808711 now IPC :2.11950: AVG IPC :2.08491: L2-Pf-HR :0.93999: L2-HR :0.94623: (Sim:0h6m50s) 
CPU  0 inst:   36000005 cyc:   17277485 now IPC :2.13323: AVG IPC :2.08630: L2-Pf-HR :0.93996: L2-HR :0.94623: (Sim:0h6m58s) 
CPU  0 inst:   37000003 cyc:   17747312 now IPC :2.12844: AVG IPC :2.08748: L2-Pf-HR :0.94008: L2-HR :0.94635: (Sim:0h7m6s) 
CPU  0 inst:   38000004 cyc:   18216654 now IPC :2.13064: AVG IPC :2.08865: L2-Pf-HR :0.94084: L2-HR :0.94696: (Sim:0h7m14s) 
CPU  0 inst:   39000000 cyc:   18823379 now IPC :1.64819: AVG IPC :2.07368: L2-Pf-HR :0.94046: L2-HR :0.94627: (Sim:0h7m23s) 
CPU  0 inst:   40000002 cyc:   19287568 now IPC :2.15430: AVG IPC :2.07572: L2-Pf-HR :0.94028: L2-HR :0.94623: (Sim:0h7m31s) 
CPU  0 inst:   41000000 cyc:   19743349 now IPC :2.19403: AVG IPC :2.07859: L2-Pf-HR :0.94032: L2-HR :0.94638: (Sim:0h7m39s) 
CPU  0 inst:   42000001 cyc:   20201391 now IPC :2.18321: AVG IPC :2.08109: L2-Pf-HR :0.94039: L2-HR :0.94655: (Sim:0h7m47s) 
CPU  0 inst:   43000004 cyc:   20658291 now IPC :2.18867: AVG IPC :2.08359: L2-Pf-HR :0.94054: L2-HR :0.94677: (Sim:0h7m54s) 
CPU  0 inst:   44000000 cyc:   21115844 now IPC :2.18553: AVG IPC :2.08590: L2-Pf-HR :0.94123: L2-HR :0.94743: (Sim:0h8m4s) 
CPU  0 inst:   45000005 cyc:   21669846 now IPC :1.80506: AVG IPC :2.07838: L2-Pf-HR :0.94112: L2-HR :0.94716: (Sim:0h8m22s) 
CPU  0 inst:   46000002 cyc:   22127640 now IPC :2.18438: AVG IPC :2.08068: L2-Pf-HR :0.94106: L2-HR :0.94721: (Sim:0h8m39s) 
CPU  0 inst:   47000005 cyc:   22581484 now IPC :2.20341: AVG IPC :2.08325: L2-Pf-HR :0.94106: L2-HR :0.94731: (Sim:0h8m56s) 
CPU  0 inst:   48000001 cyc:   23035251 now IPC :2.20377: AVG IPC :2.08573: L2-Pf-HR :0.94132: L2-HR :0.94761: (Sim:0h9m13s) 
CPU  0 inst:   49000003 cyc:   23642128 now IPC :1.64778: AVG IPC :2.07401: L2-Pf-HR :0.94088: L2-HR :0.94693: (Sim:0h9m31s) 
CPU  0 inst:   50000003 cyc:   24115955 now IPC :2.11047: AVG IPC :2.07475: L2-Pf-HR :0.94069: L2-HR :0.94679: (Sim:0h9m49s) 
CPU  0 inst:   51000002 cyc:   24589978 now IPC :2.10960: AVG IPC :2.07545: L2-Pf-HR :0.94066: L2-HR :0.94678: (Sim:0h10m6s) 
CPU  0 inst:   52000000 cyc:   25066296 now IPC :2.09943: AVG IPC :2.07593: L2-Pf-HR :0.94066: L2-HR :0.94679: (Sim:0h10m23s) 
CPU  0 inst:   53000003 cyc:   25540997 now IPC :2.10660: AVG IPC :2.07652: L2-Pf-HR :0.94068: L2-HR :0.94682: (Sim:0h10m41s) 
CPU  0 inst:   54000000 cyc:   26014165 now IPC :2.11341: AVG IPC :2.07722: L2-Pf-HR :0.94109: L2-HR :0.94717: (Sim:0h10m58s) 
CPU  0 inst:   55000001 cyc:   26617912 now IPC :1.65632: AVG IPC :2.06730: L2-Pf-HR :0.94098: L2-HR :0.94682: (Sim:0h11m16s) 
CPU  0 inst:   56000001 cyc:   27082084 now IPC :2.15437: AVG IPC :2.06885: L2-Pf-HR :0.94084: L2-HR :0.94677: (Sim:0h11m34s) 
CPU  0 inst:   57000004 cyc:   27540097 now IPC :2.18335: AVG IPC :2.07083: L2-Pf-HR :0.94086: L2-HR :0.94687: (Sim:0h11m51s) 
CPU  0 inst:   58000005 cyc:   27995732 now IPC :2.19474: AVG IPC :2.07292: L2-Pf-HR :0.94088: L2-HR :0.94696: (Sim:0h12m8s) 
CPU  0 inst:   59000005 cyc:   28453675 now IPC :2.18368: AVG IPC :2.07476: L2-Pf-HR :0.94094: L2-HR :0.94709: (Sim:0h12m25s) 
CPU  0 inst:   60000005 cyc:   28910634 now IPC :2.18838: AVG IPC :2.07662: L2-Pf-HR :0.94134: L2-HR :0.94749: (Sim:0h12m42s) 
CPU  0 inst:   61000005 cyc:   29459245 now IPC :1.82279: AVG IPC :2.07173: L2-Pf-HR :0.94140: L2-HR :0.94740: (Sim:0h13m0s) 
CPU  0 inst:   62000000 cyc:   29919049 now IPC :2.17483: AVG IPC :2.07337: L2-Pf-HR :0.94132: L2-HR :0.94740: (Sim:0h13m17s) 
CPU  0 inst:   63000001 cyc:   30375848 now IPC :2.18915: AVG IPC :2.07517: L2-Pf-HR :0.94133: L2-HR :0.94748: (Sim:0h13m34s) 
CPU  0 inst:   64000001 cyc:   30832661 now IPC :2.18908: AVG IPC :2.07691: L2-Pf-HR :0.94143: L2-HR :0.94763: (Sim:0h13m51s) 
CPU  0 inst:   65000005 cyc:   31432695 now IPC :1.66658: AVG IPC :2.06883: L2-Pf-HR :0.94125: L2-HR :0.94726: (Sim:0h14m10s) 
CPU  0 inst:   66000003 cyc:   31915348 now IPC :2.07188: AVG IPC :2.06888: L2-Pf-HR :0.94104: L2-HR :0.94709: (Sim:0h14m27s) 
CPU  0 inst:   67000001 cyc:   32389945 now IPC :2.10705: AVG IPC :2.06945: L2-Pf-HR :0.94100: L2-HR :0.94707: (Sim:0h14m44s) 
CPU  0 inst:   68000005 cyc:   32867763 now IPC :2.09286: AVG IPC :2.06980: L2-Pf-HR :0.94096: L2-HR :0.94705: (Sim:0h15m2s) 
CPU  0 inst:   69000000 cyc:   33340811 now IPC :2.11394: AVG IPC :2.07045: L2-Pf-HR :0.94096: L2-HR :0.94707: (Sim:0h15m19s) 
CPU  0 inst:   70000004 cyc:   33813542 now IPC :2.11538: AVG IPC :2.07109: L2-Pf-HR :0.94121: L2-HR :0.94727: (Sim:0h15m37s) 
CPU  0 inst:   71000005 cyc:   34414521 now IPC :1.66395: AVG IPC :2.06378: L2-Pf-HR :0.94130: L2-HR :0.94714: (Sim:0h15m55s) 
CPU  0 inst:   72000002 cyc:   34884736 now IPC :2.12668: AVG IPC :2.06465: L2-Pf-HR :0.94104: L2-HR :0.94699: (Sim:0h16m12s) 
CPU  0 inst:   73000002 cyc:   35343117 now IPC :2.18159: AVG IPC :2.06621: L2-Pf-HR :0.94108: L2-HR :0.94707: (Sim:0h16m29s) 
CPU  0 inst:   74000002 cyc:   35798855 now IPC :2.19424: AVG IPC :2.06788: L2-Pf-HR :0.94109: L2-HR :0.94715: (Sim:0h16m46s) 
CPU  0 inst:   75000003 cyc:   36254474 now IPC :2.19482: AVG IPC :2.06952: L2-Pf-HR :0.94110: L2-HR :0.94722: (Sim:0h17m3s) 
CPU  0 inst:   76000000 cyc:   36712227 now IPC :2.18458: AVG IPC :2.07100: L2-Pf-HR :0.94136: L2-HR :0.94748: (Sim:0h17m20s) 
CPU  0 inst:   77000002 cyc:   37263024 now IPC :1.81555: AVG IPC :2.06712: L2-Pf-HR :0.94155: L2-HR :0.94754: (Sim:0h17m38s) 
CPU  0 inst:   78000001 cyc:   37725815 now IPC :2.16080: AVG IPC :2.06830: L2-Pf-HR :0.94145: L2-HR :0.94751: (Sim:0h17m55s) 
CPU  0 inst:   79000000 cyc:   38181651 now IPC :2.19377: AVG IPC :2.06984: L2-Pf-HR :0.94143: L2-HR :0.94755: (Sim:0h18m13s) 
CPU  0 inst:   80000005 cyc:   38636140 now IPC :2.20028: AVG IPC :2.07141: L2-Pf-HR :0.94150: L2-HR :0.94766: (Sim:0h18m30s) 
CPU  0 inst:   81000005 cyc:   39216750 now IPC :1.72233: AVG IPC :2.06611: L2-Pf-HR :0.94147: L2-HR :0.94747: (Sim:0h18m47s) 
CPU  0 inst:   82000000 cyc:   39703012 now IPC :2.05649: AVG IPC :2.06599: L2-Pf-HR :0.94122: L2-HR :0.94726: (Sim:0h19m5s) 
CPU  0 inst:   83000004 cyc:   40175874 now IPC :2.11479: AVG IPC :2.06658: L2-Pf-HR :0.94120: L2-HR :0.94725: (Sim:0h19m13s) 
CPU  0 inst:   84000005 cyc:   40650219 now IPC :2.10817: AVG IPC :2.06708: L2-Pf-HR :0.94119: L2-HR :0.94725: (Sim:0h19m21s) 
CPU  0 inst:   85000003 cyc:   41124306 now IPC :2.10931: AVG IPC :2.06758: L2-Pf-HR :0.94119: L2-HR :0.94725: (Sim:0h19m30s) 
CPU  0 inst:   86000001 cyc:   41598422 now IPC :2.10918: AVG IPC :2.06806: L2-Pf-HR :0.94133: L2-HR :0.94737: (Sim:0h19m38s) 
CPU  0 inst:   87000000 cyc:   42150175 now IPC :1.81240: AVG IPC :2.06463: L2-Pf-HR :0.94159: L2-HR :0.94746: (Sim:0h19m46s) 
CPU  0 inst:   88000003 cyc:   42651738 now IPC :1.99377: AVG IPC :2.06378: L2-Pf-HR :0.94125: L2-HR :0.94718: (Sim:0h19m54s) 
CPU  0 inst:   89000000 cyc:   43112716 now IPC :2.16929: AVG IPC :2.06494: L2-Pf-HR :0.94125: L2-HR :0.94723: (Sim:0h20m2s) 
CPU  0 inst:   90000004 cyc:   43570272 now IPC :2.18553: AVG IPC :2.06623: L2-Pf-HR :0.94126: L2-HR :0.94729: (Sim:0h20m10s) 
CPU  0 inst:   91000004 cyc:   44024508 now IPC :2.20150: AVG IPC :2.06766: L2-Pf-HR :0.94130: L2-HR :0.94737: (Sim:0h20m18s) 
CPU  0 inst:   92000004 cyc:   44480986 now IPC :2.19069: AVG IPC :2.06895: L2-Pf-HR :0.94143: L2-HR :0.94753: (Sim:0h20m26s) 
CPU  0 inst:   93000005 cyc:   45000048 now IPC :1.92655: AVG IPC :2.06727: L2-Pf-HR :0.94175: L2-HR :0.94773: (Sim:0h20m34s) 
CPU  0 inst:   94000002 cyc:   45477838 now IPC :2.09296: AVG IPC :2.06755: L2-Pf-HR :0.94152: L2-HR :0.94757: (Sim:0h20m49s) 
CPU  0 inst:   95000003 cyc:   45932389 now IPC :2.19998: AVG IPC :2.06889: L2-Pf-HR :0.94152: L2-HR :0.94761: (Sim:0h21m7s) 
CPU  0 inst:   96000004 cyc:   46389176 now IPC :2.18921: AVG IPC :2.07010: L2-Pf-HR :0.94154: L2-HR :0.94767: (Sim:0h21m24s) 
CPU  0 inst:   97000002 cyc:   46929278 now IPC :1.85150: AVG IPC :2.06753: L2-Pf-HR :0.94171: L2-HR :0.94774: (Sim:0h21m43s) 
CPU  0 inst:   98000003 cyc:   47466869 now IPC :1.86015: AVG IPC :2.06513: L2-Pf-HR :0.94135: L2-HR :0.94738: (Sim:0h22m1s) 
CPU  0 inst:   99000001 cyc:   47938959 now IPC :2.11824: AVG IPC :2.06566: L2-Pf-HR :0.94131: L2-HR :0.94735: (Sim:0h22m19s) 
CPU  0 inst:  100000002 cyc:   48411190 now IPC :2.11761: AVG IPC :2.06618: L2-Pf-HR :0.94130: L2-HR :0.94736: (Sim:0h22m37s) 
CPU  0 inst:  101000000 cyc:   48886745 now IPC :2.10280: AVG IPC :2.06654: L2-Pf-HR :0.94131: L2-HR :0.94737: (Sim:0h22m55s) 
CPU  0 inst:  102000001 cyc:   49362380 now IPC :2.10245: AVG IPC :2.06690: L2-Pf-HR :0.94138: L2-HR :0.94743: (Sim:0h23m13s) 
CPU  0 inst:  103000003 cyc:   49836310 now IPC :2.11002: AVG IPC :2.06732: L2-Pf-HR :0.94181: L2-HR :0.94779: (Sim:0h23m30s) 
CPU  0 inst:  104000001 cyc:   50436881 now IPC :1.66508: AVG IPC :2.06243: L2-Pf-HR :0.94137: L2-HR :0.94731: (Sim:0h23m49s) 
CPU  0 inst:  105000005 cyc:   50895326 now IPC :2.18130: AVG IPC :2.06352: L2-Pf-HR :0.94135: L2-HR :0.94734: (Sim:0h24m7s) 
CPU  0 inst:  106000002 cyc:   51356291 now IPC :2.16936: AVG IPC :2.06449: L2-Pf-HR :0.94137: L2-HR :0.94739: (Sim:0h24m25s) 
CPU  0 inst:  107000002 cyc:   51811566 now IPC :2.19647: AVG IPC :2.06567: L2-Pf-HR :0.94139: L2-HR :0.94745: (Sim:0h24m42s) 
CPU  0 inst:  108000002 cyc:   52266791 now IPC :2.19672: AVG IPC :2.06684: L2-Pf-HR :0.94147: L2-HR :0.94756: (Sim:0h25m0s) 
CPU  0 inst:  109000000 cyc:   52727589 now IPC :2.17014: AVG IPC :2.06776: L2-Pf-HR :0.94191: L2-HR :0.94794: (Sim:0h25m17s) 
CPU  0 inst:  110000002 cyc:   53274766 now IPC :1.82757: AVG IPC :2.06524: L2-Pf-HR :0.94160: L2-HR :0.94763: (Sim:0h25m36s) 
CPU  0 inst:  111000002 cyc:   53731788 now IPC :2.18808: AVG IPC :2.06631: L2-Pf-HR :0.94159: L2-HR :0.94766: (Sim:0h25m53s) 
CPU  0 inst:  112000003 cyc:   54186607 now IPC :2.19868: AVG IPC :2.06744: L2-Pf-HR :0.94160: L2-HR :0.94770: (Sim:0h26m11s) 
CPU  0 inst:  113000000 cyc:   54641214 now IPC :2.19970: AVG IPC :2.06856: L2-Pf-HR :0.94190: L2-HR :0.94799: (Sim:0h26m29s) 
CPU  0 inst:  114000003 cyc:   55254578 now IPC :1.63036: AVG IPC :2.06361: L2-Pf-HR :0.94146: L2-HR :0.94748: (Sim:0h26m48s) 
CPU  0 inst:  115000000 cyc:   55728739 now IPC :2.10898: AVG IPC :2.06400: L2-Pf-HR :0.94142: L2-HR :0.94745: (Sim:0h27m5s) 
CPU  0 inst:  116000002 cyc:   56197288 now IPC :2.13425: AVG IPC :2.06460: L2-Pf-HR :0.94140: L2-HR :0.94745: (Sim:0h27m23s) 
CPU  0 inst:  117000000 cyc:   56671096 now IPC :2.11056: AVG IPC :2.06499: L2-Pf-HR :0.94140: L2-HR :0.94746: (Sim:0h27m41s) 
CPU  0 inst:  118000001 cyc:   57143801 now IPC :2.11549: AVG IPC :2.06541: L2-Pf-HR :0.94144: L2-HR :0.94749: (Sim:0h27m59s) 
CPU  0 inst:  119000001 cyc:   57615144 now IPC :2.12160: AVG IPC :2.06588: L2-Pf-HR :0.94178: L2-HR :0.94777: (Sim:0h28m17s) 
CPU  0 inst:  120000002 cyc:   58199928 now IPC :1.71003: AVG IPC :2.06224: L2-Pf-HR :0.94147: L2-HR :0.94741: (Sim:0h28m35s) 
CPU  0 inst:  121000002 cyc:   58658044 now IPC :2.18285: AVG IPC :2.06320: L2-Pf-HR :0.94143: L2-HR :0.94742: (Sim:0h28m53s) 
CPU  0 inst:  122000003 cyc:   59116435 now IPC :2.18155: AVG IPC :2.06413: L2-Pf-HR :0.94146: L2-HR :0.94747: (Sim:0h29m11s) 
CPU  0 inst:  123000000 cyc:   59574700 now IPC :2.18214: AVG IPC :2.06506: L2-Pf-HR :0.94148: L2-HR :0.94753: (Sim:0h29m29s) 
CPU  0 inst:  124000000 cyc:   60029542 now IPC :2.19857: AVG IPC :2.06609: L2-Pf-HR :0.94153: L2-HR :0.94760: (Sim:0h29m46s) 
CPU  0 inst:  125000000 cyc:   60484412 now IPC :2.19843: AVG IPC :2.06710: L2-Pf-HR :0.94185: L2-HR :0.94790: (Sim:0h30m4s) 
CPU  0 inst:  126000001 cyc:   61039140 now IPC :1.80269: AVG IPC :2.06465: L2-Pf-HR :0.94164: L2-HR :0.94767: (Sim:0h30m22s) 
CPU  0 inst:  127000004 cyc:   61497017 now IPC :2.18400: AVG IPC :2.06556: L2-Pf-HR :0.94164: L2-HR :0.94770: (Sim:0h30m40s) 
CPU  0 inst:  128000005 cyc:   61953075 now IPC :2.19271: AVG IPC :2.06651: L2-Pf-HR :0.94165: L2-HR :0.94774: (Sim:0h30m58s) 
CPU  0 inst:  129000004 cyc:   62410785 now IPC :2.18479: AVG IPC :2.06739: L2-Pf-HR :0.94186: L2-HR :0.94794: (Sim:0h31m15s) 
CPU  0 inst:  130000000 cyc:   63030410 now IPC :1.61387: AVG IPC :2.06286: L2-Pf-HR :0.94154: L2-HR :0.94755: (Sim:0h31m34s) 
CPU  0 inst:  131000001 cyc:   63504782 now IPC :2.10805: AVG IPC :2.06320: L2-Pf-HR :0.94149: L2-HR :0.94752: (Sim:0h31m52s) 
CPU  0 inst:  132000005 cyc:   63979999 now IPC :2.10431: AVG IPC :2.06351: L2-Pf-HR :0.94148: L2-HR :0.94752: (Sim:0h32m10s) 
CPU  0 inst:  133000000 cyc:   64454975 now IPC :2.10536: AVG IPC :2.06383: L2-Pf-HR :0.94147: L2-HR :0.94752: (Sim:0h32m28s) 
CPU  0 inst:  134000004 cyc:   64932078 now IPC :2.09599: AVG IPC :2.06407: L2-Pf-HR :0.94149: L2-HR :0.94754: (Sim:0h32m46s) 
CPU  0 inst:  135000002 cyc:   65407304 now IPC :2.10426: AVG IPC :2.06436: L2-Pf-HR :0.94175: L2-HR :0.94775: (Sim:0h33m4s) 
CPU  0 inst:  136000000 cyc:   66013424 now IPC :1.64983: AVG IPC :2.06050: L2-Pf-HR :0.94155: L2-HR :0.94749: (Sim:0h33m23s) 
CPU  0 inst:  137000000 cyc:   66473234 now IPC :2.17481: AVG IPC :2.06130: L2-Pf-HR :0.94151: L2-HR :0.94748: (Sim:0h33m40s) 
CPU  0 inst:  138000004 cyc:   66930558 now IPC :2.18664: AVG IPC :2.06217: L2-Pf-HR :0.94151: L2-HR :0.94752: (Sim:0h33m58s) 
CPU  0 inst:  139000001 cyc:   67389162 now IPC :2.18052: AVG IPC :2.06299: L2-Pf-HR :0.94153: L2-HR :0.94756: (Sim:0h34m16s) 
CPU  0 inst:  140000005 cyc:   67846218 now IPC :2.18792: AVG IPC :2.06384: L2-Pf-HR :0.94157: L2-HR :0.94763: (Sim:0h34m34s) 
CPU  0 inst:  141000005 cyc:   68300785 now IPC :2.19990: AVG IPC :2.06476: L2-Pf-HR :0.94183: L2-HR :0.94786: (Sim:0h34m51s) 
CPU  0 inst:  142000003 cyc:   68854765 now IPC :1.80512: AVG IPC :2.06264: L2-Pf-HR :0.94169: L2-HR :0.94770: (Sim:0h35m10s) 
CPU  0 inst:  143000000 cyc:   69308516 now IPC :2.20385: AVG IPC :2.06358: L2-Pf-HR :0.94170: L2-HR :0.94774: (Sim:0h35m27s) 
CPU  0 inst:  144000002 cyc:   69765441 now IPC :2.18855: AVG IPC :2.06441: L2-Pf-HR :0.94169: L2-HR :0.94776: (Sim:0h35m45s) 
CPU  0 inst:  145000000 cyc:   70218818 now IPC :2.20567: AVG IPC :2.06534: L2-Pf-HR :0.94183: L2-HR :0.94791: (Sim:0h36m3s) 
CPU  0 inst:  146000003 cyc:   70827090 now IPC :1.64401: AVG IPC :2.06167: L2-Pf-HR :0.94160: L2-HR :0.94761: (Sim:0h36m21s) 
CPU  0 inst:  147000001 cyc:   71299099 now IPC :2.11860: AVG IPC :2.06205: L2-Pf-HR :0.94156: L2-HR :0.94758: (Sim:0h36m39s) 
CPU  0 inst:  148000003 cyc:   71771643 now IPC :2.11621: AVG IPC :2.06241: L2-Pf-HR :0.94154: L2-HR :0.94758: (Sim:0h36m57s) 
CPU  0 inst:  149000000 cyc:   72247517 now IPC :2.10139: AVG IPC :2.06267: L2-Pf-HR :0.94152: L2-HR :0.94757: (Sim:0h37m15s) 
CPU  0 inst:  150000004 cyc:   72725183 now IPC :2.09352: AVG IPC :2.06288: L2-Pf-HR :0.94155: L2-HR :0.94759: (Sim:0h37m33s) 
CPU  0 inst:  151000000 cyc:   73201243 now IPC :2.10057: AVG IPC :2.06312: L2-Pf-HR :0.94174: L2-HR :0.94774: (Sim:0h37m51s) 
CPU  0 inst:  152000000 cyc:   73812888 now IPC :1.63494: AVG IPC :2.05953: L2-Pf-HR :0.94160: L2-HR :0.94754: (Sim:0h38m10s) 
CPU  0 inst:  153000001 cyc:   74277245 now IPC :2.15352: AVG IPC :2.06012: L2-Pf-HR :0.94157: L2-HR :0.94754: (Sim:0h38m28s) 
CPU  0 inst:  154000002 cyc:   74734946 now IPC :2.18483: AVG IPC :2.06090: L2-Pf-HR :0.94158: L2-HR :0.94757: (Sim:0h38m45s) 
CPU  0 inst:  155000001 cyc:   75191619 now IPC :2.18975: AVG IPC :2.06169: L2-Pf-HR :0.94157: L2-HR :0.94760: (Sim:0h39m3s) 
CPU  0 inst:  156000004 cyc:   75650418 now IPC :2.17961: AVG IPC :2.06241: L2-Pf-HR :0.94161: L2-HR :0.94765: (Sim:0h39m21s) 
CPU  0 inst:  157000003 cyc:   76107515 now IPC :2.18772: AVG IPC :2.06318: L2-Pf-HR :0.94180: L2-HR :0.94783: (Sim:0h39m38s) 
CPU  0 inst:  158000000 cyc:   76661258 now IPC :1.80589: AVG IPC :2.06129: L2-Pf-HR :0.94173: L2-HR :0.94774: (Sim:0h39m57s) 
CPU  0 inst:  159000003 cyc:   77120107 now IPC :2.17937: AVG IPC :2.06201: L2-Pf-HR :0.94172: L2-HR :0.94775: (Sim:0h40m14s) 
CPU  0 inst:  160000005 cyc:   77576569 now IPC :2.19077: AVG IPC :2.06277: L2-Pf-HR :0.94172: L2-HR :0.94777: (Sim:0h40m32s) 
CPU  0 inst:  161000002 cyc:   78032471 now IPC :2.19345: AVG IPC :2.06355: L2-Pf-HR :0.94180: L2-HR :0.94787: (Sim:0h40m50s) 
CPU  0 inst:  162000000 cyc:   78637806 now IPC :1.65197: AVG IPC :2.06034: L2-Pf-HR :0.94165: L2-HR :0.94765: (Sim:0h41m9s) 
CPU  0 inst:  163000001 cyc:   79113670 now IPC :2.10144: AVG IPC :2.06059: L2-Pf-HR :0.94159: L2-HR :0.94761: (Sim:0h41m27s) 
CPU  0 inst:  164000005 cyc:   79584076 now IPC :2.12583: AVG IPC :2.06098: L2-Pf-HR :0.94158: L2-HR :0.94760: (Sim:0h41m45s) 
CPU  0 inst:  165000003 cyc:   80057945 now IPC :2.11028: AVG IPC :2.06127: L2-Pf-HR :0.94157: L2-HR :0.94760: (Sim:0h42m3s) 
CPU  0 inst:  166000004 cyc:   80530644 now IPC :2.11551: AVG IPC :2.06160: L2-Pf-HR :0.94157: L2-HR :0.94761: (Sim:0h42m20s) 
CPU  0 inst:  167000005 cyc:   81004458 now IPC :2.11053: AVG IPC :2.06189: L2-Pf-HR :0.94171: L2-HR :0.94772: (Sim:0h42m38s) 
CPU  0 inst:  168000004 cyc:   81601342 now IPC :1.67537: AVG IPC :2.05903: L2-Pf-HR :0.94164: L2-HR :0.94758: (Sim:0h42m57s) 
CPU  0 inst:  169000000 cyc:   82065556 now IPC :2.15417: AVG IPC :2.05957: L2-Pf-HR :0.94160: L2-HR :0.94757: (Sim:0h43m15s) 
CPU  0 inst:  170000000 cyc:   82522756 now IPC :2.18723: AVG IPC :2.06029: L2-Pf-HR :0.94160: L2-HR :0.94760: (Sim:0h43m32s) 
CPU  0 inst:  171000000 cyc:   82976955 now IPC :2.20168: AVG IPC :2.06107: L2-Pf-HR :0.94161: L2-HR :0.94763: (Sim:0h43m50s) 
CPU  0 inst:  172000003 cyc:   83436064 now IPC :2.17814: AVG IPC :2.06172: L2-Pf-HR :0.94163: L2-HR :0.94767: (Sim:0h44m8s) 
CPU  0 inst:  173000001 cyc:   83893125 now IPC :2.18789: AVG IPC :2.06242: L2-Pf-HR :0.94177: L2-HR :0.94780: (Sim:0h44m26s) 
CPU  0 inst:  174000004 cyc:   84442591 now IPC :1.81995: AVG IPC :2.06082: L2-Pf-HR :0.94176: L2-HR :0.94775: (Sim:0h44m44s) 
CPU  0 inst:  175000005 cyc:   84899054 now IPC :2.19076: AVG IPC :2.06153: L2-Pf-HR :0.94173: L2-HR :0.94776: (Sim:0h45m2s) 
CPU  0 inst:  176000001 cyc:   85354719 now IPC :2.19459: AVG IPC :2.06225: L2-Pf-HR :0.94174: L2-HR :0.94779: (Sim:0h45m19s) 
CPU  0 inst:  177000003 cyc:   85810686 now IPC :2.19315: AVG IPC :2.06295: L2-Pf-HR :0.94179: L2-HR :0.94785: (Sim:0h45m37s) 
CPU  0 inst:  178000000 cyc:   86404731 now IPC :1.68337: AVG IPC :2.06031: L2-Pf-HR :0.94171: L2-HR :0.94770: (Sim:0h45m56s) 
CPU  0 inst:  179000004 cyc:   86883622 now IPC :2.08817: AVG IPC :2.06046: L2-Pf-HR :0.94164: L2-HR :0.94765: (Sim:0h46m14s) 
CPU  0 inst:  180000002 cyc:   87357651 now IPC :2.10957: AVG IPC :2.06073: L2-Pf-HR :0.94163: L2-HR :0.94764: (Sim:0h46m32s) 
CPU  0 inst:  181000000 cyc:   87829071 now IPC :2.12125: AVG IPC :2.06106: L2-Pf-HR :0.94162: L2-HR :0.94764: (Sim:0h46m50s) 
CPU  0 inst:  182000001 cyc:   88298845 now IPC :2.12869: AVG IPC :2.06143: L2-Pf-HR :0.94161: L2-HR :0.94764: (Sim:0h47m8s) 
CPU  0 inst:  183000002 cyc:   88770627 now IPC :2.11963: AVG IPC :2.06174: L2-Pf-HR :0.94171: L2-HR :0.94772: (Sim:0h47m25s) 
CPU  0 inst:  184000002 cyc:   89371636 now IPC :1.66387: AVG IPC :2.05903: L2-Pf-HR :0.94171: L2-HR :0.94764: (Sim:0h47m44s) 
CPU  0 inst:  185000000 cyc:   89841836 now IPC :2.12675: AVG IPC :2.05939: L2-Pf-HR :0.94164: L2-HR :0.94760: (Sim:0h48m2s) 
CPU  0 inst:  186000005 cyc:   90301497 now IPC :2.17553: AVG IPC :2.05999: L2-Pf-HR :0.94165: L2-HR :0.94763: (Sim:0h48m20s) 
CPU  0 inst:  187000004 cyc:   90756615 now IPC :2.19723: AVG IPC :2.06069: L2-Pf-HR :0.94164: L2-HR :0.94765: (Sim:0h48m37s) 
CPU  0 inst:  188000005 cyc:   91213933 now IPC :2.18666: AVG IPC :2.06132: L2-Pf-HR :0.94166: L2-HR :0.94769: (Sim:0h48m55s) 
CPU  0 inst:  189000004 cyc:   91672104 now IPC :2.18259: AVG IPC :2.06194: L2-Pf-HR :0.94176: L2-HR :0.94779: (Sim:0h49m12s) 
CPU  0 inst:  190000001 cyc:   92213246 now IPC :1.84794: AVG IPC :2.06067: L2-Pf-HR :0.94180: L2-HR :0.94779: (Sim:0h49m30s) 
CPU  0 inst:  191000005 cyc:   92673497 now IPC :2.17274: AVG IPC :2.06123: L2-Pf-HR :0.94177: L2-HR :0.94779: (Sim:0h49m48s) 
CPU  0 inst:  192000000 cyc:   93130054 now IPC :2.19030: AVG IPC :2.06187: L2-Pf-HR :0.94178: L2-HR :0.94781: (Sim:0h50m6s) 
CPU  0 inst:  193000001 cyc:   93585409 now IPC :2.19609: AVG IPC :2.06253: L2-Pf-HR :0.94180: L2-HR :0.94785: (Sim:0h50m24s) 
CPU  0 inst:  194000002 cyc:   94183174 now IPC :1.67290: AVG IPC :2.06003: L2-Pf-HR :0.94176: L2-HR :0.94775: (Sim:0h50m42s) 
CPU  0 inst:  195000004 cyc:   94669002 now IPC :2.05835: AVG IPC :2.06002: L2-Pf-HR :0.94168: L2-HR :0.94768: (Sim:0h51m1s) 
CPU  0 inst:  196000005 cyc:   95144797 now IPC :2.10175: AVG IPC :2.06023: L2-Pf-HR :0.94167: L2-HR :0.94768: (Sim:0h51m18s) 
CPU  0 inst:  197000003 cyc:   95621679 now IPC :2.09695: AVG IPC :2.06042: L2-Pf-HR :0.94167: L2-HR :0.94768: (Sim:0h51m36s) 
CPU  0 inst:  198000001 cyc:   96095300 now IPC :2.11139: AVG IPC :2.06067: L2-Pf-HR :0.94166: L2-HR :0.94767: (Sim:0h51m54s) 
CPU  0 inst:  199000002 cyc:   96570602 now IPC :2.10393: AVG IPC :2.06089: L2-Pf-HR :0.94171: L2-HR :0.94772: (Sim:0h52m12s) 
CPU  0 inst:  200000005 cyc:   97155780 now IPC :1.70889: AVG IPC :2.05874: L2-Pf-HR :0.94178: L2-HR :0.94771: (Sim:0h52m31s) 
CPU  0 inst:  201000005 cyc:   97635488 now IPC :2.08460: AVG IPC :2.05887: L2-Pf-HR :0.94168: L2-HR :0.94764: (Sim:0h52m49s) 
CPU  0 inst:  202000004 cyc:   98096619 now IPC :2.16858: AVG IPC :2.05939: L2-Pf-HR :0.94168: L2-HR :0.94766: (Sim:0h53m7s) 
CPU  0 inst:  203000004 cyc:   98554322 now IPC :2.18482: AVG IPC :2.05998: L2-Pf-HR :0.94168: L2-HR :0.94768: (Sim:0h53m24s) 
CPU  0 inst:  204000002 cyc:   99007260 now IPC :2.20780: AVG IPC :2.06067: L2-Pf-HR :0.94170: L2-HR :0.94772: (Sim:0h53m42s) 
CPU  0 inst:  205000002 cyc:   99466386 now IPC :2.17805: AVG IPC :2.06121: L2-Pf-HR :0.94177: L2-HR :0.94779: (Sim:0h54m0s) 
CPU  0 inst:  206000004 cyc:  100009061 now IPC :1.84273: AVG IPC :2.06002: L2-Pf-HR :0.94187: L2-HR :0.94784: (Sim:0h54m18s) 
CPU  0 inst:  207000005 cyc:  100474843 now IPC :2.14693: AVG IPC :2.06042: L2-Pf-HR :0.94180: L2-HR :0.94780: (Sim:0h54m35s) 
CPU  0 inst:  208000003 cyc:  100928807 now IPC :2.20281: AVG IPC :2.06107: L2-Pf-HR :0.94180: L2-HR :0.94782: (Sim:0h54m53s) 
CPU  0 inst:  209000001 cyc:  101385412 now IPC :2.19007: AVG IPC :2.06166: L2-Pf-HR :0.94181: L2-HR :0.94785: (Sim:0h55m11s) 
CPU  0 inst:  210000004 cyc:  101953878 now IPC :1.75913: AVG IPC :2.05995: L2-Pf-HR :0.94185: L2-HR :0.94783: (Sim:0h55m29s) 
CPU  0 inst:  211000001 cyc:  102466774 now IPC :1.94971: AVG IPC :2.05940: L2-Pf-HR :0.94172: L2-HR :0.94771: (Sim:0h55m47s) 
CPU  0 inst:  212000002 cyc:  102943126 now IPC :2.09929: AVG IPC :2.05958: L2-Pf-HR :0.94170: L2-HR :0.94770: (Sim:0h56m5s) 
CPU  0 inst:  213000001 cyc:  103416634 now IPC :2.11189: AVG IPC :2.05982: L2-Pf-HR :0.94170: L2-HR :0.94770: (Sim:0h56m23s) 
CPU  0 inst:  214000001 cyc:  103889770 now IPC :2.11356: AVG IPC :2.06007: L2-Pf-HR :0.94169: L2-HR :0.94770: (Sim:0h56m41s) 
CPU  0 inst:  215000002 cyc:  104365399 now IPC :2.10248: AVG IPC :2.06027: L2-Pf-HR :0.94173: L2-HR :0.94773: (Sim:0h56m59s) 
CPU  0 inst:  216000003 cyc:  104880978 now IPC :1.93957: AVG IPC :2.05967: L2-Pf-HR :0.94191: L2-HR :0.94785: (Sim:0h57m17s) 
CPU  0 inst:  217000000 cyc:  105437343 now IPC :1.79738: AVG IPC :2.05827: L2-Pf-HR :0.94172: L2-HR :0.94767: (Sim:0h57m35s) 
CPU  0 inst:  218000000 cyc:  105896580 now IPC :2.17752: AVG IPC :2.05879: L2-Pf-HR :0.94172: L2-HR :0.94769: (Sim:0h57m53s) 
CPU  0 inst:  219000004 cyc:  106356147 now IPC :2.17597: AVG IPC :2.05930: L2-Pf-HR :0.94172: L2-HR :0.94771: (Sim:0h58m11s) 
CPU  0 inst:  220000001 cyc:  106812707 now IPC :2.19029: AVG IPC :2.05987: L2-Pf-HR :0.94173: L2-HR :0.94774: (Sim:0h58m29s) 
CPU  0 inst:  221000000 cyc:  107269640 now IPC :2.18850: AVG IPC :2.06042: L2-Pf-HR :0.94177: L2-HR :0.94779: (Sim:0h58m46s) 
CPU  0 inst:  222000003 cyc:  107755893 now IPC :2.05655: AVG IPC :2.06040: L2-Pf-HR :0.94197: L2-HR :0.94795: (Sim:0h59m4s) 
CPU  0 inst:  223000002 cyc:  108278836 now IPC :1.91225: AVG IPC :2.05968: L2-Pf-HR :0.94182: L2-HR :0.94782: (Sim:0h59m21s) 
CPU  0 inst:  224000004 cyc:  108735486 now IPC :2.18987: AVG IPC :2.06023: L2-Pf-HR :0.94183: L2-HR :0.94784: (Sim:0h59m39s) 
CPU  0 inst:  225000005 cyc:  109192553 now IPC :2.18787: AVG IPC :2.06077: L2-Pf-HR :0.94183: L2-HR :0.94786: (Sim:0h59m56s) 
CPU  0 inst:  226000002 cyc:  109663235 now IPC :2.12457: AVG IPC :2.06105: L2-Pf-HR :0.94196: L2-HR :0.94797: (Sim:1h0m13s) 
CPU  0 inst:  227000000 cyc:  110264783 now IPC :1.66237: AVG IPC :2.05885: L2-Pf-HR :0.94175: L2-HR :0.94774: (Sim:1h0m32s) 
CPU  0 inst:  228000002 cyc:  110736528 now IPC :2.11979: AVG IPC :2.05912: L2-Pf-HR :0.94173: L2-HR :0.94773: (Sim:1h0m49s) 
CPU  0 inst:  229000003 cyc:  111210031 now IPC :2.11192: AVG IPC :2.05934: L2-Pf-HR :0.94173: L2-HR :0.94773: (Sim:1h1m7s) 
CPU  0 inst:  230000004 cyc:  111682811 now IPC :2.11515: AVG IPC :2.05958: L2-Pf-HR :0.94173: L2-HR :0.94773: (Sim:1h1m24s) 
CPU  0 inst:  231000002 cyc:  112159444 now IPC :2.09805: AVG IPC :2.05975: L2-Pf-HR :0.94175: L2-HR :0.94775: (Sim:1h1m42s) 
CPU  0 inst:  232000003 cyc:  112631274 now IPC :2.11941: AVG IPC :2.06000: L2-Pf-HR :0.94192: L2-HR :0.94789: (Sim:1h1m59s) 
CPU  0 inst:  233000005 cyc:  113233918 now IPC :1.65936: AVG IPC :2.05785: L2-Pf-HR :0.94176: L2-HR :0.94771: (Sim:1h2m18s) 
CPU  0 inst:  234000004 cyc:  113693003 now IPC :2.17824: AVG IPC :2.05834: L2-Pf-HR :0.94174: L2-HR :0.94771: (Sim:1h2m35s) 
CPU  0 inst:  235000003 cyc:  114151806 now IPC :2.17958: AVG IPC :2.05883: L2-Pf-HR :0.94175: L2-HR :0.94774: (Sim:1h2m52s) 
CPU  0 inst:  236000001 cyc:  114609928 now IPC :2.18282: AVG IPC :2.05933: L2-Pf-HR :0.94176: L2-HR :0.94776: (Sim:1h3m10s) 
CPU  0 inst:  237000000 cyc:  115065371 now IPC :2.19566: AVG IPC :2.05987: L2-Pf-HR :0.94179: L2-HR :0.94780: (Sim:1h3m27s) 
CPU  0 inst:  238000004 cyc:  115520806 now IPC :2.19571: AVG IPC :2.06041: L2-Pf-HR :0.94197: L2-HR :0.94797: (Sim:1h3m44s) 
CPU  0 inst:  239000001 cyc:  116074545 now IPC :1.80590: AVG IPC :2.05919: L2-Pf-HR :0.94185: L2-HR :0.94784: (Sim:1h4m2s) 
CPU  0 inst:  240000004 cyc:  116529167 now IPC :2.19964: AVG IPC :2.05974: L2-Pf-HR :0.94185: L2-HR :0.94785: (Sim:1h4m19s) 
CPU  0 inst:  241000003 cyc:  116984354 now IPC :2.19690: AVG IPC :2.06028: L2-Pf-HR :0.94186: L2-HR :0.94788: (Sim:1h4m36s) 
CPU  0 inst:  242000003 cyc:  117439731 now IPC :2.19598: AVG IPC :2.06081: L2-Pf-HR :0.94197: L2-HR :0.94799: (Sim:1h4m53s) 
CPU  0 inst:  243000002 cyc:  118061670 now IPC :1.60787: AVG IPC :2.05840: L2-Pf-HR :0.94179: L2-HR :0.94777: (Sim:1h5m12s) 
CPU  0 inst:  244000005 cyc:  118534721 now IPC :2.11394: AVG IPC :2.05863: L2-Pf-HR :0.94177: L2-HR :0.94776: (Sim:1h5m30s) 
CPU  0 inst:  245000000 cyc:  119004636 now IPC :2.12803: AVG IPC :2.05890: L2-Pf-HR :0.94176: L2-HR :0.94776: (Sim:1h5m47s) 
CPU  0 inst:  246000000 cyc:  119478123 now IPC :2.11199: AVG IPC :2.05912: L2-Pf-HR :0.94176: L2-HR :0.94776: (Sim:1h6m5s) 
CPU  0 inst:  247000001 cyc:  119954328 now IPC :2.09994: AVG IPC :2.05928: L2-Pf-HR :0.94177: L2-HR :0.94777: (Sim:1h6m22s) 
CPU  0 inst:  248000002 cyc:  120427621 now IPC :2.11286: AVG IPC :2.05949: L2-Pf-HR :0.94191: L2-HR :0.94789: (Sim:1h6m39s) 
CPU  0 inst:  249000004 cyc:  121031560 now IPC :1.65580: AVG IPC :2.05746: L2-Pf-HR :0.94178: L2-HR :0.94773: (Sim:1h6m58s) 
CPU  0 inst:  250000001 cyc:  121489496 now IPC :2.18370: AVG IPC :2.05794: L2-Pf-HR :0.94177: L2-HR :0.94774: (Sim:1h7m15s) 
CPU  0 inst:  251000002 cyc:  121944817 now IPC :2.19625: AVG IPC :2.05846: L2-Pf-HR :0.94177: L2-HR :0.94776: (Sim:1h7m33s) 
CPU  0 inst:  252000001 cyc:  122404448 now IPC :2.17566: AVG IPC :2.05890: L2-Pf-HR :0.94178: L2-HR :0.94778: (Sim:1h7m50s) 
CPU  0 inst:  253000002 cyc:  122860887 now IPC :2.19088: AVG IPC :2.05940: L2-Pf-HR :0.94180: L2-HR :0.94782: (Sim:1h8m7s) 
CPU  0 inst:  254000005 cyc:  123316224 now IPC :2.19618: AVG IPC :2.05991: L2-Pf-HR :0.94195: L2-HR :0.94795: (Sim:1h8m24s) 
CPU  0 inst:  255000004 cyc:  123866722 now IPC :1.81654: AVG IPC :2.05882: L2-Pf-HR :0.94186: L2-HR :0.94786: (Sim:1h8m42s) 
CPU  0 inst:  256000001 cyc:  124321837 now IPC :2.19724: AVG IPC :2.05933: L2-Pf-HR :0.94186: L2-HR :0.94787: (Sim:1h8m59s) 
CPU  0 inst:  257000001 cyc:  124779769 now IPC :2.18373: AVG IPC :2.05979: L2-Pf-HR :0.94187: L2-HR :0.94789: (Sim:1h9m17s) 
CPU  0 inst:  258000000 cyc:  125234577 now IPC :2.19873: AVG IPC :2.06030: L2-Pf-HR :0.94195: L2-HR :0.94797: (Sim:1h9m34s) 
CPU  0 inst:  259000000 cyc:  128937601 now IPC :0.27005: AVG IPC :2.00849: L2-Pf-HR :0.94042: L2-HR :0.94490: (Sim:1h10m14s) 
CPU  0 inst:  260000002 cyc:  133766542 now IPC :0.20709: AVG IPC :1.94298: L2-Pf-HR :0.93830: L2-HR :0.94065: (Sim:1h11m4s) 
CPU  0 inst:  261000001 cyc:  138778304 now IPC :0.19953: AVG IPC :1.87957: L2-Pf-HR :0.93618: L2-HR :0.93649: (Sim:1h11m56s) 
CPU  0 inst:  262000000 cyc:  143783073 now IPC :0.19981: AVG IPC :1.82070: L2-Pf-HR :0.93407: L2-HR :0.93242: (Sim:1h12m47s) 
CPU  0 inst:  263000005 cyc:  148786916 now IPC :0.19985: AVG IPC :1.76583: L2-Pf-HR :0.93198: L2-HR :0.92842: (Sim:1h13m39s) 
CPU  0 inst:  264000004 cyc:  153788886 now IPC :0.19992: AVG IPC :1.71457: L2-Pf-HR :0.92991: L2-HR :0.92451: (Sim:1h14m30s) 
CPU  0 inst:  265000000 cyc:  158795205 now IPC :0.19975: AVG IPC :1.66651: L2-Pf-HR :0.92785: L2-HR :0.92067: (Sim:1h15m22s) 
CPU  0 inst:  266000005 cyc:  163802981 now IPC :0.19969: AVG IPC :1.62140: L2-Pf-HR :0.92580: L2-HR :0.91691: (Sim:1h16m15s) 
CPU  0 inst:  267000003 cyc:  168812657 now IPC :0.19961: AVG IPC :1.57896: L2-Pf-HR :0.92376: L2-HR :0.91323: (Sim:1h17m7s) 
CPU  0 inst:  268000000 cyc:  173351236 now IPC :0.22033: AVG IPC :1.54319: L2-Pf-HR :0.92211: L2-HR :0.91035: (Sim:1h17m54s) 
CPU  0 inst:  269000000 cyc:  176596260 now IPC :0.30816: AVG IPC :1.52037: L2-Pf-HR :0.92179: L2-HR :0.90986: (Sim:1h18m29s) 
CPU  0 inst:  270000000 cyc:  179841391 now IPC :0.30815: AVG IPC :1.49837: L2-Pf-HR :0.92147: L2-HR :0.90938: (Sim:1h19m4s) 
CPU  0 inst:  271000000 cyc:  183084564 now IPC :0.30834: AVG IPC :1.47718: L2-Pf-HR :0.92116: L2-HR :0.90890: (Sim:1h19m40s) 
CPU  0 inst:  272000004 cyc:  186331368 now IPC :0.30800: AVG IPC :1.45670: L2-Pf-HR :0.92084: L2-HR :0.90842: (Sim:1h20m15s) 
CPU  0 inst:  273000000 cyc:  189589090 now IPC :0.30696: AVG IPC :1.43684: L2-Pf-HR :0.92053: L2-HR :0.90794: (Sim:1h20m51s) 
CPU  0 inst:  274000002 cyc:  192848062 now IPC :0.30685: AVG IPC :1.41765: L2-Pf-HR :0.92022: L2-HR :0.90747: (Sim:1h21m26s) 
CPU  0 inst:  275000001 cyc:  196108069 now IPC :0.30675: AVG IPC :1.39909: L2-Pf-HR :0.91991: L2-HR :0.90700: (Sim:1h22m2s) 
CPU  0 inst:  276000004 cyc:  199361462 now IPC :0.30737: AVG IPC :1.38118: L2-Pf-HR :0.91961: L2-HR :0.90653: (Sim:1h22m37s) 
CPU  0 inst:  277000000 cyc:  202613426 now IPC :0.30751: AVG IPC :1.36387: L2-Pf-HR :0.91930: L2-HR :0.90606: (Sim:1h23m12s) 
CPU  0 inst:  278000000 cyc:  205862261 now IPC :0.30780: AVG IPC :1.34712: L2-Pf-HR :0.91900: L2-HR :0.90560: (Sim:1h23m47s) 
CPU  0 inst:  279000000 cyc:  209109690 now IPC :0.30794: AVG IPC :1.33091: L2-Pf-HR :0.91870: L2-HR :0.90514: (Sim:1h24m22s) 
CPU  0 inst:  280000000 cyc:  212356754 now IPC :0.30797: AVG IPC :1.31519: L2-Pf-HR :0.91840: L2-HR :0.90468: (Sim:1h24m57s) 
CPU  0 inst:  281000002 cyc:  215606275 now IPC :0.30774: AVG IPC :1.29994: L2-Pf-HR :0.91810: L2-HR :0.90423: (Sim:1h25m32s) 
CPU  0 inst:  282000005 cyc:  218857022 now IPC :0.30762: AVG IPC :1.28513: L2-Pf-HR :0.91781: L2-HR :0.90377: (Sim:1h26m7s) 
CPU  0 inst:  283000000 cyc:  222106164 now IPC :0.30777: AVG IPC :1.27077: L2-Pf-HR :0.91751: L2-HR :0.90332: (Sim:1h26m42s) 
CPU  0 inst:  284000000 cyc:  225352729 now IPC :0.30802: AVG IPC :1.25684: L2-Pf-HR :0.91722: L2-HR :0.90287: (Sim:1h27m17s) 
CPU  0 inst:  285000000 cyc:  228601615 now IPC :0.30780: AVG IPC :1.24330: L2-Pf-HR :0.91692: L2-HR :0.90242: (Sim:1h27m53s) 
CPU  0 inst:  286000000 cyc:  231852384 now IPC :0.30762: AVG IPC :1.23012: L2-Pf-HR :0.91663: L2-HR :0.90197: (Sim:1h28m28s) 
CPU  0 inst:  287000000 cyc:  235103110 now IPC :0.30762: AVG IPC :1.21731: L2-Pf-HR :0.91634: L2-HR :0.90152: (Sim:1h29m3s) 
CPU  0 inst:  288000000 cyc:  238352751 now IPC :0.30773: AVG IPC :1.20486: L2-Pf-HR :0.91604: L2-HR :0.90108: (Sim:1h29m38s) 
CPU  0 inst:  289000001 cyc:  241603229 now IPC :0.30765: AVG IPC :1.19274: L2-Pf-HR :0.91576: L2-HR :0.90064: (Sim:1h30m13s) 
CPU  0 inst:  290000001 cyc:  244855935 now IPC :0.30744: AVG IPC :1.18093: L2-Pf-HR :0.91547: L2-HR :0.90019: (Sim:1h30m48s) 
CPU  0 inst:  291000000 cyc:  248101911 now IPC :0.30807: AVG IPC :1.16947: L2-Pf-HR :0.91518: L2-HR :0.89976: (Sim:1h31m23s) 
CPU  0 inst:  292000000 cyc:  251351288 now IPC :0.30775: AVG IPC :1.15828: L2-Pf-HR :0.91489: L2-HR :0.89932: (Sim:1h31m58s) 
CPU  0 inst:  293000004 cyc:  254603267 now IPC :0.30751: AVG IPC :1.14737: L2-Pf-HR :0.91461: L2-HR :0.89888: (Sim:1h32m33s) 
CPU  0 inst:  294000000 cyc:  257853388 now IPC :0.30768: AVG IPC :1.13675: L2-Pf-HR :0.91432: L2-HR :0.89844: (Sim:1h33m8s) 
CPU  0 inst:  295000000 cyc:  261102936 now IPC :0.30774: AVG IPC :1.12639: L2-Pf-HR :0.91403: L2-HR :0.89801: (Sim:1h33m44s) 
CPU  0 inst:  296000001 cyc:  264352149 now IPC :0.30777: AVG IPC :1.11629: L2-Pf-HR :0.91375: L2-HR :0.89758: (Sim:1h34m19s) 
CPU  0 inst:  297000001 cyc:  267602712 now IPC :0.30764: AVG IPC :1.10644: L2-Pf-HR :0.91347: L2-HR :0.89715: (Sim:1h34m54s) 
CPU  0 inst:  298000000 cyc:  270853395 now IPC :0.30763: AVG IPC :1.09681: L2-Pf-HR :0.91319: L2-HR :0.89672: (Sim:1h35m29s) 
CPU  0 inst:  299000000 cyc:  274104161 now IPC :0.30762: AVG IPC :1.08742: L2-Pf-HR :0.91291: L2-HR :0.89630: (Sim:1h36m4s) 
CPU  0 inst:  300000000 cyc:  277350240 now IPC :0.30806: AVG IPC :1.07827: L2-Pf-HR :0.91263: L2-HR :0.89587: (Sim:1h36m39s) 
CPU  0 inst:  301000000 cyc:  280600029 now IPC :0.30771: AVG IPC :1.06931: L2-Pf-HR :0.91235: L2-HR :0.89545: (Sim:1h37m14s) 
CPU  0 inst:  302000000 cyc:  283846450 now IPC :0.30803: AVG IPC :1.06057: L2-Pf-HR :0.91208: L2-HR :0.89503: (Sim:1h37m50s) 
CPU  0 inst:  303000000 cyc:  287097720 now IPC :0.30757: AVG IPC :1.05202: L2-Pf-HR :0.91180: L2-HR :0.89461: (Sim:1h38m25s) 
CPU  0 inst:  304000001 cyc:  290346680 now IPC :0.30779: AVG IPC :1.04366: L2-Pf-HR :0.91153: L2-HR :0.89419: (Sim:1h38m52s) 
CPU  0 inst:  305000005 cyc:  293597150 now IPC :0.30765: AVG IPC :1.03549: L2-Pf-HR :0.91125: L2-HR :0.89378: (Sim:1h39m8s) 
CPU  0 inst:  306000000 cyc:  296847632 now IPC :0.30765: AVG IPC :1.02749: L2-Pf-HR :0.91098: L2-HR :0.89336: (Sim:1h39m23s) 
CPU  0 inst:  307000000 cyc:  300095278 now IPC :0.30792: AVG IPC :1.01968: L2-Pf-HR :0.91071: L2-HR :0.89295: (Sim:1h39m39s) 
CPU  0 inst:  308000000 cyc:  303344670 now IPC :0.30775: AVG IPC :1.01203: L2-Pf-HR :0.91044: L2-HR :0.89254: (Sim:1h39m55s) 
CPU  0 inst:  309000000 cyc:  306592122 now IPC :0.30793: AVG IPC :1.00454: L2-Pf-HR :0.91017: L2-HR :0.89213: (Sim:1h40m10s) 
CPU  0 inst:  310000004 cyc:  309841693 now IPC :0.30773: AVG IPC :0.99721: L2-Pf-HR :0.90990: L2-HR :0.89172: (Sim:1h40m26s) 
CPU  0 inst:  311000000 cyc:  313087906 now IPC :0.30805: AVG IPC :0.99004: L2-Pf-HR :0.90963: L2-HR :0.89131: (Sim:1h40m42s) 
CPU  0 inst:  312000001 cyc:  316340258 now IPC :0.30747: AVG IPC :0.98300: L2-Pf-HR :0.90936: L2-HR :0.89091: (Sim:1h40m57s) 
CPU  0 inst:  313000000 cyc:  319591469 now IPC :0.30758: AVG IPC :0.97611: L2-Pf-HR :0.90909: L2-HR :0.89050: (Sim:1h41m13s) 
CPU  0 inst:  314000004 cyc:  322839656 now IPC :0.30787: AVG IPC :0.96937: L2-Pf-HR :0.90883: L2-HR :0.89010: (Sim:1h41m29s) 
CPU  0 inst:  315000000 cyc:  326088250 now IPC :0.30782: AVG IPC :0.96276: L2-Pf-HR :0.90856: L2-HR :0.88970: (Sim:1h41m45s) 
CPU  0 inst:  316000000 cyc:  329337120 now IPC :0.30780: AVG IPC :0.95628: L2-Pf-HR :0.90830: L2-HR :0.88930: (Sim:1h42m0s) 
CPU  0 inst:  317000000 cyc:  332585483 now IPC :0.30785: AVG IPC :0.94993: L2-Pf-HR :0.90804: L2-HR :0.88890: (Sim:1h42m16s) 
CPU  0 inst:  318000005 cyc:  335832587 now IPC :0.30797: AVG IPC :0.94370: L2-Pf-HR :0.90778: L2-HR :0.88850: (Sim:1h42m32s) 
CPU  0 inst:  319000001 cyc:  339081330 now IPC :0.30781: AVG IPC :0.93759: L2-Pf-HR :0.90752: L2-HR :0.88811: (Sim:1h42m47s) 
CPU  0 inst:  320000000 cyc:  342333365 now IPC :0.30750: AVG IPC :0.93159: L2-Pf-HR :0.90725: L2-HR :0.88772: (Sim:1h43m15s) 
CPU  0 inst:  321000000 cyc:  345579860 now IPC :0.30802: AVG IPC :0.92571: L2-Pf-HR :0.90700: L2-HR :0.88732: (Sim:1h43m49s) 
CPU  0 inst:  322000000 cyc:  348829674 now IPC :0.30771: AVG IPC :0.91994: L2-Pf-HR :0.90674: L2-HR :0.88693: (Sim:1h44m24s) 
CPU  0 inst:  323000000 cyc:  352077517 now IPC :0.30790: AVG IPC :0.91428: L2-Pf-HR :0.90648: L2-HR :0.88654: (Sim:1h44m57s) 
CPU  0 inst:  324000000 cyc:  355327280 now IPC :0.30771: AVG IPC :0.90871: L2-Pf-HR :0.90622: L2-HR :0.88616: (Sim:1h45m31s) 
CPU  0 inst:  325000000 cyc:  358574749 now IPC :0.30793: AVG IPC :0.90326: L2-Pf-HR :0.90597: L2-HR :0.88577: (Sim:1h46m5s) 
CPU  0 inst:  326000002 cyc:  361824118 now IPC :0.30775: AVG IPC :0.89790: L2-Pf-HR :0.90571: L2-HR :0.88538: (Sim:1h46m39s) 
CPU  0 inst:  327000001 cyc:  365075779 now IPC :0.30753: AVG IPC :0.89262: L2-Pf-HR :0.90546: L2-HR :0.88500: (Sim:1h47m11s) 
CPU  0 inst:  328000000 cyc:  368322205 now IPC :0.30803: AVG IPC :0.88746: L2-Pf-HR :0.90521: L2-HR :0.88462: (Sim:1h47m46s) 
CPU  0 inst:  329000000 cyc:  371571849 now IPC :0.30773: AVG IPC :0.88237: L2-Pf-HR :0.90495: L2-HR :0.88424: (Sim:1h48m20s) 
CPU  0 inst:  330000000 cyc:  374821037 now IPC :0.30777: AVG IPC :0.87738: L2-Pf-HR :0.90470: L2-HR :0.88386: (Sim:1h48m55s) 
CPU  0 inst:  331000004 cyc:  378071512 now IPC :0.30765: AVG IPC :0.87247: L2-Pf-HR :0.90445: L2-HR :0.88348: (Sim:1h49m28s) 
CPU  0 inst:  332000000 cyc:  381319910 now IPC :0.30784: AVG IPC :0.86765: L2-Pf-HR :0.90420: L2-HR :0.88310: (Sim:1h50m2s) 
CPU  0 inst:  333000002 cyc:  384568293 now IPC :0.30785: AVG IPC :0.86291: L2-Pf-HR :0.90395: L2-HR :0.88273: (Sim:1h50m37s) 
CPU  0 inst:  334000000 cyc:  387818406 now IPC :0.30768: AVG IPC :0.85824: L2-Pf-HR :0.90370: L2-HR :0.88235: (Sim:1h51m11s) 
CPU  0 inst:  335000004 cyc:  391068074 now IPC :0.30772: AVG IPC :0.85365: L2-Pf-HR :0.90345: L2-HR :0.88198: (Sim:1h51m43s) 
CPU  0 inst:  336000000 cyc:  394319472 now IPC :0.30756: AVG IPC :0.84914: L2-Pf-HR :0.90320: L2-HR :0.88161: (Sim:1h52m18s) 
CPU  0 inst:  337000000 cyc:  397568110 now IPC :0.30782: AVG IPC :0.84471: L2-Pf-HR :0.90296: L2-HR :0.88124: (Sim:1h52m52s) 
CPU  0 inst:  338000000 cyc:  400818660 now IPC :0.30764: AVG IPC :0.84034: L2-Pf-HR :0.90271: L2-HR :0.88087: (Sim:1h53m25s) 
CPU  0 inst:  339000000 cyc:  404068450 now IPC :0.30771: AVG IPC :0.83605: L2-Pf-HR :0.90247: L2-HR :0.88050: (Sim:1h53m59s) 
CPU  0 inst:  340000000 cyc:  407317682 now IPC :0.30777: AVG IPC :0.83182: L2-Pf-HR :0.90222: L2-HR :0.88013: (Sim:1h54m33s) 
CPU  0 inst:  341000001 cyc:  410565878 now IPC :0.30786: AVG IPC :0.82767: L2-Pf-HR :0.90198: L2-HR :0.87977: (Sim:1h55m7s) 
CPU  0 inst:  342000001 cyc:  413819846 now IPC :0.30732: AVG IPC :0.82357: L2-Pf-HR :0.90174: L2-HR :0.87940: (Sim:1h55m40s) 
CPU  0 inst:  343000000 cyc:  417066760 now IPC :0.30798: AVG IPC :0.81954: L2-Pf-HR :0.90150: L2-HR :0.87904: (Sim:1h56m14s) 
CPU  0 inst:  344000000 cyc:  420314631 now IPC :0.30789: AVG IPC :0.81558: L2-Pf-HR :0.90126: L2-HR :0.87868: (Sim:1h56m49s) 
CPU  0 inst:  345000000 cyc:  423562698 now IPC :0.30788: AVG IPC :0.81168: L2-Pf-HR :0.90102: L2-HR :0.87832: (Sim:1h57m21s) 
CPU  0 inst:  346000000 cyc:  426811892 now IPC :0.30777: AVG IPC :0.80783: L2-Pf-HR :0.90078: L2-HR :0.87796: (Sim:1h57m55s) 
CPU  0 inst:  347000000 cyc:  430061885 now IPC :0.30769: AVG IPC :0.80404: L2-Pf-HR :0.90054: L2-HR :0.87761: (Sim:1h58m29s) 
CPU  0 inst:  348000001 cyc:  433312729 now IPC :0.30761: AVG IPC :0.80031: L2-Pf-HR :0.90030: L2-HR :0.87725: (Sim:1h59m4s) 
CPU  0 inst:  349000001 cyc:  436563689 now IPC :0.30760: AVG IPC :0.79663: L2-Pf-HR :0.90006: L2-HR :0.87689: (Sim:1h59m37s) 
CPU  0 inst:  350000000 cyc:  439813367 now IPC :0.30772: AVG IPC :0.79301: L2-Pf-HR :0.89983: L2-HR :0.87654: (Sim:2h0m11s) 
CPU  0 inst:  351000000 cyc:  443063215 now IPC :0.30771: AVG IPC :0.78945: L2-Pf-HR :0.89959: L2-HR :0.87619: (Sim:2h0m46s) 
CPU  0 inst:  352000004 cyc:  446310637 now IPC :0.30794: AVG IPC :0.78593: L2-Pf-HR :0.89936: L2-HR :0.87584: (Sim:2h1m20s) 
CPU  0 inst:  353000000 cyc:  449557820 now IPC :0.30796: AVG IPC :0.78247: L2-Pf-HR :0.89913: L2-HR :0.87549: (Sim:2h1m52s) 
CPU  0 inst:  354000000 cyc:  452806613 now IPC :0.30781: AVG IPC :0.77906: L2-Pf-HR :0.89889: L2-HR :0.87514: (Sim:2h2m27s) 
CPU  0 inst:  355000000 cyc:  456055527 now IPC :0.30780: AVG IPC :0.77570: L2-Pf-HR :0.89866: L2-HR :0.87479: (Sim:2h3m1s) 
CPU  0 inst:  356000000 cyc:  459306982 now IPC :0.30755: AVG IPC :0.77238: L2-Pf-HR :0.89843: L2-HR :0.87445: (Sim:2h3m35s) 
CPU  0 inst:  357000001 cyc:  462561260 now IPC :0.30729: AVG IPC :0.76910: L2-Pf-HR :0.89820: L2-HR :0.87410: (Sim:2h4m9s) 
CPU  0 inst:  358000000 cyc:  465809097 now IPC :0.30790: AVG IPC :0.76587: L2-Pf-HR :0.89797: L2-HR :0.87376: (Sim:2h4m43s) 
CPU  0 inst:  359000000 cyc:  469054763 now IPC :0.30810: AVG IPC :0.76270: L2-Pf-HR :0.89774: L2-HR :0.87341: (Sim:2h5m17s) 
CPU  0 inst:  360000000 cyc:  472299325 now IPC :0.30821: AVG IPC :0.75957: L2-Pf-HR :0.89751: L2-HR :0.87307: (Sim:2h5m39s) 
CPU  0 inst:  361000000 cyc:  475548735 now IPC :0.30775: AVG IPC :0.75648: L2-Pf-HR :0.89728: L2-HR :0.87273: (Sim:2h5m55s) 
CPU  0 inst:  362000000 cyc:  478798140 now IPC :0.30775: AVG IPC :0.75343: L2-Pf-HR :0.89706: L2-HR :0.87239: (Sim:2h6m11s) 
CPU  0 inst:  363000000 cyc:  482049728 now IPC :0.30754: AVG IPC :0.75041: L2-Pf-HR :0.89683: L2-HR :0.87206: (Sim:2h6m27s) 
CPU  0 inst:  364000001 cyc:  485298974 now IPC :0.30776: AVG IPC :0.74744: L2-Pf-HR :0.89661: L2-HR :0.87172: (Sim:2h6m42s) 
CPU  0 inst:  365000000 cyc:  488550559 now IPC :0.30754: AVG IPC :0.74451: L2-Pf-HR :0.89638: L2-HR :0.87138: (Sim:2h6m58s) 
CPU  0 inst:  366000000 cyc:  491799103 now IPC :0.30783: AVG IPC :0.74162: L2-Pf-HR :0.89615: L2-HR :0.87105: (Sim:2h7m14s) 
CPU  0 inst:  367000000 cyc:  495048317 now IPC :0.30777: AVG IPC :0.73877: L2-Pf-HR :0.89593: L2-HR :0.87071: (Sim:2h7m30s) 
CPU  0 inst:  368000000 cyc:  498299442 now IPC :0.30759: AVG IPC :0.73595: L2-Pf-HR :0.89571: L2-HR :0.87038: (Sim:2h7m45s) 
CPU  0 inst:  369000004 cyc:  501549457 now IPC :0.30769: AVG IPC :0.73317: L2-Pf-HR :0.89548: L2-HR :0.87005: (Sim:2h8m1s) 
CPU  0 inst:  370000000 cyc:  504798883 now IPC :0.30775: AVG IPC :0.73042: L2-Pf-HR :0.89526: L2-HR :0.86972: (Sim:2h8m17s) 
CPU  0 inst:  371000002 cyc:  508048358 now IPC :0.30774: AVG IPC :0.72771: L2-Pf-HR :0.89504: L2-HR :0.86939: (Sim:2h8m33s) 
CPU  0 inst:  372000001 cyc:  511300885 now IPC :0.30745: AVG IPC :0.72503: L2-Pf-HR :0.89482: L2-HR :0.86906: (Sim:2h8m49s) 
CPU  0 inst:  373000004 cyc:  514550516 now IPC :0.30773: AVG IPC :0.72239: L2-Pf-HR :0.89460: L2-HR :0.86873: (Sim:2h9m4s) 
CPU  0 inst:  374000000 cyc:  517800346 now IPC :0.30771: AVG IPC :0.71979: L2-Pf-HR :0.89438: L2-HR :0.86841: (Sim:2h9m20s) 
CPU  0 inst:  375000000 cyc:  521050114 now IPC :0.30771: AVG IPC :0.71721: L2-Pf-HR :0.89416: L2-HR :0.86808: (Sim:2h9m36s) 
CPU  0 inst:  376000000 cyc:  524298507 now IPC :0.30784: AVG IPC :0.71467: L2-Pf-HR :0.89394: L2-HR :0.86776: (Sim:2h9m53s) 
CPU  0 inst:  377000000 cyc:  527548194 now IPC :0.30772: AVG IPC :0.71216: L2-Pf-HR :0.89373: L2-HR :0.86744: (Sim:2h10m28s) 
CPU  0 inst:  378000002 cyc:  530797622 now IPC :0.30775: AVG IPC :0.70968: L2-Pf-HR :0.89351: L2-HR :0.86711: (Sim:2h11m3s) 
CPU  0 inst:  379000005 cyc:  534047517 now IPC :0.30770: AVG IPC :0.70723: L2-Pf-HR :0.89330: L2-HR :0.86679: (Sim:2h11m38s) 
CPU  0 inst:  380000000 cyc:  537298415 now IPC :0.30761: AVG IPC :0.70481: L2-Pf-HR :0.89308: L2-HR :0.86647: (Sim:2h12m13s) 
CPU  0 inst:  381000000 cyc:  540546977 now IPC :0.30783: AVG IPC :0.70242: L2-Pf-HR :0.89287: L2-HR :0.86616: (Sim:2h12m48s) 
CPU  0 inst:  382000000 cyc:  543796868 now IPC :0.30770: AVG IPC :0.70005: L2-Pf-HR :0.89265: L2-HR :0.86584: (Sim:2h13m23s) 
CPU  0 inst:  383000000 cyc:  547043752 now IPC :0.30799: AVG IPC :0.69772: L2-Pf-HR :0.89244: L2-HR :0.86552: (Sim:2h13m55s) 
CPU  0 inst:  384000000 cyc:  550289697 now IPC :0.30808: AVG IPC :0.69542: L2-Pf-HR :0.89223: L2-HR :0.86521: (Sim:2h14m10s) 
CPU  0 inst:  385000000 cyc:  553539151 now IPC :0.30774: AVG IPC :0.69314: L2-Pf-HR :0.89202: L2-HR :0.86489: (Sim:2h14m38s) 
CPU  0 inst:  386000001 cyc:  556789635 now IPC :0.30765: AVG IPC :0.69088: L2-Pf-HR :0.89181: L2-HR :0.86458: (Sim:2h15m13s) 
CPU  0 inst:  387000001 cyc:  560041895 now IPC :0.30748: AVG IPC :0.68865: L2-Pf-HR :0.89159: L2-HR :0.86427: (Sim:2h15m48s) 
CPU  0 inst:  388000000 cyc:  563291332 now IPC :0.30775: AVG IPC :0.68645: L2-Pf-HR :0.89138: L2-HR :0.86396: (Sim:2h16m23s) 
CPU  0 inst:  389000000 cyc:  566540050 now IPC :0.30781: AVG IPC :0.68428: L2-Pf-HR :0.89117: L2-HR :0.86365: (Sim:2h16m57s) 
CPU  0 inst:  390000004 cyc:  569786646 now IPC :0.30802: AVG IPC :0.68213: L2-Pf-HR :0.89097: L2-HR :0.86334: (Sim:2h17m32s) 
CPU  0 inst:  391000000 cyc:  573032805 now IPC :0.30806: AVG IPC :0.68001: L2-Pf-HR :0.89076: L2-HR :0.86303: (Sim:2h18m7s) 
CPU  0 inst:  392000000 cyc:  576281111 now IPC :0.30785: AVG IPC :0.67791: L2-Pf-HR :0.89055: L2-HR :0.86272: (Sim:2h18m42s) 
CPU  0 inst:  393000001 cyc:  579531305 now IPC :0.30767: AVG IPC :0.67583: L2-Pf-HR :0.89035: L2-HR :0.86242: (Sim:2h19m17s) 
CPU  0 inst:  394000001 cyc:  582786322 now IPC :0.30722: AVG IPC :0.67376: L2-Pf-HR :0.89014: L2-HR :0.86211: (Sim:2h19m52s) 
CPU  0 inst:  395000000 cyc:  586032754 now IPC :0.30803: AVG IPC :0.67174: L2-Pf-HR :0.88982: L2-HR :0.86171: (Sim:2h20m26s) 
CPU  0 inst:  396000003 cyc:  586661615 now IPC :1.59018: AVG IPC :0.67272: L2-Pf-HR :0.88969: L2-HR :0.86165: (Sim:2h20m48s) 
CPU  0 inst:  397000005 cyc:  587269954 now IPC :1.64382: AVG IPC :0.67373: L2-Pf-HR :0.88959: L2-HR :0.86161: (Sim:2h21m10s) 
CPU  0 inst:  398000002 cyc:  587877668 now IPC :1.64551: AVG IPC :0.67474: L2-Pf-HR :0.88949: L2-HR :0.86159: (Sim:2h21m32s) 
CPU  0 inst:  399000005 cyc:  588508524 now IPC :1.58515: AVG IPC :0.67571: L2-Pf-HR :0.88936: L2-HR :0.86153: (Sim:2h21m54s) 
CPU  0 inst:  400000004 cyc:  589037031 now IPC :1.89212: AVG IPC :0.67681: L2-Pf-HR :0.88939: L2-HR :0.86160: (Sim:2h22m15s) 
CPU  0 inst:  401000004 cyc:  589540855 now IPC :1.98482: AVG IPC :0.67793: L2-Pf-HR :0.88944: L2-HR :0.86168: (Sim:2h22m36s) 
CPU  0 inst:  402000005 cyc:  590044458 now IPC :1.98569: AVG IPC :0.67904: L2-Pf-HR :0.88948: L2-HR :0.86176: (Sim:2h22m57s) 
CPU  0 inst:  403000001 cyc:  590548148 now IPC :1.98534: AVG IPC :0.68016: L2-Pf-HR :0.88949: L2-HR :0.86182: (Sim:2h23m18s) 
CPU  0 inst:  404000000 cyc:  591077636 now IPC :1.88862: AVG IPC :0.68124: L2-Pf-HR :0.88952: L2-HR :0.86189: (Sim:2h23m40s) 
CPU  0 inst:  405000005 cyc:  591580246 now IPC :1.98962: AVG IPC :0.68236: L2-Pf-HR :0.88962: L2-HR :0.86201: (Sim:2h24m1s) 
CPU  0 inst:  406000001 cyc:  592082822 now IPC :1.98974: AVG IPC :0.68347: L2-Pf-HR :0.88971: L2-HR :0.86213: (Sim:2h24m22s) 
CPU  0 inst:  407000000 cyc:  592586097 now IPC :1.98698: AVG IPC :0.68458: L2-Pf-HR :0.88977: L2-HR :0.86222: (Sim:2h24m43s) 
CPU  0 inst:  408000004 cyc:  593114912 now IPC :1.89103: AVG IPC :0.68566: L2-Pf-HR :0.88977: L2-HR :0.86227: (Sim:2h25m4s) 
CPU  0 inst:  409000003 cyc:  593621820 now IPC :1.97274: AVG IPC :0.68676: L2-Pf-HR :0.88984: L2-HR :0.86235: (Sim:2h25m25s) 
CPU  0 inst:  410000003 cyc:  594129942 now IPC :1.96803: AVG IPC :0.68785: L2-Pf-HR :0.88991: L2-HR :0.86245: (Sim:2h25m46s) 
CPU  0 inst:  411000002 cyc:  594635298 now IPC :1.97880: AVG IPC :0.68895: L2-Pf-HR :0.88996: L2-HR :0.86253: (Sim:2h26m6s) 
CPU  0 inst:  412000003 cyc:  595211507 now IPC :1.73548: AVG IPC :0.68997: L2-Pf-HR :0.88990: L2-HR :0.86251: (Sim:2h26m28s) 
CPU  0 inst:  413000002 cyc:  595817204 now IPC :1.65099: AVG IPC :0.69095: L2-Pf-HR :0.88978: L2-HR :0.86246: (Sim:2h26m50s) 
CPU  0 inst:  414000005 cyc:  596423881 now IPC :1.64833: AVG IPC :0.69192: L2-Pf-HR :0.88968: L2-HR :0.86243: (Sim:2h27m11s) 
CPU  0 inst:  415000003 cyc:  597034025 now IPC :1.63895: AVG IPC :0.69289: L2-Pf-HR :0.88956: L2-HR :0.86237: (Sim:2h27m33s) 
CPU  0 inst:  416000003 cyc:  597622585 now IPC :1.69906: AVG IPC :0.69388: L2-Pf-HR :0.88947: L2-HR :0.86235: (Sim:2h27m55s) 
CPU  0 inst:  417000001 cyc:  598127166 now IPC :1.98184: AVG IPC :0.69497: L2-Pf-HR :0.88953: L2-HR :0.86244: (Sim:2h28m16s) 
CPU  0 inst:  418000005 cyc:  598631721 now IPC :1.98195: AVG IPC :0.69606: L2-Pf-HR :0.88956: L2-HR :0.86252: (Sim:2h28m37s) 
CPU  0 inst:  419000005 cyc:  599135588 now IPC :1.98465: AVG IPC :0.69714: L2-Pf-HR :0.88959: L2-HR :0.86259: (Sim:2h28m58s) 
CPU  0 inst:  420000005 cyc:  599645385 now IPC :1.96157: AVG IPC :0.69822: L2-Pf-HR :0.88958: L2-HR :0.86263: (Sim:2h29m19s) 
CPU  0 inst:  421000002 cyc:  600161705 now IPC :1.93678: AVG IPC :0.69929: L2-Pf-HR :0.88967: L2-HR :0.86274: (Sim:2h29m40s) 
CPU  0 inst:  422000001 cyc:  600663697 now IPC :1.99206: AVG IPC :0.70037: L2-Pf-HR :0.88976: L2-HR :0.86285: (Sim:2h30m1s) 
CPU  0 inst:  423000003 cyc:  601165536 now IPC :1.99267: AVG IPC :0.70145: L2-Pf-HR :0.88984: L2-HR :0.86296: (Sim:2h30m22s) 
CPU  0 inst:  424000002 cyc:  601674991 now IPC :1.96288: AVG IPC :0.70252: L2-Pf-HR :0.88985: L2-HR :0.86302: (Sim:2h30m43s) 
CPU  0 inst:  425000001 cyc:  602195803 now IPC :1.92008: AVG IPC :0.70358: L2-Pf-HR :0.88991: L2-HR :0.86310: (Sim:2h31m4s) 
CPU  0 inst:  426000004 cyc:  602699192 now IPC :1.98654: AVG IPC :0.70465: L2-Pf-HR :0.88998: L2-HR :0.86319: (Sim:2h31m25s) 
CPU  0 inst:  427000005 cyc:  603202226 now IPC :1.98794: AVG IPC :0.70572: L2-Pf-HR :0.89006: L2-HR :0.86330: (Sim:2h31m46s) 
CPU  0 inst:  428000005 cyc:  603706078 now IPC :1.98471: AVG IPC :0.70679: L2-Pf-HR :0.89010: L2-HR :0.86336: (Sim:2h32m6s) 
CPU  0 inst:  429000003 cyc:  604279894 now IPC :1.74272: AVG IPC :0.70777: L2-Pf-HR :0.89000: L2-HR :0.86332: (Sim:2h32m28s) 
CPU  0 inst:  430000005 cyc:  604848862 now IPC :1.75757: AVG IPC :0.70876: L2-Pf-HR :0.88990: L2-HR :0.86328: (Sim:2h32m49s) 
CPU  0 inst:  431000000 cyc:  605420787 now IPC :1.74847: AVG IPC :0.70975: L2-Pf-HR :0.88980: L2-HR :0.86324: (Sim:2h33m11s) 
CPU  0 inst:  432000000 cyc:  605991320 now IPC :1.75275: AVG IPC :0.71073: L2-Pf-HR :0.88970: L2-HR :0.86321: (Sim:2h33m32s) 
CPU  0 inst:  433000002 cyc:  606537098 now IPC :1.83225: AVG IPC :0.71174: L2-Pf-HR :0.88965: L2-HR :0.86321: (Sim:2h33m54s) 
CPU  0 inst:  434000001 cyc:  607040338 now IPC :1.98712: AVG IPC :0.71280: L2-Pf-HR :0.88969: L2-HR :0.86329: (Sim:2h34m14s) 
CPU  0 inst:  435000005 cyc:  607543602 now IPC :1.98704: AVG IPC :0.71386: L2-Pf-HR :0.88974: L2-HR :0.86337: (Sim:2h34m35s) 
CPU  0 inst:  436000004 cyc:  608047105 now IPC :1.98608: AVG IPC :0.71491: L2-Pf-HR :0.88976: L2-HR :0.86344: (Sim:2h34m56s) 
CPU  0 inst:  437000005 cyc:  608561448 now IPC :1.94423: AVG IPC :0.71595: L2-Pf-HR :0.88975: L2-HR :0.86347: (Sim:2h35m17s) 
CPU  0 inst:  438000003 cyc:  609063211 now IPC :1.99297: AVG IPC :0.71701: L2-Pf-HR :0.88985: L2-HR :0.86360: (Sim:2h35m38s) 
CPU  0 inst:  439000002 cyc:  609565359 now IPC :1.99144: AVG IPC :0.71806: L2-Pf-HR :0.88995: L2-HR :0.86371: (Sim:2h35m59s) 
CPU  0 inst:  440000002 cyc:  610067285 now IPC :1.99233: AVG IPC :0.71911: L2-Pf-HR :0.89002: L2-HR :0.86381: (Sim:2h36m20s) 
CPU  0 inst:  441000001 cyc:  610581145 now IPC :1.94605: AVG IPC :0.72014: L2-Pf-HR :0.89003: L2-HR :0.86386: (Sim:2h36m41s) 
CPU  0 inst:  442000005 cyc:  611086183 now IPC :1.98006: AVG IPC :0.72119: L2-Pf-HR :0.89010: L2-HR :0.86395: (Sim:2h37m2s) 
CPU  0 inst:  443000002 cyc:  611589775 now IPC :1.98573: AVG IPC :0.72223: L2-Pf-HR :0.89017: L2-HR :0.86404: (Sim:2h37m23s) 
CPU  0 inst:  444000004 cyc:  612092881 now IPC :1.98766: AVG IPC :0.72327: L2-Pf-HR :0.89025: L2-HR :0.86414: (Sim:2h37m44s) 
CPU  0 inst:  445000003 cyc:  612599792 now IPC :1.97273: AVG IPC :0.72431: L2-Pf-HR :0.89027: L2-HR :0.86419: (Sim:2h38m4s) 
CPU  0 inst:  446000002 cyc:  613183004 now IPC :1.71464: AVG IPC :0.72525: L2-Pf-HR :0.89014: L2-HR :0.86413: (Sim:2h38m26s) 
CPU  0 inst:  447000004 cyc:  613753958 now IPC :1.75146: AVG IPC :0.72621: L2-Pf-HR :0.89004: L2-HR :0.86408: (Sim:2h38m48s) 
CPU  0 inst:  448000000 cyc:  614323736 now IPC :1.75506: AVG IPC :0.72716: L2-Pf-HR :0.88993: L2-HR :0.86403: (Sim:2h39m9s) 
CPU  0 inst:  449000002 cyc:  614902507 now IPC :1.72780: AVG IPC :0.72811: L2-Pf-HR :0.88982: L2-HR :0.86398: (Sim:2h39m30s) 
CPU  0 inst:  450000004 cyc:  615428260 now IPC :1.90204: AVG IPC :0.72911: L2-Pf-HR :0.88982: L2-HR :0.86402: (Sim:2h39m52s) 
CPU  0 inst:  451000003 cyc:  615932174 now IPC :1.98446: AVG IPC :0.73014: L2-Pf-HR :0.88988: L2-HR :0.86410: (Sim:2h40m13s) 
CPU  0 inst:  452000001 cyc:  616436404 now IPC :1.98322: AVG IPC :0.73117: L2-Pf-HR :0.88991: L2-HR :0.86417: (Sim:2h40m33s) 
CPU  0 inst:  453000002 cyc:  616940226 now IPC :1.98483: AVG IPC :0.73219: L2-Pf-HR :0.88991: L2-HR :0.86421: (Sim:2h40m54s) 
CPU  0 inst:  454000005 cyc:  617454916 now IPC :1.94292: AVG IPC :0.73320: L2-Pf-HR :0.88995: L2-HR :0.86429: (Sim:2h41m15s) 
CPU  0 inst:  455000005 cyc:  617956990 now IPC :1.99174: AVG IPC :0.73423: L2-Pf-HR :0.89004: L2-HR :0.86440: (Sim:2h41m36s) 
CPU  0 inst:  456000005 cyc:  618458421 now IPC :1.99429: AVG IPC :0.73525: L2-Pf-HR :0.89011: L2-HR :0.86449: (Sim:2h41m58s) 
CPU  0 inst:  457000002 cyc:  618960865 now IPC :1.99027: AVG IPC :0.73627: L2-Pf-HR :0.89016: L2-HR :0.86457: (Sim:2h42m19s) 
CPU  0 inst:  458000003 cyc:  619475306 now IPC :1.94386: AVG IPC :0.73727: L2-Pf-HR :0.89020: L2-HR :0.86464: (Sim:2h42m40s) 
CPU  0 inst:  459000003 cyc:  619978307 now IPC :1.98807: AVG IPC :0.73829: L2-Pf-HR :0.89025: L2-HR :0.86471: (Sim:2h43m0s) 
CPU  0 inst:  460000005 cyc:  620481943 now IPC :1.98556: AVG IPC :0.73930: L2-Pf-HR :0.89031: L2-HR :0.86479: (Sim:2h43m21s) 
CPU  0 inst:  461000003 cyc:  620985080 now IPC :1.98753: AVG IPC :0.74032: L2-Pf-HR :0.89036: L2-HR :0.86487: (Sim:2h43m42s) 
CPU  0 inst:  462000005 cyc:  621523927 now IPC :1.85582: AVG IPC :0.74129: L2-Pf-HR :0.89035: L2-HR :0.86490: (Sim:2h44m3s) 
CPU  0 inst:  463000004 cyc:  622103589 now IPC :1.72514: AVG IPC :0.74220: L2-Pf-HR :0.89023: L2-HR :0.86483: (Sim:2h44m24s) 
CPU  0 inst:  464000004 cyc:  622674072 now IPC :1.75290: AVG IPC :0.74313: L2-Pf-HR :0.89013: L2-HR :0.86479: (Sim:2h44m46s) 
CPU  0 inst:  465000001 cyc:  623242616 now IPC :1.75887: AVG IPC :0.74406: L2-Pf-HR :0.89004: L2-HR :0.86475: (Sim:2h45m8s) 
CPU  0 inst:  466000004 cyc:  623818628 now IPC :1.73608: AVG IPC :0.74498: L2-Pf-HR :0.88994: L2-HR :0.86470: (Sim:2h45m29s) 
CPU  0 inst:  467000001 cyc:  624322424 now IPC :1.98492: AVG IPC :0.74598: L2-Pf-HR :0.88997: L2-HR :0.86477: (Sim:2h45m50s) 
CPU  0 inst:  468000001 cyc:  624826007 now IPC :1.98577: AVG IPC :0.74698: L2-Pf-HR :0.89002: L2-HR :0.86485: (Sim:2h46m11s) 
CPU  0 inst:  469000002 cyc:  625329500 now IPC :1.98613: AVG IPC :0.74798: L2-Pf-HR :0.89006: L2-HR :0.86493: (Sim:2h46m31s) 
CPU  0 inst:  470000001 cyc:  625836641 now IPC :1.97184: AVG IPC :0.74897: L2-Pf-HR :0.89004: L2-HR :0.86496: (Sim:2h46m52s) 
CPU  0 inst:  471000001 cyc:  626346436 now IPC :1.96157: AVG IPC :0.74996: L2-Pf-HR :0.89011: L2-HR :0.86505: (Sim:2h47m13s) 
CPU  0 inst:  472000005 cyc:  626848195 now IPC :1.99300: AVG IPC :0.75096: L2-Pf-HR :0.89019: L2-HR :0.86515: (Sim:2h47m34s) 
CPU  0 inst:  473000004 cyc:  627349829 now IPC :1.99348: AVG IPC :0.75195: L2-Pf-HR :0.89026: L2-HR :0.86524: (Sim:2h47m55s) 
CPU  0 inst:  474000000 cyc:  627851808 now IPC :1.99211: AVG IPC :0.75295: L2-Pf-HR :0.89031: L2-HR :0.86532: (Sim:2h48m16s) 
CPU  0 inst:  475000005 cyc:  628368259 now IPC :1.93630: AVG IPC :0.75392: L2-Pf-HR :0.89034: L2-HR :0.86538: (Sim:2h48m37s) 
CPU  0 inst:  476000005 cyc:  628871380 now IPC :1.98759: AVG IPC :0.75491: L2-Pf-HR :0.89040: L2-HR :0.86546: (Sim:2h48m58s) 
CPU  0 inst:  477000005 cyc:  629374991 now IPC :1.98566: AVG IPC :0.75589: L2-Pf-HR :0.89047: L2-HR :0.86554: (Sim:2h49m19s) 
CPU  0 inst:  478000000 cyc:  629878816 now IPC :1.98481: AVG IPC :0.75688: L2-Pf-HR :0.89052: L2-HR :0.86562: (Sim:2h49m39s) 
CPU  0 inst:  479000000 cyc:  630439493 now IPC :1.78356: AVG IPC :0.75779: L2-Pf-HR :0.89044: L2-HR :0.86559: (Sim:2h50m1s) 
CPU  0 inst:  480000004 cyc:  631010223 now IPC :1.75215: AVG IPC :0.75869: L2-Pf-HR :0.89035: L2-HR :0.86555: (Sim:2h50m22s) 
CPU  0 inst:  481000004 cyc:  631578983 now IPC :1.75821: AVG IPC :0.75960: L2-Pf-HR :0.89026: L2-HR :0.86551: (Sim:2h50m43s) 
CPU  0 inst:  482000001 cyc:  632151754 now IPC :1.74589: AVG IPC :0.76049: L2-Pf-HR :0.89017: L2-HR :0.86547: (Sim:2h51m5s) 
CPU  0 inst:  483000000 cyc:  632711667 now IPC :1.78599: AVG IPC :0.76140: L2-Pf-HR :0.89010: L2-HR :0.86545: (Sim:2h51m26s) 
CPU  0 inst:  484000005 cyc:  633218351 now IPC :1.97363: AVG IPC :0.76237: L2-Pf-HR :0.89013: L2-HR :0.86551: (Sim:2h51m47s) 
CPU  0 inst:  485000003 cyc:  633724802 now IPC :1.97452: AVG IPC :0.76334: L2-Pf-HR :0.89017: L2-HR :0.86559: (Sim:2h52m8s) 
CPU  0 inst:  486000000 cyc:  634231952 now IPC :1.97180: AVG IPC :0.76431: L2-Pf-HR :0.89018: L2-HR :0.86563: (Sim:2h52m30s) 
CPU  0 inst:  487000003 cyc:  634748155 now IPC :1.93723: AVG IPC :0.76526: L2-Pf-HR :0.89016: L2-HR :0.86566: (Sim:2h52m50s) 
CPU  0 inst:  488000002 cyc:  635250043 now IPC :1.99247: AVG IPC :0.76624: L2-Pf-HR :0.89025: L2-HR :0.86576: (Sim:2h53m10s) 
CPU  0 inst:  489000000 cyc:  635752716 now IPC :1.98936: AVG IPC :0.76720: L2-Pf-HR :0.89032: L2-HR :0.86585: (Sim:2h53m30s) 
CPU  0 inst:  490000005 cyc:  636254834 now IPC :1.99157: AVG IPC :0.76817: L2-Pf-HR :0.89038: L2-HR :0.86593: (Sim:2h53m52s) 
CPU  0 inst:  491000005 cyc:  636761170 now IPC :1.97497: AVG IPC :0.76913: L2-Pf-HR :0.89041: L2-HR :0.86599: (Sim:2h54m13s) 
CPU  0 inst:  492000000 cyc:  637273315 now IPC :1.95256: AVG IPC :0.77009: L2-Pf-HR :0.89044: L2-HR :0.86604: (Sim:2h54m34s) 
CPU  0 inst:  493000001 cyc:  637777504 now IPC :1.98339: AVG IPC :0.77105: L2-Pf-HR :0.89048: L2-HR :0.86610: (Sim:2h54m54s) 
CPU  0 inst:  494000001 cyc:  638280984 now IPC :1.98618: AVG IPC :0.77201: L2-Pf-HR :0.89051: L2-HR :0.86616: (Sim:2h55m14s) 
CPU  0 inst:  495000002 cyc:  638787648 now IPC :1.97370: AVG IPC :0.77296: L2-Pf-HR :0.89053: L2-HR :0.86620: (Sim:2h55m35s) 
CPU  0 inst:  496000002 cyc:  639364048 now IPC :1.73491: AVG IPC :0.77383: L2-Pf-HR :0.89044: L2-HR :0.86616: (Sim:2h55m56s) 
CPU  0 inst:  497000001 cyc:  639941949 now IPC :1.73040: AVG IPC :0.77469: L2-Pf-HR :0.89033: L2-HR :0.86610: (Sim:2h56m18s) 
CPU  0 inst:  498000003 cyc:  640510242 now IPC :1.75966: AVG IPC :0.77557: L2-Pf-HR :0.89023: L2-HR :0.86605: (Sim:2h56m40s) 
CPU  0 inst:  499000001 cyc:  641084046 now IPC :1.74275: AVG IPC :0.77644: L2-Pf-HR :0.89014: L2-HR :0.86601: (Sim:2h57m3s) 
CPU  0 inst:  500000001 cyc:  641621341 now IPC :1.86117: AVG IPC :0.77735: L2-Pf-HR :0.89011: L2-HR :0.86602: (Sim:2h57m25s) 
CPU  0 inst:  501000000 cyc:  642124156 now IPC :1.98880: AVG IPC :0.77830: L2-Pf-HR :0.89015: L2-HR :0.86608: (Sim:2h57m46s) 
CPU  0 inst:  502000000 cyc:  642627132 now IPC :1.98817: AVG IPC :0.77925: L2-Pf-HR :0.89017: L2-HR :0.86614: (Sim:2h58m7s) 
CPU  0 inst:  503000003 cyc:  643130471 now IPC :1.98674: AVG IPC :0.78019: L2-Pf-HR :0.89018: L2-HR :0.86618: (Sim:2h58m27s) 
CPU  0 inst:  504000002 cyc:  643644137 now IPC :1.94679: AVG IPC :0.78112: L2-Pf-HR :0.89019: L2-HR :0.86622: (Sim:2h58m48s) 
CPU  0 inst:  505000004 cyc:  644145839 now IPC :1.99322: AVG IPC :0.78207: L2-Pf-HR :0.89027: L2-HR :0.86632: (Sim:2h59m10s) 
CPU  0 inst:  506000002 cyc:  644647765 now IPC :1.99232: AVG IPC :0.78301: L2-Pf-HR :0.89035: L2-HR :0.86642: (Sim:2h59m31s) 
CPU  0 inst:  507000004 cyc:  645149975 now IPC :1.99120: AVG IPC :0.78396: L2-Pf-HR :0.89041: L2-HR :0.86650: (Sim:2h59m52s) 
CPU  0 inst:  508000002 cyc:  645667070 now IPC :1.93388: AVG IPC :0.78488: L2-Pf-HR :0.89041: L2-HR :0.86653: (Sim:3h0m14s) 
CPU  0 inst:  509000000 cyc:  646171730 now IPC :1.98153: AVG IPC :0.78581: L2-Pf-HR :0.89046: L2-HR :0.86660: (Sim:3h0m35s) 
CPU  0 inst:  510000002 cyc:  646675208 now IPC :1.98619: AVG IPC :0.78675: L2-Pf-HR :0.89052: L2-HR :0.86668: (Sim:3h0m56s) 
CPU  0 inst:  511000003 cyc:  647178688 now IPC :1.98618: AVG IPC :0.78768: L2-Pf-HR :0.89057: L2-HR :0.86675: (Sim:3h1m17s) 
CPU  0 inst:  512000001 cyc:  647708214 now IPC :1.88848: AVG IPC :0.78859: L2-Pf-HR :0.89055: L2-HR :0.86676: (Sim:3h1m38s) 
CPU  0 inst:  513000002 cyc:  648281256 now IPC :1.74507: AVG IPC :0.78943: L2-Pf-HR :0.89046: L2-HR :0.86671: (Sim:3h2m0s) 
CPU  0 inst:  514000004 cyc:  648854214 now IPC :1.74533: AVG IPC :0.79028: L2-Pf-HR :0.89036: L2-HR :0.86666: (Sim:3h2m22s) 
CPU  0 inst:  515000001 cyc:  649428084 now IPC :1.74255: AVG IPC :0.79112: L2-Pf-HR :0.89028: L2-HR :0.86662: (Sim:3h2m44s) 
CPU  0 inst:  516000000 cyc:  650006386 now IPC :1.72920: AVG IPC :0.79196: L2-Pf-HR :0.89018: L2-HR :0.86657: (Sim:3h3m5s) 
CPU  0 inst:  517000003 cyc:  650516969 now IPC :1.95855: AVG IPC :0.79287: L2-Pf-HR :0.89020: L2-HR :0.86663: (Sim:3h3m26s) 
CPU  0 inst:  518000003 cyc:  651020739 now IPC :1.98503: AVG IPC :0.79380: L2-Pf-HR :0.89025: L2-HR :0.86670: (Sim:3h3m47s) 
CPU  0 inst:  519000002 cyc:  651524681 now IPC :1.98435: AVG IPC :0.79472: L2-Pf-HR :0.89028: L2-HR :0.86676: (Sim:3h4m9s) 
CPU  0 inst:  520000003 cyc:  652028265 now IPC :1.98577: AVG IPC :0.79564: L2-Pf-HR :0.89028: L2-HR :0.86680: (Sim:3h4m30s) 
CPU  0 inst:  521000000 cyc:  652541780 now IPC :1.94736: AVG IPC :0.79655: L2-Pf-HR :0.89032: L2-HR :0.86686: (Sim:3h4m51s) 
CPU  0 inst:  522000005 cyc:  653043338 now IPC :1.99380: AVG IPC :0.79747: L2-Pf-HR :0.89041: L2-HR :0.86697: (Sim:3h5m11s) 
CPU  0 inst:  523000001 cyc:  653545327 now IPC :1.99207: AVG IPC :0.79839: L2-Pf-HR :0.89048: L2-HR :0.86706: (Sim:3h5m33s) 
CPU  0 inst:  524000000 cyc:  654047169 now IPC :1.99266: AVG IPC :0.79931: L2-Pf-HR :0.89052: L2-HR :0.86713: (Sim:3h5m54s) 
CPU  0 inst:  525000004 cyc:  654561888 now IPC :1.94282: AVG IPC :0.80021: L2-Pf-HR :0.89056: L2-HR :0.86719: (Sim:3h6m15s) 
CPU  0 inst:  526000000 cyc:  655065517 now IPC :1.98558: AVG IPC :0.80112: L2-Pf-HR :0.89061: L2-HR :0.86726: (Sim:3h6m36s) 
CPU  0 inst:  527000002 cyc:  655568501 now IPC :1.98814: AVG IPC :0.80203: L2-Pf-HR :0.89067: L2-HR :0.86733: (Sim:3h6m57s) 
CPU  0 inst:  528000002 cyc:  656071683 now IPC :1.98735: AVG IPC :0.80294: L2-Pf-HR :0.89074: L2-HR :0.86742: (Sim:3h7m18s) 
CPU  0 inst:  529000003 cyc:  656617542 now IPC :1.83198: AVG IPC :0.80380: L2-Pf-HR :0.89072: L2-HR :0.86743: (Sim:3h7m39s) 
CPU  0 inst:  530000003 cyc:  657193539 now IPC :1.73612: AVG IPC :0.80462: L2-Pf-HR :0.89061: L2-HR :0.86737: (Sim:3h8m1s) 
CPU  0 inst:  531000003 cyc:  657767103 now IPC :1.74348: AVG IPC :0.80544: L2-Pf-HR :0.89051: L2-HR :0.86732: (Sim:3h8m23s) 
CPU  0 inst:  532000002 cyc:  658339922 now IPC :1.74575: AVG IPC :0.80626: L2-Pf-HR :0.89043: L2-HR :0.86728: (Sim:3h8m44s) 
CPU  0 inst:  533000004 cyc:  658899391 now IPC :1.78741: AVG IPC :0.80709: L2-Pf-HR :0.89036: L2-HR :0.86726: (Sim:3h9m5s) 
CPU  0 inst:  534000004 cyc:  659405681 now IPC :1.97515: AVG IPC :0.80799: L2-Pf-HR :0.89040: L2-HR :0.86732: (Sim:3h9m17s) 
CPU  0 inst:  535000001 cyc:  659912022 now IPC :1.97495: AVG IPC :0.80889: L2-Pf-HR :0.89044: L2-HR :0.86739: (Sim:3h9m27s) 
CPU  0 inst:  536000002 cyc:  660418553 now IPC :1.97421: AVG IPC :0.80978: L2-Pf-HR :0.89045: L2-HR :0.86744: (Sim:3h9m37s) 
CPU  0 inst:  537000004 cyc:  660935796 now IPC :1.93333: AVG IPC :0.81066: L2-Pf-HR :0.89043: L2-HR :0.86745: (Sim:3h9m47s) 
CPU  0 inst:  538000003 cyc:  661438578 now IPC :1.98893: AVG IPC :0.81156: L2-Pf-HR :0.89050: L2-HR :0.86754: (Sim:3h9m57s) 
CPU  0 inst:  539000005 cyc:  661940857 now IPC :1.99093: AVG IPC :0.81245: L2-Pf-HR :0.89057: L2-HR :0.86762: (Sim:3h10m6s) 
CPU  0 inst:  540000001 cyc:  662442989 now IPC :1.99150: AVG IPC :0.81335: L2-Pf-HR :0.89064: L2-HR :0.86770: (Sim:3h10m16s) 
CPU  0 inst:  541000002 cyc:  662948016 now IPC :1.98009: AVG IPC :0.81424: L2-Pf-HR :0.89064: L2-HR :0.86774: (Sim:3h10m26s) 
CPU  0 inst:  542000005 cyc:  663460474 now IPC :1.95139: AVG IPC :0.81512: L2-Pf-HR :0.89068: L2-HR :0.86779: (Sim:3h10m35s) 
CPU  0 inst:  543000000 cyc:  663964221 now IPC :1.98511: AVG IPC :0.81601: L2-Pf-HR :0.89072: L2-HR :0.86785: (Sim:3h10m45s) 
CPU  0 inst:  544000004 cyc:  664467562 now IPC :1.98673: AVG IPC :0.81690: L2-Pf-HR :0.89077: L2-HR :0.86791: (Sim:3h10m58s) 
CPU  0 inst:  545000000 cyc:  664971180 now IPC :1.98562: AVG IPC :0.81778: L2-Pf-HR :0.89081: L2-HR :0.86797: (Sim:3h11m18s) 
CPU  0 inst:  546000002 cyc:  665542861 now IPC :1.74923: AVG IPC :0.81858: L2-Pf-HR :0.89072: L2-HR :0.86791: (Sim:3h11m38s) 
CPU  0 inst:  547000004 cyc:  666111634 now IPC :1.75817: AVG IPC :0.81939: L2-Pf-HR :0.89063: L2-HR :0.86787: (Sim:3h11m59s) 
CPU  0 inst:  548000002 cyc:  666682810 now IPC :1.75077: AVG IPC :0.82019: L2-Pf-HR :0.89055: L2-HR :0.86783: (Sim:3h12m21s) 
CPU  0 inst:  549000005 cyc:  667254861 now IPC :1.74810: AVG IPC :0.82098: L2-Pf-HR :0.89047: L2-HR :0.86779: (Sim:3h12m42s) 
CPU  0 inst:  550000005 cyc:  667801960 now IPC :1.82782: AVG IPC :0.82181: L2-Pf-HR :0.89042: L2-HR :0.86778: (Sim:3h13m3s) 
CPU  0 inst:  551000001 cyc:  668305811 now IPC :1.98471: AVG IPC :0.82269: L2-Pf-HR :0.89047: L2-HR :0.86785: (Sim:3h13m24s) 
CPU  0 inst:  552000005 cyc:  668809125 now IPC :1.98684: AVG IPC :0.82356: L2-Pf-HR :0.89050: L2-HR :0.86790: (Sim:3h13m44s) 
CPU  0 inst:  553000000 cyc:  669313142 now IPC :1.98405: AVG IPC :0.82444: L2-Pf-HR :0.89051: L2-HR :0.86795: (Sim:3h14m3s) 
CPU  0 inst:  554000000 cyc:  669827099 now IPC :1.94569: AVG IPC :0.82530: L2-Pf-HR :0.89050: L2-HR :0.86797: (Sim:3h14m24s) 
CPU  0 inst:  555000002 cyc:  670328687 now IPC :1.99367: AVG IPC :0.82618: L2-Pf-HR :0.89058: L2-HR :0.86806: (Sim:3h14m45s) 
CPU  0 inst:  556000003 cyc:  670830734 now IPC :1.99185: AVG IPC :0.82705: L2-Pf-HR :0.89066: L2-HR :0.86815: (Sim:3h15m6s) 
CPU  0 inst:  557000001 cyc:  671333192 now IPC :1.99021: AVG IPC :0.82792: L2-Pf-HR :0.89071: L2-HR :0.86823: (Sim:3h15m27s) 
CPU  0 inst:  558000000 cyc:  671847308 now IPC :1.94508: AVG IPC :0.82878: L2-Pf-HR :0.89072: L2-HR :0.86826: (Sim:3h15m48s) 
CPU  0 inst:  559000001 cyc:  672352580 now IPC :1.97913: AVG IPC :0.82964: L2-Pf-HR :0.89076: L2-HR :0.86832: (Sim:3h16m9s) 
CPU  0 inst:  560000005 cyc:  672856246 now IPC :1.98545: AVG IPC :0.83051: L2-Pf-HR :0.89080: L2-HR :0.86838: (Sim:3h16m30s) 
CPU  0 inst:  561000002 cyc:  673359911 now IPC :1.98544: AVG IPC :0.83138: L2-Pf-HR :0.89083: L2-HR :0.86842: (Sim:3h16m51s) 
CPU  0 inst:  562000002 cyc:  673866533 now IPC :1.97386: AVG IPC :0.83224: L2-Pf-HR :0.89087: L2-HR :0.86848: (Sim:3h17m12s) 
CPU  0 inst:  563000003 cyc:  674452153 now IPC :1.70759: AVG IPC :0.83300: L2-Pf-HR :0.89076: L2-HR :0.86841: (Sim:3h17m35s) 
CPU  0 inst:  564000000 cyc:  675030429 now IPC :1.72927: AVG IPC :0.83377: L2-Pf-HR :0.89066: L2-HR :0.86836: (Sim:3h17m53s) 
CPU  0 inst:  565000000 cyc:  675606110 now IPC :1.73707: AVG IPC :0.83454: L2-Pf-HR :0.89058: L2-HR :0.86831: (Sim:3h18m3s) 
CPU  0 inst:  566000005 cyc:  676185764 now IPC :1.72518: AVG IPC :0.83530: L2-Pf-HR :0.89048: L2-HR :0.86826: (Sim:3h18m13s) 
CPU  0 inst:  567000001 cyc:  676697846 now IPC :1.95280: AVG IPC :0.83615: L2-Pf-HR :0.89050: L2-HR :0.86831: (Sim:3h18m23s) 
CPU  0 inst:  568000003 cyc:  677201387 now IPC :1.98594: AVG IPC :0.83700: L2-Pf-HR :0.89054: L2-HR :0.86838: (Sim:3h18m33s) 
CPU  0 inst:  569000004 cyc:  677705301 now IPC :1.98447: AVG IPC :0.83786: L2-Pf-HR :0.89057: L2-HR :0.86843: (Sim:3h18m42s) 
CPU  0 inst:  570000005 cyc:  678208480 now IPC :1.98737: AVG IPC :0.83871: L2-Pf-HR :0.89059: L2-HR :0.86849: (Sim:3h18m52s) 
CPU  0 inst:  571000001 cyc:  678723818 now IPC :1.94047: AVG IPC :0.83955: L2-Pf-HR :0.89063: L2-HR :0.86854: (Sim:3h19m2s) 
CPU  0 inst:  572000000 cyc:  679225782 now IPC :1.99217: AVG IPC :0.84040: L2-Pf-HR :0.89071: L2-HR :0.86864: (Sim:3h19m11s) 
CPU  0 inst:  573000001 cyc:  679727470 now IPC :1.99327: AVG IPC :0.84126: L2-Pf-HR :0.89077: L2-HR :0.86872: (Sim:3h19m21s) 
CPU  0 inst:  574000004 cyc:  680229601 now IPC :1.99152: AVG IPC :0.84211: L2-Pf-HR :0.89082: L2-HR :0.86879: (Sim:3h19m31s) 
CPU  0 inst:  575000005 cyc:  680744337 now IPC :1.94275: AVG IPC :0.84294: L2-Pf-HR :0.89083: L2-HR :0.86882: (Sim:3h19m41s) 
CPU  0 inst:  576000004 cyc:  681247505 now IPC :1.98741: AVG IPC :0.84379: L2-Pf-HR :0.89088: L2-HR :0.86888: (Sim:3h19m50s) 
CPU  0 inst:  577000002 cyc:  681751201 now IPC :1.98532: AVG IPC :0.84463: L2-Pf-HR :0.89093: L2-HR :0.86894: (Sim:3h20m0s) 
CPU  0 inst:  578000000 cyc:  682255040 now IPC :1.98476: AVG IPC :0.84547: L2-Pf-HR :0.89097: L2-HR :0.86900: (Sim:3h20m10s) 
CPU  0 inst:  579000005 cyc:  682796394 now IPC :1.84723: AVG IPC :0.84627: L2-Pf-HR :0.89092: L2-HR :0.86898: (Sim:3h20m20s) 
CPU  0 inst:  580000001 cyc:  683370352 now IPC :1.74228: AVG IPC :0.84702: L2-Pf-HR :0.89083: L2-HR :0.86893: (Sim:3h20m37s) 
CPU  0 inst:  581000005 cyc:  683941141 now IPC :1.75197: AVG IPC :0.84778: L2-Pf-HR :0.89076: L2-HR :0.86889: (Sim:3h20m57s) 
CPU  0 inst:  582000002 cyc:  684513560 now IPC :1.74697: AVG IPC :0.84853: L2-Pf-HR :0.89068: L2-HR :0.86885: (Sim:3h21m18s) 
CPU  0 inst:  583000000 cyc:  685088356 now IPC :1.73974: AVG IPC :0.84928: L2-Pf-HR :0.89060: L2-HR :0.86881: (Sim:3h21m40s) 
CPU  0 inst:  584000001 cyc:  685595461 now IPC :1.97198: AVG IPC :0.85011: L2-Pf-HR :0.89065: L2-HR :0.86889: (Sim:3h22m1s) 
CPU  0 inst:  585000001 cyc:  686102159 now IPC :1.97356: AVG IPC :0.85094: L2-Pf-HR :0.89069: L2-HR :0.86895: (Sim:3h22m23s) 
CPU  0 inst:  586000005 cyc:  686608873 now IPC :1.97351: AVG IPC :0.85177: L2-Pf-HR :0.89072: L2-HR :0.86901: (Sim:3h22m45s) 
CPU  0 inst:  587000003 cyc:  687121223 now IPC :1.95179: AVG IPC :0.85259: L2-Pf-HR :0.89072: L2-HR :0.86904: (Sim:3h23m6s) 
CPU  0 inst:  588000003 cyc:  687630463 now IPC :1.96371: AVG IPC :0.85342: L2-Pf-HR :0.89077: L2-HR :0.86911: (Sim:3h23m28s) 
CPU  0 inst:  589000004 cyc:  688132414 now IPC :1.99223: AVG IPC :0.85425: L2-Pf-HR :0.89085: L2-HR :0.86920: (Sim:3h23m50s) 
CPU  0 inst:  590000003 cyc:  688634246 now IPC :1.99270: AVG IPC :0.85508: L2-Pf-HR :0.89091: L2-HR :0.86928: (Sim:3h24m11s) 
CPU  0 inst:  591000001 cyc:  689136358 now IPC :1.99158: AVG IPC :0.85591: L2-Pf-HR :0.89095: L2-HR :0.86934: (Sim:3h24m33s) 
CPU  0 inst:  592000001 cyc:  689654345 now IPC :1.93055: AVG IPC :0.85672: L2-Pf-HR :0.89097: L2-HR :0.86938: (Sim:3h24m54s) 
CPU  0 inst:  593000000 cyc:  690158961 now IPC :1.98170: AVG IPC :0.85754: L2-Pf-HR :0.89102: L2-HR :0.86945: (Sim:3h25m15s) 
CPU  0 inst:  594000004 cyc:  690662942 now IPC :1.98421: AVG IPC :0.85837: L2-Pf-HR :0.89107: L2-HR :0.86951: (Sim:3h25m36s) 
CPU  0 inst:  595000005 cyc:  691166724 now IPC :1.98499: AVG IPC :0.85919: L2-Pf-HR :0.89110: L2-HR :0.86956: (Sim:3h25m57s) 
CPU  0 inst:  596000000 cyc:  691723941 now IPC :1.79462: AVG IPC :0.85994: L2-Pf-HR :0.89105: L2-HR :0.86955: (Sim:3h26m19s) 
CPU  0 inst:  597000005 cyc:  692300409 now IPC :1.73471: AVG IPC :0.86067: L2-Pf-HR :0.89096: L2-HR :0.86949: (Sim:3h26m40s) 
CPU  0 inst:  598000003 cyc:  692877740 now IPC :1.73211: AVG IPC :0.86140: L2-Pf-HR :0.89086: L2-HR :0.86943: (Sim:3h27m2s) 
CPU  0 inst:  599000004 cyc:  693448038 now IPC :1.75347: AVG IPC :0.86213: L2-Pf-HR :0.89078: L2-HR :0.86939: (Sim:3h27m24s) 
CPU  0 inst:  600000000 cyc:  693997405 now IPC :1.82027: AVG IPC :0.86289: L2-Pf-HR :0.89075: L2-HR :0.86939: (Sim:3h27m46s) 
CPU  0 inst:  601000002 cyc:  694503643 now IPC :1.97536: AVG IPC :0.86371: L2-Pf-HR :0.89078: L2-HR :0.86945: (Sim:3h28m7s) 
CPU  0 inst:  602000000 cyc:  695009745 now IPC :1.97588: AVG IPC :0.86452: L2-Pf-HR :0.89081: L2-HR :0.86950: (Sim:3h28m29s) 
CPU  0 inst:  603000005 cyc:  695516073 now IPC :1.97501: AVG IPC :0.86533: L2-Pf-HR :0.89083: L2-HR :0.86955: (Sim:3h28m42s) 
CPU  0 inst:  604000001 cyc:  696033453 now IPC :1.93281: AVG IPC :0.86612: L2-Pf-HR :0.89083: L2-HR :0.86958: (Sim:3h28m52s) 
CPU  0 inst:  605000003 cyc:  696535229 now IPC :1.99293: AVG IPC :0.86693: L2-Pf-HR :0.89090: L2-HR :0.86967: (Sim:3h29m11s) 
CPU  0 inst:  606000003 cyc:  697037152 now IPC :1.99234: AVG IPC :0.86775: L2-Pf-HR :0.89096: L2-HR :0.86974: (Sim:3h29m32s) 
CPU  0 inst:  607000002 cyc:  697539040 now IPC :1.99247: AVG IPC :0.86856: L2-Pf-HR :0.89102: L2-HR :0.86981: (Sim:3h29m52s) 
CPU  0 inst:  608000005 cyc:  698053298 now IPC :1.94456: AVG IPC :0.86935: L2-Pf-HR :0.89104: L2-HR :0.86986: (Sim:3h30m2s) 
CPU  0 inst:  609000002 cyc:  698559120 now IPC :1.97697: AVG IPC :0.87015: L2-Pf-HR :0.89110: L2-HR :0.86993: (Sim:3h30m14s) 
CPU  0 inst:  610000001 cyc:  699062068 now IPC :1.98828: AVG IPC :0.87096: L2-Pf-HR :0.89115: L2-HR :0.86999: (Sim:3h30m35s) 
CPU  0 inst:  611000004 cyc:  699565270 now IPC :1.98728: AVG IPC :0.87176: L2-Pf-HR :0.89120: L2-HR :0.87006: (Sim:3h30m57s) 
CPU  0 inst:  612000005 cyc:  700071485 now IPC :1.97545: AVG IPC :0.87256: L2-Pf-HR :0.89124: L2-HR :0.87012: (Sim:3h31m18s) 
CPU  0 inst:  613000003 cyc:  700654828 now IPC :1.71425: AVG IPC :0.87326: L2-Pf-HR :0.89116: L2-HR :0.87007: (Sim:3h31m41s) 
CPU  0 inst:  614000000 cyc:  701225797 now IPC :1.75140: AVG IPC :0.87398: L2-Pf-HR :0.89108: L2-HR :0.87003: (Sim:3h32m3s) 
CPU  0 inst:  615000005 cyc:  701794498 now IPC :1.75840: AVG IPC :0.87470: L2-Pf-HR :0.89101: L2-HR :0.86999: (Sim:3h32m25s) 
CPU  0 inst:  616000004 cyc:  702363054 now IPC :1.75884: AVG IPC :0.87541: L2-Pf-HR :0.89093: L2-HR :0.86995: (Sim:3h32m47s) 
CPU  0 inst:  617000002 cyc:  702896277 now IPC :1.87538: AVG IPC :0.87617: L2-Pf-HR :0.89091: L2-HR :0.86996: (Sim:3h33m9s) 
CPU  0 inst:  618000003 cyc:  703399951 now IPC :1.98541: AVG IPC :0.87697: L2-Pf-HR :0.89095: L2-HR :0.87001: (Sim:3h33m31s) 
CPU  0 inst:  619000004 cyc:  703903297 now IPC :1.98671: AVG IPC :0.87776: L2-Pf-HR :0.89097: L2-HR :0.87006: (Sim:3h33m53s) 
CPU  0 inst:  620000003 cyc:  704406727 now IPC :1.98637: AVG IPC :0.87856: L2-Pf-HR :0.89098: L2-HR :0.87010: (Sim:3h34m14s) 
CPU  0 inst:  621000003 cyc:  704918970 now IPC :1.95220: AVG IPC :0.87934: L2-Pf-HR :0.89099: L2-HR :0.87013: (Sim:3h34m36s) 
CPU  0 inst:  622000000 cyc:  705420914 now IPC :1.99225: AVG IPC :0.88013: L2-Pf-HR :0.89106: L2-HR :0.87021: (Sim:3h34m58s) 
CPU  0 inst:  623000005 cyc:  705922566 now IPC :1.99342: AVG IPC :0.88092: L2-Pf-HR :0.89112: L2-HR :0.87029: (Sim:3h35m19s) 
CPU  0 inst:  624000004 cyc:  706424501 now IPC :1.99229: AVG IPC :0.88171: L2-Pf-HR :0.89118: L2-HR :0.87036: (Sim:3h35m41s) 
CPU  0 inst:  625000001 cyc:  706938444 now IPC :1.94574: AVG IPC :0.88249: L2-Pf-HR :0.89118: L2-HR :0.87039: (Sim:3h35m51s) 
CPU  0 inst:  626000004 cyc:  707442088 now IPC :1.98554: AVG IPC :0.88328: L2-Pf-HR :0.89123: L2-HR :0.87045: (Sim:3h36m0s) 
CPU  0 inst:  627000003 cyc:  707944994 now IPC :1.98844: AVG IPC :0.88406: L2-Pf-HR :0.89129: L2-HR :0.87052: (Sim:3h36m12s) 
CPU  0 inst:  628000001 cyc:  708448346 now IPC :1.98668: AVG IPC :0.88485: L2-Pf-HR :0.89133: L2-HR :0.87058: (Sim:3h36m33s) 
CPU  0 inst:  629000001 cyc:  708979293 now IPC :1.88343: AVG IPC :0.88559: L2-Pf-HR :0.89133: L2-HR :0.87059: (Sim:3h36m55s) 
CPU  0 inst:  630000002 cyc:  709549306 now IPC :1.75435: AVG IPC :0.88629: L2-Pf-HR :0.89124: L2-HR :0.87054: (Sim:3h37m15s) 
CPU  0 inst:  631000001 cyc:  710125650 now IPC :1.73507: AVG IPC :0.88698: L2-Pf-HR :0.89117: L2-HR :0.87050: (Sim:3h37m36s) 
CPU  0 inst:  632000000 cyc:  710702562 now IPC :1.73336: AVG IPC :0.88767: L2-Pf-HR :0.89107: L2-HR :0.87044: (Sim:3h37m58s) 
CPU  0 inst:  633000002 cyc:  711272563 now IPC :1.75439: AVG IPC :0.88837: L2-Pf-HR :0.89101: L2-HR :0.87041: (Sim:3h38m20s) 
CPU  0 inst:  634000004 cyc:  711782803 now IPC :1.95987: AVG IPC :0.88914: L2-Pf-HR :0.89103: L2-HR :0.87045: (Sim:3h38m42s) 
CPU  0 inst:  635000005 cyc:  712287166 now IPC :1.98270: AVG IPC :0.88991: L2-Pf-HR :0.89106: L2-HR :0.87050: (Sim:3h38m56s) 
CPU  0 inst:  636000000 cyc:  712791176 now IPC :1.98408: AVG IPC :0.89069: L2-Pf-HR :0.89108: L2-HR :0.87055: (Sim:3h39m5s) 
CPU  0 inst:  637000000 cyc:  713297281 now IPC :1.97587: AVG IPC :0.89146: L2-Pf-HR :0.89107: L2-HR :0.87056: (Sim:3h39m14s) 
CPU  0 inst:  638000004 cyc:  713809203 now IPC :1.95343: AVG IPC :0.89222: L2-Pf-HR :0.89113: L2-HR :0.87064: (Sim:3h39m24s) 
CPU  0 inst:  639000000 cyc:  714311382 now IPC :1.99131: AVG IPC :0.89299: L2-Pf-HR :0.89119: L2-HR :0.87071: (Sim:3h39m33s) 
CPU  0 inst:  640000005 cyc:  714813195 now IPC :1.99278: AVG IPC :0.89377: L2-Pf-HR :0.89125: L2-HR :0.87078: (Sim:3h39m42s) 
CPU  0 inst:  641000004 cyc:  715315323 now IPC :1.99152: AVG IPC :0.89454: L2-Pf-HR :0.89129: L2-HR :0.87084: (Sim:3h39m51s) 
CPU  0 inst:  642000004 cyc:  715831561 now IPC :1.93709: AVG IPC :0.89529: L2-Pf-HR :0.89130: L2-HR :0.87087: (Sim:3h40m0s) 
CPU  0 inst:  643000003 cyc:  716337050 now IPC :1.97828: AVG IPC :0.89606: L2-Pf-HR :0.89134: L2-HR :0.87092: (Sim:3h40m9s) 
CPU  0 inst:  644000003 cyc:  716841653 now IPC :1.98176: AVG IPC :0.89682: L2-Pf-HR :0.89140: L2-HR :0.87099: (Sim:3h40m18s) 
CPU  0 inst:  645000001 cyc:  717345008 now IPC :1.98667: AVG IPC :0.89759: L2-Pf-HR :0.89145: L2-HR :0.87105: (Sim:3h40m28s) 
CPU  0 inst:  646000004 cyc:  717907205 now IPC :1.77874: AVG IPC :0.89828: L2-Pf-HR :0.89140: L2-HR :0.87103: (Sim:3h40m37s) 
CPU  0 inst:  647000003 cyc:  718478924 now IPC :1.74911: AVG IPC :0.89896: L2-Pf-HR :0.89132: L2-HR :0.87098: (Sim:3h40m46s) 
CPU  0 inst:  648000005 cyc:  719048886 now IPC :1.75451: AVG IPC :0.89964: L2-Pf-HR :0.89125: L2-HR :0.87095: (Sim:3h40m56s) 
CPU  0 inst:  649000002 cyc:  719621214 now IPC :1.74724: AVG IPC :0.90031: L2-Pf-HR :0.89118: L2-HR :0.87091: (Sim:3h41m5s) 
CPU  0 inst:  650000001 cyc:  720187101 now IPC :1.76714: AVG IPC :0.90099: L2-Pf-HR :0.89112: L2-HR :0.87088: (Sim:3h41m14s) 
CPU  0 inst:  651000004 cyc:  720693586 now IPC :1.97440: AVG IPC :0.90175: L2-Pf-HR :0.89116: L2-HR :0.87094: (Sim:3h41m23s) 
CPU  0 inst:  652000001 cyc:  721200165 now IPC :1.97402: AVG IPC :0.90250: L2-Pf-HR :0.89120: L2-HR :0.87100: (Sim:3h41m32s) 
CPU  0 inst:  653000005 cyc:  721706490 now IPC :1.97502: AVG IPC :0.90326: L2-Pf-HR :0.89122: L2-HR :0.87105: (Sim:3h41m42s) 
CPU  0 inst:  654000004 cyc:  722222785 now IPC :1.93688: AVG IPC :0.90400: L2-Pf-HR :0.89121: L2-HR :0.87106: (Sim:3h41m51s) 
CPU  0 inst:  655000001 cyc:  722725533 now IPC :1.98906: AVG IPC :0.90475: L2-Pf-HR :0.89127: L2-HR :0.87113: (Sim:3h42m0s) 
CPU  0 inst:  656000001 cyc:  723227468 now IPC :1.99229: AVG IPC :0.90551: L2-Pf-HR :0.89133: L2-HR :0.87121: (Sim:3h42m9s) 
CPU  0 inst:  657000002 cyc:  723729486 now IPC :1.99196: AVG IPC :0.90626: L2-Pf-HR :0.89139: L2-HR :0.87128: (Sim:3h42m18s) 
CPU  0 inst:  658000001 cyc:  724235795 now IPC :1.97508: AVG IPC :0.90701: L2-Pf-HR :0.89140: L2-HR :0.87131: (Sim:3h42m27s) 
CPU  0 inst:  659000003 cyc:  724750737 now IPC :1.94197: AVG IPC :0.90775: L2-Pf-HR :0.89142: L2-HR :0.87135: (Sim:3h42m36s) 
Finished CPU 0 instr: 657000002 cyc: 723770069 AVG IPC: 0.90775 (Sim time: 3h42m36s)

ChampSim completed all CPUs

[ROI Statistics]
Core_0_instructions 657000002
Core_0_cycles 723770069
Core_0_IPC 0.90775

Core_0_branch_prediction_accuracy 99.58944
Core_0_branch_MPKI 0.11916
Core_0_average_ROB_occupancy_at_mispredict 571.33160

Core_0_L1D_total_access 451402045
Core_0_L1D_total_hit 435351258 L1D_total_Hit Ratio: 0.96444
Core_0_L1D_total_miss 16050787
Core_0_L1D_loads 191454620
Core_0_L1D_load_hit 186346082 L1D_load_Hit Ratio: 0.97332
Core_0_L1D_load_miss 5108538
Core_0_L1D_RFOs 17215581
Core_0_L1D_RFO_hit 16215642 L1D_RFO_Hit Ratio: 0.94192
Core_0_L1D_RFO_miss 999939
Core_0_L1D_prefetches 242731844
Core_0_L1D_prefetch_hit 232789534 L1D_prefetch_Hit Ratio: 0.95904
Core_0_L1D_prefetch_miss 9942310
Core_0_L1D_writebacks 0
Core_0_L1D_writeback_hit 0 L1D_writeback_Hit Ratio: -nan
Core_0_L1D_writeback_miss 0
Core_0_L1D_prefetch_requested 579359091
Core_0_L1D_prefetch_issued 294535020
Core_0_L1D_prefetch_useful 7205837 L1D_Useful Ratio: 0.02447
Core_0_L1D_prefetch_useless 2757809
Core_0_L1D_prefetch_late 638691
Core_0_L1D_average_miss_latency 7533149.24607

Core_0_L1I_total_access 103127660
Core_0_L1I_total_hit 103125669 L1I_total_Hit Ratio: 0.99998
Core_0_L1I_total_miss 1991
Core_0_L1I_loads 103127660
Core_0_L1I_load_hit 103125669 L1I_load_Hit Ratio: 0.99998
Core_0_L1I_load_miss 1991
Core_0_L1I_RFOs 0
Core_0_L1I_RFO_hit 0 L1I_RFO_Hit Ratio: -nan
Core_0_L1I_RFO_miss 0
Core_0_L1I_prefetches 0
Core_0_L1I_prefetch_hit 0 L1I_prefetch_Hit Ratio: -nan
Core_0_L1I_prefetch_miss 0
Core_0_L1I_writebacks 0
Core_0_L1I_writeback_hit 0 L1I_writeback_Hit Ratio: -nan
Core_0_L1I_writeback_miss 0
Core_0_L1I_prefetch_requested 0
Core_0_L1I_prefetch_issued 0
Core_0_L1I_prefetch_useful 0 L1I_Useful Ratio: -nan
Core_0_L1I_prefetch_useless 0
Core_0_L1I_prefetch_late 0
Core_0_L1I_average_miss_latency 335.21246

Core_0_L2C_total_access 46822152
Core_0_L2C_total_hit 40798258 L2C_total_Hit Ratio: 0.87135
Core_0_L2C_total_miss 6023894
Core_0_L2C_loads 4473534
Core_0_L2C_load_hit 3518571 L2C_load_Hit Ratio: 0.78653
Core_0_L2C_load_miss 954963
Core_0_L2C_RFOs 999935
Core_0_L2C_RFO_hit 298 L2C_RFO_Hit Ratio: 0.00030
Core_0_L2C_RFO_miss 999637
Core_0_L2C_prefetches 37477621
Core_0_L2C_prefetch_hit 33408368 L2C_prefetch_Hit Ratio: 0.89142
Core_0_L2C_prefetch_miss 4069253
Core_0_L2C_writebacks 3871062
Core_0_L2C_writeback_hit 3871021 L2C_writeback_Hit Ratio: 0.99999
Core_0_L2C_writeback_miss 41
Core_0_L2C_prefetch_requested 75131824
Core_0_L2C_prefetch_issued 40048993
Core_0_L2C_prefetch_useful 1135610 L2C_Useful Ratio: 0.02836
Core_0_L2C_prefetch_useless 2895188
Core_0_L2C_prefetch_late 607274
Core_0_L2C_average_miss_latency 280.90180

Core_0_LLC_total_access 9329591
Core_0_LLC_total_hit 3813878 LLC_total_Hit Ratio: 0.40879
Core_0_LLC_total_miss 5515713
Core_0_LLC_loads 347698
Core_0_LLC_load_hit 96323 LLC_load_Hit Ratio: 0.27703
Core_0_LLC_load_miss 251375
Core_0_LLC_RFOs 999637
Core_0_LLC_RFO_hit 115 LLC_RFO_Hit Ratio: 0.00012
Core_0_LLC_RFO_miss 999522
Core_0_LLC_prefetches 4739370
Core_0_LLC_prefetch_hit 487959 LLC_prefetch_Hit Ratio: 0.10296
Core_0_LLC_prefetch_miss 4251411
Core_0_LLC_writebacks 3242886
Core_0_LLC_writeback_hit 3229481 LLC_writeback_Hit Ratio: 0.99587
Core_0_LLC_writeback_miss 13405
Core_0_LLC_prefetch_requested 0
Core_0_LLC_prefetch_issued 0
Core_0_LLC_prefetch_useful 90036 LLC_Useful Ratio: inf
Core_0_LLC_prefetch_useless 4062048
Core_0_LLC_prefetch_late 3921
Core_0_LLC_average_miss_latency 312.35128

Core_0_major_page_fault 0
Core_0_minor_page_fault 37887

CPU 0 L1D next line prefetcher final stats
CPU 0 L2C PC-based stride prefetcher final stats
Stride Degree: 15
MK1  MARKOV_LRU_SIZE: 128
MK1  MARKOV_PREDICTION_PERCENTTHRESHOLD: 40.00000
MK1  OUTLIERS_THRESHOLD_Max: 64
MK1  OUTLIERS_THRESHOLD_Min: 32
MK2  MARKOV_LRU_SIZE: 256
MK2  MARKOV_PREDICTION_PERCENTTHRESHOLD: 30.00000
MK2  OUTLIERS_THRESHOLD_Max: 32
MK2  OUTLIERS_THRESHOLD_Min: 16
MK3  MARKOV_LRU_SIZE: 384
MK3  MARKOV_PREDICTION_PERCENTTHRESHOLD: 25.00000
MK3  OUTLIERS_THRESHOLD_Max: 16
MK3  OUTLIERS_THRESHOLD_Min: 8
MK4  MARKOV_LRU_SIZE: 512
MK4  MARKOV_PREDICTION_PERCENTTHRESHOLD: 20.00000
MK4  OUTLIERS_THRESHOLD_Max: 8
MK4  OUTLIERS_THRESHOLD_Min: 0
IPStride Degree/Access Ratio: 3.38991
MK1 IPDEltaMarkov  Degree/Access Ratio: 0.47057
MK2 IPDEltaMarkov  Degree/Access Ratio: 0.16201
MK3 IPDEltaMarkov  Degree/Access Ratio: 0.33499
MK4 IPDEltaMarkov  Degree/Access Ratio: 0.87877
Channel_0_RQ_row_buffer_hit 2761728
Channel_0_RQ_row_buffer_miss 2740580
Channel_0_WQ_row_buffer_hit 946211
Channel_0_WQ_row_buffer_miss 2265096
Channel_0_WQ_full 3635
Channel_0_dbus_congested 4946380

avg_congested_cycle 8

EzSearch AVG IPC :0.90775: L2-Pf-HR :0.89142 : L2-HR :0.87135 Uful:0.02836
     > Finished combination: TraceType=770-tot Sim:657000000 Prefetcher=L2029-SecTOP-L2-MultiMarkovDelta_ip_stride_v4-IPStrS256 L1=next_line
