TRACE: [75000000]_FE_[GPT-Neo_1_3B]_[h16]_[s256]_[d128] Warmup: 2000000 NumTraces: 75000000
L1:berti:L2:berti
*************************************************
   ChampSim Multicore Out-of-Order Simulator
   Last compiled: Oct 26 2024 16:57:47
*************************************************

trace_0 770-tot_memTraces_v3/memTraces[75000000]_FE_[GPT-Neo_1_3B]_[h16]_[s256]_[d128].champsim.xz
CPU 0 L1D Berti prefetcher
CPU 0 L2C Berti prefetcher
MAIN.cc ln 751 stats print skipped
CPU  0 inst:    1000000 cyc:     499706 now IPC :2.00118: AVG IPC :2.00118: L2-Pf-HR :0.64414: L2-HR :0.64437: (Sim:0h0m7s) 
CPU  0 inst:    2000002 cyc:     985052 now IPC :2.06039: AVG IPC :2.03035: L2-Pf-HR :0.79567: L2-HR :0.76920: (Sim:0h0m15s) 

Warmup complete CPU  0 instructions:    2000002 cycles:     985052 (Simulation time: 0 hr 0 min 15 sec) 

CPU  0 inst:    3000005 cyc:    1552428 now IPC :1.76250: AVG IPC :1.76250: L2-Pf-HR :0.87013: L2-HR :0.82102: (Sim:0h0m22s) 
CPU  0 inst:    4000001 cyc:    2035955 now IPC :2.06813: AVG IPC :1.90312: L2-Pf-HR :0.91072: L2-HR :0.87049: (Sim:0h0m29s) 
CPU  0 inst:    5000000 cyc:    2582262 now IPC :1.83047: AVG IPC :1.87827: L2-Pf-HR :0.89560: L2-HR :0.85683: (Sim:0h0m36s) 
CPU  0 inst:    6000005 cyc:    3074649 now IPC :2.03093: AVG IPC :1.91425: L2-Pf-HR :0.90684: L2-HR :0.87016: (Sim:0h0m43s) 
CPU  0 inst:    7000005 cyc:    3622398 now IPC :1.82565: AVG IPC :1.89585: L2-Pf-HR :0.89901: L2-HR :0.86294: (Sim:0h0m51s) 
CPU  0 inst:    8000000 cyc:    4105491 now IPC :2.06998: AVG IPC :1.92281: L2-Pf-HR :0.90580: L2-HR :0.87190: (Sim:0h0m58s) 
CPU  0 inst:    9000005 cyc:    4652231 now IPC :1.82903: AVG IPC :1.90883: L2-Pf-HR :0.90182: L2-HR :0.86664: (Sim:0h1m5s) 
CPU  0 inst:   10000005 cyc:    5148219 now IPC :2.01618: AVG IPC :1.92161: L2-Pf-HR :0.90649: L2-HR :0.87175: (Sim:0h1m12s) 
CPU  0 inst:   11000000 cyc:    5691033 now IPC :1.84224: AVG IPC :1.91246: L2-Pf-HR :0.90397: L2-HR :0.86816: (Sim:0h1m20s) 
CPU  0 inst:   12000005 cyc:    6180152 now IPC :2.04450: AVG IPC :1.92489: L2-Pf-HR :0.90644: L2-HR :0.87199: (Sim:0h1m27s) 
CPU  0 inst:   13000004 cyc:    6723195 now IPC :1.84147: AVG IPC :1.91700: L2-Pf-HR :0.90487: L2-HR :0.86950: (Sim:0h1m35s) 
CPU  0 inst:   14000001 cyc:    7213179 now IPC :2.04088: AVG IPC :1.92674: L2-Pf-HR :0.90649: L2-HR :0.87210: (Sim:0h1m43s) 
CPU  0 inst:   15000003 cyc:    7753774 now IPC :1.84982: AVG IPC :1.92060: L2-Pf-HR :0.90593: L2-HR :0.87077: (Sim:0h1m50s) 
CPU  0 inst:   16000004 cyc:    8252767 now IPC :2.00404: AVG IPC :1.92633: L2-Pf-HR :0.90650: L2-HR :0.87202: (Sim:0h1m58s) 
CPU  0 inst:   17000004 cyc:    8786989 now IPC :1.87188: AVG IPC :1.92260: L2-Pf-HR :0.90620: L2-HR :0.87110: (Sim:0h2m6s) 
CPU  0 inst:   18000005 cyc:    9291161 now IPC :1.98345: AVG IPC :1.92629: L2-Pf-HR :0.90622: L2-HR :0.87159: (Sim:0h2m14s) 
CPU  0 inst:   19000004 cyc:    9821515 now IPC :1.88553: AVG IPC :1.92385: L2-Pf-HR :0.90589: L2-HR :0.87138: (Sim:0h2m22s) 
CPU  0 inst:   20000002 cyc:   10326323 now IPC :1.98095: AVG IPC :1.92693: L2-Pf-HR :0.90553: L2-HR :0.87152: (Sim:0h2m30s) 
CPU  0 inst:   21000005 cyc:   10853301 now IPC :1.89762: AVG IPC :1.92537: L2-Pf-HR :0.90595: L2-HR :0.87146: (Sim:0h2m38s) 
CPU  0 inst:   22000004 cyc:   11361252 now IPC :1.96869: AVG IPC :1.92749: L2-Pf-HR :0.90566: L2-HR :0.87150: (Sim:0h2m46s) 
CPU  0 inst:   23000000 cyc:   11887400 now IPC :1.90060: AVG IPC :1.92619: L2-Pf-HR :0.90548: L2-HR :0.87125: (Sim:0h2m54s) 
CPU  0 inst:   24000005 cyc:   12396740 now IPC :1.96333: AVG IPC :1.92785: L2-Pf-HR :0.90486: L2-HR :0.87101: (Sim:0h3m2s) 
CPU  0 inst:   25000004 cyc:   12912938 now IPC :1.93724: AVG IPC :1.92825: L2-Pf-HR :0.90602: L2-HR :0.87198: (Sim:0h3m11s) 
CPU  0 inst:   26000005 cyc:   13430175 now IPC :1.93335: AVG IPC :1.92847: L2-Pf-HR :0.90500: L2-HR :0.87125: (Sim:0h3m19s) 
CPU  0 inst:   27000000 cyc:   13941302 now IPC :1.95645: AVG IPC :1.92957: L2-Pf-HR :0.90569: L2-HR :0.87204: (Sim:0h3m27s) 
CPU  0 inst:   28000001 cyc:   14466017 now IPC :1.90580: AVG IPC :1.92865: L2-Pf-HR :0.90486: L2-HR :0.87117: (Sim:0h3m35s) 
CPU  0 inst:   29000000 cyc:   14973529 now IPC :1.97039: AVG IPC :1.93016: L2-Pf-HR :0.90586: L2-HR :0.87203: (Sim:0h3m44s) 
CPU  0 inst:   30000000 cyc:   15503005 now IPC :1.88866: AVG IPC :1.92865: L2-Pf-HR :0.90470: L2-HR :0.87093: (Sim:0h3m52s) 
CPU  0 inst:   31000005 cyc:   15982348 now IPC :2.08620: AVG IPC :1.93368: L2-Pf-HR :0.90686: L2-HR :0.87346: (Sim:0h4m0s) 
CPU  0 inst:   32000003 cyc:   16554655 now IPC :1.74731: AVG IPC :1.92683: L2-Pf-HR :0.90493: L2-HR :0.87076: (Sim:0h4m9s) 
CPU  0 inst:   33000000 cyc:   17026984 now IPC :2.11716: AVG IPC :1.93244: L2-Pf-HR :0.90692: L2-HR :0.87316: (Sim:0h4m17s) 
CPU  0 inst:   34000001 cyc:   18484885 now IPC :0.68592: AVG IPC :1.82859: L2-Pf-HR :0.86368: L2-HR :0.82810: (Sim:0h4m27s) 
CPU  0 inst:   35000001 cyc:   21449697 now IPC :0.33729: AVG IPC :1.61254: L2-Pf-HR :0.85769: L2-HR :0.82001: (Sim:0h4m40s) 
CPU  0 inst:   36000001 cyc:   24415218 now IPC :0.33721: AVG IPC :1.45112: L2-Pf-HR :0.85046: L2-HR :0.81137: (Sim:0h4m53s) 
CPU  0 inst:   37000001 cyc:   27380403 now IPC :0.33725: AVG IPC :1.32599: L2-Pf-HR :0.84329: L2-HR :0.80302: (Sim:0h5m6s) 
CPU  0 inst:   38000001 cyc:   30345536 now IPC :0.33725: AVG IPC :1.22614: L2-Pf-HR :0.83626: L2-HR :0.79499: (Sim:0h5m19s) 
CPU  0 inst:   39000001 cyc:   33312598 now IPC :0.33703: AVG IPC :1.14453: L2-Pf-HR :0.82934: L2-HR :0.78723: (Sim:0h5m32s) 
CPU  0 inst:   40000001 cyc:   36278763 now IPC :0.33714: AVG IPC :1.07668: L2-Pf-HR :0.82266: L2-HR :0.77984: (Sim:0h5m45s) 
CPU  0 inst:   41000001 cyc:   39244202 now IPC :0.33722: AVG IPC :1.01936: L2-Pf-HR :0.81632: L2-HR :0.77290: (Sim:0h5m58s) 
CPU  0 inst:   42000003 cyc:   42167582 now IPC :0.34207: AVG IPC :0.97129: L2-Pf-HR :0.80797: L2-HR :0.76445: (Sim:0h6m11s) 
CPU  0 inst:   43000004 cyc:   42904860 now IPC :1.35634: AVG IPC :0.97806: L2-Pf-HR :0.80814: L2-HR :0.76457: (Sim:0h6m26s) 
CPU  0 inst:   44000000 cyc:   43423254 now IPC :1.92903: AVG IPC :0.98967: L2-Pf-HR :0.81248: L2-HR :0.76830: (Sim:0h6m36s) 
CPU  0 inst:   45000002 cyc:   44036801 now IPC :1.62987: AVG IPC :0.99880: L2-Pf-HR :0.81325: L2-HR :0.76994: (Sim:0h6m48s) 
CPU  0 inst:   46000002 cyc:   44535334 now IPC :2.00589: AVG IPC :1.01033: L2-Pf-HR :0.81669: L2-HR :0.77280: (Sim:0h6m57s) 
CPU  0 inst:   47000000 cyc:   45183712 now IPC :1.54231: AVG IPC :1.01813: L2-Pf-HR :0.81808: L2-HR :0.77492: (Sim:0h7m11s) 
CPU  0 inst:   48000004 cyc:   45696897 now IPC :1.94862: AVG IPC :1.02881: L2-Pf-HR :0.82124: L2-HR :0.77759: (Sim:0h7m22s) 
CPU  0 inst:   49000002 cyc:   46312645 now IPC :1.62404: AVG IPC :1.03690: L2-Pf-HR :0.82252: L2-HR :0.77983: (Sim:0h7m33s) 
CPU  0 inst:   50000003 cyc:   46832067 now IPC :1.92522: AVG IPC :1.04696: L2-Pf-HR :0.82524: L2-HR :0.78194: (Sim:0h7m44s) 
CPU  0 inst:   51000003 cyc:   47419146 now IPC :1.70335: AVG IPC :1.05526: L2-Pf-HR :0.82600: L2-HR :0.78380: (Sim:0h7m56s) 
CPU  0 inst:   52000003 cyc:   47960585 now IPC :1.84693: AVG IPC :1.06438: L2-Pf-HR :0.82851: L2-HR :0.78573: (Sim:0h8m9s) 
CPU  0 inst:   53000002 cyc:   48628940 now IPC :1.49621: AVG IPC :1.07044: L2-Pf-HR :0.82933: L2-HR :0.78735: (Sim:0h8m21s) 
CPU  0 inst:   54000001 cyc:   49139401 now IPC :1.95901: AVG IPC :1.07986: L2-Pf-HR :0.83176: L2-HR :0.78946: (Sim:0h8m33s) 
CPU  0 inst:   55000000 cyc:   49755007 now IPC :1.62441: AVG IPC :1.08673: L2-Pf-HR :0.83251: L2-HR :0.79095: (Sim:0h8m46s) 
CPU  0 inst:   56000000 cyc:   50283250 now IPC :1.89307: AVG IPC :1.09537: L2-Pf-HR :0.83470: L2-HR :0.79280: (Sim:0h8m58s) 
CPU  0 inst:   57000000 cyc:   50905048 now IPC :1.60824: AVG IPC :1.10176: L2-Pf-HR :0.83565: L2-HR :0.79439: (Sim:0h9m10s) 
CPU  0 inst:   58000002 cyc:   51452811 now IPC :1.82561: AVG IPC :1.10962: L2-Pf-HR :0.83766: L2-HR :0.79607: (Sim:0h9m23s) 
CPU  0 inst:   59000000 cyc:   52068753 now IPC :1.62353: AVG IPC :1.11582: L2-Pf-HR :0.83842: L2-HR :0.79747: (Sim:0h9m36s) 
CPU  0 inst:   60000001 cyc:   52631084 now IPC :1.77831: AVG IPC :1.12303: L2-Pf-HR :0.84037: L2-HR :0.79903: (Sim:0h9m49s) 
CPU  0 inst:   61000001 cyc:   53250889 now IPC :1.61341: AVG IPC :1.12884: L2-Pf-HR :0.84098: L2-HR :0.80026: (Sim:0h10m2s) 
CPU  0 inst:   62000003 cyc:   53776761 now IPC :1.90161: AVG IPC :1.13654: L2-Pf-HR :0.84267: L2-HR :0.80171: (Sim:0h10m13s) 
CPU  0 inst:   63000001 cyc:   54329543 now IPC :1.80903: AVG IPC :1.14351: L2-Pf-HR :0.84462: L2-HR :0.80353: (Sim:0h10m25s) 
CPU  0 inst:   64000004 cyc:   54958429 now IPC :1.59012: AVG IPC :1.14871: L2-Pf-HR :0.84498: L2-HR :0.80430: (Sim:0h10m39s) 
CPU  0 inst:   65000001 cyc:   55491811 now IPC :1.87482: AVG IPC :1.15582: L2-Pf-HR :0.84718: L2-HR :0.80623: (Sim:0h10m51s) 
CPU  0 inst:   66000000 cyc:   56124559 now IPC :1.58041: AVG IPC :1.16069: L2-Pf-HR :0.84716: L2-HR :0.80674: (Sim:0h11m6s) 
CPU  0 inst:   67000004 cyc:   56647277 now IPC :1.91309: AVG IPC :1.16776: L2-Pf-HR :0.84886: L2-HR :0.80823: (Sim:0h11m17s) 
CPU  0 inst:   68000002 cyc:   57246073 now IPC :1.67001: AVG IPC :1.17310: L2-Pf-HR :0.84908: L2-HR :0.80908: (Sim:0h11m29s) 
CPU  0 inst:   69000004 cyc:   57769813 now IPC :1.90935: AVG IPC :1.17989: L2-Pf-HR :0.85070: L2-HR :0.81031: (Sim:0h11m41s) 
CPU  0 inst:   70000000 cyc:   58326038 now IPC :1.79783: AVG IPC :1.18589: L2-Pf-HR :0.85074: L2-HR :0.81110: (Sim:0h11m51s) 
CPU  0 inst:   71000004 cyc:   58834690 now IPC :1.96599: AVG IPC :1.19275: L2-Pf-HR :0.85234: L2-HR :0.81233: (Sim:0h12m3s) 
CPU  0 inst:   72000005 cyc:   59406264 now IPC :1.74956: AVG IPC :1.19819: L2-Pf-HR :0.85252: L2-HR :0.81315: (Sim:0h12m14s) 
Finished CPU 0 instr: 70000003 cyc: 58421212 AVG IPC: 1.19819 (Sim time: 0h12m14s)

ChampSim completed all CPUs

[ROI Statistics]
Core_0_instructions 70000003
Core_0_cycles 58421212
Core_0_IPC 1.19819

Core_0_branch_prediction_accuracy 97.65568
Core_0_branch_MPKI 0.58861
Core_0_average_ROB_occupancy_at_mispredict 494.37267

Core_0_L1D_total_access 29060484
Core_0_L1D_total_hit 27723657 L1D_total_Hit Ratio: 0.95400
Core_0_L1D_total_miss 1336827
Core_0_L1D_loads 16529815
Core_0_L1D_load_hit 16165361 L1D_load_Hit Ratio: 0.97795
Core_0_L1D_load_miss 364454
Core_0_L1D_RFOs 1585339
Core_0_L1D_RFO_hit 1511154 L1D_RFO_Hit Ratio: 0.95321
Core_0_L1D_RFO_miss 74185
Core_0_L1D_prefetches 10945330
Core_0_L1D_prefetch_hit 10047142 L1D_prefetch_Hit Ratio: 0.91794
Core_0_L1D_prefetch_miss 898188
Core_0_L1D_writebacks 0
Core_0_L1D_writeback_hit 0 L1D_writeback_Hit Ratio: -nan
Core_0_L1D_writeback_miss 0
Core_0_L1D_prefetch_requested 12486872
Core_0_L1D_prefetch_issued 12486872
Core_0_L1D_prefetch_useful 846480 L1D_Useful Ratio: 0.06779
Core_0_L1D_prefetch_useless 72783
Core_0_L1D_prefetch_late 38452
Core_0_L1D_average_miss_latency 662886.32998

Core_0_L1I_total_access 9621718
Core_0_L1I_total_hit 9619831 L1I_total_Hit Ratio: 0.99980
Core_0_L1I_total_miss 1887
Core_0_L1I_loads 9621718
Core_0_L1I_load_hit 9619831 L1I_load_Hit Ratio: 0.99980
Core_0_L1I_load_miss 1887
Core_0_L1I_RFOs 0
Core_0_L1I_RFO_hit 0 L1I_RFO_Hit Ratio: -nan
Core_0_L1I_RFO_miss 0
Core_0_L1I_prefetches 0
Core_0_L1I_prefetch_hit 0 L1I_prefetch_Hit Ratio: -nan
Core_0_L1I_prefetch_miss 0
Core_0_L1I_writebacks 0
Core_0_L1I_writeback_hit 0 L1I_writeback_Hit Ratio: -nan
Core_0_L1I_writeback_miss 0
Core_0_L1I_prefetch_requested 0
Core_0_L1I_prefetch_issued 0
Core_0_L1I_prefetch_useful 0 L1I_Useful Ratio: -nan
Core_0_L1I_prefetch_useless 0
Core_0_L1I_prefetch_late 0
Core_0_L1I_average_miss_latency 239.72019

Core_0_L2C_total_access 2389657
Core_0_L2C_total_hit 1943156 L2C_total_Hit Ratio: 0.81315
Core_0_L2C_total_miss 446501
Core_0_L2C_loads 328104
Core_0_L2C_load_hit 187712 L2C_load_Hit Ratio: 0.57211
Core_0_L2C_load_miss 140392
Core_0_L2C_RFOs 74180
Core_0_L2C_RFO_hit 8129 L2C_RFO_Hit Ratio: 0.10958
Core_0_L2C_RFO_miss 66051
Core_0_L2C_prefetches 1627659
Core_0_L2C_prefetch_hit 1387605 L2C_prefetch_Hit Ratio: 0.85252
Core_0_L2C_prefetch_miss 240054
Core_0_L2C_writebacks 359714
Core_0_L2C_writeback_hit 359710 L2C_writeback_Hit Ratio: 0.99999
Core_0_L2C_writeback_miss 4
Core_0_L2C_prefetch_requested 1113550
Core_0_L2C_prefetch_issued 813707
Core_0_L2C_prefetch_useful 93211 L2C_Useful Ratio: 0.11455
Core_0_L2C_prefetch_useless 136167
Core_0_L2C_prefetch_late 27164
Core_0_L2C_average_miss_latency 232.58643

Core_0_LLC_total_access 658228
Core_0_LLC_total_hit 352335 LLC_total_Hit Ratio: 0.53528
Core_0_LLC_total_miss 305893
Core_0_LLC_loads 113323
Core_0_LLC_load_hit 19913 LLC_load_Hit Ratio: 0.17572
Core_0_LLC_load_miss 93410
Core_0_LLC_RFOs 66050
Core_0_LLC_RFO_hit 58 LLC_RFO_Hit Ratio: 0.00088
Core_0_LLC_RFO_miss 65992
Core_0_LLC_prefetches 267124
Core_0_LLC_prefetch_hit 122769 LLC_prefetch_Hit Ratio: 0.45960
Core_0_LLC_prefetch_miss 144355
Core_0_LLC_writebacks 211731
Core_0_LLC_writeback_hit 209595 LLC_writeback_Hit Ratio: 0.98991
Core_0_LLC_writeback_miss 2136
Core_0_LLC_prefetch_requested 0
Core_0_LLC_prefetch_issued 0
Core_0_LLC_prefetch_useful 9246 LLC_Useful Ratio: inf
Core_0_LLC_prefetch_useless 84715
Core_0_LLC_prefetch_late 0
Core_0_LLC_average_miss_latency 288.31804

Core_0_major_page_fault 0
Core_0_minor_page_fault 5060

CPU 0 L1D berti prefetcher final stats
0-> Hits: 45, Late: 5, Early: 0, Misses: 0
1-> Hits: 2, Late: 1, Early: 0, Misses: 0
3-> Hits: 5, Late: 0, Early: 0, Misses: 0
4-> Hits: 2, Late: 0, Early: 0, Misses: 0
5-> Hits: 3, Late: 1, Early: 0, Misses: 0
6-> Hits: 1, Late: 0, Early: 0, Misses: 0
7-> Hits: 2, Late: 0, Early: 0, Misses: 0
8-> Hits: 254, Late: 198, Early: 0, Misses: 0
9-> Hits: 2, Late: 0, Early: 0, Misses: 0
a-> Hits: 0, Late: 2, Early: 0, Misses: 0
b-> Hits: 5, Late: 0, Early: 0, Misses: 0
d-> Hits: 397, Late: 48, Early: 0, Misses: 0
e-> Hits: 7, Late: 0, Early: 0, Misses: 0
10-> Hits: 2, Late: 0, Early: 0, Misses: 0
11-> Hits: 0, Late: 1, Early: 0, Misses: 0
12-> Hits: 216, Late: 231, Early: 0, Misses: 0
13-> Hits: 1, Late: 0, Early: 0, Misses: 0
14-> Hits: 2, Late: 0, Early: 0, Misses: 0
16-> Hits: 12, Late: 0, Early: 0, Misses: 0
17-> Hits: 3, Late: 0, Early: 0, Misses: 0
18-> Hits: 377, Late: 62, Early: 0, Misses: 0
1a-> Hits: 258, Late: 2, Early: 0, Misses: 0
1b-> Hits: 1, Late: 0, Early: 0, Misses: 0
1c-> Hits: 35, Late: 1, Early: 0, Misses: 0
1d-> Hits: 2, Late: 1, Early: 0, Misses: 0
1e-> Hits: 3, Late: 0, Early: 0, Misses: 0
1f-> Hits: 1, Late: 0, Early: 0, Misses: 0
20-> Hits: 2, Late: 1, Early: 0, Misses: 0
21-> Hits: 241, Late: 0, Early: 0, Misses: 1
22-> Hits: 2, Late: 2, Early: 0, Misses: 0
24-> Hits: 10, Late: 0, Early: 0, Misses: 0
25-> Hits: 3, Late: 0, Early: 0, Misses: 0
27-> Hits: 244, Late: 221, Early: 0, Misses: 0
28-> Hits: 10, Late: 0, Early: 0, Misses: 0
2a-> Hits: 286, Late: 2, Early: 0, Misses: 0
2b-> Hits: 6, Late: 0, Early: 0, Misses: 0
2c-> Hits: 386, Late: 51, Early: 0, Misses: 0
2d-> Hits: 1, Late: 0, Early: 0, Misses: 0
2f-> Hits: 5, Late: 0, Early: 0, Misses: 0
30-> Hits: 7, Late: 2, Early: 0, Misses: 0
31-> Hits: 184, Late: 254, Early: 0, Misses: 0
33-> Hits: 11, Late: 0, Early: 0, Misses: 0
34-> Hits: 11, Late: 1, Early: 0, Misses: 0
35-> Hits: 8, Late: 255, Early: 0, Misses: 0
36-> Hits: 2, Late: 0, Early: 0, Misses: 0
37-> Hits: 351, Late: 84, Early: 0, Misses: 0
38-> Hits: 4, Late: 0, Early: 0, Misses: 0
39-> Hits: 2, Late: 0, Early: 0, Misses: 0
3a-> Hits: 2, Late: 0, Early: 0, Misses: 0
3c-> Hits: 2, Late: 0, Early: 0, Misses: 0
3d-> Hits: 0, Late: 31, Early: 0, Misses: 0
3e-> Hits: 2, Late: 0, Early: 0, Misses: 0
3f-> Hits: 1, Late: 0, Early: 0, Misses: 0
40-> Hits: 2, Late: 2, Early: 0, Misses: 0
43-> Hits: 2, Late: 0, Early: 0, Misses: 0
44-> Hits: 3, Late: 0, Early: 0, Misses: 0
45-> Hits: 2, Late: 0, Early: 0, Misses: 0
46-> Hits: 225, Late: 213, Early: 0, Misses: 0
47-> Hits: 2, Late: 0, Early: 0, Misses: 0
48-> Hits: 36, Late: 0, Early: 0, Misses: 0
49-> Hits: 38, Late: 0, Early: 0, Misses: 0
4a-> Hits: 33, Late: 0, Early: 0, Misses: 0
4b-> Hits: 405, Late: 60, Early: 0, Misses: 0
4d-> Hits: 33, Late: 0, Early: 0, Misses: 0
4e-> Hits: 1, Late: 0, Early: 0, Misses: 0
4f-> Hits: 31, Late: 0, Early: 0, Misses: 0
50-> Hits: 120, Late: 316, Early: 0, Misses: 0
51-> Hits: 31, Late: 0, Early: 0, Misses: 0
52-> Hits: 30, Late: 1, Early: 0, Misses: 0
53-> Hits: 34, Late: 0, Early: 0, Misses: 0
54-> Hits: 3, Late: 0, Early: 0, Misses: 0
56-> Hits: 338, Late: 89, Early: 0, Misses: 0
58-> Hits: 6, Late: 0, Early: 0, Misses: 0
5a-> Hits: 2, Late: 0, Early: 0, Misses: 0
5c-> Hits: 3, Late: 1, Early: 0, Misses: 0
5d-> Hits: 4, Late: 0, Early: 0, Misses: 0
61-> Hits: 3, Late: 0, Early: 0, Misses: 0
62-> Hits: 2, Late: 0, Early: 0, Misses: 0
63-> Hits: 0, Late: 2, Early: 0, Misses: 0
64-> Hits: 263, Late: 2, Early: 0, Misses: 0
69-> Hits: 2, Late: 0, Early: 0, Misses: 0
6a-> Hits: 2, Late: 0, Early: 0, Misses: 0
6b-> Hits: 1, Late: 0, Early: 0, Misses: 0
6f-> Hits: 1, Late: 0, Early: 0, Misses: 0
70-> Hits: 2, Late: 1, Early: 0, Misses: 0
76-> Hits: 2, Late: 1, Early: 0, Misses: 0
77-> Hits: 2, Late: 0, Early: 0, Misses: 0
78-> Hits: 251, Late: 0, Early: 0, Misses: 13
79-> Hits: 1, Late: 0, Early: 0, Misses: 0
7a-> Hits: 3, Late: 0, Early: 0, Misses: 0
7b-> Hits: 3, Late: 2, Early: 0, Misses: 0
7c-> Hits: 1, Late: 0, Early: 0, Misses: 0
7d-> Hits: 1, Late: 0, Early: 0, Misses: 0
7e-> Hits: 3, Late: 0, Early: 0, Misses: 0
7f-> Hits: 5, Late: 0, Early: 0, Misses: 0
80-> Hits: 9278, Late: 80, Early: 0, Misses: 18
81-> Hits: 1, Late: 0, Early: 0, Misses: 0
82-> Hits: 2, Late: 0, Early: 0, Misses: 0
84-> Hits: 4, Late: 1, Early: 0, Misses: 0
86-> Hits: 1, Late: 0, Early: 0, Misses: 0
88-> Hits: 4812, Late: 232, Early: 0, Misses: 28
89-> Hits: 542, Late: 2, Early: 0, Misses: 0
8a-> Hits: 2, Late: 0, Early: 0, Misses: 0
8f-> Hits: 20, Late: 0, Early: 0, Misses: 0
90-> Hits: 0, Late: 1, Early: 0, Misses: 0
91-> Hits: 2, Late: 0, Early: 0, Misses: 0
92-> Hits: 14799, Late: 6, Early: 0, Misses: 7
94-> Hits: 14, Late: 0, Early: 0, Misses: 0
95-> Hits: 1, Late: 0, Early: 0, Misses: 0
96-> Hits: 3, Late: 0, Early: 0, Misses: 0
98-> Hits: 3, Late: 0, Early: 0, Misses: 0
99-> Hits: 1, Late: 0, Early: 0, Misses: 0
9a-> Hits: 5, Late: 0, Early: 0, Misses: 0
9b-> Hits: 3, Late: 0, Early: 0, Misses: 0
9c-> Hits: 1076, Late: 0, Early: 0, Misses: 0
9d-> Hits: 514, Late: 0, Early: 0, Misses: 0
9e-> Hits: 2, Late: 0, Early: 0, Misses: 0
9f-> Hits: 4, Late: 0, Early: 0, Misses: 0
a0-> Hits: 452, Late: 0, Early: 0, Misses: 2
a1-> Hits: 5, Late: 0, Early: 0, Misses: 0
a2-> Hits: 1, Late: 0, Early: 0, Misses: 0
a3-> Hits: 3, Late: 0, Early: 0, Misses: 0
a4-> Hits: 39, Late: 1, Early: 0, Misses: 0
a5-> Hits: 4, Late: 0, Early: 0, Misses: 0
a6-> Hits: 14801, Late: 0, Early: 0, Misses: 12
a7-> Hits: 4, Late: 0, Early: 0, Misses: 0
a8-> Hits: 3, Late: 0, Early: 0, Misses: 0
a9-> Hits: 4, Late: 0, Early: 0, Misses: 0
aa-> Hits: 3, Late: 0, Early: 0, Misses: 0
ab-> Hits: 5, Late: 0, Early: 0, Misses: 0
ac-> Hits: 835, Late: 15, Early: 0, Misses: 0
ad-> Hits: 4, Late: 0, Early: 0, Misses: 0
ae-> Hits: 7, Late: 0, Early: 0, Misses: 0
af-> Hits: 3, Late: 0, Early: 0, Misses: 0
b0-> Hits: 15, Late: 6, Early: 0, Misses: 0
b1-> Hits: 1, Late: 1, Early: 0, Misses: 0
b3-> Hits: 6, Late: 0, Early: 0, Misses: 0
b4-> Hits: 4, Late: 0, Early: 0, Misses: 0
b6-> Hits: 11566, Late: 3252, Early: 0, Misses: 0
b7-> Hits: 901, Late: 0, Early: 0, Misses: 0
b8-> Hits: 2, Late: 1, Early: 0, Misses: 0
ba-> Hits: 2, Late: 0, Early: 0, Misses: 0
bb-> Hits: 105, Late: 14692, Early: 0, Misses: 0
bc-> Hits: 2, Late: 0, Early: 0, Misses: 0
bf-> Hits: 1, Late: 0, Early: 0, Misses: 0
c0-> Hits: 11, Late: 33, Early: 0, Misses: 0
c1-> Hits: 1, Late: 0, Early: 0, Misses: 0
c2-> Hits: 6, Late: 1, Early: 0, Misses: 0
c3-> Hits: 6, Late: 0, Early: 0, Misses: 0
c4-> Hits: 252, Late: 0, Early: 0, Misses: 14
c5-> Hits: 1, Late: 0, Early: 0, Misses: 0
c6-> Hits: 141, Late: 1, Early: 0, Misses: 0
c7-> Hits: 5, Late: 0, Early: 0, Misses: 0
c8-> Hits: 10, Late: 0, Early: 0, Misses: 0
c9-> Hits: 1, Late: 0, Early: 0, Misses: 0
ca-> Hits: 1, Late: 0, Early: 0, Misses: 0
cb-> Hits: 78, Late: 14996, Early: 0, Misses: 0
cc-> Hits: 1, Late: 0, Early: 0, Misses: 0
cf-> Hits: 1, Late: 0, Early: 0, Misses: 0
d0-> Hits: 738, Late: 14967, Early: 0, Misses: 0
d1-> Hits: 4, Late: 0, Early: 0, Misses: 0
d2-> Hits: 6, Late: 0, Early: 0, Misses: 0
d3-> Hits: 11, Late: 0, Early: 0, Misses: 0
d4-> Hits: 1, Late: 0, Early: 0, Misses: 0
d5-> Hits: 2, Late: 0, Early: 0, Misses: 0
d6-> Hits: 1, Late: 1, Early: 0, Misses: 0
d7-> Hits: 1, Late: 0, Early: 0, Misses: 0
d8-> Hits: 1, Late: 0, Early: 0, Misses: 0
d9-> Hits: 34, Late: 233, Early: 0, Misses: 0
da-> Hits: 87, Late: 809, Early: 0, Misses: 0
db-> Hits: 2, Late: 0, Early: 0, Misses: 0
dd-> Hits: 2, Late: 0, Early: 0, Misses: 0
df-> Hits: 1, Late: 0, Early: 0, Misses: 0
e0-> Hits: 12, Late: 6, Early: 0, Misses: 0
e1-> Hits: 1, Late: 0, Early: 0, Misses: 0
e5-> Hits: 33, Late: 863, Early: 0, Misses: 0
ea-> Hits: 2, Late: 0, Early: 0, Misses: 0
ef-> Hits: 370, Late: 526, Early: 0, Misses: 0
f3-> Hits: 263, Late: 1, Early: 0, Misses: 0
f4-> Hits: 1, Late: 0, Early: 0, Misses: 0
f6-> Hits: 2, Late: 0, Early: 0, Misses: 0
f7-> Hits: 4, Late: 0, Early: 0, Misses: 0
f8-> Hits: 3, Late: 0, Early: 0, Misses: 0
fa-> Hits: 2, Late: 0, Early: 0, Misses: 0
fb-> Hits: 11, Late: 0, Early: 0, Misses: 0
fc-> Hits: 1, Late: 0, Early: 0, Misses: 0
fd-> Hits: 2, Late: 0, Early: 0, Misses: 0
fe-> Hits: 1, Late: 0, Early: 0, Misses: 0
ff-> Hits: 4, Late: 0, Early: 0, Misses: 0
100-> Hits: 11, Late: 2, Early: 0, Misses: 0
101-> Hits: 1, Late: 0, Early: 0, Misses: 0
103-> Hits: 1, Late: 0, Early: 0, Misses: 0
104-> Hits: 0, Late: 1, Early: 0, Misses: 0
106-> Hits: 1, Late: 0, Early: 0, Misses: 0
10a-> Hits: 1, Late: 0, Early: 0, Misses: 0
10b-> Hits: 3, Late: 0, Early: 0, Misses: 0
10d-> Hits: 3, Late: 0, Early: 0, Misses: 0
10e-> Hits: 1, Late: 0, Early: 0, Misses: 0
110-> Hits: 1, Late: 1, Early: 0, Misses: 0
112-> Hits: 12, Late: 1, Early: 0, Misses: 0
114-> Hits: 1, Late: 0, Early: 0, Misses: 0
115-> Hits: 57180, Late: 165, Early: 0, Misses: 0
116-> Hits: 1, Late: 0, Early: 0, Misses: 0
117-> Hits: 3, Late: 0, Early: 0, Misses: 0
118-> Hits: 1, Late: 0, Early: 0, Misses: 0
11a-> Hits: 4, Late: 0, Early: 0, Misses: 0
11b-> Hits: 3, Late: 0, Early: 0, Misses: 0
11c-> Hits: 11074, Late: 5, Early: 0, Misses: 0
11d-> Hits: 1, Late: 0, Early: 0, Misses: 0
11e-> Hits: 2, Late: 0, Early: 0, Misses: 0
11f-> Hits: 136632, Late: 499, Early: 0, Misses: 0
120-> Hits: 2, Late: 2, Early: 0, Misses: 0
121-> Hits: 1, Late: 0, Early: 0, Misses: 0
122-> Hits: 2, Late: 0, Early: 0, Misses: 0
123-> Hits: 1, Late: 0, Early: 0, Misses: 0
124-> Hits: 3, Late: 0, Early: 0, Misses: 0
125-> Hits: 1, Late: 0, Early: 0, Misses: 0
126-> Hits: 9335, Late: 4, Early: 0, Misses: 0
127-> Hits: 57345, Late: 0, Early: 0, Misses: 0
128-> Hits: 258, Late: 3, Early: 0, Misses: 0
129-> Hits: 2, Late: 0, Early: 0, Misses: 0
12b-> Hits: 12, Late: 0, Early: 0, Misses: 0
12c-> Hits: 137047, Late: 64, Early: 0, Misses: 25
12d-> Hits: 2, Late: 0, Early: 0, Misses: 0
12e-> Hits: 7230, Late: 1, Early: 0, Misses: 0
12f-> Hits: 1, Late: 0, Early: 0, Misses: 0
130-> Hits: 3, Late: 1, Early: 0, Misses: 0
132-> Hits: 1, Late: 0, Early: 0, Misses: 0
133-> Hits: 1, Late: 0, Early: 0, Misses: 0
134-> Hits: 0, Late: 1, Early: 0, Misses: 0
136-> Hits: 1, Late: 0, Early: 0, Misses: 0
137-> Hits: 1, Late: 0, Early: 0, Misses: 0
138-> Hits: 1, Late: 0, Early: 0, Misses: 0
139-> Hits: 7273, Late: 0, Early: 0, Misses: 0
13a-> Hits: 4, Late: 0, Early: 0, Misses: 0
13b-> Hits: 1, Late: 0, Early: 0, Misses: 0
13c-> Hits: 1, Late: 0, Early: 0, Misses: 0
13e-> Hits: 1, Late: 0, Early: 0, Misses: 0
13f-> Hits: 1, Late: 0, Early: 0, Misses: 0
140-> Hits: 1, Late: 3, Early: 0, Misses: 0
142-> Hits: 22002, Late: 9, Early: 0, Misses: 0
143-> Hits: 1, Late: 0, Early: 0, Misses: 0
144-> Hits: 18177, Late: 12, Early: 0, Misses: 0
145-> Hits: 1, Late: 0, Early: 0, Misses: 0
147-> Hits: 33, Late: 0, Early: 0, Misses: 0
148-> Hits: 2, Late: 0, Early: 0, Misses: 0
149-> Hits: 4, Late: 0, Early: 0, Misses: 0
14a-> Hits: 57337, Late: 0, Early: 0, Misses: 0
14d-> Hits: 0, Late: 1, Early: 0, Misses: 0
14f-> Hits: 32, Late: 0, Early: 0, Misses: 0
154-> Hits: 23007, Late: 7, Early: 0, Misses: 0
155-> Hits: 2, Late: 2, Early: 0, Misses: 0
156-> Hits: 0, Late: 1, Early: 0, Misses: 0
157-> Hits: 10586, Late: 12, Early: 0, Misses: 0
159-> Hits: 35, Late: 0, Early: 0, Misses: 0
15b-> Hits: 2, Late: 0, Early: 0, Misses: 0
15d-> Hits: 137030, Late: 80, Early: 0, Misses: 23
15f-> Hits: 7799, Late: 5, Early: 0, Misses: 0
160-> Hits: 1, Late: 0, Early: 0, Misses: 0
163-> Hits: 63, Late: 0, Early: 0, Misses: 23
164-> Hits: 263, Late: 0, Early: 0, Misses: 0
165-> Hits: 2, Late: 0, Early: 0, Misses: 0
168-> Hits: 1, Late: 0, Early: 0, Misses: 0
169-> Hits: 136842, Late: 2, Early: 0, Misses: 0
16a-> Hits: 6911, Late: 10, Early: 0, Misses: 0
16b-> Hits: 33, Late: 0, Early: 0, Misses: 0
16d-> Hits: 62, Late: 0, Early: 0, Misses: 0
16e-> Hits: 89, Late: 177, Early: 0, Misses: 0
16f-> Hits: 33, Late: 0, Early: 0, Misses: 0
171-> Hits: 31, Late: 0, Early: 0, Misses: 0
172-> Hits: 2, Late: 0, Early: 0, Misses: 0
173-> Hits: 136986, Late: 12, Early: 0, Misses: 6
175-> Hits: 7012, Late: 0, Early: 0, Misses: 0
176-> Hits: 32, Late: 0, Early: 0, Misses: 0
177-> Hits: 32, Late: 0, Early: 0, Misses: 0
178-> Hits: 1, Late: 0, Early: 0, Misses: 0
17a-> Hits: 0, Late: 1, Early: 0, Misses: 0
17b-> Hits: 12856, Late: 0, Early: 0, Misses: 0
17c-> Hits: 2371, Late: 1, Early: 0, Misses: 0
17d-> Hits: 2, Late: 0, Early: 0, Misses: 0
17e-> Hits: 1, Late: 0, Early: 0, Misses: 0
17f-> Hits: 1, Late: 0, Early: 0, Misses: 0
180-> Hits: 13, Late: 6, Early: 0, Misses: 0
181-> Hits: 115505, Late: 22, Early: 0, Misses: 0
184-> Hits: 5, Late: 0, Early: 0, Misses: 0
185-> Hits: 15509, Late: 2, Early: 0, Misses: 0
188-> Hits: 2, Late: 0, Early: 0, Misses: 0
189-> Hits: 3, Late: 0, Early: 0, Misses: 0
18b-> Hits: 57345, Late: 1, Early: 0, Misses: 1
18c-> Hits: 2, Late: 0, Early: 0, Misses: 0
18e-> Hits: 1, Late: 0, Early: 0, Misses: 0
18f-> Hits: 1, Late: 0, Early: 0, Misses: 0
190-> Hits: 10, Late: 1, Early: 0, Misses: 0
192-> Hits: 2, Late: 0, Early: 0, Misses: 0
194-> Hits: 1, Late: 30, Early: 0, Misses: 0
195-> Hits: 3, Late: 0, Early: 0, Misses: 0
196-> Hits: 4429, Late: 17, Early: 0, Misses: 0
197-> Hits: 27895, Late: 14, Early: 0, Misses: 0
198-> Hits: 5, Late: 0, Early: 0, Misses: 0
199-> Hits: 6, Late: 30, Early: 0, Misses: 0
19a-> Hits: 3, Late: 0, Early: 0, Misses: 0
19b-> Hits: 8, Late: 0, Early: 0, Misses: 0
19c-> Hits: 4, Late: 0, Early: 0, Misses: 0
19d-> Hits: 12, Late: 1, Early: 0, Misses: 0
19e-> Hits: 2, Late: 0, Early: 0, Misses: 0
19f-> Hits: 4, Late: 0, Early: 0, Misses: 0
1a0-> Hits: 4, Late: 0, Early: 0, Misses: 0
1a1-> Hits: 5, Late: 0, Early: 0, Misses: 0
1a2-> Hits: 8155, Late: 6, Early: 0, Misses: 0
1a4-> Hits: 7, Late: 1, Early: 0, Misses: 0
1a5-> Hits: 1, Late: 0, Early: 0, Misses: 0
1a7-> Hits: 4, Late: 0, Early: 0, Misses: 0
1a8-> Hits: 4, Late: 0, Early: 0, Misses: 0
1a9-> Hits: 9, Late: 0, Early: 0, Misses: 0
1ab-> Hits: 14822, Late: 93, Early: 0, Misses: 0
1ad-> Hits: 10222, Late: 30, Early: 0, Misses: 0
1ae-> Hits: 2, Late: 0, Early: 0, Misses: 0
1af-> Hits: 7, Late: 0, Early: 0, Misses: 0
1b0-> Hits: 5, Late: 2, Early: 0, Misses: 0
1b1-> Hits: 137014, Late: 86, Early: 0, Misses: 34
1b3-> Hits: 57344, Late: 1, Early: 0, Misses: 3
1b5-> Hits: 2, Late: 2, Early: 0, Misses: 0
1b6-> Hits: 2, Late: 1, Early: 0, Misses: 0
1b7-> Hits: 11, Late: 22, Early: 0, Misses: 0
1b8-> Hits: 2, Late: 2, Early: 0, Misses: 0
1ba-> Hits: 3, Late: 0, Early: 0, Misses: 0
1bc-> Hits: 8561, Late: 4, Early: 0, Misses: 0
1bd-> Hits: 4, Late: 0, Early: 0, Misses: 0
1be-> Hits: 5, Late: 0, Early: 0, Misses: 0
1bf-> Hits: 7, Late: 0, Early: 0, Misses: 0
1c0-> Hits: 3, Late: 3, Early: 0, Misses: 0
1c2-> Hits: 30, Late: 2, Early: 0, Misses: 0
1c3-> Hits: 6, Late: 0, Early: 0, Misses: 0
1c4-> Hits: 3, Late: 0, Early: 0, Misses: 0
1c5-> Hits: 1, Late: 1, Early: 0, Misses: 0
1c6-> Hits: 4, Late: 0, Early: 0, Misses: 0
1c7-> Hits: 35109, Late: 110, Early: 0, Misses: 0
1c8-> Hits: 4, Late: 0, Early: 0, Misses: 0
1c9-> Hits: 1, Late: 0, Early: 0, Misses: 0
1ca-> Hits: 2, Late: 0, Early: 0, Misses: 0
1cc-> Hits: 1, Late: 2, Early: 0, Misses: 0
1cd-> Hits: 6, Late: 0, Early: 0, Misses: 0
1ce-> Hits: 3, Late: 0, Early: 0, Misses: 0
1d0-> Hits: 12, Late: 1, Early: 0, Misses: 0
1d2-> Hits: 145360, Late: 6, Early: 0, Misses: 13
1d4-> Hits: 1, Late: 0, Early: 0, Misses: 0
1d6-> Hits: 6, Late: 0, Early: 0, Misses: 0
1d7-> Hits: 1, Late: 0, Early: 0, Misses: 0
1d8-> Hits: 7, Late: 0, Early: 0, Misses: 0
1da-> Hits: 3, Late: 0, Early: 0, Misses: 0
1db-> Hits: 5, Late: 1, Early: 0, Misses: 0
1dc-> Hits: 3313, Late: 0, Early: 0, Misses: 0
1dd-> Hits: 57318, Late: 27, Early: 0, Misses: 0
1de-> Hits: 11, Late: 1, Early: 0, Misses: 0
1df-> Hits: 13, Late: 0, Early: 0, Misses: 0
1e0-> Hits: 8, Late: 449, Early: 0, Misses: 0
1e1-> Hits: 8, Late: 1, Early: 0, Misses: 0
1e2-> Hits: 1, Late: 1, Early: 0, Misses: 0
1e3-> Hits: 18474, Late: 0, Early: 0, Misses: 2
1e4-> Hits: 0, Late: 1, Early: 0, Misses: 0
1e5-> Hits: 1, Late: 1, Early: 0, Misses: 0
1e6-> Hits: 137117, Late: 8, Early: 0, Misses: 5
1e8-> Hits: 0, Late: 1, Early: 0, Misses: 0
1ea-> Hits: 0, Late: 1, Early: 0, Misses: 0
1eb-> Hits: 5, Late: 0, Early: 0, Misses: 0
1ec-> Hits: 3, Late: 447, Early: 0, Misses: 0
1ee-> Hits: 109221, Late: 18, Early: 0, Misses: 0
1ef-> Hits: 29, Late: 5, Early: 0, Misses: 0
1f0-> Hits: 14, Late: 263, Early: 0, Misses: 0
1f1-> Hits: 1, Late: 1, Early: 0, Misses: 0
1f2-> Hits: 1, Late: 0, Early: 0, Misses: 0
1f4-> Hits: 1, Late: 261, Early: 0, Misses: 0
1f6-> Hits: 1, Late: 0, Early: 0, Misses: 0
1f7-> Hits: 1, Late: 29, Early: 0, Misses: 0
1f8-> Hits: 5, Late: 0, Early: 0, Misses: 0
1f9-> Hits: 3, Late: 447, Early: 0, Misses: 0
1fa-> Hits: 1, Late: 0, Early: 0, Misses: 0
1fc-> Hits: 2, Late: 30, Early: 0, Misses: 0
1fd-> Hits: 0, Late: 1, Early: 0, Misses: 0
1fe-> Hits: 137034, Late: 86, Early: 0, Misses: 19
200-> Hits: 1, Late: 0, Early: 0, Misses: 0
201-> Hits: 4, Late: 0, Early: 0, Misses: 0
202-> Hits: 1, Late: 0, Early: 0, Misses: 0
203-> Hits: 13, Late: 9, Early: 0, Misses: 0
205-> Hits: 3, Late: 0, Early: 0, Misses: 0
206-> Hits: 5, Late: 448, Early: 0, Misses: 0
207-> Hits: 11, Late: 0, Early: 0, Misses: 0
208-> Hits: 14, Late: 1, Early: 0, Misses: 0
20a-> Hits: 19317, Late: 2, Early: 0, Misses: 0
20c-> Hits: 5, Late: 0, Early: 0, Misses: 0
20e-> Hits: 6, Late: 0, Early: 0, Misses: 0
20f-> Hits: 12, Late: 4, Early: 0, Misses: 0
210-> Hits: 903, Late: 3, Early: 0, Misses: 0
212-> Hits: 5, Late: 0, Early: 0, Misses: 0
213-> Hits: 2, Late: 446, Early: 0, Misses: 0
214-> Hits: 4, Late: 107, Early: 0, Misses: 0
216-> Hits: 3, Late: 0, Early: 0, Misses: 0
217-> Hits: 11, Late: 2, Early: 0, Misses: 0
218-> Hits: 3, Late: 0, Early: 0, Misses: 0
219-> Hits: 0, Late: 1, Early: 0, Misses: 0
21a-> Hits: 8, Late: 1, Early: 0, Misses: 0
21d-> Hits: 2, Late: 0, Early: 0, Misses: 0
21e-> Hits: 0, Late: 448, Early: 0, Misses: 0
21f-> Hits: 9162, Late: 4, Early: 0, Misses: 0
220-> Hits: 5, Late: 4, Early: 0, Misses: 0
221-> Hits: 4, Late: 1, Early: 0, Misses: 0
224-> Hits: 2, Late: 1, Early: 0, Misses: 0
225-> Hits: 7, Late: 0, Early: 0, Misses: 0
226-> Hits: 1, Late: 0, Early: 0, Misses: 0
227-> Hits: 0, Late: 1, Early: 0, Misses: 0
228-> Hits: 1, Late: 0, Early: 0, Misses: 0
22a-> Hits: 4, Late: 0, Early: 0, Misses: 0
22b-> Hits: 8, Late: 448, Early: 0, Misses: 0
22c-> Hits: 5, Late: 0, Early: 0, Misses: 0
22d-> Hits: 3, Late: 0, Early: 0, Misses: 0
22e-> Hits: 1, Late: 0, Early: 0, Misses: 0
22f-> Hits: 3, Late: 0, Early: 0, Misses: 0
230-> Hits: 4, Late: 1, Early: 0, Misses: 0
231-> Hits: 7, Late: 0, Early: 0, Misses: 0
232-> Hits: 4, Late: 0, Early: 0, Misses: 0
233-> Hits: 4, Late: 0, Early: 0, Misses: 0
234-> Hits: 19206, Late: 4, Early: 0, Misses: 0
235-> Hits: 2, Late: 0, Early: 0, Misses: 0
236-> Hits: 1, Late: 0, Early: 0, Misses: 0
238-> Hits: 14, Late: 434, Early: 0, Misses: 0
23a-> Hits: 137020, Late: 108, Early: 0, Misses: 14
23b-> Hits: 3, Late: 0, Early: 0, Misses: 0
23c-> Hits: 3, Late: 0, Early: 0, Misses: 0
23d-> Hits: 34, Late: 0, Early: 0, Misses: 0
23e-> Hits: 6, Late: 0, Early: 0, Misses: 0
23f-> Hits: 6, Late: 0, Early: 0, Misses: 0
240-> Hits: 10, Late: 5, Early: 0, Misses: 0
241-> Hits: 2, Late: 0, Early: 0, Misses: 0
245-> Hits: 4, Late: 0, Early: 0, Misses: 1
246-> Hits: 93391, Late: 1, Early: 0, Misses: 1
247-> Hits: 1, Late: 0, Early: 0, Misses: 0
248-> Hits: 4, Late: 0, Early: 0, Misses: 0
249-> Hits: 2, Late: 0, Early: 0, Misses: 0
24a-> Hits: 1, Late: 1, Early: 0, Misses: 0
24b-> Hits: 1, Late: 0, Early: 0, Misses: 0
24d-> Hits: 2, Late: 0, Early: 0, Misses: 0
24e-> Hits: 1, Late: 0, Early: 0, Misses: 0
24f-> Hits: 4, Late: 0, Early: 0, Misses: 0
250-> Hits: 4, Late: 1, Early: 0, Misses: 0
251-> Hits: 4, Late: 0, Early: 0, Misses: 0
252-> Hits: 4, Late: 1, Early: 0, Misses: 0
253-> Hits: 136204, Late: 6, Early: 0, Misses: 8
254-> Hits: 4, Late: 0, Early: 0, Misses: 0
255-> Hits: 3, Late: 1, Early: 0, Misses: 0
256-> Hits: 3, Late: 0, Early: 0, Misses: 0
258-> Hits: 4, Late: 0, Early: 0, Misses: 0
25a-> Hits: 3, Late: 0, Early: 0, Misses: 0
25c-> Hits: 1, Late: 0, Early: 0, Misses: 0
25d-> Hits: 1, Late: 0, Early: 0, Misses: 0
25e-> Hits: 1, Late: 0, Early: 0, Misses: 0
25f-> Hits: 2, Late: 2, Early: 0, Misses: 0
260-> Hits: 6187, Late: 4, Early: 0, Misses: 0
261-> Hits: 1, Late: 0, Early: 0, Misses: 0
262-> Hits: 2, Late: 0, Early: 0, Misses: 0
263-> Hits: 10, Late: 0, Early: 0, Misses: 0
264-> Hits: 2, Late: 0, Early: 0, Misses: 0
265-> Hits: 3, Late: 0, Early: 0, Misses: 0
266-> Hits: 4, Late: 0, Early: 0, Misses: 0
267-> Hits: 6, Late: 0, Early: 0, Misses: 0
268-> Hits: 123619, Late: 11, Early: 0, Misses: 8
269-> Hits: 1, Late: 0, Early: 0, Misses: 0
26a-> Hits: 2, Late: 0, Early: 0, Misses: 0
26b-> Hits: 1, Late: 0, Early: 0, Misses: 0
26d-> Hits: 31, Late: 0, Early: 0, Misses: 0
26e-> Hits: 0, Late: 31, Early: 0, Misses: 0
270-> Hits: 17, Late: 1, Early: 0, Misses: 0
271-> Hits: 1, Late: 0, Early: 0, Misses: 0
274-> Hits: 1, Late: 0, Early: 0, Misses: 0
275-> Hits: 31, Late: 0, Early: 0, Misses: 0
276-> Hits: 885, Late: 5, Early: 0, Misses: 7
277-> Hits: 1, Late: 0, Early: 0, Misses: 0
278-> Hits: 1, Late: 0, Early: 0, Misses: 0
27a-> Hits: 31, Late: 0, Early: 0, Misses: 0
27b-> Hits: 5, Late: 0, Early: 0, Misses: 0
27c-> Hits: 2, Late: 0, Early: 0, Misses: 0
27d-> Hits: 14281, Late: 23, Early: 0, Misses: 0
27e-> Hits: 6, Late: 0, Early: 0, Misses: 0
27f-> Hits: 31, Late: 0, Early: 0, Misses: 0
280-> Hits: 0, Late: 2, Early: 0, Misses: 0
281-> Hits: 1, Late: 0, Early: 0, Misses: 0
282-> Hits: 892, Late: 3, Early: 0, Misses: 6
283-> Hits: 137025, Late: 84, Early: 0, Misses: 21
284-> Hits: 4, Late: 0, Early: 0, Misses: 0
285-> Hits: 10, Late: 1, Early: 0, Misses: 0
289-> Hits: 0, Late: 1, Early: 0, Misses: 0
28a-> Hits: 3, Late: 0, Early: 0, Misses: 0
28f-> Hits: 10, Late: 0, Early: 0, Misses: 0
290-> Hits: 1, Late: 0, Early: 0, Misses: 0
291-> Hits: 1, Late: 0, Early: 0, Misses: 0
293-> Hits: 1, Late: 0, Early: 0, Misses: 0
294-> Hits: 1, Late: 0, Early: 0, Misses: 0
297-> Hits: 1, Late: 0, Early: 0, Misses: 0
298-> Hits: 1, Late: 0, Early: 0, Misses: 0
299-> Hits: 8556, Late: 65, Early: 0, Misses: 0
29a-> Hits: 1, Late: 0, Early: 0, Misses: 0
29d-> Hits: 11, Late: 2, Early: 0, Misses: 0
29e-> Hits: 2, Late: 0, Early: 0, Misses: 0
29f-> Hits: 5, Late: 0, Early: 0, Misses: 0
2a0-> Hits: 2, Late: 1, Early: 0, Misses: 0
2a1-> Hits: 2, Late: 0, Early: 0, Misses: 0
2a2-> Hits: 7, Late: 0, Early: 0, Misses: 0
2a4-> Hits: 4, Late: 0, Early: 0, Misses: 0
2a5-> Hits: 1, Late: 0, Early: 0, Misses: 0
2a6-> Hits: 3, Late: 0, Early: 0, Misses: 0
2a7-> Hits: 5, Late: 0, Early: 0, Misses: 0
2a8-> Hits: 1, Late: 0, Early: 0, Misses: 0
2a9-> Hits: 7, Late: 0, Early: 0, Misses: 0
2aa-> Hits: 5, Late: 0, Early: 0, Misses: 0
2ad-> Hits: 1, Late: 1, Early: 0, Misses: 0
2ae-> Hits: 11401, Late: 51, Early: 0, Misses: 0
2af-> Hits: 1, Late: 1, Early: 0, Misses: 0
2b0-> Hits: 1, Late: 0, Early: 0, Misses: 0
2b1-> Hits: 1, Late: 1, Early: 0, Misses: 0
2b3-> Hits: 1, Late: 1, Early: 0, Misses: 0
2b6-> Hits: 1, Late: 1, Early: 0, Misses: 0
2b7-> Hits: 0, Late: 1, Early: 0, Misses: 0
2bd-> Hits: 137218, Late: 7, Early: 0, Misses: 7
2c0-> Hits: 3, Late: 1, Early: 0, Misses: 0
2c1-> Hits: 1, Late: 1, Early: 0, Misses: 0
2c3-> Hits: 1, Late: 0, Early: 0, Misses: 0
2c5-> Hits: 10, Late: 1, Early: 0, Misses: 0
2c6-> Hits: 3, Late: 0, Early: 0, Misses: 0
2c7-> Hits: 1, Late: 0, Early: 0, Misses: 0
2c8-> Hits: 2, Late: 0, Early: 0, Misses: 0
2c9-> Hits: 7, Late: 1, Early: 0, Misses: 0
2ca-> Hits: 4167, Late: 0, Early: 0, Misses: 0
2cc-> Hits: 2, Late: 1, Early: 0, Misses: 0
2cd-> Hits: 1, Late: 2, Early: 0, Misses: 0
2d1-> Hits: 1, Late: 1, Early: 0, Misses: 0
2d3-> Hits: 1, Late: 0, Early: 0, Misses: 0
2d6-> Hits: 2, Late: 1, Early: 0, Misses: 0
2d7-> Hits: 137120, Late: 9, Early: 0, Misses: 1
2d8-> Hits: 1, Late: 0, Early: 0, Misses: 0
2da-> Hits: 2, Late: 0, Early: 0, Misses: 0
2db-> Hits: 3, Late: 0, Early: 0, Misses: 0
2dc-> Hits: 4, Late: 0, Early: 0, Misses: 0
2de-> Hits: 2, Late: 0, Early: 0, Misses: 0
2df-> Hits: 3, Late: 1, Early: 0, Misses: 0
2e0-> Hits: 4, Late: 1, Early: 0, Misses: 0
2e2-> Hits: 5, Late: 0, Early: 0, Misses: 0
2e4-> Hits: 2, Late: 0, Early: 0, Misses: 0
2e5-> Hits: 2, Late: 0, Early: 0, Misses: 0
2e6-> Hits: 5, Late: 1, Early: 0, Misses: 0
2e9-> Hits: 2, Late: 0, Early: 0, Misses: 0
2ea-> Hits: 136964, Late: 167, Early: 0, Misses: 0
2ed-> Hits: 1, Late: 0, Early: 0, Misses: 0
2ee-> Hits: 72, Late: 0, Early: 0, Misses: 15
2ef-> Hits: 1, Late: 0, Early: 0, Misses: 0
2f0-> Hits: 1, Late: 1, Early: 0, Misses: 0
2f1-> Hits: 2, Late: 0, Early: 0, Misses: 0
2f2-> Hits: 1, Late: 0, Early: 0, Misses: 0
2f3-> Hits: 26, Late: 1, Early: 0, Misses: 0
2f4-> Hits: 10, Late: 0, Early: 0, Misses: 0
2f5-> Hits: 13, Late: 0, Early: 0, Misses: 0
2f6-> Hits: 10, Late: 0, Early: 0, Misses: 0
2f7-> Hits: 9, Late: 0, Early: 0, Misses: 0
2f8-> Hits: 10, Late: 0, Early: 0, Misses: 0
2fa-> Hits: 10, Late: 0, Early: 0, Misses: 0
2fb-> Hits: 18, Late: 4, Early: 0, Misses: 0
300-> Hits: 14544, Late: 51, Early: 0, Misses: 17
301-> Hits: 2, Late: 0, Early: 0, Misses: 0
302-> Hits: 2, Late: 0, Early: 0, Misses: 0
304-> Hits: 6703, Late: 288, Early: 0, Misses: 0
305-> Hits: 10, Late: 0, Early: 0, Misses: 0
306-> Hits: 2, Late: 0, Early: 0, Misses: 0
308-> Hits: 1, Late: 1, Early: 0, Misses: 0
309-> Hits: 5419, Late: 1869, Early: 0, Misses: 0
30a-> Hits: 2, Late: 0, Early: 0, Misses: 0
30b-> Hits: 2, Late: 0, Early: 0, Misses: 0
30c-> Hits: 1, Late: 0, Early: 0, Misses: 0
30f-> Hits: 5361, Late: 3097, Early: 0, Misses: 0
310-> Hits: 1, Late: 1, Early: 0, Misses: 0
312-> Hits: 2, Late: 0, Early: 0, Misses: 0
313-> Hits: 1, Late: 0, Early: 0, Misses: 0
314-> Hits: 5572, Late: 3019, Early: 0, Misses: 0
315-> Hits: 524, Late: 0, Early: 0, Misses: 0
316-> Hits: 3, Late: 0, Early: 0, Misses: 0
317-> Hits: 8, Late: 3, Early: 0, Misses: 0
318-> Hits: 13, Late: 1, Early: 0, Misses: 0
319-> Hits: 7, Late: 0, Early: 0, Misses: 0
31a-> Hits: 1653, Late: 13682, Early: 0, Misses: 0
31b-> Hits: 5, Late: 0, Early: 0, Misses: 0
31d-> Hits: 4, Late: 0, Early: 0, Misses: 0
31f-> Hits: 562, Late: 14259, Early: 0, Misses: 0
320-> Hits: 402, Late: 0, Early: 0, Misses: 0
324-> Hits: 1, Late: 0, Early: 0, Misses: 0
325-> Hits: 450, Late: 14362, Early: 0, Misses: 0
326-> Hits: 2, Late: 0, Early: 0, Misses: 0
327-> Hits: 1, Late: 0, Early: 0, Misses: 0
32a-> Hits: 1453, Late: 13358, Early: 0, Misses: 0
32c-> Hits: 1, Late: 0, Early: 0, Misses: 0
32d-> Hits: 1, Late: 0, Early: 0, Misses: 0
32f-> Hits: 1, Late: 0, Early: 0, Misses: 0
330-> Hits: 4, Late: 1, Early: 0, Misses: 0
332-> Hits: 5, Late: 0, Early: 0, Misses: 0
333-> Hits: 2, Late: 0, Early: 0, Misses: 0
334-> Hits: 14653, Late: 87, Early: 0, Misses: 21
335-> Hits: 6, Late: 0, Early: 0, Misses: 0
336-> Hits: 1, Late: 0, Early: 0, Misses: 0
338-> Hits: 4, Late: 0, Early: 0, Misses: 0
339-> Hits: 1, Late: 0, Early: 0, Misses: 0
33a-> Hits: 6, Late: 0, Early: 0, Misses: 0
33c-> Hits: 1, Late: 0, Early: 0, Misses: 0
33d-> Hits: 2, Late: 0, Early: 0, Misses: 0
33f-> Hits: 1, Late: 0, Early: 0, Misses: 0
340-> Hits: 2, Late: 2, Early: 0, Misses: 0
341-> Hits: 3, Late: 0, Early: 0, Misses: 0
344-> Hits: 2, Late: 2, Early: 0, Misses: 0
347-> Hits: 4, Late: 2, Early: 0, Misses: 0
34a-> Hits: 4, Late: 0, Early: 0, Misses: 0
34b-> Hits: 2, Late: 0, Early: 0, Misses: 0
34c-> Hits: 3, Late: 1, Early: 0, Misses: 0
34d-> Hits: 3, Late: 2, Early: 0, Misses: 0
34e-> Hits: 1, Late: 0, Early: 0, Misses: 0
34f-> Hits: 479562, Late: 3778, Early: 0, Misses: 0
350-> Hits: 282, Late: 2, Early: 0, Misses: 0
351-> Hits: 1, Late: 0, Early: 0, Misses: 0
352-> Hits: 0, Late: 1, Early: 0, Misses: 0
353-> Hits: 3, Late: 0, Early: 0, Misses: 0
355-> Hits: 0, Late: 1, Early: 0, Misses: 0
356-> Hits: 51141, Late: 8, Early: 0, Misses: 0
357-> Hits: 256, Late: 0, Early: 0, Misses: 0
358-> Hits: 3, Late: 0, Early: 0, Misses: 0
359-> Hits: 5, Late: 1, Early: 0, Misses: 0
35a-> Hits: 240, Late: 0, Early: 0, Misses: 0
35c-> Hits: 483066, Late: 14, Early: 0, Misses: 0
35d-> Hits: 16, Late: 231, Early: 0, Misses: 15
360-> Hits: 15, Late: 0, Early: 0, Misses: 0
361-> Hits: 4, Late: 0, Early: 0, Misses: 0
362-> Hits: 4, Late: 0, Early: 0, Misses: 0
363-> Hits: 9, Late: 0, Early: 0, Misses: 0
364-> Hits: 4, Late: 0, Early: 0, Misses: 0
366-> Hits: 4, Late: 1, Early: 0, Misses: 0
367-> Hits: 1, Late: 0, Early: 0, Misses: 0
368-> Hits: 6, Late: 0, Early: 0, Misses: 0
36a-> Hits: 4, Late: 0, Early: 0, Misses: 0
36c-> Hits: 9, Late: 0, Early: 0, Misses: 0
36d-> Hits: 0, Late: 1, Early: 0, Misses: 0
36e-> Hits: 0, Late: 1, Early: 0, Misses: 0
36f-> Hits: 1, Late: 0, Early: 0, Misses: 0
370-> Hits: 3, Late: 0, Early: 0, Misses: 0
372-> Hits: 93230, Late: 10, Early: 0, Misses: 0
374-> Hits: 2, Late: 0, Early: 0, Misses: 0
375-> Hits: 3, Late: 0, Early: 0, Misses: 0
376-> Hits: 4, Late: 0, Early: 0, Misses: 0
377-> Hits: 2, Late: 0, Early: 0, Misses: 0
379-> Hits: 2, Late: 1, Early: 0, Misses: 0
37a-> Hits: 9, Late: 1, Early: 0, Misses: 0
37b-> Hits: 3, Late: 0, Early: 0, Misses: 0
37d-> Hits: 3, Late: 1, Early: 0, Misses: 0
37f-> Hits: 2, Late: 2, Early: 0, Misses: 0
380-> Hits: 2, Late: 0, Early: 0, Misses: 0
382-> Hits: 1, Late: 0, Early: 0, Misses: 0
383-> Hits: 0, Late: 2, Early: 0, Misses: 0
385-> Hits: 2, Late: 0, Early: 0, Misses: 0
387-> Hits: 49578, Late: 22, Early: 0, Misses: 0
388-> Hits: 1, Late: 0, Early: 0, Misses: 0
389-> Hits: 4, Late: 0, Early: 0, Misses: 0
38b-> Hits: 2, Late: 0, Early: 0, Misses: 0
38d-> Hits: 483058, Late: 16, Early: 0, Misses: 0
38e-> Hits: 1, Late: 0, Early: 0, Misses: 0
391-> Hits: 5, Late: 0, Early: 0, Misses: 0
392-> Hits: 1, Late: 0, Early: 0, Misses: 0
393-> Hits: 2, Late: 0, Early: 0, Misses: 0
394-> Hits: 5, Late: 0, Early: 0, Misses: 0
395-> Hits: 1, Late: 0, Early: 0, Misses: 0
396-> Hits: 2, Late: 1, Early: 0, Misses: 0
398-> Hits: 1, Late: 0, Early: 0, Misses: 0
399-> Hits: 481611, Late: 0, Early: 0, Misses: 0
39a-> Hits: 1, Late: 1, Early: 0, Misses: 0
39b-> Hits: 1, Late: 0, Early: 0, Misses: 0
39c-> Hits: 1, Late: 0, Early: 0, Misses: 0
39d-> Hits: 1, Late: 0, Early: 0, Misses: 0
3a0-> Hits: 1, Late: 2, Early: 0, Misses: 0
3a2-> Hits: 1, Late: 0, Early: 0, Misses: 0
3a3-> Hits: 481464, Late: 0, Early: 0, Misses: 0
3a7-> Hits: 3, Late: 0, Early: 0, Misses: 0
3aa-> Hits: 3, Late: 0, Early: 0, Misses: 0
3ab-> Hits: 1, Late: 0, Early: 0, Misses: 0
3ac-> Hits: 22776, Late: 0, Early: 0, Misses: 0
3af-> Hits: 1, Late: 0, Early: 0, Misses: 0
3b0-> Hits: 3, Late: 0, Early: 0, Misses: 0
3b1-> Hits: 410312, Late: 29, Early: 0, Misses: 0
3b2-> Hits: 2, Late: 0, Early: 0, Misses: 0
3b3-> Hits: 1, Late: 0, Early: 0, Misses: 0
3b5-> Hits: 1, Late: 0, Early: 0, Misses: 0
3b7-> Hits: 1, Late: 0, Early: 0, Misses: 0
3b9-> Hits: 3, Late: 0, Early: 0, Misses: 0
3c0-> Hits: 11, Late: 0, Early: 0, Misses: 0
3c6-> Hits: 28662, Late: 18, Early: 0, Misses: 0
3c8-> Hits: 1, Late: 0, Early: 0, Misses: 0
3ca-> Hits: 5, Late: 0, Early: 0, Misses: 0
3cb-> Hits: 1, Late: 0, Early: 0, Misses: 0
3cd-> Hits: 6, Late: 0, Early: 0, Misses: 0
3ce-> Hits: 1, Late: 0, Early: 0, Misses: 0
3cf-> Hits: 1, Late: 1, Early: 0, Misses: 0
3d0-> Hits: 4, Late: 0, Early: 0, Misses: 0
3d5-> Hits: 2, Late: 0, Early: 0, Misses: 0
3d6-> Hits: 2, Late: 0, Early: 0, Misses: 0
3db-> Hits: 66142, Late: 182, Early: 0, Misses: 0
3dc-> Hits: 1, Late: 0, Early: 0, Misses: 0
3dd-> Hits: 4, Late: 0, Early: 0, Misses: 0
3e0-> Hits: 131080, Late: 1, Early: 0, Misses: 0
3e1-> Hits: 483066, Late: 9, Early: 0, Misses: 0
3e4-> Hits: 2, Late: 0, Early: 0, Misses: 0
3e5-> Hits: 2, Late: 0, Early: 0, Misses: 0
3e6-> Hits: 2, Late: 0, Early: 0, Misses: 0
3e8-> Hits: 3, Late: 0, Early: 0, Misses: 0
3ea-> Hits: 2, Late: 0, Early: 0, Misses: 0
3eb-> Hits: 1, Late: 0, Early: 0, Misses: 0
3ec-> Hits: 2, Late: 0, Early: 0, Misses: 0
3ed-> Hits: 1, Late: 0, Early: 0, Misses: 0
3ee-> Hits: 2, Late: 0, Early: 0, Misses: 0
3ef-> Hits: 8, Late: 0, Early: 0, Misses: 0
3f0-> Hits: 11, Late: 4, Early: 0, Misses: 0
3f5-> Hits: 1, Late: 0, Early: 0, Misses: 0
3f7-> Hits: 112721, Late: 145, Early: 0, Misses: 0
3fe-> Hits: 2, Late: 0, Early: 0, Misses: 0
400-> Hits: 6, Late: 0, Early: 0, Misses: 0
401-> Hits: 4, Late: 0, Early: 0, Misses: 0
402-> Hits: 480589, Late: 0, Early: 0, Misses: 0
403-> Hits: 1, Late: 0, Early: 0, Misses: 0
404-> Hits: 4, Late: 0, Early: 0, Misses: 0
405-> Hits: 1, Late: 1, Early: 0, Misses: 0
406-> Hits: 4, Late: 0, Early: 0, Misses: 0
408-> Hits: 5, Late: 0, Early: 0, Misses: 0
40a-> Hits: 4, Late: 0, Early: 0, Misses: 0
40b-> Hits: 2, Late: 2, Early: 0, Misses: 0
40c-> Hits: 26003, Late: 0, Early: 0, Misses: 0
40d-> Hits: 1, Late: 0, Early: 0, Misses: 0
40e-> Hits: 2, Late: 0, Early: 0, Misses: 0
410-> Hits: 6, Late: 0, Early: 0, Misses: 0
413-> Hits: 1, Late: 0, Early: 0, Misses: 0
416-> Hits: 483072, Late: 0, Early: 0, Misses: 0
419-> Hits: 3, Late: 0, Early: 0, Misses: 0
41c-> Hits: 2, Late: 0, Early: 0, Misses: 0
41e-> Hits: 389138, Late: 18, Early: 0, Misses: 0
420-> Hits: 5, Late: 0, Early: 0, Misses: 0
422-> Hits: 2, Late: 0, Early: 0, Misses: 0
424-> Hits: 9, Late: 0, Early: 0, Misses: 0
426-> Hits: 2, Late: 0, Early: 0, Misses: 0
427-> Hits: 2, Late: 0, Early: 0, Misses: 0
428-> Hits: 5, Late: 2, Early: 0, Misses: 0
42a-> Hits: 2, Late: 0, Early: 0, Misses: 0
42b-> Hits: 3, Late: 0, Early: 0, Misses: 0
42c-> Hits: 2, Late: 0, Early: 0, Misses: 0
42d-> Hits: 1, Late: 0, Early: 0, Misses: 0
42e-> Hits: 483060, Late: 16, Early: 0, Misses: 0
437-> Hits: 1, Late: 0, Early: 0, Misses: 0
438-> Hits: 3, Late: 0, Early: 0, Misses: 0
43a-> Hits: 77479, Late: 9, Early: 0, Misses: 0
43b-> Hits: 3, Late: 1, Early: 0, Misses: 0
43f-> Hits: 1, Late: 0, Early: 0, Misses: 0
440-> Hits: 9, Late: 4, Early: 0, Misses: 0
441-> Hits: 1, Late: 0, Early: 0, Misses: 0
443-> Hits: 7, Late: 1, Early: 0, Misses: 0
444-> Hits: 1, Late: 0, Early: 0, Misses: 0
447-> Hits: 4, Late: 0, Early: 0, Misses: 0
448-> Hits: 6, Late: 0, Early: 0, Misses: 0
44a-> Hits: 3, Late: 0, Early: 0, Misses: 0
44b-> Hits: 3, Late: 0, Early: 0, Misses: 0
44c-> Hits: 1, Late: 1, Early: 0, Misses: 0
44f-> Hits: 43294, Late: 5, Early: 0, Misses: 0
450-> Hits: 8, Late: 0, Early: 0, Misses: 0
451-> Hits: 2, Late: 0, Early: 0, Misses: 0
453-> Hits: 4, Late: 0, Early: 0, Misses: 0
454-> Hits: 32, Late: 30, Early: 0, Misses: 0
458-> Hits: 2, Late: 0, Early: 0, Misses: 0
459-> Hits: 10, Late: 1, Early: 0, Misses: 0
45a-> Hits: 11, Late: 0, Early: 0, Misses: 0
45b-> Hits: 41, Late: 0, Early: 0, Misses: 0
45d-> Hits: 38, Late: 0, Early: 0, Misses: 0
45f-> Hits: 3, Late: 0, Early: 0, Misses: 0
460-> Hits: 4, Late: 0, Early: 0, Misses: 0
461-> Hits: 1, Late: 0, Early: 0, Misses: 0
463-> Hits: 3, Late: 0, Early: 0, Misses: 0
464-> Hits: 78121, Late: 3, Early: 0, Misses: 0
466-> Hits: 5, Late: 1, Early: 0, Misses: 0
468-> Hits: 8, Late: 0, Early: 0, Misses: 0
46a-> Hits: 483043, Late: 36, Early: 0, Misses: 0
46d-> Hits: 4, Late: 0, Early: 0, Misses: 0
470-> Hits: 131338, Late: 4, Early: 0, Misses: 0
471-> Hits: 40, Late: 1, Early: 0, Misses: 0
472-> Hits: 1, Late: 0, Early: 0, Misses: 0
473-> Hits: 3, Late: 0, Early: 0, Misses: 0
475-> Hits: 1, Late: 0, Early: 0, Misses: 0
476-> Hits: 334887, Late: 0, Early: 0, Misses: 0
477-> Hits: 3, Late: 0, Early: 0, Misses: 0
478-> Hits: 383, Late: 0, Early: 0, Misses: 0
47b-> Hits: 1, Late: 0, Early: 0, Misses: 0
47c-> Hits: 3, Late: 0, Early: 0, Misses: 0
47d-> Hits: 385, Late: 0, Early: 0, Misses: 0
47e-> Hits: 5, Late: 0, Early: 0, Misses: 0
47f-> Hits: 10, Late: 0, Early: 0, Misses: 0
480-> Hits: 6, Late: 3, Early: 0, Misses: 0
481-> Hits: 1, Late: 0, Early: 0, Misses: 0
482-> Hits: 5, Late: 0, Early: 0, Misses: 0
483-> Hits: 478037, Late: 0, Early: 0, Misses: 0
484-> Hits: 2, Late: 0, Early: 0, Misses: 0
486-> Hits: 65, Late: 0, Early: 0, Misses: 0
487-> Hits: 6, Late: 0, Early: 0, Misses: 0
488-> Hits: 20, Late: 0, Early: 0, Misses: 0
489-> Hits: 9, Late: 0, Early: 0, Misses: 0
48a-> Hits: 1, Late: 0, Early: 0, Misses: 0
48b-> Hits: 5, Late: 0, Early: 0, Misses: 0
48d-> Hits: 9, Late: 2, Early: 0, Misses: 0
48e-> Hits: 2, Late: 0, Early: 0, Misses: 0
48f-> Hits: 5, Late: 0, Early: 0, Misses: 0
490-> Hits: 33929, Late: 4, Early: 0, Misses: 0
491-> Hits: 5, Late: 0, Early: 0, Misses: 0
493-> Hits: 60, Late: 1, Early: 0, Misses: 0
494-> Hits: 63, Late: 0, Early: 0, Misses: 0
495-> Hits: 61, Late: 0, Early: 0, Misses: 0
496-> Hits: 4, Late: 0, Early: 0, Misses: 0
497-> Hits: 64, Late: 0, Early: 0, Misses: 0
498-> Hits: 433895, Late: 8, Early: 0, Misses: 0
499-> Hits: 61, Late: 0, Early: 0, Misses: 0
49b-> Hits: 64, Late: 0, Early: 0, Misses: 0
49c-> Hits: 1, Late: 0, Early: 0, Misses: 0
49d-> Hits: 238, Late: 0, Early: 0, Misses: 0
4a0-> Hits: 2, Late: 1, Early: 0, Misses: 0
4a2-> Hits: 3, Late: 0, Early: 0, Misses: 0
4a3-> Hits: 154, Late: 0, Early: 0, Misses: 0
4a5-> Hits: 31, Late: 0, Early: 0, Misses: 0
4a6-> Hits: 2, Late: 0, Early: 0, Misses: 0
4ab-> Hits: 5, Late: 0, Early: 0, Misses: 0
4ac-> Hits: 3, Late: 1, Early: 0, Misses: 0
4ad-> Hits: 60112, Late: 25, Early: 0, Misses: 0
4ae-> Hits: 5, Late: 0, Early: 0, Misses: 0
4b0-> Hits: 41, Late: 0, Early: 0, Misses: 0
4b1-> Hits: 3, Late: 0, Early: 0, Misses: 0
4b2-> Hits: 10, Late: 1, Early: 0, Misses: 0
4b3-> Hits: 483034, Late: 43, Early: 0, Misses: 0
4b4-> Hits: 4, Late: 1, Early: 0, Misses: 0
4b7-> Hits: 16, Late: 0, Early: 0, Misses: 0
4b8-> Hits: 31, Late: 0, Early: 0, Misses: 0
4b9-> Hits: 4, Late: 0, Early: 0, Misses: 0
4bb-> Hits: 18, Late: 0, Early: 0, Misses: 0
4bd-> Hits: 1, Late: 0, Early: 0, Misses: 0
4be-> Hits: 1, Late: 1, Early: 0, Misses: 0
4c0-> Hits: 2, Late: 1, Early: 0, Misses: 0
4c1-> Hits: 1, Late: 0, Early: 0, Misses: 0
4c2-> Hits: 2, Late: 0, Early: 0, Misses: 0
4c4-> Hits: 2, Late: 0, Early: 0, Misses: 0
4c5-> Hits: 18, Late: 0, Early: 0, Misses: 0
4c6-> Hits: 8, Late: 0, Early: 0, Misses: 0
4c7-> Hits: 0, Late: 1, Early: 0, Misses: 0
4c8-> Hits: 2, Late: 0, Early: 0, Misses: 0
4c9-> Hits: 51117, Late: 144, Early: 0, Misses: 0
4cb-> Hits: 3, Late: 0, Early: 0, Misses: 0
4cc-> Hits: 1, Late: 0, Early: 0, Misses: 0
4cd-> Hits: 4, Late: 0, Early: 0, Misses: 0
4ce-> Hits: 4, Late: 2, Early: 0, Misses: 0
4cf-> Hits: 6, Late: 0, Early: 0, Misses: 0
4d0-> Hits: 4, Late: 0, Early: 0, Misses: 0
4d1-> Hits: 27, Late: 0, Early: 0, Misses: 0
4d2-> Hits: 4, Late: 0, Early: 0, Misses: 0
4d3-> Hits: 1, Late: 0, Early: 0, Misses: 0
4d4-> Hits: 6, Late: 0, Early: 0, Misses: 0
4d5-> Hits: 1, Late: 1, Early: 0, Misses: 0
4d6-> Hits: 21, Late: 14, Early: 0, Misses: 0
4d7-> Hits: 4, Late: 0, Early: 0, Misses: 0
4da-> Hits: 1, Late: 0, Early: 0, Misses: 0
4dc-> Hits: 3, Late: 2, Early: 0, Misses: 0
4dd-> Hits: 5, Late: 0, Early: 0, Misses: 0
4de-> Hits: 53351, Late: 141, Early: 0, Misses: 0
4df-> Hits: 3, Late: 0, Early: 0, Misses: 0
4e0-> Hits: 34, Late: 5, Early: 0, Misses: 0
4e2-> Hits: 7, Late: 0, Early: 0, Misses: 0
4e4-> Hits: 2, Late: 0, Early: 0, Misses: 0
4e5-> Hits: 7, Late: 0, Early: 0, Misses: 0
4e6-> Hits: 1, Late: 0, Early: 0, Misses: 0
4e7-> Hits: 3, Late: 0, Early: 0, Misses: 0
4e8-> Hits: 6, Late: 0, Early: 0, Misses: 0
4e9-> Hits: 3, Late: 0, Early: 0, Misses: 0
4ea-> Hits: 2, Late: 0, Early: 0, Misses: 0
4eb-> Hits: 23, Late: 0, Early: 0, Misses: 0
4ec-> Hits: 1, Late: 0, Early: 0, Misses: 0
4ed-> Hits: 483072, Late: 0, Early: 0, Misses: 0
4ef-> Hits: 2, Late: 0, Early: 0, Misses: 0
4f1-> Hits: 3, Late: 0, Early: 0, Misses: 0
4f2-> Hits: 18, Late: 0, Early: 0, Misses: 0
4f3-> Hits: 5, Late: 1, Early: 0, Misses: 0
4f6-> Hits: 1, Late: 0, Early: 0, Misses: 0
4f7-> Hits: 4, Late: 0, Early: 0, Misses: 0
4f8-> Hits: 65, Late: 0, Early: 0, Misses: 0
4f9-> Hits: 33, Late: 0, Early: 0, Misses: 0
4fa-> Hits: 30204, Late: 0, Early: 0, Misses: 0
4fb-> Hits: 30, Late: 0, Early: 0, Misses: 0
4fc-> Hits: 0, Late: 1, Early: 0, Misses: 0
4fd-> Hits: 74, Late: 0, Early: 0, Misses: 0
4fe-> Hits: 1, Late: 0, Early: 0, Misses: 0
4ff-> Hits: 43, Late: 0, Early: 0, Misses: 0
500-> Hits: 3, Late: 1, Early: 0, Misses: 0
501-> Hits: 1, Late: 0, Early: 0, Misses: 0
502-> Hits: 2, Late: 0, Early: 0, Misses: 0
503-> Hits: 2, Late: 0, Early: 0, Misses: 0
504-> Hits: 20, Late: 11, Early: 0, Misses: 0
505-> Hits: 30, Late: 0, Early: 0, Misses: 0
506-> Hits: 7, Late: 0, Early: 0, Misses: 0
507-> Hits: 483069, Late: 0, Early: 0, Misses: 0
508-> Hits: 1, Late: 0, Early: 0, Misses: 0
509-> Hits: 1, Late: 0, Early: 0, Misses: 0
50b-> Hits: 0, Late: 1, Early: 0, Misses: 0
50c-> Hits: 1, Late: 1, Early: 0, Misses: 0
50d-> Hits: 2, Late: 0, Early: 0, Misses: 0
510-> Hits: 2, Late: 0, Early: 0, Misses: 0
511-> Hits: 2, Late: 0, Early: 0, Misses: 0
514-> Hits: 0, Late: 1, Early: 0, Misses: 0
515-> Hits: 1, Late: 0, Early: 0, Misses: 0
516-> Hits: 482793, Late: 282, Early: 0, Misses: 0
518-> Hits: 1, Late: 0, Early: 0, Misses: 0
519-> Hits: 2, Late: 0, Early: 0, Misses: 0
51a-> Hits: 1, Late: 0, Early: 0, Misses: 0
51b-> Hits: 2, Late: 0, Early: 0, Misses: 0
51c-> Hits: 2, Late: 0, Early: 0, Misses: 0
51d-> Hits: 31, Late: 0, Early: 0, Misses: 0
51f-> Hits: 1, Late: 0, Early: 0, Misses: 0
520-> Hits: 131176, Late: 75, Early: 0, Misses: 0
521-> Hits: 31, Late: 0, Early: 0, Misses: 0
522-> Hits: 1, Late: 0, Early: 0, Misses: 0
523-> Hits: 1, Late: 0, Early: 0, Misses: 0
524-> Hits: 9, Late: 0, Early: 0, Misses: 0
527-> Hits: 9, Late: 0, Early: 0, Misses: 0
528-> Hits: 131071, Late: 1, Early: 0, Misses: 0
529-> Hits: 31, Late: 0, Early: 0, Misses: 0
52a-> Hits: 1, Late: 0, Early: 0, Misses: 0
52b-> Hits: 2, Late: 0, Early: 0, Misses: 0
52e-> Hits: 2, Late: 0, Early: 0, Misses: 0
530-> Hits: 8, Late: 1, Early: 0, Misses: 0
532-> Hits: 1, Late: 0, Early: 0, Misses: 0
534-> Hits: 1, Late: 0, Early: 0, Misses: 0
535-> Hits: 1, Late: 0, Early: 0, Misses: 0
536-> Hits: 1, Late: 0, Early: 0, Misses: 0
539-> Hits: 1, Late: 0, Early: 0, Misses: 0
53a-> Hits: 9, Late: 0, Early: 0, Misses: 0
53b-> Hits: 1, Late: 0, Early: 0, Misses: 0
53c-> Hits: 131102, Late: 1, Early: 0, Misses: 0
53d-> Hits: 1, Late: 0, Early: 0, Misses: 0
53e-> Hits: 0, Late: 1, Early: 0, Misses: 0
53f-> Hits: 4, Late: 0, Early: 0, Misses: 0
540-> Hits: 0, Late: 1, Early: 0, Misses: 0
541-> Hits: 2, Late: 0, Early: 0, Misses: 0
544-> Hits: 1, Late: 0, Early: 0, Misses: 0
545-> Hits: 131086, Late: 0, Early: 0, Misses: 0
547-> Hits: 0, Late: 1, Early: 0, Misses: 0
548-> Hits: 2, Late: 0, Early: 0, Misses: 0
549-> Hits: 1, Late: 0, Early: 0, Misses: 0
54a-> Hits: 1, Late: 0, Early: 0, Misses: 0
54b-> Hits: 1, Late: 0, Early: 0, Misses: 0
54c-> Hits: 0, Late: 1, Early: 0, Misses: 0
54d-> Hits: 31, Late: 0, Early: 0, Misses: 0
54e-> Hits: 131072, Late: 0, Early: 0, Misses: 0
550-> Hits: 0, Late: 2, Early: 0, Misses: 0
553-> Hits: 8, Late: 1, Early: 0, Misses: 0
554-> Hits: 2, Late: 0, Early: 0, Misses: 0
555-> Hits: 7, Late: 0, Early: 0, Misses: 0
556-> Hits: 9, Late: 0, Early: 0, Misses: 0
557-> Hits: 131074, Late: 1, Early: 0, Misses: 0
558-> Hits: 3, Late: 0, Early: 0, Misses: 0
559-> Hits: 2, Late: 0, Early: 0, Misses: 0
55a-> Hits: 0, Late: 1, Early: 0, Misses: 0
55b-> Hits: 2, Late: 0, Early: 0, Misses: 0
55c-> Hits: 4, Late: 2, Early: 0, Misses: 0
55d-> Hits: 3, Late: 1, Early: 0, Misses: 0
55e-> Hits: 6, Late: 0, Early: 0, Misses: 0
55f-> Hits: 3, Late: 0, Early: 0, Misses: 0
560-> Hits: 131082, Late: 2, Early: 0, Misses: 0
561-> Hits: 32, Late: 0, Early: 0, Misses: 0
562-> Hits: 5, Late: 0, Early: 0, Misses: 0
563-> Hits: 3, Late: 4, Early: 0, Misses: 0
564-> Hits: 93, Late: 1, Early: 0, Misses: 0
565-> Hits: 5, Late: 0, Early: 0, Misses: 0
566-> Hits: 2, Late: 0, Early: 0, Misses: 0
567-> Hits: 2, Late: 1, Early: 0, Misses: 0
568-> Hits: 10, Late: 0, Early: 0, Misses: 0
569-> Hits: 131071, Late: 1, Early: 0, Misses: 0
56a-> Hits: 4, Late: 0, Early: 0, Misses: 0
56b-> Hits: 3, Late: 0, Early: 0, Misses: 0
56d-> Hits: 82, Late: 0, Early: 0, Misses: 0
56e-> Hits: 3, Late: 0, Early: 0, Misses: 0
570-> Hits: 13, Late: 0, Early: 0, Misses: 0
572-> Hits: 131074, Late: 1, Early: 0, Misses: 0
574-> Hits: 4, Late: 1, Early: 0, Misses: 0
576-> Hits: 5, Late: 0, Early: 0, Misses: 0
577-> Hits: 40, Late: 31, Early: 0, Misses: 0
578-> Hits: 14, Late: 0, Early: 0, Misses: 0
579-> Hits: 4, Late: 0, Early: 0, Misses: 0
57a-> Hits: 0, Late: 1, Early: 0, Misses: 0
57b-> Hits: 2, Late: 0, Early: 0, Misses: 0
57c-> Hits: 1, Late: 3, Early: 0, Misses: 0
57d-> Hits: 3, Late: 0, Early: 0, Misses: 0
580-> Hits: 7, Late: 2, Early: 0, Misses: 0
581-> Hits: 3, Late: 3, Early: 0, Misses: 0
582-> Hits: 2, Late: 0, Early: 0, Misses: 0
583-> Hits: 29, Late: 1, Early: 0, Misses: 0
584-> Hits: 131076, Late: 2, Early: 0, Misses: 0
586-> Hits: 1, Late: 2, Early: 0, Misses: 0
587-> Hits: 3, Late: 0, Early: 0, Misses: 0
588-> Hits: 6, Late: 1, Early: 0, Misses: 0
58b-> Hits: 3, Late: 0, Early: 0, Misses: 0
58c-> Hits: 4, Late: 2, Early: 0, Misses: 0
58e-> Hits: 9, Late: 0, Early: 0, Misses: 0
590-> Hits: 17, Late: 5, Early: 0, Misses: 0
591-> Hits: 131071, Late: 2, Early: 0, Misses: 0
594-> Hits: 1, Late: 0, Early: 0, Misses: 0
595-> Hits: 3, Late: 0, Early: 0, Misses: 0
598-> Hits: 16, Late: 0, Early: 0, Misses: 0
599-> Hits: 8, Late: 0, Early: 0, Misses: 0
59a-> Hits: 2, Late: 0, Early: 0, Misses: 0
59b-> Hits: 8, Late: 0, Early: 0, Misses: 0
59d-> Hits: 12, Late: 0, Early: 0, Misses: 0
59e-> Hits: 4, Late: 0, Early: 0, Misses: 0
59f-> Hits: 3, Late: 0, Early: 0, Misses: 0
5a0-> Hits: 2, Late: 2, Early: 0, Misses: 0
5a2-> Hits: 7, Late: 0, Early: 0, Misses: 0
5a3-> Hits: 2, Late: 0, Early: 0, Misses: 0
5a5-> Hits: 131072, Late: 1, Early: 0, Misses: 0
5a7-> Hits: 1, Late: 0, Early: 0, Misses: 0
5a9-> Hits: 3, Late: 0, Early: 0, Misses: 0
5aa-> Hits: 13, Late: 6, Early: 0, Misses: 0
5ac-> Hits: 1, Late: 0, Early: 0, Misses: 0
5ae-> Hits: 4, Late: 0, Early: 0, Misses: 0
5af-> Hits: 7, Late: 0, Early: 0, Misses: 0
5b0-> Hits: 2, Late: 1, Early: 0, Misses: 0
5b1-> Hits: 1, Late: 0, Early: 0, Misses: 0
5b2-> Hits: 3, Late: 0, Early: 0, Misses: 0
5b4-> Hits: 0, Late: 2, Early: 0, Misses: 0
5b6-> Hits: 5, Late: 0, Early: 0, Misses: 0
5b8-> Hits: 3, Late: 0, Early: 0, Misses: 0
5b9-> Hits: 2, Late: 0, Early: 0, Misses: 0
5bb-> Hits: 2, Late: 0, Early: 0, Misses: 0
5bc-> Hits: 2, Late: 0, Early: 0, Misses: 0
5bd-> Hits: 1, Late: 0, Early: 0, Misses: 0
5be-> Hits: 5, Late: 31, Early: 0, Misses: 0
5bf-> Hits: 8, Late: 0, Early: 0, Misses: 0
5c0-> Hits: 1040, Late: 0, Early: 0, Misses: 0
5c1-> Hits: 14490, Late: 299, Early: 0, Misses: 25
5c2-> Hits: 5, Late: 0, Early: 0, Misses: 0
5c3-> Hits: 9, Late: 0, Early: 0, Misses: 0
5c4-> Hits: 8, Late: 0, Early: 0, Misses: 0
5c5-> Hits: 1, Late: 0, Early: 0, Misses: 0
5c6-> Hits: 7, Late: 0, Early: 0, Misses: 0
5c7-> Hits: 6, Late: 0, Early: 0, Misses: 0
5c8-> Hits: 7, Late: 0, Early: 0, Misses: 0
5c9-> Hits: 2, Late: 0, Early: 0, Misses: 0
5ca-> Hits: 40, Late: 0, Early: 0, Misses: 0
5cb-> Hits: 2, Late: 0, Early: 0, Misses: 0
5cc-> Hits: 52, Late: 0, Early: 0, Misses: 0
5ce-> Hits: 0, Late: 1, Early: 0, Misses: 0
5d0-> Hits: 38, Late: 34, Early: 0, Misses: 0
5d1-> Hits: 131084, Late: 1, Early: 0, Misses: 0
5d2-> Hits: 1, Late: 0, Early: 0, Misses: 0
5d5-> Hits: 3, Late: 0, Early: 0, Misses: 0
5d6-> Hits: 3, Late: 2, Early: 0, Misses: 0
5d7-> Hits: 4, Late: 0, Early: 0, Misses: 0
5d8-> Hits: 3, Late: 4, Early: 0, Misses: 0
5da-> Hits: 31, Late: 0, Early: 0, Misses: 0
5db-> Hits: 120289, Late: 2, Early: 0, Misses: 0
5dc-> Hits: 49, Late: 2, Early: 0, Misses: 0
5dd-> Hits: 14007, Late: 723, Early: 0, Misses: 44
5de-> Hits: 4, Late: 0, Early: 0, Misses: 0
5df-> Hits: 6, Late: 6, Early: 0, Misses: 1
5e0-> Hits: 3, Late: 2, Early: 0, Misses: 0
5e1-> Hits: 5, Late: 0, Early: 0, Misses: 0
5e2-> Hits: 1, Late: 0, Early: 0, Misses: 0
5e3-> Hits: 6, Late: 0, Early: 0, Misses: 0
5e4-> Hits: 2, Late: 0, Early: 0, Misses: 0
5e5-> Hits: 3, Late: 0, Early: 0, Misses: 0
5e6-> Hits: 2, Late: 3, Early: 0, Misses: 0
5e7-> Hits: 3, Late: 1, Early: 0, Misses: 0
5e9-> Hits: 1, Late: 0, Early: 0, Misses: 0
5ea-> Hits: 1, Late: 0, Early: 0, Misses: 0
5eb-> Hits: 3, Late: 0, Early: 0, Misses: 0
5ed-> Hits: 2, Late: 0, Early: 0, Misses: 0
5ee-> Hits: 3, Late: 0, Early: 0, Misses: 0
5f0-> Hits: 3, Late: 1, Early: 0, Misses: 0
5f2-> Hits: 4, Late: 0, Early: 0, Misses: 0
5f3-> Hits: 7, Late: 0, Early: 0, Misses: 0
5f4-> Hits: 63, Late: 0, Early: 0, Misses: 0
5f5-> Hits: 13965, Late: 808, Early: 0, Misses: 41
5f6-> Hits: 1, Late: 0, Early: 0, Misses: 0
5f7-> Hits: 6, Late: 0, Early: 0, Misses: 0
5f8-> Hits: 5, Late: 0, Early: 0, Misses: 0
5f9-> Hits: 6, Late: 0, Early: 0, Misses: 0
5fa-> Hits: 1, Late: 0, Early: 0, Misses: 0
5fb-> Hits: 6, Late: 0, Early: 0, Misses: 0
5fc-> Hits: 1, Late: 0, Early: 0, Misses: 0
5fd-> Hits: 1, Late: 0, Early: 0, Misses: 0
5fe-> Hits: 7, Late: 0, Early: 0, Misses: 0
5ff-> Hits: 3, Late: 0, Early: 0, Misses: 0
600-> Hits: 1, Late: 2, Early: 0, Misses: 0
602-> Hits: 5, Late: 0, Early: 0, Misses: 0
604-> Hits: 5, Late: 0, Early: 0, Misses: 0
605-> Hits: 17, Late: 1, Early: 0, Misses: 0
606-> Hits: 24, Late: 0, Early: 0, Misses: 0
607-> Hits: 16, Late: 0, Early: 0, Misses: 0
608-> Hits: 5, Late: 2, Early: 0, Misses: 0
609-> Hits: 16, Late: 0, Early: 0, Misses: 0
60a-> Hits: 3, Late: 0, Early: 0, Misses: 0
60b-> Hits: 20, Late: 0, Early: 0, Misses: 0
60c-> Hits: 3, Late: 0, Early: 0, Misses: 0
60d-> Hits: 1, Late: 0, Early: 0, Misses: 0
60e-> Hits: 5, Late: 0, Early: 0, Misses: 0
610-> Hits: 2, Late: 1, Early: 0, Misses: 0
611-> Hits: 1, Late: 0, Early: 0, Misses: 0
614-> Hits: 1, Late: 0, Early: 0, Misses: 0
616-> Hits: 3, Late: 0, Early: 0, Misses: 0
619-> Hits: 2, Late: 0, Early: 0, Misses: 0
61a-> Hits: 5, Late: 0, Early: 0, Misses: 0
61c-> Hits: 3, Late: 0, Early: 0, Misses: 0
61d-> Hits: 16, Late: 0, Early: 0, Misses: 0
61e-> Hits: 1, Late: 0, Early: 0, Misses: 0
620-> Hits: 8, Late: 1, Early: 0, Misses: 0
621-> Hits: 4, Late: 1, Early: 0, Misses: 0
623-> Hits: 3, Late: 0, Early: 0, Misses: 0
625-> Hits: 18, Late: 3, Early: 0, Misses: 0
626-> Hits: 1, Late: 0, Early: 0, Misses: 0
628-> Hits: 4, Late: 1, Early: 0, Misses: 0
62a-> Hits: 1, Late: 1, Early: 0, Misses: 0
62b-> Hits: 9, Late: 0, Early: 0, Misses: 0
62c-> Hits: 1, Late: 0, Early: 0, Misses: 0
62f-> Hits: 4, Late: 1, Early: 0, Misses: 0
630-> Hits: 3, Late: 0, Early: 0, Misses: 0
631-> Hits: 3, Late: 0, Early: 0, Misses: 0
634-> Hits: 2, Late: 0, Early: 0, Misses: 0
635-> Hits: 1, Late: 1, Early: 0, Misses: 0
636-> Hits: 1, Late: 1, Early: 0, Misses: 0
637-> Hits: 3, Late: 0, Early: 0, Misses: 0
638-> Hits: 3, Late: 0, Early: 0, Misses: 0
639-> Hits: 3, Late: 0, Early: 0, Misses: 0
63b-> Hits: 3, Late: 0, Early: 0, Misses: 0
63c-> Hits: 7, Late: 0, Early: 0, Misses: 0
63d-> Hits: 11, Late: 0, Early: 0, Misses: 0
63e-> Hits: 2, Late: 0, Early: 0, Misses: 0
63f-> Hits: 3, Late: 0, Early: 0, Misses: 0
640-> Hits: 2, Late: 0, Early: 0, Misses: 0
641-> Hits: 5, Late: 0, Early: 0, Misses: 0
642-> Hits: 2, Late: 0, Early: 0, Misses: 0
643-> Hits: 3, Late: 0, Early: 0, Misses: 0
644-> Hits: 2, Late: 0, Early: 0, Misses: 0
646-> Hits: 5, Late: 0, Early: 0, Misses: 0
647-> Hits: 3, Late: 0, Early: 0, Misses: 0
648-> Hits: 4, Late: 0, Early: 0, Misses: 0
64b-> Hits: 1, Late: 0, Early: 0, Misses: 0
64c-> Hits: 2, Late: 0, Early: 0, Misses: 0
64f-> Hits: 4, Late: 0, Early: 0, Misses: 0
653-> Hits: 3, Late: 0, Early: 0, Misses: 0
654-> Hits: 3, Late: 2, Early: 0, Misses: 0
655-> Hits: 1, Late: 0, Early: 0, Misses: 0
656-> Hits: 7, Late: 1, Early: 0, Misses: 0
657-> Hits: 1, Late: 0, Early: 0, Misses: 0
658-> Hits: 33, Late: 0, Early: 0, Misses: 0
659-> Hits: 9, Late: 0, Early: 0, Misses: 0
65a-> Hits: 2, Late: 0, Early: 0, Misses: 0
65b-> Hits: 2, Late: 0, Early: 0, Misses: 0
65c-> Hits: 3, Late: 0, Early: 0, Misses: 0
65d-> Hits: 55, Late: 0, Early: 0, Misses: 0
65e-> Hits: 7, Late: 0, Early: 0, Misses: 0
65f-> Hits: 1, Late: 0, Early: 0, Misses: 0
660-> Hits: 2, Late: 89, Early: 0, Misses: 0
662-> Hits: 9, Late: 0, Early: 0, Misses: 0
666-> Hits: 31, Late: 0, Early: 0, Misses: 0
667-> Hits: 34, Late: 0, Early: 0, Misses: 0
668-> Hits: 45, Late: 1, Early: 0, Misses: 0
66a-> Hits: 31, Late: 0, Early: 0, Misses: 0
66c-> Hits: 40, Late: 0, Early: 0, Misses: 0
66d-> Hits: 1, Late: 0, Early: 0, Misses: 0
66e-> Hits: 37, Late: 0, Early: 0, Misses: 0
66f-> Hits: 1, Late: 0, Early: 0, Misses: 0
670-> Hits: 50, Late: 0, Early: 0, Misses: 0
671-> Hits: 47, Late: 0, Early: 0, Misses: 0
672-> Hits: 45, Late: 0, Early: 0, Misses: 0
674-> Hits: 45, Late: 0, Early: 0, Misses: 0
678-> Hits: 1, Late: 0, Early: 0, Misses: 0
679-> Hits: 6, Late: 0, Early: 0, Misses: 0
67a-> Hits: 4, Late: 0, Early: 0, Misses: 0
67b-> Hits: 10, Late: 0, Early: 0, Misses: 0
67c-> Hits: 1, Late: 0, Early: 0, Misses: 0
67d-> Hits: 3, Late: 0, Early: 0, Misses: 0
67f-> Hits: 2, Late: 0, Early: 0, Misses: 0
680-> Hits: 12, Late: 31, Early: 0, Misses: 0
681-> Hits: 2, Late: 0, Early: 0, Misses: 0
683-> Hits: 180, Late: 1, Early: 0, Misses: 0
685-> Hits: 5, Late: 0, Early: 0, Misses: 0
686-> Hits: 10, Late: 0, Early: 0, Misses: 0
688-> Hits: 1, Late: 0, Early: 0, Misses: 0
689-> Hits: 9, Late: 0, Early: 0, Misses: 0
68a-> Hits: 17, Late: 0, Early: 0, Misses: 0
68c-> Hits: 2, Late: 0, Early: 0, Misses: 0
68d-> Hits: 6, Late: 0, Early: 0, Misses: 0
68e-> Hits: 3, Late: 0, Early: 0, Misses: 0
690-> Hits: 3, Late: 0, Early: 0, Misses: 0
693-> Hits: 1, Late: 0, Early: 0, Misses: 0
694-> Hits: 3, Late: 0, Early: 0, Misses: 0
695-> Hits: 2, Late: 0, Early: 0, Misses: 0
698-> Hits: 2, Late: 1, Early: 0, Misses: 0
69a-> Hits: 0, Late: 1, Early: 0, Misses: 0
69c-> Hits: 4, Late: 0, Early: 0, Misses: 0
69e-> Hits: 1, Late: 0, Early: 0, Misses: 0
69f-> Hits: 1, Late: 0, Early: 0, Misses: 0
6a0-> Hits: 3, Late: 0, Early: 0, Misses: 0
6a3-> Hits: 6, Late: 0, Early: 0, Misses: 0
6a4-> Hits: 9, Late: 1, Early: 0, Misses: 0
6a5-> Hits: 2, Late: 0, Early: 0, Misses: 0
6a6-> Hits: 1, Late: 0, Early: 0, Misses: 0
6a7-> Hits: 8, Late: 0, Early: 0, Misses: 0
6ac-> Hits: 1, Late: 0, Early: 0, Misses: 0
6ad-> Hits: 5, Late: 0, Early: 0, Misses: 0
6ae-> Hits: 1, Late: 0, Early: 0, Misses: 0
6af-> Hits: 2, Late: 0, Early: 0, Misses: 0
6b0-> Hits: 1, Late: 0, Early: 0, Misses: 0
6b1-> Hits: 0, Late: 1, Early: 0, Misses: 0
6b2-> Hits: 1, Late: 1, Early: 0, Misses: 0
6b3-> Hits: 5, Late: 0, Early: 0, Misses: 0
6b4-> Hits: 13, Late: 1, Early: 0, Misses: 0
6b5-> Hits: 1, Late: 30, Early: 0, Misses: 0
6b6-> Hits: 3, Late: 0, Early: 0, Misses: 0
6b7-> Hits: 9, Late: 1, Early: 0, Misses: 0
6b9-> Hits: 2, Late: 0, Early: 0, Misses: 0
6ba-> Hits: 6, Late: 0, Early: 0, Misses: 0
6bb-> Hits: 2, Late: 0, Early: 0, Misses: 0
6bc-> Hits: 2, Late: 0, Early: 0, Misses: 0
6bd-> Hits: 1, Late: 0, Early: 0, Misses: 0
6be-> Hits: 1, Late: 0, Early: 0, Misses: 0
6bf-> Hits: 1, Late: 0, Early: 0, Misses: 0
6c0-> Hits: 3, Late: 2, Early: 0, Misses: 0
6c3-> Hits: 1, Late: 1, Early: 0, Misses: 0
6c4-> Hits: 9, Late: 0, Early: 0, Misses: 0
6c5-> Hits: 1, Late: 0, Early: 0, Misses: 0
6c7-> Hits: 1, Late: 0, Early: 0, Misses: 0
6c9-> Hits: 3, Late: 0, Early: 0, Misses: 0
6ca-> Hits: 1, Late: 1, Early: 0, Misses: 0
6cc-> Hits: 1, Late: 1, Early: 0, Misses: 0
6cd-> Hits: 1, Late: 0, Early: 0, Misses: 0
6ce-> Hits: 6, Late: 1, Early: 0, Misses: 0
6d0-> Hits: 3, Late: 2, Early: 0, Misses: 0
6d1-> Hits: 2, Late: 0, Early: 0, Misses: 0
6d2-> Hits: 1, Late: 0, Early: 0, Misses: 0
6d3-> Hits: 9, Late: 0, Early: 0, Misses: 0
6d4-> Hits: 12, Late: 0, Early: 0, Misses: 0
6d5-> Hits: 11, Late: 0, Early: 0, Misses: 0
6d6-> Hits: 3, Late: 0, Early: 0, Misses: 0
6d7-> Hits: 14, Late: 0, Early: 0, Misses: 0
6d9-> Hits: 12, Late: 0, Early: 0, Misses: 0
6da-> Hits: 2, Late: 0, Early: 0, Misses: 0
6db-> Hits: 11, Late: 0, Early: 0, Misses: 0
6dc-> Hits: 1, Late: 0, Early: 0, Misses: 0
6dd-> Hits: 10, Late: 0, Early: 0, Misses: 0
6de-> Hits: 4, Late: 0, Early: 0, Misses: 0
6df-> Hits: 1, Late: 0, Early: 0, Misses: 0
6e0-> Hits: 0, Late: 1, Early: 0, Misses: 0
6e1-> Hits: 1, Late: 0, Early: 0, Misses: 0
6e2-> Hits: 3, Late: 0, Early: 0, Misses: 0
6e3-> Hits: 1, Late: 0, Early: 0, Misses: 0
6e5-> Hits: 1, Late: 0, Early: 0, Misses: 0
6e6-> Hits: 1, Late: 0, Early: 0, Misses: 0
6e7-> Hits: 2, Late: 2, Early: 0, Misses: 0
6e8-> Hits: 5, Late: 0, Early: 0, Misses: 0
6eb-> Hits: 1, Late: 3, Early: 0, Misses: 0
6ed-> Hits: 5, Late: 27, Early: 0, Misses: 0
6ee-> Hits: 1, Late: 1, Early: 0, Misses: 0
6ef-> Hits: 1, Late: 0, Early: 0, Misses: 0
6f0-> Hits: 5, Late: 6, Early: 0, Misses: 0
6f1-> Hits: 0, Late: 1, Early: 0, Misses: 0
6f2-> Hits: 4, Late: 0, Early: 0, Misses: 0
6f3-> Hits: 1, Late: 1, Early: 0, Misses: 0
6f5-> Hits: 1, Late: 0, Early: 0, Misses: 0
6f6-> Hits: 4, Late: 0, Early: 0, Misses: 0
6f8-> Hits: 2, Late: 1, Early: 0, Misses: 0
6f9-> Hits: 5, Late: 0, Early: 0, Misses: 0
6fa-> Hits: 3, Late: 0, Early: 0, Misses: 0
6fb-> Hits: 1, Late: 29, Early: 0, Misses: 0
6fc-> Hits: 3, Late: 0, Early: 0, Misses: 0
6fe-> Hits: 5, Late: 0, Early: 0, Misses: 0
700-> Hits: 6, Late: 0, Early: 0, Misses: 0
701-> Hits: 0, Late: 1, Early: 0, Misses: 0
702-> Hits: 4, Late: 0, Early: 0, Misses: 0
703-> Hits: 4, Late: 0, Early: 0, Misses: 0
706-> Hits: 4, Late: 0, Early: 0, Misses: 0
708-> Hits: 1, Late: 1, Early: 0, Misses: 0
709-> Hits: 0, Late: 2, Early: 0, Misses: 0
70a-> Hits: 1, Late: 0, Early: 0, Misses: 0
70b-> Hits: 4, Late: 1, Early: 0, Misses: 0
70d-> Hits: 5, Late: 3, Early: 0, Misses: 0
70e-> Hits: 3, Late: 0, Early: 0, Misses: 0
70f-> Hits: 1, Late: 0, Early: 0, Misses: 0
710-> Hits: 0, Late: 1, Early: 0, Misses: 0
711-> Hits: 2, Late: 0, Early: 0, Misses: 0
713-> Hits: 1, Late: 0, Early: 0, Misses: 0
716-> Hits: 3, Late: 0, Early: 0, Misses: 0
718-> Hits: 3, Late: 0, Early: 0, Misses: 0
719-> Hits: 4, Late: 0, Early: 0, Misses: 0
71b-> Hits: 20, Late: 0, Early: 0, Misses: 0
71d-> Hits: 1, Late: 0, Early: 0, Misses: 0
71e-> Hits: 4, Late: 0, Early: 0, Misses: 0
720-> Hits: 5, Late: 1, Early: 0, Misses: 0
721-> Hits: 1, Late: 0, Early: 0, Misses: 0
722-> Hits: 3, Late: 0, Early: 0, Misses: 0
723-> Hits: 7, Late: 2, Early: 0, Misses: 0
724-> Hits: 2, Late: 0, Early: 0, Misses: 0
725-> Hits: 1, Late: 0, Early: 0, Misses: 0
726-> Hits: 2, Late: 0, Early: 0, Misses: 0
727-> Hits: 1, Late: 0, Early: 0, Misses: 0
729-> Hits: 5, Late: 30, Early: 0, Misses: 0
72b-> Hits: 4, Late: 0, Early: 0, Misses: 0
72c-> Hits: 3, Late: 0, Early: 0, Misses: 0
72d-> Hits: 3, Late: 0, Early: 0, Misses: 0
72e-> Hits: 1, Late: 0, Early: 0, Misses: 0
72f-> Hits: 1, Late: 0, Early: 0, Misses: 0
730-> Hits: 4, Late: 0, Early: 0, Misses: 0
733-> Hits: 5, Late: 1, Early: 0, Misses: 0
734-> Hits: 1, Late: 0, Early: 0, Misses: 0
736-> Hits: 1, Late: 0, Early: 0, Misses: 0
737-> Hits: 15, Late: 29, Early: 0, Misses: 0
73a-> Hits: 2, Late: 0, Early: 0, Misses: 0
73c-> Hits: 3, Late: 0, Early: 0, Misses: 0
73e-> Hits: 5, Late: 1, Early: 0, Misses: 0
740-> Hits: 5, Late: 1, Early: 0, Misses: 0
741-> Hits: 4, Late: 0, Early: 0, Misses: 0
742-> Hits: 1, Late: 0, Early: 0, Misses: 0
744-> Hits: 6, Late: 0, Early: 0, Misses: 0
745-> Hits: 2, Late: 0, Early: 0, Misses: 0
747-> Hits: 2, Late: 0, Early: 0, Misses: 0
748-> Hits: 1, Late: 0, Early: 0, Misses: 0
74b-> Hits: 1, Late: 2, Early: 0, Misses: 0
74c-> Hits: 1, Late: 0, Early: 0, Misses: 0
74e-> Hits: 3, Late: 0, Early: 0, Misses: 0
74f-> Hits: 2, Late: 0, Early: 0, Misses: 0
750-> Hits: 4, Late: 0, Early: 0, Misses: 0
751-> Hits: 4, Late: 0, Early: 0, Misses: 0
752-> Hits: 5, Late: 0, Early: 0, Misses: 0
753-> Hits: 2, Late: 0, Early: 0, Misses: 0
754-> Hits: 5, Late: 0, Early: 0, Misses: 0
755-> Hits: 3, Late: 0, Early: 0, Misses: 0
756-> Hits: 4, Late: 0, Early: 0, Misses: 0
758-> Hits: 4, Late: 0, Early: 0, Misses: 0
75a-> Hits: 5, Late: 1, Early: 0, Misses: 0
75b-> Hits: 4, Late: 0, Early: 0, Misses: 0
75c-> Hits: 5, Late: 2, Early: 0, Misses: 0
75d-> Hits: 1, Late: 0, Early: 0, Misses: 0
75f-> Hits: 1, Late: 0, Early: 0, Misses: 0
760-> Hits: 4, Late: 0, Early: 0, Misses: 0
761-> Hits: 5, Late: 0, Early: 0, Misses: 0
762-> Hits: 1, Late: 0, Early: 0, Misses: 0
763-> Hits: 1, Late: 0, Early: 0, Misses: 0
765-> Hits: 1, Late: 0, Early: 0, Misses: 0
766-> Hits: 2, Late: 2, Early: 0, Misses: 0
768-> Hits: 6, Late: 0, Early: 0, Misses: 0
76a-> Hits: 1, Late: 0, Early: 0, Misses: 0
76b-> Hits: 1, Late: 1, Early: 0, Misses: 0
76c-> Hits: 2, Late: 0, Early: 0, Misses: 0
76f-> Hits: 1, Late: 0, Early: 0, Misses: 0
770-> Hits: 2, Late: 2, Early: 0, Misses: 0
771-> Hits: 1, Late: 0, Early: 0, Misses: 0
772-> Hits: 1, Late: 1, Early: 0, Misses: 0
774-> Hits: 7, Late: 0, Early: 0, Misses: 0
775-> Hits: 3, Late: 2, Early: 0, Misses: 0
776-> Hits: 1, Late: 0, Early: 0, Misses: 0
77a-> Hits: 1, Late: 1, Early: 0, Misses: 0
77c-> Hits: 4, Late: 0, Early: 0, Misses: 0
77e-> Hits: 1, Late: 0, Early: 0, Misses: 0
780-> Hits: 5, Late: 3, Early: 0, Misses: 0
781-> Hits: 2, Late: 0, Early: 0, Misses: 0
783-> Hits: 1, Late: 0, Early: 0, Misses: 0
784-> Hits: 5, Late: 1, Early: 0, Misses: 0
785-> Hits: 18, Late: 0, Early: 0, Misses: 0
78a-> Hits: 3, Late: 0, Early: 0, Misses: 0
78b-> Hits: 1, Late: 1, Early: 0, Misses: 0
78f-> Hits: 1, Late: 0, Early: 0, Misses: 0
790-> Hits: 1, Late: 2, Early: 0, Misses: 0
792-> Hits: 10, Late: 0, Early: 0, Misses: 0
793-> Hits: 10, Late: 0, Early: 0, Misses: 0
794-> Hits: 4, Late: 0, Early: 0, Misses: 0
796-> Hits: 4, Late: 0, Early: 0, Misses: 0
797-> Hits: 1, Late: 0, Early: 0, Misses: 0
798-> Hits: 3, Late: 0, Early: 0, Misses: 0
79a-> Hits: 3, Late: 0, Early: 0, Misses: 0
79b-> Hits: 1, Late: 1, Early: 0, Misses: 0
79c-> Hits: 3, Late: 0, Early: 0, Misses: 0
79f-> Hits: 2, Late: 1, Early: 0, Misses: 0
7a0-> Hits: 2, Late: 1, Early: 0, Misses: 0
7a6-> Hits: 14, Late: 0, Early: 0, Misses: 0
7a7-> Hits: 3, Late: 0, Early: 0, Misses: 0
7a8-> Hits: 3, Late: 0, Early: 0, Misses: 0
7aa-> Hits: 2, Late: 0, Early: 0, Misses: 0
7ab-> Hits: 3, Late: 0, Early: 0, Misses: 0
7ac-> Hits: 1, Late: 0, Early: 0, Misses: 0
7af-> Hits: 2, Late: 0, Early: 0, Misses: 0
7b0-> Hits: 4, Late: 0, Early: 0, Misses: 0
7b1-> Hits: 0, Late: 1, Early: 0, Misses: 0
7b4-> Hits: 1, Late: 0, Early: 0, Misses: 0
7b5-> Hits: 10, Late: 2, Early: 0, Misses: 0
7b8-> Hits: 2, Late: 0, Early: 0, Misses: 0
7b9-> Hits: 3, Late: 0, Early: 0, Misses: 0
7ba-> Hits: 8, Late: 0, Early: 0, Misses: 0
7bc-> Hits: 11, Late: 0, Early: 0, Misses: 0
7c1-> Hits: 1, Late: 0, Early: 0, Misses: 0
7c3-> Hits: 1, Late: 0, Early: 0, Misses: 0
7c8-> Hits: 48, Late: 1, Early: 0, Misses: 0
7d0-> Hits: 2, Late: 2, Early: 0, Misses: 0
7d4-> Hits: 4, Late: 0, Early: 0, Misses: 0
7d6-> Hits: 3, Late: 0, Early: 0, Misses: 0
7d7-> Hits: 12, Late: 0, Early: 0, Misses: 0
7d9-> Hits: 3, Late: 0, Early: 0, Misses: 0
7db-> Hits: 3, Late: 0, Early: 0, Misses: 0
7dd-> Hits: 7, Late: 0, Early: 0, Misses: 0
7de-> Hits: 2, Late: 1, Early: 0, Misses: 0
7df-> Hits: 8, Late: 2, Early: 0, Misses: 0
7e0-> Hits: 4101, Late: 3, Early: 0, Misses: 0
7e1-> Hits: 11, Late: 0, Early: 0, Misses: 0
7e2-> Hits: 5, Late: 1, Early: 0, Misses: 0
7e4-> Hits: 1, Late: 0, Early: 0, Misses: 0
7e5-> Hits: 4, Late: 6, Early: 0, Misses: 0
7e6-> Hits: 2, Late: 0, Early: 0, Misses: 0
7e7-> Hits: 4097, Late: 0, Early: 0, Misses: 0
7e8-> Hits: 1, Late: 0, Early: 0, Misses: 0
7e9-> Hits: 5, Late: 0, Early: 0, Misses: 0
7ea-> Hits: 0, Late: 1, Early: 0, Misses: 0
7eb-> Hits: 3, Late: 0, Early: 0, Misses: 0
7ec-> Hits: 3, Late: 0, Early: 0, Misses: 0
7ed-> Hits: 1, Late: 0, Early: 0, Misses: 0
7ee-> Hits: 3, Late: 0, Early: 0, Misses: 1
7ef-> Hits: 1, Late: 1, Early: 0, Misses: 0
7f0-> Hits: 7, Late: 2, Early: 0, Misses: 0
7f2-> Hits: 2, Late: 0, Early: 0, Misses: 0
7f3-> Hits: 8, Late: 0, Early: 0, Misses: 0
7f4-> Hits: 53, Late: 0, Early: 0, Misses: 0
7f6-> Hits: 1, Late: 0, Early: 0, Misses: 0
7f7-> Hits: 1, Late: 0, Early: 0, Misses: 0
7f8-> Hits: 55, Late: 0, Early: 0, Misses: 0
7fa-> Hits: 10, Late: 1, Early: 0, Misses: 0
7fb-> Hits: 4, Late: 1, Early: 0, Misses: 0
7fc-> Hits: 3, Late: 0, Early: 0, Misses: 0
7fd-> Hits: 2, Late: 0, Early: 0, Misses: 0
7ff-> Hits: 2, Late: 0, Early: 0, Misses: 0
800-> Hits: 4, Late: 0, Early: 0, Misses: 0
801-> Hits: 5, Late: 1, Early: 0, Misses: 0
803-> Hits: 0, Late: 1, Early: 0, Misses: 0
804-> Hits: 3, Late: 0, Early: 0, Misses: 0
805-> Hits: 1, Late: 30, Early: 0, Misses: 0
808-> Hits: 2, Late: 1, Early: 0, Misses: 0
809-> Hits: 9, Late: 0, Early: 0, Misses: 0
80a-> Hits: 11, Late: 0, Early: 0, Misses: 0
810-> Hits: 3, Late: 1, Early: 0, Misses: 0
811-> Hits: 1, Late: 0, Early: 0, Misses: 0
812-> Hits: 4100, Late: 0, Early: 0, Misses: 0
813-> Hits: 4, Late: 0, Early: 0, Misses: 0
814-> Hits: 30, Late: 0, Early: 0, Misses: 0
815-> Hits: 4, Late: 0, Early: 0, Misses: 0
816-> Hits: 33, Late: 0, Early: 0, Misses: 0
819-> Hits: 2, Late: 0, Early: 0, Misses: 0
81a-> Hits: 5, Late: 0, Early: 0, Misses: 0
81c-> Hits: 1, Late: 0, Early: 0, Misses: 0
81d-> Hits: 4, Late: 1, Early: 0, Misses: 0
81e-> Hits: 14, Late: 0, Early: 0, Misses: 0
81f-> Hits: 5, Late: 0, Early: 0, Misses: 0
820-> Hits: 11, Late: 3, Early: 0, Misses: 0
821-> Hits: 10, Late: 0, Early: 0, Misses: 0
822-> Hits: 4, Late: 0, Early: 0, Misses: 0
823-> Hits: 1, Late: 0, Early: 0, Misses: 0
824-> Hits: 4, Late: 0, Early: 0, Misses: 0
825-> Hits: 4, Late: 0, Early: 0, Misses: 1
826-> Hits: 6, Late: 0, Early: 0, Misses: 0
827-> Hits: 3, Late: 0, Early: 0, Misses: 0
828-> Hits: 9, Late: 0, Early: 0, Misses: 0
829-> Hits: 2, Late: 0, Early: 0, Misses: 0
82a-> Hits: 4, Late: 30, Early: 0, Misses: 0
82b-> Hits: 2, Late: 0, Early: 0, Misses: 0
82c-> Hits: 4, Late: 0, Early: 0, Misses: 0
82d-> Hits: 4, Late: 0, Early: 0, Misses: 0
82e-> Hits: 4, Late: 0, Early: 0, Misses: 0
82f-> Hits: 8, Late: 0, Early: 0, Misses: 0
830-> Hits: 125998, Late: 988, Early: 0, Misses: 0
831-> Hits: 32, Late: 1, Early: 0, Misses: 0
832-> Hits: 4, Late: 0, Early: 0, Misses: 0
834-> Hits: 4, Late: 0, Early: 0, Misses: 0
835-> Hits: 31, Late: 0, Early: 0, Misses: 0
836-> Hits: 4, Late: 0, Early: 0, Misses: 0
838-> Hits: 4, Late: 2, Early: 0, Misses: 0
839-> Hits: 6, Late: 0, Early: 0, Misses: 0
83a-> Hits: 5, Late: 0, Early: 0, Misses: 0
83c-> Hits: 2, Late: 0, Early: 0, Misses: 0
83d-> Hits: 1, Late: 1, Early: 0, Misses: 0
83e-> Hits: 1, Late: 0, Early: 0, Misses: 0
840-> Hits: 1, Late: 0, Early: 0, Misses: 0
841-> Hits: 2, Late: 0, Early: 0, Misses: 0
842-> Hits: 3, Late: 0, Early: 0, Misses: 0
844-> Hits: 5, Late: 0, Early: 0, Misses: 0
847-> Hits: 6, Late: 0, Early: 0, Misses: 0
849-> Hits: 5, Late: 0, Early: 0, Misses: 0
84a-> Hits: 2, Late: 0, Early: 0, Misses: 0
84b-> Hits: 36, Late: 0, Early: 0, Misses: 0
[...]
da6-> Hits: 5, Late: 5, Early: 0, Misses: 0
da7-> Hits: 3, Late: 0, Early: 0, Misses: 0
da8-> Hits: 2, Late: 0, Early: 0, Misses: 0
da9-> Hits: 1, Late: 0, Early: 0, Misses: 0
daa-> Hits: 1, Late: 0, Early: 0, Misses: 0
dab-> Hits: 3, Late: 0, Early: 0, Misses: 0
dac-> Hits: 10, Late: 0, Early: 0, Misses: 0
dad-> Hits: 14, Late: 0, Early: 0, Misses: 0
dae-> Hits: 1, Late: 0, Early: 0, Misses: 0
daf-> Hits: 3, Late: 0, Early: 0, Misses: 0
db0-> Hits: 6, Late: 4, Early: 0, Misses: 0
db1-> Hits: 17, Late: 2296, Early: 0, Misses: 0
db3-> Hits: 2, Late: 0, Early: 0, Misses: 0
db5-> Hits: 3, Late: 0, Early: 0, Misses: 0
db7-> Hits: 3, Late: 0, Early: 0, Misses: 0
db8-> Hits: 3, Late: 0, Early: 0, Misses: 0
db9-> Hits: 2, Late: 0, Early: 0, Misses: 0
dba-> Hits: 2, Late: 26, Early: 0, Misses: 0
dbb-> Hits: 2, Late: 0, Early: 0, Misses: 0
dbc-> Hits: 1, Late: 0, Early: 0, Misses: 0
dbd-> Hits: 1, Late: 0, Early: 0, Misses: 0
dbe-> Hits: 5, Late: 0, Early: 0, Misses: 0
dbf-> Hits: 7, Late: 1, Early: 0, Misses: 0
dc0-> Hits: 19, Late: 5, Early: 0, Misses: 0
dc1-> Hits: 7, Late: 934, Early: 0, Misses: 0
dc2-> Hits: 3, Late: 2, Early: 0, Misses: 0
dc3-> Hits: 4, Late: 0, Early: 0, Misses: 0
dc7-> Hits: 11, Late: 1, Early: 0, Misses: 0
dc8-> Hits: 3, Late: 1, Early: 0, Misses: 0
dca-> Hits: 3, Late: 0, Early: 0, Misses: 0
dcb-> Hits: 6, Late: 0, Early: 0, Misses: 0
dcc-> Hits: 36, Late: 2, Early: 0, Misses: 0
dcd-> Hits: 36, Late: 0, Early: 0, Misses: 0
dcf-> Hits: 30, Late: 0, Early: 0, Misses: 0
dd1-> Hits: 46, Late: 1365, Early: 0, Misses: 0
dd2-> Hits: 1, Late: 2, Early: 0, Misses: 0
dd3-> Hits: 34, Late: 0, Early: 0, Misses: 0
dd5-> Hits: 2, Late: 0, Early: 0, Misses: 0
dd6-> Hits: 4, Late: 0, Early: 0, Misses: 0
dd8-> Hits: 36, Late: 0, Early: 0, Misses: 0
dd9-> Hits: 30, Late: 0, Early: 0, Misses: 0
dda-> Hits: 4, Late: 0, Early: 0, Misses: 0
ddc-> Hits: 5, Late: 0, Early: 0, Misses: 0
dde-> Hits: 4, Late: 0, Early: 0, Misses: 0
ddf-> Hits: 4, Late: 0, Early: 0, Misses: 0
de0-> Hits: 3, Late: 0, Early: 0, Misses: 0
de2-> Hits: 2, Late: 0, Early: 0, Misses: 0
de3-> Hits: 3, Late: 0, Early: 0, Misses: 0
de4-> Hits: 2, Late: 0, Early: 0, Misses: 0
de7-> Hits: 1, Late: 0, Early: 0, Misses: 0
deb-> Hits: 1, Late: 0, Early: 0, Misses: 0
dec-> Hits: 1, Late: 0, Early: 0, Misses: 0
ded-> Hits: 5, Late: 0, Early: 0, Misses: 0
dee-> Hits: 9, Late: 25, Early: 0, Misses: 0
def-> Hits: 5, Late: 0, Early: 0, Misses: 0
df0-> Hits: 1, Late: 0, Early: 0, Misses: 0
df1-> Hits: 17, Late: 0, Early: 0, Misses: 0
df2-> Hits: 3, Late: 0, Early: 0, Misses: 0
df3-> Hits: 6, Late: 0, Early: 0, Misses: 0
df4-> Hits: 1, Late: 0, Early: 0, Misses: 0
df5-> Hits: 6, Late: 0, Early: 0, Misses: 0
df7-> Hits: 7, Late: 0, Early: 0, Misses: 0
df8-> Hits: 1, Late: 0, Early: 0, Misses: 0
df9-> Hits: 2, Late: 0, Early: 0, Misses: 0
dfb-> Hits: 1, Late: 0, Early: 0, Misses: 0
dfd-> Hits: 3, Late: 0, Early: 0, Misses: 0
e00-> Hits: 6, Late: 0, Early: 0, Misses: 0
e01-> Hits: 2, Late: 0, Early: 0, Misses: 0
e02-> Hits: 3, Late: 0, Early: 0, Misses: 0
e03-> Hits: 1, Late: 0, Early: 0, Misses: 0
e05-> Hits: 3, Late: 1, Early: 0, Misses: 0
e06-> Hits: 3, Late: 0, Early: 0, Misses: 0
e07-> Hits: 0, Late: 30, Early: 0, Misses: 0
e0f-> Hits: 2, Late: 30, Early: 0, Misses: 0
e10-> Hits: 3, Late: 0, Early: 0, Misses: 0
e12-> Hits: 6, Late: 0, Early: 0, Misses: 0
e13-> Hits: 7, Late: 0, Early: 0, Misses: 0
e14-> Hits: 2, Late: 0, Early: 0, Misses: 0
e15-> Hits: 2, Late: 0, Early: 0, Misses: 0
e16-> Hits: 2, Late: 0, Early: 0, Misses: 0
e17-> Hits: 1, Late: 0, Early: 0, Misses: 0
e18-> Hits: 4, Late: 0, Early: 0, Misses: 0
e19-> Hits: 33, Late: 0, Early: 0, Misses: 0
e1a-> Hits: 2, Late: 0, Early: 0, Misses: 0
e1b-> Hits: 31, Late: 0, Early: 0, Misses: 0
e1c-> Hits: 5, Late: 0, Early: 0, Misses: 0
e1d-> Hits: 0, Late: 3, Early: 0, Misses: 0
e1e-> Hits: 0, Late: 31, Early: 0, Misses: 0
e20-> Hits: 14, Late: 2, Early: 0, Misses: 0
e22-> Hits: 3, Late: 0, Early: 0, Misses: 0
e23-> Hits: 5, Late: 31, Early: 0, Misses: 0
e25-> Hits: 1, Late: 0, Early: 0, Misses: 0
e26-> Hits: 2, Late: 0, Early: 0, Misses: 0
e28-> Hits: 8, Late: 31, Early: 0, Misses: 0
e29-> Hits: 31, Late: 0, Early: 0, Misses: 0
e2a-> Hits: 2, Late: 1, Early: 0, Misses: 0
e2c-> Hits: 1, Late: 31, Early: 0, Misses: 0
e2d-> Hits: 2, Late: 0, Early: 0, Misses: 0
e2f-> Hits: 2, Late: 0, Early: 0, Misses: 0
e30-> Hits: 18, Late: 0, Early: 0, Misses: 0
e31-> Hits: 0, Late: 31, Early: 0, Misses: 0
e33-> Hits: 3, Late: 0, Early: 0, Misses: 0
e34-> Hits: 1, Late: 0, Early: 0, Misses: 0
e35-> Hits: 16, Late: 0, Early: 0, Misses: 0
e36-> Hits: 2, Late: 0, Early: 0, Misses: 0
e38-> Hits: 1, Late: 0, Early: 0, Misses: 0
e39-> Hits: 5, Late: 29, Early: 0, Misses: 0
e3a-> Hits: 1, Late: 0, Early: 0, Misses: 0
e3b-> Hits: 0, Late: 1, Early: 0, Misses: 0
e3c-> Hits: 6, Late: 1, Early: 0, Misses: 0
e3d-> Hits: 14, Late: 3, Early: 0, Misses: 0
e3e-> Hits: 2, Late: 0, Early: 0, Misses: 0
e3f-> Hits: 1, Late: 0, Early: 0, Misses: 0
e40-> Hits: 6, Late: 1, Early: 0, Misses: 0
e41-> Hits: 3, Late: 31, Early: 0, Misses: 0
e42-> Hits: 2, Late: 0, Early: 0, Misses: 0
e43-> Hits: 1, Late: 0, Early: 0, Misses: 0
e44-> Hits: 3, Late: 0, Early: 0, Misses: 0
e45-> Hits: 1, Late: 1, Early: 0, Misses: 0
e47-> Hits: 2, Late: 0, Early: 0, Misses: 0
e48-> Hits: 3, Late: 0, Early: 0, Misses: 0
e49-> Hits: 0, Late: 31, Early: 0, Misses: 0
e4a-> Hits: 1, Late: 0, Early: 0, Misses: 0
e4c-> Hits: 1, Late: 1, Early: 0, Misses: 0
e4d-> Hits: 3, Late: 0, Early: 0, Misses: 0
e4f-> Hits: 2, Late: 0, Early: 0, Misses: 0
e50-> Hits: 0, Late: 3, Early: 0, Misses: 0
e51-> Hits: 2, Late: 0, Early: 0, Misses: 0
e54-> Hits: 1, Late: 0, Early: 0, Misses: 0
e55-> Hits: 3, Late: 0, Early: 0, Misses: 0
e57-> Hits: 8, Late: 0, Early: 0, Misses: 0
e58-> Hits: 2, Late: 0, Early: 0, Misses: 0
e59-> Hits: 20, Late: 0, Early: 0, Misses: 0
e5a-> Hits: 22, Late: 0, Early: 0, Misses: 0
e5b-> Hits: 22, Late: 0, Early: 0, Misses: 0
e5c-> Hits: 2, Late: 0, Early: 0, Misses: 0
e5d-> Hits: 20, Late: 0, Early: 0, Misses: 0
e5e-> Hits: 6, Late: 0, Early: 0, Misses: 0
e5f-> Hits: 20, Late: 0, Early: 0, Misses: 0
e60-> Hits: 6, Late: 2, Early: 0, Misses: 0
e61-> Hits: 22, Late: 0, Early: 0, Misses: 0
e62-> Hits: 2, Late: 0, Early: 0, Misses: 0
e63-> Hits: 26, Late: 0, Early: 0, Misses: 0
e64-> Hits: 0, Late: 1, Early: 0, Misses: 0
e65-> Hits: 6, Late: 0, Early: 0, Misses: 0
e68-> Hits: 2, Late: 0, Early: 0, Misses: 0
e6b-> Hits: 1, Late: 0, Early: 0, Misses: 0
e6c-> Hits: 1, Late: 0, Early: 0, Misses: 0
e6f-> Hits: 2, Late: 0, Early: 0, Misses: 0
e70-> Hits: 4, Late: 2, Early: 0, Misses: 0
e71-> Hits: 6, Late: 0, Early: 0, Misses: 0
e72-> Hits: 37, Late: 0, Early: 0, Misses: 0
e73-> Hits: 2, Late: 0, Early: 0, Misses: 0
e74-> Hits: 5, Late: 0, Early: 0, Misses: 0
e75-> Hits: 6, Late: 0, Early: 0, Misses: 0
e76-> Hits: 6, Late: 0, Early: 0, Misses: 0
e77-> Hits: 1, Late: 0, Early: 0, Misses: 0
e79-> Hits: 2, Late: 0, Early: 0, Misses: 0
e7a-> Hits: 1, Late: 0, Early: 0, Misses: 0
e7b-> Hits: 1, Late: 0, Early: 0, Misses: 0
e7d-> Hits: 19, Late: 11, Early: 0, Misses: 0
e7e-> Hits: 0, Late: 30, Early: 0, Misses: 0
e7f-> Hits: 33, Late: 0, Early: 0, Misses: 0
e80-> Hits: 1, Late: 0, Early: 0, Misses: 0
e81-> Hits: 36, Late: 0, Early: 0, Misses: 0
e82-> Hits: 3, Late: 0, Early: 0, Misses: 0
e83-> Hits: 32, Late: 0, Early: 0, Misses: 0
e84-> Hits: 32, Late: 0, Early: 0, Misses: 0
e85-> Hits: 30, Late: 0, Early: 0, Misses: 0
e86-> Hits: 2, Late: 0, Early: 0, Misses: 0
e87-> Hits: 30, Late: 0, Early: 0, Misses: 0
e88-> Hits: 33, Late: 0, Early: 0, Misses: 0
e8a-> Hits: 3, Late: 0, Early: 0, Misses: 0
e8b-> Hits: 2, Late: 0, Early: 0, Misses: 0
e8d-> Hits: 1, Late: 0, Early: 0, Misses: 0
e90-> Hits: 2, Late: 0, Early: 0, Misses: 0
e91-> Hits: 2, Late: 0, Early: 0, Misses: 0
e92-> Hits: 4, Late: 0, Early: 0, Misses: 0
e94-> Hits: 4, Late: 0, Early: 0, Misses: 0
e95-> Hits: 1, Late: 0, Early: 0, Misses: 0
e96-> Hits: 1, Late: 0, Early: 0, Misses: 0
e97-> Hits: 2, Late: 0, Early: 0, Misses: 0
e98-> Hits: 2, Late: 0, Early: 0, Misses: 0
e99-> Hits: 32, Late: 0, Early: 0, Misses: 0
e9a-> Hits: 2, Late: 0, Early: 0, Misses: 0
e9b-> Hits: 1, Late: 0, Early: 0, Misses: 0
e9d-> Hits: 1, Late: 0, Early: 0, Misses: 0
e9f-> Hits: 1, Late: 0, Early: 0, Misses: 0
ea0-> Hits: 2, Late: 1, Early: 0, Misses: 0
ea1-> Hits: 4, Late: 0, Early: 0, Misses: 0
ea2-> Hits: 2, Late: 0, Early: 0, Misses: 0
ea5-> Hits: 1, Late: 0, Early: 0, Misses: 0
ea6-> Hits: 0, Late: 1, Early: 0, Misses: 0
ea7-> Hits: 1, Late: 0, Early: 0, Misses: 0
ea8-> Hits: 1, Late: 0, Early: 0, Misses: 0
ea9-> Hits: 3, Late: 0, Early: 0, Misses: 0
eaa-> Hits: 1, Late: 0, Early: 0, Misses: 0
eab-> Hits: 7, Late: 0, Early: 0, Misses: 0
eac-> Hits: 1, Late: 0, Early: 0, Misses: 0
eaf-> Hits: 0, Late: 1, Early: 0, Misses: 0
eb0-> Hits: 49949, Late: 33176, Early: 0, Misses: 0
eb3-> Hits: 1, Late: 0, Early: 0, Misses: 0
eb4-> Hits: 1, Late: 0, Early: 0, Misses: 0
eb5-> Hits: 63752, Late: 16201, Early: 0, Misses: 0
eb6-> Hits: 4, Late: 1, Early: 0, Misses: 0
eb8-> Hits: 1, Late: 0, Early: 0, Misses: 0
eba-> Hits: 52166, Late: 30916, Early: 0, Misses: 0
ebc-> Hits: 3, Late: 0, Early: 0, Misses: 0
ebd-> Hits: 1, Late: 0, Early: 0, Misses: 0
ebe-> Hits: 2, Late: 0, Early: 0, Misses: 0
ebf-> Hits: 2, Late: 1, Early: 0, Misses: 0
ec0-> Hits: 62285, Late: 18893, Early: 0, Misses: 0
ec1-> Hits: 13, Late: 0, Early: 0, Misses: 0
ec2-> Hits: 2, Late: 0, Early: 0, Misses: 0
ec3-> Hits: 2, Late: 0, Early: 0, Misses: 0
ec4-> Hits: 1, Late: 1, Early: 0, Misses: 0
ec5-> Hits: 5, Late: 0, Early: 0, Misses: 0
ec6-> Hits: 42684, Late: 40196, Early: 0, Misses: 0
ec7-> Hits: 1, Late: 1, Early: 0, Misses: 0
ec8-> Hits: 1, Late: 0, Early: 0, Misses: 0
eca-> Hits: 1, Late: 0, Early: 0, Misses: 0
ecb-> Hits: 0, Late: 1, Early: 0, Misses: 0
ecc-> Hits: 58970, Late: 22054, Early: 0, Misses: 0
ecd-> Hits: 1, Late: 0, Early: 0, Misses: 0
ece-> Hits: 0, Late: 1, Early: 0, Misses: 0
ecf-> Hits: 1, Late: 0, Early: 0, Misses: 0
ed0-> Hits: 3, Late: 0, Early: 0, Misses: 0
ed1-> Hits: 33, Late: 1, Early: 0, Misses: 0
ed2-> Hits: 31071, Late: 49363, Early: 0, Misses: 0
ed3-> Hits: 2, Late: 0, Early: 0, Misses: 0
ed5-> Hits: 5, Late: 1, Early: 0, Misses: 0
ed6-> Hits: 2, Late: 0, Early: 0, Misses: 0
ed7-> Hits: 3, Late: 0, Early: 0, Misses: 0
ed8-> Hits: 53201, Late: 27461, Early: 0, Misses: 0
ed9-> Hits: 6, Late: 0, Early: 0, Misses: 0
edb-> Hits: 2, Late: 0, Early: 0, Misses: 0
edc-> Hits: 3, Late: 0, Early: 0, Misses: 0
edd-> Hits: 0, Late: 1, Early: 0, Misses: 0
edf-> Hits: 0, Late: 1, Early: 0, Misses: 0
ee0-> Hits: 6, Late: 32, Early: 0, Misses: 0
ee1-> Hits: 6, Late: 31, Early: 0, Misses: 0
ee2-> Hits: 4, Late: 0, Early: 0, Misses: 0
ee3-> Hits: 5, Late: 0, Early: 0, Misses: 0
ee4-> Hits: 8, Late: 0, Early: 0, Misses: 0
ee5-> Hits: 5, Late: 0, Early: 0, Misses: 0
ee7-> Hits: 5, Late: 0, Early: 0, Misses: 0
ee8-> Hits: 2, Late: 0, Early: 0, Misses: 0
ee9-> Hits: 6, Late: 0, Early: 0, Misses: 0
eea-> Hits: 5, Late: 0, Early: 0, Misses: 0
eeb-> Hits: 2, Late: 0, Early: 0, Misses: 0
eec-> Hits: 2, Late: 0, Early: 0, Misses: 0
eed-> Hits: 2, Late: 0, Early: 0, Misses: 0
eee-> Hits: 2, Late: 0, Early: 0, Misses: 0
eef-> Hits: 16, Late: 0, Early: 0, Misses: 0
ef0-> Hits: 5, Late: 0, Early: 0, Misses: 0
ef1-> Hits: 2, Late: 0, Early: 0, Misses: 0
ef2-> Hits: 3, Late: 0, Early: 0, Misses: 0
ef3-> Hits: 1, Late: 0, Early: 0, Misses: 0
ef4-> Hits: 11, Late: 0, Early: 0, Misses: 0
ef5-> Hits: 1, Late: 0, Early: 0, Misses: 0
ef6-> Hits: 2, Late: 0, Early: 0, Misses: 0
ef7-> Hits: 2, Late: 0, Early: 0, Misses: 0
ef8-> Hits: 3, Late: 2, Early: 0, Misses: 0
ef9-> Hits: 1, Late: 0, Early: 0, Misses: 0
efa-> Hits: 8, Late: 0, Early: 0, Misses: 0
efb-> Hits: 5, Late: 0, Early: 0, Misses: 0
efc-> Hits: 4, Late: 0, Early: 0, Misses: 0
efd-> Hits: 2, Late: 0, Early: 0, Misses: 0
efe-> Hits: 30281, Late: 63837, Early: 0, Misses: 0
eff-> Hits: 6, Late: 0, Early: 0, Misses: 0
f00-> Hits: 4, Late: 0, Early: 0, Misses: 0
f01-> Hits: 4, Late: 0, Early: 0, Misses: 0
f02-> Hits: 4, Late: 0, Early: 0, Misses: 0
f03-> Hits: 2, Late: 0, Early: 0, Misses: 0
f04-> Hits: 6, Late: 0, Early: 0, Misses: 0
f05-> Hits: 3, Late: 0, Early: 0, Misses: 0
f06-> Hits: 8, Late: 0, Early: 0, Misses: 0
f07-> Hits: 2, Late: 0, Early: 0, Misses: 0
f08-> Hits: 4, Late: 0, Early: 0, Misses: 0
f09-> Hits: 9, Late: 0, Early: 0, Misses: 0
f0b-> Hits: 2, Late: 0, Early: 0, Misses: 0
f0c-> Hits: 4, Late: 4, Early: 0, Misses: 0
f0d-> Hits: 2, Late: 0, Early: 0, Misses: 0
f10-> Hits: 37, Late: 4, Early: 0, Misses: 0
f13-> Hits: 32, Late: 0, Early: 0, Misses: 0
f15-> Hits: 1, Late: 0, Early: 0, Misses: 0
f16-> Hits: 5, Late: 0, Early: 0, Misses: 0
f17-> Hits: 38, Late: 0, Early: 0, Misses: 0
f18-> Hits: 1, Late: 0, Early: 0, Misses: 0
f19-> Hits: 5, Late: 1, Early: 0, Misses: 0
f1c-> Hits: 1, Late: 0, Early: 0, Misses: 0
f1e-> Hits: 2, Late: 0, Early: 0, Misses: 1
f20-> Hits: 302, Late: 194, Early: 0, Misses: 0
f21-> Hits: 12, Late: 0, Early: 0, Misses: 0
f22-> Hits: 8, Late: 0, Early: 0, Misses: 0
f23-> Hits: 31, Late: 0, Early: 0, Misses: 0
f24-> Hits: 36, Late: 0, Early: 0, Misses: 0
f25-> Hits: 457, Late: 33, Early: 0, Misses: 0
f26-> Hits: 1, Late: 0, Early: 0, Misses: 0
f27-> Hits: 8, Late: 0, Early: 0, Misses: 0
f28-> Hits: 3, Late: 0, Early: 0, Misses: 0
f29-> Hits: 4, Late: 0, Early: 0, Misses: 0
f2a-> Hits: 313, Late: 189, Early: 0, Misses: 0
f2b-> Hits: 31, Late: 1, Early: 0, Misses: 0
f2f-> Hits: 5, Late: 0, Early: 0, Misses: 0
f30-> Hits: 474, Late: 28, Early: 0, Misses: 0
f31-> Hits: 237, Late: 0, Early: 0, Misses: 0
f32-> Hits: 34, Late: 0, Early: 0, Misses: 0
f33-> Hits: 9, Late: 0, Early: 0, Misses: 0
f34-> Hits: 1, Late: 2, Early: 0, Misses: 0
f37-> Hits: 7, Late: 0, Early: 0, Misses: 0
f39-> Hits: 3, Late: 0, Early: 0, Misses: 0
f3b-> Hits: 8, Late: 0, Early: 0, Misses: 0
f3c-> Hits: 8, Late: 0, Early: 0, Misses: 0
f3d-> Hits: 46, Late: 1, Early: 0, Misses: 0
f3e-> Hits: 1, Late: 0, Early: 0, Misses: 0
f3f-> Hits: 15, Late: 0, Early: 0, Misses: 0
f40-> Hits: 298, Late: 188, Early: 0, Misses: 0
f41-> Hits: 8, Late: 0, Early: 0, Misses: 0
f43-> Hits: 9, Late: 0, Early: 0, Misses: 0
f44-> Hits: 5, Late: 0, Early: 0, Misses: 0
f45-> Hits: 457, Late: 30, Early: 0, Misses: 0
f49-> Hits: 2, Late: 0, Early: 0, Misses: 0
f4a-> Hits: 346, Late: 141, Early: 0, Misses: 0
f4c-> Hits: 0, Late: 1, Early: 0, Misses: 0
f50-> Hits: 451, Late: 31, Early: 0, Misses: 0
f53-> Hits: 29, Late: 0, Early: 0, Misses: 0
f54-> Hits: 2, Late: 0, Early: 0, Misses: 0
f59-> Hits: 1, Late: 261, Early: 0, Misses: 1
f5a-> Hits: 35, Late: 0, Early: 0, Misses: 0
f5b-> Hits: 1, Late: 0, Early: 0, Misses: 0
f5d-> Hits: 0, Late: 0, Early: 0, Misses: 1
f5e-> Hits: 1, Late: 0, Early: 0, Misses: 0
f5f-> Hits: 300, Late: 180, Early: 0, Misses: 0
f60-> Hits: 10, Late: 2, Early: 0, Misses: 0
f61-> Hits: 1, Late: 0, Early: 0, Misses: 0
f63-> Hits: 2, Late: 0, Early: 0, Misses: 0
f64-> Hits: 431, Late: 301, Early: 0, Misses: 0
f65-> Hits: 5, Late: 0, Early: 0, Misses: 0
f66-> Hits: 2, Late: 0, Early: 0, Misses: 0
f68-> Hits: 2, Late: 0, Early: 0, Misses: 0
f69-> Hits: 339, Late: 138, Early: 0, Misses: 0
f6c-> Hits: 15, Late: 1, Early: 0, Misses: 0
f6d-> Hits: 7, Late: 0, Early: 0, Misses: 0
f6f-> Hits: 449, Late: 36, Early: 0, Misses: 0
f70-> Hits: 0, Late: 33, Early: 0, Misses: 0
f73-> Hits: 1, Late: 1, Early: 0, Misses: 0
f74-> Hits: 128, Late: 135, Early: 0, Misses: 0
f78-> Hits: 0, Late: 262, Early: 0, Misses: 0
f7a-> Hits: 4, Late: 0, Early: 0, Misses: 0
f7d-> Hits: 1, Late: 10, Early: 0, Misses: 0
f7e-> Hits: 294, Late: 173, Early: 0, Misses: 0
f7f-> Hits: 3, Late: 1, Early: 0, Misses: 0
f80-> Hits: 4, Late: 1, Early: 0, Misses: 0
f83-> Hits: 425, Late: 38, Early: 0, Misses: 0
f85-> Hits: 3, Late: 0, Early: 0, Misses: 0
f86-> Hits: 3, Late: 1, Early: 0, Misses: 0
f87-> Hits: 15, Late: 0, Early: 0, Misses: 0
f88-> Hits: 288, Late: 181, Early: 0, Misses: 0
f89-> Hits: 1, Late: 0, Early: 0, Misses: 0
f8b-> Hits: 70, Late: 148, Early: 0, Misses: 0
f8c-> Hits: 6, Late: 0, Early: 0, Misses: 0
f8d-> Hits: 4, Late: 0, Early: 0, Misses: 0
f8e-> Hits: 418, Late: 45, Early: 0, Misses: 0
f8f-> Hits: 1, Late: 0, Early: 0, Misses: 0
f90-> Hits: 7, Late: 0, Early: 0, Misses: 0
f91-> Hits: 1, Late: 0, Early: 0, Misses: 0
f92-> Hits: 2, Late: 0, Early: 0, Misses: 0
f93-> Hits: 6, Late: 0, Early: 0, Misses: 0
f94-> Hits: 1, Late: 0, Early: 0, Misses: 0
f95-> Hits: 0, Late: 2, Early: 0, Misses: 0
f96-> Hits: 1, Late: 0, Early: 0, Misses: 0
f98-> Hits: 1, Late: 0, Early: 0, Misses: 0
f9a-> Hits: 15, Late: 0, Early: 0, Misses: 0
f9c-> Hits: 3, Late: 0, Early: 0, Misses: 0
f9d-> Hits: 17, Late: 3, Early: 0, Misses: 0
f9e-> Hits: 1, Late: 0, Early: 0, Misses: 0
f9f-> Hits: 7, Late: 0, Early: 0, Misses: 0
fa0-> Hits: 5, Late: 1, Early: 0, Misses: 0
fa1-> Hits: 1, Late: 0, Early: 0, Misses: 0
fa4-> Hits: 1, Late: 0, Early: 0, Misses: 0
faa-> Hits: 3, Late: 0, Early: 0, Misses: 0
fb0-> Hits: 123, Late: 162, Early: 0, Misses: 0
fb1-> Hits: 3, Late: 3, Early: 0, Misses: 0
fb3-> Hits: 10, Late: 0, Early: 0, Misses: 0
fb6-> Hits: 1, Late: 0, Early: 0, Misses: 0
fb8-> Hits: 5, Late: 0, Early: 0, Misses: 0
fba-> Hits: 17, Late: 1, Early: 0, Misses: 0
fbb-> Hits: 29, Late: 2, Early: 0, Misses: 0
fbe-> Hits: 1, Late: 0, Early: 0, Misses: 0
fbf-> Hits: 2, Late: 0, Early: 0, Misses: 0
fc0-> Hits: 4, Late: 0, Early: 0, Misses: 0
fc1-> Hits: 512, Late: 0, Early: 0, Misses: 0
fc4-> Hits: 9, Late: 0, Early: 0, Misses: 0
fc5-> Hits: 2, Late: 0, Early: 0, Misses: 0
fc6-> Hits: 2, Late: 0, Early: 0, Misses: 0
fc7-> Hits: 2, Late: 0, Early: 0, Misses: 0
fc8-> Hits: 9, Late: 0, Early: 0, Misses: 0
fca-> Hits: 2, Late: 0, Early: 0, Misses: 0
fcb-> Hits: 1, Late: 0, Early: 0, Misses: 0
fcd-> Hits: 1, Late: 1, Early: 0, Misses: 0
fce-> Hits: 1, Late: 0, Early: 0, Misses: 0
fd0-> Hits: 4, Late: 0, Early: 0, Misses: 0
fd2-> Hits: 1, Late: 0, Early: 0, Misses: 0
fd5-> Hits: 512, Late: 0, Early: 0, Misses: 0
fd6-> Hits: 6, Late: 0, Early: 0, Misses: 0
fd7-> Hits: 6, Late: 0, Early: 0, Misses: 0
fd8-> Hits: 10, Late: 0, Early: 0, Misses: 0
fda-> Hits: 6, Late: 0, Early: 0, Misses: 0
fdc-> Hits: 7, Late: 1, Early: 0, Misses: 0
fde-> Hits: 8, Late: 0, Early: 0, Misses: 0
fdf-> Hits: 7, Late: 15, Early: 0, Misses: 0
fe0-> Hits: 11, Late: 0, Early: 0, Misses: 0
fe1-> Hits: 4, Late: 0, Early: 0, Misses: 0
fe2-> Hits: 2, Late: 0, Early: 0, Misses: 0
fe3-> Hits: 4, Late: 0, Early: 0, Misses: 0
fe4-> Hits: 30, Late: 2, Early: 0, Misses: 0
fe5-> Hits: 7, Late: 6, Early: 0, Misses: 0
fe6-> Hits: 2, Late: 0, Early: 0, Misses: 0
fe7-> Hits: 1, Late: 1, Early: 0, Misses: 0
fe8-> Hits: 325, Late: 127, Early: 0, Misses: 0
feb-> Hits: 1, Late: 2, Early: 0, Misses: 0
fec-> Hits: 6, Late: 0, Early: 0, Misses: 0
fed-> Hits: 417, Late: 38, Early: 0, Misses: 0
fee-> Hits: 2, Late: 0, Early: 0, Misses: 0
fef-> Hits: 0, Late: 1, Early: 0, Misses: 0
ff0-> Hits: 8, Late: 0, Early: 0, Misses: 0
ff2-> Hits: 250, Late: 471, Early: 0, Misses: 0
ff3-> Hits: 14, Late: 0, Early: 0, Misses: 0
ff5-> Hits: 1, Late: 0, Early: 0, Misses: 0
ff7-> Hits: 4, Late: 0, Early: 0, Misses: 0
ff8-> Hits: 399, Late: 50, Early: 0, Misses: 0
ff9-> Hits: 15, Late: 12, Early: 0, Misses: 0
ffd-> Hits: 2, Late: 0, Early: 0, Misses: 0
ffe-> Hits: 10, Late: 0, Early: 0, Misses: 0
fff-> Hits: 12, Late: 0, Early: 0, Misses: 0
Total misses (from ip) 586160
Total accesses (misses) 17441170 586160
Pref: Addr 0 IP 0 Current 0
CPU 0 L2C berti prefetcher final stats
Channel_0_RQ_row_buffer_hit 236682
Channel_0_RQ_row_buffer_miss 67065
Channel_0_WQ_row_buffer_hit 49730
Channel_0_WQ_row_buffer_miss 52602
Channel_0_WQ_full 0
Channel_0_dbus_congested 100559

avg_congested_cycle 8

EzSearch AVG IPC :1.19819: L2-Pf-HR :0.85252 : L2-HR :0.81315 Uful:0.11455
     > Finished combination: TraceType=770-tot Sim:70000000 Prefetcher=L2berti L1=berti
