TRACE: [662000000][OPT-350M]_[h16][s1024][d64] Warmup: 2000000 NumTraces: 662000000
L1:no:L2:next_line
*************************************************
   ChampSim Multicore Out-of-Order Simulator
   Last compiled: Jul 21 2024 01:47:28
*************************************************

trace_0 770-tot_memTraces_v3/memTraces[662000000][OPT-350M]_[h16][s1024][d64].champsim.xz
CPU 0 L2C next line prefetcher
warmup_instructions 2000000
simulation_instructions 657000000
champsim_seed 1696

num_cpus 1
cpu_freq 4000
dram_io_freq 2400
page_size 4096
block_size 64
max_read_per_cycle 8
max_fill_per_cycle 1
dram_channels 1
dram_ranks 1
dram_banks 8
dram_rows 65536
dram_columns 128
dram_row_size 8
dram_size 4096
dram_pages 1048576

fetch_width 6
decode_width 6
exec_width 4
lq_width 2
sq_width 2
retire_width 4
scheduler_size 128
branch_mispredict_penalty 20
rob_size 256
lq_size 72
sq_size 56
num_instr_destinations_sparc 4
num_instr_destinations 2
num_instr_sources 4

itlb_set 16
itlb_way 8
itlb_rq_size 16
itlb_wq_size 16
itlb_pq_size 0
itlb_mshr_size 8
itlb_latency 1

dtlb_set 16
dtlb_way 4
dtlb_rq_size 16
dtlb_wq_size 16
dtlb_pq_size 0
dtlb_mshr_size 8
dtlb_latency 1

stlb_set 128
stlb_way 12
stlb_rq_size 32
stlb_wq_size 32
stlb_pq_size 0
stlb_mshr_size 16
stlb_latency 8

l1i_size 32
l1i_set 64
l1i_way 8
l1i_rq_size 64
l1i_wq_size 64
l1i_pq_size 8
l1i_mshr_size 8
l1i_latency 1

l1d_size 32
l1d_set 64
l1d_way 8
l1d_rq_size 64
l1d_wq_size 64
l1d_pq_size 8
l1d_mshr_size 16
l1d_latency 4

l2c_size 512
l2c_set 1024
l2c_way 8
l2c_rq_size 32
l2c_wq_size 32
l2c_pq_size 16
l2c_mshr_size 32
l2c_latency 10

llc_size 2048
llc_set 2048
llc_way 16
llc_rq_size 32
llc_wq_size 32
llc_pq_size 32
llc_mshr_size 64
llc_latency 20

dram_channel_width 8
dram_wq_size 64
dram_rq_size 64
tRP 15
tRCD 15
tCAS 12.5
dram_dbus_turn_around_time 30
dram_write_high_wm 56
dram_write_low_wm 48
min_dram_writes_per_switch 16
dram_mtps 2400
dram_dbus_return_time 13


Heartbeat CPU  0 instructions:    1000003 cycles:     504310 heartbeat IPC: 1.98291 cumulative IPC: 1.98291 (Simulation time: 0 hr 0 min 5 sec) 
Heartbeat CPU  0 instructions:    2000000 cycles:     981175 heartbeat IPC: 2.09702 cumulative IPC: 2.03837 (Simulation time: 0 hr 0 min 10 sec) 

Warmup complete CPU  0 instructions:    2000001 cycles:     981176 (Simulation time: 0 hr 0 min 10 sec) 

Heartbeat CPU  0 instructions:    3000002 cycles:    1626368 heartbeat IPC: 1.54993 cumulative IPC: 1.54993 (Simulation time: 0 hr 0 min 14 sec) 
Heartbeat CPU  0 instructions:    4000000 cycles:    2293940 heartbeat IPC: 1.49796 cumulative IPC: 1.52350 (Simulation time: 0 hr 0 min 19 sec) 
Heartbeat CPU  0 instructions:    5000001 cycles:    2951054 heartbeat IPC: 1.52181 cumulative IPC: 1.52294 (Simulation time: 0 hr 0 min 24 sec) 
Heartbeat CPU  0 instructions:    6000002 cycles:    3628496 heartbeat IPC: 1.47614 cumulative IPC: 1.51096 (Simulation time: 0 hr 0 min 28 sec) 
Heartbeat CPU  0 instructions:    7000001 cycles:    4436961 heartbeat IPC: 1.23691 cumulative IPC: 1.44685 (Simulation time: 0 hr 0 min 33 sec) 
Heartbeat CPU  0 instructions:    8000000 cycles:    5119789 heartbeat IPC: 1.46450 cumulative IPC: 1.44976 (Simulation time: 0 hr 0 min 38 sec) 
Heartbeat CPU  0 instructions:    9000001 cycles:    5789745 heartbeat IPC: 1.49264 cumulative IPC: 1.45573 (Simulation time: 0 hr 0 min 42 sec) 
Heartbeat CPU  0 instructions:   10000000 cycles:    6471715 heartbeat IPC: 1.46634 cumulative IPC: 1.45705 (Simulation time: 0 hr 0 min 47 sec) 
Heartbeat CPU  0 instructions:   11000000 cycles:    7125186 heartbeat IPC: 1.53029 cumulative IPC: 1.46484 (Simulation time: 0 hr 0 min 52 sec) 
Heartbeat CPU  0 instructions:   12000000 cycles:    7806587 heartbeat IPC: 1.46756 cumulative IPC: 1.46511 (Simulation time: 0 hr 0 min 55 sec) 
Heartbeat CPU  0 instructions:   13000000 cycles:    8555101 heartbeat IPC: 1.33598 cumulative IPC: 1.45235 (Simulation time: 0 hr 0 min 58 sec) 
Heartbeat CPU  0 instructions:   14000003 cycles:    9229381 heartbeat IPC: 1.48307 cumulative IPC: 1.45486 (Simulation time: 0 hr 1 min 1 sec) 
Heartbeat CPU  0 instructions:   15000003 cycles:    9884034 heartbeat IPC: 1.52753 cumulative IPC: 1.46021 (Simulation time: 0 hr 1 min 4 sec) 
Heartbeat CPU  0 instructions:   16000000 cycles:   10537472 heartbeat IPC: 1.53036 cumulative IPC: 1.46500 (Simulation time: 0 hr 1 min 7 sec) 
Heartbeat CPU  0 instructions:   17000000 cycles:   11394352 heartbeat IPC: 1.16702 cumulative IPC: 1.44048 (Simulation time: 0 hr 1 min 10 sec) 
Heartbeat CPU  0 instructions:   18000000 cycles:   12099391 heartbeat IPC: 1.41836 cumulative IPC: 1.43908 (Simulation time: 0 hr 1 min 13 sec) 
Heartbeat CPU  0 instructions:   19000003 cycles:   12822307 heartbeat IPC: 1.38329 cumulative IPC: 1.43567 (Simulation time: 0 hr 1 min 16 sec) 
Heartbeat CPU  0 instructions:   20000000 cycles:   13529315 heartbeat IPC: 1.41441 cumulative IPC: 1.43448 (Simulation time: 0 hr 1 min 20 sec) 
Heartbeat CPU  0 instructions:   21000002 cycles:   14260133 heartbeat IPC: 1.36833 cumulative IPC: 1.43084 (Simulation time: 0 hr 1 min 25 sec) 
Heartbeat CPU  0 instructions:   22000002 cycles:   14984806 heartbeat IPC: 1.37993 cumulative IPC: 1.42820 (Simulation time: 0 hr 1 min 30 sec) 
Heartbeat CPU  0 instructions:   23000002 cycles:   15814884 heartbeat IPC: 1.20471 cumulative IPC: 1.41569 (Simulation time: 0 hr 1 min 35 sec) 
Heartbeat CPU  0 instructions:   24000000 cycles:   16496466 heartbeat IPC: 1.46717 cumulative IPC: 1.41796 (Simulation time: 0 hr 1 min 39 sec) 
Heartbeat CPU  0 instructions:   25000000 cycles:   17177155 heartbeat IPC: 1.46910 cumulative IPC: 1.42011 (Simulation time: 0 hr 1 min 44 sec) 
Heartbeat CPU  0 instructions:   26000001 cycles:   17835276 heartbeat IPC: 1.51948 cumulative IPC: 1.42399 (Simulation time: 0 hr 1 min 47 sec) 
Heartbeat CPU  0 instructions:   27000000 cycles:   18517118 heartbeat IPC: 1.46661 cumulative IPC: 1.42564 (Simulation time: 0 hr 1 min 50 sec) 
Heartbeat CPU  0 instructions:   28000000 cycles:   19175751 heartbeat IPC: 1.51830 cumulative IPC: 1.42900 (Simulation time: 0 hr 1 min 53 sec) 
Heartbeat CPU  0 instructions:   29000001 cycles:   19954546 heartbeat IPC: 1.28404 cumulative IPC: 1.42305 (Simulation time: 0 hr 1 min 56 sec) 
Heartbeat CPU  0 instructions:   30000002 cycles:   20622778 heartbeat IPC: 1.49649 cumulative IPC: 1.42555 (Simulation time: 0 hr 1 min 59 sec) 
Heartbeat CPU  0 instructions:   31000000 cycles:   21284620 heartbeat IPC: 1.51093 cumulative IPC: 1.42833 (Simulation time: 0 hr 2 min 4 sec) 
Heartbeat CPU  0 instructions:   32000000 cycles:   21950818 heartbeat IPC: 1.50106 cumulative IPC: 1.43064 (Simulation time: 0 hr 2 min 8 sec) 
Heartbeat CPU  0 instructions:   33000001 cycles:   22764456 heartbeat IPC: 1.22905 cumulative IPC: 1.42311 (Simulation time: 0 hr 2 min 13 sec) 
Heartbeat CPU  0 instructions:   34000001 cycles:   23460491 heartbeat IPC: 1.43671 cumulative IPC: 1.42353 (Simulation time: 0 hr 2 min 18 sec) 
Heartbeat CPU  0 instructions:   35000001 cycles:   24136171 heartbeat IPC: 1.47999 cumulative IPC: 1.42518 (Simulation time: 0 hr 2 min 22 sec) 
Heartbeat CPU  0 instructions:   36000000 cycles:   24829262 heartbeat IPC: 1.44281 cumulative IPC: 1.42569 (Simulation time: 0 hr 2 min 27 sec) 
Heartbeat CPU  0 instructions:   37000001 cycles:   25517232 heartbeat IPC: 1.45355 cumulative IPC: 1.42647 (Simulation time: 0 hr 2 min 32 sec) 
Heartbeat CPU  0 instructions:   38000003 cycles:   26222246 heartbeat IPC: 1.41841 cumulative IPC: 1.42625 (Simulation time: 0 hr 2 min 35 sec) 
Heartbeat CPU  0 instructions:   39000000 cycles:   27046326 heartbeat IPC: 1.21347 cumulative IPC: 1.41952 (Simulation time: 0 hr 2 min 39 sec) 
Heartbeat CPU  0 instructions:   40000000 cycles:   27741294 heartbeat IPC: 1.43892 cumulative IPC: 1.42002 (Simulation time: 0 hr 2 min 42 sec) 
Heartbeat CPU  0 instructions:   41000000 cycles:   28415670 heartbeat IPC: 1.48285 cumulative IPC: 1.42157 (Simulation time: 0 hr 2 min 46 sec) 
Heartbeat CPU  0 instructions:   42000001 cycles:   29111539 heartbeat IPC: 1.43705 cumulative IPC: 1.42195 (Simulation time: 0 hr 2 min 50 sec) 
Heartbeat CPU  0 instructions:   43000000 cycles:   29775409 heartbeat IPC: 1.50632 cumulative IPC: 1.42390 (Simulation time: 0 hr 2 min 55 sec) 
Heartbeat CPU  0 instructions:   44000000 cycles:   30461231 heartbeat IPC: 1.45810 cumulative IPC: 1.42469 (Simulation time: 0 hr 2 min 59 sec) 
Heartbeat CPU  0 instructions:   45000001 cycles:   31224430 heartbeat IPC: 1.31028 cumulative IPC: 1.42180 (Simulation time: 0 hr 3 min 4 sec) 
Heartbeat CPU  0 instructions:   46000000 cycles:   31888703 heartbeat IPC: 1.50540 cumulative IPC: 1.42360 (Simulation time: 0 hr 3 min 8 sec) 
Heartbeat CPU  0 instructions:   47000002 cycles:   32560445 heartbeat IPC: 1.48867 cumulative IPC: 1.42499 (Simulation time: 0 hr 3 min 13 sec) 
Heartbeat CPU  0 instructions:   48000000 cycles:   33222216 heartbeat IPC: 1.51109 cumulative IPC: 1.42675 (Simulation time: 0 hr 3 min 17 sec) 
Heartbeat CPU  0 instructions:   49000002 cycles:   34044480 heartbeat IPC: 1.21616 cumulative IPC: 1.42152 (Simulation time: 0 hr 3 min 22 sec) 
Heartbeat CPU  0 instructions:   50000002 cycles:   34723536 heartbeat IPC: 1.47263 cumulative IPC: 1.42254 (Simulation time: 0 hr 3 min 26 sec) 
Heartbeat CPU  0 instructions:   51000001 cycles:   35424709 heartbeat IPC: 1.42618 cumulative IPC: 1.42262 (Simulation time: 0 hr 3 min 29 sec) 
Heartbeat CPU  0 instructions:   52000000 cycles:   36112575 heartbeat IPC: 1.45377 cumulative IPC: 1.42323 (Simulation time: 0 hr 3 min 32 sec) 
Heartbeat CPU  0 instructions:   53000000 cycles:   36807676 heartbeat IPC: 1.43864 cumulative IPC: 1.42353 (Simulation time: 0 hr 3 min 35 sec) 
Heartbeat CPU  0 instructions:   54000001 cycles:   37512383 heartbeat IPC: 1.41903 cumulative IPC: 1.42344 (Simulation time: 0 hr 3 min 39 sec) 
Heartbeat CPU  0 instructions:   55000001 cycles:   38336862 heartbeat IPC: 1.21289 cumulative IPC: 1.41879 (Simulation time: 0 hr 3 min 42 sec) 
Heartbeat CPU  0 instructions:   56000000 cycles:   39018470 heartbeat IPC: 1.46712 cumulative IPC: 1.41966 (Simulation time: 0 hr 3 min 47 sec) 
Heartbeat CPU  0 instructions:   57000000 cycles:   39706385 heartbeat IPC: 1.45367 cumulative IPC: 1.42026 (Simulation time: 0 hr 3 min 51 sec) 
Heartbeat CPU  0 instructions:   58000000 cycles:   40369223 heartbeat IPC: 1.50866 cumulative IPC: 1.42175 (Simulation time: 0 hr 3 min 56 sec) 
Heartbeat CPU  0 instructions:   59000000 cycles:   41056548 heartbeat IPC: 1.45492 cumulative IPC: 1.42232 (Simulation time: 0 hr 4 min 0 sec) 
Heartbeat CPU  0 instructions:   60000000 cycles:   41718647 heartbeat IPC: 1.51035 cumulative IPC: 1.42375 (Simulation time: 0 hr 4 min 5 sec) 
Heartbeat CPU  0 instructions:   61000002 cycles:   42479565 heartbeat IPC: 1.31420 cumulative IPC: 1.42174 (Simulation time: 0 hr 4 min 9 sec) 
Heartbeat CPU  0 instructions:   62000000 cycles:   43153363 heartbeat IPC: 1.48412 cumulative IPC: 1.42274 (Simulation time: 0 hr 4 min 14 sec) 
Heartbeat CPU  0 instructions:   63000001 cycles:   43824564 heartbeat IPC: 1.48987 cumulative IPC: 1.42379 (Simulation time: 0 hr 4 min 18 sec) 
Heartbeat CPU  0 instructions:   64000000 cycles:   44478592 heartbeat IPC: 1.52899 cumulative IPC: 1.42537 (Simulation time: 0 hr 4 min 23 sec) 
Heartbeat CPU  0 instructions:   65000003 cycles:   45287724 heartbeat IPC: 1.23590 cumulative IPC: 1.42191 (Simulation time: 0 hr 4 min 28 sec) 
Heartbeat CPU  0 instructions:   66000000 cycles:   45969915 heartbeat IPC: 1.46586 cumulative IPC: 1.42258 (Simulation time: 0 hr 4 min 32 sec) 
Heartbeat CPU  0 instructions:   67000000 cycles:   46639692 heartbeat IPC: 1.49303 cumulative IPC: 1.42361 (Simulation time: 0 hr 4 min 37 sec) 
Heartbeat CPU  0 instructions:   68000000 cycles:   47320984 heartbeat IPC: 1.46780 cumulative IPC: 1.42426 (Simulation time: 0 hr 4 min 41 sec) 
Heartbeat CPU  0 instructions:   69000002 cycles:   48007748 heartbeat IPC: 1.45611 cumulative IPC: 1.42473 (Simulation time: 0 hr 4 min 46 sec) 
Heartbeat CPU  0 instructions:   70000002 cycles:   48698345 heartbeat IPC: 1.44802 cumulative IPC: 1.42506 (Simulation time: 0 hr 4 min 50 sec) 
Heartbeat CPU  0 instructions:   71000003 cycles:   49520660 heartbeat IPC: 1.21608 cumulative IPC: 1.42152 (Simulation time: 0 hr 4 min 54 sec) 
Heartbeat CPU  0 instructions:   72000000 cycles:   50215414 heartbeat IPC: 1.43935 cumulative IPC: 1.42177 (Simulation time: 0 hr 4 min 58 sec) 
Heartbeat CPU  0 instructions:   73000000 cycles:   50893226 heartbeat IPC: 1.47534 cumulative IPC: 1.42250 (Simulation time: 0 hr 5 min 2 sec) 
Heartbeat CPU  0 instructions:   74000001 cycles:   51592833 heartbeat IPC: 1.42938 cumulative IPC: 1.42260 (Simulation time: 0 hr 5 min 6 sec) 
Heartbeat CPU  0 instructions:   75000000 cycles:   52259778 heartbeat IPC: 1.49937 cumulative IPC: 1.42360 (Simulation time: 0 hr 5 min 9 sec) 
Heartbeat CPU  0 instructions:   76000000 cycles:   52946517 heartbeat IPC: 1.45616 cumulative IPC: 1.42403 (Simulation time: 0 hr 5 min 12 sec) 
Heartbeat CPU  0 instructions:   77000002 cycles:   53708724 heartbeat IPC: 1.31198 cumulative IPC: 1.42241 (Simulation time: 0 hr 5 min 15 sec) 
Heartbeat CPU  0 instructions:   78000003 cycles:   54394963 heartbeat IPC: 1.45722 cumulative IPC: 1.42285 (Simulation time: 0 hr 5 min 18 sec) 
Heartbeat CPU  0 instructions:   79000002 cycles:   55055288 heartbeat IPC: 1.51440 cumulative IPC: 1.42397 (Simulation time: 0 hr 5 min 21 sec) 
Heartbeat CPU  0 instructions:   80000000 cycles:   55722295 heartbeat IPC: 1.49923 cumulative IPC: 1.42489 (Simulation time: 0 hr 5 min 24 sec) 
Heartbeat CPU  0 instructions:   81000000 cycles:   56534664 heartbeat IPC: 1.23097 cumulative IPC: 1.42205 (Simulation time: 0 hr 5 min 27 sec) 
Heartbeat CPU  0 instructions:   82000001 cycles:   57208194 heartbeat IPC: 1.48472 cumulative IPC: 1.42280 (Simulation time: 0 hr 5 min 30 sec) 
Heartbeat CPU  0 instructions:   83000002 cycles:   57888095 heartbeat IPC: 1.47080 cumulative IPC: 1.42338 (Simulation time: 0 hr 5 min 34 sec) 
Heartbeat CPU  0 instructions:   84000000 cycles:   58566515 heartbeat IPC: 1.47401 cumulative IPC: 1.42397 (Simulation time: 0 hr 5 min 37 sec) 
Heartbeat CPU  0 instructions:   85000003 cycles:   59253624 heartbeat IPC: 1.45538 cumulative IPC: 1.42434 (Simulation time: 0 hr 5 min 40 sec) 
Heartbeat CPU  0 instructions:   86000003 cycles:   59949069 heartbeat IPC: 1.43793 cumulative IPC: 1.42450 (Simulation time: 0 hr 5 min 43 sec) 
Heartbeat CPU  0 instructions:   87000000 cycles:   60753382 heartbeat IPC: 1.24329 cumulative IPC: 1.42207 (Simulation time: 0 hr 5 min 47 sec) 
Heartbeat CPU  0 instructions:   88000000 cycles:   61459098 heartbeat IPC: 1.41700 cumulative IPC: 1.42201 (Simulation time: 0 hr 5 min 51 sec) 
Heartbeat CPU  0 instructions:   89000000 cycles:   62158677 heartbeat IPC: 1.42943 cumulative IPC: 1.42209 (Simulation time: 0 hr 5 min 56 sec) 
Heartbeat CPU  0 instructions:   90000002 cycles:   62826683 heartbeat IPC: 1.49700 cumulative IPC: 1.42290 (Simulation time: 0 hr 6 min 1 sec) 
Heartbeat CPU  0 instructions:   91000002 cycles:   63519849 heartbeat IPC: 1.44266 cumulative IPC: 1.42312 (Simulation time: 0 hr 6 min 6 sec) 
Heartbeat CPU  0 instructions:   92000000 cycles:   64188171 heartbeat IPC: 1.49628 cumulative IPC: 1.42389 (Simulation time: 0 hr 6 min 11 sec) 
Heartbeat CPU  0 instructions:   93000000 cycles:   64956232 heartbeat IPC: 1.30198 cumulative IPC: 1.42243 (Simulation time: 0 hr 6 min 16 sec) 
Heartbeat CPU  0 instructions:   94000002 cycles:   65633772 heartbeat IPC: 1.47593 cumulative IPC: 1.42299 (Simulation time: 0 hr 6 min 20 sec) 
Heartbeat CPU  0 instructions:   95000002 cycles:   66306342 heartbeat IPC: 1.48683 cumulative IPC: 1.42365 (Simulation time: 0 hr 6 min 25 sec) 
Heartbeat CPU  0 instructions:   96000000 cycles:   66978662 heartbeat IPC: 1.48738 cumulative IPC: 1.42430 (Simulation time: 0 hr 6 min 29 sec) 
Heartbeat CPU  0 instructions:   97000002 cycles:   67759222 heartbeat IPC: 1.28113 cumulative IPC: 1.42262 (Simulation time: 0 hr 6 min 34 sec) 
Heartbeat CPU  0 instructions:   98000002 cycles:   68472418 heartbeat IPC: 1.40214 cumulative IPC: 1.42241 (Simulation time: 0 hr 6 min 39 sec) 
Heartbeat CPU  0 instructions:   99000000 cycles:   69155055 heartbeat IPC: 1.46490 cumulative IPC: 1.42283 (Simulation time: 0 hr 6 min 43 sec) 
Heartbeat CPU  0 instructions:  100000000 cycles:   69844643 heartbeat IPC: 1.45014 cumulative IPC: 1.42311 (Simulation time: 0 hr 6 min 48 sec) 
Heartbeat CPU  0 instructions:  101000000 cycles:   70536163 heartbeat IPC: 1.44609 cumulative IPC: 1.42333 (Simulation time: 0 hr 6 min 52 sec) 
Heartbeat CPU  0 instructions:  102000002 cycles:   71229957 heartbeat IPC: 1.44135 cumulative IPC: 1.42351 (Simulation time: 0 hr 6 min 57 sec) 
Heartbeat CPU  0 instructions:  103000001 cycles:   71951435 heartbeat IPC: 1.38604 cumulative IPC: 1.42313 (Simulation time: 0 hr 7 min 2 sec) 
Heartbeat CPU  0 instructions:  104000000 cycles:   72761772 heartbeat IPC: 1.23405 cumulative IPC: 1.42100 (Simulation time: 0 hr 7 min 6 sec) 
Heartbeat CPU  0 instructions:  105000000 cycles:   73439833 heartbeat IPC: 1.47479 cumulative IPC: 1.42150 (Simulation time: 0 hr 7 min 11 sec) 
Heartbeat CPU  0 instructions:  106000003 cycles:   74141269 heartbeat IPC: 1.42565 cumulative IPC: 1.42154 (Simulation time: 0 hr 7 min 16 sec) 
Heartbeat CPU  0 instructions:  107000002 cycles:   74812938 heartbeat IPC: 1.48883 cumulative IPC: 1.42215 (Simulation time: 0 hr 7 min 20 sec) 
Heartbeat CPU  0 instructions:  108000000 cycles:   75497460 heartbeat IPC: 1.46087 cumulative IPC: 1.42251 (Simulation time: 0 hr 7 min 25 sec) 
Heartbeat CPU  0 instructions:  109000002 cycles:   76185016 heartbeat IPC: 1.45443 cumulative IPC: 1.42280 (Simulation time: 0 hr 7 min 29 sec) 
Heartbeat CPU  0 instructions:  110000001 cycles:   76932325 heartbeat IPC: 1.33813 cumulative IPC: 1.42197 (Simulation time: 0 hr 7 min 34 sec) 
Heartbeat CPU  0 instructions:  111000000 cycles:   77611753 heartbeat IPC: 1.47182 cumulative IPC: 1.42241 (Simulation time: 0 hr 7 min 38 sec) 
Heartbeat CPU  0 instructions:  112000000 cycles:   78270236 heartbeat IPC: 1.51864 cumulative IPC: 1.42323 (Simulation time: 0 hr 7 min 43 sec) 
Heartbeat CPU  0 instructions:  113000003 cycles:   78934172 heartbeat IPC: 1.50617 cumulative IPC: 1.42394 (Simulation time: 0 hr 7 min 47 sec) 
Heartbeat CPU  0 instructions:  114000003 cycles:   79758242 heartbeat IPC: 1.21349 cumulative IPC: 1.42173 (Simulation time: 0 hr 7 min 52 sec) 
Heartbeat CPU  0 instructions:  115000002 cycles:   80447748 heartbeat IPC: 1.45031 cumulative IPC: 1.42198 (Simulation time: 0 hr 7 min 57 sec) 
Heartbeat CPU  0 instructions:  116000000 cycles:   81137857 heartbeat IPC: 1.44904 cumulative IPC: 1.42221 (Simulation time: 0 hr 8 min 1 sec) 
Heartbeat CPU  0 instructions:  117000001 cycles:   81826187 heartbeat IPC: 1.45279 cumulative IPC: 1.42247 (Simulation time: 0 hr 8 min 6 sec) 
Heartbeat CPU  0 instructions:  118000001 cycles:   82523020 heartbeat IPC: 1.43506 cumulative IPC: 1.42258 (Simulation time: 0 hr 8 min 11 sec) 
Heartbeat CPU  0 instructions:  119000002 cycles:   83219686 heartbeat IPC: 1.43541 cumulative IPC: 1.42269 (Simulation time: 0 hr 8 min 15 sec) 
Heartbeat CPU  0 instructions:  120000000 cycles:   84038981 heartbeat IPC: 1.22056 cumulative IPC: 1.42070 (Simulation time: 0 hr 8 min 18 sec) 
Heartbeat CPU  0 instructions:  121000000 cycles:   84731795 heartbeat IPC: 1.44339 cumulative IPC: 1.42088 (Simulation time: 0 hr 8 min 23 sec) 
Heartbeat CPU  0 instructions:  122000000 cycles:   85394148 heartbeat IPC: 1.50977 cumulative IPC: 1.42158 (Simulation time: 0 hr 8 min 27 sec) 
Heartbeat CPU  0 instructions:  123000002 cycles:   86076543 heartbeat IPC: 1.46543 cumulative IPC: 1.42193 (Simulation time: 0 hr 8 min 32 sec) 
Heartbeat CPU  0 instructions:  124000000 cycles:   86741742 heartbeat IPC: 1.50331 cumulative IPC: 1.42257 (Simulation time: 0 hr 8 min 37 sec) 
Heartbeat CPU  0 instructions:  125000003 cycles:   87411923 heartbeat IPC: 1.49214 cumulative IPC: 1.42310 (Simulation time: 0 hr 8 min 41 sec) 
Heartbeat CPU  0 instructions:  126000003 cycles:   88178614 heartbeat IPC: 1.30431 cumulative IPC: 1.42206 (Simulation time: 0 hr 8 min 46 sec) 
Heartbeat CPU  0 instructions:  127000002 cycles:   88847630 heartbeat IPC: 1.49473 cumulative IPC: 1.42261 (Simulation time: 0 hr 8 min 50 sec) 
Heartbeat CPU  0 instructions:  128000000 cycles:   89506967 heartbeat IPC: 1.51667 cumulative IPC: 1.42331 (Simulation time: 0 hr 8 min 55 sec) 
Heartbeat CPU  0 instructions:  129000003 cycles:   90175605 heartbeat IPC: 1.49558 cumulative IPC: 1.42386 (Simulation time: 0 hr 8 min 59 sec) 
Heartbeat CPU  0 instructions:  130000000 cycles:   90987193 heartbeat IPC: 1.23215 cumulative IPC: 1.42213 (Simulation time: 0 hr 9 min 4 sec) 
Heartbeat CPU  0 instructions:  131000001 cycles:   91669460 heartbeat IPC: 1.46570 cumulative IPC: 1.42245 (Simulation time: 0 hr 9 min 9 sec) 
Heartbeat CPU  0 instructions:  132000000 cycles:   92349763 heartbeat IPC: 1.46993 cumulative IPC: 1.42281 (Simulation time: 0 hr 9 min 13 sec) 
Heartbeat CPU  0 instructions:  133000002 cycles:   93035864 heartbeat IPC: 1.45751 cumulative IPC: 1.42307 (Simulation time: 0 hr 9 min 18 sec) 
Heartbeat CPU  0 instructions:  134000003 cycles:   93719169 heartbeat IPC: 1.46348 cumulative IPC: 1.42336 (Simulation time: 0 hr 9 min 23 sec) 
Heartbeat CPU  0 instructions:  135000002 cycles:   94426428 heartbeat IPC: 1.41391 cumulative IPC: 1.42329 (Simulation time: 0 hr 9 min 27 sec) 
Heartbeat CPU  0 instructions:  136000000 cycles:   95257382 heartbeat IPC: 1.20343 cumulative IPC: 1.42136 (Simulation time: 0 hr 9 min 32 sec) 
Heartbeat CPU  0 instructions:  137000000 cycles:   95934149 heartbeat IPC: 1.47761 cumulative IPC: 1.42176 (Simulation time: 0 hr 9 min 37 sec) 
Heartbeat CPU  0 instructions:  138000003 cycles:   96631878 heartbeat IPC: 1.43323 cumulative IPC: 1.42184 (Simulation time: 0 hr 9 min 41 sec) 
Heartbeat CPU  0 instructions:  139000000 cycles:   97304000 heartbeat IPC: 1.48782 cumulative IPC: 1.42230 (Simulation time: 0 hr 9 min 46 sec) 
Heartbeat CPU  0 instructions:  140000000 cycles:   97984459 heartbeat IPC: 1.46960 cumulative IPC: 1.42263 (Simulation time: 0 hr 9 min 51 sec) 
Heartbeat CPU  0 instructions:  141000002 cycles:   98665832 heartbeat IPC: 1.46763 cumulative IPC: 1.42295 (Simulation time: 0 hr 9 min 55 sec) 
Heartbeat CPU  0 instructions:  142000003 cycles:   99436977 heartbeat IPC: 1.29677 cumulative IPC: 1.42196 (Simulation time: 0 hr 10 min 0 sec) 
Heartbeat CPU  0 instructions:  143000002 cycles:  100100161 heartbeat IPC: 1.50788 cumulative IPC: 1.42253 (Simulation time: 0 hr 10 min 5 sec) 
Heartbeat CPU  0 instructions:  144000000 cycles:  100773336 heartbeat IPC: 1.48549 cumulative IPC: 1.42296 (Simulation time: 0 hr 10 min 9 sec) 
Heartbeat CPU  0 instructions:  145000003 cycles:  101432823 heartbeat IPC: 1.51633 cumulative IPC: 1.42357 (Simulation time: 0 hr 10 min 14 sec) 
Heartbeat CPU  0 instructions:  146000001 cycles:  102254373 heartbeat IPC: 1.21721 cumulative IPC: 1.42190 (Simulation time: 0 hr 10 min 19 sec) 
Heartbeat CPU  0 instructions:  147000000 cycles:  102937446 heartbeat IPC: 1.46397 cumulative IPC: 1.42218 (Simulation time: 0 hr 10 min 23 sec) 
Heartbeat CPU  0 instructions:  148000000 cycles:  103629414 heartbeat IPC: 1.44515 cumulative IPC: 1.42233 (Simulation time: 0 hr 10 min 28 sec) 
Heartbeat CPU  0 instructions:  149000003 cycles:  104312768 heartbeat IPC: 1.46337 cumulative IPC: 1.42260 (Simulation time: 0 hr 10 min 33 sec) 
Heartbeat CPU  0 instructions:  150000000 cycles:  105015862 heartbeat IPC: 1.42228 cumulative IPC: 1.42260 (Simulation time: 0 hr 10 min 37 sec) 
Heartbeat CPU  0 instructions:  151000003 cycles:  105709440 heartbeat IPC: 1.44180 cumulative IPC: 1.42273 (Simulation time: 0 hr 10 min 42 sec) 
Heartbeat CPU  0 instructions:  152000000 cycles:  106543434 heartbeat IPC: 1.19905 cumulative IPC: 1.42096 (Simulation time: 0 hr 10 min 47 sec) 
Heartbeat CPU  0 instructions:  153000000 cycles:  107261009 heartbeat IPC: 1.39358 cumulative IPC: 1.42078 (Simulation time: 0 hr 10 min 51 sec) 
Heartbeat CPU  0 instructions:  154000003 cycles:  107933395 heartbeat IPC: 1.48725 cumulative IPC: 1.42120 (Simulation time: 0 hr 10 min 56 sec) 
Heartbeat CPU  0 instructions:  155000002 cycles:  108620646 heartbeat IPC: 1.45507 cumulative IPC: 1.42141 (Simulation time: 0 hr 11 min 1 sec) 
Heartbeat CPU  0 instructions:  156000000 cycles:  109294534 heartbeat IPC: 1.48392 cumulative IPC: 1.42180 (Simulation time: 0 hr 11 min 5 sec) 
Heartbeat CPU  0 instructions:  157000002 cycles:  109974689 heartbeat IPC: 1.47026 cumulative IPC: 1.42210 (Simulation time: 0 hr 11 min 10 sec) 
Heartbeat CPU  0 instructions:  158000000 cycles:  110736112 heartbeat IPC: 1.31333 cumulative IPC: 1.42135 (Simulation time: 0 hr 11 min 13 sec) 
Heartbeat CPU  0 instructions:  159000001 cycles:  111415565 heartbeat IPC: 1.47177 cumulative IPC: 1.42166 (Simulation time: 0 hr 11 min 16 sec) 
Heartbeat CPU  0 instructions:  160000000 cycles:  112089508 heartbeat IPC: 1.48380 cumulative IPC: 1.42204 (Simulation time: 0 hr 11 min 19 sec) 
Heartbeat CPU  0 instructions:  161000002 cycles:  112747144 heartbeat IPC: 1.52060 cumulative IPC: 1.42262 (Simulation time: 0 hr 11 min 22 sec) 
Heartbeat CPU  0 instructions:  162000002 cycles:  113560243 heartbeat IPC: 1.22986 cumulative IPC: 1.42122 (Simulation time: 0 hr 11 min 25 sec) 
Heartbeat CPU  0 instructions:  163000002 cycles:  114238599 heartbeat IPC: 1.47415 cumulative IPC: 1.42154 (Simulation time: 0 hr 11 min 28 sec) 
Heartbeat CPU  0 instructions:  164000000 cycles:  114912414 heartbeat IPC: 1.48408 cumulative IPC: 1.42191 (Simulation time: 0 hr 11 min 31 sec) 
Heartbeat CPU  0 instructions:  165000001 cycles:  115594536 heartbeat IPC: 1.46601 cumulative IPC: 1.42217 (Simulation time: 0 hr 11 min 34 sec) 
Heartbeat CPU  0 instructions:  166000001 cycles:  116271171 heartbeat IPC: 1.47790 cumulative IPC: 1.42250 (Simulation time: 0 hr 11 min 37 sec) 
Heartbeat CPU  0 instructions:  167000001 cycles:  116971257 heartbeat IPC: 1.42840 cumulative IPC: 1.42254 (Simulation time: 0 hr 11 min 40 sec) 
Heartbeat CPU  0 instructions:  168000000 cycles:  117806150 heartbeat IPC: 1.19776 cumulative IPC: 1.42093 (Simulation time: 0 hr 11 min 43 sec) 
Heartbeat CPU  0 instructions:  169000002 cycles:  118485320 heartbeat IPC: 1.47239 cumulative IPC: 1.42123 (Simulation time: 0 hr 11 min 46 sec) 
Heartbeat CPU  0 instructions:  170000002 cycles:  119181239 heartbeat IPC: 1.43695 cumulative IPC: 1.42132 (Simulation time: 0 hr 11 min 48 sec) 
Heartbeat CPU  0 instructions:  171000002 cycles:  119852954 heartbeat IPC: 1.48873 cumulative IPC: 1.42170 (Simulation time: 0 hr 11 min 51 sec) 
Heartbeat CPU  0 instructions:  172000000 cycles:  120535518 heartbeat IPC: 1.46506 cumulative IPC: 1.42195 (Simulation time: 0 hr 11 min 54 sec) 
Heartbeat CPU  0 instructions:  173000002 cycles:  121215273 heartbeat IPC: 1.47112 cumulative IPC: 1.42223 (Simulation time: 0 hr 11 min 57 sec) 
Heartbeat CPU  0 instructions:  174000002 cycles:  121973124 heartbeat IPC: 1.31952 cumulative IPC: 1.42158 (Simulation time: 0 hr 12 min 0 sec) 
Heartbeat CPU  0 instructions:  175000003 cycles:  122656277 heartbeat IPC: 1.46380 cumulative IPC: 1.42182 (Simulation time: 0 hr 12 min 3 sec) 
Heartbeat CPU  0 instructions:  176000000 cycles:  123316328 heartbeat IPC: 1.51503 cumulative IPC: 1.42232 (Simulation time: 0 hr 12 min 6 sec) 
Heartbeat CPU  0 instructions:  177000001 cycles:  123981791 heartbeat IPC: 1.50271 cumulative IPC: 1.42276 (Simulation time: 0 hr 12 min 9 sec) 
Heartbeat CPU  0 instructions:  178000003 cycles:  124801294 heartbeat IPC: 1.22025 cumulative IPC: 1.42142 (Simulation time: 0 hr 12 min 12 sec) 
Heartbeat CPU  0 instructions:  179000003 cycles:  125480432 heartbeat IPC: 1.47245 cumulative IPC: 1.42170 (Simulation time: 0 hr 12 min 15 sec) 
Heartbeat CPU  0 instructions:  180000000 cycles:  126173532 heartbeat IPC: 1.44279 cumulative IPC: 1.42181 (Simulation time: 0 hr 12 min 18 sec) 
Heartbeat CPU  0 instructions:  181000001 cycles:  126852188 heartbeat IPC: 1.47350 cumulative IPC: 1.42209 (Simulation time: 0 hr 12 min 21 sec) 
Heartbeat CPU  0 instructions:  182000001 cycles:  127560793 heartbeat IPC: 1.41122 cumulative IPC: 1.42203 (Simulation time: 0 hr 12 min 24 sec) 
Heartbeat CPU  0 instructions:  183000001 cycles:  128246979 heartbeat IPC: 1.45733 cumulative IPC: 1.42222 (Simulation time: 0 hr 12 min 27 sec) 
Heartbeat CPU  0 instructions:  184000000 cycles:  129075715 heartbeat IPC: 1.20666 cumulative IPC: 1.42083 (Simulation time: 0 hr 12 min 31 sec) 
Heartbeat CPU  0 instructions:  185000003 cycles:  129778720 heartbeat IPC: 1.42247 cumulative IPC: 1.42083 (Simulation time: 0 hr 12 min 34 sec) 
Heartbeat CPU  0 instructions:  186000003 cycles:  130452056 heartbeat IPC: 1.48514 cumulative IPC: 1.42117 (Simulation time: 0 hr 12 min 37 sec) 
Heartbeat CPU  0 instructions:  187000002 cycles:  131135616 heartbeat IPC: 1.46293 cumulative IPC: 1.42139 (Simulation time: 0 hr 12 min 40 sec) 
Heartbeat CPU  0 instructions:  188000000 cycles:  131811686 heartbeat IPC: 1.47913 cumulative IPC: 1.42169 (Simulation time: 0 hr 12 min 43 sec) 
Heartbeat CPU  0 instructions:  189000002 cycles:  132484767 heartbeat IPC: 1.48571 cumulative IPC: 1.42201 (Simulation time: 0 hr 12 min 46 sec) 
Heartbeat CPU  0 instructions:  190000003 cycles:  133255537 heartbeat IPC: 1.29741 cumulative IPC: 1.42129 (Simulation time: 0 hr 12 min 49 sec) 
Heartbeat CPU  0 instructions:  191000003 cycles:  133918494 heartbeat IPC: 1.50839 cumulative IPC: 1.42172 (Simulation time: 0 hr 12 min 53 sec) 
Heartbeat CPU  0 instructions:  192000000 cycles:  134583478 heartbeat IPC: 1.50379 cumulative IPC: 1.42213 (Simulation time: 0 hr 12 min 58 sec) 
Heartbeat CPU  0 instructions:  193000001 cycles:  135245392 heartbeat IPC: 1.51077 cumulative IPC: 1.42257 (Simulation time: 0 hr 13 min 2 sec) 
Heartbeat CPU  0 instructions:  194000001 cycles:  136042694 heartbeat IPC: 1.25423 cumulative IPC: 1.42157 (Simulation time: 0 hr 13 min 6 sec) 
Heartbeat CPU  0 instructions:  195000000 cycles:  136727783 heartbeat IPC: 1.45966 cumulative IPC: 1.42177 (Simulation time: 0 hr 13 min 9 sec) 
Heartbeat CPU  0 instructions:  196000000 cycles:  137399429 heartbeat IPC: 1.48888 cumulative IPC: 1.42210 (Simulation time: 0 hr 13 min 12 sec) 
Heartbeat CPU  0 instructions:  197000003 cycles:  138097337 heartbeat IPC: 1.43286 cumulative IPC: 1.42215 (Simulation time: 0 hr 13 min 15 sec) 
Heartbeat CPU  0 instructions:  198000000 cycles:  138773959 heartbeat IPC: 1.47793 cumulative IPC: 1.42243 (Simulation time: 0 hr 13 min 18 sec) 
Heartbeat CPU  0 instructions:  199000002 cycles:  139478672 heartbeat IPC: 1.41902 cumulative IPC: 1.42241 (Simulation time: 0 hr 13 min 23 sec) 
Heartbeat CPU  0 instructions:  200000000 cycles:  140307072 heartbeat IPC: 1.20714 cumulative IPC: 1.42113 (Simulation time: 0 hr 13 min 26 sec) 
Heartbeat CPU  0 instructions:  201000003 cycles:  141026083 heartbeat IPC: 1.39080 cumulative IPC: 1.42097 (Simulation time: 0 hr 13 min 29 sec) 
Heartbeat CPU  0 instructions:  202000003 cycles:  141755205 heartbeat IPC: 1.37151 cumulative IPC: 1.42072 (Simulation time: 0 hr 13 min 32 sec) 
Heartbeat CPU  0 instructions:  203000002 cycles:  142465445 heartbeat IPC: 1.40797 cumulative IPC: 1.42065 (Simulation time: 0 hr 13 min 35 sec) 
Heartbeat CPU  0 instructions:  204000000 cycles:  143175782 heartbeat IPC: 1.40778 cumulative IPC: 1.42059 (Simulation time: 0 hr 13 min 39 sec) 
Heartbeat CPU  0 instructions:  205000002 cycles:  143888360 heartbeat IPC: 1.40336 cumulative IPC: 1.42050 (Simulation time: 0 hr 13 min 42 sec) 
Heartbeat CPU  0 instructions:  206000002 cycles:  144680256 heartbeat IPC: 1.26279 cumulative IPC: 1.41963 (Simulation time: 0 hr 13 min 45 sec) 
Heartbeat CPU  0 instructions:  207000003 cycles:  145346495 heartbeat IPC: 1.50096 cumulative IPC: 1.42001 (Simulation time: 0 hr 13 min 49 sec) 
Heartbeat CPU  0 instructions:  208000000 cycles:  146015583 heartbeat IPC: 1.49457 cumulative IPC: 1.42035 (Simulation time: 0 hr 13 min 53 sec) 
Heartbeat CPU  0 instructions:  209000003 cycles:  146671045 heartbeat IPC: 1.52565 cumulative IPC: 1.42083 (Simulation time: 0 hr 13 min 58 sec) 
Heartbeat CPU  0 instructions:  210000002 cycles:  147470490 heartbeat IPC: 1.25087 cumulative IPC: 1.41990 (Simulation time: 0 hr 14 min 3 sec) 
Heartbeat CPU  0 instructions:  211000001 cycles:  148157325 heartbeat IPC: 1.45595 cumulative IPC: 1.42007 (Simulation time: 0 hr 14 min 7 sec) 
Heartbeat CPU  0 instructions:  212000000 cycles:  148852660 heartbeat IPC: 1.43815 cumulative IPC: 1.42015 (Simulation time: 0 hr 14 min 12 sec) 
Heartbeat CPU  0 instructions:  213000003 cycles:  149531975 heartbeat IPC: 1.47208 cumulative IPC: 1.42039 (Simulation time: 0 hr 14 min 16 sec) 
Heartbeat CPU  0 instructions:  214000000 cycles:  150234690 heartbeat IPC: 1.42305 cumulative IPC: 1.42040 (Simulation time: 0 hr 14 min 21 sec) 
Heartbeat CPU  0 instructions:  215000001 cycles:  150911201 heartbeat IPC: 1.47817 cumulative IPC: 1.42066 (Simulation time: 0 hr 14 min 26 sec) 
Heartbeat CPU  0 instructions:  216000000 cycles:  151690358 heartbeat IPC: 1.28344 cumulative IPC: 1.41995 (Simulation time: 0 hr 14 min 30 sec) 
Heartbeat CPU  0 instructions:  217000002 cycles:  152455195 heartbeat IPC: 1.30747 cumulative IPC: 1.41939 (Simulation time: 0 hr 14 min 35 sec) 
Heartbeat CPU  0 instructions:  218000003 cycles:  153132967 heartbeat IPC: 1.47542 cumulative IPC: 1.41963 (Simulation time: 0 hr 14 min 40 sec) 
Heartbeat CPU  0 instructions:  219000002 cycles:  153822549 heartbeat IPC: 1.45015 cumulative IPC: 1.41977 (Simulation time: 0 hr 14 min 44 sec) 
Heartbeat CPU  0 instructions:  220000000 cycles:  154497505 heartbeat IPC: 1.48158 cumulative IPC: 1.42004 (Simulation time: 0 hr 14 min 49 sec) 
Heartbeat CPU  0 instructions:  221000002 cycles:  155165241 heartbeat IPC: 1.49760 cumulative IPC: 1.42038 (Simulation time: 0 hr 14 min 53 sec) 
Heartbeat CPU  0 instructions:  222000000 cycles:  155888865 heartbeat IPC: 1.38193 cumulative IPC: 1.42020 (Simulation time: 0 hr 14 min 58 sec) 
Heartbeat CPU  0 instructions:  223000002 cycles:  156609682 heartbeat IPC: 1.38732 cumulative IPC: 1.42005 (Simulation time: 0 hr 15 min 2 sec) 
Heartbeat CPU  0 instructions:  224000000 cycles:  157283562 heartbeat IPC: 1.48394 cumulative IPC: 1.42032 (Simulation time: 0 hr 15 min 7 sec) 
Heartbeat CPU  0 instructions:  225000003 cycles:  157943411 heartbeat IPC: 1.51550 cumulative IPC: 1.42072 (Simulation time: 0 hr 15 min 12 sec) 
Heartbeat CPU  0 instructions:  226000002 cycles:  158642322 heartbeat IPC: 1.43080 cumulative IPC: 1.42077 (Simulation time: 0 hr 15 min 16 sec) 
Heartbeat CPU  0 instructions:  227000002 cycles:  159444722 heartbeat IPC: 1.24626 cumulative IPC: 1.41988 (Simulation time: 0 hr 15 min 21 sec) 
Heartbeat CPU  0 instructions:  228000000 cycles:  160123655 heartbeat IPC: 1.47290 cumulative IPC: 1.42011 (Simulation time: 0 hr 15 min 25 sec) 
Heartbeat CPU  0 instructions:  229000001 cycles:  160828770 heartbeat IPC: 1.41821 cumulative IPC: 1.42010 (Simulation time: 0 hr 15 min 30 sec) 
Heartbeat CPU  0 instructions:  230000001 cycles:  161507000 heartbeat IPC: 1.47443 cumulative IPC: 1.42033 (Simulation time: 0 hr 15 min 35 sec) 
Heartbeat CPU  0 instructions:  231000000 cycles:  162227272 heartbeat IPC: 1.38836 cumulative IPC: 1.42019 (Simulation time: 0 hr 15 min 38 sec) 
Heartbeat CPU  0 instructions:  232000000 cycles:  162924541 heartbeat IPC: 1.43417 cumulative IPC: 1.42025 (Simulation time: 0 hr 15 min 41 sec) 
Heartbeat CPU  0 instructions:  233000002 cycles:  163763209 heartbeat IPC: 1.19237 cumulative IPC: 1.41908 (Simulation time: 0 hr 15 min 44 sec) 
Heartbeat CPU  0 instructions:  234000002 cycles:  164473780 heartbeat IPC: 1.40732 cumulative IPC: 1.41902 (Simulation time: 0 hr 15 min 47 sec) 
Heartbeat CPU  0 instructions:  235000003 cycles:  165172362 heartbeat IPC: 1.43147 cumulative IPC: 1.41908 (Simulation time: 0 hr 15 min 50 sec) 
Heartbeat CPU  0 instructions:  236000000 cycles:  165868225 heartbeat IPC: 1.43706 cumulative IPC: 1.41915 (Simulation time: 0 hr 15 min 53 sec) 
Heartbeat CPU  0 instructions:  237000002 cycles:  166567546 heartbeat IPC: 1.42996 cumulative IPC: 1.41920 (Simulation time: 0 hr 15 min 57 sec) 
Heartbeat CPU  0 instructions:  238000002 cycles:  167244535 heartbeat IPC: 1.47713 cumulative IPC: 1.41943 (Simulation time: 0 hr 16 min 0 sec) 
Heartbeat CPU  0 instructions:  239000000 cycles:  168015960 heartbeat IPC: 1.29630 cumulative IPC: 1.41887 (Simulation time: 0 hr 16 min 4 sec) 
Heartbeat CPU  0 instructions:  240000000 cycles:  168674413 heartbeat IPC: 1.51871 cumulative IPC: 1.41926 (Simulation time: 0 hr 16 min 9 sec) 
Heartbeat CPU  0 instructions:  241000001 cycles:  169343349 heartbeat IPC: 1.49491 cumulative IPC: 1.41956 (Simulation time: 0 hr 16 min 12 sec) 
Heartbeat CPU  0 instructions:  242000002 cycles:  170001080 heartbeat IPC: 1.52038 cumulative IPC: 1.41995 (Simulation time: 0 hr 16 min 15 sec) 
Heartbeat CPU  0 instructions:  243000003 cycles:  170815920 heartbeat IPC: 1.22724 cumulative IPC: 1.41903 (Simulation time: 0 hr 16 min 20 sec) 
Heartbeat CPU  0 instructions:  244000000 cycles:  171516522 heartbeat IPC: 1.42734 cumulative IPC: 1.41906 (Simulation time: 0 hr 16 min 25 sec) 
Heartbeat CPU  0 instructions:  245000002 cycles:  172195697 heartbeat IPC: 1.47238 cumulative IPC: 1.41927 (Simulation time: 0 hr 16 min 29 sec) 
Heartbeat CPU  0 instructions:  246000002 cycles:  172902746 heartbeat IPC: 1.41433 cumulative IPC: 1.41925 (Simulation time: 0 hr 16 min 34 sec) 
Heartbeat CPU  0 instructions:  247000003 cycles:  173584499 heartbeat IPC: 1.46681 cumulative IPC: 1.41944 (Simulation time: 0 hr 16 min 39 sec) 
Heartbeat CPU  0 instructions:  248000000 cycles:  174304541 heartbeat IPC: 1.38880 cumulative IPC: 1.41931 (Simulation time: 0 hr 16 min 43 sec) 
Heartbeat CPU  0 instructions:  249000002 cycles:  175127453 heartbeat IPC: 1.21520 cumulative IPC: 1.41835 (Simulation time: 0 hr 16 min 48 sec) 
Heartbeat CPU  0 instructions:  250000003 cycles:  175807123 heartbeat IPC: 1.47130 cumulative IPC: 1.41855 (Simulation time: 0 hr 16 min 53 sec) 
Heartbeat CPU  0 instructions:  251000002 cycles:  176490369 heartbeat IPC: 1.46360 cumulative IPC: 1.41873 (Simulation time: 0 hr 16 min 57 sec) 
Heartbeat CPU  0 instructions:  252000000 cycles:  177169875 heartbeat IPC: 1.47165 cumulative IPC: 1.41893 (Simulation time: 0 hr 17 min 2 sec) 
Heartbeat CPU  0 instructions:  253000002 cycles:  177836934 heartbeat IPC: 1.49912 cumulative IPC: 1.41924 (Simulation time: 0 hr 17 min 6 sec) 
Heartbeat CPU  0 instructions:  254000002 cycles:  178529138 heartbeat IPC: 1.44466 cumulative IPC: 1.41933 (Simulation time: 0 hr 17 min 11 sec) 
Heartbeat CPU  0 instructions:  255000002 cycles:  179283064 heartbeat IPC: 1.32639 cumulative IPC: 1.41894 (Simulation time: 0 hr 17 min 15 sec) 
Heartbeat CPU  0 instructions:  256000000 cycles:  179958702 heartbeat IPC: 1.48008 cumulative IPC: 1.41917 (Simulation time: 0 hr 17 min 20 sec) 
Heartbeat CPU  0 instructions:  257000001 cycles:  180627151 heartbeat IPC: 1.49600 cumulative IPC: 1.41946 (Simulation time: 0 hr 17 min 25 sec) 
Heartbeat CPU  0 instructions:  258000001 cycles:  181281022 heartbeat IPC: 1.52935 cumulative IPC: 1.41986 (Simulation time: 0 hr 17 min 29 sec) 
Heartbeat CPU  0 instructions:  259000001 cycles:  185941446 heartbeat IPC: 0.21457 cumulative IPC: 1.38949 (Simulation time: 0 hr 17 min 41 sec) 
Heartbeat CPU  0 instructions:  260000000 cycles:  192351433 heartbeat IPC: 0.15601 cumulative IPC: 1.34817 (Simulation time: 0 hr 17 min 58 sec) 
Heartbeat CPU  0 instructions:  261000000 cycles:  198749542 heartbeat IPC: 0.15630 cumulative IPC: 1.30961 (Simulation time: 0 hr 18 min 14 sec) 
Heartbeat CPU  0 instructions:  262000001 cycles:  205142442 heartbeat IPC: 0.15642 cumulative IPC: 1.27350 (Simulation time: 0 hr 18 min 30 sec) 
Heartbeat CPU  0 instructions:  263000000 cycles:  211537143 heartbeat IPC: 0.15638 cumulative IPC: 1.23958 (Simulation time: 0 hr 18 min 46 sec) 
Heartbeat CPU  0 instructions:  264000000 cycles:  217932274 heartbeat IPC: 0.15637 cumulative IPC: 1.20765 (Simulation time: 0 hr 19 min 2 sec) 
Heartbeat CPU  0 instructions:  265000000 cycles:  224340015 heartbeat IPC: 0.15606 cumulative IPC: 1.17748 (Simulation time: 0 hr 19 min 19 sec) 
Heartbeat CPU  0 instructions:  266000003 cycles:  230750334 heartbeat IPC: 0.15600 cumulative IPC: 1.14898 (Simulation time: 0 hr 19 min 35 sec) 
Heartbeat CPU  0 instructions:  267000002 cycles:  237164145 heartbeat IPC: 0.15591 cumulative IPC: 1.12201 (Simulation time: 0 hr 19 min 52 sec) 
Heartbeat CPU  0 instructions:  268000000 cycles:  243040066 heartbeat IPC: 0.17019 cumulative IPC: 1.09891 (Simulation time: 0 hr 20 min 6 sec) 
Heartbeat CPU  0 instructions:  269000000 cycles:  247483116 heartbeat IPC: 0.22507 cumulative IPC: 1.08316 (Simulation time: 0 hr 20 min 16 sec) 
Heartbeat CPU  0 instructions:  270000000 cycles:  251852365 heartbeat IPC: 0.22887 cumulative IPC: 1.06828 (Simulation time: 0 hr 20 min 26 sec) 
Heartbeat CPU  0 instructions:  271000000 cycles:  256065986 heartbeat IPC: 0.23733 cumulative IPC: 1.05455 (Simulation time: 0 hr 20 min 36 sec) 
Heartbeat CPU  0 instructions:  272000000 cycles:  260226436 heartbeat IPC: 0.24036 cumulative IPC: 1.04148 (Simulation time: 0 hr 20 min 45 sec) 
Heartbeat CPU  0 instructions:  273000000 cycles:  264358010 heartbeat IPC: 0.24204 cumulative IPC: 1.02894 (Simulation time: 0 hr 20 min 53 sec) 
Heartbeat CPU  0 instructions:  274000002 cycles:  268594247 heartbeat IPC: 0.23606 cumulative IPC: 1.01639 (Simulation time: 0 hr 20 min 59 sec) 
Heartbeat CPU  0 instructions:  275000001 cycles:  272799322 heartbeat IPC: 0.23781 cumulative IPC: 1.00435 (Simulation time: 0 hr 21 min 5 sec) 
Heartbeat CPU  0 instructions:  276000000 cycles:  276999460 heartbeat IPC: 0.23809 cumulative IPC: 0.99269 (Simulation time: 0 hr 21 min 11 sec) 
Heartbeat CPU  0 instructions:  277000000 cycles:  281248731 heartbeat IPC: 0.23533 cumulative IPC: 0.98121 (Simulation time: 0 hr 21 min 17 sec) 
Heartbeat CPU  0 instructions:  278000000 cycles:  285444213 heartbeat IPC: 0.23835 cumulative IPC: 0.97025 (Simulation time: 0 hr 21 min 23 sec) 
Heartbeat CPU  0 instructions:  279000000 cycles:  289658388 heartbeat IPC: 0.23729 cumulative IPC: 0.95955 (Simulation time: 0 hr 21 min 29 sec) 
Heartbeat CPU  0 instructions:  280000000 cycles:  293911757 heartbeat IPC: 0.23511 cumulative IPC: 0.94903 (Simulation time: 0 hr 21 min 36 sec) 
Heartbeat CPU  0 instructions:  281000002 cycles:  298085594 heartbeat IPC: 0.23959 cumulative IPC: 0.93906 (Simulation time: 0 hr 21 min 42 sec) 
Heartbeat CPU  0 instructions:  282000003 cycles:  302283864 heartbeat IPC: 0.23819 cumulative IPC: 0.92930 (Simulation time: 0 hr 21 min 50 sec) 
Heartbeat CPU  0 instructions:  283000000 cycles:  306491752 heartbeat IPC: 0.23765 cumulative IPC: 0.91977 (Simulation time: 0 hr 22 min 0 sec) 
Heartbeat CPU  0 instructions:  284000000 cycles:  310717046 heartbeat IPC: 0.23667 cumulative IPC: 0.91045 (Simulation time: 0 hr 22 min 9 sec) 
Heartbeat CPU  0 instructions:  285000003 cycles:  314966691 heartbeat IPC: 0.23531 cumulative IPC: 0.90132 (Simulation time: 0 hr 22 min 19 sec) 
Heartbeat CPU  0 instructions:  286000000 cycles:  319198143 heartbeat IPC: 0.23632 cumulative IPC: 0.89247 (Simulation time: 0 hr 22 min 27 sec) 
Heartbeat CPU  0 instructions:  287000000 cycles:  323329545 heartbeat IPC: 0.24205 cumulative IPC: 0.88414 (Simulation time: 0 hr 22 min 33 sec) 
Heartbeat CPU  0 instructions:  288000000 cycles:  327560805 heartbeat IPC: 0.23634 cumulative IPC: 0.87574 (Simulation time: 0 hr 22 min 39 sec) 
Heartbeat CPU  0 instructions:  289000003 cycles:  331800914 heartbeat IPC: 0.23584 cumulative IPC: 0.86754 (Simulation time: 0 hr 22 min 45 sec) 
Heartbeat CPU  0 instructions:  290000001 cycles:  335966248 heartbeat IPC: 0.24008 cumulative IPC: 0.85974 (Simulation time: 0 hr 22 min 52 sec) 
Heartbeat CPU  0 instructions:  291000000 cycles:  340129542 heartbeat IPC: 0.24019 cumulative IPC: 0.85213 (Simulation time: 0 hr 22 min 58 sec) 
Heartbeat CPU  0 instructions:  292000000 cycles:  344325552 heartbeat IPC: 0.23832 cumulative IPC: 0.84463 (Simulation time: 0 hr 23 min 4 sec) 
Heartbeat CPU  0 instructions:  293000002 cycles:  348553168 heartbeat IPC: 0.23654 cumulative IPC: 0.83724 (Simulation time: 0 hr 23 min 10 sec) 
Heartbeat CPU  0 instructions:  294000000 cycles:  352735075 heartbeat IPC: 0.23912 cumulative IPC: 0.83013 (Simulation time: 0 hr 23 min 16 sec) 
Heartbeat CPU  0 instructions:  295000000 cycles:  356937383 heartbeat IPC: 0.23796 cumulative IPC: 0.82313 (Simulation time: 0 hr 23 min 22 sec) 
Heartbeat CPU  0 instructions:  296000000 cycles:  361128751 heartbeat IPC: 0.23859 cumulative IPC: 0.81633 (Simulation time: 0 hr 23 min 28 sec) 
Heartbeat CPU  0 instructions:  297000003 cycles:  365243041 heartbeat IPC: 0.24306 cumulative IPC: 0.80986 (Simulation time: 0 hr 23 min 34 sec) 
Heartbeat CPU  0 instructions:  298000000 cycles:  369449584 heartbeat IPC: 0.23772 cumulative IPC: 0.80333 (Simulation time: 0 hr 23 min 40 sec) 
Heartbeat CPU  0 instructions:  299000000 cycles:  373659607 heartbeat IPC: 0.23753 cumulative IPC: 0.79693 (Simulation time: 0 hr 23 min 45 sec) 
Heartbeat CPU  0 instructions:  300000000 cycles:  377834171 heartbeat IPC: 0.23955 cumulative IPC: 0.79076 (Simulation time: 0 hr 23 min 51 sec) 
Heartbeat CPU  0 instructions:  301000000 cycles:  381916282 heartbeat IPC: 0.24497 cumulative IPC: 0.78491 (Simulation time: 0 hr 23 min 57 sec) 
Heartbeat CPU  0 instructions:  302000003 cycles:  386051985 heartbeat IPC: 0.24180 cumulative IPC: 0.77908 (Simulation time: 0 hr 24 min 3 sec) 
Heartbeat CPU  0 instructions:  303000000 cycles:  390176079 heartbeat IPC: 0.24248 cumulative IPC: 0.77339 (Simulation time: 0 hr 24 min 9 sec) 
Heartbeat CPU  0 instructions:  304000000 cycles:  394334201 heartbeat IPC: 0.24049 cumulative IPC: 0.76776 (Simulation time: 0 hr 24 min 15 sec) 
Heartbeat CPU  0 instructions:  305000001 cycles:  398392836 heartbeat IPC: 0.24639 cumulative IPC: 0.76243 (Simulation time: 0 hr 24 min 21 sec) 
Heartbeat CPU  0 instructions:  306000003 cycles:  402585051 heartbeat IPC: 0.23854 cumulative IPC: 0.75696 (Simulation time: 0 hr 24 min 27 sec) 
Heartbeat CPU  0 instructions:  307000000 cycles:  406822892 heartbeat IPC: 0.23597 cumulative IPC: 0.75152 (Simulation time: 0 hr 24 min 33 sec) 
Heartbeat CPU  0 instructions:  308000000 cycles:  411093952 heartbeat IPC: 0.23413 cumulative IPC: 0.74614 (Simulation time: 0 hr 24 min 39 sec) 
Heartbeat CPU  0 instructions:  309000000 cycles:  415360887 heartbeat IPC: 0.23436 cumulative IPC: 0.74087 (Simulation time: 0 hr 24 min 45 sec) 
Heartbeat CPU  0 instructions:  310000002 cycles:  419481774 heartbeat IPC: 0.24267 cumulative IPC: 0.73596 (Simulation time: 0 hr 24 min 51 sec) 
Heartbeat CPU  0 instructions:  311000000 cycles:  423663600 heartbeat IPC: 0.23913 cumulative IPC: 0.73105 (Simulation time: 0 hr 24 min 59 sec) 
Heartbeat CPU  0 instructions:  312000000 cycles:  428031360 heartbeat IPC: 0.22895 cumulative IPC: 0.72591 (Simulation time: 0 hr 25 min 8 sec) 
Heartbeat CPU  0 instructions:  313000000 cycles:  432245780 heartbeat IPC: 0.23728 cumulative IPC: 0.72114 (Simulation time: 0 hr 25 min 18 sec) 
Heartbeat CPU  0 instructions:  314000002 cycles:  436412565 heartbeat IPC: 0.23999 cumulative IPC: 0.71653 (Simulation time: 0 hr 25 min 28 sec) 
Heartbeat CPU  0 instructions:  315000000 cycles:  440673011 heartbeat IPC: 0.23472 cumulative IPC: 0.71186 (Simulation time: 0 hr 25 min 38 sec) 
Heartbeat CPU  0 instructions:  316000000 cycles:  444940643 heartbeat IPC: 0.23432 cumulative IPC: 0.70727 (Simulation time: 0 hr 25 min 48 sec) 
Heartbeat CPU  0 instructions:  317000000 cycles:  449147533 heartbeat IPC: 0.23771 cumulative IPC: 0.70286 (Simulation time: 0 hr 25 min 58 sec) 
Heartbeat CPU  0 instructions:  318000001 cycles:  453339758 heartbeat IPC: 0.23854 cumulative IPC: 0.69856 (Simulation time: 0 hr 26 min 8 sec) 
Heartbeat CPU  0 instructions:  319000003 cycles:  457508158 heartbeat IPC: 0.23990 cumulative IPC: 0.69437 (Simulation time: 0 hr 26 min 17 sec) 
Heartbeat CPU  0 instructions:  320000000 cycles:  461623000 heartbeat IPC: 0.24302 cumulative IPC: 0.69034 (Simulation time: 0 hr 26 min 27 sec) 
Heartbeat CPU  0 instructions:  321000000 cycles:  465789670 heartbeat IPC: 0.24000 cumulative IPC: 0.68630 (Simulation time: 0 hr 26 min 36 sec) 
Heartbeat CPU  0 instructions:  322000000 cycles:  470063577 heartbeat IPC: 0.23398 cumulative IPC: 0.68218 (Simulation time: 0 hr 26 min 46 sec) 
Heartbeat CPU  0 instructions:  323000003 cycles:  474434606 heartbeat IPC: 0.22878 cumulative IPC: 0.67800 (Simulation time: 0 hr 26 min 56 sec) 
Heartbeat CPU  0 instructions:  324000000 cycles:  478694751 heartbeat IPC: 0.23473 cumulative IPC: 0.67404 (Simulation time: 0 hr 27 min 5 sec) 
Heartbeat CPU  0 instructions:  325000000 cycles:  482926550 heartbeat IPC: 0.23631 cumulative IPC: 0.67020 (Simulation time: 0 hr 27 min 15 sec) 
Heartbeat CPU  0 instructions:  326000002 cycles:  487139985 heartbeat IPC: 0.23734 cumulative IPC: 0.66645 (Simulation time: 0 hr 27 min 24 sec) 
Heartbeat CPU  0 instructions:  327000001 cycles:  491369244 heartbeat IPC: 0.23645 cumulative IPC: 0.66274 (Simulation time: 0 hr 27 min 33 sec) 
Heartbeat CPU  0 instructions:  328000000 cycles:  495654848 heartbeat IPC: 0.23334 cumulative IPC: 0.65902 (Simulation time: 0 hr 27 min 39 sec) 
Heartbeat CPU  0 instructions:  329000000 cycles:  499950742 heartbeat IPC: 0.23278 cumulative IPC: 0.65535 (Simulation time: 0 hr 27 min 45 sec) 
Heartbeat CPU  0 instructions:  330000000 cycles:  504204076 heartbeat IPC: 0.23511 cumulative IPC: 0.65180 (Simulation time: 0 hr 27 min 51 sec) 
Heartbeat CPU  0 instructions:  331000002 cycles:  508479224 heartbeat IPC: 0.23391 cumulative IPC: 0.64828 (Simulation time: 0 hr 27 min 57 sec) 
Heartbeat CPU  0 instructions:  332000000 cycles:  512631418 heartbeat IPC: 0.24084 cumulative IPC: 0.64497 (Simulation time: 0 hr 28 min 3 sec) 
Heartbeat CPU  0 instructions:  333000002 cycles:  516873285 heartbeat IPC: 0.23575 cumulative IPC: 0.64161 (Simulation time: 0 hr 28 min 9 sec) 
Heartbeat CPU  0 instructions:  334000003 cycles:  521106223 heartbeat IPC: 0.23624 cumulative IPC: 0.63831 (Simulation time: 0 hr 28 min 15 sec) 
Heartbeat CPU  0 instructions:  335000002 cycles:  525343275 heartbeat IPC: 0.23601 cumulative IPC: 0.63506 (Simulation time: 0 hr 28 min 21 sec) 
Heartbeat CPU  0 instructions:  336000000 cycles:  529459769 heartbeat IPC: 0.24292 cumulative IPC: 0.63200 (Simulation time: 0 hr 28 min 27 sec) 
Heartbeat CPU  0 instructions:  337000000 cycles:  533687453 heartbeat IPC: 0.23654 cumulative IPC: 0.62886 (Simulation time: 0 hr 28 min 33 sec) 
Heartbeat CPU  0 instructions:  338000000 cycles:  537901123 heartbeat IPC: 0.23732 cumulative IPC: 0.62579 (Simulation time: 0 hr 28 min 39 sec) 
Heartbeat CPU  0 instructions:  339000000 cycles:  542100537 heartbeat IPC: 0.23813 cumulative IPC: 0.62278 (Simulation time: 0 hr 28 min 45 sec) 
Heartbeat CPU  0 instructions:  340000000 cycles:  546268547 heartbeat IPC: 0.23992 cumulative IPC: 0.61986 (Simulation time: 0 hr 28 min 51 sec) 
Heartbeat CPU  0 instructions:  341000001 cycles:  550492167 heartbeat IPC: 0.23676 cumulative IPC: 0.61691 (Simulation time: 0 hr 28 min 57 sec) 
Heartbeat CPU  0 instructions:  342000001 cycles:  554660860 heartbeat IPC: 0.23988 cumulative IPC: 0.61407 (Simulation time: 0 hr 29 min 3 sec) 
Heartbeat CPU  0 instructions:  343000000 cycles:  558828612 heartbeat IPC: 0.23994 cumulative IPC: 0.61128 (Simulation time: 0 hr 29 min 9 sec) 
Heartbeat CPU  0 instructions:  344000000 cycles:  563109336 heartbeat IPC: 0.23361 cumulative IPC: 0.60840 (Simulation time: 0 hr 29 min 15 sec) 
Heartbeat CPU  0 instructions:  345000000 cycles:  567304444 heartbeat IPC: 0.23837 cumulative IPC: 0.60566 (Simulation time: 0 hr 29 min 21 sec) 
Heartbeat CPU  0 instructions:  346000000 cycles:  571483197 heartbeat IPC: 0.23931 cumulative IPC: 0.60298 (Simulation time: 0 hr 29 min 27 sec) 
Heartbeat CPU  0 instructions:  347000000 cycles:  575646662 heartbeat IPC: 0.24018 cumulative IPC: 0.60035 (Simulation time: 0 hr 29 min 34 sec) 
Heartbeat CPU  0 instructions:  348000000 cycles:  579877165 heartbeat IPC: 0.23638 cumulative IPC: 0.59769 (Simulation time: 0 hr 29 min 41 sec) 
Heartbeat CPU  0 instructions:  349000003 cycles:  584086770 heartbeat IPC: 0.23755 cumulative IPC: 0.59509 (Simulation time: 0 hr 29 min 47 sec) 
Heartbeat CPU  0 instructions:  350000000 cycles:  588155341 heartbeat IPC: 0.24579 cumulative IPC: 0.59267 (Simulation time: 0 hr 29 min 53 sec) 
Heartbeat CPU  0 instructions:  351000000 cycles:  592362491 heartbeat IPC: 0.23769 cumulative IPC: 0.59014 (Simulation time: 0 hr 29 min 59 sec) 
Heartbeat CPU  0 instructions:  352000000 cycles:  596562315 heartbeat IPC: 0.23811 cumulative IPC: 0.58766 (Simulation time: 0 hr 30 min 5 sec) 
Heartbeat CPU  0 instructions:  353000000 cycles:  600725795 heartbeat IPC: 0.24018 cumulative IPC: 0.58525 (Simulation time: 0 hr 30 min 11 sec) 
Heartbeat CPU  0 instructions:  354000000 cycles:  604892998 heartbeat IPC: 0.23997 cumulative IPC: 0.58287 (Simulation time: 0 hr 30 min 18 sec) 
Heartbeat CPU  0 instructions:  355000000 cycles:  609121119 heartbeat IPC: 0.23651 cumulative IPC: 0.58046 (Simulation time: 0 hr 30 min 24 sec) 
Heartbeat CPU  0 instructions:  356000000 cycles:  613210932 heartbeat IPC: 0.24451 cumulative IPC: 0.57821 (Simulation time: 0 hr 30 min 30 sec) 
Heartbeat CPU  0 instructions:  357000001 cycles:  617369457 heartbeat IPC: 0.24047 cumulative IPC: 0.57594 (Simulation time: 0 hr 30 min 36 sec) 
Heartbeat CPU  0 instructions:  358000000 cycles:  621555079 heartbeat IPC: 0.23891 cumulative IPC: 0.57366 (Simulation time: 0 hr 30 min 42 sec) 
Heartbeat CPU  0 instructions:  359000000 cycles:  625771869 heartbeat IPC: 0.23715 cumulative IPC: 0.57139 (Simulation time: 0 hr 30 min 48 sec) 
Heartbeat CPU  0 instructions:  360000000 cycles:  629996401 heartbeat IPC: 0.23671 cumulative IPC: 0.56914 (Simulation time: 0 hr 30 min 54 sec) 
Heartbeat CPU  0 instructions:  361000003 cycles:  634278798 heartbeat IPC: 0.23351 cumulative IPC: 0.56687 (Simulation time: 0 hr 31 min 0 sec) 
Heartbeat CPU  0 instructions:  362000000 cycles:  638517661 heartbeat IPC: 0.23591 cumulative IPC: 0.56467 (Simulation time: 0 hr 31 min 6 sec) 
Heartbeat CPU  0 instructions:  363000000 cycles:  642738439 heartbeat IPC: 0.23692 cumulative IPC: 0.56252 (Simulation time: 0 hr 31 min 13 sec) 
Heartbeat CPU  0 instructions:  364000000 cycles:  646891330 heartbeat IPC: 0.24080 cumulative IPC: 0.56045 (Simulation time: 0 hr 31 min 20 sec) 
Heartbeat CPU  0 instructions:  365000003 cycles:  650974763 heartbeat IPC: 0.24489 cumulative IPC: 0.55847 (Simulation time: 0 hr 31 min 26 sec) 
Heartbeat CPU  0 instructions:  366000000 cycles:  655023624 heartbeat IPC: 0.24698 cumulative IPC: 0.55654 (Simulation time: 0 hr 31 min 32 sec) 
Heartbeat CPU  0 instructions:  367000000 cycles:  659255138 heartbeat IPC: 0.23632 cumulative IPC: 0.55448 (Simulation time: 0 hr 31 min 38 sec) 
Heartbeat CPU  0 instructions:  368000000 cycles:  663493420 heartbeat IPC: 0.23594 cumulative IPC: 0.55244 (Simulation time: 0 hr 31 min 44 sec) 
Heartbeat CPU  0 instructions:  369000002 cycles:  667700530 heartbeat IPC: 0.23769 cumulative IPC: 0.55046 (Simulation time: 0 hr 31 min 50 sec) 
Heartbeat CPU  0 instructions:  370000000 cycles:  671896333 heartbeat IPC: 0.23833 cumulative IPC: 0.54850 (Simulation time: 0 hr 31 min 56 sec) 
Heartbeat CPU  0 instructions:  371000002 cycles:  676190180 heartbeat IPC: 0.23289 cumulative IPC: 0.54650 (Simulation time: 0 hr 32 min 2 sec) 
Heartbeat CPU  0 instructions:  372000000 cycles:  680412903 heartbeat IPC: 0.23681 cumulative IPC: 0.54457 (Simulation time: 0 hr 32 min 9 sec) 
Heartbeat CPU  0 instructions:  373000002 cycles:  684626678 heartbeat IPC: 0.23732 cumulative IPC: 0.54268 (Simulation time: 0 hr 32 min 15 sec) 
Heartbeat CPU  0 instructions:  374000000 cycles:  688804501 heartbeat IPC: 0.23936 cumulative IPC: 0.54084 (Simulation time: 0 hr 32 min 21 sec) 
Heartbeat CPU  0 instructions:  375000000 cycles:  692992796 heartbeat IPC: 0.23876 cumulative IPC: 0.53901 (Simulation time: 0 hr 32 min 27 sec) 
Heartbeat CPU  0 instructions:  376000000 cycles:  697259985 heartbeat IPC: 0.23435 cumulative IPC: 0.53714 (Simulation time: 0 hr 32 min 33 sec) 
Heartbeat CPU  0 instructions:  377000000 cycles:  701379493 heartbeat IPC: 0.24275 cumulative IPC: 0.53541 (Simulation time: 0 hr 32 min 41 sec) 
Heartbeat CPU  0 instructions:  378000002 cycles:  705523911 heartbeat IPC: 0.24129 cumulative IPC: 0.53368 (Simulation time: 0 hr 32 min 51 sec) 
Heartbeat CPU  0 instructions:  379000003 cycles:  709652076 heartbeat IPC: 0.24224 cumulative IPC: 0.53198 (Simulation time: 0 hr 33 min 0 sec) 
Heartbeat CPU  0 instructions:  380000000 cycles:  713935648 heartbeat IPC: 0.23345 cumulative IPC: 0.53019 (Simulation time: 0 hr 33 min 6 sec) 
Heartbeat CPU  0 instructions:  381000000 cycles:  718199331 heartbeat IPC: 0.23454 cumulative IPC: 0.52843 (Simulation time: 0 hr 33 min 12 sec) 
Heartbeat CPU  0 instructions:  382000003 cycles:  722391575 heartbeat IPC: 0.23854 cumulative IPC: 0.52675 (Simulation time: 0 hr 33 min 18 sec) 
Heartbeat CPU  0 instructions:  383000000 cycles:  726638025 heartbeat IPC: 0.23549 cumulative IPC: 0.52504 (Simulation time: 0 hr 33 min 24 sec) 
Heartbeat CPU  0 instructions:  384000000 cycles:  730804440 heartbeat IPC: 0.24001 cumulative IPC: 0.52341 (Simulation time: 0 hr 33 min 31 sec) 
Heartbeat CPU  0 instructions:  385000000 cycles:  735003789 heartbeat IPC: 0.23813 cumulative IPC: 0.52178 (Simulation time: 0 hr 33 min 37 sec) 
Heartbeat CPU  0 instructions:  386000003 cycles:  739186607 heartbeat IPC: 0.23907 cumulative IPC: 0.52018 (Simulation time: 0 hr 33 min 43 sec) 
Heartbeat CPU  0 instructions:  387000001 cycles:  743485362 heartbeat IPC: 0.23263 cumulative IPC: 0.51852 (Simulation time: 0 hr 33 min 49 sec) 
Heartbeat CPU  0 instructions:  388000000 cycles:  747598763 heartbeat IPC: 0.24311 cumulative IPC: 0.51700 (Simulation time: 0 hr 33 min 55 sec) 
Heartbeat CPU  0 instructions:  389000000 cycles:  751829469 heartbeat IPC: 0.23637 cumulative IPC: 0.51542 (Simulation time: 0 hr 34 min 1 sec) 
Heartbeat CPU  0 instructions:  390000002 cycles:  755997550 heartbeat IPC: 0.23992 cumulative IPC: 0.51390 (Simulation time: 0 hr 34 min 7 sec) 
Heartbeat CPU  0 instructions:  391000000 cycles:  760092561 heartbeat IPC: 0.24420 cumulative IPC: 0.51244 (Simulation time: 0 hr 34 min 13 sec) 
Heartbeat CPU  0 instructions:  392000000 cycles:  764226737 heartbeat IPC: 0.24189 cumulative IPC: 0.51098 (Simulation time: 0 hr 34 min 21 sec) 
Heartbeat CPU  0 instructions:  393000001 cycles:  768297907 heartbeat IPC: 0.24563 cumulative IPC: 0.50957 (Simulation time: 0 hr 34 min 30 sec) 
Heartbeat CPU  0 instructions:  394000001 cycles:  772403791 heartbeat IPC: 0.24355 cumulative IPC: 0.50815 (Simulation time: 0 hr 34 min 40 sec) 
Heartbeat CPU  0 instructions:  395000001 cycles:  776596337 heartbeat IPC: 0.23852 cumulative IPC: 0.50669 (Simulation time: 0 hr 34 min 49 sec) 
Heartbeat CPU  0 instructions:  396000000 cycles:  777339896 heartbeat IPC: 1.34488 cumulative IPC: 0.50750 (Simulation time: 0 hr 34 min 54 sec) 
Heartbeat CPU  0 instructions:  397000002 cycles:  778054711 heartbeat IPC: 1.39897 cumulative IPC: 0.50832 (Simulation time: 0 hr 34 min 59 sec) 
Heartbeat CPU  0 instructions:  398000003 cycles:  778744573 heartbeat IPC: 1.44957 cumulative IPC: 0.50915 (Simulation time: 0 hr 35 min 4 sec) 
Heartbeat CPU  0 instructions:  399000002 cycles:  779462202 heartbeat IPC: 1.39348 cumulative IPC: 0.50997 (Simulation time: 0 hr 35 min 9 sec) 
Heartbeat CPU  0 instructions:  400000000 cycles:  780193483 heartbeat IPC: 1.36746 cumulative IPC: 0.51077 (Simulation time: 0 hr 35 min 14 sec) 
Heartbeat CPU  0 instructions:  401000001 cycles:  780891191 heartbeat IPC: 1.43327 cumulative IPC: 0.51160 (Simulation time: 0 hr 35 min 17 sec) 
Heartbeat CPU  0 instructions:  402000003 cycles:  781551121 heartbeat IPC: 1.51532 cumulative IPC: 0.51245 (Simulation time: 0 hr 35 min 22 sec) 
Heartbeat CPU  0 instructions:  403000001 cycles:  782216212 heartbeat IPC: 1.50355 cumulative IPC: 0.51329 (Simulation time: 0 hr 35 min 25 sec) 
Heartbeat CPU  0 instructions:  404000000 cycles:  782951091 heartbeat IPC: 1.36077 cumulative IPC: 0.51409 (Simulation time: 0 hr 35 min 28 sec) 
Heartbeat CPU  0 instructions:  405000002 cycles:  783653166 heartbeat IPC: 1.42435 cumulative IPC: 0.51490 (Simulation time: 0 hr 35 min 31 sec) 
Heartbeat CPU  0 instructions:  406000003 cycles:  784321815 heartbeat IPC: 1.49555 cumulative IPC: 0.51574 (Simulation time: 0 hr 35 min 35 sec) 
Heartbeat CPU  0 instructions:  407000001 cycles:  784984089 heartbeat IPC: 1.50995 cumulative IPC: 0.51658 (Simulation time: 0 hr 35 min 38 sec) 
Heartbeat CPU  0 instructions:  408000000 cycles:  785699577 heartbeat IPC: 1.39765 cumulative IPC: 0.51738 (Simulation time: 0 hr 35 min 41 sec) 
Heartbeat CPU  0 instructions:  409000000 cycles:  786394714 heartbeat IPC: 1.43857 cumulative IPC: 0.51820 (Simulation time: 0 hr 35 min 45 sec) 
Heartbeat CPU  0 instructions:  410000001 cycles:  787072994 heartbeat IPC: 1.47432 cumulative IPC: 0.51902 (Simulation time: 0 hr 35 min 48 sec) 
Heartbeat CPU  0 instructions:  411000000 cycles:  787743921 heartbeat IPC: 1.49047 cumulative IPC: 0.51985 (Simulation time: 0 hr 35 min 53 sec) 
Heartbeat CPU  0 instructions:  412000000 cycles:  788446668 heartbeat IPC: 1.42299 cumulative IPC: 0.52066 (Simulation time: 0 hr 35 min 58 sec) 
Heartbeat CPU  0 instructions:  413000002 cycles:  789127181 heartbeat IPC: 1.46948 cumulative IPC: 0.52148 (Simulation time: 0 hr 36 min 3 sec) 
Heartbeat CPU  0 instructions:  414000002 cycles:  789829197 heartbeat IPC: 1.42447 cumulative IPC: 0.52228 (Simulation time: 0 hr 36 min 7 sec) 
Heartbeat CPU  0 instructions:  415000000 cycles:  790522848 heartbeat IPC: 1.44164 cumulative IPC: 0.52309 (Simulation time: 0 hr 36 min 12 sec) 
Heartbeat CPU  0 instructions:  416000000 cycles:  791227839 heartbeat IPC: 1.41846 cumulative IPC: 0.52389 (Simulation time: 0 hr 36 min 17 sec) 
Heartbeat CPU  0 instructions:  417000003 cycles:  791876989 heartbeat IPC: 1.54048 cumulative IPC: 0.52472 (Simulation time: 0 hr 36 min 22 sec) 
Heartbeat CPU  0 instructions:  418000003 cycles:  792576651 heartbeat IPC: 1.42926 cumulative IPC: 0.52552 (Simulation time: 0 hr 36 min 27 sec) 
Heartbeat CPU  0 instructions:  419000002 cycles:  793241259 heartbeat IPC: 1.50464 cumulative IPC: 0.52634 (Simulation time: 0 hr 36 min 32 sec) 
Heartbeat CPU  0 instructions:  420000000 cycles:  793918074 heartbeat IPC: 1.47751 cumulative IPC: 0.52715 (Simulation time: 0 hr 36 min 37 sec) 
Heartbeat CPU  0 instructions:  421000001 cycles:  794582343 heartbeat IPC: 1.50542 cumulative IPC: 0.52797 (Simulation time: 0 hr 36 min 41 sec) 
Heartbeat CPU  0 instructions:  422000000 cycles:  795276659 heartbeat IPC: 1.44026 cumulative IPC: 0.52877 (Simulation time: 0 hr 36 min 45 sec) 
Heartbeat CPU  0 instructions:  423000000 cycles:  795939799 heartbeat IPC: 1.50798 cumulative IPC: 0.52959 (Simulation time: 0 hr 36 min 48 sec) 
Heartbeat CPU  0 instructions:  424000000 cycles:  796628943 heartbeat IPC: 1.45108 cumulative IPC: 0.53039 (Simulation time: 0 hr 36 min 51 sec) 
Heartbeat CPU  0 instructions:  425000000 cycles:  797296937 heartbeat IPC: 1.49702 cumulative IPC: 0.53120 (Simulation time: 0 hr 36 min 55 sec) 
Heartbeat CPU  0 instructions:  426000000 cycles:  797977916 heartbeat IPC: 1.46847 cumulative IPC: 0.53200 (Simulation time: 0 hr 36 min 58 sec) 
Heartbeat CPU  0 instructions:  427000001 cycles:  798642486 heartbeat IPC: 1.50473 cumulative IPC: 0.53281 (Simulation time: 0 hr 37 min 2 sec) 
Heartbeat CPU  0 instructions:  428000000 cycles:  799314848 heartbeat IPC: 1.48729 cumulative IPC: 0.53361 (Simulation time: 0 hr 37 min 5 sec) 
Heartbeat CPU  0 instructions:  429000001 cycles:  800023571 heartbeat IPC: 1.41099 cumulative IPC: 0.53439 (Simulation time: 0 hr 37 min 9 sec) 
Heartbeat CPU  0 instructions:  430000002 cycles:  800719001 heartbeat IPC: 1.43796 cumulative IPC: 0.53518 (Simulation time: 0 hr 37 min 12 sec) 
Heartbeat CPU  0 instructions:  431000002 cycles:  801407532 heartbeat IPC: 1.45237 cumulative IPC: 0.53596 (Simulation time: 0 hr 37 min 15 sec) 
Heartbeat CPU  0 instructions:  432000000 cycles:  802090366 heartbeat IPC: 1.46448 cumulative IPC: 0.53676 (Simulation time: 0 hr 37 min 20 sec) 
Heartbeat CPU  0 instructions:  433000001 cycles:  802781750 heartbeat IPC: 1.44638 cumulative IPC: 0.53754 (Simulation time: 0 hr 37 min 25 sec) 
Heartbeat CPU  0 instructions:  434000002 cycles:  803447272 heartbeat IPC: 1.50258 cumulative IPC: 0.53834 (Simulation time: 0 hr 37 min 29 sec) 
Heartbeat CPU  0 instructions:  435000000 cycles:  804126347 heartbeat IPC: 1.47259 cumulative IPC: 0.53913 (Simulation time: 0 hr 37 min 32 sec) 
Heartbeat CPU  0 instructions:  436000000 cycles:  804784652 heartbeat IPC: 1.51905 cumulative IPC: 0.53993 (Simulation time: 0 hr 37 min 36 sec) 
Heartbeat CPU  0 instructions:  437000002 cycles:  805467289 heartbeat IPC: 1.46491 cumulative IPC: 0.54072 (Simulation time: 0 hr 37 min 39 sec) 
Heartbeat CPU  0 instructions:  438000001 cycles:  806125734 heartbeat IPC: 1.51873 cumulative IPC: 0.54152 (Simulation time: 0 hr 37 min 42 sec) 
Heartbeat CPU  0 instructions:  439000003 cycles:  806812266 heartbeat IPC: 1.45660 cumulative IPC: 0.54230 (Simulation time: 0 hr 37 min 45 sec) 
Heartbeat CPU  0 instructions:  440000000 cycles:  807473875 heartbeat IPC: 1.51146 cumulative IPC: 0.54309 (Simulation time: 0 hr 37 min 49 sec) 
Heartbeat CPU  0 instructions:  441000003 cycles:  808159903 heartbeat IPC: 1.45767 cumulative IPC: 0.54387 (Simulation time: 0 hr 37 min 52 sec) 
Heartbeat CPU  0 instructions:  442000000 cycles:  808822683 heartbeat IPC: 1.50879 cumulative IPC: 0.54466 (Simulation time: 0 hr 37 min 57 sec) 
Heartbeat CPU  0 instructions:  443000003 cycles:  809498915 heartbeat IPC: 1.47879 cumulative IPC: 0.54544 (Simulation time: 0 hr 38 min 2 sec) 
Heartbeat CPU  0 instructions:  444000000 cycles:  810164863 heartbeat IPC: 1.50161 cumulative IPC: 0.54623 (Simulation time: 0 hr 38 min 6 sec) 
Heartbeat CPU  0 instructions:  445000001 cycles:  810845279 heartbeat IPC: 1.46969 cumulative IPC: 0.54701 (Simulation time: 0 hr 38 min 11 sec) 
Heartbeat CPU  0 instructions:  446000002 cycles:  811539288 heartbeat IPC: 1.44090 cumulative IPC: 0.54777 (Simulation time: 0 hr 38 min 16 sec) 
Heartbeat CPU  0 instructions:  447000003 cycles:  812238753 heartbeat IPC: 1.42967 cumulative IPC: 0.54853 (Simulation time: 0 hr 38 min 21 sec) 
Heartbeat CPU  0 instructions:  448000000 cycles:  812920861 heartbeat IPC: 1.46604 cumulative IPC: 0.54930 (Simulation time: 0 hr 38 min 26 sec) 
Heartbeat CPU  0 instructions:  449000001 cycles:  813613159 heartbeat IPC: 1.44447 cumulative IPC: 0.55006 (Simulation time: 0 hr 38 min 31 sec) 
Heartbeat CPU  0 instructions:  450000000 cycles:  814287659 heartbeat IPC: 1.48258 cumulative IPC: 0.55084 (Simulation time: 0 hr 38 min 35 sec) 
Heartbeat CPU  0 instructions:  451000002 cycles:  814966497 heartbeat IPC: 1.47311 cumulative IPC: 0.55161 (Simulation time: 0 hr 38 min 38 sec) 
Heartbeat CPU  0 instructions:  452000000 cycles:  815638878 heartbeat IPC: 1.48725 cumulative IPC: 0.55238 (Simulation time: 0 hr 38 min 41 sec) 
Heartbeat CPU  0 instructions:  453000001 cycles:  816302496 heartbeat IPC: 1.50689 cumulative IPC: 0.55316 (Simulation time: 0 hr 38 min 45 sec) 
Heartbeat CPU  0 instructions:  454000003 cycles:  816972275 heartbeat IPC: 1.49303 cumulative IPC: 0.55393 (Simulation time: 0 hr 38 min 48 sec) 
Heartbeat CPU  0 instructions:  455000003 cycles:  817652978 heartbeat IPC: 1.46907 cumulative IPC: 0.55469 (Simulation time: 0 hr 38 min 51 sec) 
Heartbeat CPU  0 instructions:  456000000 cycles:  818328438 heartbeat IPC: 1.48047 cumulative IPC: 0.55546 (Simulation time: 0 hr 38 min 55 sec) 
Heartbeat CPU  0 instructions:  457000000 cycles:  818988280 heartbeat IPC: 1.51551 cumulative IPC: 0.55623 (Simulation time: 0 hr 38 min 58 sec) 
Heartbeat CPU  0 instructions:  458000002 cycles:  819666577 heartbeat IPC: 1.47428 cumulative IPC: 0.55699 (Simulation time: 0 hr 39 min 3 sec) 
Heartbeat CPU  0 instructions:  459000003 cycles:  820337913 heartbeat IPC: 1.48957 cumulative IPC: 0.55775 (Simulation time: 0 hr 39 min 8 sec) 
Heartbeat CPU  0 instructions:  460000000 cycles:  821018139 heartbeat IPC: 1.47010 cumulative IPC: 0.55851 (Simulation time: 0 hr 39 min 13 sec) 
Heartbeat CPU  0 instructions:  461000002 cycles:  821680629 heartbeat IPC: 1.50946 cumulative IPC: 0.55928 (Simulation time: 0 hr 39 min 18 sec) 
Heartbeat CPU  0 instructions:  462000000 cycles:  822368702 heartbeat IPC: 1.45333 cumulative IPC: 0.56003 (Simulation time: 0 hr 39 min 23 sec) 
Heartbeat CPU  0 instructions:  463000002 cycles:  823057129 heartbeat IPC: 1.45259 cumulative IPC: 0.56078 (Simulation time: 0 hr 39 min 28 sec) 
Heartbeat CPU  0 instructions:  464000000 cycles:  823756662 heartbeat IPC: 1.42952 cumulative IPC: 0.56151 (Simulation time: 0 hr 39 min 32 sec) 
Heartbeat CPU  0 instructions:  465000000 cycles:  824440257 heartbeat IPC: 1.46285 cumulative IPC: 0.56226 (Simulation time: 0 hr 39 min 37 sec) 
Heartbeat CPU  0 instructions:  466000002 cycles:  825150240 heartbeat IPC: 1.40849 cumulative IPC: 0.56299 (Simulation time: 0 hr 39 min 42 sec) 
Heartbeat CPU  0 instructions:  467000000 cycles:  825796674 heartbeat IPC: 1.54695 cumulative IPC: 0.56376 (Simulation time: 0 hr 39 min 47 sec) 
Heartbeat CPU  0 instructions:  468000000 cycles:  826497190 heartbeat IPC: 1.42752 cumulative IPC: 0.56450 (Simulation time: 0 hr 39 min 52 sec) 
Heartbeat CPU  0 instructions:  469000000 cycles:  827159746 heartbeat IPC: 1.50931 cumulative IPC: 0.56525 (Simulation time: 0 hr 39 min 57 sec) 
Heartbeat CPU  0 instructions:  470000003 cycles:  827838858 heartbeat IPC: 1.47252 cumulative IPC: 0.56600 (Simulation time: 0 hr 40 min 2 sec) 
Heartbeat CPU  0 instructions:  471000001 cycles:  828493348 heartbeat IPC: 1.52790 cumulative IPC: 0.56676 (Simulation time: 0 hr 40 min 7 sec) 
Heartbeat CPU  0 instructions:  472000000 cycles:  829188280 heartbeat IPC: 1.43899 cumulative IPC: 0.56749 (Simulation time: 0 hr 40 min 12 sec) 
Heartbeat CPU  0 instructions:  473000003 cycles:  829846265 heartbeat IPC: 1.51980 cumulative IPC: 0.56825 (Simulation time: 0 hr 40 min 17 sec) 
Heartbeat CPU  0 instructions:  474000001 cycles:  830507280 heartbeat IPC: 1.51282 cumulative IPC: 0.56900 (Simulation time: 0 hr 40 min 22 sec) 
Heartbeat CPU  0 instructions:  475000001 cycles:  831196786 heartbeat IPC: 1.45031 cumulative IPC: 0.56973 (Simulation time: 0 hr 40 min 27 sec) 
Heartbeat CPU  0 instructions:  476000000 cycles:  831869545 heartbeat IPC: 1.48641 cumulative IPC: 0.57047 (Simulation time: 0 hr 40 min 32 sec) 
Heartbeat CPU  0 instructions:  477000000 cycles:  832537929 heartbeat IPC: 1.49615 cumulative IPC: 0.57122 (Simulation time: 0 hr 40 min 37 sec) 
Heartbeat CPU  0 instructions:  478000001 cycles:  833205864 heartbeat IPC: 1.49715 cumulative IPC: 0.57196 (Simulation time: 0 hr 40 min 42 sec) 
Heartbeat CPU  0 instructions:  479000002 cycles:  833911813 heartbeat IPC: 1.41653 cumulative IPC: 0.57268 (Simulation time: 0 hr 40 min 47 sec) 
Heartbeat CPU  0 instructions:  480000000 cycles:  834594869 heartbeat IPC: 1.46401 cumulative IPC: 0.57341 (Simulation time: 0 hr 40 min 52 sec) 
Heartbeat CPU  0 instructions:  481000002 cycles:  835287843 heartbeat IPC: 1.44306 cumulative IPC: 0.57413 (Simulation time: 0 hr 40 min 58 sec) 
Heartbeat CPU  0 instructions:  482000000 cycles:  835971129 heartbeat IPC: 1.46351 cumulative IPC: 0.57486 (Simulation time: 0 hr 41 min 3 sec) 
Heartbeat CPU  0 instructions:  483000000 cycles:  836673600 heartbeat IPC: 1.42355 cumulative IPC: 0.57557 (Simulation time: 0 hr 41 min 8 sec) 
Heartbeat CPU  0 instructions:  484000000 cycles:  837324164 heartbeat IPC: 1.53713 cumulative IPC: 0.57632 (Simulation time: 0 hr 41 min 13 sec) 
Heartbeat CPU  0 instructions:  485000003 cycles:  838012392 heartbeat IPC: 1.45301 cumulative IPC: 0.57704 (Simulation time: 0 hr 41 min 18 sec) 
Heartbeat CPU  0 instructions:  486000003 cycles:  838674438 heartbeat IPC: 1.51047 cumulative IPC: 0.57778 (Simulation time: 0 hr 41 min 23 sec) 
Heartbeat CPU  0 instructions:  487000000 cycles:  839356789 heartbeat IPC: 1.46552 cumulative IPC: 0.57850 (Simulation time: 0 hr 41 min 28 sec) 
Heartbeat CPU  0 instructions:  488000000 cycles:  840009417 heartbeat IPC: 1.53227 cumulative IPC: 0.57924 (Simulation time: 0 hr 41 min 33 sec) 
Heartbeat CPU  0 instructions:  489000001 cycles:  840705687 heartbeat IPC: 1.43623 cumulative IPC: 0.57995 (Simulation time: 0 hr 41 min 38 sec) 
Heartbeat CPU  0 instructions:  490000001 cycles:  841368126 heartbeat IPC: 1.50957 cumulative IPC: 0.58068 (Simulation time: 0 hr 41 min 44 sec) 
Heartbeat CPU  0 instructions:  491000002 cycles:  842033248 heartbeat IPC: 1.50349 cumulative IPC: 0.58141 (Simulation time: 0 hr 41 min 49 sec) 
Heartbeat CPU  0 instructions:  492000000 cycles:  842716044 heartbeat IPC: 1.46456 cumulative IPC: 0.58213 (Simulation time: 0 hr 41 min 54 sec) 
Heartbeat CPU  0 instructions:  493000000 cycles:  843400614 heartbeat IPC: 1.46077 cumulative IPC: 0.58285 (Simulation time: 0 hr 41 min 59 sec) 
Heartbeat CPU  0 instructions:  494000002 cycles:  844069091 heartbeat IPC: 1.49594 cumulative IPC: 0.58357 (Simulation time: 0 hr 42 min 4 sec) 
Heartbeat CPU  0 instructions:  495000000 cycles:  844748341 heartbeat IPC: 1.47221 cumulative IPC: 0.58428 (Simulation time: 0 hr 42 min 9 sec) 
Heartbeat CPU  0 instructions:  496000000 cycles:  845436181 heartbeat IPC: 1.45383 cumulative IPC: 0.58499 (Simulation time: 0 hr 42 min 12 sec) 
Heartbeat CPU  0 instructions:  497000001 cycles:  846143487 heartbeat IPC: 1.41382 cumulative IPC: 0.58569 (Simulation time: 0 hr 42 min 16 sec) 
Heartbeat CPU  0 instructions:  498000000 cycles:  846826235 heartbeat IPC: 1.46467 cumulative IPC: 0.58640 (Simulation time: 0 hr 42 min 19 sec) 
Heartbeat CPU  0 instructions:  499000000 cycles:  847510183 heartbeat IPC: 1.46210 cumulative IPC: 0.58710 (Simulation time: 0 hr 42 min 24 sec) 
Heartbeat CPU  0 instructions:  500000000 cycles:  848193873 heartbeat IPC: 1.46265 cumulative IPC: 0.58781 (Simulation time: 0 hr 42 min 29 sec) 
Heartbeat CPU  0 instructions:  501000001 cycles:  848873295 heartbeat IPC: 1.47184 cumulative IPC: 0.58852 (Simulation time: 0 hr 42 min 33 sec) 
Heartbeat CPU  0 instructions:  502000001 cycles:  849543753 heartbeat IPC: 1.49152 cumulative IPC: 0.58923 (Simulation time: 0 hr 42 min 37 sec) 
Heartbeat CPU  0 instructions:  503000000 cycles:  850202105 heartbeat IPC: 1.51894 cumulative IPC: 0.58995 (Simulation time: 0 hr 42 min 40 sec) 
Heartbeat CPU  0 instructions:  504000000 cycles:  850889240 heartbeat IPC: 1.45532 cumulative IPC: 0.59065 (Simulation time: 0 hr 42 min 43 sec) 
Heartbeat CPU  0 instructions:  505000000 cycles:  851554863 heartbeat IPC: 1.50235 cumulative IPC: 0.59137 (Simulation time: 0 hr 42 min 46 sec) 
Heartbeat CPU  0 instructions:  506000000 cycles:  852237636 heartbeat IPC: 1.46462 cumulative IPC: 0.59207 (Simulation time: 0 hr 42 min 50 sec) 
Heartbeat CPU  0 instructions:  507000003 cycles:  852894679 heartbeat IPC: 1.52197 cumulative IPC: 0.59278 (Simulation time: 0 hr 42 min 53 sec) 
Heartbeat CPU  0 instructions:  508000000 cycles:  853590568 heartbeat IPC: 1.43701 cumulative IPC: 0.59347 (Simulation time: 0 hr 42 min 56 sec) 
Heartbeat CPU  0 instructions:  509000001 cycles:  854255581 heartbeat IPC: 1.50373 cumulative IPC: 0.59418 (Simulation time: 0 hr 42 min 59 sec) 
Heartbeat CPU  0 instructions:  510000003 cycles:  854934362 heartbeat IPC: 1.47323 cumulative IPC: 0.59488 (Simulation time: 0 hr 43 min 2 sec) 
Heartbeat CPU  0 instructions:  511000002 cycles:  855597478 heartbeat IPC: 1.50803 cumulative IPC: 0.59559 (Simulation time: 0 hr 43 min 6 sec) 
Heartbeat CPU  0 instructions:  512000000 cycles:  856299047 heartbeat IPC: 1.42537 cumulative IPC: 0.59627 (Simulation time: 0 hr 43 min 9 sec) 
Heartbeat CPU  0 instructions:  513000002 cycles:  856987987 heartbeat IPC: 1.45151 cumulative IPC: 0.59696 (Simulation time: 0 hr 43 min 12 sec) 
Heartbeat CPU  0 instructions:  514000001 cycles:  857686037 heartbeat IPC: 1.43256 cumulative IPC: 0.59764 (Simulation time: 0 hr 43 min 16 sec) 
Heartbeat CPU  0 instructions:  515000002 cycles:  858369690 heartbeat IPC: 1.46273 cumulative IPC: 0.59833 (Simulation time: 0 hr 43 min 19 sec) 
Heartbeat CPU  0 instructions:  516000000 cycles:  859074697 heartbeat IPC: 1.41842 cumulative IPC: 0.59900 (Simulation time: 0 hr 43 min 22 sec) 
Heartbeat CPU  0 instructions:  517000003 cycles:  859741530 heartbeat IPC: 1.49963 cumulative IPC: 0.59970 (Simulation time: 0 hr 43 min 25 sec) 
Heartbeat CPU  0 instructions:  518000002 cycles:  860433922 heartbeat IPC: 1.44427 cumulative IPC: 0.60038 (Simulation time: 0 hr 43 min 29 sec) 
Heartbeat CPU  0 instructions:  519000003 cycles:  861096577 heartbeat IPC: 1.50908 cumulative IPC: 0.60108 (Simulation time: 0 hr 43 min 32 sec) 
Heartbeat CPU  0 instructions:  520000000 cycles:  861758993 heartbeat IPC: 1.50962 cumulative IPC: 0.60178 (Simulation time: 0 hr 43 min 35 sec) 
Heartbeat CPU  0 instructions:  521000001 cycles:  862441804 heartbeat IPC: 1.46454 cumulative IPC: 0.60247 (Simulation time: 0 hr 43 min 39 sec) 
Heartbeat CPU  0 instructions:  522000003 cycles:  863126400 heartbeat IPC: 1.46072 cumulative IPC: 0.60315 (Simulation time: 0 hr 43 min 42 sec) 
Heartbeat CPU  0 instructions:  523000002 cycles:  863797610 heartbeat IPC: 1.48985 cumulative IPC: 0.60384 (Simulation time: 0 hr 43 min 45 sec) 
Heartbeat CPU  0 instructions:  524000000 cycles:  864460545 heartbeat IPC: 1.50844 cumulative IPC: 0.60453 (Simulation time: 0 hr 43 min 49 sec) 
Heartbeat CPU  0 instructions:  525000002 cycles:  865141819 heartbeat IPC: 1.46784 cumulative IPC: 0.60521 (Simulation time: 0 hr 43 min 52 sec) 
Heartbeat CPU  0 instructions:  526000000 cycles:  865819271 heartbeat IPC: 1.47612 cumulative IPC: 0.60589 (Simulation time: 0 hr 43 min 55 sec) 
Heartbeat CPU  0 instructions:  527000002 cycles:  866499148 heartbeat IPC: 1.47086 cumulative IPC: 0.60657 (Simulation time: 0 hr 43 min 59 sec) 
Heartbeat CPU  0 instructions:  528000000 cycles:  867168590 heartbeat IPC: 1.49378 cumulative IPC: 0.60726 (Simulation time: 0 hr 44 min 5 sec) 
Heartbeat CPU  0 instructions:  529000003 cycles:  867856905 heartbeat IPC: 1.45283 cumulative IPC: 0.60793 (Simulation time: 0 hr 44 min 8 sec) 
Heartbeat CPU  0 instructions:  530000001 cycles:  868546941 heartbeat IPC: 1.44920 cumulative IPC: 0.60860 (Simulation time: 0 hr 44 min 12 sec) 
Heartbeat CPU  0 instructions:  531000002 cycles:  869252429 heartbeat IPC: 1.41746 cumulative IPC: 0.60926 (Simulation time: 0 hr 44 min 15 sec) 
[...]
Heartbeat CPU  0 instructions:  547000002 cycles:  880058343 heartbeat IPC: 1.44605 cumulative IPC: 0.61997 (Simulation time: 0 hr 45 min 16 sec) 
Heartbeat CPU  0 instructions:  548000000 cycles:  880742788 heartbeat IPC: 1.46103 cumulative IPC: 0.62062 (Simulation time: 0 hr 45 min 19 sec) 
Heartbeat CPU  0 instructions:  549000003 cycles:  881426696 heartbeat IPC: 1.46219 cumulative IPC: 0.62128 (Simulation time: 0 hr 45 min 22 sec) 
Heartbeat CPU  0 instructions:  550000002 cycles:  882126346 heartbeat IPC: 1.42928 cumulative IPC: 0.62192 (Simulation time: 0 hr 45 min 26 sec) 
Heartbeat CPU  0 instructions:  551000000 cycles:  882789772 heartbeat IPC: 1.50732 cumulative IPC: 0.62258 (Simulation time: 0 hr 45 min 29 sec) 
Heartbeat CPU  0 instructions:  552000000 cycles:  883467438 heartbeat IPC: 1.47565 cumulative IPC: 0.62324 (Simulation time: 0 hr 45 min 33 sec) 
Heartbeat CPU  0 instructions:  553000001 cycles:  884127127 heartbeat IPC: 1.51587 cumulative IPC: 0.62391 (Simulation time: 0 hr 45 min 38 sec) 
Heartbeat CPU  0 instructions:  554000003 cycles:  884815635 heartbeat IPC: 1.45242 cumulative IPC: 0.62455 (Simulation time: 0 hr 45 min 43 sec) 
Heartbeat CPU  0 instructions:  555000000 cycles:  885463371 heartbeat IPC: 1.54383 cumulative IPC: 0.62522 (Simulation time: 0 hr 45 min 48 sec) 
Heartbeat CPU  0 instructions:  556000000 cycles:  886148808 heartbeat IPC: 1.45892 cumulative IPC: 0.62587 (Simulation time: 0 hr 45 min 53 sec) 
Heartbeat CPU  0 instructions:  557000002 cycles:  886820811 heartbeat IPC: 1.48809 cumulative IPC: 0.62652 (Simulation time: 0 hr 45 min 59 sec) 
Heartbeat CPU  0 instructions:  558000001 cycles:  887506628 heartbeat IPC: 1.45811 cumulative IPC: 0.62717 (Simulation time: 0 hr 46 min 4 sec) 
Heartbeat CPU  0 instructions:  559000002 cycles:  888170158 heartbeat IPC: 1.50709 cumulative IPC: 0.62783 (Simulation time: 0 hr 46 min 9 sec) 
Heartbeat CPU  0 instructions:  560000000 cycles:  888843459 heartbeat IPC: 1.48522 cumulative IPC: 0.62848 (Simulation time: 0 hr 46 min 12 sec) 
Heartbeat CPU  0 instructions:  561000000 cycles:  889517761 heartbeat IPC: 1.48302 cumulative IPC: 0.62912 (Simulation time: 0 hr 46 min 15 sec) 
Heartbeat CPU  0 instructions:  562000003 cycles:  890187430 heartbeat IPC: 1.49328 cumulative IPC: 0.62978 (Simulation time: 0 hr 46 min 19 sec) 
Heartbeat CPU  0 instructions:  563000001 cycles:  890884391 heartbeat IPC: 1.43480 cumulative IPC: 0.63041 (Simulation time: 0 hr 46 min 22 sec) 
Heartbeat CPU  0 instructions:  564000000 cycles:  891597553 heartbeat IPC: 1.40220 cumulative IPC: 0.63102 (Simulation time: 0 hr 46 min 25 sec) 
Heartbeat CPU  0 instructions:  565000003 cycles:  892287117 heartbeat IPC: 1.45020 cumulative IPC: 0.63166 (Simulation time: 0 hr 46 min 29 sec) 
Heartbeat CPU  0 instructions:  566000003 cycles:  892985390 heartbeat IPC: 1.43210 cumulative IPC: 0.63228 (Simulation time: 0 hr 46 min 32 sec) 
Heartbeat CPU  0 instructions:  567000001 cycles:  893644136 heartbeat IPC: 1.51803 cumulative IPC: 0.63294 (Simulation time: 0 hr 46 min 35 sec) 
Heartbeat CPU  0 instructions:  568000000 cycles:  894342241 heartbeat IPC: 1.43245 cumulative IPC: 0.63356 (Simulation time: 0 hr 46 min 39 sec) 
Heartbeat CPU  0 instructions:  569000001 cycles:  895002845 heartbeat IPC: 1.51377 cumulative IPC: 0.63421 (Simulation time: 0 hr 46 min 42 sec) 
Heartbeat CPU  0 instructions:  570000001 cycles:  895658060 heartbeat IPC: 1.52622 cumulative IPC: 0.63487 (Simulation time: 0 hr 46 min 46 sec) 
Heartbeat CPU  0 instructions:  571000002 cycles:  896335578 heartbeat IPC: 1.47598 cumulative IPC: 0.63550 (Simulation time: 0 hr 46 min 51 sec) 
Heartbeat CPU  0 instructions:  572000000 cycles:  897021095 heartbeat IPC: 1.45875 cumulative IPC: 0.63613 (Simulation time: 0 hr 46 min 56 sec) 
Heartbeat CPU  0 instructions:  573000001 cycles:  897690465 heartbeat IPC: 1.49394 cumulative IPC: 0.63677 (Simulation time: 0 hr 47 min 2 sec) 
Heartbeat CPU  0 instructions:  574000000 cycles:  898345328 heartbeat IPC: 1.52704 cumulative IPC: 0.63742 (Simulation time: 0 hr 47 min 7 sec) 
Heartbeat CPU  0 instructions:  575000002 cycles:  899033649 heartbeat IPC: 1.45281 cumulative IPC: 0.63805 (Simulation time: 0 hr 47 min 12 sec) 
Heartbeat CPU  0 instructions:  576000000 cycles:  899701475 heartbeat IPC: 1.49739 cumulative IPC: 0.63869 (Simulation time: 0 hr 47 min 17 sec) 
Heartbeat CPU  0 instructions:  577000000 cycles:  900377298 heartbeat IPC: 1.47968 cumulative IPC: 0.63932 (Simulation time: 0 hr 47 min 21 sec) 
Heartbeat CPU  0 instructions:  578000000 cycles:  901038724 heartbeat IPC: 1.51188 cumulative IPC: 0.63996 (Simulation time: 0 hr 47 min 26 sec) 
Heartbeat CPU  0 instructions:  579000000 cycles:  901736811 heartbeat IPC: 1.43249 cumulative IPC: 0.64057 (Simulation time: 0 hr 47 min 31 sec) 
Heartbeat CPU  0 instructions:  580000000 cycles:  902423172 heartbeat IPC: 1.45696 cumulative IPC: 0.64119 (Simulation time: 0 hr 47 min 36 sec) 
Heartbeat CPU  0 instructions:  581000000 cycles:  903121350 heartbeat IPC: 1.43230 cumulative IPC: 0.64181 (Simulation time: 0 hr 47 min 40 sec) 
Heartbeat CPU  0 instructions:  582000003 cycles:  903806812 heartbeat IPC: 1.45887 cumulative IPC: 0.64243 (Simulation time: 0 hr 47 min 44 sec) 
Heartbeat CPU  0 instructions:  583000003 cycles:  904512024 heartbeat IPC: 1.41801 cumulative IPC: 0.64303 (Simulation time: 0 hr 47 min 49 sec) 
Heartbeat CPU  0 instructions:  584000000 cycles:  905168227 heartbeat IPC: 1.52391 cumulative IPC: 0.64367 (Simulation time: 0 hr 47 min 54 sec) 
Heartbeat CPU  0 instructions:  585000001 cycles:  905864996 heartbeat IPC: 1.43520 cumulative IPC: 0.64428 (Simulation time: 0 hr 47 min 59 sec) 
Heartbeat CPU  0 instructions:  586000001 cycles:  906529291 heartbeat IPC: 1.50536 cumulative IPC: 0.64491 (Simulation time: 0 hr 48 min 4 sec) 
Heartbeat CPU  0 instructions:  587000001 cycles:  907211063 heartbeat IPC: 1.46677 cumulative IPC: 0.64553 (Simulation time: 0 hr 48 min 8 sec) 
Heartbeat CPU  0 instructions:  588000000 cycles:  907876773 heartbeat IPC: 1.50215 cumulative IPC: 0.64616 (Simulation time: 0 hr 48 min 12 sec) 
Heartbeat CPU  0 instructions:  589000001 cycles:  908568935 heartbeat IPC: 1.44475 cumulative IPC: 0.64677 (Simulation time: 0 hr 48 min 15 sec) 
Heartbeat CPU  0 instructions:  590000002 cycles:  909233276 heartbeat IPC: 1.50525 cumulative IPC: 0.64740 (Simulation time: 0 hr 48 min 18 sec) 
Heartbeat CPU  0 instructions:  591000003 cycles:  909897433 heartbeat IPC: 1.50567 cumulative IPC: 0.64802 (Simulation time: 0 hr 48 min 22 sec) 
Heartbeat CPU  0 instructions:  592000000 cycles:  910587080 heartbeat IPC: 1.45001 cumulative IPC: 0.64863 (Simulation time: 0 hr 48 min 25 sec) 
Heartbeat CPU  0 instructions:  593000000 cycles:  911258676 heartbeat IPC: 1.48899 cumulative IPC: 0.64925 (Simulation time: 0 hr 48 min 28 sec) 
Heartbeat CPU  0 instructions:  594000002 cycles:  911934530 heartbeat IPC: 1.47961 cumulative IPC: 0.64987 (Simulation time: 0 hr 48 min 32 sec) 
Heartbeat CPU  0 instructions:  595000003 cycles:  912602822 heartbeat IPC: 1.49635 cumulative IPC: 0.65049 (Simulation time: 0 hr 48 min 35 sec) 
Heartbeat CPU  0 instructions:  596000000 cycles:  913298490 heartbeat IPC: 1.43746 cumulative IPC: 0.65109 (Simulation time: 0 hr 48 min 38 sec) 
Heartbeat CPU  0 instructions:  597000001 cycles:  913993737 heartbeat IPC: 1.43834 cumulative IPC: 0.65169 (Simulation time: 0 hr 48 min 41 sec) 
Heartbeat CPU  0 instructions:  598000001 cycles:  914698249 heartbeat IPC: 1.41942 cumulative IPC: 0.65228 (Simulation time: 0 hr 48 min 45 sec) 
Heartbeat CPU  0 instructions:  599000001 cycles:  915383240 heartbeat IPC: 1.45987 cumulative IPC: 0.65289 (Simulation time: 0 hr 48 min 48 sec) 
Heartbeat CPU  0 instructions:  600000000 cycles:  916065043 heartbeat IPC: 1.46670 cumulative IPC: 0.65349 (Simulation time: 0 hr 48 min 51 sec) 
Heartbeat CPU  0 instructions:  601000002 cycles:  916732510 heartbeat IPC: 1.49820 cumulative IPC: 0.65411 (Simulation time: 0 hr 48 min 54 sec) 
Heartbeat CPU  0 instructions:  602000000 cycles:  917422996 heartbeat IPC: 1.44825 cumulative IPC: 0.65471 (Simulation time: 0 hr 48 min 57 sec) 
Heartbeat CPU  0 instructions:  603000000 cycles:  918076437 heartbeat IPC: 1.53036 cumulative IPC: 0.65533 (Simulation time: 0 hr 49 min 1 sec) 
Heartbeat CPU  0 instructions:  604000000 cycles:  918755075 heartbeat IPC: 1.47354 cumulative IPC: 0.65593 (Simulation time: 0 hr 49 min 4 sec) 
Heartbeat CPU  0 instructions:  605000003 cycles:  919411926 heartbeat IPC: 1.52242 cumulative IPC: 0.65655 (Simulation time: 0 hr 49 min 7 sec) 
Heartbeat CPU  0 instructions:  606000001 cycles:  920105899 heartbeat IPC: 1.44098 cumulative IPC: 0.65715 (Simulation time: 0 hr 49 min 10 sec) 
Heartbeat CPU  0 instructions:  607000000 cycles:  920758637 heartbeat IPC: 1.53201 cumulative IPC: 0.65777 (Simulation time: 0 hr 49 min 14 sec) 
Heartbeat CPU  0 instructions:  608000000 cycles:  921439549 heartbeat IPC: 1.46862 cumulative IPC: 0.65837 (Simulation time: 0 hr 49 min 17 sec) 
Heartbeat CPU  0 instructions:  609000002 cycles:  922103526 heartbeat IPC: 1.50608 cumulative IPC: 0.65898 (Simulation time: 0 hr 49 min 20 sec) 
Heartbeat CPU  0 instructions:  610000000 cycles:  922783627 heartbeat IPC: 1.47037 cumulative IPC: 0.65958 (Simulation time: 0 hr 49 min 23 sec) 
Heartbeat CPU  0 instructions:  611000001 cycles:  923444667 heartbeat IPC: 1.51277 cumulative IPC: 0.66019 (Simulation time: 0 hr 49 min 27 sec) 
Heartbeat CPU  0 instructions:  612000000 cycles:  924122023 heartbeat IPC: 1.47633 cumulative IPC: 0.66079 (Simulation time: 0 hr 49 min 30 sec) 
Heartbeat CPU  0 instructions:  613000001 cycles:  924820815 heartbeat IPC: 1.43104 cumulative IPC: 0.66137 (Simulation time: 0 hr 49 min 33 sec) 
Heartbeat CPU  0 instructions:  614000002 cycles:  925517197 heartbeat IPC: 1.43599 cumulative IPC: 0.66195 (Simulation time: 0 hr 49 min 37 sec) 
Heartbeat CPU  0 instructions:  615000001 cycles:  926200820 heartbeat IPC: 1.46279 cumulative IPC: 0.66255 (Simulation time: 0 hr 49 min 40 sec) 
Heartbeat CPU  0 instructions:  616000000 cycles:  926881585 heartbeat IPC: 1.46893 cumulative IPC: 0.66314 (Simulation time: 0 hr 49 min 43 sec) 
Heartbeat CPU  0 instructions:  617000002 cycles:  927572715 heartbeat IPC: 1.44691 cumulative IPC: 0.66372 (Simulation time: 0 hr 49 min 46 sec) 
Heartbeat CPU  0 instructions:  618000001 cycles:  928250972 heartbeat IPC: 1.47437 cumulative IPC: 0.66432 (Simulation time: 0 hr 49 min 51 sec) 
Heartbeat CPU  0 instructions:  619000000 cycles:  928923939 heartbeat IPC: 1.48596 cumulative IPC: 0.66491 (Simulation time: 0 hr 49 min 56 sec) 
Heartbeat CPU  0 instructions:  620000000 cycles:  929577507 heartbeat IPC: 1.53006 cumulative IPC: 0.66552 (Simulation time: 0 hr 50 min 0 sec) 
Heartbeat CPU  0 instructions:  621000001 cycles:  930265431 heartbeat IPC: 1.45365 cumulative IPC: 0.66610 (Simulation time: 0 hr 50 min 3 sec) 
Heartbeat CPU  0 instructions:  622000000 cycles:  930929802 heartbeat IPC: 1.50518 cumulative IPC: 0.66670 (Simulation time: 0 hr 50 min 6 sec) 
Heartbeat CPU  0 instructions:  623000000 cycles:  931609502 heartbeat IPC: 1.47124 cumulative IPC: 0.66729 (Simulation time: 0 hr 50 min 10 sec) 
Heartbeat CPU  0 instructions:  624000000 cycles:  932263928 heartbeat IPC: 1.52806 cumulative IPC: 0.66790 (Simulation time: 0 hr 50 min 13 sec) 
Heartbeat CPU  0 instructions:  625000003 cycles:  932959821 heartbeat IPC: 1.43701 cumulative IPC: 0.66847 (Simulation time: 0 hr 50 min 16 sec) 
Heartbeat CPU  0 instructions:  626000003 cycles:  933625137 heartbeat IPC: 1.50305 cumulative IPC: 0.66907 (Simulation time: 0 hr 50 min 20 sec) 
Heartbeat CPU  0 instructions:  627000003 cycles:  934302864 heartbeat IPC: 1.47552 cumulative IPC: 0.66965 (Simulation time: 0 hr 50 min 23 sec) 
Heartbeat CPU  0 instructions:  628000000 cycles:  934968143 heartbeat IPC: 1.50312 cumulative IPC: 0.67024 (Simulation time: 0 hr 50 min 26 sec) 
Heartbeat CPU  0 instructions:  629000002 cycles:  935661079 heartbeat IPC: 1.44314 cumulative IPC: 0.67082 (Simulation time: 0 hr 50 min 29 sec) 
Heartbeat CPU  0 instructions:  630000001 cycles:  936341157 heartbeat IPC: 1.47042 cumulative IPC: 0.67140 (Simulation time: 0 hr 50 min 33 sec) 
Heartbeat CPU  0 instructions:  631000003 cycles:  937051114 heartbeat IPC: 1.40854 cumulative IPC: 0.67196 (Simulation time: 0 hr 50 min 36 sec) 
Heartbeat CPU  0 instructions:  632000000 cycles:  937741959 heartbeat IPC: 1.44750 cumulative IPC: 0.67253 (Simulation time: 0 hr 50 min 39 sec) 
Heartbeat CPU  0 instructions:  633000003 cycles:  938430848 heartbeat IPC: 1.45162 cumulative IPC: 0.67310 (Simulation time: 0 hr 50 min 42 sec) 
Heartbeat CPU  0 instructions:  634000002 cycles:  939092495 heartbeat IPC: 1.51138 cumulative IPC: 0.67369 (Simulation time: 0 hr 50 min 45 sec) 
Heartbeat CPU  0 instructions:  635000000 cycles:  939795356 heartbeat IPC: 1.42275 cumulative IPC: 0.67425 (Simulation time: 0 hr 50 min 49 sec) 
Heartbeat CPU  0 instructions:  636000000 cycles:  940457999 heartbeat IPC: 1.50911 cumulative IPC: 0.67484 (Simulation time: 0 hr 50 min 52 sec) 
Heartbeat CPU  0 instructions:  637000002 cycles:  941135177 heartbeat IPC: 1.47672 cumulative IPC: 0.67542 (Simulation time: 0 hr 50 min 55 sec) 
Heartbeat CPU  0 instructions:  638000000 cycles:  941786918 heartbeat IPC: 1.53435 cumulative IPC: 0.67602 (Simulation time: 0 hr 50 min 59 sec) 
Heartbeat CPU  0 instructions:  639000002 cycles:  942481829 heartbeat IPC: 1.43904 cumulative IPC: 0.67658 (Simulation time: 0 hr 51 min 4 sec) 
Heartbeat CPU  0 instructions:  640000000 cycles:  943139605 heartbeat IPC: 1.52027 cumulative IPC: 0.67717 (Simulation time: 0 hr 51 min 7 sec) 
Heartbeat CPU  0 instructions:  641000000 cycles:  943793281 heartbeat IPC: 1.52981 cumulative IPC: 0.67776 (Simulation time: 0 hr 51 min 10 sec) 
Heartbeat CPU  0 instructions:  642000003 cycles:  944486555 heartbeat IPC: 1.44244 cumulative IPC: 0.67832 (Simulation time: 0 hr 51 min 14 sec) 
Heartbeat CPU  0 instructions:  643000002 cycles:  945158356 heartbeat IPC: 1.48853 cumulative IPC: 0.67890 (Simulation time: 0 hr 51 min 17 sec) 
Heartbeat CPU  0 instructions:  644000000 cycles:  945824096 heartbeat IPC: 1.50208 cumulative IPC: 0.67948 (Simulation time: 0 hr 51 min 20 sec) 
Heartbeat CPU  0 instructions:  645000001 cycles:  946483601 heartbeat IPC: 1.51629 cumulative IPC: 0.68006 (Simulation time: 0 hr 51 min 23 sec) 
Heartbeat CPU  0 instructions:  646000001 cycles:  947192689 heartbeat IPC: 1.41026 cumulative IPC: 0.68061 (Simulation time: 0 hr 51 min 27 sec) 
Heartbeat CPU  0 instructions:  647000003 cycles:  947876483 heartbeat IPC: 1.46243 cumulative IPC: 0.68117 (Simulation time: 0 hr 51 min 32 sec) 
Heartbeat CPU  0 instructions:  648000000 cycles:  948573411 heartbeat IPC: 1.43486 cumulative IPC: 0.68173 (Simulation time: 0 hr 51 min 37 sec) 
Heartbeat CPU  0 instructions:  649000000 cycles:  949254778 heartbeat IPC: 1.46764 cumulative IPC: 0.68229 (Simulation time: 0 hr 51 min 42 sec) 
Heartbeat CPU  0 instructions:  650000002 cycles:  949966572 heartbeat IPC: 1.40490 cumulative IPC: 0.68283 (Simulation time: 0 hr 51 min 47 sec) 
Heartbeat CPU  0 instructions:  651000003 cycles:  950618765 heartbeat IPC: 1.53329 cumulative IPC: 0.68342 (Simulation time: 0 hr 51 min 52 sec) 
Heartbeat CPU  0 instructions:  652000000 cycles:  951311192 heartbeat IPC: 1.44419 cumulative IPC: 0.68397 (Simulation time: 0 hr 51 min 57 sec) 
Heartbeat CPU  0 instructions:  653000003 cycles:  951969160 heartbeat IPC: 1.51984 cumulative IPC: 0.68455 (Simulation time: 0 hr 52 min 2 sec) 
Heartbeat CPU  0 instructions:  654000003 cycles:  952665113 heartbeat IPC: 1.43688 cumulative IPC: 0.68510 (Simulation time: 0 hr 52 min 7 sec) 
Heartbeat CPU  0 instructions:  655000002 cycles:  953315320 heartbeat IPC: 1.53797 cumulative IPC: 0.68568 (Simulation time: 0 hr 52 min 12 sec) 
Heartbeat CPU  0 instructions:  656000000 cycles:  954006314 heartbeat IPC: 1.44719 cumulative IPC: 0.68624 (Simulation time: 0 hr 52 min 17 sec) 
Heartbeat CPU  0 instructions:  657000002 cycles:  954663203 heartbeat IPC: 1.52233 cumulative IPC: 0.68681 (Simulation time: 0 hr 52 min 22 sec) 
Heartbeat CPU  0 instructions:  658000003 cycles:  955348588 heartbeat IPC: 1.45904 cumulative IPC: 0.68737 (Simulation time: 0 hr 52 min 27 sec) 
Heartbeat CPU  0 instructions:  659000003 cycles:  956024595 heartbeat IPC: 1.47927 cumulative IPC: 0.68793 (Simulation time: 0 hr 52 min 32 sec) 
Finished CPU 0 instructions: 657000002 cycles: 955043419 cumulative IPC: 0.68793 (Simulation time: 0 hr 52 min 32 sec) 

ChampSim completed all CPUs

[ROI Statistics]
Core_0_instructions 657000002
Core_0_cycles 955043419
Core_0_IPC 0.68793

Core_0_branch_prediction_accuracy 99.58944
Core_0_branch_MPKI 0.11916
Core_0_average_ROB_occupancy_at_mispredict 241.35878

Core_0_L1D_total_access 196662714
Core_0_L1D_total_hit 170186686
Core_0_L1D_total_miss 26476028
Core_0_L1D_loads 179593244
Core_0_L1D_load_hit 154285166
Core_0_L1D_load_miss 25308078
Core_0_L1D_RFOs 17069470
Core_0_L1D_RFO_hit 15901520
Core_0_L1D_RFO_miss 1167950
Core_0_L1D_prefetches 0
Core_0_L1D_prefetch_hit 0
Core_0_L1D_prefetch_miss 0
Core_0_L1D_writebacks 0
Core_0_L1D_writeback_hit 0
Core_0_L1D_writeback_miss 0
Core_0_L1D_prefetch_requested 0
Core_0_L1D_prefetch_issued 0
Core_0_L1D_prefetch_useful 0
Core_0_L1D_prefetch_useless 0
Core_0_L1D_prefetch_late 0
Core_0_L1D_average_miss_latency 59.35193

Core_0_L1I_total_access 167425478
Core_0_L1I_total_hit 167420439
Core_0_L1I_total_miss 5039
Core_0_L1I_loads 167425478
Core_0_L1I_load_hit 167420439
Core_0_L1I_load_miss 5039
Core_0_L1I_RFOs 0
Core_0_L1I_RFO_hit 0
Core_0_L1I_RFO_miss 0
Core_0_L1I_prefetches 0
Core_0_L1I_prefetch_hit 0
Core_0_L1I_prefetch_miss 0
Core_0_L1I_writebacks 0
Core_0_L1I_writeback_hit 0
Core_0_L1I_writeback_miss 0
Core_0_L1I_prefetch_requested 0
Core_0_L1I_prefetch_issued 0
Core_0_L1I_prefetch_useful 0
Core_0_L1I_prefetch_useless 0
Core_0_L1I_prefetch_late 0
Core_0_L1I_average_miss_latency 314.17384

Core_0_L2C_total_access 52184674
Core_0_L2C_total_hit 45037389
Core_0_L2C_total_miss 7147285
Core_0_L2C_loads 25313095
Core_0_L2C_load_hit 21284482
Core_0_L2C_load_miss 4028613
Core_0_L2C_RFOs 1167950
Core_0_L2C_RFO_hit 118557
Core_0_L2C_RFO_miss 1049393
Core_0_L2C_prefetches 21810543
Core_0_L2C_prefetch_hit 19741371
Core_0_L2C_prefetch_miss 2069172
Core_0_L2C_writebacks 3893086
Core_0_L2C_writeback_hit 3892979
Core_0_L2C_writeback_miss 107
Core_0_L2C_prefetch_requested 25361181
Core_0_L2C_prefetch_issued 24969242
Core_0_L2C_prefetch_useful 1323683
Core_0_L2C_prefetch_useless 757656
Core_0_L2C_prefetch_late 1873227
Core_0_L2C_average_miss_latency 241.99625

Core_0_LLC_total_access 10924878
Core_0_LLC_total_hit 5123559
Core_0_LLC_total_miss 5801319
Core_0_LLC_loads 2155595
Core_0_LLC_load_hit 1018870
Core_0_LLC_load_miss 1136725
Core_0_LLC_RFOs 1049392
Core_0_LLC_RFO_hit 223
Core_0_LLC_RFO_miss 1049169
Core_0_LLC_prefetches 3942177
Core_0_LLC_prefetch_hit 327943
Core_0_LLC_prefetch_miss 3614234
Core_0_LLC_writebacks 3777714
Core_0_LLC_writeback_hit 3776523
Core_0_LLC_writeback_miss 1191
Core_0_LLC_prefetch_requested 0
Core_0_LLC_prefetch_issued 0
Core_0_LLC_prefetch_useful 670810
Core_0_LLC_prefetch_useless 2925480
Core_0_LLC_prefetch_late 0
Core_0_LLC_average_miss_latency 289.90749

Core_0_major_page_fault 0
Core_0_minor_page_fault 37887

CPU 0 L2C next line prefetcher final stats
Channel_0_RQ_row_buffer_hit 3061039
Channel_0_RQ_row_buffer_miss 2738251
Channel_0_WQ_row_buffer_hit 1217947
Channel_0_WQ_row_buffer_miss 2122681
Channel_0_WQ_full 0
Channel_0_dbus_congested 3002680

avg_congested_cycle 11
     > Finished combination: TraceType=770-tot Sim:657000000 Prefetcher=L2next_line L1=no
