TRACE: [496000000][OPT-125M]_[h12][s1024][d64] Warmup: 2000000 NumTraces: 496000000
L1:bingo_dpc3_PHT1k:L2:bingo_dpc3_PHT1k
*************************************************
   ChampSim Multicore Out-of-Order Simulator
   Last compiled: Oct 20 2024 06:49:05
*************************************************

trace_0 770-tot_memTraces_v3/memTraces[496000000][OPT-125M]_[h12][s1024][d64].champsim.xz
Bingo PHT WAYS: 16 and PHT_SIZE: 1024
Bingo2 PHT WAYS: 16 and PHT_SIZE: 1024
MAIN.cc ln 751 stats print skipped
CPU  0 inst:    1000002 cyc:     503281 now IPC :1.98697: AVG IPC :1.98697: L2-Pf-HR :0.80547: L2-HR :0.74756: (Sim:0h0m5s) 
CPU  0 inst:    2000002 cyc:     979452 now IPC :2.10009: AVG IPC :2.04196: L2-Pf-HR :0.85282: L2-HR :0.79308: (Sim:0h0m9s) 

Warmup complete CPU  0 instructions:    2000002 cycles:     979452 (Simulation time: 0 hr 0 min 9 sec) 

CPU  0 inst:    3000003 cyc:    1695185 now IPC :1.39717: AVG IPC :1.39717: L2-Pf-HR :0.90354: L2-HR :0.79897: (Sim:0h0m12s) 
CPU  0 inst:    4000000 cyc:    2425378 now IPC :1.36950: AVG IPC :1.38320: L2-Pf-HR :0.90910: L2-HR :0.81608: (Sim:0h0m16s) 
CPU  0 inst:    5000001 cyc:    3147710 now IPC :1.38441: AVG IPC :1.38360: L2-Pf-HR :0.90822: L2-HR :0.81760: (Sim:0h0m19s) 
CPU  0 inst:    6000002 cyc:    3870450 now IPC :1.38362: AVG IPC :1.38361: L2-Pf-HR :0.90526: L2-HR :0.81178: (Sim:0h0m22s) 
CPU  0 inst:    7000001 cyc:    4745972 now IPC :1.14217: AVG IPC :1.32749: L2-Pf-HR :0.89919: L2-HR :0.81237: (Sim:0h0m26s) 
CPU  0 inst:    8000000 cyc:    5526022 now IPC :1.28197: AVG IPC :1.31968: L2-Pf-HR :0.90403: L2-HR :0.81551: (Sim:0h0m31s) 
CPU  0 inst:    9000002 cyc:    6301969 now IPC :1.28875: AVG IPC :1.31517: L2-Pf-HR :0.90580: L2-HR :0.81449: (Sim:0h0m36s) 
CPU  0 inst:   10000001 cyc:    7087792 now IPC :1.27255: AVG IPC :1.30968: L2-Pf-HR :0.90845: L2-HR :0.81765: (Sim:0h0m41s) 
CPU  0 inst:   11000003 cyc:    7855783 now IPC :1.30210: AVG IPC :1.30884: L2-Pf-HR :0.90935: L2-HR :0.81863: (Sim:0h0m44s) 
CPU  0 inst:   12000000 cyc:    8620879 now IPC :1.30702: AVG IPC :1.30866: L2-Pf-HR :0.90928: L2-HR :0.81706: (Sim:0h0m47s) 
CPU  0 inst:   13000003 cyc:    9457721 now IPC :1.19497: AVG IPC :1.29743: L2-Pf-HR :0.90712: L2-HR :0.81679: (Sim:0h0m51s) 
CPU  0 inst:   14000001 cyc:   10210993 now IPC :1.32754: AVG IPC :1.29989: L2-Pf-HR :0.90763: L2-HR :0.81635: (Sim:0h0m54s) 
CPU  0 inst:   15000000 cyc:   10966404 now IPC :1.32378: AVG IPC :1.30170: L2-Pf-HR :0.90806: L2-HR :0.81747: (Sim:0h0m59s) 
CPU  0 inst:   16000000 cyc:   11694242 now IPC :1.37393: AVG IPC :1.30660: L2-Pf-HR :0.90647: L2-HR :0.81633: (Sim:0h1m4s) 
CPU  0 inst:   17000000 cyc:   12611997 now IPC :1.08962: AVG IPC :1.28949: L2-Pf-HR :0.90237: L2-HR :0.81441: (Sim:0h1m9s) 
CPU  0 inst:   18000000 cyc:   13397829 now IPC :1.27254: AVG IPC :1.28841: L2-Pf-HR :0.90294: L2-HR :0.81510: (Sim:0h1m14s) 
CPU  0 inst:   19000001 cyc:   14182763 now IPC :1.27399: AVG IPC :1.28756: L2-Pf-HR :0.90294: L2-HR :0.81424: (Sim:0h1m19s) 
CPU  0 inst:   20000000 cyc:   14978745 now IPC :1.25631: AVG IPC :1.28578: L2-Pf-HR :0.90360: L2-HR :0.81507: (Sim:0h1m24s) 
CPU  0 inst:   21000002 cyc:   15763579 now IPC :1.27416: AVG IPC :1.28516: L2-Pf-HR :0.90351: L2-HR :0.81536: (Sim:0h1m29s) 
CPU  0 inst:   22000003 cyc:   16543912 now IPC :1.28151: AVG IPC :1.28498: L2-Pf-HR :0.90284: L2-HR :0.81425: (Sim:0h1m34s) 
CPU  0 inst:   23000001 cyc:   17437780 now IPC :1.11873: AVG IPC :1.27595: L2-Pf-HR :0.90124: L2-HR :0.81390: (Sim:0h1m37s) 
CPU  0 inst:   24000000 cyc:   18212212 now IPC :1.29127: AVG IPC :1.27664: L2-Pf-HR :0.90243: L2-HR :0.81476: (Sim:0h1m41s) 
CPU  0 inst:   25000001 cyc:   18983037 now IPC :1.29731: AVG IPC :1.27752: L2-Pf-HR :0.90304: L2-HR :0.81439: (Sim:0h1m44s) 
CPU  0 inst:   26000001 cyc:   19758960 now IPC :1.28879: AVG IPC :1.27799: L2-Pf-HR :0.90404: L2-HR :0.81525: (Sim:0h1m47s) 
CPU  0 inst:   27000000 cyc:   20518780 now IPC :1.31610: AVG IPC :1.27947: L2-Pf-HR :0.90412: L2-HR :0.81564: (Sim:0h1m50s) 
CPU  0 inst:   28000000 cyc:   21275419 now IPC :1.32163: AVG IPC :1.28104: L2-Pf-HR :0.90440: L2-HR :0.81530: (Sim:0h1m55s) 
CPU  0 inst:   29000001 cyc:   22107971 now IPC :1.20113: AVG IPC :1.27789: L2-Pf-HR :0.90376: L2-HR :0.81519: (Sim:0h1m59s) 
CPU  0 inst:   30000003 cyc:   22858162 now IPC :1.33300: AVG IPC :1.27978: L2-Pf-HR :0.90397: L2-HR :0.81518: (Sim:0h2m4s) 
CPU  0 inst:   31000000 cyc:   23610509 now IPC :1.32917: AVG IPC :1.28142: L2-Pf-HR :0.90419: L2-HR :0.81545: (Sim:0h2m9s) 
CPU  0 inst:   32000000 cyc:   24333180 now IPC :1.38376: AVG IPC :1.28459: L2-Pf-HR :0.90322: L2-HR :0.81476: (Sim:0h2m13s) 
CPU  0 inst:   33000002 cyc:   25232153 now IPC :1.11238: AVG IPC :1.27821: L2-Pf-HR :0.90135: L2-HR :0.81372: (Sim:0h2m16s) 
CPU  0 inst:   34000000 cyc:   26024430 now IPC :1.26218: AVG IPC :1.27770: L2-Pf-HR :0.90164: L2-HR :0.81408: (Sim:0h2m20s) 
CPU  0 inst:   35000002 cyc:   26807886 now IPC :1.27640: AVG IPC :1.27766: L2-Pf-HR :0.90171: L2-HR :0.81372: (Sim:0h2m25s) 
CPU  0 inst:   36000000 cyc:   27601660 now IPC :1.25980: AVG IPC :1.27713: L2-Pf-HR :0.90189: L2-HR :0.81396: (Sim:0h2m30s) 
CPU  0 inst:   37000001 cyc:   28385083 now IPC :1.27645: AVG IPC :1.27711: L2-Pf-HR :0.90162: L2-HR :0.81407: (Sim:0h2m35s) 
CPU  0 inst:   38000000 cyc:   29163668 now IPC :1.28438: AVG IPC :1.27731: L2-Pf-HR :0.90137: L2-HR :0.81356: (Sim:0h2m40s) 
CPU  0 inst:   39000001 cyc:   30055922 now IPC :1.12076: AVG IPC :1.27251: L2-Pf-HR :0.90048: L2-HR :0.81326: (Sim:0h2m45s) 
CPU  0 inst:   40000000 cyc:   30829727 now IPC :1.29231: AVG IPC :1.27302: L2-Pf-HR :0.90118: L2-HR :0.81383: (Sim:0h2m50s) 
CPU  0 inst:   41000001 cyc:   31595363 now IPC :1.30611: AVG IPC :1.27385: L2-Pf-HR :0.90165: L2-HR :0.81374: (Sim:0h2m55s) 
CPU  0 inst:   42000001 cyc:   32373762 now IPC :1.28469: AVG IPC :1.27412: L2-Pf-HR :0.90220: L2-HR :0.81412: (Sim:0h3m0s) 
CPU  0 inst:   43000003 cyc:   33134792 now IPC :1.31401: AVG IPC :1.27506: L2-Pf-HR :0.90243: L2-HR :0.81450: (Sim:0h3m4s) 
CPU  0 inst:   44000000 cyc:   33897576 now IPC :1.31098: AVG IPC :1.27589: L2-Pf-HR :0.90272: L2-HR :0.81432: (Sim:0h3m9s) 
CPU  0 inst:   45000000 cyc:   34739004 now IPC :1.18846: AVG IPC :1.27371: L2-Pf-HR :0.90233: L2-HR :0.81417: (Sim:0h3m14s) 
CPU  0 inst:   46000002 cyc:   35501593 now IPC :1.31132: AVG IPC :1.27454: L2-Pf-HR :0.90259: L2-HR :0.81427: (Sim:0h3m19s) 
CPU  0 inst:   47000001 cyc:   36263794 now IPC :1.31199: AVG IPC :1.27535: L2-Pf-HR :0.90283: L2-HR :0.81446: (Sim:0h3m24s) 
CPU  0 inst:   48000000 cyc:   37002816 now IPC :1.35314: AVG IPC :1.27695: L2-Pf-HR :0.90253: L2-HR :0.81427: (Sim:0h3m29s) 
CPU  0 inst:   49000002 cyc:   37898004 now IPC :1.11709: AVG IPC :1.27307: L2-Pf-HR :0.90114: L2-HR :0.81348: (Sim:0h3m34s) 
CPU  0 inst:   50000003 cyc:   38672072 now IPC :1.29188: AVG IPC :1.27346: L2-Pf-HR :0.90137: L2-HR :0.81375: (Sim:0h3m39s) 
CPU  0 inst:   51000003 cyc:   39438315 now IPC :1.30507: AVG IPC :1.27409: L2-Pf-HR :0.90142: L2-HR :0.81355: (Sim:0h3m43s) 
CPU  0 inst:   52000000 cyc:   40212633 now IPC :1.29146: AVG IPC :1.27443: L2-Pf-HR :0.90164: L2-HR :0.81372: (Sim:0h3m48s) 
CPU  0 inst:   53000001 cyc:   40971755 now IPC :1.31731: AVG IPC :1.27525: L2-Pf-HR :0.90133: L2-HR :0.81376: (Sim:0h3m53s) 
CPU  0 inst:   54000001 cyc:   41737924 now IPC :1.30520: AVG IPC :1.27581: L2-Pf-HR :0.90128: L2-HR :0.81350: (Sim:0h3m58s) 
CPU  0 inst:   55000001 cyc:   42618442 now IPC :1.13570: AVG IPC :1.27285: L2-Pf-HR :0.90061: L2-HR :0.81325: (Sim:0h4m2s) 
CPU  0 inst:   56000000 cyc:   43385586 now IPC :1.30353: AVG IPC :1.27340: L2-Pf-HR :0.90111: L2-HR :0.81369: (Sim:0h4m6s) 
CPU  0 inst:   57000000 cyc:   44146145 now IPC :1.31482: AVG IPC :1.27413: L2-Pf-HR :0.90142: L2-HR :0.81363: (Sim:0h4m11s) 
CPU  0 inst:   58000001 cyc:   44915608 now IPC :1.29961: AVG IPC :1.27458: L2-Pf-HR :0.90189: L2-HR :0.81391: (Sim:0h4m15s) 
CPU  0 inst:   59000003 cyc:   45674572 now IPC :1.31759: AVG IPC :1.27531: L2-Pf-HR :0.90196: L2-HR :0.81412: (Sim:0h4m20s) 
CPU  0 inst:   60000000 cyc:   46419546 now IPC :1.34232: AVG IPC :1.27641: L2-Pf-HR :0.90222: L2-HR :0.81406: (Sim:0h4m24s) 
CPU  0 inst:   61000002 cyc:   47249658 now IPC :1.20466: AVG IPC :1.27512: L2-Pf-HR :0.90191: L2-HR :0.81392: (Sim:0h4m28s) 
CPU  0 inst:   62000000 cyc:   48001837 now IPC :1.32947: AVG IPC :1.27599: L2-Pf-HR :0.90213: L2-HR :0.81407: (Sim:0h4m32s) 
CPU  0 inst:   63000001 cyc:   48754554 now IPC :1.32852: AVG IPC :1.27682: L2-Pf-HR :0.90232: L2-HR :0.81415: (Sim:0h4m37s) 
CPU  0 inst:   64000000 cyc:   49489688 now IPC :1.36029: AVG IPC :1.27808: L2-Pf-HR :0.90218: L2-HR :0.81410: (Sim:0h4m42s) 
CPU  0 inst:   65000003 cyc:   50372231 now IPC :1.13309: AVG IPC :1.27549: L2-Pf-HR :0.90123: L2-HR :0.81350: (Sim:0h4m46s) 
CPU  0 inst:   66000000 cyc:   51159879 now IPC :1.26960: AVG IPC :1.27540: L2-Pf-HR :0.90137: L2-HR :0.81372: (Sim:0h4m49s) 
CPU  0 inst:   67000003 cyc:   51937661 now IPC :1.28571: AVG IPC :1.27556: L2-Pf-HR :0.90146: L2-HR :0.81363: (Sim:0h4m52s) 
CPU  0 inst:   68000000 cyc:   52727574 now IPC :1.26596: AVG IPC :1.27541: L2-Pf-HR :0.90161: L2-HR :0.81368: (Sim:0h4m55s) 
CPU  0 inst:   69000001 cyc:   53512164 now IPC :1.27455: AVG IPC :1.27540: L2-Pf-HR :0.90145: L2-HR :0.81375: (Sim:0h4m59s) 
CPU  0 inst:   70000003 cyc:   54284638 now IPC :1.29454: AVG IPC :1.27567: L2-Pf-HR :0.90142: L2-HR :0.81358: (Sim:0h5m2s) 
CPU  0 inst:   71000001 cyc:   55179402 now IPC :1.11761: AVG IPC :1.27306: L2-Pf-HR :0.90082: L2-HR :0.81329: (Sim:0h5m5s) 
CPU  0 inst:   72000000 cyc:   55960380 now IPC :1.28044: AVG IPC :1.27317: L2-Pf-HR :0.90117: L2-HR :0.81361: (Sim:0h5m8s) 
CPU  0 inst:   73000001 cyc:   56733999 now IPC :1.29263: AVG IPC :1.27344: L2-Pf-HR :0.90143: L2-HR :0.81365: (Sim:0h5m12s) 
CPU  0 inst:   74000003 cyc:   57514605 now IPC :1.28106: AVG IPC :1.27354: L2-Pf-HR :0.90174: L2-HR :0.81377: (Sim:0h5m15s) 
CPU  0 inst:   75000002 cyc:   58284218 now IPC :1.29935: AVG IPC :1.27389: L2-Pf-HR :0.90190: L2-HR :0.81398: (Sim:0h5m18s) 
CPU  0 inst:   76000000 cyc:   59045237 now IPC :1.31403: AVG IPC :1.27442: L2-Pf-HR :0.90207: L2-HR :0.81395: (Sim:0h5m21s) 
CPU  0 inst:   77000000 cyc:   59886883 now IPC :1.18815: AVG IPC :1.27318: L2-Pf-HR :0.90183: L2-HR :0.81377: (Sim:0h5m26s) 
CPU  0 inst:   78000002 cyc:   60667743 now IPC :1.28064: AVG IPC :1.27328: L2-Pf-HR :0.90201: L2-HR :0.81394: (Sim:0h5m29s) 
CPU  0 inst:   79000002 cyc:   61444778 now IPC :1.28694: AVG IPC :1.27346: L2-Pf-HR :0.90215: L2-HR :0.81396: (Sim:0h5m32s) 
CPU  0 inst:   80000000 cyc:   62199269 now IPC :1.32539: AVG IPC :1.27410: L2-Pf-HR :0.90196: L2-HR :0.81397: (Sim:0h5m35s) 
CPU  0 inst:   81000001 cyc:   63076821 now IPC :1.13953: AVG IPC :1.27220: L2-Pf-HR :0.90112: L2-HR :0.81341: (Sim:0h5m38s) 
CPU  0 inst:   82000001 cyc:   63865229 now IPC :1.26838: AVG IPC :1.27215: L2-Pf-HR :0.90125: L2-HR :0.81361: (Sim:0h5m42s) 
CPU  0 inst:   83000000 cyc:   64644565 now IPC :1.28314: AVG IPC :1.27228: L2-Pf-HR :0.90135: L2-HR :0.81359: (Sim:0h5m45s) 
CPU  0 inst:   84000000 cyc:   65429231 now IPC :1.27443: AVG IPC :1.27231: L2-Pf-HR :0.90145: L2-HR :0.81358: (Sim:0h5m48s) 
CPU  0 inst:   85000000 cyc:   66209790 now IPC :1.28113: AVG IPC :1.27241: L2-Pf-HR :0.90141: L2-HR :0.81370: (Sim:0h5m51s) 
CPU  0 inst:   86000003 cyc:   66979217 now IPC :1.29967: AVG IPC :1.27273: L2-Pf-HR :0.90128: L2-HR :0.81357: (Sim:0h5m55s) 
CPU  0 inst:   87000002 cyc:   67843658 now IPC :1.15682: AVG IPC :1.27123: L2-Pf-HR :0.90072: L2-HR :0.81323: (Sim:0h5m58s) 
CPU  0 inst:   88000000 cyc:   68639848 now IPC :1.25598: AVG IPC :1.27105: L2-Pf-HR :0.90098: L2-HR :0.81349: (Sim:0h6m1s) 
CPU  0 inst:   89000002 cyc:   69415221 now IPC :1.28970: AVG IPC :1.27127: L2-Pf-HR :0.90124: L2-HR :0.81359: (Sim:0h6m4s) 
CPU  0 inst:   90000003 cyc:   70191938 now IPC :1.28747: AVG IPC :1.27145: L2-Pf-HR :0.90150: L2-HR :0.81364: (Sim:0h6m8s) 
CPU  0 inst:   91000000 cyc:   70962694 now IPC :1.29742: AVG IPC :1.27173: L2-Pf-HR :0.90166: L2-HR :0.81385: (Sim:0h6m11s) 
CPU  0 inst:   92000000 cyc:   71719420 now IPC :1.32148: AVG IPC :1.27227: L2-Pf-HR :0.90179: L2-HR :0.81388: (Sim:0h6m14s) 
CPU  0 inst:   93000000 cyc:   72547996 now IPC :1.20689: AVG IPC :1.27151: L2-Pf-HR :0.90155: L2-HR :0.81368: (Sim:0h6m17s) 
CPU  0 inst:   94000003 cyc:   73320825 now IPC :1.29395: AVG IPC :1.27175: L2-Pf-HR :0.90170: L2-HR :0.81384: (Sim:0h6m21s) 
CPU  0 inst:   95000000 cyc:   74084484 now IPC :1.30948: AVG IPC :1.27214: L2-Pf-HR :0.90181: L2-HR :0.81382: (Sim:0h6m24s) 
CPU  0 inst:   96000000 cyc:   74824774 now IPC :1.35082: AVG IPC :1.27293: L2-Pf-HR :0.90165: L2-HR :0.81387: (Sim:0h6m27s) 
CPU  0 inst:   97000003 cyc:   75670444 now IPC :1.18250: AVG IPC :1.27191: L2-Pf-HR :0.90092: L2-HR :0.81339: (Sim:0h6m31s) 
CPU  0 inst:   98000001 cyc:   76485752 now IPC :1.22653: AVG IPC :1.27142: L2-Pf-HR :0.90104: L2-HR :0.81354: (Sim:0h6m35s) 
CPU  0 inst:   99000003 cyc:   77265897 now IPC :1.28182: AVG IPC :1.27152: L2-Pf-HR :0.90109: L2-HR :0.81356: (Sim:0h6m40s) 
CPU  0 inst:  100000000 cyc:   78050084 now IPC :1.27520: AVG IPC :1.27156: L2-Pf-HR :0.90116: L2-HR :0.81348: (Sim:0h6m45s) 
CPU  0 inst:  101000000 cyc:   78835371 now IPC :1.27342: AVG IPC :1.27158: L2-Pf-HR :0.90121: L2-HR :0.81365: (Sim:0h6m50s) 
CPU  0 inst:  102000000 cyc:   79613904 now IPC :1.28447: AVG IPC :1.27171: L2-Pf-HR :0.90121: L2-HR :0.81365: (Sim:0h6m55s) 
CPU  0 inst:  103000001 cyc:   80411554 now IPC :1.25368: AVG IPC :1.27153: L2-Pf-HR :0.90124: L2-HR :0.81355: (Sim:0h7m0s) 
CPU  0 inst:  104000000 cyc:   81275119 now IPC :1.15799: AVG IPC :1.27031: L2-Pf-HR :0.90097: L2-HR :0.81354: (Sim:0h7m4s) 
CPU  0 inst:  105000000 cyc:   82045899 now IPC :1.29739: AVG IPC :1.27056: L2-Pf-HR :0.90121: L2-HR :0.81367: (Sim:0h7m9s) 
CPU  0 inst:  106000002 cyc:   82817070 now IPC :1.29673: AVG IPC :1.27081: L2-Pf-HR :0.90140: L2-HR :0.81365: (Sim:0h7m13s) 
CPU  0 inst:  107000003 cyc:   83585686 now IPC :1.30104: AVG IPC :1.27109: L2-Pf-HR :0.90161: L2-HR :0.81389: (Sim:0h7m18s) 
CPU  0 inst:  108000000 cyc:   84338558 now IPC :1.32824: AVG IPC :1.27161: L2-Pf-HR :0.90171: L2-HR :0.81395: (Sim:0h7m23s) 
CPU  0 inst:  109000001 cyc:   85111595 now IPC :1.29360: AVG IPC :1.27181: L2-Pf-HR :0.90187: L2-HR :0.81391: (Sim:0h7m28s) 
CPU  0 inst:  110000001 cyc:   85952636 now IPC :1.18900: AVG IPC :1.27099: L2-Pf-HR :0.90170: L2-HR :0.81391: (Sim:0h7m32s) 
CPU  0 inst:  111000001 cyc:   86731832 now IPC :1.28337: AVG IPC :1.27110: L2-Pf-HR :0.90180: L2-HR :0.81388: (Sim:0h7m37s) 
CPU  0 inst:  112000000 cyc:   87497194 now IPC :1.30657: AVG IPC :1.27142: L2-Pf-HR :0.90176: L2-HR :0.81398: (Sim:0h7m42s) 
CPU  0 inst:  113000002 cyc:   88255609 now IPC :1.31854: AVG IPC :1.27183: L2-Pf-HR :0.90168: L2-HR :0.81387: (Sim:0h7m47s) 
CPU  0 inst:  114000003 cyc:   89164986 now IPC :1.09966: AVG IPC :1.27005: L2-Pf-HR :0.90122: L2-HR :0.81367: (Sim:0h7m52s) 
CPU  0 inst:  115000003 cyc:   89951356 now IPC :1.27167: AVG IPC :1.27006: L2-Pf-HR :0.90132: L2-HR :0.81373: (Sim:0h7m57s) 
CPU  0 inst:  116000000 cyc:   90734117 now IPC :1.27753: AVG IPC :1.27013: L2-Pf-HR :0.90134: L2-HR :0.81361: (Sim:0h8m2s) 
CPU  0 inst:  117000001 cyc:   91526806 now IPC :1.26153: AVG IPC :1.27005: L2-Pf-HR :0.90145: L2-HR :0.81379: (Sim:0h8m6s) 
CPU  0 inst:  118000001 cyc:   92301557 now IPC :1.29074: AVG IPC :1.27023: L2-Pf-HR :0.90127: L2-HR :0.81374: (Sim:0h8m11s) 
CPU  0 inst:  119000000 cyc:   93081210 now IPC :1.28262: AVG IPC :1.27033: L2-Pf-HR :0.90120: L2-HR :0.81357: (Sim:0h8m16s) 
CPU  0 inst:  120000000 cyc:   93963500 now IPC :1.13341: AVG IPC :1.26903: L2-Pf-HR :0.90096: L2-HR :0.81358: (Sim:0h8m21s) 
CPU  0 inst:  121000001 cyc:   94727916 now IPC :1.30819: AVG IPC :1.26935: L2-Pf-HR :0.90115: L2-HR :0.81370: (Sim:0h8m26s) 
CPU  0 inst:  122000003 cyc:   95484853 now IPC :1.32112: AVG IPC :1.26977: L2-Pf-HR :0.90129: L2-HR :0.81367: (Sim:0h8m31s) 
CPU  0 inst:  123000003 cyc:   96250958 now IPC :1.30530: AVG IPC :1.27005: L2-Pf-HR :0.90150: L2-HR :0.81388: (Sim:0h8m36s) 
CPU  0 inst:  124000000 cyc:   97001098 now IPC :1.33308: AVG IPC :1.27055: L2-Pf-HR :0.90153: L2-HR :0.81392: (Sim:0h8m41s) 
CPU  0 inst:  125000003 cyc:   97747289 now IPC :1.34014: AVG IPC :1.27108: L2-Pf-HR :0.90161: L2-HR :0.81383: (Sim:0h8m45s) 
CPU  0 inst:  126000000 cyc:   98595591 now IPC :1.17882: AVG IPC :1.27028: L2-Pf-HR :0.90147: L2-HR :0.81386: (Sim:0h8m50s) 
CPU  0 inst:  127000000 cyc:   99369098 now IPC :1.29281: AVG IPC :1.27046: L2-Pf-HR :0.90158: L2-HR :0.81384: (Sim:0h8m55s) 
CPU  0 inst:  128000000 cyc:  100142609 now IPC :1.29281: AVG IPC :1.27063: L2-Pf-HR :0.90162: L2-HR :0.81395: (Sim:0h9m0s) 
CPU  0 inst:  129000001 cyc:  100888177 now IPC :1.34126: AVG IPC :1.27116: L2-Pf-HR :0.90150: L2-HR :0.81385: (Sim:0h9m5s) 
CPU  0 inst:  130000000 cyc:  101792668 now IPC :1.10559: AVG IPC :1.26967: L2-Pf-HR :0.90110: L2-HR :0.81367: (Sim:0h9m10s) 
CPU  0 inst:  131000000 cyc:  102571631 now IPC :1.28376: AVG IPC :1.26978: L2-Pf-HR :0.90120: L2-HR :0.81374: (Sim:0h9m15s) 
CPU  0 inst:  132000000 cyc:  103345458 now IPC :1.29228: AVG IPC :1.26995: L2-Pf-HR :0.90121: L2-HR :0.81363: (Sim:0h9m18s) 
CPU  0 inst:  133000002 cyc:  104132556 now IPC :1.27049: AVG IPC :1.26996: L2-Pf-HR :0.90132: L2-HR :0.81377: (Sim:0h9m21s) 
CPU  0 inst:  134000001 cyc:  104905133 now IPC :1.29437: AVG IPC :1.27014: L2-Pf-HR :0.90130: L2-HR :0.81382: (Sim:0h9m24s) 
CPU  0 inst:  135000003 cyc:  105680545 now IPC :1.28964: AVG IPC :1.27028: L2-Pf-HR :0.90127: L2-HR :0.81369: (Sim:0h9m28s) 
CPU  0 inst:  136000000 cyc:  106552774 now IPC :1.14648: AVG IPC :1.26926: L2-Pf-HR :0.90104: L2-HR :0.81367: (Sim:0h9m31s) 
CPU  0 inst:  137000003 cyc:  107324146 now IPC :1.29640: AVG IPC :1.26946: L2-Pf-HR :0.90124: L2-HR :0.81382: (Sim:0h9m34s) 
CPU  0 inst:  138000000 cyc:  108093135 now IPC :1.30040: AVG IPC :1.26968: L2-Pf-HR :0.90136: L2-HR :0.81377: (Sim:0h9m39s) 
CPU  0 inst:  139000003 cyc:  108867928 now IPC :1.29067: AVG IPC :1.26983: L2-Pf-HR :0.90156: L2-HR :0.81394: (Sim:0h9m44s) 
CPU  0 inst:  140000000 cyc:  109628697 now IPC :1.31446: AVG IPC :1.27014: L2-Pf-HR :0.90164: L2-HR :0.81402: (Sim:0h9m48s) 
CPU  0 inst:  141000002 cyc:  110389241 now IPC :1.31485: AVG IPC :1.27045: L2-Pf-HR :0.90170: L2-HR :0.81395: (Sim:0h9m51s) 
CPU  0 inst:  142000003 cyc:  111234618 now IPC :1.18291: AVG IPC :1.26978: L2-Pf-HR :0.90159: L2-HR :0.81394: (Sim:0h9m54s) 
CPU  0 inst:  143000001 cyc:  112003292 now IPC :1.30094: AVG IPC :1.27000: L2-Pf-HR :0.90168: L2-HR :0.81394: (Sim:0h9m58s) 
CPU  0 inst:  144000000 cyc:  112777382 now IPC :1.29184: AVG IPC :1.27015: L2-Pf-HR :0.90172: L2-HR :0.81402: (Sim:0h10m1s) 
CPU  0 inst:  145000003 cyc:  113521361 now IPC :1.34413: AVG IPC :1.27064: L2-Pf-HR :0.90166: L2-HR :0.81395: (Sim:0h10m4s) 
CPU  0 inst:  146000000 cyc:  114432145 now IPC :1.09795: AVG IPC :1.26925: L2-Pf-HR :0.90128: L2-HR :0.81374: (Sim:0h10m7s) 
CPU  0 inst:  147000000 cyc:  115218268 now IPC :1.27207: AVG IPC :1.26927: L2-Pf-HR :0.90137: L2-HR :0.81383: (Sim:0h10m10s) 
CPU  0 inst:  148000000 cyc:  115996244 now IPC :1.28539: AVG IPC :1.26938: L2-Pf-HR :0.90139: L2-HR :0.81374: (Sim:0h10m14s) 
CPU  0 inst:  149000003 cyc:  116782537 now IPC :1.27179: AVG IPC :1.26940: L2-Pf-HR :0.90146: L2-HR :0.81381: (Sim:0h10m17s) 
CPU  0 inst:  150000000 cyc:  117557607 now IPC :1.29020: AVG IPC :1.26953: L2-Pf-HR :0.90137: L2-HR :0.81384: (Sim:0h10m20s) 
CPU  0 inst:  151000002 cyc:  118334312 now IPC :1.28749: AVG IPC :1.26965: L2-Pf-HR :0.90133: L2-HR :0.81372: (Sim:0h10m23s) 
CPU  0 inst:  152000000 cyc:  119228300 now IPC :1.11858: AVG IPC :1.26851: L2-Pf-HR :0.90110: L2-HR :0.81365: (Sim:0h10m27s) 
CPU  0 inst:  153000003 cyc:  120009779 now IPC :1.27963: AVG IPC :1.26858: L2-Pf-HR :0.90127: L2-HR :0.81380: (Sim:0h10m30s) 
CPU  0 inst:  154000003 cyc:  120780570 now IPC :1.29737: AVG IPC :1.26877: L2-Pf-HR :0.90139: L2-HR :0.81378: (Sim:0h10m33s) 
CPU  0 inst:  155000000 cyc:  121562080 now IPC :1.27957: AVG IPC :1.26884: L2-Pf-HR :0.90155: L2-HR :0.81389: (Sim:0h10m36s) 
CPU  0 inst:  156000000 cyc:  122330064 now IPC :1.30211: AVG IPC :1.26905: L2-Pf-HR :0.90166: L2-HR :0.81401: (Sim:0h10m39s) 
CPU  0 inst:  157000000 cyc:  123098130 now IPC :1.30197: AVG IPC :1.26926: L2-Pf-HR :0.90176: L2-HR :0.81396: (Sim:0h10m43s) 
CPU  0 inst:  158000001 cyc:  123939135 now IPC :1.18905: AVG IPC :1.26871: L2-Pf-HR :0.90165: L2-HR :0.81392: (Sim:0h10m46s) 
CPU  0 inst:  159000002 cyc:  124708720 now IPC :1.29940: AVG IPC :1.26890: L2-Pf-HR :0.90173: L2-HR :0.81394: (Sim:0h10m49s) 
CPU  0 inst:  160000000 cyc:  125480283 now IPC :1.29607: AVG IPC :1.26907: L2-Pf-HR :0.90180: L2-HR :0.81401: (Sim:0h10m52s) 
CPU  0 inst:  161000001 cyc:  126224263 now IPC :1.34412: AVG IPC :1.26951: L2-Pf-HR :0.90172: L2-HR :0.81395: (Sim:0h10m55s) 
CPU  0 inst:  162000001 cyc:  127120907 now IPC :1.11527: AVG IPC :1.26842: L2-Pf-HR :0.90135: L2-HR :0.81375: (Sim:0h10m59s) 
CPU  0 inst:  163000001 cyc:  127906365 now IPC :1.27314: AVG IPC :1.26845: L2-Pf-HR :0.90141: L2-HR :0.81382: (Sim:0h11m2s) 
CPU  0 inst:  164000000 cyc:  128681213 now IPC :1.29057: AVG IPC :1.26858: L2-Pf-HR :0.90143: L2-HR :0.81376: (Sim:0h11m5s) 
CPU  0 inst:  165000000 cyc:  129470013 now IPC :1.26775: AVG IPC :1.26858: L2-Pf-HR :0.90148: L2-HR :0.81381: (Sim:0h11m8s) 
CPU  0 inst:  166000001 cyc:  130248425 now IPC :1.28467: AVG IPC :1.26867: L2-Pf-HR :0.90147: L2-HR :0.81387: (Sim:0h11m12s) 
CPU  0 inst:  167000001 cyc:  131025302 now IPC :1.28721: AVG IPC :1.26878: L2-Pf-HR :0.90145: L2-HR :0.81378: (Sim:0h11m15s) 
CPU  0 inst:  168000000 cyc:  131908271 now IPC :1.13254: AVG IPC :1.26786: L2-Pf-HR :0.90123: L2-HR :0.81370: (Sim:0h11m18s) 
CPU  0 inst:  169000002 cyc:  132687435 now IPC :1.28343: AVG IPC :1.26796: L2-Pf-HR :0.90137: L2-HR :0.81383: (Sim:0h11m21s) 
CPU  0 inst:  170000000 cyc:  133461639 now IPC :1.29165: AVG IPC :1.26810: L2-Pf-HR :0.90149: L2-HR :0.81382: (Sim:0h11m25s) 
CPU  0 inst:  171000002 cyc:  134241143 now IPC :1.28287: AVG IPC :1.26818: L2-Pf-HR :0.90162: L2-HR :0.81391: (Sim:0h11m28s) 
CPU  0 inst:  172000000 cyc:  135007006 now IPC :1.30571: AVG IPC :1.26840: L2-Pf-HR :0.90173: L2-HR :0.81402: (Sim:0h11m31s) 
CPU  0 inst:  173000003 cyc:  135772703 now IPC :1.30600: AVG IPC :1.26861: L2-Pf-HR :0.90180: L2-HR :0.81399: (Sim:0h11m35s) 
CPU  0 inst:  174000001 cyc:  136607376 now IPC :1.19807: AVG IPC :1.26818: L2-Pf-HR :0.90173: L2-HR :0.81394: (Sim:0h11m39s) 
CPU  0 inst:  175000003 cyc:  137379958 now IPC :1.29436: AVG IPC :1.26832: L2-Pf-HR :0.90179: L2-HR :0.81399: (Sim:0h11m44s) 
CPU  0 inst:  176000000 cyc:  138147654 now IPC :1.30260: AVG IPC :1.26852: L2-Pf-HR :0.90186: L2-HR :0.81403: (Sim:0h11m49s) 
CPU  0 inst:  177000001 cyc:  138886368 now IPC :1.35371: AVG IPC :1.26897: L2-Pf-HR :0.90175: L2-HR :0.81398: (Sim:0h11m54s) 
CPU  0 inst:  178000000 cyc:  139774402 now IPC :1.12608: AVG IPC :1.26806: L2-Pf-HR :0.90140: L2-HR :0.81377: (Sim:0h11m58s) 
CPU  0 inst:  179000002 cyc:  140563746 now IPC :1.26688: AVG IPC :1.26805: L2-Pf-HR :0.90146: L2-HR :0.81385: (Sim:0h12m3s) 
CPU  0 inst:  180000000 cyc:  141343883 now IPC :1.28182: AVG IPC :1.26813: L2-Pf-HR :0.90149: L2-HR :0.81380: (Sim:0h12m8s) 
CPU  0 inst:  181000003 cyc:  142133214 now IPC :1.26690: AVG IPC :1.26812: L2-Pf-HR :0.90155: L2-HR :0.81383: (Sim:0h12m13s) 
CPU  0 inst:  182000002 cyc:  142915351 now IPC :1.27855: AVG IPC :1.26818: L2-Pf-HR :0.90150: L2-HR :0.81386: (Sim:0h12m18s) 
CPU  0 inst:  183000002 cyc:  143694961 now IPC :1.28269: AVG IPC :1.26826: L2-Pf-HR :0.90152: L2-HR :0.81382: (Sim:0h12m22s) 
CPU  0 inst:  184000000 cyc:  144579392 now IPC :1.13067: AVG IPC :1.26741: L2-Pf-HR :0.90128: L2-HR :0.81370: (Sim:0h12m27s) 
CPU  0 inst:  185000003 cyc:  145365632 now IPC :1.27188: AVG IPC :1.26743: L2-Pf-HR :0.90141: L2-HR :0.81382: (Sim:0h12m32s) 
CPU  0 inst:  186000000 cyc:  146142114 now IPC :1.28786: AVG IPC :1.26754: L2-Pf-HR :0.90152: L2-HR :0.81383: (Sim:0h12m37s) 
CPU  0 inst:  187000002 cyc:  146925494 now IPC :1.27652: AVG IPC :1.26759: L2-Pf-HR :0.90165: L2-HR :0.81389: (Sim:0h12m41s) 
CPU  0 inst:  188000000 cyc:  147705497 now IPC :1.28204: AVG IPC :1.26767: L2-Pf-HR :0.90173: L2-HR :0.81400: (Sim:0h12m44s) 
CPU  0 inst:  189000002 cyc:  148471425 now IPC :1.30561: AVG IPC :1.26787: L2-Pf-HR :0.90182: L2-HR :0.81401: (Sim:0h12m48s) 
CPU  0 inst:  190000003 cyc:  149308992 now IPC :1.19394: AVG IPC :1.26745: L2-Pf-HR :0.90170: L2-HR :0.81394: (Sim:0h12m51s) 
CPU  0 inst:  191000001 cyc:  150091021 now IPC :1.27872: AVG IPC :1.26751: L2-Pf-HR :0.90178: L2-HR :0.81401: (Sim:0h12m54s) 
CPU  0 inst:  192000000 cyc:  150868647 now IPC :1.28596: AVG IPC :1.26760: L2-Pf-HR :0.90183: L2-HR :0.81403: (Sim:0h12m57s) 
CPU  0 inst:  193000002 cyc:  151623345 now IPC :1.32504: AVG IPC :1.26789: L2-Pf-HR :0.90169: L2-HR :0.81399: (Sim:0h13m1s) 
CPU  0 inst:  194000001 cyc:  153855024 now IPC :0.44809: AVG IPC :1.25592: L2-Pf-HR :0.89726: L2-HR :0.81166: (Sim:0h13m5s) 
CPU  0 inst:  195000000 cyc:  160264630 now IPC :0.15602: AVG IPC :1.21166: L2-Pf-HR :0.87789: L2-HR :0.80292: (Sim:0h13m15s) 
CPU  0 inst:  196000000 cyc:  166784173 now IPC :0.15338: AVG IPC :1.17005: L2-Pf-HR :0.85937: L2-HR :0.79466: (Sim:0h13m25s) 
CPU  0 inst:  197000002 cyc:  173296344 now IPC :0.15356: AVG IPC :1.13164: L2-Pf-HR :0.84163: L2-HR :0.78685: (Sim:0h13m35s) 
CPU  0 inst:  198000001 cyc:  179811857 now IPC :0.15348: AVG IPC :1.09600: L2-Pf-HR :0.82463: L2-HR :0.77945: (Sim:0h13m45s) 
CPU  0 inst:  199000000 cyc:  186329979 now IPC :0.15342: AVG IPC :1.06285: L2-Pf-HR :0.80830: L2-HR :0.77243: (Sim:0h13m55s) 
CPU  0 inst:  200000000 cyc:  192838553 now IPC :0.15364: AVG IPC :1.03201: L2-Pf-HR :0.79265: L2-HR :0.76576: (Sim:0h14m6s) 
CPU  0 inst:  201000000 cyc:  198958791 now IPC :0.16339: AVG IPC :1.00516: L2-Pf-HR :0.77965: L2-HR :0.76013: (Sim:0h14m15s) 
CPU  0 inst:  202000000 cyc:  202540093 now IPC :0.27923: AVG IPC :0.99226: L2-Pf-HR :0.77796: L2-HR :0.75898: (Sim:0h14m21s) 
CPU  0 inst:  203000002 cyc:  206120884 now IPC :0.27927: AVG IPC :0.97981: L2-Pf-HR :0.77627: L2-HR :0.75785: (Sim:0h14m27s) 
CPU  0 inst:  204000000 cyc:  209701092 now IPC :0.27931: AVG IPC :0.96780: L2-Pf-HR :0.77460: L2-HR :0.75671: (Sim:0h14m33s) 
CPU  0 inst:  205000000 cyc:  213278502 now IPC :0.27953: AVG IPC :0.95620: L2-Pf-HR :0.77292: L2-HR :0.75559: (Sim:0h14m39s) 
CPU  0 inst:  206000000 cyc:  216855705 now IPC :0.27955: AVG IPC :0.94499: L2-Pf-HR :0.77125: L2-HR :0.75447: (Sim:0h14m46s) 
CPU  0 inst:  207000000 cyc:  220431863 now IPC :0.27963: AVG IPC :0.93414: L2-Pf-HR :0.76959: L2-HR :0.75335: (Sim:0h14m55s) 
CPU  0 inst:  208000000 cyc:  224009662 now IPC :0.27950: AVG IPC :0.92364: L2-Pf-HR :0.76794: L2-HR :0.75224: (Sim:0h15m4s) 
CPU  0 inst:  209000000 cyc:  227584822 now IPC :0.27971: AVG IPC :0.91348: L2-Pf-HR :0.76629: L2-HR :0.75114: (Sim:0h15m13s) 
CPU  0 inst:  210000003 cyc:  231162308 now IPC :0.27953: AVG IPC :0.90363: L2-Pf-HR :0.76465: L2-HR :0.75004: (Sim:0h15m22s) 
CPU  0 inst:  211000003 cyc:  234737693 now IPC :0.27969: AVG IPC :0.89409: L2-Pf-HR :0.76303: L2-HR :0.74895: (Sim:0h15m30s) 
CPU  0 inst:  212000000 cyc:  238316747 now IPC :0.27940: AVG IPC :0.88482: L2-Pf-HR :0.76141: L2-HR :0.74786: (Sim:0h15m36s) 
CPU  0 inst:  213000000 cyc:  241894335 now IPC :0.27952: AVG IPC :0.87583: L2-Pf-HR :0.75979: L2-HR :0.74679: (Sim:0h15m42s) 
CPU  0 inst:  214000000 cyc:  245469819 now IPC :0.27968: AVG IPC :0.86711: L2-Pf-HR :0.75818: L2-HR :0.74571: (Sim:0h15m48s) 
CPU  0 inst:  215000000 cyc:  249045123 now IPC :0.27970: AVG IPC :0.85864: L2-Pf-HR :0.75657: L2-HR :0.74464: (Sim:0h15m55s) 
CPU  0 inst:  216000000 cyc:  252620422 now IPC :0.27970: AVG IPC :0.85042: L2-Pf-HR :0.75497: L2-HR :0.74358: (Sim:0h16m3s) 
CPU  0 inst:  217000003 cyc:  256197508 now IPC :0.27956: AVG IPC :0.84242: L2-Pf-HR :0.75338: L2-HR :0.74252: (Sim:0h16m9s) 
CPU  0 inst:  218000001 cyc:  259774491 now IPC :0.27956: AVG IPC :0.83464: L2-Pf-HR :0.75180: L2-HR :0.74147: (Sim:0h16m16s) 
CPU  0 inst:  219000003 cyc:  263353547 now IPC :0.27940: AVG IPC :0.82706: L2-Pf-HR :0.75023: L2-HR :0.74042: (Sim:0h16m24s) 
CPU  0 inst:  220000000 cyc:  266930261 now IPC :0.27959: AVG IPC :0.81970: L2-Pf-HR :0.74866: L2-HR :0.73938: (Sim:0h16m30s) 
CPU  0 inst:  221000003 cyc:  270506568 now IPC :0.27962: AVG IPC :0.81253: L2-Pf-HR :0.74709: L2-HR :0.73834: (Sim:0h16m36s) 
CPU  0 inst:  222000000 cyc:  274083059 now IPC :0.27960: AVG IPC :0.80556: L2-Pf-HR :0.74553: L2-HR :0.73731: (Sim:0h16m42s) 
CPU  0 inst:  223000000 cyc:  277660045 now IPC :0.27956: AVG IPC :0.79875: L2-Pf-HR :0.74398: L2-HR :0.73628: (Sim:0h16m48s) 
CPU  0 inst:  224000000 cyc:  281236620 now IPC :0.27960: AVG IPC :0.79213: L2-Pf-HR :0.74244: L2-HR :0.73526: (Sim:0h16m56s) 
CPU  0 inst:  225000002 cyc:  284812730 now IPC :0.27963: AVG IPC :0.78567: L2-Pf-HR :0.74090: L2-HR :0.73425: (Sim:0h17m4s) 
CPU  0 inst:  226000003 cyc:  288392162 now IPC :0.27937: AVG IPC :0.77937: L2-Pf-HR :0.73937: L2-HR :0.73324: (Sim:0h17m13s) 
CPU  0 inst:  227000000 cyc:  291970211 now IPC :0.27948: AVG IPC :0.77322: L2-Pf-HR :0.73785: L2-HR :0.73223: (Sim:0h17m22s) 
CPU  0 inst:  228000000 cyc:  295547704 now IPC :0.27953: AVG IPC :0.76722: L2-Pf-HR :0.73633: L2-HR :0.73123: (Sim:0h17m31s) 
CPU  0 inst:  229000002 cyc:  299124348 now IPC :0.27959: AVG IPC :0.76137: L2-Pf-HR :0.73481: L2-HR :0.73024: (Sim:0h17m40s) 
CPU  0 inst:  230000000 cyc:  302700591 now IPC :0.27962: AVG IPC :0.75566: L2-Pf-HR :0.73331: L2-HR :0.72925: (Sim:0h17m49s) 
CPU  0 inst:  231000000 cyc:  306275765 now IPC :0.27971: AVG IPC :0.75009: L2-Pf-HR :0.73181: L2-HR :0.72826: (Sim:0h17m58s) 
CPU  0 inst:  232000000 cyc:  309852436 now IPC :0.27959: AVG IPC :0.74464: L2-Pf-HR :0.73031: L2-HR :0.72728: (Sim:0h18m7s) 
CPU  0 inst:  233000000 cyc:  313430837 now IPC :0.27945: AVG IPC :0.73932: L2-Pf-HR :0.72883: L2-HR :0.72631: (Sim:0h18m16s) 
CPU  0 inst:  234000003 cyc:  317011588 now IPC :0.27927: AVG IPC :0.73410: L2-Pf-HR :0.72735: L2-HR :0.72534: (Sim:0h18m24s) 
CPU  0 inst:  235000000 cyc:  320588822 now IPC :0.27954: AVG IPC :0.72901: L2-Pf-HR :0.72587: L2-HR :0.72437: (Sim:0h18m33s) 
CPU  0 inst:  236000000 cyc:  324166380 now IPC :0.27952: AVG IPC :0.72404: L2-Pf-HR :0.72440: L2-HR :0.72341: (Sim:0h18m42s) 
CPU  0 inst:  237000000 cyc:  327743078 now IPC :0.27959: AVG IPC :0.71917: L2-Pf-HR :0.72293: L2-HR :0.72245: (Sim:0h18m51s) 
CPU  0 inst:  238000003 cyc:  331319832 now IPC :0.27958: AVG IPC :0.71441: L2-Pf-HR :0.72147: L2-HR :0.72150: (Sim:0h18m59s) 
CPU  0 inst:  239000000 cyc:  334895941 now IPC :0.27963: AVG IPC :0.70976: L2-Pf-HR :0.72002: L2-HR :0.72055: (Sim:0h19m7s) 
CPU  0 inst:  240000000 cyc:  338473143 now IPC :0.27955: AVG IPC :0.70520: L2-Pf-HR :0.71858: L2-HR :0.71961: (Sim:0h19m16s) 
CPU  0 inst:  241000003 cyc:  342050650 now IPC :0.27953: AVG IPC :0.70073: L2-Pf-HR :0.71714: L2-HR :0.71867: (Sim:0h19m24s) 
CPU  0 inst:  242000003 cyc:  345630091 now IPC :0.27937: AVG IPC :0.69636: L2-Pf-HR :0.71570: L2-HR :0.71774: (Sim:0h19m33s) 
CPU  0 inst:  243000000 cyc:  349204481 now IPC :0.27977: AVG IPC :0.69208: L2-Pf-HR :0.71427: L2-HR :0.71681: (Sim:0h19m42s) 
CPU  0 inst:  244000000 cyc:  352779743 now IPC :0.27970: AVG IPC :0.68789: L2-Pf-HR :0.71285: L2-HR :0.71588: (Sim:0h19m51s) 
CPU  0 inst:  245000000 cyc:  356354738 now IPC :0.27972: AVG IPC :0.68378: L2-Pf-HR :0.71143: L2-HR :0.71496: (Sim:0h20m0s) 
CPU  0 inst:  246000002 cyc:  359931734 now IPC :0.27956: AVG IPC :0.67976: L2-Pf-HR :0.71002: L2-HR :0.71405: (Sim:0h20m9s) 
CPU  0 inst:  247000000 cyc:  363507502 now IPC :0.27966: AVG IPC :0.67581: L2-Pf-HR :0.70861: L2-HR :0.71314: (Sim:0h20m18s) 
CPU  0 inst:  248000000 cyc:  367082460 now IPC :0.27972: AVG IPC :0.67194: L2-Pf-HR :0.70721: L2-HR :0.71223: (Sim:0h20m27s) 
CPU  0 inst:  249000003 cyc:  370662336 now IPC :0.27934: AVG IPC :0.66814: L2-Pf-HR :0.70582: L2-HR :0.71133: (Sim:0h20m36s) 
CPU  0 inst:  250000002 cyc:  374237083 now IPC :0.27974: AVG IPC :0.66442: L2-Pf-HR :0.70443: L2-HR :0.71043: (Sim:0h20m44s) 
CPU  0 inst:  251000000 cyc:  377813373 now IPC :0.27962: AVG IPC :0.66077: L2-Pf-HR :0.70304: L2-HR :0.70954: (Sim:0h20m53s) 
CPU  0 inst:  252000000 cyc:  381391257 now IPC :0.27949: AVG IPC :0.65718: L2-Pf-HR :0.70166: L2-HR :0.70865: (Sim:0h21m2s) 
CPU  0 inst:  253000000 cyc:  384969956 now IPC :0.27943: AVG IPC :0.65366: L2-Pf-HR :0.70029: L2-HR :0.70776: (Sim:0h21m11s) 
CPU  0 inst:  254000000 cyc:  388546357 now IPC :0.27961: AVG IPC :0.65021: L2-Pf-HR :0.69892: L2-HR :0.70688: (Sim:0h21m20s) 
CPU  0 inst:  255000002 cyc:  392123840 now IPC :0.27953: AVG IPC :0.64682: L2-Pf-HR :0.69756: L2-HR :0.70600: (Sim:0h21m29s) 
CPU  0 inst:  256000000 cyc:  395703030 now IPC :0.27939: AVG IPC :0.64349: L2-Pf-HR :0.69620: L2-HR :0.70513: (Sim:0h21m38s) 
CPU  0 inst:  257000000 cyc:  399281502 now IPC :0.27945: AVG IPC :0.64022: L2-Pf-HR :0.69485: L2-HR :0.70426: (Sim:0h21m46s) 
CPU  0 inst:  258000000 cyc:  402857831 now IPC :0.27962: AVG IPC :0.63701: L2-Pf-HR :0.69350: L2-HR :0.70340: (Sim:0h21m55s) 
CPU  0 inst:  259000003 cyc:  406434247 now IPC :0.27961: AVG IPC :0.63386: L2-Pf-HR :0.69216: L2-HR :0.70253: (Sim:0h22m4s) 
CPU  0 inst:  260000000 cyc:  410010848 now IPC :0.27959: AVG IPC :0.63076: L2-Pf-HR :0.69082: L2-HR :0.70168: (Sim:0h22m14s) 
CPU  0 inst:  261000000 cyc:  413588821 now IPC :0.27949: AVG IPC :0.62771: L2-Pf-HR :0.68949: L2-HR :0.70082: (Sim:0h22m23s) 
CPU  0 inst:  262000000 cyc:  417165787 now IPC :0.27957: AVG IPC :0.62472: L2-Pf-HR :0.68816: L2-HR :0.69997: (Sim:0h22m32s) 
CPU  0 inst:  263000001 cyc:  420743637 now IPC :0.27950: AVG IPC :0.62178: L2-Pf-HR :0.68685: L2-HR :0.69913: (Sim:0h22m41s) 
CPU  0 inst:  264000000 cyc:  424322595 now IPC :0.27941: AVG IPC :0.61888: L2-Pf-HR :0.68553: L2-HR :0.69829: (Sim:0h22m50s) 
CPU  0 inst:  265000000 cyc:  427899546 now IPC :0.27957: AVG IPC :0.61604: L2-Pf-HR :0.68422: L2-HR :0.69745: (Sim:0h22m56s) 
CPU  0 inst:  266000000 cyc:  431475863 now IPC :0.27962: AVG IPC :0.61325: L2-Pf-HR :0.68291: L2-HR :0.69662: (Sim:0h23m2s) 
CPU  0 inst:  267000002 cyc:  435050295 now IPC :0.27977: AVG IPC :0.61050: L2-Pf-HR :0.68161: L2-HR :0.69579: (Sim:0h23m8s) 
CPU  0 inst:  268000000 cyc:  438625967 now IPC :0.27967: AVG IPC :0.60780: L2-Pf-HR :0.68031: L2-HR :0.69496: (Sim:0h23m15s) 
CPU  0 inst:  269000000 cyc:  442201000 now IPC :0.27972: AVG IPC :0.60514: L2-Pf-HR :0.67902: L2-HR :0.69414: (Sim:0h23m21s) 
CPU  0 inst:  270000001 cyc:  445776723 now IPC :0.27966: AVG IPC :0.60252: L2-Pf-HR :0.67774: L2-HR :0.69332: (Sim:0h23m27s) 
CPU  0 inst:  271000001 cyc:  449354830 now IPC :0.27948: AVG IPC :0.59994: L2-Pf-HR :0.67646: L2-HR :0.69251: (Sim:0h23m33s) 
CPU  0 inst:  272000000 cyc:  452933782 now IPC :0.27941: AVG IPC :0.59741: L2-Pf-HR :0.67518: L2-HR :0.69170: (Sim:0h23m39s) 
CPU  0 inst:  273000000 cyc:  456510509 now IPC :0.27959: AVG IPC :0.59491: L2-Pf-HR :0.67391: L2-HR :0.69089: (Sim:0h23m49s) 
CPU  0 inst:  274000000 cyc:  460087296 now IPC :0.27958: AVG IPC :0.59245: L2-Pf-HR :0.67264: L2-HR :0.69008: (Sim:0h23m58s) 
CPU  0 inst:  275000000 cyc:  463661695 now IPC :0.27977: AVG IPC :0.59004: L2-Pf-HR :0.67138: L2-HR :0.68928: (Sim:0h24m7s) 
CPU  0 inst:  276000000 cyc:  467238104 now IPC :0.27961: AVG IPC :0.58766: L2-Pf-HR :0.67012: L2-HR :0.68849: (Sim:0h24m16s) 
CPU  0 inst:  277000000 cyc:  470815052 now IPC :0.27957: AVG IPC :0.58531: L2-Pf-HR :0.66886: L2-HR :0.68769: (Sim:0h24m25s) 
CPU  0 inst:  278000003 cyc:  474392091 now IPC :0.27956: AVG IPC :0.58300: L2-Pf-HR :0.66762: L2-HR :0.68691: (Sim:0h24m34s) 
CPU  0 inst:  279000003 cyc:  477971921 now IPC :0.27934: AVG IPC :0.58072: L2-Pf-HR :0.66638: L2-HR :0.68612: (Sim:0h24m41s) 
CPU  0 inst:  280000000 cyc:  481549110 now IPC :0.27955: AVG IPC :0.57848: L2-Pf-HR :0.66514: L2-HR :0.68534: (Sim:0h24m49s) 
CPU  0 inst:  281000000 cyc:  485126081 now IPC :0.27957: AVG IPC :0.57627: L2-Pf-HR :0.66390: L2-HR :0.68456: (Sim:0h24m56s) 
CPU  0 inst:  282000000 cyc:  488702116 now IPC :0.27964: AVG IPC :0.57410: L2-Pf-HR :0.66267: L2-HR :0.68378: (Sim:0h25m2s) 
CPU  0 inst:  283000000 cyc:  492277888 now IPC :0.27966: AVG IPC :0.57195: L2-Pf-HR :0.66145: L2-HR :0.68301: (Sim:0h25m8s) 
CPU  0 inst:  284000000 cyc:  495853684 now IPC :0.27966: AVG IPC :0.56984: L2-Pf-HR :0.66022: L2-HR :0.68224: (Sim:0h25m14s) 
CPU  0 inst:  285000000 cyc:  499431005 now IPC :0.27954: AVG IPC :0.56776: L2-Pf-HR :0.65901: L2-HR :0.68148: (Sim:0h25m21s) 
CPU  0 inst:  286000003 cyc:  503010096 now IPC :0.27940: AVG IPC :0.56570: L2-Pf-HR :0.65780: L2-HR :0.68071: (Sim:0h25m27s) 
CPU  0 inst:  287000000 cyc:  506589001 now IPC :0.27941: AVG IPC :0.56368: L2-Pf-HR :0.65659: L2-HR :0.67996: (Sim:0h25m34s) 
CPU  0 inst:  288000000 cyc:  510165830 now IPC :0.27958: AVG IPC :0.56168: L2-Pf-HR :0.65539: L2-HR :0.67920: (Sim:0h25m42s) 
CPU  0 inst:  289000000 cyc:  513741742 now IPC :0.27965: AVG IPC :0.55971: L2-Pf-HR :0.65419: L2-HR :0.67845: (Sim:0h25m48s) 
CPU  0 inst:  290000000 cyc:  517317146 now IPC :0.27969: AVG IPC :0.55777: L2-Pf-HR :0.65300: L2-HR :0.67770: (Sim:0h25m54s) 
CPU  0 inst:  291000000 cyc:  520893953 now IPC :0.27958: AVG IPC :0.55586: L2-Pf-HR :0.65181: L2-HR :0.67695: (Sim:0h26m1s) 
CPU  0 inst:  292000000 cyc:  524470475 now IPC :0.27960: AVG IPC :0.55397: L2-Pf-HR :0.65062: L2-HR :0.67621: (Sim:0h26m10s) 
CPU  0 inst:  293000003 cyc:  528047666 now IPC :0.27955: AVG IPC :0.55211: L2-Pf-HR :0.64944: L2-HR :0.67547: (Sim:0h26m19s) 
CPU  0 inst:  294000003 cyc:  531626148 now IPC :0.27945: AVG IPC :0.55027: L2-Pf-HR :0.64827: L2-HR :0.67474: (Sim:0h26m28s) 
CPU  0 inst:  295000000 cyc:  535201782 now IPC :0.27967: AVG IPC :0.54846: L2-Pf-HR :0.64709: L2-HR :0.67400: (Sim:0h26m37s) 
CPU  0 inst:  296000000 cyc:  538778427 now IPC :0.27959: AVG IPC :0.54667: L2-Pf-HR :0.64593: L2-HR :0.67327: (Sim:0h26m46s) 
CPU  0 inst:  297000003 cyc:  540405738 now IPC :0.61451: AVG IPC :0.54688: L2-Pf-HR :0.64716: L2-HR :0.67413: (Sim:0h26m52s) 
CPU  0 inst:  298000003 cyc:  541036511 now IPC :1.58536: AVG IPC :0.54809: L2-Pf-HR :0.64939: L2-HR :0.67586: (Sim:0h26m57s) 
CPU  0 inst:  299000002 cyc:  541665427 now IPC :1.59004: AVG IPC :0.54930: L2-Pf-HR :0.65159: L2-HR :0.67757: (Sim:0h27m1s) 
CPU  0 inst:  300000000 cyc:  542297891 now IPC :1.58111: AVG IPC :0.55051: L2-Pf-HR :0.65372: L2-HR :0.67923: (Sim:0h27m6s) 
CPU  0 inst:  301000003 cyc:  543019436 now IPC :1.38592: AVG IPC :0.55162: L2-Pf-HR :0.65577: L2-HR :0.68079: (Sim:0h27m12s) 
CPU  0 inst:  302000001 cyc:  543628848 now IPC :1.64092: AVG IPC :0.55284: L2-Pf-HR :0.65788: L2-HR :0.68243: (Sim:0h27m17s) 
CPU  0 inst:  303000001 cyc:  544238174 now IPC :1.64116: AVG IPC :0.55406: L2-Pf-HR :0.65994: L2-HR :0.68405: (Sim:0h27m22s) 
CPU  0 inst:  304000000 cyc:  544842260 now IPC :1.65539: AVG IPC :0.55529: L2-Pf-HR :0.66197: L2-HR :0.68564: (Sim:0h27m27s) 
CPU  0 inst:  305000003 cyc:  545523440 now IPC :1.46805: AVG IPC :0.55643: L2-Pf-HR :0.66399: L2-HR :0.68720: (Sim:0h27m33s) 
CPU  0 inst:  306000001 cyc:  546114605 now IPC :1.69157: AVG IPC :0.55766: L2-Pf-HR :0.66602: L2-HR :0.68880: (Sim:0h27m38s) 
CPU  0 inst:  307000003 cyc:  546708450 now IPC :1.68394: AVG IPC :0.55889: L2-Pf-HR :0.66802: L2-HR :0.69039: (Sim:0h27m43s) 
CPU  0 inst:  308000000 cyc:  547295466 now IPC :1.70353: AVG IPC :0.56012: L2-Pf-HR :0.66999: L2-HR :0.69196: (Sim:0h27m48s) 
CPU  0 inst:  309000001 cyc:  547932395 now IPC :1.57004: AVG IPC :0.56129: L2-Pf-HR :0.67189: L2-HR :0.69347: (Sim:0h27m53s) 
CPU  0 inst:  310000001 cyc:  548545235 now IPC :1.63175: AVG IPC :0.56249: L2-Pf-HR :0.67377: L2-HR :0.69495: (Sim:0h27m58s) 
CPU  0 inst:  311000000 cyc:  549155022 now IPC :1.63992: AVG IPC :0.56369: L2-Pf-HR :0.67563: L2-HR :0.69642: (Sim:0h28m3s) 
CPU  0 inst:  312000000 cyc:  549756933 now IPC :1.66138: AVG IPC :0.56489: L2-Pf-HR :0.67749: L2-HR :0.69789: (Sim:0h28m8s) 
CPU  0 inst:  313000000 cyc:  550380399 now IPC :1.60394: AVG IPC :0.56607: L2-Pf-HR :0.67922: L2-HR :0.69929: (Sim:0h28m11s) 
CPU  0 inst:  314000002 cyc:  551012584 now IPC :1.58182: AVG IPC :0.56724: L2-Pf-HR :0.68091: L2-HR :0.70067: (Sim:0h28m15s) 
CPU  0 inst:  315000003 cyc:  551640286 now IPC :1.59311: AVG IPC :0.56841: L2-Pf-HR :0.68263: L2-HR :0.70207: (Sim:0h28m18s) 
CPU  0 inst:  316000000 cyc:  552263005 now IPC :1.60586: AVG IPC :0.56958: L2-Pf-HR :0.68433: L2-HR :0.70346: (Sim:0h28m22s) 
CPU  0 inst:  317000000 cyc:  552897009 now IPC :1.57728: AVG IPC :0.57074: L2-Pf-HR :0.68596: L2-HR :0.70480: (Sim:0h28m27s) 
CPU  0 inst:  318000000 cyc:  553515690 now IPC :1.61634: AVG IPC :0.57191: L2-Pf-HR :0.68752: L2-HR :0.70612: (Sim:0h28m32s) 
CPU  0 inst:  319000002 cyc:  554125032 now IPC :1.64112: AVG IPC :0.57309: L2-Pf-HR :0.68917: L2-HR :0.70746: (Sim:0h28m37s) 
CPU  0 inst:  320000000 cyc:  554725596 now IPC :1.66510: AVG IPC :0.57427: L2-Pf-HR :0.69080: L2-HR :0.70879: (Sim:0h28m42s) 
CPU  0 inst:  321000002 cyc:  555324372 now IPC :1.67008: AVG IPC :0.57545: L2-Pf-HR :0.69239: L2-HR :0.71011: (Sim:0h28m47s) 
CPU  0 inst:  322000002 cyc:  555956544 now IPC :1.58185: AVG IPC :0.57660: L2-Pf-HR :0.69388: L2-HR :0.71135: (Sim:0h28m52s) 
CPU  0 inst:  323000001 cyc:  556549216 now IPC :1.68727: AVG IPC :0.57779: L2-Pf-HR :0.69547: L2-HR :0.71267: (Sim:0h28m57s) 
CPU  0 inst:  324000000 cyc:  557136738 now IPC :1.70206: AVG IPC :0.57897: L2-Pf-HR :0.69705: L2-HR :0.71398: (Sim:0h29m2s) 
CPU  0 inst:  325000002 cyc:  557720136 now IPC :1.71410: AVG IPC :0.58016: L2-Pf-HR :0.69861: L2-HR :0.71527: (Sim:0h29m7s) 
CPU  0 inst:  326000002 cyc:  558349699 now IPC :1.58840: AVG IPC :0.58130: L2-Pf-HR :0.70004: L2-HR :0.71647: (Sim:0h29m12s) 
CPU  0 inst:  327000002 cyc:  558949604 now IPC :1.66693: AVG IPC :0.58247: L2-Pf-HR :0.70154: L2-HR :0.71770: (Sim:0h29m18s) 
CPU  0 inst:  328000000 cyc:  559555645 now IPC :1.65005: AVG IPC :0.58363: L2-Pf-HR :0.70303: L2-HR :0.71893: (Sim:0h29m23s) 
CPU  0 inst:  329000002 cyc:  560153355 now IPC :1.67306: AVG IPC :0.58479: L2-Pf-HR :0.70450: L2-HR :0.72014: (Sim:0h29m28s) 
CPU  0 inst:  330000001 cyc:  560786705 now IPC :1.57890: AVG IPC :0.58592: L2-Pf-HR :0.70579: L2-HR :0.72126: (Sim:0h29m33s) 
CPU  0 inst:  331000001 cyc:  561409954 now IPC :1.60450: AVG IPC :0.58705: L2-Pf-HR :0.70717: L2-HR :0.72242: (Sim:0h29m38s) 
CPU  0 inst:  332000000 cyc:  562036018 now IPC :1.59728: AVG IPC :0.58818: L2-Pf-HR :0.70851: L2-HR :0.72356: (Sim:0h29m43s) 
CPU  0 inst:  333000002 cyc:  562663087 now IPC :1.59472: AVG IPC :0.58930: L2-Pf-HR :0.70984: L2-HR :0.72469: (Sim:0h29m48s) 
CPU  0 inst:  334000000 cyc:  563306160 now IPC :1.55503: AVG IPC :0.59040: L2-Pf-HR :0.71103: L2-HR :0.72576: (Sim:0h29m53s) 
CPU  0 inst:  335000000 cyc:  563906194 now IPC :1.66657: AVG IPC :0.59155: L2-Pf-HR :0.71237: L2-HR :0.72688: (Sim:0h29m58s) 
CPU  0 inst:  336000000 cyc:  564517238 now IPC :1.63654: AVG IPC :0.59268: L2-Pf-HR :0.71368: L2-HR :0.72800: (Sim:0h30m3s) 
CPU  0 inst:  337000001 cyc:  565122844 now IPC :1.65124: AVG IPC :0.59382: L2-Pf-HR :0.71495: L2-HR :0.72908: (Sim:0h30m7s) 
CPU  0 inst:  338000001 cyc:  565723161 now IPC :1.66579: AVG IPC :0.59496: L2-Pf-HR :0.71621: L2-HR :0.73017: (Sim:0h30m11s) 
CPU  0 inst:  339000000 cyc:  566341064 now IPC :1.61838: AVG IPC :0.59608: L2-Pf-HR :0.71744: L2-HR :0.73123: (Sim:0h30m16s) 
CPU  0 inst:  340000000 cyc:  566940713 now IPC :1.66764: AVG IPC :0.59721: L2-Pf-HR :0.71870: L2-HR :0.73232: (Sim:0h30m21s) 
CPU  0 inst:  341000000 cyc:  567526934 now IPC :1.70584: AVG IPC :0.59836: L2-Pf-HR :0.71995: L2-HR :0.73339: (Sim:0h30m26s) 
CPU  0 inst:  342000003 cyc:  568114092 now IPC :1.70312: AVG IPC :0.59950: L2-Pf-HR :0.72117: L2-HR :0.73444: (Sim:0h30m31s) 
CPU  0 inst:  343000001 cyc:  568742674 now IPC :1.59088: AVG IPC :0.60060: L2-Pf-HR :0.72237: L2-HR :0.73547: (Sim:0h30m36s) 
CPU  0 inst:  344000000 cyc:  569352374 now IPC :1.64015: AVG IPC :0.60172: L2-Pf-HR :0.72356: L2-HR :0.73649: (Sim:0h30m41s) 
CPU  0 inst:  345000003 cyc:  569958381 now IPC :1.65015: AVG IPC :0.60283: L2-Pf-HR :0.72475: L2-HR :0.73750: (Sim:0h30m46s) 
CPU  0 inst:  346000001 cyc:  570557459 now IPC :1.66923: AVG IPC :0.60396: L2-Pf-HR :0.72595: L2-HR :0.73851: (Sim:0h30m51s) 
CPU  0 inst:  347000000 cyc:  571196763 now IPC :1.56420: AVG IPC :0.60503: L2-Pf-HR :0.72698: L2-HR :0.73945: (Sim:0h30m56s) 
CPU  0 inst:  348000000 cyc:  571826914 now IPC :1.58692: AVG IPC :0.60612: L2-Pf-HR :0.72806: L2-HR :0.74040: (Sim:0h31m1s) 
CPU  0 inst:  349000002 cyc:  572451402 now IPC :1.60132: AVG IPC :0.60720: L2-Pf-HR :0.72916: L2-HR :0.74136: (Sim:0h31m6s) 
CPU  0 inst:  350000003 cyc:  573074628 now IPC :1.60456: AVG IPC :0.60829: L2-Pf-HR :0.73024: L2-HR :0.74232: (Sim:0h31m11s) 
CPU  0 inst:  351000002 cyc:  573714292 now IPC :1.56332: AVG IPC :0.60936: L2-Pf-HR :0.73122: L2-HR :0.74321: (Sim:0h31m16s) 
CPU  0 inst:  352000000 cyc:  574316822 now IPC :1.65967: AVG IPC :0.61046: L2-Pf-HR :0.73231: L2-HR :0.74416: (Sim:0h31m21s) 
CPU  0 inst:  353000001 cyc:  574925306 now IPC :1.64343: AVG IPC :0.61156: L2-Pf-HR :0.73339: L2-HR :0.74510: (Sim:0h31m26s) 
CPU  0 inst:  354000002 cyc:  575526701 now IPC :1.66280: AVG IPC :0.61266: L2-Pf-HR :0.73445: L2-HR :0.74603: (Sim:0h31m30s) 
CPU  0 inst:  355000001 cyc:  576161776 now IPC :1.57462: AVG IPC :0.61372: L2-Pf-HR :0.73540: L2-HR :0.74689: (Sim:0h31m35s) 
CPU  0 inst:  356000000 cyc:  576745908 now IPC :1.71194: AVG IPC :0.61483: L2-Pf-HR :0.73648: L2-HR :0.74783: (Sim:0h31m40s) 
CPU  0 inst:  357000000 cyc:  577339409 now IPC :1.68492: AVG IPC :0.61593: L2-Pf-HR :0.73754: L2-HR :0.74877: (Sim:0h31m45s) 
CPU  0 inst:  358000002 cyc:  577923977 now IPC :1.71067: AVG IPC :0.61704: L2-Pf-HR :0.73858: L2-HR :0.74969: (Sim:0h31m50s) 
CPU  0 inst:  359000002 cyc:  578540254 now IPC :1.62265: AVG IPC :0.61812: L2-Pf-HR :0.73952: L2-HR :0.75054: (Sim:0h31m55s) 
CPU  0 inst:  360000000 cyc:  579146107 now IPC :1.65056: AVG IPC :0.61920: L2-Pf-HR :0.74053: L2-HR :0.75143: (Sim:0h32m0s) 
CPU  0 inst:  361000000 cyc:  579750474 now IPC :1.65462: AVG IPC :0.62028: L2-Pf-HR :0.74154: L2-HR :0.75231: (Sim:0h32m5s) 
CPU  0 inst:  362000003 cyc:  580350704 now IPC :1.66603: AVG IPC :0.62136: L2-Pf-HR :0.74254: L2-HR :0.75318: (Sim:0h32m10s) 
CPU  0 inst:  363000002 cyc:  580956621 now IPC :1.65039: AVG IPC :0.62244: L2-Pf-HR :0.74348: L2-HR :0.75401: (Sim:0h32m15s) 
CPU  0 inst:  364000000 cyc:  581598567 now IPC :1.55776: AVG IPC :0.62347: L2-Pf-HR :0.74434: L2-HR :0.75481: (Sim:0h32m20s) 
CPU  0 inst:  365000002 cyc:  582223762 now IPC :1.59950: AVG IPC :0.62452: L2-Pf-HR :0.74526: L2-HR :0.75564: (Sim:0h32m24s) 
CPU  0 inst:  366000003 cyc:  582846601 now IPC :1.60555: AVG IPC :0.62557: L2-Pf-HR :0.74617: L2-HR :0.75646: (Sim:0h32m28s) 
CPU  0 inst:  367000002 cyc:  583472621 now IPC :1.59739: AVG IPC :0.62662: L2-Pf-HR :0.74705: L2-HR :0.75726: (Sim:0h32m32s) 
CPU  0 inst:  368000000 cyc:  584104517 now IPC :1.58254: AVG IPC :0.62765: L2-Pf-HR :0.74786: L2-HR :0.75802: (Sim:0h32m37s) 
CPU  0 inst:  369000003 cyc:  584712179 now IPC :1.64566: AVG IPC :0.62871: L2-Pf-HR :0.74876: L2-HR :0.75883: (Sim:0h32m42s) 
CPU  0 inst:  370000003 cyc:  585318187 now IPC :1.65014: AVG IPC :0.62977: L2-Pf-HR :0.74965: L2-HR :0.75963: (Sim:0h32m47s) 
CPU  0 inst:  371000001 cyc:  585925349 now IPC :1.64700: AVG IPC :0.63083: L2-Pf-HR :0.75052: L2-HR :0.76041: (Sim:0h32m52s) 
CPU  0 inst:  372000000 cyc:  586551432 now IPC :1.59723: AVG IPC :0.63186: L2-Pf-HR :0.75134: L2-HR :0.76117: (Sim:0h32m57s) 
CPU  0 inst:  373000003 cyc:  587138840 now IPC :1.70240: AVG IPC :0.63293: L2-Pf-HR :0.75223: L2-HR :0.76197: (Sim:0h33m2s) 
CPU  0 inst:  374000001 cyc:  587733467 now IPC :1.68172: AVG IPC :0.63400: L2-Pf-HR :0.75310: L2-HR :0.76276: (Sim:0h33m5s) 
CPU  0 inst:  375000003 cyc:  588321734 now IPC :1.69991: AVG IPC :0.63506: L2-Pf-HR :0.75395: L2-HR :0.76353: (Sim:0h33m8s) 
CPU  0 inst:  376000000 cyc:  588938854 now IPC :1.62043: AVG IPC :0.63610: L2-Pf-HR :0.75477: L2-HR :0.76428: (Sim:0h33m11s) 
CPU  0 inst:  377000003 cyc:  589543718 now IPC :1.65327: AVG IPC :0.63714: L2-Pf-HR :0.75561: L2-HR :0.76503: (Sim:0h33m15s) 
CPU  0 inst:  378000002 cyc:  590154466 now IPC :1.63733: AVG IPC :0.63818: L2-Pf-HR :0.75644: L2-HR :0.76577: (Sim:0h33m19s) 
CPU  0 inst:  379000002 cyc:  590757890 now IPC :1.65721: AVG IPC :0.63922: L2-Pf-HR :0.75726: L2-HR :0.76651: (Sim:0h33m24s) 
CPU  0 inst:  380000000 cyc:  591377336 now IPC :1.61434: AVG IPC :0.64025: L2-Pf-HR :0.75802: L2-HR :0.76722: (Sim:0h33m29s) 
CPU  0 inst:  381000001 cyc:  592007594 now IPC :1.58665: AVG IPC :0.64126: L2-Pf-HR :0.75877: L2-HR :0.76791: (Sim:0h33m34s) 
CPU  0 inst:  382000003 cyc:  592639869 now IPC :1.58159: AVG IPC :0.64226: L2-Pf-HR :0.75952: L2-HR :0.76861: (Sim:0h33m39s) 
CPU  0 inst:  383000000 cyc:  593267842 now IPC :1.59242: AVG IPC :0.64327: L2-Pf-HR :0.76028: L2-HR :0.76931: (Sim:0h33m44s) 
CPU  0 inst:  384000000 cyc:  593908722 now IPC :1.56035: AVG IPC :0.64426: L2-Pf-HR :0.76096: L2-HR :0.76997: (Sim:0h33m49s) 
CPU  0 inst:  385000001 cyc:  594507784 now IPC :1.66928: AVG IPC :0.64529: L2-Pf-HR :0.76171: L2-HR :0.77067: (Sim:0h33m54s) 
CPU  0 inst:  386000002 cyc:  595119026 now IPC :1.63601: AVG IPC :0.64631: L2-Pf-HR :0.76248: L2-HR :0.77137: (Sim:0h33m59s) 
CPU  0 inst:  387000002 cyc:  595722719 now IPC :1.65647: AVG IPC :0.64734: L2-Pf-HR :0.76324: L2-HR :0.77206: (Sim:0h34m4s) 
CPU  0 inst:  388000000 cyc:  596331106 now IPC :1.64369: AVG IPC :0.64836: L2-Pf-HR :0.76395: L2-HR :0.77272: (Sim:0h34m9s) 
CPU  0 inst:  389000001 cyc:  596947154 now IPC :1.62325: AVG IPC :0.64936: L2-Pf-HR :0.76466: L2-HR :0.77339: (Sim:0h34m14s) 
CPU  0 inst:  390000001 cyc:  597545538 now IPC :1.67117: AVG IPC :0.65039: L2-Pf-HR :0.76542: L2-HR :0.77409: (Sim:0h34m19s) 
CPU  0 inst:  391000001 cyc:  598132305 now IPC :1.70425: AVG IPC :0.65142: L2-Pf-HR :0.76617: L2-HR :0.77478: (Sim:0h34m24s) 
CPU  0 inst:  392000000 cyc:  598715012 now IPC :1.71613: AVG IPC :0.65246: L2-Pf-HR :0.76691: L2-HR :0.77546: (Sim:0h34m29s) 
CPU  0 inst:  393000000 cyc:  599348310 now IPC :1.57904: AVG IPC :0.65344: L2-Pf-HR :0.76755: L2-HR :0.77607: (Sim:0h34m34s) 
CPU  0 inst:  394000000 cyc:  599952561 now IPC :1.65494: AVG IPC :0.65445: L2-Pf-HR :0.76829: L2-HR :0.77674: (Sim:0h34m39s) 
CPU  0 inst:  395000001 cyc:  600555791 now IPC :1.65774: AVG IPC :0.65546: L2-Pf-HR :0.76901: L2-HR :0.77739: (Sim:0h34m44s) 
CPU  0 inst:  396000000 cyc:  601154563 now IPC :1.67008: AVG IPC :0.65648: L2-Pf-HR :0.76972: L2-HR :0.77804: (Sim:0h34m49s) 
CPU  0 inst:  397000000 cyc:  601792525 now IPC :1.56749: AVG IPC :0.65744: L2-Pf-HR :0.77031: L2-HR :0.77862: (Sim:0h34m54s) 
CPU  0 inst:  398000003 cyc:  602415612 now IPC :1.60492: AVG IPC :0.65842: L2-Pf-HR :0.77098: L2-HR :0.77924: (Sim:0h34m59s) 
CPU  0 inst:  399000000 cyc:  603046584 now IPC :1.58485: AVG IPC :0.65939: L2-Pf-HR :0.77164: L2-HR :0.77986: (Sim:0h35m4s) 
CPU  0 inst:  400000000 cyc:  603670114 now IPC :1.60377: AVG IPC :0.66037: L2-Pf-HR :0.77228: L2-HR :0.78048: (Sim:0h35m9s) 
CPU  0 inst:  401000001 cyc:  604311825 now IPC :1.55834: AVG IPC :0.66133: L2-Pf-HR :0.77284: L2-HR :0.78104: (Sim:0h35m14s) 
CPU  0 inst:  402000003 cyc:  604911786 now IPC :1.66678: AVG IPC :0.66233: L2-Pf-HR :0.77350: L2-HR :0.78165: (Sim:0h35m19s) 
CPU  0 inst:  403000000 cyc:  605518116 now IPC :1.64926: AVG IPC :0.66332: L2-Pf-HR :0.77416: L2-HR :0.78226: (Sim:0h35m24s) 
CPU  0 inst:  404000000 cyc:  606122202 now IPC :1.65539: AVG IPC :0.66431: L2-Pf-HR :0.77481: L2-HR :0.78287: (Sim:0h35m29s) 
CPU  0 inst:  405000002 cyc:  606750431 now IPC :1.59178: AVG IPC :0.66527: L2-Pf-HR :0.77538: L2-HR :0.78342: (Sim:0h35m34s) 
CPU  0 inst:  406000001 cyc:  607337930 now IPC :1.70213: AVG IPC :0.66627: L2-Pf-HR :0.77605: L2-HR :0.78404: (Sim:0h35m39s) 
CPU  0 inst:  407000002 cyc:  607933612 now IPC :1.67875: AVG IPC :0.66727: L2-Pf-HR :0.77670: L2-HR :0.78465: (Sim:0h35m44s) 
CPU  0 inst:  408000000 cyc:  608522449 now IPC :1.69826: AVG IPC :0.66827: L2-Pf-HR :0.77732: L2-HR :0.78524: (Sim:0h35m49s) 
CPU  0 inst:  409000003 cyc:  609112841 now IPC :1.69379: AVG IPC :0.66926: L2-Pf-HR :0.77794: L2-HR :0.78583: (Sim:0h35m54s) 
CPU  0 inst:  410000000 cyc:  609734366 now IPC :1.60894: AVG IPC :0.67022: L2-Pf-HR :0.77853: L2-HR :0.78638: (Sim:0h35m59s) 
CPU  0 inst:  411000001 cyc:  610339960 now IPC :1.65127: AVG IPC :0.67120: L2-Pf-HR :0.77915: L2-HR :0.78695: (Sim:0h36m4s) 
CPU  0 inst:  412000000 cyc:  610943686 now IPC :1.65638: AVG IPC :0.67217: L2-Pf-HR :0.77975: L2-HR :0.78751: (Sim:0h36m10s) 
CPU  0 inst:  413000001 cyc:  611548572 now IPC :1.65321: AVG IPC :0.67314: L2-Pf-HR :0.78035: L2-HR :0.78806: (Sim:0h36m15s) 
CPU  0 inst:  414000003 cyc:  612181610 now IPC :1.57969: AVG IPC :0.67408: L2-Pf-HR :0.78088: L2-HR :0.78859: (Sim:0h36m20s) 
CPU  0 inst:  415000000 cyc:  612817079 now IPC :1.57364: AVG IPC :0.67502: L2-Pf-HR :0.78142: L2-HR :0.78912: (Sim:0h36m25s) 
CPU  0 inst:  416000000 cyc:  613442378 now IPC :1.59923: AVG IPC :0.67596: L2-Pf-HR :0.78198: L2-HR :0.78966: (Sim:0h36m30s) 
CPU  0 inst:  417000001 cyc:  614064115 now IPC :1.60840: AVG IPC :0.67690: L2-Pf-HR :0.78254: L2-HR :0.79019: (Sim:0h36m34s) 
CPU  0 inst:  418000003 cyc:  614697310 now IPC :1.57930: AVG IPC :0.67784: L2-Pf-HR :0.78303: L2-HR :0.79069: (Sim:0h36m38s) 
CPU  0 inst:  419000000 cyc:  615303369 now IPC :1.65000: AVG IPC :0.67879: L2-Pf-HR :0.78359: L2-HR :0.79122: (Sim:0h36m43s) 
CPU  0 inst:  420000000 cyc:  615907999 now IPC :1.65390: AVG IPC :0.67975: L2-Pf-HR :0.78417: L2-HR :0.79176: (Sim:0h36m48s) 
CPU  0 inst:  421000002 cyc:  616508080 now IPC :1.66645: AVG IPC :0.68072: L2-Pf-HR :0.78473: L2-HR :0.79229: (Sim:0h36m53s) 
CPU  0 inst:  422000002 cyc:  617139478 now IPC :1.58379: AVG IPC :0.68164: L2-Pf-HR :0.78521: L2-HR :0.79278: (Sim:0h36m58s) 
CPU  0 inst:  423000002 cyc:  617728197 now IPC :1.69860: AVG IPC :0.68261: L2-Pf-HR :0.78578: L2-HR :0.79332: (Sim:0h37m3s) 
CPU  0 inst:  424000000 cyc:  618319283 now IPC :1.69180: AVG IPC :0.68358: L2-Pf-HR :0.78635: L2-HR :0.79386: (Sim:0h37m9s) 
CPU  0 inst:  425000002 cyc:  618902359 now IPC :1.71505: AVG IPC :0.68455: L2-Pf-HR :0.78691: L2-HR :0.79440: (Sim:0h37m14s) 
CPU  0 inst:  426000001 cyc:  619529149 now IPC :1.59543: AVG IPC :0.68547: L2-Pf-HR :0.78739: L2-HR :0.79488: (Sim:0h37m19s) 
CPU  0 inst:  427000003 cyc:  620128264 now IPC :1.66913: AVG IPC :0.68643: L2-Pf-HR :0.78794: L2-HR :0.79539: (Sim:0h37m22s) 
CPU  0 inst:  428000000 cyc:  620732954 now IPC :1.65373: AVG IPC :0.68737: L2-Pf-HR :0.78850: L2-HR :0.79591: (Sim:0h37m26s) 
CPU  0 inst:  429000001 cyc:  621334409 now IPC :1.66264: AVG IPC :0.68832: L2-Pf-HR :0.78904: L2-HR :0.79642: (Sim:0h37m29s) 
CPU  0 inst:  430000001 cyc:  621962330 now IPC :1.59256: AVG IPC :0.68923: L2-Pf-HR :0.78951: L2-HR :0.79688: (Sim:0h37m33s) 
CPU  0 inst:  431000003 cyc:  622588499 now IPC :1.59702: AVG IPC :0.69014: L2-Pf-HR :0.79000: L2-HR :0.79736: (Sim:0h37m37s) 
CPU  0 inst:  432000000 cyc:  623214477 now IPC :1.59750: AVG IPC :0.69106: L2-Pf-HR :0.79049: L2-HR :0.79784: (Sim:0h37m40s) 
CPU  0 inst:  433000000 cyc:  623837674 now IPC :1.60463: AVG IPC :0.69197: L2-Pf-HR :0.79099: L2-HR :0.79832: (Sim:0h37m44s) 
CPU  0 inst:  434000002 cyc:  624476358 now IPC :1.56572: AVG IPC :0.69287: L2-Pf-HR :0.79144: L2-HR :0.79877: (Sim:0h37m47s) 
CPU  0 inst:  435000000 cyc:  625092432 now IPC :1.62318: AVG IPC :0.69378: L2-Pf-HR :0.79190: L2-HR :0.79923: (Sim:0h37m51s) 
CPU  0 inst:  436000000 cyc:  625699499 now IPC :1.64726: AVG IPC :0.69471: L2-Pf-HR :0.79240: L2-HR :0.79971: (Sim:0h37m54s) 
CPU  0 inst:  437000003 cyc:  626302463 now IPC :1.65848: AVG IPC :0.69564: L2-Pf-HR :0.79290: L2-HR :0.80019: (Sim:0h37m58s) 
CPU  0 inst:  438000002 cyc:  626905827 now IPC :1.65737: AVG IPC :0.69657: L2-Pf-HR :0.79339: L2-HR :0.80066: (Sim:0h38m1s) 
CPU  0 inst:  439000003 cyc:  627533302 now IPC :1.59369: AVG IPC :0.69747: L2-Pf-HR :0.79383: L2-HR :0.80110: (Sim:0h38m5s) 
CPU  0 inst:  440000000 cyc:  628127594 now IPC :1.68267: AVG IPC :0.69840: L2-Pf-HR :0.79433: L2-HR :0.80158: (Sim:0h38m9s) 
CPU  0 inst:  441000003 cyc:  628717140 now IPC :1.69623: AVG IPC :0.69934: L2-Pf-HR :0.79483: L2-HR :0.80207: (Sim:0h38m12s) 
CPU  0 inst:  442000002 cyc:  629306914 now IPC :1.69556: AVG IPC :0.70027: L2-Pf-HR :0.79530: L2-HR :0.80253: (Sim:0h38m16s) 
CPU  0 inst:  443000001 cyc:  629932984 now IPC :1.59726: AVG IPC :0.70116: L2-Pf-HR :0.79574: L2-HR :0.80296: (Sim:0h38m19s) 
CPU  0 inst:  444000000 cyc:  630532458 now IPC :1.66813: AVG IPC :0.70209: L2-Pf-HR :0.79623: L2-HR :0.80342: (Sim:0h38m23s) 
CPU  0 inst:  445000001 cyc:  631140221 now IPC :1.64538: AVG IPC :0.70300: L2-Pf-HR :0.79669: L2-HR :0.80387: (Sim:0h38m26s) 
CPU  0 inst:  446000000 cyc:  631745735 now IPC :1.65149: AVG IPC :0.70391: L2-Pf-HR :0.79715: L2-HR :0.80431: (Sim:0h38m30s) 
CPU  0 inst:  447000002 cyc:  632372718 now IPC :1.59494: AVG IPC :0.70479: L2-Pf-HR :0.79757: L2-HR :0.80473: (Sim:0h38m33s) 
CPU  0 inst:  448000000 cyc:  633000227 now IPC :1.59360: AVG IPC :0.70567: L2-Pf-HR :0.79799: L2-HR :0.80515: (Sim:0h38m37s) 
CPU  0 inst:  449000001 cyc:  633638207 now IPC :1.56745: AVG IPC :0.70654: L2-Pf-HR :0.79840: L2-HR :0.80556: (Sim:0h38m40s) 
CPU  0 inst:  450000002 cyc:  634261199 now IPC :1.60516: AVG IPC :0.70743: L2-Pf-HR :0.79882: L2-HR :0.80598: (Sim:0h38m44s) 
CPU  0 inst:  451000000 cyc:  634897041 now IPC :1.57271: AVG IPC :0.70829: L2-Pf-HR :0.79921: L2-HR :0.80638: (Sim:0h38m48s) 
CPU  0 inst:  452000000 cyc:  635500172 now IPC :1.65801: AVG IPC :0.70920: L2-Pf-HR :0.79964: L2-HR :0.80680: (Sim:0h38m53s) 
CPU  0 inst:  453000003 cyc:  636114921 now IPC :1.62669: AVG IPC :0.71008: L2-Pf-HR :0.80008: L2-HR :0.80722: (Sim:0h38m58s) 
CPU  0 inst:  454000000 cyc:  636715152 now IPC :1.66602: AVG IPC :0.71099: L2-Pf-HR :0.80052: L2-HR :0.80765: (Sim:0h39m3s) 
CPU  0 inst:  455000002 cyc:  637341074 now IPC :1.59765: AVG IPC :0.71186: L2-Pf-HR :0.80090: L2-HR :0.80804: (Sim:0h39m8s) 
CPU  0 inst:  456000000 cyc:  637936928 now IPC :1.67826: AVG IPC :0.71276: L2-Pf-HR :0.80134: L2-HR :0.80846: (Sim:0h39m12s) 
CPU  0 inst:  457000001 cyc:  638535386 now IPC :1.67096: AVG IPC :0.71366: L2-Pf-HR :0.80178: L2-HR :0.80890: (Sim:0h39m16s) 
CPU  0 inst:  458000002 cyc:  639121175 now IPC :1.70710: AVG IPC :0.71457: L2-Pf-HR :0.80222: L2-HR :0.80933: (Sim:0h39m19s) 
CPU  0 inst:  459000003 cyc:  639712994 now IPC :1.68971: AVG IPC :0.71548: L2-Pf-HR :0.80262: L2-HR :0.80974: (Sim:0h39m23s) 
CPU  0 inst:  460000000 cyc:  640337024 now IPC :1.60248: AVG IPC :0.71634: L2-Pf-HR :0.80302: L2-HR :0.81012: (Sim:0h39m27s) 
CPU  0 inst:  461000000 cyc:  640940758 now IPC :1.65636: AVG IPC :0.71723: L2-Pf-HR :0.80345: L2-HR :0.81053: (Sim:0h39m31s) 
CPU  0 inst:  462000001 cyc:  641543832 now IPC :1.65817: AVG IPC :0.71812: L2-Pf-HR :0.80388: L2-HR :0.81094: (Sim:0h39m34s) 
CPU  0 inst:  463000000 cyc:  642142726 now IPC :1.66974: AVG IPC :0.71901: L2-Pf-HR :0.80431: L2-HR :0.81135: (Sim:0h39m39s) 
CPU  0 inst:  464000000 cyc:  642784902 now IPC :1.55721: AVG IPC :0.71984: L2-Pf-HR :0.80463: L2-HR :0.81170: (Sim:0h39m44s) 
CPU  0 inst:  465000002 cyc:  643411341 now IPC :1.59633: AVG IPC :0.72070: L2-Pf-HR :0.80502: L2-HR :0.81208: (Sim:0h39m49s) 
CPU  0 inst:  466000002 cyc:  644037292 now IPC :1.59757: AVG IPC :0.72155: L2-Pf-HR :0.80540: L2-HR :0.81246: (Sim:0h39m54s) 
CPU  0 inst:  467000001 cyc:  644663479 now IPC :1.59697: AVG IPC :0.72240: L2-Pf-HR :0.80578: L2-HR :0.81284: (Sim:0h39m59s) 
CPU  0 inst:  468000000 cyc:  645303870 now IPC :1.56154: AVG IPC :0.72324: L2-Pf-HR :0.80610: L2-HR :0.81319: (Sim:0h40m2s) 
CPU  0 inst:  469000000 cyc:  645903724 now IPC :1.66707: AVG IPC :0.72412: L2-Pf-HR :0.80650: L2-HR :0.81358: (Sim:0h40m7s) 
CPU  0 inst:  470000003 cyc:  646510400 now IPC :1.64833: AVG IPC :0.72498: L2-Pf-HR :0.80689: L2-HR :0.81396: (Sim:0h40m12s) 
CPU  0 inst:  471000000 cyc:  647114808 now IPC :1.65451: AVG IPC :0.72585: L2-Pf-HR :0.80729: L2-HR :0.81434: (Sim:0h40m17s) 
CPU  0 inst:  472000000 cyc:  647751309 now IPC :1.57109: AVG IPC :0.72669: L2-Pf-HR :0.80761: L2-HR :0.81468: (Sim:0h40m22s) 
CPU  0 inst:  473000002 cyc:  648334974 now IPC :1.71332: AVG IPC :0.72758: L2-Pf-HR :0.80801: L2-HR :0.81508: (Sim:0h40m27s) 
CPU  0 inst:  474000002 cyc:  648929654 now IPC :1.68158: AVG IPC :0.72845: L2-Pf-HR :0.80840: L2-HR :0.81547: (Sim:0h40m32s) 
CPU  0 inst:  475000000 cyc:  649515221 now IPC :1.70774: AVG IPC :0.72934: L2-Pf-HR :0.80880: L2-HR :0.81586: (Sim:0h40m37s) 
CPU  0 inst:  476000000 cyc:  650136965 now IPC :1.60838: AVG IPC :0.73018: L2-Pf-HR :0.80912: L2-HR :0.81620: (Sim:0h40m42s) 
CPU  0 inst:  477000000 cyc:  650739738 now IPC :1.65900: AVG IPC :0.73104: L2-Pf-HR :0.80951: L2-HR :0.81657: (Sim:0h40m46s) 
CPU  0 inst:  478000003 cyc:  651340896 now IPC :1.66346: AVG IPC :0.73190: L2-Pf-HR :0.80990: L2-HR :0.81694: (Sim:0h40m50s) 
CPU  0 inst:  479000002 cyc:  651947504 now IPC :1.64851: AVG IPC :0.73275: L2-Pf-HR :0.81026: L2-HR :0.81730: (Sim:0h40m53s) 
CPU  0 inst:  480000000 cyc:  652553433 now IPC :1.65036: AVG IPC :0.73361: L2-Pf-HR :0.81063: L2-HR :0.81766: (Sim:0h40m56s) 
CPU  0 inst:  481000003 cyc:  653193838 now IPC :1.56152: AVG IPC :0.73442: L2-Pf-HR :0.81094: L2-HR :0.81798: (Sim:0h41m0s) 
CPU  0 inst:  482000002 cyc:  653826276 now IPC :1.58118: AVG IPC :0.73524: L2-Pf-HR :0.81127: L2-HR :0.81832: (Sim:0h41m3s) 
CPU  0 inst:  483000002 cyc:  654455196 now IPC :1.59003: AVG IPC :0.73606: L2-Pf-HR :0.81159: L2-HR :0.81865: (Sim:0h41m7s) 
CPU  0 inst:  484000000 cyc:  655091379 now IPC :1.57187: AVG IPC :0.73688: L2-Pf-HR :0.81190: L2-HR :0.81898: (Sim:0h41m10s) 
CPU  0 inst:  485000000 cyc:  655707205 now IPC :1.62384: AVG IPC :0.73771: L2-Pf-HR :0.81223: L2-HR :0.81932: (Sim:0h41m13s) 
CPU  0 inst:  486000003 cyc:  656321842 now IPC :1.62698: AVG IPC :0.73855: L2-Pf-HR :0.81257: L2-HR :0.81966: (Sim:0h41m17s) 
CPU  0 inst:  487000002 cyc:  656927816 now IPC :1.65023: AVG IPC :0.73939: L2-Pf-HR :0.81292: L2-HR :0.82000: (Sim:0h41m20s) 
CPU  0 inst:  488000000 cyc:  657528601 now IPC :1.66449: AVG IPC :0.74023: L2-Pf-HR :0.81327: L2-HR :0.82035: (Sim:0h41m25s) 
CPU  0 inst:  489000003 cyc:  658158887 now IPC :1.58659: AVG IPC :0.74105: L2-Pf-HR :0.81357: L2-HR :0.82066: (Sim:0h41m30s) 
CPU  0 inst:  490000001 cyc:  658752967 now IPC :1.68327: AVG IPC :0.74190: L2-Pf-HR :0.81392: L2-HR :0.82101: (Sim:0h41m35s) 
CPU  0 inst:  491000000 cyc:  659338864 now IPC :1.70678: AVG IPC :0.74276: L2-Pf-HR :0.81427: L2-HR :0.82136: (Sim:0h41m40s) 
CPU  0 inst:  492000000 cyc:  659923003 now IPC :1.71192: AVG IPC :0.74361: L2-Pf-HR :0.81462: L2-HR :0.82172: (Sim:0h41m45s) 
CPU  0 inst:  493000002 cyc:  660555323 now IPC :1.58148: AVG IPC :0.74442: L2-Pf-HR :0.81491: L2-HR :0.82202: (Sim:0h41m50s) 
Finished CPU 0 instr: 491000000 cyc: 659575871 AVG IPC: 0.74442 (Sim time: 0h41m50s)

ChampSim completed all CPUs

[ROI Statistics]
Core_0_instructions 491000000
Core_0_cycles 659575871
Core_0_IPC 0.74442

Core_0_branch_prediction_accuracy 99.58586
Core_0_branch_MPKI 0.12051
Core_0_average_ROB_occupancy_at_mispredict 239.78095

Core_0_L1D_total_access 165702678
Core_0_L1D_total_hit 145690571 L1D_total_Hit Ratio: 0.87923
Core_0_L1D_total_miss 20012107
Core_0_L1D_loads 135281017
Core_0_L1D_load_hit 126134914 L1D_load_Hit Ratio: 0.93239
Core_0_L1D_load_miss 9146103
Core_0_L1D_RFOs 12984678
Core_0_L1D_RFO_hit 12437125 L1D_RFO_Hit Ratio: 0.95783
Core_0_L1D_RFO_miss 547553
Core_0_L1D_prefetches 17436983
Core_0_L1D_prefetch_hit 7118532 L1D_prefetch_Hit Ratio: 0.40824
Core_0_L1D_prefetch_miss 10318451
Core_0_L1D_writebacks 0
Core_0_L1D_writeback_hit 0 L1D_writeback_Hit Ratio: -nan
Core_0_L1D_writeback_miss 0
Core_0_L1D_prefetch_requested 22758496
Core_0_L1D_prefetch_issued 22758496
Core_0_L1D_prefetch_useful 10048040 L1D_Useful Ratio: 0.44151
Core_0_L1D_prefetch_useless 290004
Core_0_L1D_prefetch_late 1836642
Core_0_L1D_average_miss_latency 37477741.92648

Core_0_L1I_total_access 127147909
Core_0_L1I_total_hit 127142921 L1I_total_Hit Ratio: 0.99996
Core_0_L1I_total_miss 4988
Core_0_L1I_loads 127147909
Core_0_L1I_load_hit 127142921 L1I_load_Hit Ratio: 0.99996
Core_0_L1I_load_miss 4988
Core_0_L1I_RFOs 0
Core_0_L1I_RFO_hit 0 L1I_RFO_Hit Ratio: -nan
Core_0_L1I_RFO_miss 0
Core_0_L1I_prefetches 0
Core_0_L1I_prefetch_hit 0 L1I_prefetch_Hit Ratio: -nan
Core_0_L1I_prefetch_miss 0
Core_0_L1I_writebacks 0
Core_0_L1I_writeback_hit 0 L1I_writeback_Hit Ratio: -nan
Core_0_L1I_writeback_miss 0
Core_0_L1I_prefetch_requested 0
Core_0_L1I_prefetch_issued 0
Core_0_L1I_prefetch_useful 0 L1I_Useful Ratio: -nan
Core_0_L1I_prefetch_useless 0
Core_0_L1I_prefetch_late 0
Core_0_L1I_average_miss_latency 271.02366

Core_0_L2C_total_access 26848255
Core_0_L2C_total_hit 22069733 L2C_total_Hit Ratio: 0.82202
Core_0_L2C_total_miss 4778522
Core_0_L2C_loads 7316019
Core_0_L2C_load_hit 6022199 L2C_load_Hit Ratio: 0.82315
Core_0_L2C_load_miss 1293820
Core_0_L2C_RFOs 547191
Core_0_L2C_RFO_hit 37170 L2C_RFO_Hit Ratio: 0.06793
Core_0_L2C_RFO_miss 510021
Core_0_L2C_prefetches 16071209
Core_0_L2C_prefetch_hit 13096596 L2C_prefetch_Hit Ratio: 0.81491
Core_0_L2C_prefetch_miss 2974613
Core_0_L2C_writebacks 2913836
Core_0_L2C_writeback_hit 2913768 L2C_writeback_Hit Ratio: 0.99998
Core_0_L2C_writeback_miss 68
Core_0_L2C_prefetch_requested 3216895
Core_0_L2C_prefetch_issued 3216895
Core_0_L2C_prefetch_useful 890654 L2C_Useful Ratio: 0.27687
Core_0_L2C_prefetch_useless 2090381
Core_0_L2C_prefetch_late 20549
Core_0_L2C_average_miss_latency 310.70648

Core_0_LLC_total_access 7605992
Core_0_LLC_total_hit 3321050 LLC_total_Hit Ratio: 0.43664
Core_0_LLC_total_miss 4284942
Core_0_LLC_loads 1273365
Core_0_LLC_load_hit 295527 LLC_load_Hit Ratio: 0.23208
Core_0_LLC_load_miss 977838
Core_0_LLC_RFOs 510021
Core_0_LLC_RFO_hit 190 LLC_RFO_Hit Ratio: 0.00037
Core_0_LLC_RFO_miss 509831
Core_0_LLC_prefetches 2995068
Core_0_LLC_prefetch_hit 198501 LLC_prefetch_Hit Ratio: 0.06628
Core_0_LLC_prefetch_miss 2796567
Core_0_LLC_writebacks 2827538
Core_0_LLC_writeback_hit 2826832 LLC_writeback_Hit Ratio: 0.99975
Core_0_LLC_writeback_miss 706
Core_0_LLC_prefetch_requested 0
Core_0_LLC_prefetch_issued 0
Core_0_LLC_prefetch_useful 71570 LLC_Useful Ratio: inf
Core_0_LLC_prefetch_useless 2703554
Core_0_LLC_prefetch_late 0
Core_0_LLC_average_miss_latency 312.73620

Core_0_major_page_fault 0
Core_0_minor_page_fault 28665

[Bingo] PHT Access: 3212703
[Bingo] PHT Hit PC+Addr: 872755
[Bingo] PHT Hit PC+Offs: 1933228
[Bingo] PHT Miss: 406720
[Bingo] Prefetch PC+Addr: 0
[Bingo] Prefetch PC+Offs: 0
[Bingo] Useful PC+Addr: 0
[Bingo] Useful PC+Offs: 0
[Bingo] Useless PC+Addr: 0
[Bingo] Useless PC+Offs: 0
[Bingo] L1 Prefetch per Region: 8.54847
[Bingo] L2 Prefetch per Region: 0.85010
[Bingo] L3 Prefetch per Region: 0.00000
[Bingo] No Prefetch per Region: 22.60143
[Bingo] Number of Voters Mean: 8.07997
[Bingo] Number of Voters SD: 5.83965
PHT read accesses: 45720115
PHT write accesses: 3071017
AT read accesses: 125768698
AT write accesses: 125768702
FT read accesses: 28881356
FT write accesses: 3212703
PS read accesses: 10543923
PS write accesses: 2805983
PHT tag read accesses: 129804740
PHT tag write accesses: 3943772
AT tag read accesses: 2596096562
AT tag write accesses: 128839719
FT tag read accesses: 681772845
FT tag write accesses: 19259672
PS tag read accesses: 2263847210
PS tag write accesses: 13319159
[Bingo2] PHT Access: 739394
[Bingo2] PHT Hit PC+Addr: 20001
[Bingo2] PHT Hit PC+Offs: 540479
[Bingo2] PHT Miss: 178914
[Bingo2] Prefetch PC+Addr: 0
[Bingo2] Prefetch PC+Offs: 0
[Bingo2] Useful PC+Addr: 0
[Bingo2] Useful PC+Offs: 0
[Bingo2] Useless PC+Addr: 0
[Bingo2] Useless PC+Offs: 0
[Bingo2] L1 Prefetch per Region: 0.00000
[Bingo2] L2 Prefetch per Region: 7.72369
[Bingo2] L3 Prefetch per Region: 0.00000
[Bingo2] No Prefetch per Region: 24.27631
[Bingo2] Number of Voters Mean: 13.17529
[Bingo2] Number of Voters SD: 4.73367
PHT read accesses: 11684012
PHT write accesses: 553899
AT read accesses: 6817661
AT write accesses: 7045036
FT read accesses: 1929956
FT write accesses: 739394
PS read accesses: 1347618
PS write accesses: 560480
PHT tag read accesses: 29211176
PHT tag write accesses: 573900
AT tag read accesses: 217587102
AT tag write accesses: 7371583
FT tag read accesses: 124699857
FT tag write accesses: 2029917
PS tag read accesses: 138392532
PS tag write accesses: 1894056
Channel_0_RQ_row_buffer_hit 2364099
Channel_0_RQ_row_buffer_miss 1920041
Channel_0_WQ_row_buffer_hit 734157
Channel_0_WQ_row_buffer_miss 1765527
Channel_0_WQ_full 0
Channel_0_dbus_congested 4138968

avg_congested_cycle 11

EzSearch AVG IPC :0.74442: L2-Pf-HR :0.81491 : L2-HR :0.82202 Uful:0.27687
     > Finished combination: TraceType=770-tot Sim:491000000 Prefetcher=L2bingo_dpc3_PHT1k L1=bingo_dpc3_PHT1k
