TRACE: [83000000][Pythia-70M]_[h8][s512][d64] Warmup: 2000000 NumTraces: 83000000
L1:no:L2:no
*************************************************
   ChampSim Multicore Out-of-Order Simulator
   Last compiled: Oct 18 2024 17:01:11
*************************************************

trace_0 770-tot_memTraces_v3/memTraces[83000000][Pythia-70M]_[h8][s512][d64].champsim.xz
MAIN.cc ln 751 stats print skipped
CPU  0 inst:    1000002 cyc:     502979 now IPC :1.98816: AVG IPC :1.98816: L2-Pf-HR :-nan: L2-HR :0.58834: (Sim:0h0m4s) 
CPU  0 inst:    2000001 cyc:     978122 now IPC :2.10463: AVG IPC :2.04474: L2-Pf-HR :-nan: L2-HR :0.64202: (Sim:0h0m9s) 

Warmup complete CPU  0 instructions:    2000001 cycles:     978122 (Simulation time: 0 hr 0 min 9 sec) 

CPU  0 inst:    3000002 cyc:    1738824 now IPC :1.31458: AVG IPC :1.31458: L2-Pf-HR :-nan: L2-HR :0.70709: (Sim:0h0m13s) 
CPU  0 inst:    4000000 cyc:    2473791 now IPC :1.36060: AVG IPC :1.33719: L2-Pf-HR :-nan: L2-HR :0.73129: (Sim:0h0m17s) 
CPU  0 inst:    5000000 cyc:    3291937 now IPC :1.22228: AVG IPC :1.29656: L2-Pf-HR :-nan: L2-HR :0.71417: (Sim:0h0m21s) 
CPU  0 inst:    6000003 cyc:    4071293 now IPC :1.28311: AVG IPC :1.29317: L2-Pf-HR :-nan: L2-HR :0.71313: (Sim:0h0m24s) 
CPU  0 inst:    7000000 cyc:    4849085 now IPC :1.28569: AVG IPC :1.29167: L2-Pf-HR :-nan: L2-HR :0.71208: (Sim:0h0m27s) 
CPU  0 inst:    8000000 cyc:    5654481 now IPC :1.24163: AVG IPC :1.28305: L2-Pf-HR :-nan: L2-HR :0.71780: (Sim:0h0m30s) 
CPU  0 inst:    9000002 cyc:    6541111 now IPC :1.12787: AVG IPC :1.25832: L2-Pf-HR :-nan: L2-HR :0.71356: (Sim:0h0m33s) 
CPU  0 inst:   10000002 cyc:    7357165 now IPC :1.22541: AVG IPC :1.25411: L2-Pf-HR :-nan: L2-HR :0.71360: (Sim:0h0m36s) 
CPU  0 inst:   11000001 cyc:    8172364 now IPC :1.22669: AVG IPC :1.25100: L2-Pf-HR :-nan: L2-HR :0.71303: (Sim:0h0m39s) 
CPU  0 inst:   12000000 cyc:    8989099 now IPC :1.22439: AVG IPC :1.24829: L2-Pf-HR :-nan: L2-HR :0.71552: (Sim:0h0m42s) 
CPU  0 inst:   13000000 cyc:    9866074 now IPC :1.14028: AVG IPC :1.23763: L2-Pf-HR :-nan: L2-HR :0.71365: (Sim:0h0m45s) 
CPU  0 inst:   14000000 cyc:   10679340 now IPC :1.22961: AVG IPC :1.23696: L2-Pf-HR :-nan: L2-HR :0.71362: (Sim:0h0m48s) 
CPU  0 inst:   15000003 cyc:   11493386 now IPC :1.22844: AVG IPC :1.23630: L2-Pf-HR :-nan: L2-HR :0.71318: (Sim:0h0m52s) 
CPU  0 inst:   16000000 cyc:   12315935 now IPC :1.21573: AVG IPC :1.23481: L2-Pf-HR :-nan: L2-HR :0.71458: (Sim:0h0m56s) 
CPU  0 inst:   17000002 cyc:   13189760 now IPC :1.14440: AVG IPC :1.22834: L2-Pf-HR :-nan: L2-HR :0.71343: (Sim:0h0m59s) 
CPU  0 inst:   18000003 cyc:   14001599 now IPC :1.23177: AVG IPC :1.22855: L2-Pf-HR :-nan: L2-HR :0.71301: (Sim:0h1m2s) 
CPU  0 inst:   19000002 cyc:   14810056 now IPC :1.23692: AVG IPC :1.22904: L2-Pf-HR :-nan: L2-HR :0.71260: (Sim:0h1m5s) 
CPU  0 inst:   20000000 cyc:   15630328 now IPC :1.21911: AVG IPC :1.22848: L2-Pf-HR :-nan: L2-HR :0.71343: (Sim:0h1m8s) 
CPU  0 inst:   21000000 cyc:   16505233 now IPC :1.14298: AVG IPC :1.22367: L2-Pf-HR :-nan: L2-HR :0.71294: (Sim:0h1m11s) 
CPU  0 inst:   22000000 cyc:   17319305 now IPC :1.22839: AVG IPC :1.22390: L2-Pf-HR :-nan: L2-HR :0.71273: (Sim:0h1m14s) 
CPU  0 inst:   23000000 cyc:   18125066 now IPC :1.24106: AVG IPC :1.22471: L2-Pf-HR :-nan: L2-HR :0.71243: (Sim:0h1m17s) 
CPU  0 inst:   24000000 cyc:   18950640 now IPC :1.21128: AVG IPC :1.22409: L2-Pf-HR :-nan: L2-HR :0.71275: (Sim:0h1m19s) 
CPU  0 inst:   25000002 cyc:   19825629 now IPC :1.14287: AVG IPC :1.22032: L2-Pf-HR :-nan: L2-HR :0.71296: (Sim:0h1m22s) 
CPU  0 inst:   26000002 cyc:   20645232 now IPC :1.22010: AVG IPC :1.22031: L2-Pf-HR :-nan: L2-HR :0.71301: (Sim:0h1m25s) 
CPU  0 inst:   27000002 cyc:   21465979 now IPC :1.21840: AVG IPC :1.22023: L2-Pf-HR :-nan: L2-HR :0.71277: (Sim:0h1m28s) 
CPU  0 inst:   28000000 cyc:   22301565 now IPC :1.19676: AVG IPC :1.21932: L2-Pf-HR :-nan: L2-HR :0.71283: (Sim:0h1m31s) 
CPU  0 inst:   29000000 cyc:   23167026 now IPC :1.15545: AVG IPC :1.21682: L2-Pf-HR :-nan: L2-HR :0.71309: (Sim:0h1m34s) 
CPU  0 inst:   30000001 cyc:   23981718 now IPC :1.22746: AVG IPC :1.21720: L2-Pf-HR :-nan: L2-HR :0.71308: (Sim:0h1m37s) 
CPU  0 inst:   31000001 cyc:   24789066 now IPC :1.23862: AVG IPC :1.21793: L2-Pf-HR :-nan: L2-HR :0.71292: (Sim:0h1m40s) 
CPU  0 inst:   32000000 cyc:   25613425 now IPC :1.21306: AVG IPC :1.21776: L2-Pf-HR :-nan: L2-HR :0.71284: (Sim:0h1m43s) 
CPU  0 inst:   33000000 cyc:   26480756 now IPC :1.15296: AVG IPC :1.21556: L2-Pf-HR :-nan: L2-HR :0.71411: (Sim:0h1m47s) 
CPU  0 inst:   34000000 cyc:   32688847 now IPC :0.16108: AVG IPC :1.00912: L2-Pf-HR :-nan: L2-HR :0.66943: (Sim:0h1m58s) 
CPU  0 inst:   35000001 cyc:   38214781 now IPC :0.18097: AVG IPC :0.88622: L2-Pf-HR :-nan: L2-HR :0.65645: (Sim:0h2m5s) 
CPU  0 inst:   36000000 cyc:   43616412 now IPC :0.18513: AVG IPC :0.79741: L2-Pf-HR :-nan: L2-HR :0.64955: (Sim:0h2m14s) 
CPU  0 inst:   37000002 cyc:   48711734 now IPC :0.19626: AVG IPC :0.73324: L2-Pf-HR :-nan: L2-HR :0.64294: (Sim:0h2m21s) 
CPU  0 inst:   38000000 cyc:   53830220 now IPC :0.19537: AVG IPC :0.68115: L2-Pf-HR :-nan: L2-HR :0.63660: (Sim:0h2m27s) 
CPU  0 inst:   39000000 cyc:   58988341 now IPC :0.19387: AVG IPC :0.63782: L2-Pf-HR :-nan: L2-HR :0.63052: (Sim:0h2m34s) 
CPU  0 inst:   40000000 cyc:   63795019 now IPC :0.20804: AVG IPC :0.60493: L2-Pf-HR :-nan: L2-HR :0.62467: (Sim:0h2m40s) 
CPU  0 inst:   41000001 cyc:   68687012 now IPC :0.20442: AVG IPC :0.57600: L2-Pf-HR :-nan: L2-HR :0.61905: (Sim:0h2m48s) 
CPU  0 inst:   42000001 cyc:   73701833 now IPC :0.19941: AVG IPC :0.55003: L2-Pf-HR :-nan: L2-HR :0.61364: (Sim:0h2m59s) 
CPU  0 inst:   43000001 cyc:   78751249 now IPC :0.19804: AVG IPC :0.52717: L2-Pf-HR :-nan: L2-HR :0.60843: (Sim:0h3m9s) 
CPU  0 inst:   44000000 cyc:   83639066 now IPC :0.20459: AVG IPC :0.50810: L2-Pf-HR :-nan: L2-HR :0.60341: (Sim:0h3m18s) 
CPU  0 inst:   45000002 cyc:   88619400 now IPC :0.20079: AVG IPC :0.49064: L2-Pf-HR :-nan: L2-HR :0.59857: (Sim:0h3m28s) 
CPU  0 inst:   46000000 cyc:   93691132 now IPC :0.19717: AVG IPC :0.47458: L2-Pf-HR :-nan: L2-HR :0.59391: (Sim:0h3m38s) 
CPU  0 inst:   47000000 cyc:   98774946 now IPC :0.19670: AVG IPC :0.46014: L2-Pf-HR :-nan: L2-HR :0.58940: (Sim:0h3m46s) 
CPU  0 inst:   48000000 cyc:  103686805 now IPC :0.20359: AVG IPC :0.44787: L2-Pf-HR :-nan: L2-HR :0.58505: (Sim:0h3m56s) 
CPU  0 inst:   49000000 cyc:  108932118 now IPC :0.19065: AVG IPC :0.43537: L2-Pf-HR :-nan: L2-HR :0.58085: (Sim:0h4m6s) 
CPU  0 inst:   50000003 cyc:  113987308 now IPC :0.19782: AVG IPC :0.42474: L2-Pf-HR :-nan: L2-HR :0.57678: (Sim:0h4m15s) 
CPU  0 inst:   51000001 cyc:  116433855 now IPC :0.40874: AVG IPC :0.42441: L2-Pf-HR :-nan: L2-HR :0.58448: (Sim:0h4m19s) 
CPU  0 inst:   52000000 cyc:  117396644 now IPC :1.03865: AVG IPC :0.42948: L2-Pf-HR :-nan: L2-HR :0.59870: (Sim:0h4m23s) 
CPU  0 inst:   53000002 cyc:  118410924 now IPC :0.98592: AVG IPC :0.43429: L2-Pf-HR :-nan: L2-HR :0.61152: (Sim:0h4m27s) 
CPU  0 inst:   54000001 cyc:  119311667 now IPC :1.11019: AVG IPC :0.43944: L2-Pf-HR :-nan: L2-HR :0.62336: (Sim:0h4m31s) 
CPU  0 inst:   55000002 cyc:  120359242 now IPC :0.95459: AVG IPC :0.44396: L2-Pf-HR :-nan: L2-HR :0.63411: (Sim:0h4m35s) 
CPU  0 inst:   56000000 cyc:  121305131 now IPC :1.05720: AVG IPC :0.44878: L2-Pf-HR :-nan: L2-HR :0.64452: (Sim:0h4m38s) 
CPU  0 inst:   57000001 cyc:  122274889 now IPC :1.03119: AVG IPC :0.45343: L2-Pf-HR :-nan: L2-HR :0.65381: (Sim:0h4m41s) 
CPU  0 inst:   58000001 cyc:  123145219 now IPC :1.14899: AVG IPC :0.45839: L2-Pf-HR :-nan: L2-HR :0.66268: (Sim:0h4m45s) 
CPU  0 inst:   59000000 cyc:  124024355 now IPC :1.13748: AVG IPC :0.46324: L2-Pf-HR :-nan: L2-HR :0.67089: (Sim:0h4m48s) 
CPU  0 inst:   60000000 cyc:  124924692 now IPC :1.11070: AVG IPC :0.46794: L2-Pf-HR :-nan: L2-HR :0.67884: (Sim:0h4m53s) 
CPU  0 inst:   61000002 cyc:  125879591 now IPC :1.04723: AVG IPC :0.47237: L2-Pf-HR :-nan: L2-HR :0.68578: (Sim:0h4m58s) 
CPU  0 inst:   62000001 cyc:  126701858 now IPC :1.21615: AVG IPC :0.47724: L2-Pf-HR :-nan: L2-HR :0.69279: (Sim:0h5m2s) 
CPU  0 inst:   63000002 cyc:  127559611 now IPC :1.16584: AVG IPC :0.48190: L2-Pf-HR :-nan: L2-HR :0.69928: (Sim:0h5m7s) 
CPU  0 inst:   64000000 cyc:  128444156 now IPC :1.13052: AVG IPC :0.48640: L2-Pf-HR :-nan: L2-HR :0.70554: (Sim:0h5m12s) 
CPU  0 inst:   65000003 cyc:  129380242 now IPC :1.06828: AVG IPC :0.49065: L2-Pf-HR :-nan: L2-HR :0.71112: (Sim:0h5m16s) 
CPU  0 inst:   66000000 cyc:  130226624 now IPC :1.18150: AVG IPC :0.49517: L2-Pf-HR :-nan: L2-HR :0.71661: (Sim:0h5m21s) 
CPU  0 inst:   67000003 cyc:  131019032 now IPC :1.26198: AVG IPC :0.49984: L2-Pf-HR :-nan: L2-HR :0.72217: (Sim:0h5m25s) 
CPU  0 inst:   68000000 cyc:  131958341 now IPC :1.06461: AVG IPC :0.50389: L2-Pf-HR :-nan: L2-HR :0.72685: (Sim:0h5m29s) 
CPU  0 inst:   69000000 cyc:  132879736 now IPC :1.08531: AVG IPC :0.50795: L2-Pf-HR :-nan: L2-HR :0.73153: (Sim:0h5m34s) 
CPU  0 inst:   70000000 cyc:  133752969 now IPC :1.14517: AVG IPC :0.51215: L2-Pf-HR :-nan: L2-HR :0.73585: (Sim:0h5m38s) 
CPU  0 inst:   71000002 cyc:  134542686 now IPC :1.26628: AVG IPC :0.51660: L2-Pf-HR :-nan: L2-HR :0.74034: (Sim:0h5m42s) 
CPU  0 inst:   72000000 cyc:  135459183 now IPC :1.09111: AVG IPC :0.52052: L2-Pf-HR :-nan: L2-HR :0.74425: (Sim:0h5m45s) 
CPU  0 inst:   73000002 cyc:  136384856 now IPC :1.08030: AVG IPC :0.52435: L2-Pf-HR :-nan: L2-HR :0.74813: (Sim:0h5m48s) 
CPU  0 inst:   74000000 cyc:  137269430 now IPC :1.13049: AVG IPC :0.52828: L2-Pf-HR :-nan: L2-HR :0.75175: (Sim:0h5m52s) 
CPU  0 inst:   75000003 cyc:  138076640 now IPC :1.23884: AVG IPC :0.53246: L2-Pf-HR :-nan: L2-HR :0.75544: (Sim:0h5m56s) 
CPU  0 inst:   76000000 cyc:  138989227 now IPC :1.09578: AVG IPC :0.53619: L2-Pf-HR :-nan: L2-HR :0.75869: (Sim:0h6m0s) 
CPU  0 inst:   77000003 cyc:  139913583 now IPC :1.08184: AVG IPC :0.53982: L2-Pf-HR :-nan: L2-HR :0.76196: (Sim:0h6m3s) 
CPU  0 inst:   78000002 cyc:  140784678 now IPC :1.14798: AVG IPC :0.54361: L2-Pf-HR :-nan: L2-HR :0.76508: (Sim:0h6m6s) 
CPU  0 inst:   79000000 cyc:  141592517 now IPC :1.23787: AVG IPC :0.54760: L2-Pf-HR :-nan: L2-HR :0.76820: (Sim:0h6m9s) 
CPU  0 inst:   80000000 cyc:  142502228 now IPC :1.09925: AVG IPC :0.55114: L2-Pf-HR :-nan: L2-HR :0.77089: (Sim:0h6m13s) 
Finished CPU 0 instr: 78000000 cyc: 141524144 AVG IPC: 0.55114 (Sim time: 0h6m13s)

ChampSim completed all CPUs

[ROI Statistics]
Core_0_instructions 78000000
Core_0_cycles 141524144
Core_0_IPC 0.55114

Core_0_branch_prediction_accuracy 99.16542
Core_0_branch_MPKI 0.25491
Core_0_average_ROB_occupancy_at_mispredict 231.25816

Core_0_L1D_total_access 23467591
Core_0_L1D_total_hit 20460443 L1D_total_Hit Ratio: 0.87186
Core_0_L1D_total_miss 3007148
Core_0_L1D_loads 21305555
Core_0_L1D_load_hit 18430882 L1D_load_Hit Ratio: 0.86507
Core_0_L1D_load_miss 2874673
Core_0_L1D_RFOs 2162036
Core_0_L1D_RFO_hit 2029561 L1D_RFO_Hit Ratio: 0.93873
Core_0_L1D_RFO_miss 132475
Core_0_L1D_prefetches 0
Core_0_L1D_prefetch_hit 0 L1D_prefetch_Hit Ratio: -nan
Core_0_L1D_prefetch_miss 0
Core_0_L1D_writebacks 0
Core_0_L1D_writeback_hit 0 L1D_writeback_Hit Ratio: -nan
Core_0_L1D_writeback_miss 0
Core_0_L1D_prefetch_requested 0
Core_0_L1D_prefetch_issued 0
Core_0_L1D_prefetch_useful 0 L1D_Useful Ratio: -nan
Core_0_L1D_prefetch_useless 0
Core_0_L1D_prefetch_late 0
Core_0_L1D_average_miss_latency 84.05785

Core_0_L1I_total_access 19682169
Core_0_L1I_total_hit 19677257 L1I_total_Hit Ratio: 0.99975
Core_0_L1I_total_miss 4912
Core_0_L1I_loads 19682169
Core_0_L1I_load_hit 19677257 L1I_load_Hit Ratio: 0.99975
Core_0_L1I_load_miss 4912
Core_0_L1I_RFOs 0
Core_0_L1I_RFO_hit 0 L1I_RFO_Hit Ratio: -nan
Core_0_L1I_RFO_miss 0
Core_0_L1I_prefetches 0
Core_0_L1I_prefetch_hit 0 L1I_prefetch_Hit Ratio: -nan
Core_0_L1I_prefetch_miss 0
Core_0_L1I_writebacks 0
Core_0_L1I_writeback_hit 0 L1I_writeback_Hit Ratio: -nan
Core_0_L1I_writeback_miss 0
Core_0_L1I_prefetch_requested 0
Core_0_L1I_prefetch_issued 0
Core_0_L1I_prefetch_useful 0 L1I_Useful Ratio: -nan
Core_0_L1I_prefetch_useless 0
Core_0_L1I_prefetch_late 0
Core_0_L1I_average_miss_latency 264.94605

Core_0_L2C_total_access 3503595
Core_0_L2C_total_hit 2700879 L2C_total_Hit Ratio: 0.77089
Core_0_L2C_total_miss 802716
Core_0_L2C_loads 2879585
Core_0_L2C_load_hit 2209445 L2C_load_Hit Ratio: 0.76728
Core_0_L2C_load_miss 670140
Core_0_L2C_RFOs 132475
Core_0_L2C_RFO_hit 915 L2C_RFO_Hit Ratio: 0.00691
Core_0_L2C_RFO_miss 131560
Core_0_L2C_prefetches 0
Core_0_L2C_prefetch_hit 0 L2C_prefetch_Hit Ratio: -nan
Core_0_L2C_prefetch_miss 0
Core_0_L2C_writebacks 491535
Core_0_L2C_writeback_hit 490519 L2C_writeback_Hit Ratio: 0.99793
Core_0_L2C_writeback_miss 1016
Core_0_L2C_prefetch_requested 0
Core_0_L2C_prefetch_issued 0
Core_0_L2C_prefetch_useful 0 L2C_Useful Ratio: -nan
Core_0_L2C_prefetch_useless 0
Core_0_L2C_prefetch_late 0
Core_0_L2C_average_miss_latency 262.41132

Core_0_LLC_total_access 1274843
Core_0_LLC_total_hit 575269 LLC_total_Hit Ratio: 0.45125
Core_0_LLC_total_miss 699574
Core_0_LLC_loads 670140
Core_0_LLC_load_hit 101956 LLC_load_Hit Ratio: 0.15214
Core_0_LLC_load_miss 568184
Core_0_LLC_RFOs 131560
Core_0_LLC_RFO_hit 286 LLC_RFO_Hit Ratio: 0.00217
Core_0_LLC_RFO_miss 131274
Core_0_LLC_prefetches 0
Core_0_LLC_prefetch_hit 0 LLC_prefetch_Hit Ratio: -nan
Core_0_LLC_prefetch_miss 0
Core_0_LLC_writebacks 473143
Core_0_LLC_writeback_hit 473027 LLC_writeback_Hit Ratio: 0.99975
Core_0_LLC_writeback_miss 116
Core_0_LLC_prefetch_requested 0
Core_0_LLC_prefetch_issued 0
Core_0_LLC_prefetch_useful 0 LLC_Useful Ratio: -nan
Core_0_LLC_prefetch_useless 0
Core_0_LLC_prefetch_late 0
Core_0_LLC_average_miss_latency 266.50460

Core_0_major_page_fault 0
Core_0_minor_page_fault 6067

Channel_0_RQ_row_buffer_hit 359468
Channel_0_RQ_row_buffer_miss 339990
Channel_0_WQ_row_buffer_hit 174551
Channel_0_WQ_row_buffer_miss 233532
Channel_0_WQ_full 0
Channel_0_dbus_congested 352368

avg_congested_cycle 11

EzSearch AVG IPC :0.55114: L2-Pf-HR :-nan : L2-HR :0.77089 Uful:-nan
     > Finished combination: TraceType=770-tot Sim:78000000 Prefetcher=L2no L1=no
