TRACE: [1622000000][GPT-Neo-2_7B]_[h32][s1024][d80] Warmup: 2000000 NumTraces: 1622000000
L1:next_line:L2:no
*************************************************
   ChampSim Multicore Out-of-Order Simulator
   Last compiled: Oct 22 2024 11:25:28
*************************************************

trace_0 770-tot_memTraces_v3/memTraces[1622000000][GPT-Neo-2_7B]_[h32][s1024][d80].champsim.xz
CPU 0 L1D next line prefetcher
MAIN.cc ln 751 stats print skipped
CPU  0 inst:    1000003 cyc:     505853 now IPC :1.97686: AVG IPC :1.97686: L2-Pf-HR :0.48405: L2-HR :0.58615: (Sim:0h0m4s) 
CPU  0 inst:    2000001 cyc:     995065 now IPC :2.04410: AVG IPC :2.00992: L2-Pf-HR :0.55501: L2-HR :0.65210: (Sim:0h0m9s) 

Warmup complete CPU  0 instructions:    2000001 cycles:     995065 (Simulation time: 0 hr 0 min 9 sec) 

CPU  0 inst:    3000001 cyc:    1555723 now IPC :1.78362: AVG IPC :1.78362: L2-Pf-HR :0.60875: L2-HR :0.68727: (Sim:0h0m13s) 
CPU  0 inst:    4000005 cyc:    2107958 now IPC :1.81083: AVG IPC :1.79712: L2-Pf-HR :0.61267: L2-HR :0.68816: (Sim:0h0m18s) 
CPU  0 inst:    5000000 cyc:    2662796 now IPC :1.80232: AVG IPC :1.79885: L2-Pf-HR :0.61570: L2-HR :0.69000: (Sim:0h0m24s) 
CPU  0 inst:    6000000 cyc:    3221617 now IPC :1.78948: AVG IPC :1.79650: L2-Pf-HR :0.61746: L2-HR :0.69014: (Sim:0h0m31s) 
CPU  0 inst:    7000005 cyc:    3777085 now IPC :1.80029: AVG IPC :1.79726: L2-Pf-HR :0.61718: L2-HR :0.69006: (Sim:0h0m38s) 
CPU  0 inst:    8000000 cyc:    4428634 now IPC :1.53480: AVG IPC :1.74745: L2-Pf-HR :0.62013: L2-HR :0.68977: (Sim:0h0m46s) 
CPU  0 inst:    9000003 cyc:    4976883 now IPC :1.82399: AVG IPC :1.75799: L2-Pf-HR :0.62218: L2-HR :0.69179: (Sim:0h0m53s) 
CPU  0 inst:   10000005 cyc:    5527433 now IPC :1.81637: AVG IPC :1.76508: L2-Pf-HR :0.62361: L2-HR :0.69255: (Sim:0h1m0s) 
CPU  0 inst:   11000001 cyc:    6072648 now IPC :1.83413: AVG IPC :1.77250: L2-Pf-HR :0.62539: L2-HR :0.69309: (Sim:0h1m7s) 
CPU  0 inst:   12000000 cyc:    6621046 now IPC :1.82349: AVG IPC :1.77747: L2-Pf-HR :0.62709: L2-HR :0.69412: (Sim:0h1m14s) 
CPU  0 inst:   13000001 cyc:    7164243 now IPC :1.84095: AVG IPC :1.78306: L2-Pf-HR :0.62889: L2-HR :0.69484: (Sim:0h1m21s) 
CPU  0 inst:   14000004 cyc:    7708090 now IPC :1.83876: AVG IPC :1.78757: L2-Pf-HR :0.62948: L2-HR :0.69514: (Sim:0h1m29s) 
CPU  0 inst:   15000001 cyc:    8246919 now IPC :1.85587: AVG IPC :1.79264: L2-Pf-HR :0.63391: L2-HR :0.69654: (Sim:0h1m33s) 
CPU  0 inst:   16000000 cyc:    8891314 now IPC :1.55184: AVG IPC :1.77299: L2-Pf-HR :0.63475: L2-HR :0.70305: (Sim:0h1m38s) 
CPU  0 inst:   17000002 cyc:    9425630 now IPC :1.87156: AVG IPC :1.77924: L2-Pf-HR :0.63765: L2-HR :0.71222: (Sim:0h1m44s) 
CPU  0 inst:   18000005 cyc:    9967682 now IPC :1.84485: AVG IPC :1.78320: L2-Pf-HR :0.64014: L2-HR :0.72023: (Sim:0h1m52s) 
CPU  0 inst:   19000004 cyc:   10507984 now IPC :1.85081: AVG IPC :1.78704: L2-Pf-HR :0.64274: L2-HR :0.72741: (Sim:0h1m59s) 
CPU  0 inst:   20000005 cyc:   11046299 now IPC :1.85765: AVG IPC :1.79083: L2-Pf-HR :0.64632: L2-HR :0.73441: (Sim:0h2m7s) 
CPU  0 inst:   21000000 cyc:   11761547 now IPC :1.39811: AVG IPC :1.76474: L2-Pf-HR :0.64167: L2-HR :0.72924: (Sim:0h2m15s) 
CPU  0 inst:   22000005 cyc:   12330623 now IPC :1.75724: AVG IPC :1.76436: L2-Pf-HR :0.64060: L2-HR :0.72731: (Sim:0h2m22s) 
CPU  0 inst:   23000001 cyc:   12895191 now IPC :1.77126: AVG IPC :1.76469: L2-Pf-HR :0.63947: L2-HR :0.72541: (Sim:0h2m28s) 
CPU  0 inst:   24000000 cyc:   13459649 now IPC :1.77161: AVG IPC :1.76500: L2-Pf-HR :0.63836: L2-HR :0.72360: (Sim:0h2m33s) 
CPU  0 inst:   25000004 cyc:   14032856 now IPC :1.74458: AVG IPC :1.76410: L2-Pf-HR :0.63776: L2-HR :0.72215: (Sim:0h2m38s) 
CPU  0 inst:   26000004 cyc:   14602398 now IPC :1.75580: AVG IPC :1.76376: L2-Pf-HR :0.63660: L2-HR :0.72061: (Sim:0h2m43s) 
CPU  0 inst:   27000003 cyc:   15173883 now IPC :1.74983: AVG IPC :1.76319: L2-Pf-HR :0.63548: L2-HR :0.71913: (Sim:0h2m49s) 
CPU  0 inst:   28000003 cyc:   15880673 now IPC :1.41485: AVG IPC :1.74665: L2-Pf-HR :0.63566: L2-HR :0.71797: (Sim:0h2m54s) 
CPU  0 inst:   29000000 cyc:   16432267 now IPC :1.81292: AVG IPC :1.74902: L2-Pf-HR :0.63596: L2-HR :0.71752: (Sim:0h2m59s) 
CPU  0 inst:   30000001 cyc:   16984394 now IPC :1.81118: AVG IPC :1.75117: L2-Pf-HR :0.63600: L2-HR :0.71686: (Sim:0h3m6s) 
CPU  0 inst:   31000000 cyc:   17530897 now IPC :1.82981: AVG IPC :1.75377: L2-Pf-HR :0.63615: L2-HR :0.71636: (Sim:0h3m13s) 
CPU  0 inst:   32000000 cyc:   18076816 now IPC :1.83177: AVG IPC :1.75626: L2-Pf-HR :0.63649: L2-HR :0.71603: (Sim:0h3m20s) 
CPU  0 inst:   33000000 cyc:   18621814 now IPC :1.83487: AVG IPC :1.75869: L2-Pf-HR :0.63691: L2-HR :0.71566: (Sim:0h3m27s) 
CPU  0 inst:   34000005 cyc:   19168615 now IPC :1.82883: AVG IPC :1.76080: L2-Pf-HR :0.63721: L2-HR :0.71529: (Sim:0h3m34s) 
CPU  0 inst:   35000005 cyc:   19712012 now IPC :1.84028: AVG IPC :1.76311: L2-Pf-HR :0.63896: L2-HR :0.71534: (Sim:0h3m39s) 
CPU  0 inst:   36000003 cyc:   20360606 now IPC :1.54179: AVG IPC :1.75570: L2-Pf-HR :0.63937: L2-HR :0.71750: (Sim:0h3m44s) 
CPU  0 inst:   37000002 cyc:   20899339 now IPC :1.85621: AVG IPC :1.75842: L2-Pf-HR :0.64038: L2-HR :0.72100: (Sim:0h3m48s) 
CPU  0 inst:   38000000 cyc:   21443427 now IPC :1.83793: AVG IPC :1.76053: L2-Pf-HR :0.64140: L2-HR :0.72430: (Sim:0h3m53s) 
CPU  0 inst:   39000002 cyc:   21979642 now IPC :1.86493: AVG IPC :1.76320: L2-Pf-HR :0.64253: L2-HR :0.72753: (Sim:0h3m57s) 
CPU  0 inst:   40000000 cyc:   22517617 now IPC :1.85882: AVG IPC :1.76559: L2-Pf-HR :0.64428: L2-HR :0.73084: (Sim:0h4m2s) 
CPU  0 inst:   41000001 cyc:   23235665 now IPC :1.39267: AVG IPC :1.75355: L2-Pf-HR :0.64198: L2-HR :0.72845: (Sim:0h4m7s) 
CPU  0 inst:   42000003 cyc:   23802660 now IPC :1.76369: AVG IPC :1.75380: L2-Pf-HR :0.64156: L2-HR :0.72748: (Sim:0h4m11s) 
CPU  0 inst:   43000002 cyc:   24373856 now IPC :1.75071: AVG IPC :1.75373: L2-Pf-HR :0.64102: L2-HR :0.72650: (Sim:0h4m16s) 
CPU  0 inst:   44000004 cyc:   24938400 now IPC :1.77134: AVG IPC :1.75414: L2-Pf-HR :0.64045: L2-HR :0.72545: (Sim:0h4m21s) 
CPU  0 inst:   45000000 cyc:   25509281 now IPC :1.75167: AVG IPC :1.75408: L2-Pf-HR :0.64007: L2-HR :0.72472: (Sim:0h4m25s) 
CPU  0 inst:   46000001 cyc:   26081290 now IPC :1.74823: AVG IPC :1.75395: L2-Pf-HR :0.63950: L2-HR :0.72390: (Sim:0h4m30s) 
CPU  0 inst:   47000001 cyc:   26655358 now IPC :1.74195: AVG IPC :1.75368: L2-Pf-HR :0.63894: L2-HR :0.72299: (Sim:0h4m34s) 
CPU  0 inst:   48000000 cyc:   27360262 now IPC :1.41863: AVG IPC :1.74472: L2-Pf-HR :0.63867: L2-HR :0.72209: (Sim:0h4m39s) 
CPU  0 inst:   49000000 cyc:   27910340 now IPC :1.81792: AVG IPC :1.74622: L2-Pf-HR :0.63883: L2-HR :0.72177: (Sim:0h4m44s) 
CPU  0 inst:   50000004 cyc:   28458249 now IPC :1.82513: AVG IPC :1.74779: L2-Pf-HR :0.63876: L2-HR :0.72128: (Sim:0h4m48s) 
CPU  0 inst:   51000001 cyc:   29008080 now IPC :1.81874: AVG IPC :1.74919: L2-Pf-HR :0.63886: L2-HR :0.72091: (Sim:0h4m53s) 
CPU  0 inst:   52000005 cyc:   29555100 now IPC :1.82809: AVG IPC :1.75070: L2-Pf-HR :0.63902: L2-HR :0.72054: (Sim:0h4m57s) 
CPU  0 inst:   53000004 cyc:   30101241 now IPC :1.83103: AVG IPC :1.75221: L2-Pf-HR :0.63916: L2-HR :0.72023: (Sim:0h5m2s) 
CPU  0 inst:   54000003 cyc:   30650202 now IPC :1.82162: AVG IPC :1.75349: L2-Pf-HR :0.63926: L2-HR :0.71979: (Sim:0h5m6s) 
CPU  0 inst:   55000002 cyc:   31195504 now IPC :1.83384: AVG IPC :1.75494: L2-Pf-HR :0.64043: L2-HR :0.71977: (Sim:0h5m13s) 
CPU  0 inst:   56000000 cyc:   31842867 now IPC :1.54473: AVG IPC :1.75053: L2-Pf-HR :0.64043: L2-HR :0.72099: (Sim:0h5m21s) 
CPU  0 inst:   57000003 cyc:   32384930 now IPC :1.84481: AVG IPC :1.75216: L2-Pf-HR :0.64111: L2-HR :0.72315: (Sim:0h5m28s) 
CPU  0 inst:   58000004 cyc:   32930537 now IPC :1.83282: AVG IPC :1.75354: L2-Pf-HR :0.64174: L2-HR :0.72520: (Sim:0h5m36s) 
CPU  0 inst:   59000002 cyc:   33472708 now IPC :1.84443: AVG IPC :1.75505: L2-Pf-HR :0.64245: L2-HR :0.72727: (Sim:0h5m43s) 
CPU  0 inst:   60000003 cyc:   34012108 now IPC :1.85391: AVG IPC :1.75667: L2-Pf-HR :0.64367: L2-HR :0.72944: (Sim:0h5m50s) 
CPU  0 inst:   61000001 cyc:   34732325 now IPC :1.38847: AVG IPC :1.74881: L2-Pf-HR :0.64228: L2-HR :0.72789: (Sim:0h5m58s) 
CPU  0 inst:   62000004 cyc:   35306185 now IPC :1.74259: AVG IPC :1.74870: L2-Pf-HR :0.64191: L2-HR :0.72728: (Sim:0h6m6s) 
CPU  0 inst:   63000000 cyc:   35868213 now IPC :1.77926: AVG IPC :1.74920: L2-Pf-HR :0.64139: L2-HR :0.72656: (Sim:0h6m13s) 
CPU  0 inst:   64000000 cyc:   36436682 now IPC :1.75911: AVG IPC :1.74936: L2-Pf-HR :0.64105: L2-HR :0.72588: (Sim:0h6m20s) 
CPU  0 inst:   65000000 cyc:   37001158 now IPC :1.77155: AVG IPC :1.74970: L2-Pf-HR :0.64080: L2-HR :0.72536: (Sim:0h6m28s) 
CPU  0 inst:   66000000 cyc:   37576128 now IPC :1.73922: AVG IPC :1.74954: L2-Pf-HR :0.64041: L2-HR :0.72477: (Sim:0h6m35s) 
CPU  0 inst:   67000001 cyc:   38150475 now IPC :1.74111: AVG IPC :1.74941: L2-Pf-HR :0.63996: L2-HR :0.72411: (Sim:0h6m43s) 
CPU  0 inst:   68000002 cyc:   38857945 now IPC :1.41349: AVG IPC :1.74313: L2-Pf-HR :0.63985: L2-HR :0.72353: (Sim:0h6m51s) 
CPU  0 inst:   69000001 cyc:   39407907 now IPC :1.81831: AVG IPC :1.74421: L2-Pf-HR :0.63977: L2-HR :0.72323: (Sim:0h6m58s) 
CPU  0 inst:   70000003 cyc:   39955650 now IPC :1.82568: AVG IPC :1.74535: L2-Pf-HR :0.63956: L2-HR :0.72279: (Sim:0h7m5s) 
CPU  0 inst:   71000002 cyc:   40503120 now IPC :1.82658: AVG IPC :1.74648: L2-Pf-HR :0.63963: L2-HR :0.72250: (Sim:0h7m12s) 
CPU  0 inst:   72000000 cyc:   41046489 now IPC :1.84037: AVG IPC :1.74775: L2-Pf-HR :0.63958: L2-HR :0.72216: (Sim:0h7m20s) 
CPU  0 inst:   73000005 cyc:   41591769 now IPC :1.83393: AVG IPC :1.74891: L2-Pf-HR :0.63964: L2-HR :0.72191: (Sim:0h7m27s) 
CPU  0 inst:   74000004 cyc:   42133951 now IPC :1.84440: AVG IPC :1.75017: L2-Pf-HR :0.63959: L2-HR :0.72156: (Sim:0h7m34s) 
CPU  0 inst:   75000002 cyc:   42677265 now IPC :1.84055: AVG IPC :1.75135: L2-Pf-HR :0.64044: L2-HR :0.72153: (Sim:0h7m42s) 
CPU  0 inst:   76000002 cyc:   43319232 now IPC :1.55771: AVG IPC :1.74841: L2-Pf-HR :0.64047: L2-HR :0.72243: (Sim:0h7m49s) 
CPU  0 inst:   77000004 cyc:   43852539 now IPC :1.87510: AVG IPC :1.74999: L2-Pf-HR :0.64098: L2-HR :0.72402: (Sim:0h7m56s) 
CPU  0 inst:   78000002 cyc:   44388277 now IPC :1.86658: AVG IPC :1.75143: L2-Pf-HR :0.64148: L2-HR :0.72554: (Sim:0h8m4s) 
CPU  0 inst:   79000003 cyc:   44928348 now IPC :1.85161: AVG IPC :1.75266: L2-Pf-HR :0.64202: L2-HR :0.72704: (Sim:0h8m11s) 
CPU  0 inst:   80000000 cyc:   45470973 now IPC :1.84289: AVG IPC :1.75376: L2-Pf-HR :0.64302: L2-HR :0.72865: (Sim:0h8m18s) 
CPU  0 inst:   81000003 cyc:   46192044 now IPC :1.38683: AVG IPC :1.74790: L2-Pf-HR :0.64186: L2-HR :0.72746: (Sim:0h8m26s) 
CPU  0 inst:   82000001 cyc:   46760257 now IPC :1.75990: AVG IPC :1.74805: L2-Pf-HR :0.64176: L2-HR :0.72706: (Sim:0h8m34s) 
CPU  0 inst:   83000003 cyc:   47330894 now IPC :1.75243: AVG IPC :1.74811: L2-Pf-HR :0.64144: L2-HR :0.72658: (Sim:0h8m41s) 
CPU  0 inst:   84000003 cyc:   47902401 now IPC :1.74976: AVG IPC :1.74813: L2-Pf-HR :0.64121: L2-HR :0.72605: (Sim:0h8m48s) 
CPU  0 inst:   85000005 cyc:   48473222 now IPC :1.75187: AVG IPC :1.74817: L2-Pf-HR :0.64100: L2-HR :0.72567: (Sim:0h8m56s) 
CPU  0 inst:   86000004 cyc:   49040064 now IPC :1.76416: AVG IPC :1.74836: L2-Pf-HR :0.64070: L2-HR :0.72524: (Sim:0h9m3s) 
CPU  0 inst:   87000000 cyc:   49616998 now IPC :1.73329: AVG IPC :1.74818: L2-Pf-HR :0.64039: L2-HR :0.72477: (Sim:0h9m11s) 
CPU  0 inst:   88000000 cyc:   50318572 now IPC :1.42537: AVG IPC :1.74359: L2-Pf-HR :0.64022: L2-HR :0.72426: (Sim:0h9m18s) 
CPU  0 inst:   89000005 cyc:   50868345 now IPC :1.81894: AVG IPC :1.74442: L2-Pf-HR :0.64015: L2-HR :0.72401: (Sim:0h9m26s) 
CPU  0 inst:   90000001 cyc:   51419662 now IPC :1.81383: AVG IPC :1.74518: L2-Pf-HR :0.64013: L2-HR :0.72374: (Sim:0h9m33s) 
CPU  0 inst:   91000000 cyc:   51970331 now IPC :1.81597: AVG IPC :1.74594: L2-Pf-HR :0.64008: L2-HR :0.72347: (Sim:0h9m40s) 
CPU  0 inst:   92000001 cyc:   52517933 now IPC :1.82615: AVG IPC :1.74680: L2-Pf-HR :0.64002: L2-HR :0.72319: (Sim:0h9m47s) 
CPU  0 inst:   93000000 cyc:   53065765 now IPC :1.82538: AVG IPC :1.74762: L2-Pf-HR :0.64010: L2-HR :0.72298: (Sim:0h9m54s) 
CPU  0 inst:   94000001 cyc:   53610583 now IPC :1.83548: AVG IPC :1.74853: L2-Pf-HR :0.64014: L2-HR :0.72275: (Sim:0h10m2s) 
CPU  0 inst:   95000002 cyc:   54156267 now IPC :1.83256: AVG IPC :1.74940: L2-Pf-HR :0.64077: L2-HR :0.72271: (Sim:0h10m9s) 
CPU  0 inst:   96000000 cyc:   54794206 now IPC :1.56754: AVG IPC :1.74724: L2-Pf-HR :0.64069: L2-HR :0.72340: (Sim:0h10m16s) 
CPU  0 inst:   97000003 cyc:   55332517 now IPC :1.85767: AVG IPC :1.74833: L2-Pf-HR :0.64114: L2-HR :0.72464: (Sim:0h10m24s) 
CPU  0 inst:   98000003 cyc:   55875676 now IPC :1.84108: AVG IPC :1.74925: L2-Pf-HR :0.64153: L2-HR :0.72583: (Sim:0h10m31s) 
CPU  0 inst:   99000001 cyc:   56413085 now IPC :1.86078: AVG IPC :1.75033: L2-Pf-HR :0.64196: L2-HR :0.72705: (Sim:0h10m38s) 
CPU  0 inst:  100000000 cyc:   56958658 now IPC :1.83293: AVG IPC :1.75114: L2-Pf-HR :0.64277: L2-HR :0.72832: (Sim:0h10m44s) 
CPU  0 inst:  101000000 cyc:   57679414 now IPC :1.38743: AVG IPC :1.74651: L2-Pf-HR :0.64185: L2-HR :0.72735: (Sim:0h10m49s) 
CPU  0 inst:  102000002 cyc:   58246933 now IPC :1.76206: AVG IPC :1.74667: L2-Pf-HR :0.64170: L2-HR :0.72703: (Sim:0h10m53s) 
CPU  0 inst:  103000002 cyc:   58814547 now IPC :1.76176: AVG IPC :1.74682: L2-Pf-HR :0.64140: L2-HR :0.72658: (Sim:0h10m57s) 
CPU  0 inst:  104000000 cyc:   59379434 now IPC :1.77026: AVG IPC :1.74704: L2-Pf-HR :0.64109: L2-HR :0.72614: (Sim:0h11m2s) 
CPU  0 inst:  105000000 cyc:   59947966 now IPC :1.75892: AVG IPC :1.74716: L2-Pf-HR :0.64092: L2-HR :0.72580: (Sim:0h11m6s) 
CPU  0 inst:  106000002 cyc:   60519858 now IPC :1.74859: AVG IPC :1.74717: L2-Pf-HR :0.64072: L2-HR :0.72544: (Sim:0h11m10s) 
CPU  0 inst:  107000001 cyc:   61091294 now IPC :1.74998: AVG IPC :1.74720: L2-Pf-HR :0.64048: L2-HR :0.72505: (Sim:0h11m15s) 
CPU  0 inst:  108000005 cyc:   61792721 now IPC :1.42567: AVG IPC :1.74349: L2-Pf-HR :0.64042: L2-HR :0.72464: (Sim:0h11m19s) 
CPU  0 inst:  109000000 cyc:   62342784 now IPC :1.81796: AVG IPC :1.74416: L2-Pf-HR :0.64039: L2-HR :0.72443: (Sim:0h11m23s) 
CPU  0 inst:  110000000 cyc:   62893852 now IPC :1.81466: AVG IPC :1.74478: L2-Pf-HR :0.64044: L2-HR :0.72423: (Sim:0h11m28s) 
CPU  0 inst:  111000004 cyc:   63441401 now IPC :1.82633: AVG IPC :1.74550: L2-Pf-HR :0.64044: L2-HR :0.72401: (Sim:0h11m32s) 
CPU  0 inst:  112000000 cyc:   63991209 now IPC :1.81881: AVG IPC :1.74614: L2-Pf-HR :0.64038: L2-HR :0.72380: (Sim:0h11m36s) 
CPU  0 inst:  113000003 cyc:   64535987 now IPC :1.83562: AVG IPC :1.74691: L2-Pf-HR :0.64043: L2-HR :0.72359: (Sim:0h11m40s) 
CPU  0 inst:  114000003 cyc:   65078980 now IPC :1.84164: AVG IPC :1.74771: L2-Pf-HR :0.64046: L2-HR :0.72341: (Sim:0h11m45s) 
CPU  0 inst:  115000004 cyc:   65629083 now IPC :1.81784: AVG IPC :1.74831: L2-Pf-HR :0.64098: L2-HR :0.72335: (Sim:0h11m49s) 
CPU  0 inst:  116000000 cyc:   66264083 now IPC :1.57480: AVG IPC :1.74662: L2-Pf-HR :0.64096: L2-HR :0.72394: (Sim:0h11m54s) 
CPU  0 inst:  117000001 cyc:   66806109 now IPC :1.84493: AVG IPC :1.74743: L2-Pf-HR :0.64134: L2-HR :0.72496: (Sim:0h11m58s) 
CPU  0 inst:  118000000 cyc:   67348281 now IPC :1.84443: AVG IPC :1.74822: L2-Pf-HR :0.64163: L2-HR :0.72593: (Sim:0h12m2s) 
CPU  0 inst:  119000000 cyc:   67883469 now IPC :1.86850: AVG IPC :1.74918: L2-Pf-HR :0.64198: L2-HR :0.72693: (Sim:0h12m6s) 
CPU  0 inst:  120000000 cyc:   68427886 now IPC :1.83683: AVG IPC :1.74989: L2-Pf-HR :0.64272: L2-HR :0.72801: (Sim:0h12m11s) 
CPU  0 inst:  121000002 cyc:   69143915 now IPC :1.39659: AVG IPC :1.74618: L2-Pf-HR :0.64184: L2-HR :0.72720: (Sim:0h12m15s) 
CPU  0 inst:  122000004 cyc:   69705683 now IPC :1.78010: AVG IPC :1.74645: L2-Pf-HR :0.64166: L2-HR :0.72690: (Sim:0h12m20s) 
CPU  0 inst:  123000000 cyc:   70271395 now IPC :1.76768: AVG IPC :1.74663: L2-Pf-HR :0.64152: L2-HR :0.72660: (Sim:0h12m24s) 
CPU  0 inst:  124000005 cyc:   70844176 now IPC :1.74588: AVG IPC :1.74662: L2-Pf-HR :0.64132: L2-HR :0.72626: (Sim:0h12m29s) 
CPU  0 inst:  125000002 cyc:   71412392 now IPC :1.75989: AVG IPC :1.74673: L2-Pf-HR :0.64112: L2-HR :0.72596: (Sim:0h12m33s) 
CPU  0 inst:  126000003 cyc:   71986251 now IPC :1.74259: AVG IPC :1.74670: L2-Pf-HR :0.64103: L2-HR :0.72569: (Sim:0h12m37s) 
CPU  0 inst:  127000003 cyc:   72559774 now IPC :1.74361: AVG IPC :1.74667: L2-Pf-HR :0.64078: L2-HR :0.72536: (Sim:0h12m42s) 
CPU  0 inst:  128000000 cyc:   73261318 now IPC :1.42542: AVG IPC :1.74355: L2-Pf-HR :0.64063: L2-HR :0.72498: (Sim:0h12m46s) 
CPU  0 inst:  129000004 cyc:   73806971 now IPC :1.83267: AVG IPC :1.74422: L2-Pf-HR :0.64066: L2-HR :0.72483: (Sim:0h12m51s) 
CPU  0 inst:  130000000 cyc:   74355757 now IPC :1.82220: AVG IPC :1.74480: L2-Pf-HR :0.64069: L2-HR :0.72466: (Sim:0h12m55s) 
CPU  0 inst:  131000003 cyc:   74904958 now IPC :1.82083: AVG IPC :1.74537: L2-Pf-HR :0.64071: L2-HR :0.72449: (Sim:0h12m59s) 
CPU  0 inst:  132000001 cyc:   75453780 now IPC :1.82208: AVG IPC :1.74593: L2-Pf-HR :0.64070: L2-HR :0.72429: (Sim:0h13m4s) 
CPU  0 inst:  133000004 cyc:   75997190 now IPC :1.84024: AVG IPC :1.74662: L2-Pf-HR :0.64068: L2-HR :0.72410: (Sim:0h13m8s) 
CPU  0 inst:  134000001 cyc:   76542997 now IPC :1.83214: AVG IPC :1.74724: L2-Pf-HR :0.64071: L2-HR :0.72394: (Sim:0h13m12s) 
CPU  0 inst:  135000001 cyc:   77094867 now IPC :1.81202: AVG IPC :1.74770: L2-Pf-HR :0.64121: L2-HR :0.72389: (Sim:0h13m17s) 
CPU  0 inst:  136000000 cyc:   77736058 now IPC :1.55960: AVG IPC :1.74613: L2-Pf-HR :0.64117: L2-HR :0.72437: (Sim:0h13m21s) 
CPU  0 inst:  137000001 cyc:   78276777 now IPC :1.84939: AVG IPC :1.74686: L2-Pf-HR :0.64149: L2-HR :0.72524: (Sim:0h13m25s) 
CPU  0 inst:  138000005 cyc:   78821031 now IPC :1.83738: AVG IPC :1.74749: L2-Pf-HR :0.64176: L2-HR :0.72608: (Sim:0h13m30s) 
CPU  0 inst:  139000003 cyc:   79356078 now IPC :1.86899: AVG IPC :1.74832: L2-Pf-HR :0.64210: L2-HR :0.72695: (Sim:0h13m34s) 
CPU  0 inst:  140000001 cyc:   79906793 now IPC :1.81582: AVG IPC :1.74879: L2-Pf-HR :0.64277: L2-HR :0.72786: (Sim:0h13m38s) 
CPU  0 inst:  141000003 cyc:   80618837 now IPC :1.40441: AVG IPC :1.74571: L2-Pf-HR :0.64212: L2-HR :0.72719: (Sim:0h13m43s) 
CPU  0 inst:  142000002 cyc:   81186605 now IPC :1.76128: AVG IPC :1.74582: L2-Pf-HR :0.64185: L2-HR :0.72690: (Sim:0h13m47s) 
CPU  0 inst:  143000001 cyc:   81756067 now IPC :1.75604: AVG IPC :1.74589: L2-Pf-HR :0.64169: L2-HR :0.72661: (Sim:0h13m51s) 
CPU  0 inst:  144000000 cyc:   82324848 now IPC :1.75814: AVG IPC :1.74598: L2-Pf-HR :0.64146: L2-HR :0.72632: (Sim:0h13m56s) 
CPU  0 inst:  145000001 cyc:   82889277 now IPC :1.77170: AVG IPC :1.74616: L2-Pf-HR :0.64124: L2-HR :0.72605: (Sim:0h14m0s) 
CPU  0 inst:  146000005 cyc:   83467455 now IPC :1.72958: AVG IPC :1.74604: L2-Pf-HR :0.64116: L2-HR :0.72582: (Sim:0h14m5s) 
CPU  0 inst:  147000002 cyc:   84040201 now IPC :1.74597: AVG IPC :1.74604: L2-Pf-HR :0.64099: L2-HR :0.72555: (Sim:0h14m9s) 
CPU  0 inst:  148000003 cyc:   84747466 now IPC :1.41390: AVG IPC :1.74323: L2-Pf-HR :0.64088: L2-HR :0.72523: (Sim:0h14m14s) 
CPU  0 inst:  149000005 cyc:   85294996 now IPC :1.82639: AVG IPC :1.74377: L2-Pf-HR :0.64091: L2-HR :0.72508: (Sim:0h14m18s) 
CPU  0 inst:  150000004 cyc:   85845802 now IPC :1.81552: AVG IPC :1.74424: L2-Pf-HR :0.64092: L2-HR :0.72493: (Sim:0h14m22s) 
CPU  0 inst:  151000000 cyc:   86393189 now IPC :1.82685: AVG IPC :1.74477: L2-Pf-HR :0.64093: L2-HR :0.72479: (Sim:0h14m27s) 
CPU  0 inst:  152000000 cyc:   86947278 now IPC :1.80476: AVG IPC :1.74516: L2-Pf-HR :0.64099: L2-HR :0.72464: (Sim:0h14m31s) 
CPU  0 inst:  153000000 cyc:   87491707 now IPC :1.83679: AVG IPC :1.74573: L2-Pf-HR :0.64102: L2-HR :0.72450: (Sim:0h14m36s) 
CPU  0 inst:  154000001 cyc:   88037018 now IPC :1.83382: AVG IPC :1.74628: L2-Pf-HR :0.64105: L2-HR :0.72436: (Sim:0h14m40s) 
CPU  0 inst:  155000004 cyc:   88591283 now IPC :1.80420: AVG IPC :1.74665: L2-Pf-HR :0.64150: L2-HR :0.72432: (Sim:0h14m45s) 
CPU  0 inst:  156000005 cyc:   89223419 now IPC :1.58194: AVG IPC :1.74547: L2-Pf-HR :0.64146: L2-HR :0.72476: (Sim:0h14m49s) 
CPU  0 inst:  157000001 cyc:   89762452 now IPC :1.85517: AVG IPC :1.74614: L2-Pf-HR :0.64172: L2-HR :0.72550: (Sim:0h14m54s) 
CPU  0 inst:  158000001 cyc:   90299761 now IPC :1.86113: AVG IPC :1.74683: L2-Pf-HR :0.64197: L2-HR :0.72624: (Sim:0h14m58s) 
CPU  0 inst:  159000002 cyc:   90838082 now IPC :1.85763: AVG IPC :1.74749: L2-Pf-HR :0.64222: L2-HR :0.72697: (Sim:0h15m2s) 
CPU  0 inst:  160000000 cyc:   91389096 now IPC :1.81483: AVG IPC :1.74790: L2-Pf-HR :0.64278: L2-HR :0.72776: (Sim:0h15m6s) 
CPU  0 inst:  161000001 cyc:   92099444 now IPC :1.40776: AVG IPC :1.74525: L2-Pf-HR :0.64214: L2-HR :0.72715: (Sim:0h15m11s) 
CPU  0 inst:  162000002 cyc:   92666620 now IPC :1.76312: AVG IPC :1.74536: L2-Pf-HR :0.64203: L2-HR :0.72693: (Sim:0h15m15s) 
CPU  0 inst:  163000003 cyc:   93228895 now IPC :1.77849: AVG IPC :1.74556: L2-Pf-HR :0.64192: L2-HR :0.72671: (Sim:0h15m19s) 
CPU  0 inst:  164000000 cyc:   93800234 now IPC :1.75027: AVG IPC :1.74559: L2-Pf-HR :0.64176: L2-HR :0.72647: (Sim:0h15m24s) 
CPU  0 inst:  165000000 cyc:   94365658 now IPC :1.76858: AVG IPC :1.74573: L2-Pf-HR :0.64160: L2-HR :0.72622: (Sim:0h15m28s) 
CPU  0 inst:  166000001 cyc:   94939599 now IPC :1.74234: AVG IPC :1.74571: L2-Pf-HR :0.64153: L2-HR :0.72602: (Sim:0h15m33s) 
CPU  0 inst:  167000001 cyc:   95521118 now IPC :1.71963: AVG IPC :1.74555: L2-Pf-HR :0.64145: L2-HR :0.72581: (Sim:0h15m37s) 
CPU  0 inst:  168000000 cyc:   96229186 now IPC :1.41229: AVG IPC :1.74307: L2-Pf-HR :0.64134: L2-HR :0.72552: (Sim:0h15m42s) 
CPU  0 inst:  169000003 cyc:   96779904 now IPC :1.81582: AVG IPC :1.74349: L2-Pf-HR :0.64132: L2-HR :0.72540: (Sim:0h15m47s) 
CPU  0 inst:  170000002 cyc:   97326878 now IPC :1.82824: AVG IPC :1.74397: L2-Pf-HR :0.64132: L2-HR :0.72525: (Sim:0h15m51s) 
CPU  0 inst:  171000000 cyc:   97876132 now IPC :1.82065: AVG IPC :1.74441: L2-Pf-HR :0.64130: L2-HR :0.72509: (Sim:0h15m55s) 
CPU  0 inst:  172000000 cyc:   98426310 now IPC :1.81759: AVG IPC :1.74482: L2-Pf-HR :0.64132: L2-HR :0.72494: (Sim:0h16m0s) 
CPU  0 inst:  173000004 cyc:   98970353 now IPC :1.83810: AVG IPC :1.74534: L2-Pf-HR :0.64135: L2-HR :0.72481: (Sim:0h16m4s) 
CPU  0 inst:  174000000 cyc:   99515182 now IPC :1.83543: AVG IPC :1.74584: L2-Pf-HR :0.64138: L2-HR :0.72469: (Sim:0h16m9s) 
CPU  0 inst:  175000003 cyc:  100066112 now IPC :1.81512: AVG IPC :1.74622: L2-Pf-HR :0.64173: L2-HR :0.72463: (Sim:0h16m13s) 
CPU  0 inst:  176000000 cyc:  100695428 now IPC :1.58902: AVG IPC :1.74523: L2-Pf-HR :0.64168: L2-HR :0.72501: (Sim:0h16m18s) 
CPU  0 inst:  177000000 cyc:  101236463 now IPC :1.84831: AVG IPC :1.74579: L2-Pf-HR :0.64189: L2-HR :0.72564: (Sim:0h16m22s) 
CPU  0 inst:  178000005 cyc:  101778113 now IPC :1.84622: AVG IPC :1.74633: L2-Pf-HR :0.64211: L2-HR :0.72630: (Sim:0h16m27s) 
CPU  0 inst:  179000002 cyc:  102318628 now IPC :1.85008: AVG IPC :1.74688: L2-Pf-HR :0.64232: L2-HR :0.72694: (Sim:0h16m31s) 
CPU  0 inst:  180000000 cyc:  102867224 now IPC :1.82283: AVG IPC :1.74729: L2-Pf-HR :0.64285: L2-HR :0.72764: (Sim:0h16m36s) 
CPU  0 inst:  181000003 cyc:  103571161 now IPC :1.42059: AVG IPC :1.74505: L2-Pf-HR :0.64221: L2-HR :0.72709: (Sim:0h16m40s) 
CPU  0 inst:  182000001 cyc:  104136361 now IPC :1.76928: AVG IPC :1.74518: L2-Pf-HR :0.64208: L2-HR :0.72687: (Sim:0h16m45s) 
CPU  0 inst:  183000003 cyc:  104701325 now IPC :1.77003: AVG IPC :1.74531: L2-Pf-HR :0.64201: L2-HR :0.72667: (Sim:0h16m49s) 
CPU  0 inst:  184000000 cyc:  105272805 now IPC :1.74984: AVG IPC :1.74534: L2-Pf-HR :0.64186: L2-HR :0.72643: (Sim:0h16m54s) 
CPU  0 inst:  185000005 cyc:  105839981 now IPC :1.76313: AVG IPC :1.74544: L2-Pf-HR :0.64176: L2-HR :0.72623: (Sim:0h16m58s) 
CPU  0 inst:  186000003 cyc:  106411297 now IPC :1.75034: AVG IPC :1.74546: L2-Pf-HR :0.64164: L2-HR :0.72603: (Sim:0h17m3s) 
CPU  0 inst:  187000005 cyc:  106985379 now IPC :1.74191: AVG IPC :1.74544: L2-Pf-HR :0.64153: L2-HR :0.72583: (Sim:0h17m8s) 
CPU  0 inst:  188000000 cyc:  107690811 now IPC :1.41756: AVG IPC :1.74327: L2-Pf-HR :0.64147: L2-HR :0.72558: (Sim:0h17m12s) 
CPU  0 inst:  189000001 cyc:  108240436 now IPC :1.81942: AVG IPC :1.74366: L2-Pf-HR :0.64144: L2-HR :0.72547: (Sim:0h17m17s) 
CPU  0 inst:  190000000 cyc:  108792875 now IPC :1.81015: AVG IPC :1.74401: L2-Pf-HR :0.64142: L2-HR :0.72533: (Sim:0h17m21s) 
CPU  0 inst:  191000000 cyc:  109337957 now IPC :1.83459: AVG IPC :1.74446: L2-Pf-HR :0.64144: L2-HR :0.72521: (Sim:0h17m26s) 
CPU  0 inst:  192000000 cyc:  109885298 now IPC :1.82701: AVG IPC :1.74488: L2-Pf-HR :0.64142: L2-HR :0.72507: (Sim:0h17m30s) 
CPU  0 inst:  193000005 cyc:  110436582 now IPC :1.81396: AVG IPC :1.74522: L2-Pf-HR :0.64143: L2-HR :0.72495: (Sim:0h17m35s) 
CPU  0 inst:  194000003 cyc:  110983427 now IPC :1.82867: AVG IPC :1.74564: L2-Pf-HR :0.64145: L2-HR :0.72484: (Sim:0h17m39s) 
CPU  0 inst:  195000005 cyc:  111538769 now IPC :1.80070: AVG IPC :1.74592: L2-Pf-HR :0.64178: L2-HR :0.72480: (Sim:0h17m43s) 
CPU  0 inst:  196000002 cyc:  112167772 now IPC :1.58981: AVG IPC :1.74503: L2-Pf-HR :0.64173: L2-HR :0.72515: (Sim:0h17m48s) 
CPU  0 inst:  197000004 cyc:  112708671 now IPC :1.84878: AVG IPC :1.74553: L2-Pf-HR :0.64193: L2-HR :0.72574: (Sim:0h17m53s) 
CPU  0 inst:  198000002 cyc:  113242273 now IPC :1.87405: AVG IPC :1.74615: L2-Pf-HR :0.64213: L2-HR :0.72634: (Sim:0h17m57s) 
CPU  0 inst:  199000001 cyc:  113775349 now IPC :1.87590: AVG IPC :1.74676: L2-Pf-HR :0.64231: L2-HR :0.72692: (Sim:0h18m1s) 
CPU  0 inst:  200000000 cyc:  114328839 now IPC :1.80672: AVG IPC :1.74705: L2-Pf-HR :0.64281: L2-HR :0.72755: (Sim:0h18m6s) 
CPU  0 inst:  201000005 cyc:  115036159 now IPC :1.41379: AVG IPC :1.74499: L2-Pf-HR :0.64228: L2-HR :0.72707: (Sim:0h18m11s) 
CPU  0 inst:  202000002 cyc:  115605354 now IPC :1.75686: AVG IPC :1.74504: L2-Pf-HR :0.64217: L2-HR :0.72687: (Sim:0h18m15s) 
CPU  0 inst:  203000001 cyc:  116178943 now IPC :1.74341: AVG IPC :1.74504: L2-Pf-HR :0.64212: L2-HR :0.72671: (Sim:0h18m20s) 
CPU  0 inst:  204000002 cyc:  116746729 now IPC :1.76123: AVG IPC :1.74512: L2-Pf-HR :0.64199: L2-HR :0.72650: (Sim:0h18m24s) 
CPU  0 inst:  205000002 cyc:  117313369 now IPC :1.76479: AVG IPC :1.74521: L2-Pf-HR :0.64190: L2-HR :0.72630: (Sim:0h18m29s) 
CPU  0 inst:  206000001 cyc:  117882055 now IPC :1.75844: AVG IPC :1.74528: L2-Pf-HR :0.64180: L2-HR :0.72611: (Sim:0h18m33s) 
CPU  0 inst:  207000000 cyc:  118456895 now IPC :1.73961: AVG IPC :1.74525: L2-Pf-HR :0.64170: L2-HR :0.72595: (Sim:0h18m38s) 
CPU  0 inst:  208000000 cyc:  119158522 now IPC :1.42526: AVG IPC :1.74335: L2-Pf-HR :0.64163: L2-HR :0.72572: (Sim:0h18m43s) 
CPU  0 inst:  209000002 cyc:  119705807 now IPC :1.82721: AVG IPC :1.74373: L2-Pf-HR :0.64156: L2-HR :0.72558: (Sim:0h18m47s) 
CPU  0 inst:  210000001 cyc:  120255540 now IPC :1.81906: AVG IPC :1.74408: L2-Pf-HR :0.64156: L2-HR :0.72547: (Sim:0h18m51s) 
CPU  0 inst:  211000003 cyc:  120804855 now IPC :1.82045: AVG IPC :1.74443: L2-Pf-HR :0.64155: L2-HR :0.72536: (Sim:0h18m56s) 
CPU  0 inst:  212000003 cyc:  121354020 now IPC :1.82095: AVG IPC :1.74478: L2-Pf-HR :0.64154: L2-HR :0.72524: (Sim:0h19m0s) 
CPU  0 inst:  213000003 cyc:  121905472 now IPC :1.81339: AVG IPC :1.74509: L2-Pf-HR :0.64155: L2-HR :0.72513: (Sim:0h19m4s) 
CPU  0 inst:  214000000 cyc:  122451967 now IPC :1.82984: AVG IPC :1.74548: L2-Pf-HR :0.64158: L2-HR :0.72503: (Sim:0h19m9s) 
CPU  0 inst:  215000002 cyc:  123006245 now IPC :1.80415: AVG IPC :1.74574: L2-Pf-HR :0.64188: L2-HR :0.72499: (Sim:0h19m13s) 
CPU  0 inst:  216000000 cyc:  123641772 now IPC :1.57349: AVG IPC :1.74485: L2-Pf-HR :0.64184: L2-HR :0.72530: (Sim:0h19m17s) 
CPU  0 inst:  217000002 cyc:  124187561 now IPC :1.83221: AVG IPC :1.74524: L2-Pf-HR :0.64200: L2-HR :0.72581: (Sim:0h19m22s) 
CPU  0 inst:  218000004 cyc:  124730791 now IPC :1.84084: AVG IPC :1.74566: L2-Pf-HR :0.64218: L2-HR :0.72635: (Sim:0h19m26s) 
CPU  0 inst:  219000004 cyc:  125269225 now IPC :1.85724: AVG IPC :1.74614: L2-Pf-HR :0.64235: L2-HR :0.72687: (Sim:0h19m31s) 
CPU  0 inst:  220000002 cyc:  125825224 now IPC :1.79856: AVG IPC :1.74637: L2-Pf-HR :0.64281: L2-HR :0.72743: (Sim:0h19m35s) 
CPU  0 inst:  221000002 cyc:  126530262 now IPC :1.41836: AVG IPC :1.74453: L2-Pf-HR :0.64228: L2-HR :0.72699: (Sim:0h19m40s) 
CPU  0 inst:  222000003 cyc:  127098822 now IPC :1.75883: AVG IPC :1.74460: L2-Pf-HR :0.64211: L2-HR :0.72678: (Sim:0h19m44s) 
CPU  0 inst:  223000001 cyc:  127661099 now IPC :1.77848: AVG IPC :1.74475: L2-Pf-HR :0.64203: L2-HR :0.72664: (Sim:0h19m49s) 
CPU  0 inst:  224000000 cyc:  128224322 now IPC :1.77549: AVG IPC :1.74488: L2-Pf-HR :0.64191: L2-HR :0.72645: (Sim:0h19m53s) 
CPU  0 inst:  225000000 cyc:  128792799 now IPC :1.75909: AVG IPC :1.74494: L2-Pf-HR :0.64180: L2-HR :0.72625: (Sim:0h19m58s) 
CPU  0 inst:  226000001 cyc:  129365132 now IPC :1.74724: AVG IPC :1.74496: L2-Pf-HR :0.64172: L2-HR :0.72609: (Sim:0h20m2s) 
CPU  0 inst:  227000004 cyc:  129937749 now IPC :1.74637: AVG IPC :1.74496: L2-Pf-HR :0.64160: L2-HR :0.72592: (Sim:0h20m7s) 
CPU  0 inst:  228000004 cyc:  130645424 now IPC :1.41308: AVG IPC :1.74315: L2-Pf-HR :0.64153: L2-HR :0.72573: (Sim:0h20m12s) 
CPU  0 inst:  229000003 cyc:  131194629 now IPC :1.82081: AVG IPC :1.74348: L2-Pf-HR :0.64145: L2-HR :0.72560: (Sim:0h20m16s) 
CPU  0 inst:  230000001 cyc:  131742283 now IPC :1.82597: AVG IPC :1.74382: L2-Pf-HR :0.64143: L2-HR :0.72550: (Sim:0h20m21s) 
CPU  0 inst:  231000004 cyc:  132288864 now IPC :1.82956: AVG IPC :1.74418: L2-Pf-HR :0.64146: L2-HR :0.72540: (Sim:0h20m25s) 
CPU  0 inst:  232000000 cyc:  132836970 now IPC :1.82446: AVG IPC :1.74451: L2-Pf-HR :0.64141: L2-HR :0.72527: (Sim:0h20m30s) 
CPU  0 inst:  233000002 cyc:  133381834 now IPC :1.83532: AVG IPC :1.74489: L2-Pf-HR :0.64142: L2-HR :0.72516: (Sim:0h20m34s) 
CPU  0 inst:  234000002 cyc:  133926563 now IPC :1.83578: AVG IPC :1.74526: L2-Pf-HR :0.64141: L2-HR :0.72506: (Sim:0h20m38s) 
CPU  0 inst:  235000000 cyc:  134483449 now IPC :1.79570: AVG IPC :1.74547: L2-Pf-HR :0.64173: L2-HR :0.72504: (Sim:0h20m43s) 
CPU  0 inst:  236000000 cyc:  135112082 now IPC :1.59075: AVG IPC :1.74475: L2-Pf-HR :0.64168: L2-HR :0.72531: (Sim:0h20m48s) 
CPU  0 inst:  237000002 cyc:  135652119 now IPC :1.85173: AVG IPC :1.74517: L2-Pf-HR :0.64185: L2-HR :0.72578: (Sim:0h20m52s) 
CPU  0 inst:  238000002 cyc:  136195565 now IPC :1.84011: AVG IPC :1.74556: L2-Pf-HR :0.64201: L2-HR :0.72625: (Sim:0h20m56s) 
CPU  0 inst:  239000003 cyc:  136739834 now IPC :1.83733: AVG IPC :1.74592: L2-Pf-HR :0.64219: L2-HR :0.72671: (Sim:0h21m1s) 
CPU  0 inst:  240000000 cyc:  137303000 now IPC :1.77567: AVG IPC :1.74605: L2-Pf-HR :0.64264: L2-HR :0.72720: (Sim:0h21m5s) 
CPU  0 inst:  241000005 cyc:  138005617 now IPC :1.42326: AVG IPC :1.74439: L2-Pf-HR :0.64215: L2-HR :0.72681: (Sim:0h21m10s) 
CPU  0 inst:  242000004 cyc:  138578988 now IPC :1.74407: AVG IPC :1.74439: L2-Pf-HR :0.64203: L2-HR :0.72664: (Sim:0h21m15s) 
CPU  0 inst:  243000000 cyc:  139147636 now IPC :1.75855: AVG IPC :1.74445: L2-Pf-HR :0.64196: L2-HR :0.72649: (Sim:0h21m19s) 
CPU  0 inst:  244000001 cyc:  139718007 now IPC :1.75325: AVG IPC :1.74448: L2-Pf-HR :0.64187: L2-HR :0.72633: (Sim:0h21m24s) 
CPU  0 inst:  245000002 cyc:  140288625 now IPC :1.75249: AVG IPC :1.74452: L2-Pf-HR :0.64178: L2-HR :0.72617: (Sim:0h21m28s) 
CPU  0 inst:  246000000 cyc:  140854806 now IPC :1.76622: AVG IPC :1.74460: L2-Pf-HR :0.64171: L2-HR :0.72602: (Sim:0h21m33s) 
CPU  0 inst:  247000005 cyc:  141430276 now IPC :1.73772: AVG IPC :1.74458: L2-Pf-HR :0.64165: L2-HR :0.72588: (Sim:0h21m37s) 
CPU  0 inst:  248000000 cyc:  142139441 now IPC :1.41010: AVG IPC :1.74290: L2-Pf-HR :0.64154: L2-HR :0.72569: (Sim:0h21m42s) 
CPU  0 inst:  249000001 cyc:  142686422 now IPC :1.82822: AVG IPC :1.74323: L2-Pf-HR :0.64148: L2-HR :0.72558: (Sim:0h21m46s) 
CPU  0 inst:  250000000 cyc:  143236709 now IPC :1.81723: AVG IPC :1.74351: L2-Pf-HR :0.64146: L2-HR :0.72548: (Sim:0h21m51s) 
CPU  0 inst:  251000004 cyc:  143784526 now IPC :1.82543: AVG IPC :1.74383: L2-Pf-HR :0.64149: L2-HR :0.72540: (Sim:0h21m55s) 
CPU  0 inst:  252000001 cyc:  144330405 now IPC :1.83190: AVG IPC :1.74416: L2-Pf-HR :0.64146: L2-HR :0.72530: (Sim:0h22m0s) 
CPU  0 inst:  253000003 cyc:  144878702 now IPC :1.82383: AVG IPC :1.74447: L2-Pf-HR :0.64146: L2-HR :0.72520: (Sim:0h22m4s) 
CPU  0 inst:  254000001 cyc:  145422424 now IPC :1.83917: AVG IPC :1.74482: L2-Pf-HR :0.64144: L2-HR :0.72510: (Sim:0h22m9s) 
CPU  0 inst:  255000004 cyc:  145976488 now IPC :1.80485: AVG IPC :1.74505: L2-Pf-HR :0.64172: L2-HR :0.72509: (Sim:0h22m13s) 
CPU  0 inst:  256000000 cyc:  146603610 now IPC :1.59458: AVG IPC :1.74440: L2-Pf-HR :0.64168: L2-HR :0.72536: (Sim:0h22m18s) 
CPU  0 inst:  257000003 cyc:  147143055 now IPC :1.85376: AVG IPC :1.74481: L2-Pf-HR :0.64183: L2-HR :0.72581: (Sim:0h22m22s) 
CPU  0 inst:  258000000 cyc:  147679454 now IPC :1.86428: AVG IPC :1.74524: L2-Pf-HR :0.64199: L2-HR :0.72627: (Sim:0h22m27s) 
CPU  0 inst:  259000005 cyc:  148217374 now IPC :1.85902: AVG IPC :1.74566: L2-Pf-HR :0.64215: L2-HR :0.72671: (Sim:0h22m31s) 
CPU  0 inst:  260000000 cyc:  148788832 now IPC :1.74990: AVG IPC :1.74568: L2-Pf-HR :0.64251: L2-HR :0.72715: (Sim:0h22m35s) 
CPU  0 inst:  261000002 cyc:  149481462 now IPC :1.44378: AVG IPC :1.74427: L2-Pf-HR :0.64209: L2-HR :0.72680: (Sim:0h22m40s) 
CPU  0 inst:  262000002 cyc:  150054924 now IPC :1.74379: AVG IPC :1.74427: L2-Pf-HR :0.64199: L2-HR :0.72664: (Sim:0h22m45s) 
CPU  0 inst:  263000004 cyc:  150619859 now IPC :1.77012: AVG IPC :1.74436: L2-Pf-HR :0.64190: L2-HR :0.72650: (Sim:0h22m49s) 
CPU  0 inst:  264000000 cyc:  151183525 now IPC :1.77409: AVG IPC :1.74447: L2-Pf-HR :0.64183: L2-HR :0.72637: (Sim:0h22m54s) 
CPU  0 inst:  265000000 cyc:  151756590 now IPC :1.74500: AVG IPC :1.74448: L2-Pf-HR :0.64171: L2-HR :0.72622: (Sim:0h22m58s) 
CPU  0 inst:  266000001 cyc:  152322088 now IPC :1.76835: AVG IPC :1.74457: L2-Pf-HR :0.64161: L2-HR :0.72607: (Sim:0h23m3s) 
CPU  0 inst:  267000000 cyc:  152896540 now IPC :1.74079: AVG IPC :1.74455: L2-Pf-HR :0.64153: L2-HR :0.72594: (Sim:0h23m7s) 
CPU  0 inst:  268000001 cyc:  153607710 now IPC :1.40613: AVG IPC :1.74297: L2-Pf-HR :0.64148: L2-HR :0.72577: (Sim:0h23m12s) 
CPU  0 inst:  269000003 cyc:  154154597 now IPC :1.82853: AVG IPC :1.74328: L2-Pf-HR :0.64147: L2-HR :0.72567: (Sim:0h23m17s) 
CPU  0 inst:  270000001 cyc:  154705308 now IPC :1.81583: AVG IPC :1.74354: L2-Pf-HR :0.64146: L2-HR :0.72557: (Sim:0h23m21s) 
CPU  0 inst:  271000003 cyc:  155256594 now IPC :1.81394: AVG IPC :1.74379: L2-Pf-HR :0.64149: L2-HR :0.72549: (Sim:0h23m26s) 
CPU  0 inst:  272000000 cyc:  155806441 now IPC :1.81868: AVG IPC :1.74406: L2-Pf-HR :0.64150: L2-HR :0.72541: (Sim:0h23m30s) 
CPU  0 inst:  273000001 cyc:  156356718 now IPC :1.81727: AVG IPC :1.74432: L2-Pf-HR :0.64149: L2-HR :0.72531: (Sim:0h23m34s) 
CPU  0 inst:  274000001 cyc:  156906546 now IPC :1.81875: AVG IPC :1.74458: L2-Pf-HR :0.64146: L2-HR :0.72522: (Sim:0h23m39s) 
CPU  0 inst:  275000000 cyc:  157469720 now IPC :1.77565: AVG IPC :1.74469: L2-Pf-HR :0.64178: L2-HR :0.72522: (Sim:0h23m43s) 
CPU  0 inst:  276000001 cyc:  158094932 now IPC :1.59946: AVG IPC :1.74411: L2-Pf-HR :0.64174: L2-HR :0.72548: (Sim:0h23m48s) 
CPU  0 inst:  277000001 cyc:  158636257 now IPC :1.84732: AVG IPC :1.74447: L2-Pf-HR :0.64186: L2-HR :0.72589: (Sim:0h23m52s) 
CPU  0 inst:  278000004 cyc:  159174330 now IPC :1.85849: AVG IPC :1.74486: L2-Pf-HR :0.64201: L2-HR :0.72632: (Sim:0h23m57s) 
CPU  0 inst:  279000002 cyc:  159713429 now IPC :1.85494: AVG IPC :1.74523: L2-Pf-HR :0.64216: L2-HR :0.72674: (Sim:0h24m1s) 
CPU  0 inst:  280000000 cyc:  160295922 now IPC :1.71676: AVG IPC :1.74513: L2-Pf-HR :0.64247: L2-HR :0.72713: (Sim:0h24m6s) 
CPU  0 inst:  281000004 cyc:  160973806 now IPC :1.47518: AVG IPC :1.74398: L2-Pf-HR :0.64210: L2-HR :0.72681: (Sim:0h24m10s) 
CPU  0 inst:  282000002 cyc:  161542870 now IPC :1.75727: AVG IPC :1.74403: L2-Pf-HR :0.64200: L2-HR :0.72666: (Sim:0h24m15s) 
CPU  0 inst:  283000001 cyc:  162107241 now IPC :1.77188: AVG IPC :1.74413: L2-Pf-HR :0.64194: L2-HR :0.72653: (Sim:0h24m20s) 
CPU  0 inst:  284000001 cyc:  162675745 now IPC :1.75900: AVG IPC :1.74418: L2-Pf-HR :0.64186: L2-HR :0.72640: (Sim:0h24m24s) 
CPU  0 inst:  285000000 cyc:  163243865 now IPC :1.76019: AVG IPC :1.74423: L2-Pf-HR :0.64178: L2-HR :0.72625: (Sim:0h24m29s) 
CPU  0 inst:  286000002 cyc:  163808257 now IPC :1.77182: AVG IPC :1.74433: L2-Pf-HR :0.64169: L2-HR :0.72612: (Sim:0h24m33s) 
CPU  0 inst:  287000002 cyc:  164377810 now IPC :1.75576: AVG IPC :1.74437: L2-Pf-HR :0.64164: L2-HR :0.72600: (Sim:0h24m38s) 
CPU  0 inst:  288000000 cyc:  165084155 now IPC :1.41574: AVG IPC :1.74296: L2-Pf-HR :0.64155: L2-HR :0.72583: (Sim:0h24m42s) 
CPU  0 inst:  289000002 cyc:  165625457 now IPC :1.84740: AVG IPC :1.74330: L2-Pf-HR :0.64151: L2-HR :0.72573: (Sim:0h24m47s) 
CPU  0 inst:  290000005 cyc:  166172847 now IPC :1.82686: AVG IPC :1.74358: L2-Pf-HR :0.64149: L2-HR :0.72563: (Sim:0h24m51s) 
CPU  0 inst:  291000001 cyc:  166720450 now IPC :1.82613: AVG IPC :1.74385: L2-Pf-HR :0.64149: L2-HR :0.72555: (Sim:0h24m56s) 
CPU  0 inst:  292000000 cyc:  167267095 now IPC :1.82934: AVG IPC :1.74413: L2-Pf-HR :0.64149: L2-HR :0.72547: (Sim:0h25m0s) 
CPU  0 inst:  293000005 cyc:  167814873 now IPC :1.82557: AVG IPC :1.74440: L2-Pf-HR :0.64151: L2-HR :0.72539: (Sim:0h25m5s) 
CPU  0 inst:  294000000 cyc:  168360263 now IPC :1.83354: AVG IPC :1.74469: L2-Pf-HR :0.64149: L2-HR :0.72530: (Sim:0h25m9s) 
CPU  0 inst:  295000000 cyc:  168922720 now IPC :1.77791: AVG IPC :1.74480: L2-Pf-HR :0.64177: L2-HR :0.72529: (Sim:0h25m13s) 
CPU  0 inst:  296000000 cyc:  169551446 now IPC :1.59052: AVG IPC :1.74422: L2-Pf-HR :0.64174: L2-HR :0.72554: (Sim:0h25m18s) 
CPU  0 inst:  297000000 cyc:  170093778 now IPC :1.84389: AVG IPC :1.74454: L2-Pf-HR :0.64185: L2-HR :0.72591: (Sim:0h25m22s) 
CPU  0 inst:  298000005 cyc:  170629940 now IPC :1.86512: AVG IPC :1.74492: L2-Pf-HR :0.64200: L2-HR :0.72631: (Sim:0h25m26s) 
CPU  0 inst:  299000004 cyc:  171171301 now IPC :1.84719: AVG IPC :1.74525: L2-Pf-HR :0.64214: L2-HR :0.72670: (Sim:0h25m31s) 
CPU  0 inst:  300000000 cyc:  171764870 now IPC :1.68472: AVG IPC :1.74504: L2-Pf-HR :0.64242: L2-HR :0.72706: (Sim:0h25m35s) 
CPU  0 inst:  301000004 cyc:  172438128 now IPC :1.48532: AVG IPC :1.74402: L2-Pf-HR :0.64212: L2-HR :0.72677: (Sim:0h25m40s) 
CPU  0 inst:  302000001 cyc:  173011272 now IPC :1.74476: AVG IPC :1.74402: L2-Pf-HR :0.64203: L2-HR :0.72663: (Sim:0h25m45s) 
CPU  0 inst:  303000003 cyc:  173578416 now IPC :1.76322: AVG IPC :1.74408: L2-Pf-HR :0.64197: L2-HR :0.72651: (Sim:0h25m49s) 
CPU  0 inst:  304000000 cyc:  174148090 now IPC :1.75538: AVG IPC :1.74412: L2-Pf-HR :0.64190: L2-HR :0.72639: (Sim:0h25m54s) 
CPU  0 inst:  305000004 cyc:  174719951 now IPC :1.74868: AVG IPC :1.74414: L2-Pf-HR :0.64184: L2-HR :0.72626: (Sim:0h25m58s) 
CPU  0 inst:  306000001 cyc:  175289715 now IPC :1.75511: AVG IPC :1.74417: L2-Pf-HR :0.64177: L2-HR :0.72613: (Sim:0h26m3s) 
CPU  0 inst:  307000005 cyc:  175864978 now IPC :1.73834: AVG IPC :1.74415: L2-Pf-HR :0.64173: L2-HR :0.72602: (Sim:0h26m7s) 
CPU  0 inst:  308000000 cyc:  176567208 now IPC :1.42403: AVG IPC :1.74287: L2-Pf-HR :0.64169: L2-HR :0.72587: (Sim:0h26m12s) 
CPU  0 inst:  309000003 cyc:  177111664 now IPC :1.83670: AVG IPC :1.74316: L2-Pf-HR :0.64168: L2-HR :0.72579: (Sim:0h26m16s) 
CPU  0 inst:  310000000 cyc:  177660852 now IPC :1.82086: AVG IPC :1.74340: L2-Pf-HR :0.64166: L2-HR :0.72570: (Sim:0h26m21s) 
CPU  0 inst:  311000000 cyc:  178208472 now IPC :1.82608: AVG IPC :1.74366: L2-Pf-HR :0.64169: L2-HR :0.72564: (Sim:0h26m25s) 
CPU  0 inst:  312000000 cyc:  178760492 now IPC :1.81153: AVG IPC :1.74387: L2-Pf-HR :0.64170: L2-HR :0.72558: (Sim:0h26m30s) 
CPU  0 inst:  313000000 cyc:  179308415 now IPC :1.82507: AVG IPC :1.74412: L2-Pf-HR :0.64170: L2-HR :0.72550: (Sim:0h26m34s) 
CPU  0 inst:  314000002 cyc:  179856892 now IPC :1.82323: AVG IPC :1.74436: L2-Pf-HR :0.64167: L2-HR :0.72542: (Sim:0h26m39s) 
CPU  0 inst:  315000000 cyc:  180423013 now IPC :1.76640: AVG IPC :1.74443: L2-Pf-HR :0.64196: L2-HR :0.72541: (Sim:0h26m43s) 
CPU  0 inst:  316000003 cyc:  181038412 now IPC :1.62497: AVG IPC :1.74402: L2-Pf-HR :0.64191: L2-HR :0.72564: (Sim:0h26m48s) 
CPU  0 inst:  317000000 cyc:  181577504 now IPC :1.85497: AVG IPC :1.74436: L2-Pf-HR :0.64203: L2-HR :0.72600: (Sim:0h26m52s) 
CPU  0 inst:  318000002 cyc:  182116705 now IPC :1.85460: AVG IPC :1.74468: L2-Pf-HR :0.64216: L2-HR :0.72637: (Sim:0h26m56s) 
CPU  0 inst:  319000002 cyc:  182658410 now IPC :1.84602: AVG IPC :1.74499: L2-Pf-HR :0.64228: L2-HR :0.72673: (Sim:0h27m1s) 
CPU  0 inst:  320000000 cyc:  183258799 now IPC :1.66558: AVG IPC :1.74472: L2-Pf-HR :0.64251: L2-HR :0.72705: (Sim:0h27m5s) 
CPU  0 inst:  321000000 cyc:  183919946 now IPC :1.51252: AVG IPC :1.74389: L2-Pf-HR :0.64225: L2-HR :0.72680: (Sim:0h27m10s) 
CPU  0 inst:  322000004 cyc:  184495595 now IPC :1.73718: AVG IPC :1.74386: L2-Pf-HR :0.64218: L2-HR :0.72668: (Sim:0h27m15s) 
CPU  0 inst:  323000004 cyc:  185059453 now IPC :1.77350: AVG IPC :1.74396: L2-Pf-HR :0.64211: L2-HR :0.72655: (Sim:0h27m19s) 
CPU  0 inst:  324000001 cyc:  185631774 now IPC :1.74727: AVG IPC :1.74397: L2-Pf-HR :0.64204: L2-HR :0.72644: (Sim:0h27m24s) 
CPU  0 inst:  325000004 cyc:  186201912 now IPC :1.75397: AVG IPC :1.74400: L2-Pf-HR :0.64193: L2-HR :0.72631: (Sim:0h27m28s) 
CPU  0 inst:  326000002 cyc:  186767745 now IPC :1.76730: AVG IPC :1.74407: L2-Pf-HR :0.64188: L2-HR :0.72618: (Sim:0h27m33s) 
CPU  0 inst:  327000003 cyc:  187344217 now IPC :1.73469: AVG IPC :1.74404: L2-Pf-HR :0.64184: L2-HR :0.72609: (Sim:0h27m37s) 
CPU  0 inst:  328000000 cyc:  188046321 now IPC :1.42429: AVG IPC :1.74284: L2-Pf-HR :0.64178: L2-HR :0.72595: (Sim:0h27m42s) 
CPU  0 inst:  329000000 cyc:  188595121 now IPC :1.82216: AVG IPC :1.74307: L2-Pf-HR :0.64172: L2-HR :0.72586: (Sim:0h27m46s) 
CPU  0 inst:  330000000 cyc:  189146213 now IPC :1.81458: AVG IPC :1.74328: L2-Pf-HR :0.64170: L2-HR :0.72576: (Sim:0h27m51s) 
CPU  0 inst:  331000000 cyc:  189693533 now IPC :1.82708: AVG IPC :1.74352: L2-Pf-HR :0.64170: L2-HR :0.72569: (Sim:0h27m55s) 
CPU  0 inst:  332000003 cyc:  190240341 now IPC :1.82880: AVG IPC :1.74377: L2-Pf-HR :0.64168: L2-HR :0.72561: (Sim:0h28m0s) 
CPU  0 inst:  333000001 cyc:  190789471 now IPC :1.82106: AVG IPC :1.74399: L2-Pf-HR :0.64168: L2-HR :0.72553: (Sim:0h28m4s) 
CPU  0 inst:  334000000 cyc:  191336581 now IPC :1.82778: AVG IPC :1.74423: L2-Pf-HR :0.64165: L2-HR :0.72544: (Sim:0h28m9s) 
CPU  0 inst:  335000002 cyc:  191907912 now IPC :1.75030: AVG IPC :1.74425: L2-Pf-HR :0.64187: L2-HR :0.72541: (Sim:0h28m13s) 
CPU  0 inst:  336000000 cyc:  192524733 now IPC :1.62121: AVG IPC :1.74386: L2-Pf-HR :0.64183: L2-HR :0.72565: (Sim:0h28m18s) 
CPU  0 inst:  337000002 cyc:  193067538 now IPC :1.84229: AVG IPC :1.74413: L2-Pf-HR :0.64195: L2-HR :0.72599: (Sim:0h28m22s) 
CPU  0 inst:  338000001 cyc:  193607978 now IPC :1.85034: AVG IPC :1.74443: L2-Pf-HR :0.64207: L2-HR :0.72634: (Sim:0h28m27s) 
CPU  0 inst:  339000005 cyc:  194149108 now IPC :1.84799: AVG IPC :1.74472: L2-Pf-HR :0.64218: L2-HR :0.72668: (Sim:0h28m31s) 
CPU  0 inst:  340000002 cyc:  194751771 now IPC :1.65930: AVG IPC :1.74446: L2-Pf-HR :0.64237: L2-HR :0.72697: (Sim:0h28m36s) 
CPU  0 inst:  341000001 cyc:  195390822 now IPC :1.56482: AVG IPC :1.74387: L2-Pf-HR :0.64214: L2-HR :0.72674: (Sim:0h28m40s) 
CPU  0 inst:  342000005 cyc:  195960166 now IPC :1.75641: AVG IPC :1.74390: L2-Pf-HR :0.64206: L2-HR :0.72662: (Sim:0h28m45s) 
CPU  0 inst:  343000001 cyc:  196526230 now IPC :1.76658: AVG IPC :1.74397: L2-Pf-HR :0.64197: L2-HR :0.72650: (Sim:0h28m49s) 
CPU  0 inst:  344000000 cyc:  197098547 now IPC :1.74728: AVG IPC :1.74398: L2-Pf-HR :0.64193: L2-HR :0.72640: (Sim:0h28m54s) 
CPU  0 inst:  345000003 cyc:  197665898 now IPC :1.76258: AVG IPC :1.74403: L2-Pf-HR :0.64186: L2-HR :0.72628: (Sim:0h28m58s) 
CPU  0 inst:  346000003 cyc:  198232665 now IPC :1.76439: AVG IPC :1.74409: L2-Pf-HR :0.64178: L2-HR :0.72615: (Sim:0h29m3s) 
CPU  0 inst:  347000005 cyc:  198799852 now IPC :1.76309: AVG IPC :1.74414: L2-Pf-HR :0.64173: L2-HR :0.72605: (Sim:0h29m7s) 
CPU  0 inst:  348000005 cyc:  199505938 now IPC :1.41626: AVG IPC :1.74298: L2-Pf-HR :0.64170: L2-HR :0.72593: (Sim:0h29m12s) 
CPU  0 inst:  349000000 cyc:  200054329 now IPC :1.82351: AVG IPC :1.74320: L2-Pf-HR :0.64167: L2-HR :0.72585: (Sim:0h29m16s) 
CPU  0 inst:  350000005 cyc:  200601938 now IPC :1.82613: AVG IPC :1.74343: L2-Pf-HR :0.64166: L2-HR :0.72577: (Sim:0h29m21s) 
CPU  0 inst:  351000001 cyc:  201148010 now IPC :1.83125: AVG IPC :1.74367: L2-Pf-HR :0.64168: L2-HR :0.72572: (Sim:0h29m25s) 
CPU  0 inst:  352000000 cyc:  201696380 now IPC :1.82358: AVG IPC :1.74388: L2-Pf-HR :0.64167: L2-HR :0.72564: (Sim:0h29m30s) 
CPU  0 inst:  353000001 cyc:  202245597 now IPC :1.82078: AVG IPC :1.74409: L2-Pf-HR :0.64167: L2-HR :0.72558: (Sim:0h29m34s) 
CPU  0 inst:  354000000 cyc:  202792493 now IPC :1.82850: AVG IPC :1.74432: L2-Pf-HR :0.64165: L2-HR :0.72550: (Sim:0h29m39s) 
CPU  0 inst:  355000001 cyc:  203375665 now IPC :1.71476: AVG IPC :1.74424: L2-Pf-HR :0.64185: L2-HR :0.72547: (Sim:0h29m43s) 
CPU  0 inst:  356000005 cyc:  203983111 now IPC :1.64624: AVG IPC :1.74395: L2-Pf-HR :0.64184: L2-HR :0.72570: (Sim:0h29m48s) 
CPU  0 inst:  357000004 cyc:  204521568 now IPC :1.85716: AVG IPC :1.74424: L2-Pf-HR :0.64195: L2-HR :0.72602: (Sim:0h29m52s) 
CPU  0 inst:  358000005 cyc:  205056160 now IPC :1.87059: AVG IPC :1.74458: L2-Pf-HR :0.64205: L2-HR :0.72634: (Sim:0h29m57s) 
CPU  0 inst:  359000004 cyc:  205601457 now IPC :1.83386: AVG IPC :1.74481: L2-Pf-HR :0.64216: L2-HR :0.72666: (Sim:0h30m1s) 
CPU  0 inst:  360000000 cyc:  206216349 now IPC :1.62630: AVG IPC :1.74446: L2-Pf-HR :0.64232: L2-HR :0.72690: (Sim:0h30m5s) 
CPU  0 inst:  361000005 cyc:  206856777 now IPC :1.56146: AVG IPC :1.74389: L2-Pf-HR :0.64213: L2-HR :0.72673: (Sim:0h30m10s) 
CPU  0 inst:  362000003 cyc:  207426927 now IPC :1.75392: AVG IPC :1.74392: L2-Pf-HR :0.64205: L2-HR :0.72661: (Sim:0h30m15s) 
CPU  0 inst:  363000004 cyc:  207997739 now IPC :1.75189: AVG IPC :1.74394: L2-Pf-HR :0.64197: L2-HR :0.72650: (Sim:0h30m19s) 
CPU  0 inst:  364000005 cyc:  208559570 now IPC :1.77990: AVG IPC :1.74404: L2-Pf-HR :0.64193: L2-HR :0.72641: (Sim:0h30m24s) 
CPU  0 inst:  365000003 cyc:  209129487 now IPC :1.75464: AVG IPC :1.74407: L2-Pf-HR :0.64188: L2-HR :0.72631: (Sim:0h30m28s) 
CPU  0 inst:  366000000 cyc:  209694367 now IPC :1.77028: AVG IPC :1.74414: L2-Pf-HR :0.64179: L2-HR :0.72618: (Sim:0h30m33s) 
CPU  0 inst:  367000002 cyc:  210261280 now IPC :1.76394: AVG IPC :1.74419: L2-Pf-HR :0.64176: L2-HR :0.72609: (Sim:0h30m37s) 
CPU  0 inst:  368000000 cyc:  210965069 now IPC :1.42088: AVG IPC :1.74311: L2-Pf-HR :0.64169: L2-HR :0.72597: (Sim:0h30m42s) 
CPU  0 inst:  369000002 cyc:  211510913 now IPC :1.83203: AVG IPC :1.74334: L2-Pf-HR :0.64165: L2-HR :0.72589: (Sim:0h30m46s) 
CPU  0 inst:  370000002 cyc:  212058270 now IPC :1.82696: AVG IPC :1.74355: L2-Pf-HR :0.64165: L2-HR :0.72582: (Sim:0h30m51s) 
CPU  0 inst:  371000002 cyc:  212605600 now IPC :1.82705: AVG IPC :1.74377: L2-Pf-HR :0.64165: L2-HR :0.72576: (Sim:0h30m55s) 
CPU  0 inst:  372000004 cyc:  213151654 now IPC :1.83132: AVG IPC :1.74399: L2-Pf-HR :0.64164: L2-HR :0.72569: (Sim:0h31m0s) 
CPU  0 inst:  373000003 cyc:  213702514 now IPC :1.81534: AVG IPC :1.74418: L2-Pf-HR :0.64165: L2-HR :0.72563: (Sim:0h31m4s) 
CPU  0 inst:  374000005 cyc:  214249852 now IPC :1.82703: AVG IPC :1.74439: L2-Pf-HR :0.64164: L2-HR :0.72556: (Sim:0h31m9s) 
CPU  0 inst:  375000002 cyc:  214841723 now IPC :1.68955: AVG IPC :1.74424: L2-Pf-HR :0.64181: L2-HR :0.72552: (Sim:0h31m13s) 
CPU  0 inst:  376000000 cyc:  215438015 now IPC :1.67703: AVG IPC :1.74405: L2-Pf-HR :0.64181: L2-HR :0.72575: (Sim:0h31m18s) 
CPU  0 inst:  377000002 cyc:  215982325 now IPC :1.83719: AVG IPC :1.74429: L2-Pf-HR :0.64192: L2-HR :0.72605: (Sim:0h31m22s) 
CPU  0 inst:  378000000 cyc:  216520452 now IPC :1.85829: AVG IPC :1.74457: L2-Pf-HR :0.64201: L2-HR :0.72636: (Sim:0h31m26s) 
CPU  0 inst:  379000002 cyc:  217065281 now IPC :1.83544: AVG IPC :1.74480: L2-Pf-HR :0.64212: L2-HR :0.72666: (Sim:0h31m31s) 
CPU  0 inst:  380000003 cyc:  217684697 now IPC :1.61443: AVG IPC :1.74443: L2-Pf-HR :0.64224: L2-HR :0.72686: (Sim:0h31m35s) 
CPU  0 inst:  381000003 cyc:  218312356 now IPC :1.59322: AVG IPC :1.74399: L2-Pf-HR :0.64208: L2-HR :0.72671: (Sim:0h31m40s) 
CPU  0 inst:  382000001 cyc:  218878838 now IPC :1.76528: AVG IPC :1.74405: L2-Pf-HR :0.64200: L2-HR :0.72661: (Sim:0h31m45s) 
CPU  0 inst:  383000004 cyc:  219449305 now IPC :1.75296: AVG IPC :1.74407: L2-Pf-HR :0.64193: L2-HR :0.72649: (Sim:0h31m49s) 
CPU  0 inst:  384000000 cyc:  220016774 now IPC :1.76220: AVG IPC :1.74412: L2-Pf-HR :0.64188: L2-HR :0.72641: (Sim:0h31m54s) 
CPU  0 inst:  385000002 cyc:  220584606 now IPC :1.76109: AVG IPC :1.74416: L2-Pf-HR :0.64184: L2-HR :0.72631: (Sim:0h31m58s) 
CPU  0 inst:  386000003 cyc:  221156349 now IPC :1.74904: AVG IPC :1.74418: L2-Pf-HR :0.64178: L2-HR :0.72620: (Sim:0h32m3s) 
CPU  0 inst:  387000005 cyc:  221725579 now IPC :1.75676: AVG IPC :1.74421: L2-Pf-HR :0.64173: L2-HR :0.72611: (Sim:0h32m7s) 
CPU  0 inst:  388000004 cyc:  222432802 now IPC :1.41398: AVG IPC :1.74315: L2-Pf-HR :0.64169: L2-HR :0.72601: (Sim:0h32m12s) 
CPU  0 inst:  389000000 cyc:  222979737 now IPC :1.82836: AVG IPC :1.74336: L2-Pf-HR :0.64168: L2-HR :0.72593: (Sim:0h32m16s) 
CPU  0 inst:  390000002 cyc:  223528508 now IPC :1.82226: AVG IPC :1.74356: L2-Pf-HR :0.64168: L2-HR :0.72586: (Sim:0h32m21s) 
CPU  0 inst:  391000000 cyc:  224073530 now IPC :1.83478: AVG IPC :1.74378: L2-Pf-HR :0.64167: L2-HR :0.72580: (Sim:0h32m25s) 
CPU  0 inst:  392000000 cyc:  224618819 now IPC :1.83389: AVG IPC :1.74400: L2-Pf-HR :0.64168: L2-HR :0.72574: (Sim:0h32m30s) 
CPU  0 inst:  393000001 cyc:  225165533 now IPC :1.82911: AVG IPC :1.74421: L2-Pf-HR :0.64169: L2-HR :0.72567: (Sim:0h32m34s) 
CPU  0 inst:  394000000 cyc:  225709057 now IPC :1.83984: AVG IPC :1.74444: L2-Pf-HR :0.64166: L2-HR :0.72560: (Sim:0h32m39s) 
CPU  0 inst:  395000003 cyc:  226313467 now IPC :1.65451: AVG IPC :1.74420: L2-Pf-HR :0.64181: L2-HR :0.72556: (Sim:0h32m43s) 
CPU  0 inst:  396000004 cyc:  226896868 now IPC :1.71409: AVG IPC :1.74412: L2-Pf-HR :0.64183: L2-HR :0.72579: (Sim:0h32m48s) 
CPU  0 inst:  397000002 cyc:  227435044 now IPC :1.85812: AVG IPC :1.74439: L2-Pf-HR :0.64194: L2-HR :0.72608: (Sim:0h32m52s) 
CPU  0 inst:  398000004 cyc:  227973123 now IPC :1.85847: AVG IPC :1.74466: L2-Pf-HR :0.64203: L2-HR :0.72637: (Sim:0h32m56s) 
CPU  0 inst:  399000002 cyc:  228519738 now IPC :1.82944: AVG IPC :1.74487: L2-Pf-HR :0.64215: L2-HR :0.72666: (Sim:0h33m0s) 
CPU  0 inst:  400000000 cyc:  229152530 now IPC :1.58029: AVG IPC :1.74441: L2-Pf-HR :0.64226: L2-HR :0.72683: (Sim:0h33m5s) 
CPU  0 inst:  401000003 cyc:  229781408 now IPC :1.59014: AVG IPC :1.74399: L2-Pf-HR :0.64212: L2-HR :0.72670: (Sim:0h33m9s) 
CPU  0 inst:  402000003 cyc:  230353311 now IPC :1.74855: AVG IPC :1.74400: L2-Pf-HR :0.64205: L2-HR :0.72661: (Sim:0h33m14s) 
CPU  0 inst:  403000001 cyc:  230925970 now IPC :1.74624: AVG IPC :1.74400: L2-Pf-HR :0.64198: L2-HR :0.72650: (Sim:0h33m18s) 
CPU  0 inst:  404000001 cyc:  231491528 now IPC :1.76817: AVG IPC :1.74406: L2-Pf-HR :0.64193: L2-HR :0.72641: (Sim:0h33m23s) 
CPU  0 inst:  405000000 cyc:  232057901 now IPC :1.76562: AVG IPC :1.74411: L2-Pf-HR :0.64187: L2-HR :0.72631: (Sim:0h33m28s) 
CPU  0 inst:  406000001 cyc:  232625173 now IPC :1.76282: AVG IPC :1.74416: L2-Pf-HR :0.64181: L2-HR :0.72621: (Sim:0h33m32s) 
CPU  0 inst:  407000003 cyc:  233194742 now IPC :1.75572: AVG IPC :1.74419: L2-Pf-HR :0.64177: L2-HR :0.72612: (Sim:0h33m37s) 
CPU  0 inst:  408000000 cyc:  233896361 now IPC :1.42527: AVG IPC :1.74323: L2-Pf-HR :0.64170: L2-HR :0.72600: (Sim:0h33m41s) 
CPU  0 inst:  409000001 cyc:  234440922 now IPC :1.83634: AVG IPC :1.74344: L2-Pf-HR :0.64170: L2-HR :0.72594: (Sim:0h33m46s) 
CPU  0 inst:  410000002 cyc:  234991330 now IPC :1.81684: AVG IPC :1.74362: L2-Pf-HR :0.64169: L2-HR :0.72587: (Sim:0h33m50s) 
CPU  0 inst:  411000001 cyc:  235538851 now IPC :1.82641: AVG IPC :1.74381: L2-Pf-HR :0.64170: L2-HR :0.72581: (Sim:0h33m55s) 
CPU  0 inst:  412000004 cyc:  236083504 now IPC :1.83604: AVG IPC :1.74402: L2-Pf-HR :0.64170: L2-HR :0.72576: (Sim:0h33m59s) 
CPU  0 inst:  413000003 cyc:  236631949 now IPC :1.82334: AVG IPC :1.74421: L2-Pf-HR :0.64169: L2-HR :0.72569: (Sim:0h34m4s) 
CPU  0 inst:  414000004 cyc:  237179796 now IPC :1.82533: AVG IPC :1.74440: L2-Pf-HR :0.64167: L2-HR :0.72563: (Sim:0h34m8s) 
CPU  0 inst:  415000001 cyc:  237790961 now IPC :1.63621: AVG IPC :1.74412: L2-Pf-HR :0.64179: L2-HR :0.72558: (Sim:0h34m13s) 
CPU  0 inst:  416000000 cyc:  238369114 now IPC :1.72964: AVG IPC :1.74408: L2-Pf-HR :0.64182: L2-HR :0.72581: (Sim:0h34m17s) 
CPU  0 inst:  417000001 cyc:  238905721 now IPC :1.86356: AVG IPC :1.74435: L2-Pf-HR :0.64192: L2-HR :0.72609: (Sim:0h34m22s) 
CPU  0 inst:  418000000 cyc:  239441811 now IPC :1.86536: AVG IPC :1.74462: L2-Pf-HR :0.64201: L2-HR :0.72636: (Sim:0h34m26s) 
CPU  0 inst:  419000001 cyc:  239983416 now IPC :1.84637: AVG IPC :1.74485: L2-Pf-HR :0.64211: L2-HR :0.72663: (Sim:0h34m31s) 
CPU  0 inst:  420000005 cyc:  240616333 now IPC :1.57999: AVG IPC :1.74442: L2-Pf-HR :0.64222: L2-HR :0.72680: (Sim:0h34m35s) 
CPU  0 inst:  421000002 cyc:  241241948 now IPC :1.59842: AVG IPC :1.74404: L2-Pf-HR :0.64208: L2-HR :0.72668: (Sim:0h34m40s) 
CPU  0 inst:  422000001 cyc:  241812050 now IPC :1.75407: AVG IPC :1.74406: L2-Pf-HR :0.64204: L2-HR :0.72659: (Sim:0h34m44s) 
CPU  0 inst:  423000001 cyc:  242379396 now IPC :1.76259: AVG IPC :1.74411: L2-Pf-HR :0.64196: L2-HR :0.72649: (Sim:0h34m49s) 
CPU  0 inst:  424000000 cyc:  242944885 now IPC :1.76838: AVG IPC :1.74416: L2-Pf-HR :0.64192: L2-HR :0.72641: (Sim:0h34m53s) 
CPU  0 inst:  425000004 cyc:  243512306 now IPC :1.76237: AVG IPC :1.74421: L2-Pf-HR :0.64187: L2-HR :0.72633: (Sim:0h34m58s) 
CPU  0 inst:  426000002 cyc:  244081637 now IPC :1.75644: AVG IPC :1.74423: L2-Pf-HR :0.64181: L2-HR :0.72624: (Sim:0h35m3s) 
CPU  0 inst:  427000004 cyc:  244650637 now IPC :1.75747: AVG IPC :1.74427: L2-Pf-HR :0.64175: L2-HR :0.72615: (Sim:0h35m7s) 
CPU  0 inst:  428000003 cyc:  245359555 now IPC :1.41060: AVG IPC :1.74330: L2-Pf-HR :0.64172: L2-HR :0.72606: (Sim:0h35m12s) 
CPU  0 inst:  429000005 cyc:  245903150 now IPC :1.83961: AVG IPC :1.74351: L2-Pf-HR :0.64172: L2-HR :0.72600: (Sim:0h35m16s) 
CPU  0 inst:  430000004 cyc:  246450222 now IPC :1.82791: AVG IPC :1.74370: L2-Pf-HR :0.64169: L2-HR :0.72592: (Sim:0h35m21s) 
CPU  0 inst:  431000005 cyc:  246998635 now IPC :1.82345: AVG IPC :1.74388: L2-Pf-HR :0.64169: L2-HR :0.72587: (Sim:0h35m25s) 
CPU  0 inst:  432000000 cyc:  247546670 now IPC :1.82469: AVG IPC :1.74406: L2-Pf-HR :0.64169: L2-HR :0.72581: (Sim:0h35m30s) 
CPU  0 inst:  433000000 cyc:  248094782 now IPC :1.82444: AVG IPC :1.74424: L2-Pf-HR :0.64168: L2-HR :0.72575: (Sim:0h35m34s) 
CPU  0 inst:  434000004 cyc:  248639710 now IPC :1.83511: AVG IPC :1.74444: L2-Pf-HR :0.64166: L2-HR :0.72568: (Sim:0h35m39s) 
CPU  0 inst:  435000002 cyc:  249248737 now IPC :1.64196: AVG IPC :1.74418: L2-Pf-HR :0.64176: L2-HR :0.72564: (Sim:0h35m43s) 
CPU  0 inst:  436000000 cyc:  249821514 now IPC :1.74588: AVG IPC :1.74419: L2-Pf-HR :0.64179: L2-HR :0.72585: (Sim:0h35m48s) 
CPU  0 inst:  437000002 cyc:  250355321 now IPC :1.87334: AVG IPC :1.74446: L2-Pf-HR :0.64188: L2-HR :0.72612: (Sim:0h35m52s) 
CPU  0 inst:  438000001 cyc:  250890707 now IPC :1.86781: AVG IPC :1.74473: L2-Pf-HR :0.64198: L2-HR :0.72639: (Sim:0h35m57s) 
CPU  0 inst:  439000002 cyc:  251432349 now IPC :1.84624: AVG IPC :1.74495: L2-Pf-HR :0.64206: L2-HR :0.72664: (Sim:0h36m1s) 
CPU  0 inst:  440000000 cyc:  252063145 now IPC :1.58530: AVG IPC :1.74455: L2-Pf-HR :0.64214: L2-HR :0.72679: (Sim:0h36m6s) 
CPU  0 inst:  441000003 cyc:  252681804 now IPC :1.61640: AVG IPC :1.74423: L2-Pf-HR :0.64202: L2-HR :0.72667: (Sim:0h36m10s) 
CPU  0 inst:  442000002 cyc:  253248410 now IPC :1.76489: AVG IPC :1.74428: L2-Pf-HR :0.64197: L2-HR :0.72659: (Sim:0h36m15s) 
CPU  0 inst:  443000001 cyc:  253818729 now IPC :1.75340: AVG IPC :1.74430: L2-Pf-HR :0.64192: L2-HR :0.72650: (Sim:0h36m19s) 
CPU  0 inst:  444000000 cyc:  254388141 now IPC :1.75620: AVG IPC :1.74433: L2-Pf-HR :0.64188: L2-HR :0.72642: (Sim:0h36m24s) 
CPU  0 inst:  445000003 cyc:  254960146 now IPC :1.74824: AVG IPC :1.74433: L2-Pf-HR :0.64183: L2-HR :0.72635: (Sim:0h36m28s) 
CPU  0 inst:  446000004 cyc:  255530527 now IPC :1.75322: AVG IPC :1.74435: L2-Pf-HR :0.64179: L2-HR :0.72626: (Sim:0h36m33s) 
CPU  0 inst:  447000003 cyc:  256094279 now IPC :1.77383: AVG IPC :1.74442: L2-Pf-HR :0.64176: L2-HR :0.72618: (Sim:0h36m38s) 
CPU  0 inst:  448000000 cyc:  256807350 now IPC :1.40238: AVG IPC :1.74347: L2-Pf-HR :0.64172: L2-HR :0.72609: (Sim:0h36m42s) 
CPU  0 inst:  449000001 cyc:  257351934 now IPC :1.83627: AVG IPC :1.74366: L2-Pf-HR :0.64170: L2-HR :0.72603: (Sim:0h36m47s) 
CPU  0 inst:  450000002 cyc:  257899123 now IPC :1.82752: AVG IPC :1.74384: L2-Pf-HR :0.64169: L2-HR :0.72596: (Sim:0h36m51s) 
CPU  0 inst:  451000003 cyc:  258445387 now IPC :1.83062: AVG IPC :1.74403: L2-Pf-HR :0.64170: L2-HR :0.72591: (Sim:0h36m56s) 
CPU  0 inst:  452000002 cyc:  258995531 now IPC :1.81770: AVG IPC :1.74418: L2-Pf-HR :0.64170: L2-HR :0.72586: (Sim:0h37m0s) 
CPU  0 inst:  453000001 cyc:  259543322 now IPC :1.82551: AVG IPC :1.74436: L2-Pf-HR :0.64171: L2-HR :0.72581: (Sim:0h37m5s) 
CPU  0 inst:  454000003 cyc:  260091034 now IPC :1.82578: AVG IPC :1.74453: L2-Pf-HR :0.64171: L2-HR :0.72575: (Sim:0h37m9s) 
CPU  0 inst:  455000005 cyc:  260703296 now IPC :1.63329: AVG IPC :1.74427: L2-Pf-HR :0.64181: L2-HR :0.72571: (Sim:0h37m14s) 
CPU  0 inst:  456000000 cyc:  261277526 now IPC :1.74145: AVG IPC :1.74426: L2-Pf-HR :0.64184: L2-HR :0.72591: (Sim:0h37m18s) 
CPU  0 inst:  457000000 cyc:  261813713 now IPC :1.86502: AVG IPC :1.74451: L2-Pf-HR :0.64194: L2-HR :0.72617: (Sim:0h37m23s) 
CPU  0 inst:  458000004 cyc:  262352995 now IPC :1.85432: AVG IPC :1.74473: L2-Pf-HR :0.64203: L2-HR :0.72642: (Sim:0h37m27s) 
CPU  0 inst:  459000000 cyc:  262901123 now IPC :1.82438: AVG IPC :1.74490: L2-Pf-HR :0.64210: L2-HR :0.72667: (Sim:0h37m32s) 
CPU  0 inst:  460000004 cyc:  263540580 now IPC :1.56383: AVG IPC :1.74446: L2-Pf-HR :0.64219: L2-HR :0.72681: (Sim:0h37m36s) 
CPU  0 inst:  461000004 cyc:  264152081 now IPC :1.63532: AVG IPC :1.74421: L2-Pf-HR :0.64208: L2-HR :0.72670: (Sim:0h37m41s) 
CPU  0 inst:  462000000 cyc:  264719274 now IPC :1.76306: AVG IPC :1.74425: L2-Pf-HR :0.64204: L2-HR :0.72662: (Sim:0h37m45s) 
CPU  0 inst:  463000002 cyc:  265294128 now IPC :1.73958: AVG IPC :1.74424: L2-Pf-HR :0.64199: L2-HR :0.72654: (Sim:0h37m50s) 
CPU  0 inst:  464000000 cyc:  265863744 now IPC :1.75557: AVG IPC :1.74426: L2-Pf-HR :0.64195: L2-HR :0.72646: (Sim:0h37m54s) 
CPU  0 inst:  465000004 cyc:  266434272 now IPC :1.75277: AVG IPC :1.74428: L2-Pf-HR :0.64190: L2-HR :0.72639: (Sim:0h37m59s) 
CPU  0 inst:  466000001 cyc:  267003830 now IPC :1.75574: AVG IPC :1.74430: L2-Pf-HR :0.64186: L2-HR :0.72631: (Sim:0h38m3s) 
CPU  0 inst:  467000004 cyc:  267575392 now IPC :1.74960: AVG IPC :1.74431: L2-Pf-HR :0.64182: L2-HR :0.72623: (Sim:0h38m8s) 
CPU  0 inst:  468000002 cyc:  268282060 now IPC :1.41509: AVG IPC :1.74344: L2-Pf-HR :0.64182: L2-HR :0.72615: (Sim:0h38m13s) 
CPU  0 inst:  469000001 cyc:  268829693 now IPC :1.82604: AVG IPC :1.74361: L2-Pf-HR :0.64181: L2-HR :0.72611: (Sim:0h38m17s) 
CPU  0 inst:  470000000 cyc:  269376473 now IPC :1.82889: AVG IPC :1.74379: L2-Pf-HR :0.64181: L2-HR :0.72605: (Sim:0h38m22s) 
CPU  0 inst:  471000004 cyc:  269923361 now IPC :1.82854: AVG IPC :1.74396: L2-Pf-HR :0.64182: L2-HR :0.72600: (Sim:0h38m26s) 
CPU  0 inst:  472000000 cyc:  270473319 now IPC :1.81831: AVG IPC :1.74411: L2-Pf-HR :0.64182: L2-HR :0.72595: (Sim:0h38m31s) 
CPU  0 inst:  473000005 cyc:  271021394 now IPC :1.82458: AVG IPC :1.74427: L2-Pf-HR :0.64184: L2-HR :0.72591: (Sim:0h38m35s) 
CPU  0 inst:  474000001 cyc:  271570005 now IPC :1.82278: AVG IPC :1.74443: L2-Pf-HR :0.64183: L2-HR :0.72586: (Sim:0h38m40s) 
CPU  0 inst:  475000002 cyc:  272191125 now IPC :1.61000: AVG IPC :1.74413: L2-Pf-HR :0.64193: L2-HR :0.72581: (Sim:0h38m44s) 
CPU  0 inst:  476000005 cyc:  272760675 now IPC :1.75578: AVG IPC :1.74415: L2-Pf-HR :0.64196: L2-HR :0.72601: (Sim:0h38m49s) 
CPU  0 inst:  477000004 cyc:  273299438 now IPC :1.85610: AVG IPC :1.74437: L2-Pf-HR :0.64205: L2-HR :0.72626: (Sim:0h38m53s) 
CPU  0 inst:  478000000 cyc:  273839760 now IPC :1.85074: AVG IPC :1.74458: L2-Pf-HR :0.64213: L2-HR :0.72650: (Sim:0h38m57s) 
CPU  0 inst:  479000001 cyc:  274386406 now IPC :1.82934: AVG IPC :1.74475: L2-Pf-HR :0.64220: L2-HR :0.72673: (Sim:0h39m2s) 
CPU  0 inst:  480000000 cyc:  275028705 now IPC :1.55691: AVG IPC :1.74431: L2-Pf-HR :0.64228: L2-HR :0.72687: (Sim:0h39m7s) 
CPU  0 inst:  481000003 cyc:  275640117 now IPC :1.63556: AVG IPC :1.74407: L2-Pf-HR :0.64219: L2-HR :0.72676: (Sim:0h39m11s) 
CPU  0 inst:  482000001 cyc:  276213516 now IPC :1.74398: AVG IPC :1.74407: L2-Pf-HR :0.64215: L2-HR :0.72668: (Sim:0h39m16s) 
CPU  0 inst:  483000000 cyc:  276785153 now IPC :1.74936: AVG IPC :1.74408: L2-Pf-HR :0.64209: L2-HR :0.72661: (Sim:0h39m20s) 
CPU  0 inst:  484000001 cyc:  277354279 now IPC :1.75708: AVG IPC :1.74411: L2-Pf-HR :0.64205: L2-HR :0.72653: (Sim:0h39m25s) 
CPU  0 inst:  485000001 cyc:  277919795 now IPC :1.76830: AVG IPC :1.74416: L2-Pf-HR :0.64201: L2-HR :0.72646: (Sim:0h39m29s) 
CPU  0 inst:  486000000 cyc:  278492253 now IPC :1.74685: AVG IPC :1.74416: L2-Pf-HR :0.64197: L2-HR :0.72638: (Sim:0h39m34s) 
CPU  0 inst:  487000004 cyc:  279062142 now IPC :1.75473: AVG IPC :1.74418: L2-Pf-HR :0.64193: L2-HR :0.72629: (Sim:0h39m38s) 
CPU  0 inst:  488000000 cyc:  279769871 now IPC :1.41296: AVG IPC :1.74334: L2-Pf-HR :0.64191: L2-HR :0.72621: (Sim:0h39m43s) 
CPU  0 inst:  489000002 cyc:  280321585 now IPC :1.81254: AVG IPC :1.74348: L2-Pf-HR :0.64190: L2-HR :0.72616: (Sim:0h39m48s) 
CPU  0 inst:  490000003 cyc:  280865547 now IPC :1.83837: AVG IPC :1.74366: L2-Pf-HR :0.64190: L2-HR :0.72610: (Sim:0h39m52s) 
CPU  0 inst:  491000003 cyc:  281409062 now IPC :1.83988: AVG IPC :1.74385: L2-Pf-HR :0.64190: L2-HR :0.72605: (Sim:0h39m57s) 
CPU  0 inst:  492000004 cyc:  281957765 now IPC :1.82248: AVG IPC :1.74400: L2-Pf-HR :0.64187: L2-HR :0.72599: (Sim:0h40m1s) 
CPU  0 inst:  493000001 cyc:  282502205 now IPC :1.83674: AVG IPC :1.74418: L2-Pf-HR :0.64187: L2-HR :0.72594: (Sim:0h40m5s) 
CPU  0 inst:  494000003 cyc:  283050409 now IPC :1.82414: AVG IPC :1.74434: L2-Pf-HR :0.64186: L2-HR :0.72589: (Sim:0h40m10s) 
CPU  0 inst:  495000002 cyc:  283669104 now IPC :1.61630: AVG IPC :1.74406: L2-Pf-HR :0.64195: L2-HR :0.72584: (Sim:0h40m15s) 
CPU  0 inst:  496000000 cyc:  284238331 now IPC :1.75676: AVG IPC :1.74408: L2-Pf-HR :0.64199: L2-HR :0.72603: (Sim:0h40m19s) 
CPU  0 inst:  497000002 cyc:  284777301 now IPC :1.85539: AVG IPC :1.74430: L2-Pf-HR :0.64208: L2-HR :0.72627: (Sim:0h40m23s) 
CPU  0 inst:  498000001 cyc:  285317644 now IPC :1.85067: AVG IPC :1.74450: L2-Pf-HR :0.64215: L2-HR :0.72649: (Sim:0h40m28s) 
CPU  0 inst:  499000002 cyc:  285858206 now IPC :1.84993: AVG IPC :1.74470: L2-Pf-HR :0.64221: L2-HR :0.72671: (Sim:0h40m32s) 
CPU  0 inst:  500000001 cyc:  286502793 now IPC :1.55138: AVG IPC :1.74426: L2-Pf-HR :0.64229: L2-HR :0.72684: (Sim:0h40m37s) 
CPU  0 inst:  501000003 cyc:  287110084 now IPC :1.64666: AVG IPC :1.74405: L2-Pf-HR :0.64219: L2-HR :0.72674: (Sim:0h40m42s) 
CPU  0 inst:  502000005 cyc:  287681595 now IPC :1.74975: AVG IPC :1.74407: L2-Pf-HR :0.64214: L2-HR :0.72667: (Sim:0h40m46s) 
CPU  0 inst:  503000001 cyc:  288252018 now IPC :1.75308: AVG IPC :1.74408: L2-Pf-HR :0.64208: L2-HR :0.72659: (Sim:0h40m51s) 
CPU  0 inst:  504000000 cyc:  288826503 now IPC :1.74069: AVG IPC :1.74408: L2-Pf-HR :0.64202: L2-HR :0.72650: (Sim:0h40m55s) 
CPU  0 inst:  505000002 cyc:  289390361 now IPC :1.77350: AVG IPC :1.74413: L2-Pf-HR :0.64197: L2-HR :0.72643: (Sim:0h41m0s) 
CPU  0 inst:  506000001 cyc:  289955985 now IPC :1.76796: AVG IPC :1.74418: L2-Pf-HR :0.64193: L2-HR :0.72635: (Sim:0h41m4s) 
CPU  0 inst:  507000002 cyc:  290524630 now IPC :1.75857: AVG IPC :1.74421: L2-Pf-HR :0.64189: L2-HR :0.72627: (Sim:0h41m9s) 
CPU  0 inst:  508000003 cyc:  291236030 now IPC :1.40568: AVG IPC :1.74338: L2-Pf-HR :0.64187: L2-HR :0.72619: (Sim:0h41m14s) 
CPU  0 inst:  509000000 cyc:  291780261 now IPC :1.83745: AVG IPC :1.74356: L2-Pf-HR :0.64187: L2-HR :0.72614: (Sim:0h41m18s) 
CPU  0 inst:  510000004 cyc:  292330260 now IPC :1.81819: AVG IPC :1.74370: L2-Pf-HR :0.64186: L2-HR :0.72609: (Sim:0h41m23s) 
CPU  0 inst:  511000004 cyc:  292877132 now IPC :1.82858: AVG IPC :1.74385: L2-Pf-HR :0.64186: L2-HR :0.72604: (Sim:0h41m27s) 
CPU  0 inst:  512000000 cyc:  293423027 now IPC :1.83185: AVG IPC :1.74402: L2-Pf-HR :0.64185: L2-HR :0.72599: (Sim:0h41m31s) 
CPU  0 inst:  513000000 cyc:  293972471 now IPC :1.82002: AVG IPC :1.74416: L2-Pf-HR :0.64187: L2-HR :0.72595: (Sim:0h41m36s) 
CPU  0 inst:  514000000 cyc:  294520700 now IPC :1.82406: AVG IPC :1.74431: L2-Pf-HR :0.64186: L2-HR :0.72590: (Sim:0h41m40s) 
CPU  0 inst:  515000001 cyc:  295143244 now IPC :1.60631: AVG IPC :1.74402: L2-Pf-HR :0.64193: L2-HR :0.72585: (Sim:0h41m45s) 
CPU  0 inst:  516000005 cyc:  295703942 now IPC :1.78350: AVG IPC :1.74409: L2-Pf-HR :0.64198: L2-HR :0.72605: (Sim:0h41m49s) 
CPU  0 inst:  517000003 cyc:  296236470 now IPC :1.87783: AVG IPC :1.74434: L2-Pf-HR :0.64205: L2-HR :0.72627: (Sim:0h41m54s) 
CPU  0 inst:  518000002 cyc:  296781019 now IPC :1.83638: AVG IPC :1.74450: L2-Pf-HR :0.64213: L2-HR :0.72650: (Sim:0h41m58s) 
CPU  0 inst:  519000004 cyc:  297325798 now IPC :1.83561: AVG IPC :1.74467: L2-Pf-HR :0.64220: L2-HR :0.72671: (Sim:0h42m3s) 
CPU  0 inst:  520000000 cyc:  297963537 now IPC :1.56803: AVG IPC :1.74429: L2-Pf-HR :0.64226: L2-HR :0.72683: (Sim:0h42m7s) 
CPU  0 inst:  521000005 cyc:  298574126 now IPC :1.63777: AVG IPC :1.74407: L2-Pf-HR :0.64216: L2-HR :0.72673: (Sim:0h42m12s) 
CPU  0 inst:  522000005 cyc:  299144367 now IPC :1.75364: AVG IPC :1.74409: L2-Pf-HR :0.64211: L2-HR :0.72666: (Sim:0h42m17s) 
CPU  0 inst:  523000003 cyc:  299717344 now IPC :1.74527: AVG IPC :1.74409: L2-Pf-HR :0.64207: L2-HR :0.72658: (Sim:0h42m21s) 
CPU  0 inst:  524000003 cyc:  300285221 now IPC :1.76094: AVG IPC :1.74413: L2-Pf-HR :0.64202: L2-HR :0.72651: (Sim:0h42m26s) 
CPU  0 inst:  525000003 cyc:  300854668 now IPC :1.75609: AVG IPC :1.74415: L2-Pf-HR :0.64199: L2-HR :0.72645: (Sim:0h42m30s) 
CPU  0 inst:  526000001 cyc:  301423197 now IPC :1.75892: AVG IPC :1.74418: L2-Pf-HR :0.64196: L2-HR :0.72638: (Sim:0h42m35s) 
CPU  0 inst:  527000001 cyc:  301993203 now IPC :1.75437: AVG IPC :1.74420: L2-Pf-HR :0.64193: L2-HR :0.72631: (Sim:0h42m39s) 
CPU  0 inst:  528000000 cyc:  302694661 now IPC :1.42560: AVG IPC :1.74346: L2-Pf-HR :0.64188: L2-HR :0.72623: (Sim:0h42m44s) 
CPU  0 inst:  529000005 cyc:  303239423 now IPC :1.83567: AVG IPC :1.74362: L2-Pf-HR :0.64189: L2-HR :0.72619: (Sim:0h42m48s) 
CPU  0 inst:  530000002 cyc:  303788593 now IPC :1.82092: AVG IPC :1.74376: L2-Pf-HR :0.64188: L2-HR :0.72613: (Sim:0h42m53s) 
CPU  0 inst:  531000003 cyc:  304335989 now IPC :1.82683: AVG IPC :1.74391: L2-Pf-HR :0.64188: L2-HR :0.72608: (Sim:0h42m57s) 
CPU  0 inst:  532000000 cyc:  304882055 now IPC :1.83127: AVG IPC :1.74407: L2-Pf-HR :0.64188: L2-HR :0.72603: (Sim:0h43m2s) 
CPU  0 inst:  533000005 cyc:  305428206 now IPC :1.83100: AVG IPC :1.74423: L2-Pf-HR :0.64188: L2-HR :0.72598: (Sim:0h43m6s) 
CPU  0 inst:  534000004 cyc:  305978778 now IPC :1.81629: AVG IPC :1.74436: L2-Pf-HR :0.64189: L2-HR :0.72594: (Sim:0h43m11s) 
CPU  0 inst:  535000001 cyc:  306603179 now IPC :1.60153: AVG IPC :1.74406: L2-Pf-HR :0.64197: L2-HR :0.72590: (Sim:0h43m15s) 
CPU  0 inst:  536000000 cyc:  307167883 now IPC :1.77084: AVG IPC :1.74411: L2-Pf-HR :0.64202: L2-HR :0.72609: (Sim:0h43m20s) 
CPU  0 inst:  537000001 cyc:  307703094 now IPC :1.86842: AVG IPC :1.74433: L2-Pf-HR :0.64209: L2-HR :0.72630: (Sim:0h43m24s) 
CPU  0 inst:  538000000 cyc:  308244461 now IPC :1.84717: AVG IPC :1.74451: L2-Pf-HR :0.64216: L2-HR :0.72651: (Sim:0h43m29s) 
CPU  0 inst:  539000002 cyc:  308785026 now IPC :1.84992: AVG IPC :1.74470: L2-Pf-HR :0.64223: L2-HR :0.72672: (Sim:0h43m33s) 
CPU  0 inst:  540000000 cyc:  309429363 now IPC :1.55198: AVG IPC :1.74429: L2-Pf-HR :0.64229: L2-HR :0.72684: (Sim:0h43m38s) 
CPU  0 inst:  541000002 cyc:  310034917 now IPC :1.65138: AVG IPC :1.74411: L2-Pf-HR :0.64217: L2-HR :0.72674: (Sim:0h43m42s) 
CPU  0 inst:  542000001 cyc:  310599561 now IPC :1.77103: AVG IPC :1.74416: L2-Pf-HR :0.64212: L2-HR :0.72667: (Sim:0h43m47s) 
CPU  0 inst:  543000001 cyc:  311173483 now IPC :1.74240: AVG IPC :1.74416: L2-Pf-HR :0.64208: L2-HR :0.72661: (Sim:0h43m51s) 
CPU  0 inst:  544000000 cyc:  311744326 now IPC :1.75179: AVG IPC :1.74417: L2-Pf-HR :0.64203: L2-HR :0.72654: (Sim:0h43m56s) 
CPU  0 inst:  545000001 cyc:  312313824 now IPC :1.75593: AVG IPC :1.74419: L2-Pf-HR :0.64200: L2-HR :0.72647: (Sim:0h44m0s) 
CPU  0 inst:  546000000 cyc:  312884167 now IPC :1.75333: AVG IPC :1.74421: L2-Pf-HR :0.64198: L2-HR :0.72641: (Sim:0h44m5s) 
CPU  0 inst:  547000005 cyc:  313452227 now IPC :1.76039: AVG IPC :1.74424: L2-Pf-HR :0.64195: L2-HR :0.72635: (Sim:0h44m9s) 
CPU  0 inst:  548000000 cyc:  314160326 now IPC :1.41222: AVG IPC :1.74349: L2-Pf-HR :0.64194: L2-HR :0.72627: (Sim:0h44m14s) 
CPU  0 inst:  549000002 cyc:  314705061 now IPC :1.83576: AVG IPC :1.74365: L2-Pf-HR :0.64193: L2-HR :0.72623: (Sim:0h44m19s) 
CPU  0 inst:  550000001 cyc:  315251368 now IPC :1.83047: AVG IPC :1.74380: L2-Pf-HR :0.64193: L2-HR :0.72618: (Sim:0h44m23s) 
CPU  0 inst:  551000003 cyc:  315797836 now IPC :1.82994: AVG IPC :1.74395: L2-Pf-HR :0.64192: L2-HR :0.72613: (Sim:0h44m28s) 
CPU  0 inst:  552000000 cyc:  316339088 now IPC :1.84756: AVG IPC :1.74413: L2-Pf-HR :0.64193: L2-HR :0.72609: (Sim:0h44m32s) 
CPU  0 inst:  553000003 cyc:  316886022 now IPC :1.82838: AVG IPC :1.74427: L2-Pf-HR :0.64193: L2-HR :0.72604: (Sim:0h44m36s) 
CPU  0 inst:  554000001 cyc:  317433436 now IPC :1.82677: AVG IPC :1.74442: L2-Pf-HR :0.64193: L2-HR :0.72601: (Sim:0h44m41s) 
CPU  0 inst:  555000002 cyc:  318064363 now IPC :1.58497: AVG IPC :1.74410: L2-Pf-HR :0.64200: L2-HR :0.72596: (Sim:0h44m45s) 
CPU  0 inst:  556000000 cyc:  318621225 now IPC :1.79577: AVG IPC :1.74419: L2-Pf-HR :0.64205: L2-HR :0.72615: (Sim:0h44m50s) 
CPU  0 inst:  557000005 cyc:  319156356 now IPC :1.86871: AVG IPC :1.74440: L2-Pf-HR :0.64212: L2-HR :0.72636: (Sim:0h44m54s) 
CPU  0 inst:  558000001 cyc:  319700294 now IPC :1.83844: AVG IPC :1.74456: L2-Pf-HR :0.64220: L2-HR :0.72656: (Sim:0h44m59s) 
CPU  0 inst:  559000000 cyc:  320246131 now IPC :1.83205: AVG IPC :1.74471: L2-Pf-HR :0.64227: L2-HR :0.72676: (Sim:0h45m3s) 
CPU  0 inst:  560000000 cyc:  320899826 now IPC :1.52977: AVG IPC :1.74427: L2-Pf-HR :0.64233: L2-HR :0.72686: (Sim:0h45m8s) 
CPU  0 inst:  561000005 cyc:  321505385 now IPC :1.65138: AVG IPC :1.74409: L2-Pf-HR :0.64224: L2-HR :0.72677: (Sim:0h45m12s) 
CPU  0 inst:  562000000 cyc:  322070262 now IPC :1.77029: AVG IPC :1.74414: L2-Pf-HR :0.64220: L2-HR :0.72670: (Sim:0h45m17s) 
CPU  0 inst:  563000002 cyc:  322641431 now IPC :1.75080: AVG IPC :1.74415: L2-Pf-HR :0.64216: L2-HR :0.72664: (Sim:0h45m21s) 
CPU  0 inst:  564000000 cyc:  323214058 now IPC :1.74633: AVG IPC :1.74416: L2-Pf-HR :0.64211: L2-HR :0.72656: (Sim:0h45m25s) 
CPU  0 inst:  565000003 cyc:  323780051 now IPC :1.76681: AVG IPC :1.74420: L2-Pf-HR :0.64207: L2-HR :0.72649: (Sim:0h45m30s) 
CPU  0 inst:  566000001 cyc:  324351520 now IPC :1.74987: AVG IPC :1.74421: L2-Pf-HR :0.64203: L2-HR :0.72643: (Sim:0h45m34s) 
CPU  0 inst:  567000003 cyc:  324916519 now IPC :1.76992: AVG IPC :1.74425: L2-Pf-HR :0.64201: L2-HR :0.72636: (Sim:0h45m38s) 
CPU  0 inst:  568000000 cyc:  325620215 now IPC :1.42106: AVG IPC :1.74355: L2-Pf-HR :0.64196: L2-HR :0.72628: (Sim:0h45m43s) 
CPU  0 inst:  569000003 cyc:  326163527 now IPC :1.84057: AVG IPC :1.74371: L2-Pf-HR :0.64196: L2-HR :0.72624: (Sim:0h45m47s) 
CPU  0 inst:  570000002 cyc:  326710500 now IPC :1.82824: AVG IPC :1.74385: L2-Pf-HR :0.64195: L2-HR :0.72619: (Sim:0h45m51s) 
CPU  0 inst:  571000002 cyc:  327253859 now IPC :1.84040: AVG IPC :1.74401: L2-Pf-HR :0.64195: L2-HR :0.72614: (Sim:0h45m55s) 
CPU  0 inst:  572000003 cyc:  327795920 now IPC :1.84481: AVG IPC :1.74418: L2-Pf-HR :0.64195: L2-HR :0.72609: (Sim:0h46m0s) 
CPU  0 inst:  573000001 cyc:  328345251 now IPC :1.82039: AVG IPC :1.74431: L2-Pf-HR :0.64196: L2-HR :0.72606: (Sim:0h46m4s) 
CPU  0 inst:  574000004 cyc:  328893975 now IPC :1.82242: AVG IPC :1.74444: L2-Pf-HR :0.64197: L2-HR :0.72602: (Sim:0h46m8s) 
CPU  0 inst:  575000005 cyc:  329527653 now IPC :1.57809: AVG IPC :1.74412: L2-Pf-HR :0.64203: L2-HR :0.72598: (Sim:0h46m12s) 
CPU  0 inst:  576000000 cyc:  330078884 now IPC :1.81411: AVG IPC :1.74424: L2-Pf-HR :0.64207: L2-HR :0.72616: (Sim:0h46m17s) 
CPU  0 inst:  577000000 cyc:  330611322 now IPC :1.87815: AVG IPC :1.74445: L2-Pf-HR :0.64215: L2-HR :0.72636: (Sim:0h46m21s) 
CPU  0 inst:  578000001 cyc:  331151743 now IPC :1.85041: AVG IPC :1.74463: L2-Pf-HR :0.64221: L2-HR :0.72656: (Sim:0h46m25s) 
CPU  0 inst:  579000004 cyc:  331690480 now IPC :1.85620: AVG IPC :1.74481: L2-Pf-HR :0.64227: L2-HR :0.72675: (Sim:0h46m29s) 
CPU  0 inst:  580000005 cyc:  332348144 now IPC :1.52053: AVG IPC :1.74436: L2-Pf-HR :0.64232: L2-HR :0.72685: (Sim:0h46m34s) 
CPU  0 inst:  581000004 cyc:  332953088 now IPC :1.65304: AVG IPC :1.74420: L2-Pf-HR :0.64224: L2-HR :0.72677: (Sim:0h46m38s) 
CPU  0 inst:  582000000 cyc:  333523529 now IPC :1.75302: AVG IPC :1.74421: L2-Pf-HR :0.64221: L2-HR :0.72670: (Sim:0h46m42s) 
CPU  0 inst:  583000002 cyc:  334092872 now IPC :1.75641: AVG IPC :1.74423: L2-Pf-HR :0.64217: L2-HR :0.72664: (Sim:0h46m47s) 
CPU  0 inst:  584000000 cyc:  334671336 now IPC :1.72871: AVG IPC :1.74421: L2-Pf-HR :0.64213: L2-HR :0.72657: (Sim:0h46m51s) 
CPU  0 inst:  585000000 cyc:  335238523 now IPC :1.76309: AVG IPC :1.74424: L2-Pf-HR :0.64209: L2-HR :0.72651: (Sim:0h46m55s) 
CPU  0 inst:  586000002 cyc:  335811294 now IPC :1.74590: AVG IPC :1.74424: L2-Pf-HR :0.64206: L2-HR :0.72645: (Sim:0h47m0s) 
CPU  0 inst:  587000002 cyc:  336385012 now IPC :1.74302: AVG IPC :1.74424: L2-Pf-HR :0.64203: L2-HR :0.72639: (Sim:0h47m4s) 
CPU  0 inst:  588000000 cyc:  337082458 now IPC :1.43380: AVG IPC :1.74359: L2-Pf-HR :0.64200: L2-HR :0.72631: (Sim:0h47m9s) 
CPU  0 inst:  589000003 cyc:  337630248 now IPC :1.82552: AVG IPC :1.74373: L2-Pf-HR :0.64199: L2-HR :0.72627: (Sim:0h47m13s) 
CPU  0 inst:  590000000 cyc:  338176823 now IPC :1.82957: AVG IPC :1.74387: L2-Pf-HR :0.64198: L2-HR :0.72623: (Sim:0h47m18s) 
CPU  0 inst:  591000003 cyc:  338721863 now IPC :1.83473: AVG IPC :1.74401: L2-Pf-HR :0.64198: L2-HR :0.72618: (Sim:0h47m22s) 
CPU  0 inst:  592000000 cyc:  339268158 now IPC :1.83051: AVG IPC :1.74415: L2-Pf-HR :0.64198: L2-HR :0.72614: (Sim:0h47m26s) 
CPU  0 inst:  593000002 cyc:  339815699 now IPC :1.82635: AVG IPC :1.74429: L2-Pf-HR :0.64199: L2-HR :0.72610: (Sim:0h47m31s) 
CPU  0 inst:  594000001 cyc:  340362203 now IPC :1.82981: AVG IPC :1.74442: L2-Pf-HR :0.64199: L2-HR :0.72606: (Sim:0h47m35s) 
CPU  0 inst:  595000001 cyc:  340997987 now IPC :1.57286: AVG IPC :1.74410: L2-Pf-HR :0.64204: L2-HR :0.72602: (Sim:0h47m40s) 
CPU  0 inst:  596000002 cyc:  341545389 now IPC :1.82681: AVG IPC :1.74424: L2-Pf-HR :0.64209: L2-HR :0.72620: (Sim:0h47m44s) 
CPU  0 inst:  597000001 cyc:  342076057 now IPC :1.88442: AVG IPC :1.74445: L2-Pf-HR :0.64216: L2-HR :0.72639: (Sim:0h47m48s) 
CPU  0 inst:  598000005 cyc:  342613500 now IPC :1.86067: AVG IPC :1.74464: L2-Pf-HR :0.64222: L2-HR :0.72658: (Sim:0h47m53s) 
CPU  0 inst:  599000005 cyc:  343150712 now IPC :1.86146: AVG IPC :1.74482: L2-Pf-HR :0.64229: L2-HR :0.72677: (Sim:0h47m57s) 
CPU  0 inst:  600000000 cyc:  343812982 now IPC :1.50995: AVG IPC :1.74437: L2-Pf-HR :0.64232: L2-HR :0.72686: (Sim:0h48m2s) 
CPU  0 inst:  601000003 cyc:  344412577 now IPC :1.66780: AVG IPC :1.74423: L2-Pf-HR :0.64224: L2-HR :0.72678: (Sim:0h48m6s) 
CPU  0 inst:  602000000 cyc:  344979220 now IPC :1.76477: AVG IPC :1.74427: L2-Pf-HR :0.64222: L2-HR :0.72672: (Sim:0h48m11s) 
CPU  0 inst:  603000002 cyc:  345552966 now IPC :1.74294: AVG IPC :1.74426: L2-Pf-HR :0.64219: L2-HR :0.72666: (Sim:0h48m15s) 
CPU  0 inst:  604000005 cyc:  346124209 now IPC :1.75057: AVG IPC :1.74427: L2-Pf-HR :0.64216: L2-HR :0.72659: (Sim:0h48m20s) 
CPU  0 inst:  605000002 cyc:  346694264 now IPC :1.75421: AVG IPC :1.74429: L2-Pf-HR :0.64212: L2-HR :0.72653: (Sim:0h48m24s) 
CPU  0 inst:  606000000 cyc:  347260994 now IPC :1.76451: AVG IPC :1.74432: L2-Pf-HR :0.64211: L2-HR :0.72648: (Sim:0h48m29s) 
CPU  0 inst:  607000002 cyc:  347827818 now IPC :1.76422: AVG IPC :1.74436: L2-Pf-HR :0.64208: L2-HR :0.72642: (Sim:0h48m33s) 
CPU  0 inst:  608000000 cyc:  348534652 now IPC :1.41476: AVG IPC :1.74369: L2-Pf-HR :0.64202: L2-HR :0.72634: (Sim:0h48m38s) 
CPU  0 inst:  609000002 cyc:  349083299 now IPC :1.82267: AVG IPC :1.74381: L2-Pf-HR :0.64203: L2-HR :0.72630: (Sim:0h48m42s) 
CPU  0 inst:  610000004 cyc:  349631178 now IPC :1.82522: AVG IPC :1.74394: L2-Pf-HR :0.64206: L2-HR :0.72627: (Sim:0h48m47s) 
CPU  0 inst:  611000003 cyc:  350177511 now IPC :1.83038: AVG IPC :1.74407: L2-Pf-HR :0.64205: L2-HR :0.72623: (Sim:0h48m51s) 
CPU  0 inst:  612000000 cyc:  350727161 now IPC :1.81933: AVG IPC :1.74419: L2-Pf-HR :0.64206: L2-HR :0.72619: (Sim:0h48m56s) 
CPU  0 inst:  613000003 cyc:  351272324 now IPC :1.83432: AVG IPC :1.74433: L2-Pf-HR :0.64208: L2-HR :0.72615: (Sim:0h49m0s) 
CPU  0 inst:  614000004 cyc:  351822859 now IPC :1.81642: AVG IPC :1.74445: L2-Pf-HR :0.64208: L2-HR :0.72612: (Sim:0h49m5s) 
CPU  0 inst:  615000005 cyc:  352461160 now IPC :1.56666: AVG IPC :1.74412: L2-Pf-HR :0.64213: L2-HR :0.72608: (Sim:0h49m9s) 
CPU  0 inst:  616000000 cyc:  353008562 now IPC :1.82680: AVG IPC :1.74425: L2-Pf-HR :0.64219: L2-HR :0.72625: (Sim:0h49m14s) 
CPU  0 inst:  617000003 cyc:  353543887 now IPC :1.86803: AVG IPC :1.74444: L2-Pf-HR :0.64226: L2-HR :0.72644: (Sim:0h49m18s) 
CPU  0 inst:  618000000 cyc:  354089560 now IPC :1.83259: AVG IPC :1.74458: L2-Pf-HR :0.64232: L2-HR :0.72662: (Sim:0h49m22s) 
CPU  0 inst:  619000000 cyc:  354626907 now IPC :1.86099: AVG IPC :1.74475: L2-Pf-HR :0.64238: L2-HR :0.72681: (Sim:0h49m27s) 
CPU  0 inst:  620000004 cyc:  355286143 now IPC :1.51691: AVG IPC :1.74433: L2-Pf-HR :0.64242: L2-HR :0.72689: (Sim:0h49m31s) 
CPU  0 inst:  621000003 cyc:  355880574 now IPC :1.68228: AVG IPC :1.74422: L2-Pf-HR :0.64235: L2-HR :0.72682: (Sim:0h49m36s) 
CPU  0 inst:  622000003 cyc:  356443567 now IPC :1.77622: AVG IPC :1.74428: L2-Pf-HR :0.64231: L2-HR :0.72674: (Sim:0h49m41s) 
CPU  0 inst:  623000004 cyc:  357015006 now IPC :1.74997: AVG IPC :1.74428: L2-Pf-HR :0.64229: L2-HR :0.72669: (Sim:0h49m45s) 
CPU  0 inst:  624000000 cyc:  357589032 now IPC :1.74207: AVG IPC :1.74428: L2-Pf-HR :0.64224: L2-HR :0.72663: (Sim:0h49m50s) 
CPU  0 inst:  625000005 cyc:  358157810 now IPC :1.75816: AVG IPC :1.74430: L2-Pf-HR :0.64219: L2-HR :0.72656: (Sim:0h49m54s) 
CPU  0 inst:  626000001 cyc:  358722211 now IPC :1.77178: AVG IPC :1.74435: L2-Pf-HR :0.64217: L2-HR :0.72650: (Sim:0h49m59s) 
CPU  0 inst:  627000003 cyc:  359293101 now IPC :1.75165: AVG IPC :1.74436: L2-Pf-HR :0.64215: L2-HR :0.72645: (Sim:0h50m3s) 
[...]
CPU  0 inst: 1276000001 cyc: 1661378423 now IPC :1.87767: AVG IPC :0.76729: L2-Pf-HR :0.54103: L2-HR :0.66259: (Sim:2h0m29s) 
CPU  0 inst: 1277000003 cyc: 1661924664 now IPC :1.83070: AVG IPC :0.76764: L2-Pf-HR :0.54114: L2-HR :0.66267: (Sim:2h0m33s) 
CPU  0 inst: 1278000001 cyc: 1662546205 now IPC :1.60890: AVG IPC :0.76796: L2-Pf-HR :0.54128: L2-HR :0.66277: (Sim:2h0m37s) 
CPU  0 inst: 1279000000 cyc: 1663023788 now IPC :2.09387: AVG IPC :0.76834: L2-Pf-HR :0.54156: L2-HR :0.66293: (Sim:2h0m40s) 
CPU  0 inst: 1280000000 cyc: 1663566201 now IPC :1.84361: AVG IPC :0.76869: L2-Pf-HR :0.54173: L2-HR :0.66306: (Sim:2h0m44s) 
CPU  0 inst: 1281000002 cyc: 1664167751 now IPC :1.66238: AVG IPC :0.76901: L2-Pf-HR :0.54180: L2-HR :0.66313: (Sim:2h0m48s) 
CPU  0 inst: 1282000000 cyc: 1664797441 now IPC :1.58808: AVG IPC :0.76932: L2-Pf-HR :0.54196: L2-HR :0.66323: (Sim:2h0m52s) 
CPU  0 inst: 1283000000 cyc: 1665260874 now IPC :2.15781: AVG IPC :0.76971: L2-Pf-HR :0.54217: L2-HR :0.66337: (Sim:2h0m56s) 
CPU  0 inst: 1284000000 cyc: 1665814157 now IPC :1.80739: AVG IPC :0.77005: L2-Pf-HR :0.54238: L2-HR :0.66350: (Sim:2h0m59s) 
CPU  0 inst: 1285000005 cyc: 1666418699 now IPC :1.65415: AVG IPC :0.77037: L2-Pf-HR :0.54250: L2-HR :0.66359: (Sim:2h1m4s) 
CPU  0 inst: 1286000004 cyc: 1667031910 now IPC :1.63076: AVG IPC :0.77069: L2-Pf-HR :0.54266: L2-HR :0.66370: (Sim:2h1m8s) 
CPU  0 inst: 1287000001 cyc: 1667497069 now IPC :2.14980: AVG IPC :0.77108: L2-Pf-HR :0.54285: L2-HR :0.66383: (Sim:2h1m11s) 
CPU  0 inst: 1288000000 cyc: 1668046841 now IPC :1.81893: AVG IPC :0.77142: L2-Pf-HR :0.54307: L2-HR :0.66397: (Sim:2h1m15s) 
CPU  0 inst: 1289000002 cyc: 1668649129 now IPC :1.66034: AVG IPC :0.77174: L2-Pf-HR :0.54339: L2-HR :0.66413: (Sim:2h1m19s) 
CPU  0 inst: 1290000003 cyc: 1669317078 now IPC :1.49712: AVG IPC :0.77203: L2-Pf-HR :0.54361: L2-HR :0.66426: (Sim:2h1m23s) 
CPU  0 inst: 1291000001 cyc: 1669829960 now IPC :1.94976: AVG IPC :0.77240: L2-Pf-HR :0.54375: L2-HR :0.66435: (Sim:2h1m27s) 
CPU  0 inst: 1292000004 cyc: 1670486410 now IPC :1.52335: AVG IPC :0.77269: L2-Pf-HR :0.54386: L2-HR :0.66443: (Sim:2h1m31s) 
CPU  0 inst: 1293000002 cyc: 1671069883 now IPC :1.71387: AVG IPC :0.77302: L2-Pf-HR :0.54405: L2-HR :0.66454: (Sim:2h1m35s) 
CPU  0 inst: 1294000002 cyc: 1671617468 now IPC :1.82620: AVG IPC :0.77336: L2-Pf-HR :0.54423: L2-HR :0.66465: (Sim:2h1m38s) 
CPU  0 inst: 1295000003 cyc: 1672170253 now IPC :1.80902: AVG IPC :0.77371: L2-Pf-HR :0.54432: L2-HR :0.66473: (Sim:2h1m42s) 
CPU  0 inst: 1296000000 cyc: 1672791518 now IPC :1.60961: AVG IPC :0.77402: L2-Pf-HR :0.54445: L2-HR :0.66483: (Sim:2h1m46s) 
CPU  0 inst: 1297000001 cyc: 1673267871 now IPC :2.09929: AVG IPC :0.77440: L2-Pf-HR :0.54472: L2-HR :0.66498: (Sim:2h1m50s) 
CPU  0 inst: 1298000002 cyc: 1673811604 now IPC :1.83914: AVG IPC :0.77474: L2-Pf-HR :0.54488: L2-HR :0.66510: (Sim:2h1m54s) 
CPU  0 inst: 1299000004 cyc: 1674407605 now IPC :1.67785: AVG IPC :0.77506: L2-Pf-HR :0.54497: L2-HR :0.66517: (Sim:2h1m58s) 
CPU  0 inst: 1300000003 cyc: 1675030281 now IPC :1.60597: AVG IPC :0.77537: L2-Pf-HR :0.54512: L2-HR :0.66528: (Sim:2h2m2s) 
CPU  0 inst: 1301000002 cyc: 1675490021 now IPC :2.17514: AVG IPC :0.77576: L2-Pf-HR :0.54531: L2-HR :0.66541: (Sim:2h2m5s) 
CPU  0 inst: 1302000002 cyc: 1676040938 now IPC :1.81516: AVG IPC :0.77610: L2-Pf-HR :0.54552: L2-HR :0.66554: (Sim:2h2m9s) 
CPU  0 inst: 1303000003 cyc: 1676640738 now IPC :1.66722: AVG IPC :0.77642: L2-Pf-HR :0.54563: L2-HR :0.66562: (Sim:2h2m13s) 
CPU  0 inst: 1304000000 cyc: 1677258728 now IPC :1.61814: AVG IPC :0.77673: L2-Pf-HR :0.54579: L2-HR :0.66573: (Sim:2h2m17s) 
CPU  0 inst: 1305000004 cyc: 1677726075 now IPC :2.13975: AVG IPC :0.77711: L2-Pf-HR :0.54597: L2-HR :0.66585: (Sim:2h2m21s) 
CPU  0 inst: 1306000003 cyc: 1678275264 now IPC :1.82086: AVG IPC :0.77745: L2-Pf-HR :0.54618: L2-HR :0.66598: (Sim:2h2m24s) 
CPU  0 inst: 1307000004 cyc: 1678871185 now IPC :1.67808: AVG IPC :0.77777: L2-Pf-HR :0.54630: L2-HR :0.66606: (Sim:2h2m29s) 
CPU  0 inst: 1308000002 cyc: 1679408939 now IPC :1.85958: AVG IPC :0.77812: L2-Pf-HR :0.54653: L2-HR :0.66620: (Sim:2h2m32s) 
CPU  0 inst: 1309000001 cyc: 1679948527 now IPC :1.85326: AVG IPC :0.77846: L2-Pf-HR :0.54663: L2-HR :0.66630: (Sim:2h2m36s) 
CPU  0 inst: 1310000002 cyc: 1680497626 now IPC :1.82117: AVG IPC :0.77880: L2-Pf-HR :0.54684: L2-HR :0.66643: (Sim:2h2m40s) 
CPU  0 inst: 1311000003 cyc: 1681035811 now IPC :1.85810: AVG IPC :0.77915: L2-Pf-HR :0.54713: L2-HR :0.66659: (Sim:2h2m44s) 
CPU  0 inst: 1312000000 cyc: 1681637875 now IPC :1.66095: AVG IPC :0.77946: L2-Pf-HR :0.54750: L2-HR :0.66678: (Sim:2h2m48s) 
CPU  0 inst: 1313000001 cyc: 1682282723 now IPC :1.55075: AVG IPC :0.77976: L2-Pf-HR :0.54750: L2-HR :0.66681: (Sim:2h2m52s) 
CPU  0 inst: 1314000001 cyc: 1682944605 now IPC :1.51084: AVG IPC :0.78005: L2-Pf-HR :0.54761: L2-HR :0.66688: (Sim:2h2m56s) 
CPU  0 inst: 1315000002 cyc: 1683443459 now IPC :2.00460: AVG IPC :0.78041: L2-Pf-HR :0.54783: L2-HR :0.66701: (Sim:2h2m59s) 
CPU  0 inst: 1316000001 cyc: 1684035798 now IPC :1.68822: AVG IPC :0.78073: L2-Pf-HR :0.54796: L2-HR :0.66710: (Sim:2h3m3s) 
CPU  0 inst: 1317000005 cyc: 1684637614 now IPC :1.66164: AVG IPC :0.78104: L2-Pf-HR :0.54804: L2-HR :0.66717: (Sim:2h3m7s) 
CPU  0 inst: 1318000005 cyc: 1685256367 now IPC :1.61615: AVG IPC :0.78135: L2-Pf-HR :0.54818: L2-HR :0.66727: (Sim:2h3m11s) 
CPU  0 inst: 1319000002 cyc: 1685718228 now IPC :2.16515: AVG IPC :0.78173: L2-Pf-HR :0.54837: L2-HR :0.66739: (Sim:2h3m15s) 
CPU  0 inst: 1320000000 cyc: 1686272622 now IPC :1.80377: AVG IPC :0.78207: L2-Pf-HR :0.54857: L2-HR :0.66753: (Sim:2h3m18s) 
CPU  0 inst: 1321000001 cyc: 1686880237 now IPC :1.64578: AVG IPC :0.78238: L2-Pf-HR :0.54867: L2-HR :0.66760: (Sim:2h3m23s) 
CPU  0 inst: 1322000001 cyc: 1687498515 now IPC :1.61740: AVG IPC :0.78268: L2-Pf-HR :0.54883: L2-HR :0.66771: (Sim:2h3m27s) 
CPU  0 inst: 1323000002 cyc: 1687964561 now IPC :2.14571: AVG IPC :0.78306: L2-Pf-HR :0.54900: L2-HR :0.66782: (Sim:2h3m30s) 
CPU  0 inst: 1324000004 cyc: 1688517052 now IPC :1.80999: AVG IPC :0.78340: L2-Pf-HR :0.54921: L2-HR :0.66796: (Sim:2h3m34s) 
CPU  0 inst: 1325000000 cyc: 1689123841 now IPC :1.64801: AVG IPC :0.78371: L2-Pf-HR :0.54931: L2-HR :0.66803: (Sim:2h3m38s) 
CPU  0 inst: 1326000000 cyc: 1689654971 now IPC :1.88278: AVG IPC :0.78405: L2-Pf-HR :0.54955: L2-HR :0.66817: (Sim:2h3m42s) 
CPU  0 inst: 1327000002 cyc: 1690205976 now IPC :1.81487: AVG IPC :0.78439: L2-Pf-HR :0.54964: L2-HR :0.66825: (Sim:2h3m46s) 
CPU  0 inst: 1328000000 cyc: 1690760291 now IPC :1.80402: AVG IPC :0.78472: L2-Pf-HR :0.54983: L2-HR :0.66838: (Sim:2h3m49s) 
CPU  0 inst: 1329000003 cyc: 1691365009 now IPC :1.65367: AVG IPC :0.78504: L2-Pf-HR :0.54994: L2-HR :0.66845: (Sim:2h3m54s) 
CPU  0 inst: 1330000003 cyc: 1691850211 now IPC :2.06100: AVG IPC :0.78540: L2-Pf-HR :0.55017: L2-HR :0.66860: (Sim:2h3m57s) 
CPU  0 inst: 1331000002 cyc: 1692444868 now IPC :1.68164: AVG IPC :0.78572: L2-Pf-HR :0.55027: L2-HR :0.66868: (Sim:2h4m1s) 
CPU  0 inst: 1332000003 cyc: 1692995711 now IPC :1.81540: AVG IPC :0.78605: L2-Pf-HR :0.55047: L2-HR :0.66881: (Sim:2h4m5s) 
CPU  0 inst: 1333000001 cyc: 1693530873 now IPC :1.86859: AVG IPC :0.78639: L2-Pf-HR :0.55073: L2-HR :0.66895: (Sim:2h4m9s) 
CPU  0 inst: 1334000000 cyc: 1694102824 now IPC :1.74840: AVG IPC :0.78672: L2-Pf-HR :0.55108: L2-HR :0.66915: (Sim:2h4m13s) 
CPU  0 inst: 1335000004 cyc: 1694762215 now IPC :1.51656: AVG IPC :0.78700: L2-Pf-HR :0.55111: L2-HR :0.66918: (Sim:2h4m17s) 
CPU  0 inst: 1336000000 cyc: 1695425601 now IPC :1.50741: AVG IPC :0.78729: L2-Pf-HR :0.55122: L2-HR :0.66926: (Sim:2h4m21s) 
CPU  0 inst: 1337000002 cyc: 1695921139 now IPC :2.01801: AVG IPC :0.78764: L2-Pf-HR :0.55138: L2-HR :0.66936: (Sim:2h4m24s) 
CPU  0 inst: 1338000002 cyc: 1696522128 now IPC :1.66392: AVG IPC :0.78796: L2-Pf-HR :0.55154: L2-HR :0.66946: (Sim:2h4m28s) 
CPU  0 inst: 1339000003 cyc: 1697125127 now IPC :1.65838: AVG IPC :0.78827: L2-Pf-HR :0.55162: L2-HR :0.66952: (Sim:2h4m32s) 
CPU  0 inst: 1340000001 cyc: 1697746437 now IPC :1.60950: AVG IPC :0.78857: L2-Pf-HR :0.55177: L2-HR :0.66963: (Sim:2h4m36s) 
CPU  0 inst: 1341000004 cyc: 1698213237 now IPC :2.14225: AVG IPC :0.78894: L2-Pf-HR :0.55194: L2-HR :0.66975: (Sim:2h4m40s) 
CPU  0 inst: 1342000003 cyc: 1698770990 now IPC :1.79291: AVG IPC :0.78927: L2-Pf-HR :0.55214: L2-HR :0.66987: (Sim:2h4m43s) 
CPU  0 inst: 1343000004 cyc: 1699377367 now IPC :1.64914: AVG IPC :0.78957: L2-Pf-HR :0.55223: L2-HR :0.66994: (Sim:2h4m47s) 
CPU  0 inst: 1344000000 cyc: 1699893776 now IPC :1.93644: AVG IPC :0.78992: L2-Pf-HR :0.55248: L2-HR :0.67008: (Sim:2h4m51s) 
CPU  0 inst: 1345000002 cyc: 1700463477 now IPC :1.75531: AVG IPC :0.79025: L2-Pf-HR :0.55255: L2-HR :0.67016: (Sim:2h4m55s) 
CPU  0 inst: 1346000004 cyc: 1701019254 now IPC :1.79929: AVG IPC :0.79058: L2-Pf-HR :0.55275: L2-HR :0.67029: (Sim:2h4m59s) 
CPU  0 inst: 1347000005 cyc: 1701617229 now IPC :1.67231: AVG IPC :0.79089: L2-Pf-HR :0.55286: L2-HR :0.67036: (Sim:2h5m3s) 
CPU  0 inst: 1348000002 cyc: 1702095327 now IPC :2.09162: AVG IPC :0.79125: L2-Pf-HR :0.55308: L2-HR :0.67050: (Sim:2h5m7s) 
CPU  0 inst: 1349000002 cyc: 1702705231 now IPC :1.63960: AVG IPC :0.79156: L2-Pf-HR :0.55317: L2-HR :0.67057: (Sim:2h5m10s) 
CPU  0 inst: 1350000003 cyc: 1703262512 now IPC :1.79443: AVG IPC :0.79188: L2-Pf-HR :0.55336: L2-HR :0.67070: (Sim:2h5m14s) 
CPU  0 inst: 1351000002 cyc: 1703853765 now IPC :1.69132: AVG IPC :0.79220: L2-Pf-HR :0.55347: L2-HR :0.67078: (Sim:2h5m18s) 
CPU  0 inst: 1352000000 cyc: 1704324025 now IPC :2.12648: AVG IPC :0.79257: L2-Pf-HR :0.55365: L2-HR :0.67090: (Sim:2h5m22s) 
CPU  0 inst: 1353000000 cyc: 1704936630 now IPC :1.63237: AVG IPC :0.79287: L2-Pf-HR :0.55378: L2-HR :0.67099: (Sim:2h5m26s) 
CPU  0 inst: 1354000004 cyc: 1705487439 now IPC :1.81552: AVG IPC :0.79320: L2-Pf-HR :0.55398: L2-HR :0.67112: (Sim:2h5m29s) 
CPU  0 inst: 1355000001 cyc: 1706021557 now IPC :1.87224: AVG IPC :0.79354: L2-Pf-HR :0.55420: L2-HR :0.67124: (Sim:2h5m33s) 
CPU  0 inst: 1356000003 cyc: 1706595305 now IPC :1.74293: AVG IPC :0.79386: L2-Pf-HR :0.55454: L2-HR :0.67143: (Sim:2h5m37s) 
CPU  0 inst: 1357000001 cyc: 1707260725 now IPC :1.50281: AVG IPC :0.79413: L2-Pf-HR :0.55461: L2-HR :0.67148: (Sim:2h5m41s) 
CPU  0 inst: 1358000001 cyc: 1707911455 now IPC :1.53674: AVG IPC :0.79441: L2-Pf-HR :0.55473: L2-HR :0.67157: (Sim:2h5m45s) 
CPU  0 inst: 1359000002 cyc: 1708411136 now IPC :2.00128: AVG IPC :0.79477: L2-Pf-HR :0.55486: L2-HR :0.67165: (Sim:2h5m49s) 
CPU  0 inst: 1360000000 cyc: 1709012027 now IPC :1.66419: AVG IPC :0.79507: L2-Pf-HR :0.55502: L2-HR :0.67175: (Sim:2h5m52s) 
CPU  0 inst: 1361000001 cyc: 1709629746 now IPC :1.61886: AVG IPC :0.79537: L2-Pf-HR :0.55510: L2-HR :0.67181: (Sim:2h5m56s) 
CPU  0 inst: 1362000000 cyc: 1710133019 now IPC :1.98699: AVG IPC :0.79572: L2-Pf-HR :0.55535: L2-HR :0.67195: (Sim:2h6m0s) 
CPU  0 inst: 1363000000 cyc: 1710709564 now IPC :1.73447: AVG IPC :0.79604: L2-Pf-HR :0.55541: L2-HR :0.67202: (Sim:2h6m4s) 
CPU  0 inst: 1364000005 cyc: 1711268564 now IPC :1.78892: AVG IPC :0.79636: L2-Pf-HR :0.55560: L2-HR :0.67214: (Sim:2h6m8s) 
CPU  0 inst: 1365000003 cyc: 1711868827 now IPC :1.66593: AVG IPC :0.79667: L2-Pf-HR :0.55570: L2-HR :0.67221: (Sim:2h6m12s) 
CPU  0 inst: 1366000000 cyc: 1712346752 now IPC :2.09237: AVG IPC :0.79703: L2-Pf-HR :0.55591: L2-HR :0.67235: (Sim:2h6m16s) 
CPU  0 inst: 1367000003 cyc: 1712955990 now IPC :1.64140: AVG IPC :0.79733: L2-Pf-HR :0.55600: L2-HR :0.67242: (Sim:2h6m19s) 
CPU  0 inst: 1368000000 cyc: 1713518607 now IPC :1.77740: AVG IPC :0.79765: L2-Pf-HR :0.55619: L2-HR :0.67255: (Sim:2h6m23s) 
CPU  0 inst: 1369000004 cyc: 1714118737 now IPC :1.66631: AVG IPC :0.79796: L2-Pf-HR :0.55630: L2-HR :0.67262: (Sim:2h6m27s) 
CPU  0 inst: 1370000000 cyc: 1714590871 now IPC :2.11803: AVG IPC :0.79832: L2-Pf-HR :0.55647: L2-HR :0.67274: (Sim:2h6m31s) 
CPU  0 inst: 1371000001 cyc: 1715209872 now IPC :1.61551: AVG IPC :0.79862: L2-Pf-HR :0.55659: L2-HR :0.67282: (Sim:2h6m35s) 
CPU  0 inst: 1372000001 cyc: 1715766669 now IPC :1.79599: AVG IPC :0.79894: L2-Pf-HR :0.55679: L2-HR :0.67295: (Sim:2h6m39s) 
CPU  0 inst: 1373000005 cyc: 1716358367 now IPC :1.69006: AVG IPC :0.79925: L2-Pf-HR :0.55690: L2-HR :0.67303: (Sim:2h6m43s) 
CPU  0 inst: 1374000000 cyc: 1716841139 now IPC :2.07136: AVG IPC :0.79961: L2-Pf-HR :0.55706: L2-HR :0.67314: (Sim:2h6m47s) 
CPU  0 inst: 1375000001 cyc: 1717451010 now IPC :1.63969: AVG IPC :0.79990: L2-Pf-HR :0.55719: L2-HR :0.67323: (Sim:2h6m50s) 
CPU  0 inst: 1376000000 cyc: 1717947415 now IPC :2.01448: AVG IPC :0.80026: L2-Pf-HR :0.55744: L2-HR :0.67337: (Sim:2h6m54s) 
CPU  0 inst: 1377000004 cyc: 1718479253 now IPC :1.88028: AVG IPC :0.80059: L2-Pf-HR :0.55761: L2-HR :0.67349: (Sim:2h6m58s) 
CPU  0 inst: 1378000000 cyc: 1719073964 now IPC :1.68148: AVG IPC :0.80089: L2-Pf-HR :0.55788: L2-HR :0.67365: (Sim:2h7m2s) 
CPU  0 inst: 1379000001 cyc: 1719775378 now IPC :1.42569: AVG IPC :0.80115: L2-Pf-HR :0.55798: L2-HR :0.67371: (Sim:2h7m6s) 
CPU  0 inst: 1380000002 cyc: 1720293344 now IPC :1.93063: AVG IPC :0.80149: L2-Pf-HR :0.55820: L2-HR :0.67383: (Sim:2h7m10s) 
CPU  0 inst: 1381000005 cyc: 1720927660 now IPC :1.57651: AVG IPC :0.80178: L2-Pf-HR :0.55821: L2-HR :0.67387: (Sim:2h7m14s) 
CPU  0 inst: 1382000005 cyc: 1721532280 now IPC :1.65393: AVG IPC :0.80208: L2-Pf-HR :0.55836: L2-HR :0.67397: (Sim:2h7m18s) 
CPU  0 inst: 1383000003 cyc: 1722148726 now IPC :1.62220: AVG IPC :0.80237: L2-Pf-HR :0.55844: L2-HR :0.67402: (Sim:2h7m22s) 
CPU  0 inst: 1384000000 cyc: 1722626099 now IPC :2.09479: AVG IPC :0.80273: L2-Pf-HR :0.55864: L2-HR :0.67415: (Sim:2h7m26s) 
CPU  0 inst: 1385000003 cyc: 1723239318 now IPC :1.63074: AVG IPC :0.80302: L2-Pf-HR :0.55873: L2-HR :0.67423: (Sim:2h7m30s) 
CPU  0 inst: 1386000000 cyc: 1723798530 now IPC :1.78823: AVG IPC :0.80334: L2-Pf-HR :0.55892: L2-HR :0.67435: (Sim:2h7m34s) 
CPU  0 inst: 1387000002 cyc: 1724402323 now IPC :1.65620: AVG IPC :0.80364: L2-Pf-HR :0.55902: L2-HR :0.67442: (Sim:2h7m38s) 
CPU  0 inst: 1388000002 cyc: 1724877457 now IPC :2.10467: AVG IPC :0.80400: L2-Pf-HR :0.55919: L2-HR :0.67453: (Sim:2h7m41s) 
CPU  0 inst: 1389000003 cyc: 1725498033 now IPC :1.61141: AVG IPC :0.80429: L2-Pf-HR :0.55931: L2-HR :0.67462: (Sim:2h7m45s) 
CPU  0 inst: 1390000001 cyc: 1726052013 now IPC :1.80512: AVG IPC :0.80461: L2-Pf-HR :0.55950: L2-HR :0.67474: (Sim:2h7m49s) 
CPU  0 inst: 1391000000 cyc: 1726637277 now IPC :1.70863: AVG IPC :0.80492: L2-Pf-HR :0.55962: L2-HR :0.67482: (Sim:2h7m53s) 
CPU  0 inst: 1392000000 cyc: 1727132739 now IPC :2.01832: AVG IPC :0.80527: L2-Pf-HR :0.55976: L2-HR :0.67492: (Sim:2h7m57s) 
CPU  0 inst: 1393000002 cyc: 1727752436 now IPC :1.61370: AVG IPC :0.80556: L2-Pf-HR :0.55989: L2-HR :0.67501: (Sim:2h8m1s) 
CPU  0 inst: 1394000000 cyc: 1728240529 now IPC :2.04879: AVG IPC :0.80591: L2-Pf-HR :0.56014: L2-HR :0.67515: (Sim:2h8m4s) 
CPU  0 inst: 1395000002 cyc: 1728780144 now IPC :1.85318: AVG IPC :0.80623: L2-Pf-HR :0.56029: L2-HR :0.67526: (Sim:2h8m8s) 
CPU  0 inst: 1396000001 cyc: 1729375141 now IPC :1.68068: AVG IPC :0.80654: L2-Pf-HR :0.56033: L2-HR :0.67532: (Sim:2h8m12s) 
CPU  0 inst: 1397000003 cyc: 1729986903 now IPC :1.63463: AVG IPC :0.80683: L2-Pf-HR :0.56046: L2-HR :0.67541: (Sim:2h8m16s) 
CPU  0 inst: 1398000005 cyc: 1730455743 now IPC :2.13293: AVG IPC :0.80719: L2-Pf-HR :0.56066: L2-HR :0.67553: (Sim:2h8m20s) 
CPU  0 inst: 1399000002 cyc: 1731003557 now IPC :1.82543: AVG IPC :0.80751: L2-Pf-HR :0.56082: L2-HR :0.67565: (Sim:2h8m24s) 
CPU  0 inst: 1400000000 cyc: 1731608062 now IPC :1.65424: AVG IPC :0.80781: L2-Pf-HR :0.56112: L2-HR :0.67580: (Sim:2h8m28s) 
CPU  0 inst: 1401000002 cyc: 1732298455 now IPC :1.44845: AVG IPC :0.80806: L2-Pf-HR :0.56125: L2-HR :0.67588: (Sim:2h8m32s) 
CPU  0 inst: 1402000005 cyc: 1732810101 now IPC :1.95448: AVG IPC :0.80840: L2-Pf-HR :0.56140: L2-HR :0.67598: (Sim:2h8m36s) 
CPU  0 inst: 1403000000 cyc: 1733451659 now IPC :1.55870: AVG IPC :0.80868: L2-Pf-HR :0.56147: L2-HR :0.67603: (Sim:2h8m39s) 
CPU  0 inst: 1404000003 cyc: 1734048160 now IPC :1.67645: AVG IPC :0.80898: L2-Pf-HR :0.56162: L2-HR :0.67613: (Sim:2h8m43s) 
CPU  0 inst: 1405000005 cyc: 1734662341 now IPC :1.62819: AVG IPC :0.80927: L2-Pf-HR :0.56170: L2-HR :0.67618: (Sim:2h8m47s) 
CPU  0 inst: 1406000003 cyc: 1735134477 now IPC :2.11803: AVG IPC :0.80962: L2-Pf-HR :0.56186: L2-HR :0.67629: (Sim:2h8m51s) 
CPU  0 inst: 1407000001 cyc: 1735749420 now IPC :1.62616: AVG IPC :0.80991: L2-Pf-HR :0.56198: L2-HR :0.67638: (Sim:2h8m55s) 
CPU  0 inst: 1408000000 cyc: 1736294802 now IPC :1.83358: AVG IPC :0.81023: L2-Pf-HR :0.56216: L2-HR :0.67649: (Sim:2h8m59s) 
CPU  0 inst: 1409000004 cyc: 1736866182 now IPC :1.75016: AVG IPC :0.81054: L2-Pf-HR :0.56229: L2-HR :0.67658: (Sim:2h9m2s) 
CPU  0 inst: 1410000004 cyc: 1737366737 now IPC :1.99778: AVG IPC :0.81089: L2-Pf-HR :0.56242: L2-HR :0.67667: (Sim:2h9m6s) 
CPU  0 inst: 1411000005 cyc: 1737980878 now IPC :1.62829: AVG IPC :0.81118: L2-Pf-HR :0.56254: L2-HR :0.67676: (Sim:2h9m10s) 
CPU  0 inst: 1412000005 cyc: 1738464429 now IPC :2.06803: AVG IPC :0.81153: L2-Pf-HR :0.56280: L2-HR :0.67690: (Sim:2h9m14s) 
CPU  0 inst: 1413000001 cyc: 1739000406 now IPC :1.86574: AVG IPC :0.81185: L2-Pf-HR :0.56294: L2-HR :0.67701: (Sim:2h9m18s) 
CPU  0 inst: 1414000004 cyc: 1739596414 now IPC :1.67783: AVG IPC :0.81215: L2-Pf-HR :0.56298: L2-HR :0.67705: (Sim:2h9m22s) 
CPU  0 inst: 1415000002 cyc: 1740209914 now IPC :1.62999: AVG IPC :0.81244: L2-Pf-HR :0.56309: L2-HR :0.67714: (Sim:2h9m26s) 
CPU  0 inst: 1416000000 cyc: 1740678743 now IPC :2.13297: AVG IPC :0.81279: L2-Pf-HR :0.56329: L2-HR :0.67726: (Sim:2h9m29s) 
CPU  0 inst: 1417000000 cyc: 1741220855 now IPC :1.84464: AVG IPC :0.81311: L2-Pf-HR :0.56345: L2-HR :0.67737: (Sim:2h9m33s) 
CPU  0 inst: 1418000005 cyc: 1741820639 now IPC :1.66728: AVG IPC :0.81341: L2-Pf-HR :0.56352: L2-HR :0.67743: (Sim:2h9m37s) 
CPU  0 inst: 1419000001 cyc: 1742431308 now IPC :1.63754: AVG IPC :0.81370: L2-Pf-HR :0.56365: L2-HR :0.67753: (Sim:2h9m41s) 
CPU  0 inst: 1420000000 cyc: 1742894406 now IPC :2.15937: AVG IPC :0.81405: L2-Pf-HR :0.56382: L2-HR :0.67764: (Sim:2h9m45s) 
CPU  0 inst: 1421000001 cyc: 1743438650 now IPC :1.83741: AVG IPC :0.81437: L2-Pf-HR :0.56400: L2-HR :0.67776: (Sim:2h9m49s) 
CPU  0 inst: 1422000004 cyc: 1744041672 now IPC :1.65832: AVG IPC :0.81467: L2-Pf-HR :0.56427: L2-HR :0.67789: (Sim:2h9m53s) 
CPU  0 inst: 1423000000 cyc: 1744714402 now IPC :1.48647: AVG IPC :0.81492: L2-Pf-HR :0.56443: L2-HR :0.67799: (Sim:2h9m57s) 
CPU  0 inst: 1424000000 cyc: 1745225942 now IPC :1.95488: AVG IPC :0.81526: L2-Pf-HR :0.56455: L2-HR :0.67807: (Sim:2h10m1s) 
CPU  0 inst: 1425000004 cyc: 1745884848 now IPC :1.51767: AVG IPC :0.81552: L2-Pf-HR :0.56463: L2-HR :0.67813: (Sim:2h10m4s) 
CPU  0 inst: 1426000001 cyc: 1746477559 now IPC :1.68716: AVG IPC :0.81582: L2-Pf-HR :0.56478: L2-HR :0.67823: (Sim:2h10m8s) 
CPU  0 inst: 1427000004 cyc: 1747062635 now IPC :1.70918: AVG IPC :0.81612: L2-Pf-HR :0.56489: L2-HR :0.67830: (Sim:2h10m12s) 
CPU  0 inst: 1428000001 cyc: 1747569157 now IPC :1.97424: AVG IPC :0.81646: L2-Pf-HR :0.56501: L2-HR :0.67838: (Sim:2h10m16s) 
CPU  0 inst: 1429000001 cyc: 1748191187 now IPC :1.60764: AVG IPC :0.81674: L2-Pf-HR :0.56512: L2-HR :0.67846: (Sim:2h10m20s) 
CPU  0 inst: 1430000003 cyc: 1748670941 now IPC :2.08441: AVG IPC :0.81709: L2-Pf-HR :0.56536: L2-HR :0.67860: (Sim:2h10m23s) 
CPU  0 inst: 1431000003 cyc: 1749216077 now IPC :1.83440: AVG IPC :0.81740: L2-Pf-HR :0.56550: L2-HR :0.67870: (Sim:2h10m27s) 
CPU  0 inst: 1432000000 cyc: 1749808175 now IPC :1.68890: AVG IPC :0.81770: L2-Pf-HR :0.56555: L2-HR :0.67875: (Sim:2h10m31s) 
CPU  0 inst: 1433000003 cyc: 1750432923 now IPC :1.60065: AVG IPC :0.81798: L2-Pf-HR :0.56566: L2-HR :0.67883: (Sim:2h10m35s) 
