TRACE: [21000000]_FE_[Pythia-70M]_[h8]_[s256]_[d64] Warmup: 2000000 NumTraces: 21000000
L1:next_line:L2:029-SecTOP-L2-MultiMarkovDelta_ip_stride_v4
*************************************************
   ChampSim Multicore Out-of-Order Simulator
   Last compiled: Oct 21 2024 08:08:12
*************************************************

trace_0 770-tot_memTraces_v3/memTraces[21000000]_FE_[Pythia-70M]_[h8]_[s256]_[d64].champsim.xz
CPU 0 L1D next line prefetcher
MK1: Size: 128 TMAX: 64 TMIN: 32 MKPTHRESH: 20
MK2: Size: 256 TMAX: 32 TMIN: 16 MKPTHRESH: 20
MK3: Size: 384 TMAX: 16 TMIN: 8 MKPTHRESH: 20
MK4: Size: 512 TMAX: 8 TMIN: 0 MKPTHRESH: 15
Stride Size: 512 Prefetch Degree: 14

CPU 0 L2C prefetcher
MAIN.cc ln 751 stats print skipped
CPU 0 L2C prefetcher initialized


Cache Size: 512
number of cache lines: 8192
CPU  0 inst:    1000001 cyc:     502838 now IPC :1.98871: AVG IPC :1.98871: L2-Pf-HR :0.87691: L2-HR :0.85526: (Sim:0h0m3s) 
CPU  0 inst:    2000003 cyc:     981825 now IPC :2.08774: AVG IPC :2.03703: L2-Pf-HR :0.90845: L2-HR :0.89456: (Sim:0h0m5s) 

Warmup complete CPU  0 instructions:    2000003 cycles:     981825 (Simulation time: 0 hr 0 min 5 sec) 

CPU  0 inst:    3000001 cyc:    1569251 now IPC :1.70234: AVG IPC :1.70234: L2-Pf-HR :0.93547: L2-HR :0.93198: (Sim:0h0m8s) 
CPU  0 inst:    4000000 cyc:    2147905 now IPC :1.72815: AVG IPC :1.71515: L2-Pf-HR :0.93718: L2-HR :0.93377: (Sim:0h0m11s) 
CPU  0 inst:    5000000 cyc:    2730438 now IPC :1.71664: AVG IPC :1.71564: L2-Pf-HR :0.93803: L2-HR :0.93474: (Sim:0h0m13s) 
CPU  0 inst:    6000003 cyc:    3330995 now IPC :1.66513: AVG IPC :1.70273: L2-Pf-HR :0.94035: L2-HR :0.93667: (Sim:0h0m16s) 
CPU  0 inst:    7000000 cyc:    3947828 now IPC :1.62118: AVG IPC :1.68577: L2-Pf-HR :0.94153: L2-HR :0.93777: (Sim:0h0m19s) 
CPU  0 inst:    8000000 cyc:    4576781 now IPC :1.58994: AVG IPC :1.66900: L2-Pf-HR :0.94226: L2-HR :0.93836: (Sim:0h0m22s) 
CPU  0 inst:    9000000 cyc:    7003839 now IPC :0.41202: AVG IPC :1.16240: L2-Pf-HR :0.89137: L2-HR :0.89458: (Sim:0h0m26s) 
CPU  0 inst:   10000000 cyc:   10427852 now IPC :0.29205: AVG IPC :0.84692: L2-Pf-HR :0.87712: L2-HR :0.88260: (Sim:0h0m31s) 
CPU  0 inst:   11000000 cyc:   13852315 now IPC :0.29202: AVG IPC :0.69927: L2-Pf-HR :0.86447: L2-HR :0.87206: (Sim:0h0m37s) 
CPU  0 inst:   12000000 cyc:   17275741 now IPC :0.29211: AVG IPC :0.61373: L2-Pf-HR :0.85390: L2-HR :0.86326: (Sim:0h0m42s) 
CPU  0 inst:   13000000 cyc:   20698762 now IPC :0.29214: AVG IPC :0.55790: L2-Pf-HR :0.84459: L2-HR :0.85554: (Sim:0h0m47s) 
CPU  0 inst:   14000002 cyc:   21647689 now IPC :1.05382: AVG IPC :0.58067: L2-Pf-HR :0.87801: L2-HR :0.88318: (Sim:0h0m51s) 
CPU  0 inst:   15000003 cyc:   22358617 now IPC :1.40661: AVG IPC :0.60814: L2-Pf-HR :0.90005: L2-HR :0.90285: (Sim:0h0m54s) 
CPU  0 inst:   16000000 cyc:   23062120 now IPC :1.42145: AVG IPC :0.63405: L2-Pf-HR :0.91444: L2-HR :0.91598: (Sim:0h0m58s) 
CPU  0 inst:   17000002 cyc:   23753210 now IPC :1.44699: AVG IPC :0.65872: L2-Pf-HR :0.92468: L2-HR :0.92548: (Sim:0h1m2s) 
CPU  0 inst:   18000001 cyc:   24430919 now IPC :1.47556: AVG IPC :0.68233: L2-Pf-HR :0.93249: L2-HR :0.93282: (Sim:0h1m5s) 
Finished CPU 0 instr: 16000002 cyc: 23449095 AVG IPC: 0.68233 (Sim time: 0h1m5s)

ChampSim completed all CPUs

[ROI Statistics]
Core_0_instructions 16000002
Core_0_cycles 23449095
Core_0_IPC 0.68233

Core_0_branch_prediction_accuracy 98.24557
Core_0_branch_MPKI 0.63131
Core_0_average_ROB_occupancy_at_mispredict 187.80824

Core_0_L1D_total_access 11490495
Core_0_L1D_total_hit 10688479 L1D_total_Hit Ratio: 0.93020
Core_0_L1D_total_miss 802016
Core_0_L1D_loads 4325129
Core_0_L1D_load_hit 3980720 L1D_load_Hit Ratio: 0.92037
Core_0_L1D_load_miss 344409
Core_0_L1D_RFOs 562035
Core_0_L1D_RFO_hit 536564 L1D_RFO_Hit Ratio: 0.95468
Core_0_L1D_RFO_miss 25471
Core_0_L1D_prefetches 6603331
Core_0_L1D_prefetch_hit 6171195 L1D_prefetch_Hit Ratio: 0.93456
Core_0_L1D_prefetch_miss 432136
Core_0_L1D_writebacks 0
Core_0_L1D_writeback_hit 0 L1D_writeback_Hit Ratio: -nan
Core_0_L1D_writeback_miss 0
Core_0_L1D_prefetch_requested 15062112
Core_0_L1D_prefetch_issued 8324840
Core_0_L1D_prefetch_useful 215953 L1D_Useful Ratio: 0.02594
Core_0_L1D_prefetch_useless 243924
Core_0_L1D_prefetch_late 50697
Core_0_L1D_average_miss_latency 712074.18912

Core_0_L1I_total_access 4064053
Core_0_L1I_total_hit 4059346 L1I_total_Hit Ratio: 0.99884
Core_0_L1I_total_miss 4707
Core_0_L1I_loads 4064053
Core_0_L1I_load_hit 4059346 L1I_load_Hit Ratio: 0.99884
Core_0_L1I_load_miss 4707
Core_0_L1I_RFOs 0
Core_0_L1I_RFO_hit 0 L1I_RFO_Hit Ratio: -nan
Core_0_L1I_RFO_miss 0
Core_0_L1I_prefetches 0
Core_0_L1I_prefetch_hit 0 L1I_prefetch_Hit Ratio: -nan
Core_0_L1I_prefetch_miss 0
Core_0_L1I_writebacks 0
Core_0_L1I_writeback_hit 0 L1I_writeback_Hit Ratio: -nan
Core_0_L1I_writeback_miss 0
Core_0_L1I_prefetch_requested 0
Core_0_L1I_prefetch_issued 0
Core_0_L1I_prefetch_useful 0 L1I_Useful Ratio: -nan
Core_0_L1I_prefetch_useless 0
Core_0_L1I_prefetch_late 0
Core_0_L1I_average_miss_latency 337.91927

Core_0_L2C_total_access 2638062
Core_0_L2C_total_hit 2460838 L2C_total_Hit Ratio: 0.93282
Core_0_L2C_total_miss 177224
Core_0_L2C_loads 299064
Core_0_L2C_load_hit 277783 L2C_load_Hit Ratio: 0.92884
Core_0_L2C_load_miss 21281
Core_0_L2C_RFOs 25463
Core_0_L2C_RFO_hit 18173 L2C_RFO_Hit Ratio: 0.71370
Core_0_L2C_RFO_miss 7290
Core_0_L2C_prefetches 2201367
Core_0_L2C_prefetch_hit 2052752 L2C_prefetch_Hit Ratio: 0.93249
Core_0_L2C_prefetch_miss 148615
Core_0_L2C_writebacks 112168
Core_0_L2C_writeback_hit 112130 L2C_writeback_Hit Ratio: 0.99966
Core_0_L2C_writeback_miss 38
Core_0_L2C_prefetch_requested 7470171
Core_0_L2C_prefetch_issued 3309384
Core_0_L2C_prefetch_useful 54712 L2C_Useful Ratio: 0.01653
Core_0_L2C_prefetch_useless 103909
Core_0_L2C_prefetch_late 1381
Core_0_L2C_average_miss_latency 325.39354

Core_0_LLC_total_access 280567
Core_0_LLC_total_hit 105692 LLC_total_Hit Ratio: 0.37671
Core_0_LLC_total_miss 174875
Core_0_LLC_loads 19914
Core_0_LLC_load_hit 646 LLC_load_Hit Ratio: 0.03244
Core_0_LLC_load_miss 19268
Core_0_LLC_RFOs 7290
Core_0_LLC_RFO_hit 21 LLC_RFO_Hit Ratio: 0.00288
Core_0_LLC_RFO_miss 7269
Core_0_LLC_prefetches 152967
Core_0_LLC_prefetch_hit 5787 LLC_prefetch_Hit Ratio: 0.03783
Core_0_LLC_prefetch_miss 147180
Core_0_LLC_writebacks 100396
Core_0_LLC_writeback_hit 99238 LLC_writeback_Hit Ratio: 0.98847
Core_0_LLC_writeback_miss 1158
Core_0_LLC_prefetch_requested 0
Core_0_LLC_prefetch_issued 0
Core_0_LLC_prefetch_useful 487 LLC_Useful Ratio: inf
Core_0_LLC_prefetch_useless 134367
Core_0_LLC_prefetch_late 990
Core_0_LLC_average_miss_latency 311.28742

Core_0_major_page_fault 0
Core_0_minor_page_fault 2382

CPU 0 L1D next line prefetcher final stats
CPU 0 L2C PC-based stride prefetcher final stats
Stride Degree: 14
MK1  MARKOV_LRU_SIZE: 128
MK1  MARKOV_PREDICTION_PERCENTTHRESHOLD: 20.00000
MK1  OUTLIERS_THRESHOLD_Max: 64
MK1  OUTLIERS_THRESHOLD_Min: 32
MK2  MARKOV_LRU_SIZE: 512
MK2  MARKOV_PREDICTION_PERCENTTHRESHOLD: 15.00000
MK2  OUTLIERS_THRESHOLD_Max: 8
MK2  OUTLIERS_THRESHOLD_Min: 0
MK3  MARKOV_LRU_SIZE: 384
MK3  MARKOV_PREDICTION_PERCENTTHRESHOLD: 20.00000
MK3  OUTLIERS_THRESHOLD_Max: 16
MK3  OUTLIERS_THRESHOLD_Min: 8
MK4  MARKOV_LRU_SIZE: 512
MK4  MARKOV_PREDICTION_PERCENTTHRESHOLD: 15.00000
MK4  OUTLIERS_THRESHOLD_Max: 8
MK4  OUTLIERS_THRESHOLD_Min: 0
IPStride Degree/Access Ratio: 3.46978
MK1 IPDEltaMarkov  Degree/Access Ratio: 1.10921
MK2 IPDEltaMarkov  Degree/Access Ratio: 1.88693
MK3 IPDEltaMarkov  Degree/Access Ratio: 1.41239
MK4 IPDEltaMarkov  Degree/Access Ratio: 1.90549
Channel_0_RQ_row_buffer_hit 89999
Channel_0_RQ_row_buffer_miss 83719
Channel_0_WQ_row_buffer_hit 30151
Channel_0_WQ_row_buffer_miss 68920
Channel_0_WQ_full 0
Channel_0_dbus_congested 192260

avg_congested_cycle 11

EzSearch AVG IPC :0.68233: L2-Pf-HR :0.93249 : L2-HR :0.93282 Uful:0.01653
     > Finished combination: TraceType=770-tot Sim:16000000 Prefetcher=L2029-SecTOP-L2-MultiMarkovDelta_ip_stride_v4 L1=next_line
