TRACE: [298000000][GPT-Neo_1_3B]_[h16][s512][d128] Warmup: 2000000 NumTraces: 298000000
L1:next_line:L2:029-SecTOP-L2-MultiMarkovDelta_ip_stride_v4
*************************************************
   ChampSim Multicore Out-of-Order Simulator
   Last compiled: Oct 21 2024 08:08:12
*************************************************

trace_0 770-tot_memTraces_v3/memTraces[298000000][GPT-Neo_1_3B]_[h16][s512][d128].champsim.xz
CPU 0 L1D next line prefetcher
MK1: Size: 128 TMAX: 64 TMIN: 32 MKPTHRESH: 20
MK2: Size: 256 TMAX: 32 TMIN: 16 MKPTHRESH: 20
MK3: Size: 384 TMAX: 16 TMIN: 8 MKPTHRESH: 20
MK4: Size: 512 TMAX: 8 TMIN: 0 MKPTHRESH: 15
Stride Size: 512 Prefetch Degree: 14

CPU 0 L2C prefetcher
MAIN.cc ln 751 stats print skipped
CPU 0 L2C prefetcher initialized


Cache Size: 512
number of cache lines: 8192
CPU  0 inst:    1000003 cyc:     502036 now IPC :1.99189: AVG IPC :1.99189: L2-Pf-HR :0.78907: L2-HR :0.76781: (Sim:0h0m2s) 
CPU  0 inst:    2000001 cyc:     978706 now IPC :2.09788: AVG IPC :2.04352: L2-Pf-HR :0.81840: L2-HR :0.79677: (Sim:0h0m5s) 

Warmup complete CPU  0 instructions:    2000001 cycles:     978706 (Simulation time: 0 hr 0 min 5 sec) 

CPU  0 inst:    3000003 cyc:    1521197 now IPC :1.84335: AVG IPC :1.84335: L2-Pf-HR :0.82828: L2-HR :0.81389: (Sim:0h0m8s) 
CPU  0 inst:    4000000 cyc:    2054871 now IPC :1.87380: AVG IPC :1.85845: L2-Pf-HR :0.83151: L2-HR :0.81689: (Sim:0h0m10s) 
CPU  0 inst:    5000003 cyc:    2594258 now IPC :1.85396: AVG IPC :1.85695: L2-Pf-HR :0.83813: L2-HR :0.82301: (Sim:0h0m13s) 
CPU  0 inst:    6000003 cyc:    3143932 now IPC :1.81926: AVG IPC :1.84738: L2-Pf-HR :0.84505: L2-HR :0.82916: (Sim:0h0m16s) 
CPU  0 inst:    7000000 cyc:    3718185 now IPC :1.74139: AVG IPC :1.82516: L2-Pf-HR :0.86043: L2-HR :0.84739: (Sim:0h0m18s) 
CPU  0 inst:    8000000 cyc:    4233035 now IPC :1.94231: AVG IPC :1.84370: L2-Pf-HR :0.87793: L2-HR :0.86713: (Sim:0h0m21s) 
CPU  0 inst:    9000003 cyc:    4922278 now IPC :1.45087: AVG IPC :1.77504: L2-Pf-HR :0.87117: L2-HR :0.86022: (Sim:0h0m24s) 
CPU  0 inst:   10000001 cyc:    5463480 now IPC :1.84774: AVG IPC :1.78381: L2-Pf-HR :0.86913: L2-HR :0.85744: (Sim:0h0m26s) 
CPU  0 inst:   11000003 cyc:    6010257 now IPC :1.82890: AVG IPC :1.78871: L2-Pf-HR :0.86753: L2-HR :0.85527: (Sim:0h0m29s) 
CPU  0 inst:   12000000 cyc:    6552157 now IPC :1.84535: AVG IPC :1.79422: L2-Pf-HR :0.86576: L2-HR :0.85318: (Sim:0h0m32s) 
CPU  0 inst:   13000003 cyc:    7107167 now IPC :1.80177: AVG IPC :1.79490: L2-Pf-HR :0.86501: L2-HR :0.85216: (Sim:0h0m34s) 
CPU  0 inst:   14000000 cyc:    7655608 now IPC :1.82334: AVG IPC :1.79724: L2-Pf-HR :0.86569: L2-HR :0.85232: (Sim:0h0m37s) 
CPU  0 inst:   15000000 cyc:    8256452 now IPC :1.66433: AVG IPC :1.78627: L2-Pf-HR :0.86989: L2-HR :0.85727: (Sim:0h0m40s) 
CPU  0 inst:   16000000 cyc:    8778104 now IPC :1.91699: AVG IPC :1.79501: L2-Pf-HR :0.87634: L2-HR :0.86461: (Sim:0h0m42s) 
CPU  0 inst:   17000002 cyc:    9499738 now IPC :1.38575: AVG IPC :1.76035: L2-Pf-HR :0.87397: L2-HR :0.86232: (Sim:0h0m45s) 
CPU  0 inst:   18000001 cyc:   10045377 now IPC :1.83271: AVG IPC :1.76471: L2-Pf-HR :0.87344: L2-HR :0.86145: (Sim:0h0m48s) 
CPU  0 inst:   19000000 cyc:   10589856 now IPC :1.83662: AVG IPC :1.76878: L2-Pf-HR :0.87226: L2-HR :0.86001: (Sim:0h0m51s) 
CPU  0 inst:   20000000 cyc:   11138221 now IPC :1.82360: AVG IPC :1.77174: L2-Pf-HR :0.87119: L2-HR :0.85872: (Sim:0h0m53s) 
CPU  0 inst:   21000003 cyc:   11689111 now IPC :1.81525: AVG IPC :1.77398: L2-Pf-HR :0.87069: L2-HR :0.85801: (Sim:0h0m56s) 
CPU  0 inst:   22000000 cyc:   12236098 now IPC :1.82819: AVG IPC :1.77661: L2-Pf-HR :0.87069: L2-HR :0.85771: (Sim:0h0m59s) 
CPU  0 inst:   23000001 cyc:   12839555 now IPC :1.65712: AVG IPC :1.77053: L2-Pf-HR :0.87276: L2-HR :0.86021: (Sim:0h1m1s) 
CPU  0 inst:   24000000 cyc:   13363025 now IPC :1.91033: AVG IPC :1.77644: L2-Pf-HR :0.87659: L2-HR :0.86460: (Sim:0h1m4s) 
CPU  0 inst:   25000002 cyc:   14089983 now IPC :1.37560: AVG IPC :1.75422: L2-Pf-HR :0.87516: L2-HR :0.86323: (Sim:0h1m7s) 
CPU  0 inst:   26000001 cyc:   14637122 now IPC :1.82769: AVG IPC :1.75716: L2-Pf-HR :0.87491: L2-HR :0.86272: (Sim:0h1m9s) 
CPU  0 inst:   27000003 cyc:   15181007 now IPC :1.83863: AVG IPC :1.76028: L2-Pf-HR :0.87425: L2-HR :0.86188: (Sim:0h1m12s) 
CPU  0 inst:   28000000 cyc:   15727932 now IPC :1.82840: AVG IPC :1.76280: L2-Pf-HR :0.87365: L2-HR :0.86109: (Sim:0h1m15s) 
CPU  0 inst:   29000003 cyc:   16280792 now IPC :1.80878: AVG IPC :1.76447: L2-Pf-HR :0.87334: L2-HR :0.86060: (Sim:0h1m17s) 
CPU  0 inst:   30000002 cyc:   16826374 now IPC :1.83290: AVG IPC :1.76682: L2-Pf-HR :0.87336: L2-HR :0.86044: (Sim:0h1m20s) 
CPU  0 inst:   31000002 cyc:   17430762 now IPC :1.65457: AVG IPC :1.76270: L2-Pf-HR :0.87457: L2-HR :0.86194: (Sim:0h1m23s) 
CPU  0 inst:   32000000 cyc:   17951262 now IPC :1.92123: AVG IPC :1.76756: L2-Pf-HR :0.87729: L2-HR :0.86508: (Sim:0h1m25s) 
CPU  0 inst:   33000003 cyc:   18671359 now IPC :1.38871: AVG IPC :1.75214: L2-Pf-HR :0.87644: L2-HR :0.86428: (Sim:0h1m28s) 
CPU  0 inst:   34000001 cyc:   19216356 now IPC :1.83487: AVG IPC :1.75461: L2-Pf-HR :0.87608: L2-HR :0.86375: (Sim:0h1m31s) 
CPU  0 inst:   35000000 cyc:   19756782 now IPC :1.85039: AVG IPC :1.75737: L2-Pf-HR :0.87563: L2-HR :0.86317: (Sim:0h1m34s) 
CPU  0 inst:   36000000 cyc:   20306512 now IPC :1.81907: AVG IPC :1.75912: L2-Pf-HR :0.87523: L2-HR :0.86263: (Sim:0h1m36s) 
CPU  0 inst:   37000003 cyc:   20849997 now IPC :1.83998: AVG IPC :1.76134: L2-Pf-HR :0.87484: L2-HR :0.86213: (Sim:0h1m39s) 
CPU  0 inst:   38000000 cyc:   21402395 now IPC :1.81028: AVG IPC :1.76266: L2-Pf-HR :0.87468: L2-HR :0.86182: (Sim:0h1m42s) 
CPU  0 inst:   39000000 cyc:   22007944 now IPC :1.65139: AVG IPC :1.75946: L2-Pf-HR :0.87566: L2-HR :0.86301: (Sim:0h1m44s) 
CPU  0 inst:   40000000 cyc:   22528283 now IPC :1.92182: AVG IPC :1.76338: L2-Pf-HR :0.87777: L2-HR :0.86546: (Sim:0h1m47s) 
CPU  0 inst:   41000003 cyc:   23251802 now IPC :1.38214: AVG IPC :1.75099: L2-Pf-HR :0.87708: L2-HR :0.86481: (Sim:0h1m50s) 
CPU  0 inst:   42000000 cyc:   23792395 now IPC :1.84981: AVG IPC :1.75333: L2-Pf-HR :0.87679: L2-HR :0.86441: (Sim:0h1m53s) 
CPU  0 inst:   43000002 cyc:   24340731 now IPC :1.82370: AVG IPC :1.75498: L2-Pf-HR :0.87646: L2-HR :0.86395: (Sim:0h1m55s) 
CPU  0 inst:   44000000 cyc:   24889434 now IPC :1.82248: AVG IPC :1.75653: L2-Pf-HR :0.87607: L2-HR :0.86343: (Sim:0h1m58s) 
CPU  0 inst:   45000001 cyc:   25431765 now IPC :1.84389: AVG IPC :1.75847: L2-Pf-HR :0.87583: L2-HR :0.86310: (Sim:0h2m0s) 
CPU  0 inst:   46000003 cyc:   25985651 now IPC :1.80543: AVG IPC :1.75951: L2-Pf-HR :0.87579: L2-HR :0.86293: (Sim:0h2m3s) 
CPU  0 inst:   47000003 cyc:   26591146 now IPC :1.65154: AVG IPC :1.75696: L2-Pf-HR :0.87633: L2-HR :0.86362: (Sim:0h2m6s) 
CPU  0 inst:   48000000 cyc:   27113801 now IPC :1.91330: AVG IPC :1.76009: L2-Pf-HR :0.87805: L2-HR :0.86561: (Sim:0h2m9s) 
CPU  0 inst:   49000003 cyc:   27827536 now IPC :1.40108: AVG IPC :1.75054: L2-Pf-HR :0.87754: L2-HR :0.86518: (Sim:0h2m11s) 
CPU  0 inst:   50000001 cyc:   28370384 now IPC :1.84213: AVG IPC :1.75236: L2-Pf-HR :0.87727: L2-HR :0.86480: (Sim:0h2m14s) 
CPU  0 inst:   51000002 cyc:   28917939 now IPC :1.82630: AVG IPC :1.75381: L2-Pf-HR :0.87691: L2-HR :0.86435: (Sim:0h2m17s) 
CPU  0 inst:   52000000 cyc:   29467214 now IPC :1.82058: AVG IPC :1.75509: L2-Pf-HR :0.87654: L2-HR :0.86390: (Sim:0h2m19s) 
CPU  0 inst:   53000003 cyc:   30008854 now IPC :1.84625: AVG IPC :1.75679: L2-Pf-HR :0.87622: L2-HR :0.86352: (Sim:0h2m22s) 
CPU  0 inst:   54000001 cyc:   30560714 now IPC :1.81205: AVG IPC :1.75783: L2-Pf-HR :0.87618: L2-HR :0.86336: (Sim:0h2m25s) 
CPU  0 inst:   55000000 cyc:   31174548 now IPC :1.62910: AVG IPC :1.75521: L2-Pf-HR :0.87672: L2-HR :0.86400: (Sim:0h2m28s) 
CPU  0 inst:   56000000 cyc:   31696521 now IPC :1.91581: AVG IPC :1.75794: L2-Pf-HR :0.87816: L2-HR :0.86569: (Sim:0h2m30s) 
CPU  0 inst:   57000001 cyc:   32417566 now IPC :1.38688: AVG IPC :1.74943: L2-Pf-HR :0.87769: L2-HR :0.86530: (Sim:0h2m33s) 
CPU  0 inst:   58000001 cyc:   32952242 now IPC :1.87029: AVG IPC :1.75145: L2-Pf-HR :0.87755: L2-HR :0.86507: (Sim:0h2m36s) 
CPU  0 inst:   59000000 cyc:   33500320 now IPC :1.82456: AVG IPC :1.75268: L2-Pf-HR :0.87734: L2-HR :0.86477: (Sim:0h2m38s) 
CPU  0 inst:   60000000 cyc:   34041780 now IPC :1.84686: AVG IPC :1.75422: L2-Pf-HR :0.87705: L2-HR :0.86441: (Sim:0h2m41s) 
CPU  0 inst:   61000003 cyc:   34588938 now IPC :1.82763: AVG IPC :1.75542: L2-Pf-HR :0.87685: L2-HR :0.86412: (Sim:0h2m44s) 
CPU  0 inst:   62000001 cyc:   35142005 now IPC :1.80810: AVG IPC :1.75627: L2-Pf-HR :0.87677: L2-HR :0.86395: (Sim:0h2m46s) 
CPU  0 inst:   63000000 cyc:   35750909 now IPC :1.64229: AVG IPC :1.75427: L2-Pf-HR :0.87714: L2-HR :0.86440: (Sim:0h2m49s) 
CPU  0 inst:   64000000 cyc:   36271485 now IPC :1.92095: AVG IPC :1.75673: L2-Pf-HR :0.87836: L2-HR :0.86582: (Sim:0h2m52s) 
CPU  0 inst:   65000002 cyc:   36990182 now IPC :1.39141: AVG IPC :1.74944: L2-Pf-HR :0.87802: L2-HR :0.86558: (Sim:0h2m55s) 
CPU  0 inst:   66000001 cyc:   37540034 now IPC :1.81867: AVG IPC :1.75048: L2-Pf-HR :0.87780: L2-HR :0.86526: (Sim:0h2m57s) 
CPU  0 inst:   67000003 cyc:   38083922 now IPC :1.83862: AVG IPC :1.75178: L2-Pf-HR :0.87758: L2-HR :0.86496: (Sim:0h3m0s) 
CPU  0 inst:   68000000 cyc:   38628609 now IPC :1.83591: AVG IPC :1.75299: L2-Pf-HR :0.87735: L2-HR :0.86466: (Sim:0h3m3s) 
CPU  0 inst:   69000003 cyc:   39176841 now IPC :1.82405: AVG IPC :1.75401: L2-Pf-HR :0.87723: L2-HR :0.86447: (Sim:0h3m5s) 
CPU  0 inst:   70000002 cyc:   39725244 now IPC :1.82347: AVG IPC :1.75500: L2-Pf-HR :0.87723: L2-HR :0.86439: (Sim:0h3m8s) 
CPU  0 inst:   71000000 cyc:   40330672 now IPC :1.65172: AVG IPC :1.75341: L2-Pf-HR :0.87742: L2-HR :0.86465: (Sim:0h3m11s) 
CPU  0 inst:   72000000 cyc:   40852400 now IPC :1.91671: AVG IPC :1.75554: L2-Pf-HR :0.87849: L2-HR :0.86590: (Sim:0h3m13s) 
CPU  0 inst:   73000003 cyc:   41559752 now IPC :1.41373: AVG IPC :1.74959: L2-Pf-HR :0.87826: L2-HR :0.86575: (Sim:0h3m16s) 
CPU  0 inst:   74000002 cyc:   42104647 now IPC :1.83521: AVG IPC :1.75072: L2-Pf-HR :0.87816: L2-HR :0.86558: (Sim:0h3m19s) 
CPU  0 inst:   75000002 cyc:   42652949 now IPC :1.82381: AVG IPC :1.75168: L2-Pf-HR :0.87802: L2-HR :0.86537: (Sim:0h3m22s) 
CPU  0 inst:   76000000 cyc:   43194049 now IPC :1.84808: AVG IPC :1.75292: L2-Pf-HR :0.87785: L2-HR :0.86513: (Sim:0h3m24s) 
CPU  0 inst:   77000003 cyc:   43743470 now IPC :1.82010: AVG IPC :1.75378: L2-Pf-HR :0.87771: L2-HR :0.86493: (Sim:0h3m27s) 
CPU  0 inst:   78000002 cyc:   44288947 now IPC :1.83326: AVG IPC :1.75478: L2-Pf-HR :0.87768: L2-HR :0.86483: (Sim:0h3m30s) 
CPU  0 inst:   79000001 cyc:   44901929 now IPC :1.63137: AVG IPC :1.75306: L2-Pf-HR :0.87788: L2-HR :0.86508: (Sim:0h3m32s) 
CPU  0 inst:   80000000 cyc:   45422968 now IPC :1.91924: AVG IPC :1.75501: L2-Pf-HR :0.87884: L2-HR :0.86621: (Sim:0h3m35s) 
CPU  0 inst:   81000003 cyc:   46136195 now IPC :1.40208: AVG IPC :1.74943: L2-Pf-HR :0.87864: L2-HR :0.86610: (Sim:0h3m38s) 
CPU  0 inst:   82000002 cyc:   46683492 now IPC :1.82716: AVG IPC :1.75036: L2-Pf-HR :0.87853: L2-HR :0.86592: (Sim:0h3m41s) 
CPU  0 inst:   83000003 cyc:   47222643 now IPC :1.85477: AVG IPC :1.75158: L2-Pf-HR :0.87838: L2-HR :0.86571: (Sim:0h3m43s) 
CPU  0 inst:   84000000 cyc:   47767239 now IPC :1.83622: AVG IPC :1.75257: L2-Pf-HR :0.87817: L2-HR :0.86545: (Sim:0h3m46s) 
CPU  0 inst:   85000000 cyc:   48319416 now IPC :1.81101: AVG IPC :1.75325: L2-Pf-HR :0.87801: L2-HR :0.86523: (Sim:0h3m49s) 
CPU  0 inst:   86000000 cyc:   48862039 now IPC :1.84290: AVG IPC :1.75426: L2-Pf-HR :0.87798: L2-HR :0.86514: (Sim:0h3m51s) 
CPU  0 inst:   87000001 cyc:   49473983 now IPC :1.63414: AVG IPC :1.75275: L2-Pf-HR :0.87816: L2-HR :0.86535: (Sim:0h3m54s) 
CPU  0 inst:   88000000 cyc:   49993331 now IPC :1.92549: AVG IPC :1.75458: L2-Pf-HR :0.87903: L2-HR :0.86638: (Sim:0h3m57s) 
CPU  0 inst:   89000003 cyc:   50699183 now IPC :1.41673: AVG IPC :1.74978: L2-Pf-HR :0.87892: L2-HR :0.86635: (Sim:0h4m0s) 
CPU  0 inst:   90000000 cyc:   51251728 now IPC :1.80980: AVG IPC :1.75044: L2-Pf-HR :0.87884: L2-HR :0.86621: (Sim:0h4m2s) 
CPU  0 inst:   91000000 cyc:   51791661 now IPC :1.85208: AVG IPC :1.75152: L2-Pf-HR :0.87864: L2-HR :0.86596: (Sim:0h4m5s) 
CPU  0 inst:   92000000 cyc:   52336579 now IPC :1.83514: AVG IPC :1.75241: L2-Pf-HR :0.87843: L2-HR :0.86569: (Sim:0h4m8s) 
CPU  0 inst:   93000000 cyc:   52878488 now IPC :1.84533: AVG IPC :1.75338: L2-Pf-HR :0.87825: L2-HR :0.86546: (Sim:0h4m10s) 
CPU  0 inst:   94000002 cyc:   53421415 now IPC :1.84187: AVG IPC :1.75430: L2-Pf-HR :0.87820: L2-HR :0.86536: (Sim:0h4m13s) 
CPU  0 inst:   95000001 cyc:   54037318 now IPC :1.62363: AVG IPC :1.75278: L2-Pf-HR :0.87834: L2-HR :0.86551: (Sim:0h4m16s) 
CPU  0 inst:   96000000 cyc:   54557483 now IPC :1.92246: AVG IPC :1.75443: L2-Pf-HR :0.87910: L2-HR :0.86641: (Sim:0h4m18s) 
CPU  0 inst:   97000003 cyc:   55276506 now IPC :1.39078: AVG IPC :1.74961: L2-Pf-HR :0.87904: L2-HR :0.86644: (Sim:0h4m21s) 
CPU  0 inst:   98000001 cyc:   55823805 now IPC :1.82715: AVG IPC :1.75038: L2-Pf-HR :0.87893: L2-HR :0.86625: (Sim:0h4m24s) 
CPU  0 inst:   99000003 cyc:   56362062 now IPC :1.85785: AVG IPC :1.75143: L2-Pf-HR :0.87879: L2-HR :0.86606: (Sim:0h4m27s) 
CPU  0 inst:  100000000 cyc:   56907525 now IPC :1.83330: AVG IPC :1.75223: L2-Pf-HR :0.87860: L2-HR :0.86583: (Sim:0h4m29s) 
CPU  0 inst:  101000001 cyc:   57448801 now IPC :1.84749: AVG IPC :1.75314: L2-Pf-HR :0.87843: L2-HR :0.86561: (Sim:0h4m32s) 
CPU  0 inst:  102000002 cyc:   57997640 now IPC :1.82203: AVG IPC :1.75380: L2-Pf-HR :0.87841: L2-HR :0.86554: (Sim:0h4m35s) 
CPU  0 inst:  103000003 cyc:   58610881 now IPC :1.63068: AVG IPC :1.75249: L2-Pf-HR :0.87850: L2-HR :0.86564: (Sim:0h4m37s) 
CPU  0 inst:  104000000 cyc:   59132629 now IPC :1.91663: AVG IPC :1.75397: L2-Pf-HR :0.87920: L2-HR :0.86647: (Sim:0h4m40s) 
CPU  0 inst:  105000001 cyc:   59848132 now IPC :1.39762: AVG IPC :1.74963: L2-Pf-HR :0.87920: L2-HR :0.86655: (Sim:0h4m43s) 
CPU  0 inst:  106000001 cyc:   60393745 now IPC :1.83280: AVG IPC :1.75040: L2-Pf-HR :0.87911: L2-HR :0.86640: (Sim:0h4m46s) 
CPU  0 inst:  107000003 cyc:   60938769 now IPC :1.83479: AVG IPC :1.75117: L2-Pf-HR :0.87895: L2-HR :0.86619: (Sim:0h4m48s) 
CPU  0 inst:  108000000 cyc:   61482510 now IPC :1.83911: AVG IPC :1.75196: L2-Pf-HR :0.87877: L2-HR :0.86597: (Sim:0h4m51s) 
CPU  0 inst:  109000000 cyc:   62022644 now IPC :1.85139: AVG IPC :1.75284: L2-Pf-HR :0.87863: L2-HR :0.86579: (Sim:0h4m54s) 
CPU  0 inst:  110000001 cyc:   62573259 now IPC :1.81615: AVG IPC :1.75340: L2-Pf-HR :0.87861: L2-HR :0.86572: (Sim:0h4m56s) 
CPU  0 inst:  111000000 cyc:   63189814 now IPC :1.62191: AVG IPC :1.75210: L2-Pf-HR :0.87866: L2-HR :0.86578: (Sim:0h4m59s) 
CPU  0 inst:  112000000 cyc:   63713144 now IPC :1.91084: AVG IPC :1.75342: L2-Pf-HR :0.87931: L2-HR :0.86655: (Sim:0h5m2s) 
CPU  0 inst:  113000001 cyc:   64427805 now IPC :1.39927: AVG IPC :1.74943: L2-Pf-HR :0.87929: L2-HR :0.86662: (Sim:0h5m4s) 
CPU  0 inst:  114000001 cyc:   64968731 now IPC :1.84868: AVG IPC :1.75027: L2-Pf-HR :0.87921: L2-HR :0.86648: (Sim:0h5m7s) 
CPU  0 inst:  115000000 cyc:   65515856 now IPC :1.82773: AVG IPC :1.75093: L2-Pf-HR :0.87908: L2-HR :0.86631: (Sim:0h5m10s) 
CPU  0 inst:  116000000 cyc:   66062203 now IPC :1.83034: AVG IPC :1.75160: L2-Pf-HR :0.87892: L2-HR :0.86611: (Sim:0h5m13s) 
CPU  0 inst:  117000001 cyc:   66600195 now IPC :1.85877: AVG IPC :1.75247: L2-Pf-HR :0.87879: L2-HR :0.86595: (Sim:0h5m15s) 
CPU  0 inst:  118000000 cyc:   67151538 now IPC :1.81375: AVG IPC :1.75299: L2-Pf-HR :0.87877: L2-HR :0.86588: (Sim:0h5m18s) 
CPU  0 inst:  119000001 cyc:   67764805 now IPC :1.63061: AVG IPC :1.75186: L2-Pf-HR :0.87879: L2-HR :0.86590: (Sim:0h5m21s) 
CPU  0 inst:  120000000 cyc:   68284590 now IPC :1.92387: AVG IPC :1.75319: L2-Pf-HR :0.87940: L2-HR :0.86662: (Sim:0h5m23s) 
CPU  0 inst:  121000001 cyc:   68993242 now IPC :1.41113: AVG IPC :1.74963: L2-Pf-HR :0.87936: L2-HR :0.86667: (Sim:0h5m26s) 
CPU  0 inst:  122000003 cyc:   69537325 now IPC :1.83796: AVG IPC :1.75033: L2-Pf-HR :0.87929: L2-HR :0.86654: (Sim:0h5m29s) 
CPU  0 inst:  123000002 cyc:   70084803 now IPC :1.82656: AVG IPC :1.75093: L2-Pf-HR :0.87916: L2-HR :0.86638: (Sim:0h5m31s) 
CPU  0 inst:  124000000 cyc:   70624039 now IPC :1.85447: AVG IPC :1.75173: L2-Pf-HR :0.87900: L2-HR :0.86618: (Sim:0h5m34s) 
CPU  0 inst:  125000002 cyc:   71168743 now IPC :1.83586: AVG IPC :1.75239: L2-Pf-HR :0.87891: L2-HR :0.86605: (Sim:0h5m37s) 
CPU  0 inst:  126000002 cyc:   71717029 now IPC :1.82387: AVG IPC :1.75294: L2-Pf-HR :0.87886: L2-HR :0.86596: (Sim:0h5m40s) 
CPU  0 inst:  127000003 cyc:   72326782 now IPC :1.64001: AVG IPC :1.75197: L2-Pf-HR :0.87888: L2-HR :0.86598: (Sim:0h5m42s) 
CPU  0 inst:  128000000 cyc:   72846934 now IPC :1.92251: AVG IPC :1.75321: L2-Pf-HR :0.87943: L2-HR :0.86664: (Sim:0h5m45s) 
CPU  0 inst:  129000003 cyc:   75146802 now IPC :0.43481: AVG IPC :1.71233: L2-Pf-HR :0.87689: L2-HR :0.86466: (Sim:0h5m49s) 
CPU  0 inst:  130000001 cyc:   81608337 now IPC :0.15476: AVG IPC :1.58751: L2-Pf-HR :0.86799: L2-HR :0.85778: (Sim:0h5m59s) 
CPU  0 inst:  131000001 cyc:   88079747 now IPC :0.15453: AVG IPC :1.48104: L2-Pf-HR :0.85928: L2-HR :0.85117: (Sim:0h6m9s) 
CPU  0 inst:  132000000 cyc:   91764256 now IPC :0.27141: AVG IPC :1.43195: L2-Pf-HR :0.85831: L2-HR :0.85009: (Sim:0h6m14s) 
CPU  0 inst:  133000000 cyc:   95286262 now IPC :0.28393: AVG IPC :1.38907: L2-Pf-HR :0.85782: L2-HR :0.84943: (Sim:0h6m20s) 
CPU  0 inst:  134000000 cyc:   98801287 now IPC :0.28449: AVG IPC :1.34938: L2-Pf-HR :0.85743: L2-HR :0.84886: (Sim:0h6m25s) 
CPU  0 inst:  135000002 cyc:  102315595 now IPC :0.28455: AVG IPC :1.31245: L2-Pf-HR :0.85705: L2-HR :0.84830: (Sim:0h6m31s) 
CPU  0 inst:  136000000 cyc:  105830792 now IPC :0.28448: AVG IPC :1.27799: L2-Pf-HR :0.85666: L2-HR :0.84774: (Sim:0h6m36s) 
CPU  0 inst:  137000000 cyc:  109346333 now IPC :0.28445: AVG IPC :1.24576: L2-Pf-HR :0.85626: L2-HR :0.84717: (Sim:0h6m42s) 
CPU  0 inst:  138000000 cyc:  112862883 now IPC :0.28437: AVG IPC :1.21554: L2-Pf-HR :0.85587: L2-HR :0.84661: (Sim:0h6m47s) 
CPU  0 inst:  139000000 cyc:  116377911 now IPC :0.28449: AVG IPC :1.18718: L2-Pf-HR :0.85549: L2-HR :0.84606: (Sim:0h6m53s) 
CPU  0 inst:  140000000 cyc:  119894156 now IPC :0.28439: AVG IPC :1.16049: L2-Pf-HR :0.85512: L2-HR :0.84552: (Sim:0h6m58s) 
CPU  0 inst:  141000002 cyc:  123410610 now IPC :0.28438: AVG IPC :1.13532: L2-Pf-HR :0.85474: L2-HR :0.84498: (Sim:0h7m4s) 
CPU  0 inst:  142000002 cyc:  126924667 now IPC :0.28457: AVG IPC :1.11159: L2-Pf-HR :0.85436: L2-HR :0.84444: (Sim:0h7m9s) 
CPU  0 inst:  143000001 cyc:  130437937 now IPC :0.28463: AVG IPC :1.08915: L2-Pf-HR :0.85402: L2-HR :0.84393: (Sim:0h7m14s) 
CPU  0 inst:  144000000 cyc:  133952391 now IPC :0.28454: AVG IPC :1.06788: L2-Pf-HR :0.85367: L2-HR :0.84342: (Sim:0h7m20s) 
CPU  0 inst:  145000000 cyc:  137468284 now IPC :0.28442: AVG IPC :1.04770: L2-Pf-HR :0.85330: L2-HR :0.84290: (Sim:0h7m25s) 
CPU  0 inst:  146000000 cyc:  140982745 now IPC :0.28454: AVG IPC :1.02854: L2-Pf-HR :0.85295: L2-HR :0.84239: (Sim:0h7m31s) 
CPU  0 inst:  147000000 cyc:  144498047 now IPC :0.28447: AVG IPC :1.01032: L2-Pf-HR :0.85259: L2-HR :0.84188: (Sim:0h7m36s) 
CPU  0 inst:  148000000 cyc:  148013115 now IPC :0.28449: AVG IPC :0.99296: L2-Pf-HR :0.85225: L2-HR :0.84140: (Sim:0h7m42s) 
CPU  0 inst:  149000000 cyc:  151525996 now IPC :0.28467: AVG IPC :0.97644: L2-Pf-HR :0.85193: L2-HR :0.84092: (Sim:0h7m47s) 
CPU  0 inst:  150000000 cyc:  155042069 now IPC :0.28441: AVG IPC :0.96064: L2-Pf-HR :0.85158: L2-HR :0.84042: (Sim:0h7m53s) 
CPU  0 inst:  151000002 cyc:  158557127 now IPC :0.28449: AVG IPC :0.94556: L2-Pf-HR :0.85124: L2-HR :0.83994: (Sim:0h7m58s) 
CPU  0 inst:  152000000 cyc:  162073917 now IPC :0.28435: AVG IPC :0.93113: L2-Pf-HR :0.85087: L2-HR :0.83943: (Sim:0h8m4s) 
CPU  0 inst:  153000002 cyc:  165588782 now IPC :0.28451: AVG IPC :0.91732: L2-Pf-HR :0.85053: L2-HR :0.83894: (Sim:0h8m9s) 
CPU  0 inst:  154000000 cyc:  169103772 now IPC :0.28450: AVG IPC :0.90409: L2-Pf-HR :0.85021: L2-HR :0.83848: (Sim:0h8m15s) 
CPU  0 inst:  155000000 cyc:  172618617 now IPC :0.28451: AVG IPC :0.89140: L2-Pf-HR :0.84989: L2-HR :0.83803: (Sim:0h8m20s) 
CPU  0 inst:  156000000 cyc:  176133104 now IPC :0.28454: AVG IPC :0.87922: L2-Pf-HR :0.84957: L2-HR :0.83757: (Sim:0h8m25s) 
CPU  0 inst:  157000000 cyc:  179649091 now IPC :0.28442: AVG IPC :0.86752: L2-Pf-HR :0.84924: L2-HR :0.83710: (Sim:0h8m31s) 
CPU  0 inst:  158000000 cyc:  183163822 now IPC :0.28452: AVG IPC :0.85627: L2-Pf-HR :0.84892: L2-HR :0.83665: (Sim:0h8m36s) 
CPU  0 inst:  159000000 cyc:  186679291 now IPC :0.28446: AVG IPC :0.84545: L2-Pf-HR :0.84860: L2-HR :0.83620: (Sim:0h8m42s) 
CPU  0 inst:  160000000 cyc:  190195289 now IPC :0.28441: AVG IPC :0.83502: L2-Pf-HR :0.84828: L2-HR :0.83575: (Sim:0h8m47s) 
CPU  0 inst:  161000002 cyc:  193711003 now IPC :0.28444: AVG IPC :0.82498: L2-Pf-HR :0.84795: L2-HR :0.83529: (Sim:0h8m53s) 
CPU  0 inst:  162000001 cyc:  197224552 now IPC :0.28461: AVG IPC :0.81530: L2-Pf-HR :0.84764: L2-HR :0.83486: (Sim:0h8m58s) 
CPU  0 inst:  163000000 cyc:  200738662 now IPC :0.28457: AVG IPC :0.80597: L2-Pf-HR :0.84734: L2-HR :0.83442: (Sim:0h9m4s) 
CPU  0 inst:  164000000 cyc:  202691626 now IPC :0.51204: AVG IPC :0.80312: L2-Pf-HR :0.84627: L2-HR :0.83337: (Sim:0h9m8s) 
CPU  0 inst:  165000002 cyc:  203242787 now IPC :1.81436: AVG IPC :0.80588: L2-Pf-HR :0.84623: L2-HR :0.83339: (Sim:0h9m10s) 
CPU  0 inst:  166000000 cyc:  203889122 now IPC :1.54718: AVG IPC :0.80824: L2-Pf-HR :0.84613: L2-HR :0.83338: (Sim:0h9m13s) 
CPU  0 inst:  167000003 cyc:  204529160 now IPC :1.56241: AVG IPC :0.81061: L2-Pf-HR :0.84573: L2-HR :0.83309: (Sim:0h9m16s) 
CPU  0 inst:  168000000 cyc:  205042713 now IPC :1.94721: AVG IPC :0.81347: L2-Pf-HR :0.84556: L2-HR :0.83302: (Sim:0h9m19s) 
CPU  0 inst:  169000001 cyc:  205605997 now IPC :1.77531: AVG IPC :0.81612: L2-Pf-HR :0.84530: L2-HR :0.83286: (Sim:0h9m21s) 
CPU  0 inst:  170000002 cyc:  206184743 now IPC :1.72788: AVG IPC :0.81869: L2-Pf-HR :0.84521: L2-HR :0.83282: (Sim:0h9m24s) 
CPU  0 inst:  171000002 cyc:  206698360 now IPC :1.94698: AVG IPC :0.82151: L2-Pf-HR :0.84515: L2-HR :0.83282: (Sim:0h9m27s) 
CPU  0 inst:  172000000 cyc:  207444767 now IPC :1.33975: AVG IPC :0.82338: L2-Pf-HR :0.84474: L2-HR :0.83253: (Sim:0h9m30s) 
CPU  0 inst:  173000003 cyc:  207995913 now IPC :1.81441: AVG IPC :0.82602: L2-Pf-HR :0.84460: L2-HR :0.83246: (Sim:0h9m32s) 
CPU  0 inst:  174000000 cyc:  208542313 now IPC :1.83016: AVG IPC :0.82866: L2-Pf-HR :0.84443: L2-HR :0.83237: (Sim:0h9m35s) 
CPU  0 inst:  175000000 cyc:  209212447 now IPC :1.49224: AVG IPC :0.83080: L2-Pf-HR :0.84426: L2-HR :0.83228: (Sim:0h9m38s) 
CPU  0 inst:  176000000 cyc:  209731321 now IPC :1.92725: AVG IPC :0.83352: L2-Pf-HR :0.84403: L2-HR :0.83214: (Sim:0h9m41s) 
CPU  0 inst:  177000001 cyc:  210241179 now IPC :1.96133: AVG IPC :0.83627: L2-Pf-HR :0.84396: L2-HR :0.83216: (Sim:0h9m43s) 
CPU  0 inst:  178000003 cyc:  210799068 now IPC :1.79247: AVG IPC :0.83881: L2-Pf-HR :0.84418: L2-HR :0.83244: (Sim:0h9m46s) 
CPU  0 inst:  179000003 cyc:  211377359 now IPC :1.72923: AVG IPC :0.84126: L2-Pf-HR :0.84367: L2-HR :0.83200: (Sim:0h9m49s) 
CPU  0 inst:  180000000 cyc:  211917297 now IPC :1.85206: AVG IPC :0.84385: L2-Pf-HR :0.84369: L2-HR :0.83208: (Sim:0h9m51s) 
CPU  0 inst:  181000003 cyc:  212676617 now IPC :1.31697: AVG IPC :0.84554: L2-Pf-HR :0.84315: L2-HR :0.83164: (Sim:0h9m54s) 
CPU  0 inst:  182000001 cyc:  213208378 now IPC :1.88054: AVG IPC :0.84814: L2-Pf-HR :0.84303: L2-HR :0.83158: (Sim:0h9m57s) 
CPU  0 inst:  183000003 cyc:  213822357 now IPC :1.62872: AVG IPC :0.85039: L2-Pf-HR :0.84300: L2-HR :0.83162: (Sim:0h10m0s) 
CPU  0 inst:  184000000 cyc:  214432337 now IPC :1.63939: AVG IPC :0.85264: L2-Pf-HR :0.84267: L2-HR :0.83138: (Sim:0h10m2s) 
CPU  0 inst:  185000003 cyc:  214944052 now IPC :1.95422: AVG IPC :0.85528: L2-Pf-HR :0.84253: L2-HR :0.83133: (Sim:0h10m5s) 
CPU  0 inst:  186000002 cyc:  215506116 now IPC :1.77916: AVG IPC :0.85770: L2-Pf-HR :0.84234: L2-HR :0.83122: (Sim:0h10m8s) 
CPU  0 inst:  187000000 cyc:  216077832 now IPC :1.74912: AVG IPC :0.86007: L2-Pf-HR :0.84225: L2-HR :0.83117: (Sim:0h10m10s) 
CPU  0 inst:  188000000 cyc:  216601266 now IPC :1.91046: AVG IPC :0.86262: L2-Pf-HR :0.84217: L2-HR :0.83114: (Sim:0h10m13s) 
CPU  0 inst:  189000000 cyc:  217352237 now IPC :1.33161: AVG IPC :0.86425: L2-Pf-HR :0.84183: L2-HR :0.83089: (Sim:0h10m16s) 
CPU  0 inst:  190000002 cyc:  217901976 now IPC :1.81905: AVG IPC :0.86667: L2-Pf-HR :0.84174: L2-HR :0.83084: (Sim:0h10m19s) 
CPU  0 inst:  191000001 cyc:  218463843 now IPC :1.77978: AVG IPC :0.86902: L2-Pf-HR :0.84159: L2-HR :0.83076: (Sim:0h10m21s) 
CPU  0 inst:  192000000 cyc:  219127684 now IPC :1.50638: AVG IPC :0.87096: L2-Pf-HR :0.84148: L2-HR :0.83073: (Sim:0h10m24s) 
CPU  0 inst:  193000002 cyc:  219645239 now IPC :1.93217: AVG IPC :0.87348: L2-Pf-HR :0.84129: L2-HR :0.83061: (Sim:0h10m27s) 
CPU  0 inst:  194000002 cyc:  220161469 now IPC :1.93712: AVG IPC :0.87598: L2-Pf-HR :0.84119: L2-HR :0.83058: (Sim:0h10m30s) 
CPU  0 inst:  195000002 cyc:  220744278 now IPC :1.71583: AVG IPC :0.87821: L2-Pf-HR :0.84128: L2-HR :0.83072: (Sim:0h10m32s) 
CPU  0 inst:  196000000 cyc:  221294779 now IPC :1.81652: AVG IPC :0.88055: L2-Pf-HR :0.84097: L2-HR :0.83045: (Sim:0h10m35s) 
CPU  0 inst:  197000003 cyc:  221833937 now IPC :1.85475: AVG IPC :0.88293: L2-Pf-HR :0.84109: L2-HR :0.83061: (Sim:0h10m38s) 
CPU  0 inst:  198000001 cyc:  222588914 now IPC :1.32454: AVG IPC :0.88444: L2-Pf-HR :0.84057: L2-HR :0.83019: (Sim:0h10m41s) 
CPU  0 inst:  199000003 cyc:  223125162 now IPC :1.86481: AVG IPC :0.88680: L2-Pf-HR :0.84045: L2-HR :0.83012: (Sim:0h10m43s) 
CPU  0 inst:  200000000 cyc:  223735877 now IPC :1.63742: AVG IPC :0.88886: L2-Pf-HR :0.84049: L2-HR :0.83021: (Sim:0h10m46s) 
CPU  0 inst:  201000000 cyc:  224344207 now IPC :1.64384: AVG IPC :0.89092: L2-Pf-HR :0.84018: L2-HR :0.82997: (Sim:0h10m49s) 
CPU  0 inst:  202000000 cyc:  224858734 now IPC :1.94353: AVG IPC :0.89334: L2-Pf-HR :0.84016: L2-HR :0.83001: (Sim:0h10m51s) 
CPU  0 inst:  203000000 cyc:  225424842 now IPC :1.76645: AVG IPC :0.89554: L2-Pf-HR :0.84005: L2-HR :0.82996: (Sim:0h10m54s) 
CPU  0 inst:  204000000 cyc:  225997214 now IPC :1.74712: AVG IPC :0.89770: L2-Pf-HR :0.84001: L2-HR :0.82995: (Sim:0h10m57s) 
CPU  0 inst:  205000002 cyc:  226529083 now IPC :1.88017: AVG IPC :0.90002: L2-Pf-HR :0.84005: L2-HR :0.83002: (Sim:0h11m0s) 
CPU  0 inst:  206000002 cyc:  227281550 now IPC :1.32896: AVG IPC :0.90145: L2-Pf-HR :0.83979: L2-HR :0.82982: (Sim:0h11m2s) 
CPU  0 inst:  207000003 cyc:  227822004 now IPC :1.85030: AVG IPC :0.90371: L2-Pf-HR :0.83970: L2-HR :0.82978: (Sim:0h11m5s) 
CPU  0 inst:  208000000 cyc:  228429831 now IPC :1.64520: AVG IPC :0.90569: L2-Pf-HR :0.83949: L2-HR :0.82963: (Sim:0h11m8s) 
CPU  0 inst:  209000002 cyc:  229036250 now IPC :1.64903: AVG IPC :0.90767: L2-Pf-HR :0.83948: L2-HR :0.82968: (Sim:0h11m11s) 
CPU  0 inst:  210000003 cyc:  229553698 now IPC :1.93256: AVG IPC :0.90999: L2-Pf-HR :0.83939: L2-HR :0.82965: (Sim:0h11m13s) 
CPU  0 inst:  211000003 cyc:  230080211 now IPC :1.89929: AVG IPC :0.91226: L2-Pf-HR :0.83931: L2-HR :0.82962: (Sim:0h11m16s) 
CPU  0 inst:  212000000 cyc:  230679165 now IPC :1.66957: AVG IPC :0.91423: L2-Pf-HR :0.83931: L2-HR :0.82967: (Sim:0h11m19s) 
CPU  0 inst:  213000001 cyc:  231201778 now IPC :1.91346: AVG IPC :0.91650: L2-Pf-HR :0.83932: L2-HR :0.82970: (Sim:0h11m21s) 
CPU  0 inst:  214000000 cyc:  231744728 now IPC :1.84179: AVG IPC :0.91868: L2-Pf-HR :0.83956: L2-HR :0.82996: (Sim:0h11m24s) 
CPU  0 inst:  215000000 cyc:  232511405 now IPC :1.30433: AVG IPC :0.91996: L2-Pf-HR :0.83902: L2-HR :0.82949: (Sim:0h11m27s) 
CPU  0 inst:  216000000 cyc:  233043598 now IPC :1.87902: AVG IPC :0.92216: L2-Pf-HR :0.83893: L2-HR :0.82946: (Sim:0h11m30s) 
CPU  0 inst:  217000000 cyc:  233656902 now IPC :1.63051: AVG IPC :0.92402: L2-Pf-HR :0.83903: L2-HR :0.82959: (Sim:0h11m32s) 
CPU  0 inst:  218000001 cyc:  234267853 now IPC :1.63679: AVG IPC :0.92589: L2-Pf-HR :0.83871: L2-HR :0.82935: (Sim:0h11m35s) 
CPU  0 inst:  219000000 cyc:  234783008 now IPC :1.94116: AVG IPC :0.92813: L2-Pf-HR :0.83871: L2-HR :0.82938: (Sim:0h11m38s) 
CPU  0 inst:  220000000 cyc:  235341275 now IPC :1.79126: AVG IPC :0.93018: L2-Pf-HR :0.83873: L2-HR :0.82945: (Sim:0h11m41s) 
CPU  0 inst:  221000003 cyc:  235919756 now IPC :1.72867: AVG IPC :0.93215: L2-Pf-HR :0.83866: L2-HR :0.82940: (Sim:0h11m43s) 
CPU  0 inst:  222000002 cyc:  236461012 now IPC :1.84755: AVG IPC :0.93425: L2-Pf-HR :0.83859: L2-HR :0.82938: (Sim:0h11m46s) 
CPU  0 inst:  223000000 cyc:  237196103 now IPC :1.36037: AVG IPC :0.93558: L2-Pf-HR :0.83847: L2-HR :0.82931: (Sim:0h11m49s) 
CPU  0 inst:  224000000 cyc:  237730805 now IPC :1.87020: AVG IPC :0.93769: L2-Pf-HR :0.83837: L2-HR :0.82924: (Sim:0h11m52s) 
CPU  0 inst:  225000003 cyc:  238347669 now IPC :1.62111: AVG IPC :0.93947: L2-Pf-HR :0.83820: L2-HR :0.82912: (Sim:0h11m54s) 
CPU  0 inst:  226000003 cyc:  238965577 now IPC :1.61836: AVG IPC :0.94123: L2-Pf-HR :0.83816: L2-HR :0.82913: (Sim:0h11m57s) 
CPU  0 inst:  227000000 cyc:  239491558 now IPC :1.90120: AVG IPC :0.94335: L2-Pf-HR :0.83808: L2-HR :0.82909: (Sim:0h12m0s) 
CPU  0 inst:  228000000 cyc:  240025914 now IPC :1.87141: AVG IPC :0.94542: L2-Pf-HR :0.83798: L2-HR :0.82905: (Sim:0h12m2s) 
CPU  0 inst:  229000000 cyc:  240631176 now IPC :1.65218: AVG IPC :0.94720: L2-Pf-HR :0.83800: L2-HR :0.82909: (Sim:0h12m5s) 
CPU  0 inst:  230000001 cyc:  241151638 now IPC :1.92137: AVG IPC :0.94932: L2-Pf-HR :0.83804: L2-HR :0.82915: (Sim:0h12m8s) 
CPU  0 inst:  231000001 cyc:  241778031 now IPC :1.59644: AVG IPC :0.95100: L2-Pf-HR :0.83813: L2-HR :0.82928: (Sim:0h12m11s) 
CPU  0 inst:  232000000 cyc:  242458104 now IPC :1.47043: AVG IPC :0.95246: L2-Pf-HR :0.83779: L2-HR :0.82898: (Sim:0h12m13s) 
CPU  0 inst:  233000003 cyc:  242991847 now IPC :1.87357: AVG IPC :0.95449: L2-Pf-HR :0.83772: L2-HR :0.82895: (Sim:0h12m16s) 
CPU  0 inst:  234000003 cyc:  243598391 now IPC :1.64868: AVG IPC :0.95623: L2-Pf-HR :0.83786: L2-HR :0.82912: (Sim:0h12m19s) 
CPU  0 inst:  235000002 cyc:  244206294 now IPC :1.64500: AVG IPC :0.95795: L2-Pf-HR :0.83752: L2-HR :0.82885: (Sim:0h12m22s) 
CPU  0 inst:  236000000 cyc:  244720313 now IPC :1.94545: AVG IPC :0.96003: L2-Pf-HR :0.83748: L2-HR :0.82885: (Sim:0h12m24s) 
CPU  0 inst:  237000002 cyc:  245284266 now IPC :1.77320: AVG IPC :0.96191: L2-Pf-HR :0.83754: L2-HR :0.82895: (Sim:0h12m27s) 
CPU  0 inst:  238000001 cyc:  245870348 now IPC :1.70624: AVG IPC :0.96369: L2-Pf-HR :0.83744: L2-HR :0.82887: (Sim:0h12m30s) 
CPU  0 inst:  239000000 cyc:  246413093 now IPC :1.84248: AVG IPC :0.96563: L2-Pf-HR :0.83741: L2-HR :0.82887: (Sim:0h12m32s) 
CPU  0 inst:  240000000 cyc:  247163558 now IPC :1.33251: AVG IPC :0.96675: L2-Pf-HR :0.83725: L2-HR :0.82875: (Sim:0h12m35s) 
CPU  0 inst:  241000000 cyc:  247694526 now IPC :1.88335: AVG IPC :0.96873: L2-Pf-HR :0.83722: L2-HR :0.82875: (Sim:0h12m38s) 
CPU  0 inst:  242000003 cyc:  248309857 now IPC :1.62515: AVG IPC :0.97036: L2-Pf-HR :0.83714: L2-HR :0.82872: (Sim:0h12m41s) 
CPU  0 inst:  243000000 cyc:  248932480 now IPC :1.60610: AVG IPC :0.97196: L2-Pf-HR :0.83706: L2-HR :0.82869: (Sim:0h12m44s) 
CPU  0 inst:  244000000 cyc:  249455412 now IPC :1.91229: AVG IPC :0.97393: L2-Pf-HR :0.83703: L2-HR :0.82868: (Sim:0h12m46s) 
CPU  0 inst:  245000000 cyc:  250017918 now IPC :1.77776: AVG IPC :0.97575: L2-Pf-HR :0.83688: L2-HR :0.82858: (Sim:0h12m49s) 
CPU  0 inst:  246000000 cyc:  250590531 now IPC :1.74638: AVG IPC :0.97752: L2-Pf-HR :0.83700: L2-HR :0.82871: (Sim:0h12m52s) 
CPU  0 inst:  247000002 cyc:  251111917 now IPC :1.91797: AVG IPC :0.97948: L2-Pf-HR :0.83705: L2-HR :0.82877: (Sim:0h12m54s) 
CPU  0 inst:  248000000 cyc:  251858929 now IPC :1.33866: AVG IPC :0.98055: L2-Pf-HR :0.83688: L2-HR :0.82865: (Sim:0h12m57s) 
CPU  0 inst:  249000003 cyc:  252423374 now IPC :1.77166: AVG IPC :0.98232: L2-Pf-HR :0.83679: L2-HR :0.82859: (Sim:0h13m0s) 
CPU  0 inst:  250000003 cyc:  252953526 now IPC :1.88625: AVG IPC :0.98423: L2-Pf-HR :0.83676: L2-HR :0.82860: (Sim:0h13m3s) 
CPU  0 inst:  251000001 cyc:  253565199 now IPC :1.63486: AVG IPC :0.98580: L2-Pf-HR :0.83695: L2-HR :0.82881: (Sim:0h13m5s) 
CPU  0 inst:  252000000 cyc:  254171979 now IPC :1.64804: AVG IPC :0.98739: L2-Pf-HR :0.83658: L2-HR :0.82850: (Sim:0h13m8s) 
CPU  0 inst:  253000002 cyc:  254683561 now IPC :1.95472: AVG IPC :0.98934: L2-Pf-HR :0.83655: L2-HR :0.82852: (Sim:0h13m11s) 
CPU  0 inst:  254000001 cyc:  255241345 now IPC :1.79281: AVG IPC :0.99110: L2-Pf-HR :0.83667: L2-HR :0.82867: (Sim:0h13m13s) 
CPU  0 inst:  255000000 cyc:  255820290 now IPC :1.72728: AVG IPC :0.99277: L2-Pf-HR :0.83656: L2-HR :0.82857: (Sim:0h13m16s) 
CPU  0 inst:  256000000 cyc:  256362859 now IPC :1.84308: AVG IPC :0.99458: L2-Pf-HR :0.83659: L2-HR :0.82862: (Sim:0h13m19s) 
CPU  0 inst:  257000002 cyc:  257106118 now IPC :1.34543: AVG IPC :0.99560: L2-Pf-HR :0.83641: L2-HR :0.82848: (Sim:0h13m22s) 
CPU  0 inst:  258000001 cyc:  257636031 now IPC :1.88710: AVG IPC :0.99744: L2-Pf-HR :0.83637: L2-HR :0.82847: (Sim:0h13m24s) 
CPU  0 inst:  259000003 cyc:  258255863 now IPC :1.61334: AVG IPC :0.99892: L2-Pf-HR :0.83633: L2-HR :0.82846: (Sim:0h13m27s) 
CPU  0 inst:  260000000 cyc:  258862968 now IPC :1.64716: AVG IPC :1.00045: L2-Pf-HR :0.83624: L2-HR :0.82841: (Sim:0h13m30s) 
CPU  0 inst:  261000002 cyc:  259381837 now IPC :1.92727: AVG IPC :1.00231: L2-Pf-HR :0.83619: L2-HR :0.82840: (Sim:0h13m33s) 
CPU  0 inst:  262000003 cyc:  259943416 now IPC :1.78070: AVG IPC :1.00400: L2-Pf-HR :0.83606: L2-HR :0.82832: (Sim:0h13m35s) 
CPU  0 inst:  263000002 cyc:  260511748 now IPC :1.75953: AVG IPC :1.00565: L2-Pf-HR :0.83616: L2-HR :0.82842: (Sim:0h13m38s) 
CPU  0 inst:  264000000 cyc:  261028785 now IPC :1.93409: AVG IPC :1.00750: L2-Pf-HR :0.83622: L2-HR :0.82850: (Sim:0h13m41s) 
CPU  0 inst:  265000001 cyc:  261788687 now IPC :1.31596: AVG IPC :1.00840: L2-Pf-HR :0.83608: L2-HR :0.82839: (Sim:0h13m44s) 
CPU  0 inst:  266000002 cyc:  262346641 now IPC :1.79226: AVG IPC :1.01007: L2-Pf-HR :0.83600: L2-HR :0.82834: (Sim:0h13m46s) 
CPU  0 inst:  267000001 cyc:  262879795 now IPC :1.87563: AVG IPC :1.01183: L2-Pf-HR :0.83599: L2-HR :0.82835: (Sim:0h13m49s) 
CPU  0 inst:  268000000 cyc:  263508194 now IPC :1.59134: AVG IPC :1.01322: L2-Pf-HR :0.83613: L2-HR :0.82852: (Sim:0h13m52s) 
CPU  0 inst:  269000002 cyc:  264098662 now IPC :1.69358: AVG IPC :1.01475: L2-Pf-HR :0.83580: L2-HR :0.82823: (Sim:0h13m55s) 
CPU  0 inst:  270000003 cyc:  264607701 now IPC :1.96449: AVG IPC :1.01658: L2-Pf-HR :0.83575: L2-HR :0.82822: (Sim:0h13m57s) 
CPU  0 inst:  271000002 cyc:  265171741 now IPC :1.77292: AVG IPC :1.01819: L2-Pf-HR :0.83590: L2-HR :0.82839: (Sim:0h14m0s) 
CPU  0 inst:  272000000 cyc:  265755155 now IPC :1.71405: AVG IPC :1.01973: L2-Pf-HR :0.83570: L2-HR :0.82822: (Sim:0h14m3s) 
CPU  0 inst:  273000002 cyc:  266299470 now IPC :1.83718: AVG IPC :1.02141: L2-Pf-HR :0.83573: L2-HR :0.82827: (Sim:0h14m5s) 
CPU  0 inst:  274000001 cyc:  267050929 now IPC :1.33074: AVG IPC :1.02228: L2-Pf-HR :0.83549: L2-HR :0.82807: (Sim:0h14m8s) 
CPU  0 inst:  275000002 cyc:  267576731 now IPC :1.90186: AVG IPC :1.02401: L2-Pf-HR :0.83548: L2-HR :0.82809: (Sim:0h14m11s) 
CPU  0 inst:  276000000 cyc:  268195110 now IPC :1.61713: AVG IPC :1.02539: L2-Pf-HR :0.83546: L2-HR :0.82809: (Sim:0h14m14s) 
CPU  0 inst:  277000003 cyc:  268808912 now IPC :1.62919: AVG IPC :1.02677: L2-Pf-HR :0.83535: L2-HR :0.82802: (Sim:0h14m16s) 
CPU  0 inst:  278000003 cyc:  269320510 now IPC :1.95466: AVG IPC :1.02854: L2-Pf-HR :0.83533: L2-HR :0.82803: (Sim:0h14m19s) 
CPU  0 inst:  279000001 cyc:  269884013 now IPC :1.77461: AVG IPC :1.03010: L2-Pf-HR :0.83524: L2-HR :0.82798: (Sim:0h14m22s) 
CPU  0 inst:  280000000 cyc:  270452844 now IPC :1.75799: AVG IPC :1.03164: L2-Pf-HR :0.83531: L2-HR :0.82805: (Sim:0h14m25s) 
CPU  0 inst:  281000002 cyc:  270965184 now IPC :1.95183: AVG IPC :1.03339: L2-Pf-HR :0.83539: L2-HR :0.82814: (Sim:0h14m27s) 
CPU  0 inst:  282000000 cyc:  271704981 now IPC :1.35172: AVG IPC :1.03426: L2-Pf-HR :0.83526: L2-HR :0.82804: (Sim:0h14m30s) 
CPU  0 inst:  283000001 cyc:  272258750 now IPC :1.80581: AVG IPC :1.03583: L2-Pf-HR :0.83524: L2-HR :0.82805: (Sim:0h14m33s) 
CPU  0 inst:  284000000 cyc:  272802251 now IPC :1.83992: AVG IPC :1.03744: L2-Pf-HR :0.83524: L2-HR :0.82807: (Sim:0h14m35s) 
CPU  0 inst:  285000001 cyc:  273461625 now IPC :1.51659: AVG IPC :1.03860: L2-Pf-HR :0.83523: L2-HR :0.82810: (Sim:0h14m38s) 
CPU  0 inst:  286000001 cyc:  274010462 now IPC :1.82203: AVG IPC :1.04017: L2-Pf-HR :0.83513: L2-HR :0.82803: (Sim:0h14m41s) 
CPU  0 inst:  287000000 cyc:  274522313 now IPC :1.95369: AVG IPC :1.04188: L2-Pf-HR :0.83514: L2-HR :0.82807: (Sim:0h14m44s) 
CPU  0 inst:  288000000 cyc:  275086972 now IPC :1.77098: AVG IPC :1.04338: L2-Pf-HR :0.83534: L2-HR :0.82828: (Sim:0h14m46s) 
CPU  0 inst:  289000003 cyc:  275672634 now IPC :1.70747: AVG IPC :1.04480: L2-Pf-HR :0.83516: L2-HR :0.82811: (Sim:0h14m49s) 
CPU  0 inst:  290000003 cyc:  276212868 now IPC :1.85105: AVG IPC :1.04638: L2-Pf-HR :0.83526: L2-HR :0.82822: (Sim:0h14m52s) 
CPU  0 inst:  291000000 cyc:  276961886 now IPC :1.33508: AVG IPC :1.04717: L2-Pf-HR :0.83500: L2-HR :0.82801: (Sim:0h14m55s) 
CPU  0 inst:  292000000 cyc:  277493322 now IPC :1.88169: AVG IPC :1.04877: L2-Pf-HR :0.83500: L2-HR :0.82802: (Sim:0h14m57s) 
CPU  0 inst:  293000002 cyc:  278108264 now IPC :1.62617: AVG IPC :1.05005: L2-Pf-HR :0.83503: L2-HR :0.82807: (Sim:0h15m0s) 
CPU  0 inst:  294000001 cyc:  278727527 now IPC :1.61482: AVG IPC :1.05131: L2-Pf-HR :0.83488: L2-HR :0.82796: (Sim:0h15m3s) 
CPU  0 inst:  295000001 cyc:  279239164 now IPC :1.95451: AVG IPC :1.05297: L2-Pf-HR :0.83483: L2-HR :0.82794: (Sim:0h15m5s) 
Finished CPU 0 instr: 293000000 cyc: 278260458 AVG IPC: 1.05297 (Sim time: 0h15m5s)

ChampSim completed all CPUs

[ROI Statistics]
Core_0_instructions 293000000
Core_0_cycles 278260458
Core_0_IPC 1.05297

Core_0_branch_prediction_accuracy 98.23789
Core_0_branch_MPKI 0.42863
Core_0_average_ROB_occupancy_at_mispredict 247.87506

Core_0_L1D_total_access 174047669
Core_0_L1D_total_hit 167568229 L1D_total_Hit Ratio: 0.96277
Core_0_L1D_total_miss 6479440
Core_0_L1D_loads 66864551
Core_0_L1D_load_hit 64183669 L1D_load_Hit Ratio: 0.95991
Core_0_L1D_load_miss 2680882
Core_0_L1D_RFOs 5960068
Core_0_L1D_RFO_hit 5663146 L1D_RFO_Hit Ratio: 0.95018
Core_0_L1D_RFO_miss 296922
Core_0_L1D_prefetches 101223050
Core_0_L1D_prefetch_hit 97721414 L1D_prefetch_Hit Ratio: 0.96541
Core_0_L1D_prefetch_miss 3501636
Core_0_L1D_writebacks 0
Core_0_L1D_writeback_hit 0 L1D_writeback_Hit Ratio: -nan
Core_0_L1D_writeback_miss 0
Core_0_L1D_prefetch_requested 203154510
Core_0_L1D_prefetch_issued 122198983
Core_0_L1D_prefetch_useful 2822166 L1D_Useful Ratio: 0.02309
Core_0_L1D_prefetch_useless 707421
Core_0_L1D_prefetch_late 516836
Core_0_L1D_average_miss_latency 10173475.34175

Core_0_L1I_total_access 66561409
Core_0_L1I_total_hit 66556564 L1I_total_Hit Ratio: 0.99993
Core_0_L1I_total_miss 4845
Core_0_L1I_loads 66561409
Core_0_L1I_load_hit 66556564 L1I_load_Hit Ratio: 0.99993
Core_0_L1I_load_miss 4845
Core_0_L1I_RFOs 0
Core_0_L1I_RFO_hit 0 L1I_RFO_Hit Ratio: -nan
Core_0_L1I_RFO_miss 0
Core_0_L1I_prefetches 0
Core_0_L1I_prefetch_hit 0 L1I_prefetch_Hit Ratio: -nan
Core_0_L1I_prefetch_miss 0
Core_0_L1I_writebacks 0
Core_0_L1I_writeback_hit 0 L1I_writeback_Hit Ratio: -nan
Core_0_L1I_writeback_miss 0
Core_0_L1I_prefetch_requested 0
Core_0_L1I_prefetch_issued 0
Core_0_L1I_prefetch_useful 0 L1I_Useful Ratio: -nan
Core_0_L1I_prefetch_useless 0
Core_0_L1I_prefetch_late 0
Core_0_L1I_average_miss_latency 318.23653

Core_0_L2C_total_access 25843769
Core_0_L2C_total_hit 21397106 L2C_total_Hit Ratio: 0.82794
Core_0_L2C_total_miss 4446663
Core_0_L2C_loads 2169357
Core_0_L2C_load_hit 1544620 L2C_load_Hit Ratio: 0.71202
Core_0_L2C_load_miss 624737
Core_0_L2C_RFOs 296811
Core_0_L2C_RFO_hit 105132 L2C_RFO_Hit Ratio: 0.35421
Core_0_L2C_RFO_miss 191679
Core_0_L2C_prefetches 21788235
Core_0_L2C_prefetch_hit 18189415 L2C_prefetch_Hit Ratio: 0.83483
Core_0_L2C_prefetch_miss 3598820
Core_0_L2C_writebacks 1589366
Core_0_L2C_writeback_hit 1557939 L2C_writeback_Hit Ratio: 0.98023
Core_0_L2C_writeback_miss 31427
Core_0_L2C_prefetch_requested 50479862
Core_0_L2C_prefetch_issued 32621554
Core_0_L2C_prefetch_useful 950151 L2C_Useful Ratio: 0.02913
Core_0_L2C_prefetch_useless 2674282
Core_0_L2C_prefetch_late 34513
Core_0_L2C_average_miss_latency 144.02760

Core_0_LLC_total_access 5963242
Core_0_LLC_total_hit 4326817 LLC_total_Hit Ratio: 0.72558
Core_0_LLC_total_miss 1636425
Core_0_LLC_loads 590258
Core_0_LLC_load_hit 439476 LLC_load_Hit Ratio: 0.74455
Core_0_LLC_load_miss 150782
Core_0_LLC_RFOs 191646
Core_0_LLC_RFO_hit 14966 LLC_RFO_Hit Ratio: 0.07809
Core_0_LLC_RFO_miss 176680
Core_0_LLC_prefetches 3749746
Core_0_LLC_prefetch_hit 2441047 LLC_prefetch_Hit Ratio: 0.65099
Core_0_LLC_prefetch_miss 1308699
Core_0_LLC_writebacks 1431592
Core_0_LLC_writeback_hit 1431328 LLC_writeback_Hit Ratio: 0.99982
Core_0_LLC_writeback_miss 264
Core_0_LLC_prefetch_requested 0
Core_0_LLC_prefetch_issued 0
Core_0_LLC_prefetch_useful 262454 LLC_Useful Ratio: inf
Core_0_LLC_prefetch_useless 1043261
Core_0_LLC_prefetch_late 16433
Core_0_LLC_average_miss_latency 330.15659

Core_0_major_page_fault 0
Core_0_minor_page_fault 13331

CPU 0 L1D next line prefetcher final stats
CPU 0 L2C PC-based stride prefetcher final stats
Stride Degree: 14
MK1  MARKOV_LRU_SIZE: 128
MK1  MARKOV_PREDICTION_PERCENTTHRESHOLD: 20.00000
MK1  OUTLIERS_THRESHOLD_Max: 64
MK1  OUTLIERS_THRESHOLD_Min: 32
MK2  MARKOV_LRU_SIZE: 512
MK2  MARKOV_PREDICTION_PERCENTTHRESHOLD: 15.00000
MK2  OUTLIERS_THRESHOLD_Max: 8
MK2  OUTLIERS_THRESHOLD_Min: 0
MK3  MARKOV_LRU_SIZE: 384
MK3  MARKOV_PREDICTION_PERCENTTHRESHOLD: 20.00000
MK3  OUTLIERS_THRESHOLD_Max: 16
MK3  OUTLIERS_THRESHOLD_Min: 8
MK4  MARKOV_LRU_SIZE: 512
MK4  MARKOV_PREDICTION_PERCENTTHRESHOLD: 15.00000
MK4  OUTLIERS_THRESHOLD_Max: 8
MK4  OUTLIERS_THRESHOLD_Min: 0
IPStride Degree/Access Ratio: 4.83422
MK1 IPDEltaMarkov  Degree/Access Ratio: 0.29129
MK2 IPDEltaMarkov  Degree/Access Ratio: 1.53546
MK3 IPDEltaMarkov  Degree/Access Ratio: 0.54667
MK4 IPDEltaMarkov  Degree/Access Ratio: 1.55863
Channel_0_RQ_row_buffer_hit 833513
Channel_0_RQ_row_buffer_miss 802383
Channel_0_WQ_row_buffer_hit 241433
Channel_0_WQ_row_buffer_miss 635049
Channel_0_WQ_full 0
Channel_0_dbus_congested 1686381

avg_congested_cycle 10

EzSearch AVG IPC :1.05297: L2-Pf-HR :0.83483 : L2-HR :0.82794 Uful:0.02913
     > Finished combination: TraceType=770-tot Sim:293000000 Prefetcher=L2029-SecTOP-L2-MultiMarkovDelta_ip_stride_v4 L1=next_line
