TRACE: [151000000]_FE_[OPT-6_7B]_[h32]_[s256]_[d128] Warmup: 2000000 NumTraces: 151000000
L1:bingo_dpc3_PHT1k:L2:bingo_dpc3_PHT1k
*************************************************
   ChampSim Multicore Out-of-Order Simulator
   Last compiled: Oct 26 2024 14:35:32
*************************************************

trace_0 770-tot_memTraces_v3/memTraces[151000000]_FE_[OPT-6_7B]_[h32]_[s256]_[d128].champsim.xz
Bingo PHT WAYS: 16 and PHT_SIZE: 1024
Bingo2 PHT WAYS: 16 and PHT_SIZE: 1024
MAIN.cc ln 751 stats print skipped
CPU  0 inst:    1000000 cyc:     504257 now IPC :1.98312: AVG IPC :1.98312: L2-Pf-HR :0.54365: L2-HR :0.52588: (Sim:0h0m4s) 
CPU  0 inst:    2000002 cyc:     981267 now IPC :2.09640: AVG IPC :2.03818: L2-Pf-HR :0.50527: L2-HR :0.51458: (Sim:0h0m9s) 

Warmup complete CPU  0 instructions:    2000002 cycles:     981267 (Simulation time: 0 hr 0 min 9 sec) 

CPU  0 inst:    3000000 cyc:    1618743 now IPC :1.56868: AVG IPC :1.56868: L2-Pf-HR :0.26630: L2-HR :0.38494: (Sim:0h0m14s) 
CPU  0 inst:    4000000 cyc:    2180664 now IPC :1.77961: AVG IPC :1.66750: L2-Pf-HR :0.32181: L2-HR :0.41837: (Sim:0h0m18s) 
CPU  0 inst:    5000003 cyc:    2803844 now IPC :1.60468: AVG IPC :1.64602: L2-Pf-HR :0.32984: L2-HR :0.42652: (Sim:0h0m22s) 
CPU  0 inst:    6000001 cyc:    3350512 now IPC :1.82926: AVG IPC :1.68830: L2-Pf-HR :0.33453: L2-HR :0.42814: (Sim:0h0m27s) 
CPU  0 inst:    7000002 cyc:    3972680 now IPC :1.60728: AVG IPC :1.67145: L2-Pf-HR :0.32730: L2-HR :0.42374: (Sim:0h0m31s) 
CPU  0 inst:    8000000 cyc:    4532073 now IPC :1.78765: AVG IPC :1.68976: L2-Pf-HR :0.33565: L2-HR :0.42901: (Sim:0h0m35s) 
CPU  0 inst:    9000002 cyc:    5190521 now IPC :1.51873: AVG IPC :1.66300: L2-Pf-HR :0.33705: L2-HR :0.43012: (Sim:0h0m39s) 
CPU  0 inst:   10000000 cyc:    5765245 now IPC :1.73996: AVG IPC :1.67225: L2-Pf-HR :0.34344: L2-HR :0.43348: (Sim:0h0m44s) 
CPU  0 inst:   11000001 cyc:    6429330 now IPC :1.50583: AVG IPC :1.65196: L2-Pf-HR :0.34206: L2-HR :0.43262: (Sim:0h0m48s) 
CPU  0 inst:   12000000 cyc:    7017605 now IPC :1.69988: AVG IPC :1.65663: L2-Pf-HR :0.34651: L2-HR :0.43453: (Sim:0h0m52s) 
CPU  0 inst:   13000000 cyc:    7686607 now IPC :1.49476: AVG IPC :1.64048: L2-Pf-HR :0.34637: L2-HR :0.43485: (Sim:0h0m56s) 
CPU  0 inst:   14000000 cyc:    8257376 now IPC :1.75202: AVG IPC :1.64923: L2-Pf-HR :0.34717: L2-HR :0.43460: (Sim:0h1m1s) 
CPU  0 inst:   15000002 cyc:    8933670 now IPC :1.47865: AVG IPC :1.63473: L2-Pf-HR :0.34669: L2-HR :0.43448: (Sim:0h1m5s) 
CPU  0 inst:   16000000 cyc:    9502284 now IPC :1.75866: AVG IPC :1.64300: L2-Pf-HR :0.34683: L2-HR :0.43407: (Sim:0h1m9s) 
CPU  0 inst:   17000002 cyc:   10173840 now IPC :1.48908: AVG IPC :1.63175: L2-Pf-HR :0.34667: L2-HR :0.43413: (Sim:0h1m13s) 
CPU  0 inst:   18000000 cyc:   10744839 now IPC :1.75131: AVG IPC :1.63874: L2-Pf-HR :0.34675: L2-HR :0.43400: (Sim:0h1m18s) 
CPU  0 inst:   19000000 cyc:   11417951 now IPC :1.48564: AVG IPC :1.62887: L2-Pf-HR :0.34587: L2-HR :0.43333: (Sim:0h1m22s) 
CPU  0 inst:   20000000 cyc:   11997239 now IPC :1.72626: AVG IPC :1.63399: L2-Pf-HR :0.34465: L2-HR :0.43242: (Sim:0h1m26s) 
CPU  0 inst:   21000002 cyc:   12674839 now IPC :1.47580: AVG IPC :1.62482: L2-Pf-HR :0.34399: L2-HR :0.43187: (Sim:0h1m30s) 
CPU  0 inst:   22000002 cyc:   13223955 now IPC :1.82111: AVG IPC :1.63363: L2-Pf-HR :0.34524: L2-HR :0.43281: (Sim:0h1m33s) 
CPU  0 inst:   23000002 cyc:   13901573 now IPC :1.47576: AVG IPC :1.62535: L2-Pf-HR :0.34408: L2-HR :0.43208: (Sim:0h1m36s) 
CPU  0 inst:   24000000 cyc:   14480642 now IPC :1.72691: AVG IPC :1.62970: L2-Pf-HR :0.34543: L2-HR :0.43316: (Sim:0h1m39s) 
CPU  0 inst:   25000003 cyc:   15145750 now IPC :1.50352: AVG IPC :1.62378: L2-Pf-HR :0.34510: L2-HR :0.43304: (Sim:0h1m42s) 
CPU  0 inst:   26000001 cyc:   15712349 now IPC :1.76491: AVG IPC :1.62921: L2-Pf-HR :0.34339: L2-HR :0.43176: (Sim:0h1m45s) 
CPU  0 inst:   27000000 cyc:   16368316 now IPC :1.52447: AVG IPC :1.62474: L2-Pf-HR :0.34391: L2-HR :0.43246: (Sim:0h1m47s) 
CPU  0 inst:   28000000 cyc:   16934112 now IPC :1.76742: AVG IPC :1.62980: L2-Pf-HR :0.34189: L2-HR :0.43090: (Sim:0h1m50s) 
CPU  0 inst:   29000003 cyc:   17585050 now IPC :1.53625: AVG IPC :1.62614: L2-Pf-HR :0.34317: L2-HR :0.43210: (Sim:0h1m53s) 
CPU  0 inst:   30000003 cyc:   18166405 now IPC :1.72012: AVG IPC :1.62931: L2-Pf-HR :0.34046: L2-HR :0.43006: (Sim:0h1m56s) 
CPU  0 inst:   31000002 cyc:   18756850 now IPC :1.69364: AVG IPC :1.63145: L2-Pf-HR :0.34361: L2-HR :0.43178: (Sim:0h1m59s) 
CPU  0 inst:   32000000 cyc:   19391667 now IPC :1.57525: AVG IPC :1.62951: L2-Pf-HR :0.33835: L2-HR :0.42865: (Sim:0h2m2s) 
CPU  0 inst:   33000003 cyc:   19966302 now IPC :1.74024: AVG IPC :1.63287: L2-Pf-HR :0.34122: L2-HR :0.43030: (Sim:0h2m4s) 
CPU  0 inst:   34000001 cyc:   20621097 now IPC :1.52719: AVG IPC :1.62934: L2-Pf-HR :0.33860: L2-HR :0.42881: (Sim:0h2m8s) 
CPU  0 inst:   35000002 cyc:   21211464 now IPC :1.69386: AVG IPC :1.63122: L2-Pf-HR :0.34058: L2-HR :0.42972: (Sim:0h2m11s) 
CPU  0 inst:   36000000 cyc:   21871462 now IPC :1.51515: AVG IPC :1.62756: L2-Pf-HR :0.33914: L2-HR :0.42905: (Sim:0h2m15s) 
CPU  0 inst:   37000003 cyc:   22453955 now IPC :1.71676: AVG IPC :1.62998: L2-Pf-HR :0.34029: L2-HR :0.42961: (Sim:0h2m19s) 
CPU  0 inst:   38000002 cyc:   23117987 now IPC :1.50595: AVG IPC :1.62626: L2-Pf-HR :0.33913: L2-HR :0.42901: (Sim:0h2m23s) 
CPU  0 inst:   39000000 cyc:   23695211 now IPC :1.73243: AVG IPC :1.62896: L2-Pf-HR :0.34025: L2-HR :0.42979: (Sim:0h2m27s) 
CPU  0 inst:   40000000 cyc:   24367409 now IPC :1.48766: AVG IPC :1.62489: L2-Pf-HR :0.33928: L2-HR :0.42923: (Sim:0h2m32s) 
CPU  0 inst:   41000003 cyc:   24948878 now IPC :1.71979: AVG IPC :1.62720: L2-Pf-HR :0.34028: L2-HR :0.42980: (Sim:0h2m36s) 
CPU  0 inst:   42000003 cyc:   25615731 now IPC :1.49958: AVG IPC :1.62374: L2-Pf-HR :0.34010: L2-HR :0.42983: (Sim:0h2m40s) 
CPU  0 inst:   43000002 cyc:   26193259 now IPC :1.73152: AVG IPC :1.62621: L2-Pf-HR :0.34072: L2-HR :0.43015: (Sim:0h2m44s) 
CPU  0 inst:   44000000 cyc:   26862461 now IPC :1.49431: AVG IPC :1.62280: L2-Pf-HR :0.33987: L2-HR :0.42965: (Sim:0h2m49s) 
CPU  0 inst:   45000001 cyc:   27436719 now IPC :1.74138: AVG IPC :1.62537: L2-Pf-HR :0.34071: L2-HR :0.43019: (Sim:0h2m53s) 
CPU  0 inst:   46000001 cyc:   28099413 now IPC :1.50899: AVG IPC :1.62253: L2-Pf-HR :0.33991: L2-HR :0.42973: (Sim:0h2m57s) 
CPU  0 inst:   47000000 cyc:   28680067 now IPC :1.72219: AVG IPC :1.62462: L2-Pf-HR :0.34052: L2-HR :0.43007: (Sim:0h3m1s) 
CPU  0 inst:   48000000 cyc:   29351850 now IPC :1.48858: AVG IPC :1.62140: L2-Pf-HR :0.33961: L2-HR :0.42950: (Sim:0h3m6s) 
CPU  0 inst:   49000001 cyc:   29924524 now IPC :1.74620: AVG IPC :1.62387: L2-Pf-HR :0.34039: L2-HR :0.42999: (Sim:0h3m10s) 
CPU  0 inst:   50000003 cyc:   30603035 now IPC :1.47382: AVG IPC :1.62043: L2-Pf-HR :0.33977: L2-HR :0.42963: (Sim:0h3m14s) 
CPU  0 inst:   51000000 cyc:   31172534 now IPC :1.75592: AVG IPC :1.62299: L2-Pf-HR :0.34009: L2-HR :0.42977: (Sim:0h3m19s) 
CPU  0 inst:   52000000 cyc:   31846835 now IPC :1.48302: AVG IPC :1.61993: L2-Pf-HR :0.34013: L2-HR :0.42985: (Sim:0h3m23s) 
CPU  0 inst:   53000002 cyc:   32420285 now IPC :1.74383: AVG IPC :1.62219: L2-Pf-HR :0.34032: L2-HR :0.42990: (Sim:0h3m27s) 
CPU  0 inst:   54000000 cyc:   33093747 now IPC :1.48486: AVG IPC :1.61931: L2-Pf-HR :0.34033: L2-HR :0.42992: (Sim:0h3m32s) 
CPU  0 inst:   55000000 cyc:   33673206 now IPC :1.72575: AVG IPC :1.62119: L2-Pf-HR :0.34054: L2-HR :0.43001: (Sim:0h3m36s) 
CPU  0 inst:   56000000 cyc:   34351544 now IPC :1.47419: AVG IPC :1.61821: L2-Pf-HR :0.34061: L2-HR :0.43007: (Sim:0h3m40s) 
CPU  0 inst:   57000001 cyc:   34918819 now IPC :1.76282: AVG IPC :1.62062: L2-Pf-HR :0.34071: L2-HR :0.43009: (Sim:0h3m45s) 
CPU  0 inst:   58000002 cyc:   35591957 now IPC :1.48558: AVG IPC :1.61800: L2-Pf-HR :0.34082: L2-HR :0.43020: (Sim:0h3m49s) 
CPU  0 inst:   59000003 cyc:   36175967 now IPC :1.71230: AVG IPC :1.61956: L2-Pf-HR :0.34080: L2-HR :0.43011: (Sim:0h3m53s) 
CPU  0 inst:   60000000 cyc:   36840203 now IPC :1.50548: AVG IPC :1.61745: L2-Pf-HR :0.34092: L2-HR :0.43024: (Sim:0h3m58s) 
CPU  0 inst:   61000001 cyc:   37412243 now IPC :1.74813: AVG IPC :1.61950: L2-Pf-HR :0.34122: L2-HR :0.43037: (Sim:0h4m0s) 
CPU  0 inst:   62000001 cyc:   38072217 now IPC :1.51521: AVG IPC :1.61765: L2-Pf-HR :0.34193: L2-HR :0.43099: (Sim:0h4m3s) 
CPU  0 inst:   63000000 cyc:   38663880 now IPC :1.69015: AVG IPC :1.61878: L2-Pf-HR :0.34141: L2-HR :0.43049: (Sim:0h4m6s) 
CPU  0 inst:   64000000 cyc:   39300949 now IPC :1.56969: AVG IPC :1.61797: L2-Pf-HR :0.34265: L2-HR :0.43116: (Sim:0h4m9s) 
CPU  0 inst:   65000000 cyc:   39917097 now IPC :1.62299: AVG IPC :1.61805: L2-Pf-HR :0.34209: L2-HR :0.43093: (Sim:0h4m14s) 
CPU  0 inst:   66000003 cyc:   40523517 now IPC :1.64903: AVG IPC :1.61852: L2-Pf-HR :0.34364: L2-HR :0.43176: (Sim:0h4m18s) 
CPU  0 inst:   67000001 cyc:   46254713 now IPC :0.17448: AVG IPC :1.43572: L2-Pf-HR :0.31794: L2-HR :0.43948: (Sim:0h4m32s) 
CPU  0 inst:   68000000 cyc:   50528544 now IPC :0.23398: AVG IPC :1.33206: L2-Pf-HR :0.30955: L2-HR :0.44075: (Sim:0h4m42s) 
CPU  0 inst:   69000001 cyc:   53969464 now IPC :0.29062: AVG IPC :1.26443: L2-Pf-HR :0.30763: L2-HR :0.44042: (Sim:0h4m51s) 
CPU  0 inst:   70000001 cyc:   57410648 now IPC :0.29060: AVG IPC :1.20505: L2-Pf-HR :0.30578: L2-HR :0.44010: (Sim:0h4m59s) 
CPU  0 inst:   71000001 cyc:   60851668 now IPC :0.29061: AVG IPC :1.15249: L2-Pf-HR :0.30398: L2-HR :0.43979: (Sim:0h5m8s) 
CPU  0 inst:   72000000 cyc:   64292637 now IPC :0.29062: AVG IPC :1.10565: L2-Pf-HR :0.30223: L2-HR :0.43949: (Sim:0h5m16s) 
CPU  0 inst:   73000001 cyc:   67733557 now IPC :0.29062: AVG IPC :1.06363: L2-Pf-HR :0.30054: L2-HR :0.43920: (Sim:0h5m25s) 
CPU  0 inst:   74000001 cyc:   71174737 now IPC :0.29060: AVG IPC :1.02574: L2-Pf-HR :0.29889: L2-HR :0.43891: (Sim:0h5m33s) 
CPU  0 inst:   75000001 cyc:   74615759 now IPC :0.29061: AVG IPC :0.99138: L2-Pf-HR :0.29729: L2-HR :0.43863: (Sim:0h5m42s) 
CPU  0 inst:   76000000 cyc:   78056726 now IPC :0.29062: AVG IPC :0.96010: L2-Pf-HR :0.29574: L2-HR :0.43836: (Sim:0h5m50s) 
CPU  0 inst:   77000001 cyc:   81497648 now IPC :0.29062: AVG IPC :0.93149: L2-Pf-HR :0.29423: L2-HR :0.43810: (Sim:0h5m57s) 
CPU  0 inst:   78000001 cyc:   84938826 now IPC :0.29060: AVG IPC :0.90522: L2-Pf-HR :0.29276: L2-HR :0.43784: (Sim:0h6m3s) 
CPU  0 inst:   79000001 cyc:   88379848 now IPC :0.29061: AVG IPC :0.88102: L2-Pf-HR :0.29133: L2-HR :0.43759: (Sim:0h6m10s) 
CPU  0 inst:   80000000 cyc:   91820815 now IPC :0.29062: AVG IPC :0.85866: L2-Pf-HR :0.28994: L2-HR :0.43735: (Sim:0h6m19s) 
CPU  0 inst:   81000001 cyc:   95261737 now IPC :0.29062: AVG IPC :0.83793: L2-Pf-HR :0.28858: L2-HR :0.43711: (Sim:0h6m27s) 
CPU  0 inst:   82000001 cyc:   98702915 now IPC :0.29060: AVG IPC :0.81865: L2-Pf-HR :0.28726: L2-HR :0.43688: (Sim:0h6m36s) 
CPU  0 inst:   83000001 cyc:  102143937 now IPC :0.29061: AVG IPC :0.80069: L2-Pf-HR :0.28597: L2-HR :0.43665: (Sim:0h6m44s) 
CPU  0 inst:   84000000 cyc:  105136832 now IPC :0.33412: AVG IPC :0.78728: L2-Pf-HR :0.28455: L2-HR :0.43611: (Sim:0h6m52s) 
CPU  0 inst:   85000001 cyc:  105756994 now IPC :1.61248: AVG IPC :0.79217: L2-Pf-HR :0.29024: L2-HR :0.43872: (Sim:0h6m56s) 
CPU  0 inst:   86000002 cyc:  106444001 now IPC :1.45559: AVG IPC :0.79649: L2-Pf-HR :0.29326: L2-HR :0.43997: (Sim:0h7m1s) 
CPU  0 inst:   87000003 cyc:  107038815 now IPC :1.68120: AVG IPC :0.80145: L2-Pf-HR :0.29860: L2-HR :0.44249: (Sim:0h7m5s) 
CPU  0 inst:   88000000 cyc:  107703049 now IPC :1.50549: AVG IPC :0.80583: L2-Pf-HR :0.30165: L2-HR :0.44386: (Sim:0h7m10s) 
CPU  0 inst:   89000002 cyc:  108332655 now IPC :1.58830: AVG IPC :0.81042: L2-Pf-HR :0.30624: L2-HR :0.44600: (Sim:0h7m14s) 
CPU  0 inst:   90000002 cyc:  108924238 now IPC :1.69038: AVG IPC :0.81525: L2-Pf-HR :0.31056: L2-HR :0.44790: (Sim:0h7m19s) 
CPU  0 inst:   91000000 cyc:  109576726 now IPC :1.53259: AVG IPC :0.81956: L2-Pf-HR :0.31322: L2-HR :0.44917: (Sim:0h7m23s) 
CPU  0 inst:   92000000 cyc:  110138419 now IPC :1.78033: AVG IPC :0.82450: L2-Pf-HR :0.31761: L2-HR :0.45123: (Sim:0h7m28s) 
CPU  0 inst:   93000002 cyc:  110816749 now IPC :1.47421: AVG IPC :0.82851: L2-Pf-HR :0.31982: L2-HR :0.45223: (Sim:0h7m32s) 
CPU  0 inst:   94000001 cyc:  111372923 now IPC :1.79800: AVG IPC :0.83340: L2-Pf-HR :0.32437: L2-HR :0.45454: (Sim:0h7m36s) 
CPU  0 inst:   95000003 cyc:  112044619 now IPC :1.48877: AVG IPC :0.83736: L2-Pf-HR :0.32590: L2-HR :0.45512: (Sim:0h7m41s) 
CPU  0 inst:   96000000 cyc:  112628893 now IPC :1.71152: AVG IPC :0.84193: L2-Pf-HR :0.33025: L2-HR :0.45727: (Sim:0h7m45s) 
CPU  0 inst:   97000001 cyc:  113298552 now IPC :1.49330: AVG IPC :0.84582: L2-Pf-HR :0.33161: L2-HR :0.45777: (Sim:0h7m50s) 
CPU  0 inst:   98000002 cyc:  113865654 now IPC :1.76335: AVG IPC :0.85043: L2-Pf-HR :0.33582: L2-HR :0.45988: (Sim:0h7m54s) 
CPU  0 inst:   99000003 cyc:  114534673 now IPC :1.49473: AVG IPC :0.85422: L2-Pf-HR :0.33703: L2-HR :0.46033: (Sim:0h7m59s) 
CPU  0 inst:  100000000 cyc:  115102286 now IPC :1.76176: AVG IPC :0.85874: L2-Pf-HR :0.34108: L2-HR :0.46233: (Sim:0h8m3s) 
CPU  0 inst:  101000003 cyc:  115782217 now IPC :1.47074: AVG IPC :0.86236: L2-Pf-HR :0.34215: L2-HR :0.46275: (Sim:0h8m7s) 
CPU  0 inst:  102000001 cyc:  116329633 now IPC :1.82676: AVG IPC :0.86694: L2-Pf-HR :0.34604: L2-HR :0.46476: (Sim:0h8m12s) 
CPU  0 inst:  103000001 cyc:  117005461 now IPC :1.47967: AVG IPC :0.87051: L2-Pf-HR :0.34715: L2-HR :0.46519: (Sim:0h8m16s) 
CPU  0 inst:  104000000 cyc:  117569654 now IPC :1.77244: AVG IPC :0.87487: L2-Pf-HR :0.35075: L2-HR :0.46700: (Sim:0h8m19s) 
CPU  0 inst:  105000000 cyc:  118242484 now IPC :1.48626: AVG IPC :0.87838: L2-Pf-HR :0.35188: L2-HR :0.46748: (Sim:0h8m22s) 
CPU  0 inst:  106000001 cyc:  118813039 now IPC :1.75268: AVG IPC :0.88261: L2-Pf-HR :0.35519: L2-HR :0.46912: (Sim:0h8m25s) 
CPU  0 inst:  107000002 cyc:  119474448 now IPC :1.51193: AVG IPC :0.88613: L2-Pf-HR :0.35636: L2-HR :0.46964: (Sim:0h8m28s) 
CPU  0 inst:  108000000 cyc:  120037100 now IPC :1.77729: AVG IPC :0.89034: L2-Pf-HR :0.35938: L2-HR :0.47119: (Sim:0h8m30s) 
CPU  0 inst:  109000000 cyc:  120661319 now IPC :1.60200: AVG IPC :0.89405: L2-Pf-HR :0.36091: L2-HR :0.47190: (Sim:0h8m33s) 
CPU  0 inst:  110000000 cyc:  121272121 now IPC :1.63719: AVG IPC :0.89782: L2-Pf-HR :0.36328: L2-HR :0.47308: (Sim:0h8m36s) 
CPU  0 inst:  111000000 cyc:  121843491 now IPC :1.75018: AVG IPC :0.90185: L2-Pf-HR :0.36580: L2-HR :0.47428: (Sim:0h8m39s) 
CPU  0 inst:  112000000 cyc:  122505286 now IPC :1.51104: AVG IPC :0.90517: L2-Pf-HR :0.36701: L2-HR :0.47492: (Sim:0h8m42s) 
CPU  0 inst:  113000000 cyc:  123066481 now IPC :1.78191: AVG IPC :0.90920: L2-Pf-HR :0.36972: L2-HR :0.47631: (Sim:0h8m45s) 
CPU  0 inst:  114000000 cyc:  123739853 now IPC :1.48506: AVG IPC :0.91236: L2-Pf-HR :0.37057: L2-HR :0.47669: (Sim:0h8m48s) 
CPU  0 inst:  115000002 cyc:  124293804 now IPC :1.80522: AVG IPC :0.91637: L2-Pf-HR :0.37344: L2-HR :0.47824: (Sim:0h8m51s) 
CPU  0 inst:  116000000 cyc:  124960352 now IPC :1.50026: AVG IPC :0.91951: L2-Pf-HR :0.37397: L2-HR :0.47841: (Sim:0h8m54s) 
CPU  0 inst:  117000002 cyc:  125532183 now IPC :1.74877: AVG IPC :0.92332: L2-Pf-HR :0.37675: L2-HR :0.47989: (Sim:0h8m56s) 
CPU  0 inst:  118000002 cyc:  126208052 now IPC :1.47958: AVG IPC :0.92632: L2-Pf-HR :0.37723: L2-HR :0.48003: (Sim:0h9m0s) 
CPU  0 inst:  119000000 cyc:  126776347 now IPC :1.75965: AVG IPC :0.93008: L2-Pf-HR :0.37996: L2-HR :0.48147: (Sim:0h9m2s) 
CPU  0 inst:  120000000 cyc:  127450507 now IPC :1.48333: AVG IPC :0.93303: L2-Pf-HR :0.38039: L2-HR :0.48162: (Sim:0h9m6s) 
CPU  0 inst:  121000003 cyc:  128022562 now IPC :1.74809: AVG IPC :0.93670: L2-Pf-HR :0.38301: L2-HR :0.48300: (Sim:0h9m10s) 
CPU  0 inst:  122000000 cyc:  128682268 now IPC :1.51582: AVG IPC :0.93970: L2-Pf-HR :0.38339: L2-HR :0.48315: (Sim:0h9m13s) 
CPU  0 inst:  123000002 cyc:  129250782 now IPC :1.75898: AVG IPC :0.94333: L2-Pf-HR :0.38596: L2-HR :0.48452: (Sim:0h9m15s) 
CPU  0 inst:  124000000 cyc:  129926143 now IPC :1.48069: AVG IPC :0.94614: L2-Pf-HR :0.38640: L2-HR :0.48469: (Sim:0h9m18s) 
CPU  0 inst:  125000002 cyc:  130496519 now IPC :1.75323: AVG IPC :0.94970: L2-Pf-HR :0.38877: L2-HR :0.48595: (Sim:0h9m21s) 
CPU  0 inst:  126000002 cyc:  131163546 now IPC :1.49919: AVG IPC :0.95251: L2-Pf-HR :0.38925: L2-HR :0.48616: (Sim:0h9m24s) 
CPU  0 inst:  127000002 cyc:  131736338 now IPC :1.74583: AVG IPC :0.95599: L2-Pf-HR :0.39142: L2-HR :0.48730: (Sim:0h9m27s) 
CPU  0 inst:  128000000 cyc:  132402142 now IPC :1.50194: AVG IPC :0.95875: L2-Pf-HR :0.39196: L2-HR :0.48754: (Sim:0h9m30s) 
CPU  0 inst:  129000002 cyc:  132967202 now IPC :1.76973: AVG IPC :0.96222: L2-Pf-HR :0.39395: L2-HR :0.48860: (Sim:0h9m33s) 
CPU  0 inst:  130000003 cyc:  133580639 now IPC :1.63016: AVG IPC :0.96531: L2-Pf-HR :0.39499: L2-HR :0.48911: (Sim:0h9m36s) 
CPU  0 inst:  131000003 cyc:  134207540 now IPC :1.59515: AVG IPC :0.96828: L2-Pf-HR :0.39636: L2-HR :0.48984: (Sim:0h9m39s) 
CPU  0 inst:  132000000 cyc:  134770433 now IPC :1.77653: AVG IPC :0.97168: L2-Pf-HR :0.39804: L2-HR :0.49070: (Sim:0h9m43s) 
CPU  0 inst:  133000002 cyc:  135448910 now IPC :1.47389: AVG IPC :0.97421: L2-Pf-HR :0.39867: L2-HR :0.49104: (Sim:0h9m47s) 
CPU  0 inst:  134000000 cyc:  136006600 now IPC :1.79311: AVG IPC :0.97759: L2-Pf-HR :0.40059: L2-HR :0.49209: (Sim:0h9m52s) 
CPU  0 inst:  135000002 cyc:  136684199 now IPC :1.47580: AVG IPC :0.98008: L2-Pf-HR :0.40091: L2-HR :0.49220: (Sim:0h9m57s) 
CPU  0 inst:  136000000 cyc:  137238675 now IPC :1.80350: AVG IPC :0.98343: L2-Pf-HR :0.40288: L2-HR :0.49333: (Sim:0h10m1s) 
CPU  0 inst:  137000003 cyc:  137906958 now IPC :1.49638: AVG IPC :0.98594: L2-Pf-HR :0.40304: L2-HR :0.49333: (Sim:0h10m5s) 
CPU  0 inst:  138000001 cyc:  138482723 now IPC :1.73682: AVG IPC :0.98908: L2-Pf-HR :0.40501: L2-HR :0.49440: (Sim:0h10m10s) 
CPU  0 inst:  139000003 cyc:  139153120 now IPC :1.49166: AVG IPC :0.99152: L2-Pf-HR :0.40513: L2-HR :0.49440: (Sim:0h10m14s) 
CPU  0 inst:  140000000 cyc:  139722672 now IPC :1.75576: AVG IPC :0.99466: L2-Pf-HR :0.40704: L2-HR :0.49543: (Sim:0h10m19s) 
CPU  0 inst:  141000002 cyc:  140394711 now IPC :1.48801: AVG IPC :0.99703: L2-Pf-HR :0.40718: L2-HR :0.49544: (Sim:0h10m23s) 
CPU  0 inst:  142000000 cyc:  140946793 now IPC :1.81132: AVG IPC :1.00025: L2-Pf-HR :0.40907: L2-HR :0.49650: (Sim:0h10m27s) 
CPU  0 inst:  143000001 cyc:  141626249 now IPC :1.47177: AVG IPC :1.00252: L2-Pf-HR :0.40912: L2-HR :0.49647: (Sim:0h10m32s) 
CPU  0 inst:  144000000 cyc:  142192716 now IPC :1.76533: AVG IPC :1.00558: L2-Pf-HR :0.41094: L2-HR :0.49746: (Sim:0h10m36s) 
CPU  0 inst:  145000000 cyc:  142855691 now IPC :1.50835: AVG IPC :1.00793: L2-Pf-HR :0.41107: L2-HR :0.49748: (Sim:0h10m41s) 
CPU  0 inst:  146000003 cyc:  143432730 now IPC :1.73299: AVG IPC :1.01087: L2-Pf-HR :0.41277: L2-HR :0.49840: (Sim:0h10m45s) 
CPU  0 inst:  147000003 cyc:  144092778 now IPC :1.51504: AVG IPC :1.01320: L2-Pf-HR :0.41294: L2-HR :0.49846: (Sim:0h10m50s) 
CPU  0 inst:  148000000 cyc:  144676248 now IPC :1.71388: AVG IPC :1.01604: L2-Pf-HR :0.41449: L2-HR :0.49929: (Sim:0h10m54s) 
Finished CPU 0 instr: 146000003 cyc: 143694997 AVG IPC: 1.01604 (Sim time: 0h10m54s)

ChampSim completed all CPUs

[ROI Statistics]
Core_0_instructions 146000003
Core_0_cycles 143694997
Core_0_IPC 1.01604

Core_0_branch_prediction_accuracy 97.68931
Core_0_branch_MPKI 0.56912
Core_0_average_ROB_occupancy_at_mispredict 232.92892

Core_0_L1D_total_access 42169339
Core_0_L1D_total_hit 38665344 L1D_total_Hit Ratio: 0.91691
Core_0_L1D_total_miss 3503995
Core_0_L1D_loads 33380068
Core_0_L1D_load_hit 32474755 L1D_load_Hit Ratio: 0.97288
Core_0_L1D_load_miss 905313
Core_0_L1D_RFOs 3242710
Core_0_L1D_RFO_hit 3204966 L1D_RFO_Hit Ratio: 0.98836
Core_0_L1D_RFO_miss 37744
Core_0_L1D_prefetches 5546561
Core_0_L1D_prefetch_hit 2985623 L1D_prefetch_Hit Ratio: 0.53828
Core_0_L1D_prefetch_miss 2560938
Core_0_L1D_writebacks 0
Core_0_L1D_writeback_hit 0 L1D_writeback_Hit Ratio: -nan
Core_0_L1D_writeback_miss 0
Core_0_L1D_prefetch_requested 6092281
Core_0_L1D_prefetch_issued 6092281
Core_0_L1D_prefetch_useful 2571573 L1D_Useful Ratio: 0.42210
Core_0_L1D_prefetch_useless 15164
Core_0_L1D_prefetch_late 271631
Core_0_L1D_average_miss_latency 6251550.63363

Core_0_L1I_total_access 32855728
Core_0_L1I_total_hit 32850906 L1I_total_Hit Ratio: 0.99985
Core_0_L1I_total_miss 4822
Core_0_L1I_loads 32855728
Core_0_L1I_load_hit 32850906 L1I_load_Hit Ratio: 0.99985
Core_0_L1I_load_miss 4822
Core_0_L1I_RFOs 0
Core_0_L1I_RFO_hit 0 L1I_RFO_Hit Ratio: -nan
Core_0_L1I_RFO_miss 0
Core_0_L1I_prefetches 0
Core_0_L1I_prefetch_hit 0 L1I_prefetch_Hit Ratio: -nan
Core_0_L1I_prefetch_miss 0
Core_0_L1I_writebacks 0
Core_0_L1I_writeback_hit 0 L1I_writeback_Hit Ratio: -nan
Core_0_L1I_writeback_miss 0
Core_0_L1I_prefetch_requested 0
Core_0_L1I_prefetch_issued 0
Core_0_L1I_prefetch_useful 0 L1I_Useful Ratio: -nan
Core_0_L1I_prefetch_useless 0
Core_0_L1I_prefetch_late 0
Core_0_L1I_average_miss_latency 236.76192

Core_0_L2C_total_access 4784758
Core_0_L2C_total_hit 2388972 L2C_total_Hit Ratio: 0.49929
Core_0_L2C_total_miss 2395786
Core_0_L2C_loads 639048
Core_0_L2C_load_hit 239194 L2C_load_Hit Ratio: 0.37430
Core_0_L2C_load_miss 399854
Core_0_L2C_RFOs 37726
Core_0_L2C_RFO_hit 16361 L2C_RFO_Hit Ratio: 0.43368
Core_0_L2C_RFO_miss 21365
Core_0_L2C_prefetches 3340696
Core_0_L2C_prefetch_hit 1384687 L2C_prefetch_Hit Ratio: 0.41449
Core_0_L2C_prefetch_miss 1956009
Core_0_L2C_writebacks 767288
Core_0_L2C_writeback_hit 748730 L2C_writeback_Hit Ratio: 0.97581
Core_0_L2C_writeback_miss 18558
Core_0_L2C_prefetch_requested 989083
Core_0_L2C_prefetch_issued 989083
Core_0_L2C_prefetch_useful 74622 L2C_Useful Ratio: 0.07545
Core_0_L2C_prefetch_useless 1895890
Core_0_L2C_prefetch_late 31088
Core_0_L2C_average_miss_latency 154.53713

Core_0_LLC_total_access 3109970
Core_0_LLC_total_hit 2198684 LLC_total_Hit Ratio: 0.70698
Core_0_LLC_total_miss 911286
Core_0_LLC_loads 368810
Core_0_LLC_load_hit 182996 LLC_load_Hit Ratio: 0.49618
Core_0_LLC_load_miss 185814
Core_0_LLC_RFOs 21365
Core_0_LLC_RFO_hit 12335 LLC_RFO_Hit Ratio: 0.57735
Core_0_LLC_RFO_miss 9030
Core_0_LLC_prefetches 1987050
Core_0_LLC_prefetch_hit 1271170 LLC_prefetch_Hit Ratio: 0.63973
Core_0_LLC_prefetch_miss 715880
Core_0_LLC_writebacks 732745
Core_0_LLC_writeback_hit 732183 LLC_writeback_Hit Ratio: 0.99923
Core_0_LLC_writeback_miss 562
Core_0_LLC_prefetch_requested 0
Core_0_LLC_prefetch_issued 0
Core_0_LLC_prefetch_useful 73571 LLC_Useful Ratio: inf
Core_0_LLC_prefetch_useless 627914
Core_0_LLC_prefetch_late 0
Core_0_LLC_average_miss_latency 329.41190

Core_0_major_page_fault 0
Core_0_minor_page_fault 9156

[Bingo] PHT Access: 339283
[Bingo] PHT Hit PC+Addr: 188805
[Bingo] PHT Hit PC+Offs: 138125
[Bingo] PHT Miss: 12353
[Bingo] Prefetch PC+Addr: 0
[Bingo] Prefetch PC+Offs: 0
[Bingo] Useful PC+Addr: 0
[Bingo] Useful PC+Offs: 0
[Bingo] Useless PC+Addr: 0
[Bingo] Useless PC+Offs: 0
[Bingo] L1 Prefetch per Region: 20.50034
[Bingo] L2 Prefetch per Region: 0.01118
[Bingo] L3 Prefetch per Region: 0.00000
[Bingo] No Prefetch per Region: 11.48848
[Bingo] Number of Voters Mean: 14.39192
[Bingo] Number of Voters SD: 3.54213
PHT read accesses: 3961377
PHT write accesses: 326137
AT read accesses: 32098261
AT write accesses: 32098258
FT read accesses: 3695150
FT write accesses: 339283
PS read accesses: 2550653
PS write accesses: 326930
PHT tag read accesses: 11359792
PHT tag write accesses: 514942
AT tag read accesses: 602570683
AT tag write accesses: 32424395
FT tag read accesses: 99365663
FT tag write accesses: 2356429
PS tag read accesses: 546098843
PS tag write accesses: 2866476
[Bingo2] PHT Access: 140851
[Bingo2] PHT Hit PC+Addr: 8472
[Bingo2] PHT Hit PC+Offs: 84748
[Bingo2] PHT Miss: 47631
[Bingo2] Prefetch PC+Addr: 0
[Bingo2] Prefetch PC+Offs: 0
[Bingo2] Useful PC+Addr: 0
[Bingo2] Useful PC+Offs: 0
[Bingo2] Useless PC+Addr: 0
[Bingo2] Useless PC+Offs: 0
[Bingo2] L1 Prefetch per Region: 0.00000
[Bingo2] L2 Prefetch per Region: 11.78081
[Bingo2] L3 Prefetch per Region: 0.00000
[Bingo2] No Prefetch per Region: 20.21919
[Bingo2] Number of Voters Mean: 11.57503
[Bingo2] Number of Voters SD: 5.50415
PHT read accesses: 2184025
PHT write accesses: 79782
AT read accesses: 570505
AT write accesses: 572545
FT read accesses: 290831
FT write accesses: 140851
PS read accesses: 196981
PS write accesses: 93220
PHT tag read accesses: 4651495
PHT tag write accesses: 88254
AT tag read accesses: 51686072
AT tag write accesses: 650282
FT tag read accesses: 46610313
FT tag write accesses: 346476
PS tag read accesses: 13527824
PS tag write accesses: 278393
Channel_0_RQ_row_buffer_hit 614898
Channel_0_RQ_row_buffer_miss 295826
Channel_0_WQ_row_buffer_hit 213163
Channel_0_WQ_row_buffer_miss 238741
Channel_0_WQ_full 0
Channel_0_dbus_congested 994037

avg_congested_cycle 11

EzSearch AVG IPC :1.01604: L2-Pf-HR :0.41449 : L2-HR :0.49929 Uful:0.07545
     > Finished combination: TraceType=770-tot Sim:146000000 Prefetcher=L2bingo_dpc3_PHT1k L1=bingo_dpc3_PHT1k
