TRACE: [662000000][OPT-350M]_[h16][s1024][d64] Warmup: 2000000 NumTraces: 662000000
L1:berti:L2:berti
*************************************************
   ChampSim Multicore Out-of-Order Simulator
   Last compiled: Oct 26 2024 15:00:51
*************************************************

trace_0 770-tot_memTraces_v3/memTraces[662000000][OPT-350M]_[h16][s1024][d64].champsim.xz
CPU 0 L1D Berti prefetcher
CPU 0 L2C Berti prefetcher
MAIN.cc ln 751 stats print skipped
CPU  0 inst:    1000003 cyc:     503658 now IPC :1.98548: AVG IPC :1.98548: L2-Pf-HR :0.63471: L2-HR :0.67202: (Sim:0h0m7s) 
CPU  0 inst:    2000000 cyc:     979551 now IPC :2.10131: AVG IPC :2.04175: L2-Pf-HR :0.67017: L2-HR :0.70513: (Sim:0h0m14s) 

Warmup complete CPU  0 instructions:    2000001 cycles:     979552 (Simulation time: 0 hr 0 min 14 sec) 

CPU  0 inst:    3000000 cyc:    1516789 now IPC :1.86137: AVG IPC :1.86137: L2-Pf-HR :0.67173: L2-HR :0.72027: (Sim:0h0m19s) 
CPU  0 inst:    4000000 cyc:    2051282 now IPC :1.87093: AVG IPC :1.86614: L2-Pf-HR :0.67252: L2-HR :0.72236: (Sim:0h0m25s) 
CPU  0 inst:    5000002 cyc:    2587574 now IPC :1.86466: AVG IPC :1.86565: L2-Pf-HR :0.66774: L2-HR :0.71866: (Sim:0h0m32s) 
CPU  0 inst:    6000001 cyc:    3132203 now IPC :1.83611: AVG IPC :1.85817: L2-Pf-HR :0.67262: L2-HR :0.72246: (Sim:0h0m39s) 
CPU  0 inst:    7000001 cyc:    3927064 now IPC :1.25808: AVG IPC :1.69635: L2-Pf-HR :0.67346: L2-HR :0.72209: (Sim:0h0m47s) 
CPU  0 inst:    8000000 cyc:    4489882 now IPC :1.77677: AVG IPC :1.70924: L2-Pf-HR :0.67514: L2-HR :0.72529: (Sim:0h0m55s) 
CPU  0 inst:    9000001 cyc:    5035442 now IPC :1.83298: AVG IPC :1.72589: L2-Pf-HR :0.67607: L2-HR :0.72802: (Sim:0h1m3s) 
CPU  0 inst:   10000001 cyc:    5586484 now IPC :1.81474: AVG IPC :1.73651: L2-Pf-HR :0.67758: L2-HR :0.73039: (Sim:0h1m11s) 
CPU  0 inst:   11000000 cyc:    6132312 now IPC :1.83208: AVG IPC :1.74664: L2-Pf-HR :0.67654: L2-HR :0.73088: (Sim:0h1m19s) 
CPU  0 inst:   12000000 cyc:    6662696 now IPC :1.88543: AVG IPC :1.75959: L2-Pf-HR :0.67739: L2-HR :0.73272: (Sim:0h1m27s) 
CPU  0 inst:   13000000 cyc:    7337809 now IPC :1.48123: AVG IPC :1.73003: L2-Pf-HR :0.68060: L2-HR :0.73473: (Sim:0h1m35s) 
CPU  0 inst:   14000003 cyc:    7890566 now IPC :1.80912: AVG IPC :1.73636: L2-Pf-HR :0.68224: L2-HR :0.73582: (Sim:0h1m42s) 
CPU  0 inst:   15000003 cyc:    8437706 now IPC :1.82769: AVG IPC :1.74306: L2-Pf-HR :0.68395: L2-HR :0.73673: (Sim:0h1m49s) 
CPU  0 inst:   16000000 cyc:    8968336 now IPC :1.88455: AVG IPC :1.75246: L2-Pf-HR :0.68460: L2-HR :0.73750: (Sim:0h1m57s) 
CPU  0 inst:   17000001 cyc:    9789396 now IPC :1.21794: AVG IPC :1.70264: L2-Pf-HR :0.68348: L2-HR :0.73518: (Sim:0h2m4s) 
CPU  0 inst:   18000000 cyc:   10415265 now IPC :1.59778: AVG IPC :1.69569: L2-Pf-HR :0.68187: L2-HR :0.73343: (Sim:0h2m11s) 
CPU  0 inst:   19000000 cyc:   11001798 now IPC :1.70493: AVG IPC :1.69623: L2-Pf-HR :0.68063: L2-HR :0.73206: (Sim:0h2m18s) 
CPU  0 inst:   20000000 cyc:   11578606 now IPC :1.73368: AVG IPC :1.69826: L2-Pf-HR :0.67954: L2-HR :0.73101: (Sim:0h2m25s) 
CPU  0 inst:   21000001 cyc:   12154928 now IPC :1.73514: AVG IPC :1.70017: L2-Pf-HR :0.67886: L2-HR :0.73030: (Sim:0h2m31s) 
CPU  0 inst:   22000003 cyc:   12724251 now IPC :1.75648: AVG IPC :1.70290: L2-Pf-HR :0.67843: L2-HR :0.72984: (Sim:0h2m38s) 
CPU  0 inst:   23000002 cyc:   13487719 now IPC :1.30981: AVG IPC :1.67890: L2-Pf-HR :0.67841: L2-HR :0.72944: (Sim:0h2m47s) 
CPU  0 inst:   24000000 cyc:   14081667 now IPC :1.68365: AVG IPC :1.67912: L2-Pf-HR :0.67848: L2-HR :0.72972: (Sim:0h2m54s) 
CPU  0 inst:   25000000 cyc:   14635852 now IPC :1.80445: AVG IPC :1.68420: L2-Pf-HR :0.67871: L2-HR :0.73017: (Sim:0h3m2s) 
CPU  0 inst:   26000002 cyc:   15186632 now IPC :1.81561: AVG IPC :1.68930: L2-Pf-HR :0.67898: L2-HR :0.73090: (Sim:0h3m10s) 
CPU  0 inst:   27000000 cyc:   15738305 now IPC :1.81266: AVG IPC :1.69391: L2-Pf-HR :0.67889: L2-HR :0.73123: (Sim:0h3m18s) 
CPU  0 inst:   28000000 cyc:   16276619 now IPC :1.85765: AVG IPC :1.69967: L2-Pf-HR :0.67887: L2-HR :0.73166: (Sim:0h3m27s) 
CPU  0 inst:   29000000 cyc:   16961372 now IPC :1.46038: AVG IPC :1.68942: L2-Pf-HR :0.68031: L2-HR :0.73269: (Sim:0h3m34s) 
CPU  0 inst:   30000001 cyc:   17511747 now IPC :1.81694: AVG IPC :1.69367: L2-Pf-HR :0.68104: L2-HR :0.73315: (Sim:0h3m41s) 
CPU  0 inst:   31000000 cyc:   18066890 now IPC :1.80134: AVG IPC :1.69716: L2-Pf-HR :0.68164: L2-HR :0.73370: (Sim:0h3m48s) 
CPU  0 inst:   32000000 cyc:   18611067 now IPC :1.83764: AVG IPC :1.70150: L2-Pf-HR :0.68215: L2-HR :0.73409: (Sim:0h3m54s) 
CPU  0 inst:   33000002 cyc:   19398900 now IPC :1.26931: AVG IPC :1.68301: L2-Pf-HR :0.68200: L2-HR :0.73343: (Sim:0h4m1s) 
CPU  0 inst:   34000001 cyc:   20020126 now IPC :1.60972: AVG IPC :1.68062: L2-Pf-HR :0.68157: L2-HR :0.73287: (Sim:0h4m8s) 
CPU  0 inst:   35000001 cyc:   20595573 now IPC :1.73778: AVG IPC :1.68230: L2-Pf-HR :0.68102: L2-HR :0.73223: (Sim:0h4m15s) 
CPU  0 inst:   36000000 cyc:   21153844 now IPC :1.79124: AVG IPC :1.68531: L2-Pf-HR :0.68038: L2-HR :0.73166: (Sim:0h4m22s) 
CPU  0 inst:   37000001 cyc:   21716695 now IPC :1.77667: AVG IPC :1.68779: L2-Pf-HR :0.67987: L2-HR :0.73119: (Sim:0h4m29s) 
CPU  0 inst:   38000001 cyc:   22273188 now IPC :1.79697: AVG IPC :1.69065: L2-Pf-HR :0.67946: L2-HR :0.73078: (Sim:0h4m36s) 
CPU  0 inst:   39000001 cyc:   23019347 now IPC :1.34020: AVG IPC :1.67878: L2-Pf-HR :0.67936: L2-HR :0.73049: (Sim:0h4m44s) 
CPU  0 inst:   40000000 cyc:   23612284 now IPC :1.68652: AVG IPC :1.67898: L2-Pf-HR :0.67933: L2-HR :0.73057: (Sim:0h4m52s) 
CPU  0 inst:   41000001 cyc:   24158046 now IPC :1.83230: AVG IPC :1.68259: L2-Pf-HR :0.67926: L2-HR :0.73082: (Sim:0h5m0s) 
CPU  0 inst:   42000002 cyc:   24715077 now IPC :1.79523: AVG IPC :1.68524: L2-Pf-HR :0.67945: L2-HR :0.73114: (Sim:0h5m7s) 
CPU  0 inst:   43000003 cyc:   25271906 now IPC :1.79589: AVG IPC :1.68777: L2-Pf-HR :0.67953: L2-HR :0.73138: (Sim:0h5m15s) 
CPU  0 inst:   44000000 cyc:   25805573 now IPC :1.87382: AVG IPC :1.69177: L2-Pf-HR :0.67963: L2-HR :0.73173: (Sim:0h5m23s) 
CPU  0 inst:   45000002 cyc:   26472288 now IPC :1.49989: AVG IPC :1.68676: L2-Pf-HR :0.68026: L2-HR :0.73226: (Sim:0h5m32s) 
CPU  0 inst:   46000000 cyc:   27028516 now IPC :1.79782: AVG IPC :1.68913: L2-Pf-HR :0.68068: L2-HR :0.73259: (Sim:0h5m40s) 
CPU  0 inst:   47000001 cyc:   27567427 now IPC :1.85560: AVG IPC :1.69250: L2-Pf-HR :0.68105: L2-HR :0.73300: (Sim:0h5m47s) 
CPU  0 inst:   48000000 cyc:   28105883 now IPC :1.85716: AVG IPC :1.69577: L2-Pf-HR :0.68139: L2-HR :0.73320: (Sim:0h5m54s) 
CPU  0 inst:   49000003 cyc:   28866262 now IPC :1.31514: AVG IPC :1.68539: L2-Pf-HR :0.68129: L2-HR :0.73283: (Sim:0h6m1s) 
CPU  0 inst:   50000000 cyc:   29491636 now IPC :1.59904: AVG IPC :1.68350: L2-Pf-HR :0.68098: L2-HR :0.73245: (Sim:0h6m7s) 
CPU  0 inst:   51000002 cyc:   30065967 now IPC :1.74116: AVG IPC :1.68464: L2-Pf-HR :0.68075: L2-HR :0.73212: (Sim:0h6m14s) 
CPU  0 inst:   52000000 cyc:   30643203 now IPC :1.73239: AVG IPC :1.68556: L2-Pf-HR :0.68024: L2-HR :0.73166: (Sim:0h6m21s) 
CPU  0 inst:   53000000 cyc:   31198578 now IPC :1.80059: AVG IPC :1.68768: L2-Pf-HR :0.67972: L2-HR :0.73122: (Sim:0h6m28s) 
CPU  0 inst:   54000003 cyc:   31758446 now IPC :1.78614: AVG IPC :1.68947: L2-Pf-HR :0.67932: L2-HR :0.73080: (Sim:0h6m35s) 
CPU  0 inst:   55000001 cyc:   32473526 now IPC :1.39844: AVG IPC :1.68286: L2-Pf-HR :0.67928: L2-HR :0.73060: (Sim:0h6m42s) 
CPU  0 inst:   56000000 cyc:   33093784 now IPC :1.61223: AVG IPC :1.68150: L2-Pf-HR :0.67934: L2-HR :0.73067: (Sim:0h6m49s) 
CPU  0 inst:   57000003 cyc:   33648462 now IPC :1.80285: AVG IPC :1.68356: L2-Pf-HR :0.67934: L2-HR :0.73083: (Sim:0h6m55s) 
CPU  0 inst:   58000001 cyc:   34196566 now IPC :1.82447: AVG IPC :1.68588: L2-Pf-HR :0.67942: L2-HR :0.73112: (Sim:0h7m3s) 
CPU  0 inst:   59000003 cyc:   34740091 now IPC :1.83985: AVG IPC :1.68836: L2-Pf-HR :0.67937: L2-HR :0.73130: (Sim:0h7m11s) 
CPU  0 inst:   60000000 cyc:   35282407 now IPC :1.84394: AVG IPC :1.69082: L2-Pf-HR :0.67928: L2-HR :0.73145: (Sim:0h7m20s) 
CPU  0 inst:   61000002 cyc:   35930084 now IPC :1.54398: AVG IPC :1.68810: L2-Pf-HR :0.67969: L2-HR :0.73182: (Sim:0h7m28s) 
CPU  0 inst:   62000000 cyc:   36499709 now IPC :1.75554: AVG IPC :1.68918: L2-Pf-HR :0.67998: L2-HR :0.73205: (Sim:0h7m35s) 
CPU  0 inst:   63000002 cyc:   37045797 now IPC :1.83121: AVG IPC :1.69133: L2-Pf-HR :0.68028: L2-HR :0.73236: (Sim:0h7m43s) 
CPU  0 inst:   64000000 cyc:   37591706 now IPC :1.83180: AVG IPC :1.69343: L2-Pf-HR :0.68064: L2-HR :0.73258: (Sim:0h7m50s) 
CPU  0 inst:   65000003 cyc:   38317340 now IPC :1.37811: AVG IPC :1.68730: L2-Pf-HR :0.68066: L2-HR :0.73246: (Sim:0h7m57s) 
CPU  0 inst:   66000002 cyc:   38961540 now IPC :1.55231: AVG IPC :1.68501: L2-Pf-HR :0.68052: L2-HR :0.73222: (Sim:0h8m4s) 
CPU  0 inst:   67000000 cyc:   39535373 now IPC :1.74266: AVG IPC :1.68587: L2-Pf-HR :0.68031: L2-HR :0.73196: (Sim:0h8m11s) 
CPU  0 inst:   68000000 cyc:   40099261 now IPC :1.77340: AVG IPC :1.68713: L2-Pf-HR :0.68014: L2-HR :0.73176: (Sim:0h8m17s) 
CPU  0 inst:   69000003 cyc:   40665982 now IPC :1.76454: AVG IPC :1.68823: L2-Pf-HR :0.67986: L2-HR :0.73152: (Sim:0h8m24s) 
CPU  0 inst:   70000001 cyc:   41216352 now IPC :1.81696: AVG IPC :1.69000: L2-Pf-HR :0.67957: L2-HR :0.73123: (Sim:0h8m31s) 
CPU  0 inst:   71000003 cyc:   41921012 now IPC :1.41913: AVG IPC :1.68533: L2-Pf-HR :0.67956: L2-HR :0.73105: (Sim:0h8m38s) 
CPU  0 inst:   72000000 cyc:   42565573 now IPC :1.55144: AVG IPC :1.68326: L2-Pf-HR :0.67962: L2-HR :0.73113: (Sim:0h8m47s) 
CPU  0 inst:   73000003 cyc:   43123235 now IPC :1.79321: AVG IPC :1.68471: L2-Pf-HR :0.67963: L2-HR :0.73126: (Sim:0h8m54s) 
CPU  0 inst:   74000002 cyc:   43671734 now IPC :1.82316: AVG IPC :1.68649: L2-Pf-HR :0.67965: L2-HR :0.73149: (Sim:0h9m2s) 
CPU  0 inst:   75000000 cyc:   44231293 now IPC :1.78712: AVG IPC :1.68779: L2-Pf-HR :0.67977: L2-HR :0.73166: (Sim:0h9m10s) 
CPU  0 inst:   76000000 cyc:   44768573 now IPC :1.86123: AVG IPC :1.68992: L2-Pf-HR :0.67973: L2-HR :0.73176: (Sim:0h9m18s) 
CPU  0 inst:   77000001 cyc:   45402368 now IPC :1.57780: AVG IPC :1.68832: L2-Pf-HR :0.68001: L2-HR :0.73205: (Sim:0h9m27s) 
CPU  0 inst:   78000000 cyc:   45997761 now IPC :1.67956: AVG IPC :1.68821: L2-Pf-HR :0.68023: L2-HR :0.73223: (Sim:0h9m35s) 
CPU  0 inst:   79000003 cyc:   46548414 now IPC :1.81603: AVG IPC :1.68975: L2-Pf-HR :0.68059: L2-HR :0.73252: (Sim:0h9m42s) 
CPU  0 inst:   80000000 cyc:   47088078 now IPC :1.85300: AVG IPC :1.69166: L2-Pf-HR :0.68080: L2-HR :0.73268: (Sim:0h9m49s) 
CPU  0 inst:   81000000 cyc:   47787973 now IPC :1.42879: AVG IPC :1.68773: L2-Pf-HR :0.68079: L2-HR :0.73258: (Sim:0h9m57s) 
CPU  0 inst:   82000000 cyc:   48453566 now IPC :1.50242: AVG IPC :1.68513: L2-Pf-HR :0.68058: L2-HR :0.73229: (Sim:0h10m4s) 
CPU  0 inst:   83000001 cyc:   49024118 now IPC :1.75269: AVG IPC :1.68593: L2-Pf-HR :0.68034: L2-HR :0.73202: (Sim:0h10m11s) 
CPU  0 inst:   84000000 cyc:   49584705 now IPC :1.78384: AVG IPC :1.68706: L2-Pf-HR :0.68004: L2-HR :0.73176: (Sim:0h10m17s) 
CPU  0 inst:   85000000 cyc:   50144765 now IPC :1.78552: AVG IPC :1.68819: L2-Pf-HR :0.67986: L2-HR :0.73157: (Sim:0h10m24s) 
CPU  0 inst:   86000003 cyc:   50706217 now IPC :1.78110: AVG IPC :1.68923: L2-Pf-HR :0.67958: L2-HR :0.73129: (Sim:0h10m31s) 
CPU  0 inst:   87000001 cyc:   51364527 now IPC :1.51904: AVG IPC :1.68701: L2-Pf-HR :0.67945: L2-HR :0.73112: (Sim:0h10m38s) 
CPU  0 inst:   88000000 cyc:   52040242 now IPC :1.47991: AVG IPC :1.68427: L2-Pf-HR :0.67949: L2-HR :0.73115: (Sim:0h10m47s) 
CPU  0 inst:   89000001 cyc:   52594908 now IPC :1.80289: AVG IPC :1.68554: L2-Pf-HR :0.67950: L2-HR :0.73125: (Sim:0h10m54s) 
CPU  0 inst:   90000000 cyc:   53156042 now IPC :1.78210: AVG IPC :1.68658: L2-Pf-HR :0.67962: L2-HR :0.73144: (Sim:0h11m2s) 
CPU  0 inst:   91000003 cyc:   53711097 now IPC :1.80163: AVG IPC :1.68779: L2-Pf-HR :0.67962: L2-HR :0.73155: (Sim:0h11m9s) 
CPU  0 inst:   92000000 cyc:   54251517 now IPC :1.85041: AVG IPC :1.68944: L2-Pf-HR :0.67956: L2-HR :0.73163: (Sim:0h11m18s) 
CPU  0 inst:   93000003 cyc:   54860686 now IPC :1.64159: AVG IPC :1.68890: L2-Pf-HR :0.67980: L2-HR :0.73188: (Sim:0h11m26s) 
CPU  0 inst:   94000001 cyc:   55473739 now IPC :1.63118: AVG IPC :1.68825: L2-Pf-HR :0.67999: L2-HR :0.73206: (Sim:0h11m33s) 
CPU  0 inst:   95000001 cyc:   56021869 now IPC :1.82438: AVG IPC :1.68961: L2-Pf-HR :0.68016: L2-HR :0.73223: (Sim:0h11m41s) 
CPU  0 inst:   96000000 cyc:   56560383 now IPC :1.85696: AVG IPC :1.69123: L2-Pf-HR :0.68031: L2-HR :0.73238: (Sim:0h11m48s) 
CPU  0 inst:   97000001 cyc:   57216557 now IPC :1.52399: AVG IPC :1.68928: L2-Pf-HR :0.68032: L2-HR :0.73237: (Sim:0h11m55s) 
CPU  0 inst:   98000000 cyc:   57921073 now IPC :1.41941: AVG IPC :1.68594: L2-Pf-HR :0.68010: L2-HR :0.73207: (Sim:0h12m2s) 
CPU  0 inst:   99000001 cyc:   58510562 now IPC :1.69639: AVG IPC :1.68605: L2-Pf-HR :0.68000: L2-HR :0.73194: (Sim:0h12m9s) 
CPU  0 inst:  100000000 cyc:   59075210 now IPC :1.77101: AVG IPC :1.68687: L2-Pf-HR :0.67988: L2-HR :0.73179: (Sim:0h12m16s) 
CPU  0 inst:  101000003 cyc:   59638561 now IPC :1.77510: AVG IPC :1.68772: L2-Pf-HR :0.67971: L2-HR :0.73163: (Sim:0h12m22s) 
CPU  0 inst:  102000001 cyc:   60194855 now IPC :1.79761: AVG IPC :1.68875: L2-Pf-HR :0.67946: L2-HR :0.73139: (Sim:0h12m29s) 
CPU  0 inst:  103000000 cyc:   60750039 now IPC :1.80120: AVG IPC :1.68980: L2-Pf-HR :0.67958: L2-HR :0.73142: (Sim:0h12m36s) 
CPU  0 inst:  104000000 cyc:   61520656 now IPC :1.29766: AVG IPC :1.68481: L2-Pf-HR :0.67942: L2-HR :0.73128: (Sim:0h12m45s) 
CPU  0 inst:  105000003 cyc:   62083142 now IPC :1.77783: AVG IPC :1.68566: L2-Pf-HR :0.67946: L2-HR :0.73138: (Sim:0h12m53s) 
CPU  0 inst:  106000003 cyc:   62634679 now IPC :1.81312: AVG IPC :1.68680: L2-Pf-HR :0.67949: L2-HR :0.73150: (Sim:0h13m1s) 
CPU  0 inst:  107000003 cyc:   63189564 now IPC :1.80218: AVG IPC :1.68783: L2-Pf-HR :0.67949: L2-HR :0.73160: (Sim:0h13m9s) 
CPU  0 inst:  108000000 cyc:   63735260 now IPC :1.83252: AVG IPC :1.68909: L2-Pf-HR :0.67941: L2-HR :0.73167: (Sim:0h13m17s) 
CPU  0 inst:  109000002 cyc:   64270846 now IPC :1.86712: AVG IPC :1.69060: L2-Pf-HR :0.67962: L2-HR :0.73196: (Sim:0h13m26s) 
CPU  0 inst:  110000001 cyc:   64962336 now IPC :1.44615: AVG IPC :1.68795: L2-Pf-HR :0.67980: L2-HR :0.73204: (Sim:0h13m34s) 
CPU  0 inst:  111000001 cyc:   65511565 now IPC :1.82073: AVG IPC :1.68908: L2-Pf-HR :0.67997: L2-HR :0.73219: (Sim:0h13m41s) 
CPU  0 inst:  112000000 cyc:   66054334 now IPC :1.84240: AVG IPC :1.69036: L2-Pf-HR :0.68009: L2-HR :0.73233: (Sim:0h13m49s) 
CPU  0 inst:  113000001 cyc:   66595885 now IPC :1.84655: AVG IPC :1.69165: L2-Pf-HR :0.68029: L2-HR :0.73249: (Sim:0h13m56s) 
CPU  0 inst:  114000000 cyc:   67398727 now IPC :1.24557: AVG IPC :1.68626: L2-Pf-HR :0.68010: L2-HR :0.73220: (Sim:0h14m4s) 
CPU  0 inst:  115000003 cyc:   67984462 now IPC :1.70726: AVG IPC :1.68644: L2-Pf-HR :0.67988: L2-HR :0.73198: (Sim:0h14m10s) 
CPU  0 inst:  116000000 cyc:   68554740 now IPC :1.75353: AVG IPC :1.68701: L2-Pf-HR :0.67969: L2-HR :0.73179: (Sim:0h14m17s) 
CPU  0 inst:  117000002 cyc:   69121451 now IPC :1.76457: AVG IPC :1.68765: L2-Pf-HR :0.67955: L2-HR :0.73165: (Sim:0h14m24s) 
CPU  0 inst:  118000000 cyc:   69679573 now IPC :1.79172: AVG IPC :1.68850: L2-Pf-HR :0.67936: L2-HR :0.73146: (Sim:0h14m31s) 
CPU  0 inst:  119000001 cyc:   70231904 now IPC :1.81051: AVG IPC :1.68947: L2-Pf-HR :0.67936: L2-HR :0.73144: (Sim:0h14m38s) 
CPU  0 inst:  120000000 cyc:   71008959 now IPC :1.28691: AVG IPC :1.68501: L2-Pf-HR :0.67930: L2-HR :0.73128: (Sim:0h14m46s) 
CPU  0 inst:  121000003 cyc:   71570441 now IPC :1.78101: AVG IPC :1.68577: L2-Pf-HR :0.67929: L2-HR :0.73134: (Sim:0h14m54s) 
CPU  0 inst:  122000003 cyc:   72124603 now IPC :1.80453: AVG IPC :1.68669: L2-Pf-HR :0.67934: L2-HR :0.73145: (Sim:0h15m2s) 
CPU  0 inst:  123000000 cyc:   72666231 now IPC :1.84628: AVG IPC :1.68790: L2-Pf-HR :0.67940: L2-HR :0.73155: (Sim:0h15m9s) 
CPU  0 inst:  124000000 cyc:   73210480 now IPC :1.83739: AVG IPC :1.68903: L2-Pf-HR :0.67930: L2-HR :0.73159: (Sim:0h15m17s) 
CPU  0 inst:  125000003 cyc:   73739454 now IPC :1.89046: AVG IPC :1.69049: L2-Pf-HR :0.67937: L2-HR :0.73177: (Sim:0h15m25s) 
CPU  0 inst:  126000000 cyc:   74444488 now IPC :1.41837: AVG IPC :1.68788: L2-Pf-HR :0.67968: L2-HR :0.73193: (Sim:0h15m33s) 
CPU  0 inst:  127000001 cyc:   74982909 now IPC :1.85728: AVG IPC :1.68911: L2-Pf-HR :0.67985: L2-HR :0.73206: (Sim:0h15m40s) 
CPU  0 inst:  128000000 cyc:   75533789 now IPC :1.81528: AVG IPC :1.69004: L2-Pf-HR :0.68001: L2-HR :0.73221: (Sim:0h15m47s) 
CPU  0 inst:  129000001 cyc:   76065705 now IPC :1.88000: AVG IPC :1.69139: L2-Pf-HR :0.68010: L2-HR :0.73234: (Sim:0h15m53s) 
CPU  0 inst:  130000000 cyc:   76857494 now IPC :1.26296: AVG IPC :1.68692: L2-Pf-HR :0.68001: L2-HR :0.73213: (Sim:0h16m0s) 
CPU  0 inst:  131000001 cyc:   77445612 now IPC :1.70034: AVG IPC :1.68702: L2-Pf-HR :0.67987: L2-HR :0.73199: (Sim:0h16m7s) 
CPU  0 inst:  132000000 cyc:   78014892 now IPC :1.75660: AVG IPC :1.68754: L2-Pf-HR :0.67980: L2-HR :0.73187: (Sim:0h16m14s) 
CPU  0 inst:  133000003 cyc:   78580123 now IPC :1.76919: AVG IPC :1.68813: L2-Pf-HR :0.67960: L2-HR :0.73169: (Sim:0h16m21s) 
CPU  0 inst:  134000003 cyc:   79135381 now IPC :1.80096: AVG IPC :1.68893: L2-Pf-HR :0.67945: L2-HR :0.73156: (Sim:0h16m28s) 
CPU  0 inst:  135000002 cyc:   79688424 now IPC :1.80818: AVG IPC :1.68977: L2-Pf-HR :0.67942: L2-HR :0.73149: (Sim:0h16m35s) 
CPU  0 inst:  136000000 cyc:   80471217 now IPC :1.27747: AVG IPC :1.68571: L2-Pf-HR :0.67944: L2-HR :0.73143: (Sim:0h16m42s) 
CPU  0 inst:  137000001 cyc:   81046912 now IPC :1.73703: AVG IPC :1.68608: L2-Pf-HR :0.67943: L2-HR :0.73146: (Sim:0h16m48s) 
CPU  0 inst:  138000003 cyc:   81599242 now IPC :1.81052: AVG IPC :1.68693: L2-Pf-HR :0.67946: L2-HR :0.73155: (Sim:0h16m55s) 
CPU  0 inst:  139000001 cyc:   82163522 now IPC :1.77217: AVG IPC :1.68753: L2-Pf-HR :0.67947: L2-HR :0.73169: (Sim:0h17m3s) 
CPU  0 inst:  140000000 cyc:   82714397 now IPC :1.81529: AVG IPC :1.68839: L2-Pf-HR :0.67947: L2-HR :0.73176: (Sim:0h17m10s) 
CPU  0 inst:  141000003 cyc:   83258473 now IPC :1.83798: AVG IPC :1.68938: L2-Pf-HR :0.67952: L2-HR :0.73188: (Sim:0h17m17s) 
CPU  0 inst:  142000000 cyc:   83940798 now IPC :1.46557: AVG IPC :1.68753: L2-Pf-HR :0.67978: L2-HR :0.73204: (Sim:0h17m25s) 
CPU  0 inst:  143000002 cyc:   84495332 now IPC :1.80332: AVG IPC :1.68830: L2-Pf-HR :0.67990: L2-HR :0.73215: (Sim:0h17m32s) 
CPU  0 inst:  144000000 cyc:   85034932 now IPC :1.85322: AVG IPC :1.68936: L2-Pf-HR :0.68005: L2-HR :0.73227: (Sim:0h17m38s) 
CPU  0 inst:  145000003 cyc:   85570443 now IPC :1.86738: AVG IPC :1.69049: L2-Pf-HR :0.68014: L2-HR :0.73237: (Sim:0h17m45s) 
CPU  0 inst:  146000001 cyc:   86364802 now IPC :1.25887: AVG IPC :1.68647: L2-Pf-HR :0.68007: L2-HR :0.73221: (Sim:0h17m52s) 
CPU  0 inst:  147000001 cyc:   86964669 now IPC :1.66704: AVG IPC :1.68634: L2-Pf-HR :0.67993: L2-HR :0.73206: (Sim:0h17m58s) 
CPU  0 inst:  148000000 cyc:   87538790 now IPC :1.74179: AVG IPC :1.68671: L2-Pf-HR :0.67984: L2-HR :0.73195: (Sim:0h18m4s) 
CPU  0 inst:  149000003 cyc:   88100302 now IPC :1.78091: AVG IPC :1.68731: L2-Pf-HR :0.67970: L2-HR :0.73182: (Sim:0h18m9s) 
CPU  0 inst:  150000003 cyc:   88667085 now IPC :1.76434: AVG IPC :1.68781: L2-Pf-HR :0.67952: L2-HR :0.73165: (Sim:0h18m14s) 
CPU  0 inst:  151000003 cyc:   89227845 now IPC :1.78329: AVG IPC :1.68842: L2-Pf-HR :0.67948: L2-HR :0.73158: (Sim:0h18m19s) 
CPU  0 inst:  152000000 cyc:   89979756 now IPC :1.32994: AVG IPC :1.68539: L2-Pf-HR :0.67945: L2-HR :0.73150: (Sim:0h18m26s) 
CPU  0 inst:  153000003 cyc:   90580185 now IPC :1.66548: AVG IPC :1.68526: L2-Pf-HR :0.67943: L2-HR :0.73151: (Sim:0h18m34s) 
CPU  0 inst:  154000003 cyc:   91133566 now IPC :1.80707: AVG IPC :1.68600: L2-Pf-HR :0.67943: L2-HR :0.73157: (Sim:0h18m42s) 
CPU  0 inst:  155000003 cyc:   91680291 now IPC :1.82907: AVG IPC :1.68687: L2-Pf-HR :0.67946: L2-HR :0.73164: (Sim:0h18m50s) 
CPU  0 inst:  156000000 cyc:   92241977 now IPC :1.78035: AVG IPC :1.68744: L2-Pf-HR :0.67949: L2-HR :0.73173: (Sim:0h18m58s) 
CPU  0 inst:  157000003 cyc:   92788769 now IPC :1.82885: AVG IPC :1.68828: L2-Pf-HR :0.67950: L2-HR :0.73181: (Sim:0h19m6s) 
CPU  0 inst:  158000001 cyc:   93468997 now IPC :1.47009: AVG IPC :1.68668: L2-Pf-HR :0.67972: L2-HR :0.73196: (Sim:0h19m13s) 
CPU  0 inst:  159000002 cyc:   94030430 now IPC :1.78116: AVG IPC :1.68725: L2-Pf-HR :0.67986: L2-HR :0.73206: (Sim:0h19m20s) 
CPU  0 inst:  160000000 cyc:   94590569 now IPC :1.78527: AVG IPC :1.68784: L2-Pf-HR :0.67999: L2-HR :0.73216: (Sim:0h19m28s) 
CPU  0 inst:  161000001 cyc:   95137977 now IPC :1.82679: AVG IPC :1.68864: L2-Pf-HR :0.68008: L2-HR :0.73225: (Sim:0h19m35s) 
CPU  0 inst:  162000003 cyc:   95875073 now IPC :1.35668: AVG IPC :1.68606: L2-Pf-HR :0.68007: L2-HR :0.73218: (Sim:0h19m42s) 
CPU  0 inst:  163000002 cyc:   96503877 now IPC :1.59032: AVG IPC :1.68543: L2-Pf-HR :0.68000: L2-HR :0.73207: (Sim:0h19m49s) 
CPU  0 inst:  164000000 cyc:   97075646 now IPC :1.74895: AVG IPC :1.68581: L2-Pf-HR :0.67991: L2-HR :0.73196: (Sim:0h19m56s) 
CPU  0 inst:  165000000 cyc:   97638278 now IPC :1.77736: AVG IPC :1.68635: L2-Pf-HR :0.67976: L2-HR :0.73182: (Sim:0h20m3s) 
CPU  0 inst:  166000003 cyc:   98197141 now IPC :1.78935: AVG IPC :1.68694: L2-Pf-HR :0.67960: L2-HR :0.73168: (Sim:0h20m10s) 
CPU  0 inst:  167000003 cyc:   98758276 now IPC :1.78210: AVG IPC :1.68748: L2-Pf-HR :0.67949: L2-HR :0.73156: (Sim:0h20m17s) 
CPU  0 inst:  168000000 cyc:   99493932 now IPC :1.35933: AVG IPC :1.68503: L2-Pf-HR :0.67945: L2-HR :0.73148: (Sim:0h20m25s) 
CPU  0 inst:  169000003 cyc:  100103593 now IPC :1.64026: AVG IPC :1.68476: L2-Pf-HR :0.67945: L2-HR :0.73148: (Sim:0h20m33s) 
CPU  0 inst:  170000000 cyc:  100644770 now IPC :1.84782: AVG IPC :1.68564: L2-Pf-HR :0.67945: L2-HR :0.73152: (Sim:0h20m39s) 
CPU  0 inst:  171000003 cyc:  101200974 now IPC :1.79791: AVG IPC :1.68627: L2-Pf-HR :0.67947: L2-HR :0.73160: (Sim:0h20m44s) 
CPU  0 inst:  172000000 cyc:  101741684 now IPC :1.84941: AVG IPC :1.68714: L2-Pf-HR :0.67943: L2-HR :0.73163: (Sim:0h20m51s) 
CPU  0 inst:  173000003 cyc:  102286034 now IPC :1.83706: AVG IPC :1.68795: L2-Pf-HR :0.67944: L2-HR :0.73169: (Sim:0h20m59s) 
CPU  0 inst:  174000001 cyc:  102950507 now IPC :1.50495: AVG IPC :1.68675: L2-Pf-HR :0.67957: L2-HR :0.73181: (Sim:0h21m7s) 
CPU  0 inst:  175000002 cyc:  103528551 now IPC :1.72997: AVG IPC :1.68700: L2-Pf-HR :0.67970: L2-HR :0.73189: (Sim:0h21m14s) 
CPU  0 inst:  176000000 cyc:  104084602 now IPC :1.79839: AVG IPC :1.68760: L2-Pf-HR :0.67982: L2-HR :0.73199: (Sim:0h21m22s) 
CPU  0 inst:  177000002 cyc:  104632400 now IPC :1.82549: AVG IPC :1.68833: L2-Pf-HR :0.67989: L2-HR :0.73205: (Sim:0h21m28s) 
CPU  0 inst:  178000002 cyc:  105379271 now IPC :1.33892: AVG IPC :1.68583: L2-Pf-HR :0.67989: L2-HR :0.73200: (Sim:0h21m35s) 
CPU  0 inst:  179000003 cyc:  106034663 now IPC :1.52581: AVG IPC :1.68483: L2-Pf-HR :0.67985: L2-HR :0.73192: (Sim:0h21m40s) 
CPU  0 inst:  180000000 cyc:  106604853 now IPC :1.75380: AVG IPC :1.68520: L2-Pf-HR :0.67971: L2-HR :0.73178: (Sim:0h21m47s) 
CPU  0 inst:  181000001 cyc:  107167093 now IPC :1.77860: AVG IPC :1.68570: L2-Pf-HR :0.67960: L2-HR :0.73168: (Sim:0h21m52s) 
CPU  0 inst:  182000002 cyc:  107734207 now IPC :1.76332: AVG IPC :1.68611: L2-Pf-HR :0.67950: L2-HR :0.73158: (Sim:0h21m58s) 
CPU  0 inst:  183000000 cyc:  108288063 now IPC :1.80552: AVG IPC :1.68673: L2-Pf-HR :0.67944: L2-HR :0.73149: (Sim:0h22m5s) 
CPU  0 inst:  184000000 cyc:  108997285 now IPC :1.41000: AVG IPC :1.68491: L2-Pf-HR :0.67942: L2-HR :0.73142: (Sim:0h22m12s) 
CPU  0 inst:  185000003 cyc:  109624242 now IPC :1.59501: AVG IPC :1.68439: L2-Pf-HR :0.67939: L2-HR :0.73140: (Sim:0h22m19s) 
CPU  0 inst:  186000001 cyc:  110171761 now IPC :1.82642: AVG IPC :1.68510: L2-Pf-HR :0.67940: L2-HR :0.73145: (Sim:0h22m25s) 
CPU  0 inst:  187000003 cyc:  110722557 now IPC :1.81556: AVG IPC :1.68576: L2-Pf-HR :0.67943: L2-HR :0.73154: (Sim:0h22m31s) 
CPU  0 inst:  188000000 cyc:  111276903 now IPC :1.80392: AVG IPC :1.68635: L2-Pf-HR :0.67943: L2-HR :0.73158: (Sim:0h22m37s) 
CPU  0 inst:  189000003 cyc:  111817876 now IPC :1.84853: AVG IPC :1.68714: L2-Pf-HR :0.67938: L2-HR :0.73160: (Sim:0h22m44s) 
CPU  0 inst:  190000003 cyc:  112457935 now IPC :1.56236: AVG IPC :1.68643: L2-Pf-HR :0.67952: L2-HR :0.73173: (Sim:0h22m52s) 
CPU  0 inst:  191000002 cyc:  113032711 now IPC :1.73981: AVG IPC :1.68670: L2-Pf-HR :0.67964: L2-HR :0.73180: (Sim:0h22m59s) 
CPU  0 inst:  192000000 cyc:  113574573 now IPC :1.84548: AVG IPC :1.68746: L2-Pf-HR :0.67974: L2-HR :0.73189: (Sim:0h23m6s) 
CPU  0 inst:  193000002 cyc:  114125089 now IPC :1.81648: AVG IPC :1.68809: L2-Pf-HR :0.67984: L2-HR :0.73196: (Sim:0h23m11s) 
CPU  0 inst:  194000003 cyc:  114831283 now IPC :1.41604: AVG IPC :1.68640: L2-Pf-HR :0.67987: L2-HR :0.73193: (Sim:0h23m17s) 
CPU  0 inst:  195000001 cyc:  115493630 now IPC :1.50978: AVG IPC :1.68538: L2-Pf-HR :0.67984: L2-HR :0.73186: (Sim:0h23m22s) 
CPU  0 inst:  196000000 cyc:  116070518 now IPC :1.73344: AVG IPC :1.68562: L2-Pf-HR :0.67978: L2-HR :0.73178: (Sim:0h23m27s) 
CPU  0 inst:  197000002 cyc:  116636299 now IPC :1.76747: AVG IPC :1.68602: L2-Pf-HR :0.67968: L2-HR :0.73170: (Sim:0h23m34s) 
CPU  0 inst:  198000000 cyc:  117199468 now IPC :1.77566: AVG IPC :1.68646: L2-Pf-HR :0.67956: L2-HR :0.73159: (Sim:0h23m40s) 
CPU  0 inst:  199000003 cyc:  117752482 now IPC :1.80828: AVG IPC :1.68703: L2-Pf-HR :0.67945: L2-HR :0.73148: (Sim:0h23m47s) 
CPU  0 inst:  200000000 cyc:  118439103 now IPC :1.45640: AVG IPC :1.68569: L2-Pf-HR :0.67941: L2-HR :0.73139: (Sim:0h23m54s) 
CPU  0 inst:  201000000 cyc:  119117342 now IPC :1.47441: AVG IPC :1.68447: L2-Pf-HR :0.67940: L2-HR :0.73139: (Sim:0h24m2s) 
CPU  0 inst:  202000000 cyc:  119679223 now IPC :1.77974: AVG IPC :1.68492: L2-Pf-HR :0.67942: L2-HR :0.73142: (Sim:0h24m10s) 
CPU  0 inst:  203000003 cyc:  120251616 now IPC :1.74706: AVG IPC :1.68522: L2-Pf-HR :0.67945: L2-HR :0.73150: (Sim:0h24m17s) 
CPU  0 inst:  204000000 cyc:  120804091 now IPC :1.81003: AVG IPC :1.68580: L2-Pf-HR :0.67945: L2-HR :0.73156: (Sim:0h24m26s) 
CPU  0 inst:  205000003 cyc:  121373406 now IPC :1.75650: AVG IPC :1.68613: L2-Pf-HR :0.67945: L2-HR :0.73160: (Sim:0h24m33s) 
CPU  0 inst:  206000002 cyc:  122006496 now IPC :1.57955: AVG IPC :1.68558: L2-Pf-HR :0.67959: L2-HR :0.73174: (Sim:0h24m41s) 
CPU  0 inst:  207000002 cyc:  122619455 now IPC :1.63143: AVG IPC :1.68530: L2-Pf-HR :0.67971: L2-HR :0.73182: (Sim:0h24m49s) 
CPU  0 inst:  208000000 cyc:  123159384 now IPC :1.85209: AVG IPC :1.68604: L2-Pf-HR :0.67979: L2-HR :0.73190: (Sim:0h24m56s) 
CPU  0 inst:  209000002 cyc:  123712825 now IPC :1.80688: AVG IPC :1.68658: L2-Pf-HR :0.67990: L2-HR :0.73197: (Sim:0h25m3s) 
CPU  0 inst:  210000003 cyc:  124398484 now IPC :1.45845: AVG IPC :1.68532: L2-Pf-HR :0.67989: L2-HR :0.73194: (Sim:0h25m10s) 
CPU  0 inst:  211000000 cyc:  125106611 now IPC :1.41217: AVG IPC :1.68376: L2-Pf-HR :0.67989: L2-HR :0.73187: (Sim:0h25m18s) 
CPU  0 inst:  212000000 cyc:  125694609 now IPC :1.70069: AVG IPC :1.68384: L2-Pf-HR :0.67981: L2-HR :0.73179: (Sim:0h25m25s) 
CPU  0 inst:  213000001 cyc:  126264346 now IPC :1.75520: AVG IPC :1.68416: L2-Pf-HR :0.67974: L2-HR :0.73171: (Sim:0h25m32s) 
CPU  0 inst:  214000000 cyc:  126828413 now IPC :1.77284: AVG IPC :1.68456: L2-Pf-HR :0.67965: L2-HR :0.73162: (Sim:0h25m39s) 
CPU  0 inst:  215000001 cyc:  127398011 now IPC :1.75563: AVG IPC :1.68488: L2-Pf-HR :0.67957: L2-HR :0.73153: (Sim:0h25m46s) 
CPU  0 inst:  216000000 cyc:  128006352 now IPC :1.64381: AVG IPC :1.68468: L2-Pf-HR :0.67960: L2-HR :0.73154: (Sim:0h25m51s) 
CPU  0 inst:  217000003 cyc:  128728126 now IPC :1.38548: AVG IPC :1.68299: L2-Pf-HR :0.67955: L2-HR :0.73147: (Sim:0h25m58s) 
CPU  0 inst:  218000000 cyc:  129295324 now IPC :1.76305: AVG IPC :1.68335: L2-Pf-HR :0.67956: L2-HR :0.73151: (Sim:0h26m4s) 
CPU  0 inst:  219000001 cyc:  129847665 now IPC :1.81048: AVG IPC :1.68389: L2-Pf-HR :0.67958: L2-HR :0.73156: (Sim:0h26m10s) 
CPU  0 inst:  220000000 cyc:  130407885 now IPC :1.78501: AVG IPC :1.68433: L2-Pf-HR :0.67962: L2-HR :0.73163: (Sim:0h26m17s) 
CPU  0 inst:  221000003 cyc:  130963194 now IPC :1.80080: AVG IPC :1.68483: L2-Pf-HR :0.67961: L2-HR :0.73167: (Sim:0h26m26s) 
CPU  0 inst:  222000002 cyc:  131512897 now IPC :1.81916: AVG IPC :1.68539: L2-Pf-HR :0.67968: L2-HR :0.73179: (Sim:0h26m34s) 
CPU  0 inst:  223000002 cyc:  132168804 now IPC :1.52461: AVG IPC :1.68459: L2-Pf-HR :0.67978: L2-HR :0.73183: (Sim:0h26m42s) 
CPU  0 inst:  224000000 cyc:  132721707 now IPC :1.80863: AVG IPC :1.68511: L2-Pf-HR :0.67988: L2-HR :0.73190: (Sim:0h26m49s) 
CPU  0 inst:  225000003 cyc:  133273348 now IPC :1.81278: AVG IPC :1.68564: L2-Pf-HR :0.67998: L2-HR :0.73197: (Sim:0h26m55s) 
CPU  0 inst:  226000002 cyc:  133830199 now IPC :1.79581: AVG IPC :1.68610: L2-Pf-HR :0.68012: L2-HR :0.73208: (Sim:0h27m0s) 
CPU  0 inst:  227000000 cyc:  134674302 now IPC :1.18469: AVG IPC :1.68294: L2-Pf-HR :0.67999: L2-HR :0.73191: (Sim:0h27m7s) 
CPU  0 inst:  228000000 cyc:  135258149 now IPC :1.71278: AVG IPC :1.68307: L2-Pf-HR :0.67990: L2-HR :0.73182: (Sim:0h27m14s) 
CPU  0 inst:  229000002 cyc:  135825397 now IPC :1.76290: AVG IPC :1.68340: L2-Pf-HR :0.67983: L2-HR :0.73175: (Sim:0h27m18s) 
CPU  0 inst:  230000000 cyc:  136393012 now IPC :1.76175: AVG IPC :1.68373: L2-Pf-HR :0.67976: L2-HR :0.73167: (Sim:0h27m25s) 
CPU  0 inst:  231000002 cyc:  136959753 now IPC :1.76448: AVG IPC :1.68407: L2-Pf-HR :0.67964: L2-HR :0.73156: (Sim:0h27m32s) 
CPU  0 inst:  232000000 cyc:  137522280 now IPC :1.77769: AVG IPC :1.68445: L2-Pf-HR :0.67963: L2-HR :0.73154: (Sim:0h27m39s) 
CPU  0 inst:  233000003 cyc:  138325029 now IPC :1.24572: AVG IPC :1.68189: L2-Pf-HR :0.67963: L2-HR :0.73149: (Sim:0h27m47s) 
CPU  0 inst:  234000002 cyc:  138889734 now IPC :1.77083: AVG IPC :1.68225: L2-Pf-HR :0.67961: L2-HR :0.73152: (Sim:0h27m55s) 
CPU  0 inst:  235000003 cyc:  139456628 now IPC :1.76400: AVG IPC :1.68259: L2-Pf-HR :0.67966: L2-HR :0.73158: (Sim:0h28m2s) 
CPU  0 inst:  236000000 cyc:  140026266 now IPC :1.75550: AVG IPC :1.68289: L2-Pf-HR :0.67970: L2-HR :0.73165: (Sim:0h28m10s) 
CPU  0 inst:  237000003 cyc:  140591213 now IPC :1.77008: AVG IPC :1.68324: L2-Pf-HR :0.67964: L2-HR :0.73166: (Sim:0h28m19s) 
CPU  0 inst:  238000002 cyc:  141123430 now IPC :1.87893: AVG IPC :1.68398: L2-Pf-HR :0.67965: L2-HR :0.73172: (Sim:0h28m27s) 
CPU  0 inst:  239000001 cyc:  141811711 now IPC :1.45289: AVG IPC :1.68285: L2-Pf-HR :0.67978: L2-HR :0.73179: (Sim:0h28m35s) 
CPU  0 inst:  240000000 cyc:  142364205 now IPC :1.80997: AVG IPC :1.68335: L2-Pf-HR :0.67987: L2-HR :0.73186: (Sim:0h28m42s) 
CPU  0 inst:  241000001 cyc:  142905659 now IPC :1.84688: AVG IPC :1.68397: L2-Pf-HR :0.67991: L2-HR :0.73191: (Sim:0h28m49s) 
CPU  0 inst:  242000000 cyc:  143449420 now IPC :1.83904: AVG IPC :1.68457: L2-Pf-HR :0.67999: L2-HR :0.73199: (Sim:0h28m56s) 
CPU  0 inst:  243000000 cyc:  144249362 now IPC :1.25009: AVG IPC :1.68214: L2-Pf-HR :0.67990: L2-HR :0.73185: (Sim:0h29m3s) 
CPU  0 inst:  244000000 cyc:  144839129 now IPC :1.69558: AVG IPC :1.68220: L2-Pf-HR :0.67980: L2-HR :0.73175: (Sim:0h29m10s) 
CPU  0 inst:  245000001 cyc:  145409842 now IPC :1.75220: AVG IPC :1.68247: L2-Pf-HR :0.67973: L2-HR :0.73167: (Sim:0h29m17s) 
CPU  0 inst:  246000002 cyc:  145978442 now IPC :1.75871: AVG IPC :1.68277: L2-Pf-HR :0.67968: L2-HR :0.73162: (Sim:0h29m24s) 
CPU  0 inst:  247000000 cyc:  146543419 now IPC :1.76998: AVG IPC :1.68311: L2-Pf-HR :0.67960: L2-HR :0.73154: (Sim:0h29m30s) 
CPU  0 inst:  248000000 cyc:  147099893 now IPC :1.79703: AVG IPC :1.68354: L2-Pf-HR :0.67955: L2-HR :0.73149: (Sim:0h29m37s) 
CPU  0 inst:  249000003 cyc:  147878352 now IPC :1.28459: AVG IPC :1.68143: L2-Pf-HR :0.67953: L2-HR :0.73143: (Sim:0h29m46s) 
CPU  0 inst:  250000000 cyc:  148445040 now IPC :1.76463: AVG IPC :1.68175: L2-Pf-HR :0.67952: L2-HR :0.73145: (Sim:0h29m53s) 
CPU  0 inst:  251000001 cyc:  148999237 now IPC :1.80441: AVG IPC :1.68221: L2-Pf-HR :0.67953: L2-HR :0.73150: (Sim:0h30m0s) 
CPU  0 inst:  252000000 cyc:  149544018 now IPC :1.83560: AVG IPC :1.68277: L2-Pf-HR :0.67952: L2-HR :0.73154: (Sim:0h30m8s) 
CPU  0 inst:  253000001 cyc:  150088052 now IPC :1.83812: AVG IPC :1.68334: L2-Pf-HR :0.67949: L2-HR :0.73155: (Sim:0h30m15s) 
CPU  0 inst:  254000001 cyc:  150622353 now IPC :1.87160: AVG IPC :1.68401: L2-Pf-HR :0.67950: L2-HR :0.73162: (Sim:0h30m23s) 
CPU  0 inst:  255000003 cyc:  151305120 now IPC :1.46463: AVG IPC :1.68301: L2-Pf-HR :0.67963: L2-HR :0.73171: (Sim:0h30m32s) 
CPU  0 inst:  256000000 cyc:  151863429 now IPC :1.79112: AVG IPC :1.68341: L2-Pf-HR :0.67971: L2-HR :0.73176: (Sim:0h30m39s) 
CPU  0 inst:  257000001 cyc:  152402755 now IPC :1.85417: AVG IPC :1.68402: L2-Pf-HR :0.67977: L2-HR :0.73183: (Sim:0h30m46s) 
CPU  0 inst:  258000001 cyc:  152944269 now IPC :1.84667: AVG IPC :1.68460: L2-Pf-HR :0.67984: L2-HR :0.73188: (Sim:0h30m53s) 
CPU  0 inst:  259000000 cyc:  157560659 now IPC :0.21662: AVG IPC :1.64132: L2-Pf-HR :0.67480: L2-HR :0.72929: (Sim:0h31m7s) 
CPU  0 inst:  260000000 cyc:  164043850 now IPC :0.15425: AVG IPC :1.58220: L2-Pf-HR :0.66760: L2-HR :0.72576: (Sim:0h31m24s) 
CPU  0 inst:  261000000 cyc:  170497143 now IPC :0.15496: AVG IPC :1.52787: L2-Pf-HR :0.66063: L2-HR :0.72240: (Sim:0h31m42s) 
CPU  0 inst:  262000001 cyc:  176965529 now IPC :0.15460: AVG IPC :1.47739: L2-Pf-HR :0.65382: L2-HR :0.71915: (Sim:0h31m59s) 
CPU  0 inst:  263000000 cyc:  183436508 now IPC :0.15454: AVG IPC :1.43047: L2-Pf-HR :0.64718: L2-HR :0.71600: (Sim:0h32m16s) 
CPU  0 inst:  264000000 cyc:  189918100 now IPC :0.15428: AVG IPC :1.38669: L2-Pf-HR :0.64073: L2-HR :0.71296: (Sim:0h32m30s) 
CPU  0 inst:  265000002 cyc:  196393459 now IPC :0.15443: AVG IPC :1.34586: L2-Pf-HR :0.63444: L2-HR :0.71002: (Sim:0h32m41s) 
CPU  0 inst:  266000003 cyc:  202880091 now IPC :0.15416: AVG IPC :1.30757: L2-Pf-HR :0.62827: L2-HR :0.70716: (Sim:0h32m53s) 
CPU  0 inst:  267000002 cyc:  209373076 now IPC :0.15401: AVG IPC :1.27163: L2-Pf-HR :0.62228: L2-HR :0.70440: (Sim:0h33m9s) 
CPU  0 inst:  268000000 cyc:  215126065 now IPC :0.17382: AVG IPC :1.24214: L2-Pf-HR :0.61774: L2-HR :0.70220: (Sim:0h33m21s) 
CPU  0 inst:  269000000 cyc:  218665869 now IPC :0.28250: AVG IPC :1.22654: L2-Pf-HR :0.61737: L2-HR :0.70169: (Sim:0h33m29s) 
CPU  0 inst:  270000000 cyc:  222201524 now IPC :0.28283: AVG IPC :1.21145: L2-Pf-HR :0.61702: L2-HR :0.70119: (Sim:0h33m37s) 
CPU  0 inst:  271000000 cyc:  225733248 now IPC :0.28315: AVG IPC :1.19687: L2-Pf-HR :0.61669: L2-HR :0.70072: (Sim:0h33m46s) 
CPU  0 inst:  272000000 cyc:  229263954 now IPC :0.28323: AVG IPC :1.18274: L2-Pf-HR :0.61639: L2-HR :0.70026: (Sim:0h33m55s) 
CPU  0 inst:  273000000 cyc:  232794463 now IPC :0.28325: AVG IPC :1.16904: L2-Pf-HR :0.61610: L2-HR :0.69980: (Sim:0h34m6s) 
CPU  0 inst:  274000002 cyc:  236327545 now IPC :0.28304: AVG IPC :1.15574: L2-Pf-HR :0.61580: L2-HR :0.69935: (Sim:0h34m18s) 
CPU  0 inst:  275000001 cyc:  239864311 now IPC :0.28274: AVG IPC :1.14281: L2-Pf-HR :0.61549: L2-HR :0.69889: (Sim:0h34m29s) 
CPU  0 inst:  276000000 cyc:  243397003 now IPC :0.28307: AVG IPC :1.13028: L2-Pf-HR :0.61520: L2-HR :0.69844: (Sim:0h34m40s) 
CPU  0 inst:  277000000 cyc:  246930336 now IPC :0.28302: AVG IPC :1.11811: L2-Pf-HR :0.61488: L2-HR :0.69798: (Sim:0h34m51s) 
CPU  0 inst:  278000000 cyc:  250463770 now IPC :0.28301: AVG IPC :1.10628: L2-Pf-HR :0.61455: L2-HR :0.69751: (Sim:0h35m3s) 
CPU  0 inst:  279000000 cyc:  253996578 now IPC :0.28306: AVG IPC :1.09479: L2-Pf-HR :0.61423: L2-HR :0.69705: (Sim:0h35m14s) 
CPU  0 inst:  280000000 cyc:  257528114 now IPC :0.28316: AVG IPC :1.08362: L2-Pf-HR :0.61393: L2-HR :0.69660: (Sim:0h35m25s) 
CPU  0 inst:  281000002 cyc:  261059672 now IPC :0.28316: AVG IPC :1.07275: L2-Pf-HR :0.61364: L2-HR :0.69617: (Sim:0h35m36s) 
CPU  0 inst:  282000003 cyc:  264593171 now IPC :0.28301: AVG IPC :1.06216: L2-Pf-HR :0.61335: L2-HR :0.69572: (Sim:0h35m46s) 
CPU  0 inst:  283000000 cyc:  268128131 now IPC :0.28289: AVG IPC :1.05185: L2-Pf-HR :0.61305: L2-HR :0.69527: (Sim:0h35m55s) 
CPU  0 inst:  284000000 cyc:  271660612 now IPC :0.28309: AVG IPC :1.04182: L2-Pf-HR :0.61274: L2-HR :0.69482: (Sim:0h36m3s) 
CPU  0 inst:  285000003 cyc:  275191729 now IPC :0.28320: AVG IPC :1.03205: L2-Pf-HR :0.61246: L2-HR :0.69439: (Sim:0h36m11s) 
CPU  0 inst:  286000000 cyc:  278723348 now IPC :0.28316: AVG IPC :1.02253: L2-Pf-HR :0.61217: L2-HR :0.69396: (Sim:0h36m19s) 
CPU  0 inst:  287000000 cyc:  282254429 now IPC :0.28320: AVG IPC :1.01324: L2-Pf-HR :0.61189: L2-HR :0.69353: (Sim:0h36m30s) 
CPU  0 inst:  288000000 cyc:  285787415 now IPC :0.28305: AVG IPC :1.00419: L2-Pf-HR :0.61160: L2-HR :0.69310: (Sim:0h36m41s) 
CPU  0 inst:  289000003 cyc:  289319766 now IPC :0.28310: AVG IPC :0.99535: L2-Pf-HR :0.61132: L2-HR :0.69267: (Sim:0h36m52s) 
CPU  0 inst:  290000001 cyc:  292855262 now IPC :0.28285: AVG IPC :0.98672: L2-Pf-HR :0.61104: L2-HR :0.69224: (Sim:0h37m4s) 
CPU  0 inst:  291000000 cyc:  296386046 now IPC :0.28322: AVG IPC :0.97831: L2-Pf-HR :0.61076: L2-HR :0.69182: (Sim:0h37m15s) 
CPU  0 inst:  292000000 cyc:  299919857 now IPC :0.28298: AVG IPC :0.97009: L2-Pf-HR :0.61046: L2-HR :0.69139: (Sim:0h37m26s) 
CPU  0 inst:  293000002 cyc:  303450552 now IPC :0.28323: AVG IPC :0.96208: L2-Pf-HR :0.61017: L2-HR :0.69096: (Sim:0h37m38s) 
CPU  0 inst:  294000000 cyc:  306982552 now IPC :0.28313: AVG IPC :0.95424: L2-Pf-HR :0.60989: L2-HR :0.69054: (Sim:0h37m49s) 
CPU  0 inst:  295000000 cyc:  310514298 now IPC :0.28315: AVG IPC :0.94658: L2-Pf-HR :0.60959: L2-HR :0.69011: (Sim:0h38m0s) 
CPU  0 inst:  296000000 cyc:  314045681 now IPC :0.28318: AVG IPC :0.93910: L2-Pf-HR :0.60931: L2-HR :0.68969: (Sim:0h38m12s) 
CPU  0 inst:  297000003 cyc:  317580511 now IPC :0.28290: AVG IPC :0.93177: L2-Pf-HR :0.60903: L2-HR :0.68927: (Sim:0h38m23s) 
CPU  0 inst:  298000000 cyc:  321113914 now IPC :0.28301: AVG IPC :0.92461: L2-Pf-HR :0.60873: L2-HR :0.68884: (Sim:0h38m34s) 
CPU  0 inst:  299000000 cyc:  324644588 now IPC :0.28323: AVG IPC :0.91762: L2-Pf-HR :0.60845: L2-HR :0.68842: (Sim:0h38m47s) 
CPU  0 inst:  300000000 cyc:  328175989 now IPC :0.28317: AVG IPC :0.91077: L2-Pf-HR :0.60817: L2-HR :0.68801: (Sim:0h38m59s) 
CPU  0 inst:  301000000 cyc:  331706434 now IPC :0.28325: AVG IPC :0.90407: L2-Pf-HR :0.60791: L2-HR :0.68760: (Sim:0h39m10s) 
CPU  0 inst:  302000003 cyc:  335238102 now IPC :0.28315: AVG IPC :0.89751: L2-Pf-HR :0.60764: L2-HR :0.68719: (Sim:0h39m21s) 
CPU  0 inst:  303000000 cyc:  338769392 now IPC :0.28318: AVG IPC :0.89109: L2-Pf-HR :0.60736: L2-HR :0.68678: (Sim:0h39m32s) 
CPU  0 inst:  304000000 cyc:  342301792 now IPC :0.28309: AVG IPC :0.88479: L2-Pf-HR :0.60708: L2-HR :0.68637: (Sim:0h39m44s) 
CPU  0 inst:  305000001 cyc:  345835311 now IPC :0.28300: AVG IPC :0.87863: L2-Pf-HR :0.60681: L2-HR :0.68597: (Sim:0h39m55s) 
CPU  0 inst:  306000003 cyc:  349367766 now IPC :0.28309: AVG IPC :0.87259: L2-Pf-HR :0.60654: L2-HR :0.68556: (Sim:0h40m6s) 
CPU  0 inst:  307000000 cyc:  352899831 now IPC :0.28312: AVG IPC :0.86667: L2-Pf-HR :0.60626: L2-HR :0.68516: (Sim:0h40m17s) 
CPU  0 inst:  308000000 cyc:  356432041 now IPC :0.28311: AVG IPC :0.86087: L2-Pf-HR :0.60597: L2-HR :0.68474: (Sim:0h40m29s) 
CPU  0 inst:  309000000 cyc:  359966314 now IPC :0.28294: AVG IPC :0.85518: L2-Pf-HR :0.60570: L2-HR :0.68435: (Sim:0h40m40s) 
CPU  0 inst:  310000002 cyc:  363497097 now IPC :0.28322: AVG IPC :0.84961: L2-Pf-HR :0.60546: L2-HR :0.68396: (Sim:0h40m51s) 
CPU  0 inst:  311000000 cyc:  367028906 now IPC :0.28314: AVG IPC :0.84415: L2-Pf-HR :0.60521: L2-HR :0.68358: (Sim:0h41m3s) 
CPU  0 inst:  312000000 cyc:  370562776 now IPC :0.28298: AVG IPC :0.83878: L2-Pf-HR :0.60495: L2-HR :0.68319: (Sim:0h41m13s) 
CPU  0 inst:  313000000 cyc:  374094268 now IPC :0.28317: AVG IPC :0.83352: L2-Pf-HR :0.60470: L2-HR :0.68281: (Sim:0h41m22s) 
CPU  0 inst:  314000002 cyc:  377626366 now IPC :0.28312: AVG IPC :0.82836: L2-Pf-HR :0.60444: L2-HR :0.68243: (Sim:0h41m33s) 
CPU  0 inst:  315000000 cyc:  381157033 now IPC :0.28323: AVG IPC :0.82330: L2-Pf-HR :0.60418: L2-HR :0.68204: (Sim:0h41m44s) 
CPU  0 inst:  316000000 cyc:  384688643 now IPC :0.28316: AVG IPC :0.81833: L2-Pf-HR :0.60392: L2-HR :0.68166: (Sim:0h41m52s) 
CPU  0 inst:  317000000 cyc:  388220136 now IPC :0.28317: AVG IPC :0.81345: L2-Pf-HR :0.60367: L2-HR :0.68128: (Sim:0h42m3s) 
CPU  0 inst:  318000000 cyc:  391750931 now IPC :0.28322: AVG IPC :0.80866: L2-Pf-HR :0.60343: L2-HR :0.68091: (Sim:0h42m13s) 
CPU  0 inst:  319000003 cyc:  395284319 now IPC :0.28302: AVG IPC :0.80395: L2-Pf-HR :0.60317: L2-HR :0.68053: (Sim:0h42m22s) 
CPU  0 inst:  320000000 cyc:  398817659 now IPC :0.28302: AVG IPC :0.79932: L2-Pf-HR :0.60293: L2-HR :0.68016: (Sim:0h42m33s) 
CPU  0 inst:  321000000 cyc:  402348665 now IPC :0.28321: AVG IPC :0.79478: L2-Pf-HR :0.60268: L2-HR :0.67978: (Sim:0h42m43s) 
CPU  0 inst:  322000000 cyc:  405881479 now IPC :0.28306: AVG IPC :0.79031: L2-Pf-HR :0.60242: L2-HR :0.67940: (Sim:0h42m52s) 
CPU  0 inst:  323000003 cyc:  409413213 now IPC :0.28315: AVG IPC :0.78593: L2-Pf-HR :0.60216: L2-HR :0.67903: (Sim:0h43m3s) 
CPU  0 inst:  324000000 cyc:  412946991 now IPC :0.28298: AVG IPC :0.78162: L2-Pf-HR :0.60190: L2-HR :0.67865: (Sim:0h43m12s) 
CPU  0 inst:  325000000 cyc:  416478873 now IPC :0.28314: AVG IPC :0.77738: L2-Pf-HR :0.60162: L2-HR :0.67827: (Sim:0h43m23s) 
CPU  0 inst:  326000002 cyc:  420011496 now IPC :0.28308: AVG IPC :0.77321: L2-Pf-HR :0.60137: L2-HR :0.67791: (Sim:0h43m34s) 
CPU  0 inst:  327000001 cyc:  423545547 now IPC :0.28296: AVG IPC :0.76911: L2-Pf-HR :0.60112: L2-HR :0.67754: (Sim:0h43m46s) 
CPU  0 inst:  328000000 cyc:  427077774 now IPC :0.28311: AVG IPC :0.76508: L2-Pf-HR :0.60087: L2-HR :0.67717: (Sim:0h43m57s) 
CPU  0 inst:  329000000 cyc:  430609551 now IPC :0.28314: AVG IPC :0.76112: L2-Pf-HR :0.60061: L2-HR :0.67680: (Sim:0h44m8s) 
CPU  0 inst:  330000000 cyc:  434142038 now IPC :0.28309: AVG IPC :0.75722: L2-Pf-HR :0.60033: L2-HR :0.67643: (Sim:0h44m20s) 
CPU  0 inst:  331000002 cyc:  437673765 now IPC :0.28315: AVG IPC :0.75339: L2-Pf-HR :0.60008: L2-HR :0.67607: (Sim:0h44m31s) 
CPU  0 inst:  332000000 cyc:  441204535 now IPC :0.28322: AVG IPC :0.74962: L2-Pf-HR :0.59985: L2-HR :0.67571: (Sim:0h44m42s) 
CPU  0 inst:  333000002 cyc:  444736192 now IPC :0.28315: AVG IPC :0.74590: L2-Pf-HR :0.59961: L2-HR :0.67535: (Sim:0h44m53s) 
CPU  0 inst:  334000003 cyc:  448269743 now IPC :0.28300: AVG IPC :0.74225: L2-Pf-HR :0.59935: L2-HR :0.67499: (Sim:0h45m5s) 
CPU  0 inst:  335000002 cyc:  451804271 now IPC :0.28292: AVG IPC :0.73865: L2-Pf-HR :0.59911: L2-HR :0.67463: (Sim:0h45m16s) 
CPU  0 inst:  336000000 cyc:  455334841 now IPC :0.28324: AVG IPC :0.73511: L2-Pf-HR :0.59888: L2-HR :0.67428: (Sim:0h45m27s) 
CPU  0 inst:  337000000 cyc:  458866051 now IPC :0.28319: AVG IPC :0.73162: L2-Pf-HR :0.59864: L2-HR :0.67393: (Sim:0h45m38s) 
CPU  0 inst:  338000000 cyc:  462397997 now IPC :0.28313: AVG IPC :0.72819: L2-Pf-HR :0.59839: L2-HR :0.67358: (Sim:0h45m49s) 
CPU  0 inst:  339000000 cyc:  465928514 now IPC :0.28324: AVG IPC :0.72481: L2-Pf-HR :0.59817: L2-HR :0.67324: (Sim:0h46m0s) 
CPU  0 inst:  340000000 cyc:  469461507 now IPC :0.28305: AVG IPC :0.72148: L2-Pf-HR :0.59792: L2-HR :0.67288: (Sim:0h46m11s) 
CPU  0 inst:  341000001 cyc:  472993979 now IPC :0.28309: AVG IPC :0.71820: L2-Pf-HR :0.59767: L2-HR :0.67253: (Sim:0h46m22s) 
CPU  0 inst:  342000001 cyc:  476531443 now IPC :0.28269: AVG IPC :0.71496: L2-Pf-HR :0.59743: L2-HR :0.67217: (Sim:0h46m33s) 
CPU  0 inst:  343000000 cyc:  480064481 now IPC :0.28304: AVG IPC :0.71177: L2-Pf-HR :0.59717: L2-HR :0.67182: (Sim:0h46m41s) 
CPU  0 inst:  344000000 cyc:  483595933 now IPC :0.28317: AVG IPC :0.70864: L2-Pf-HR :0.59691: L2-HR :0.67146: (Sim:0h46m49s) 
CPU  0 inst:  345000000 cyc:  487128892 now IPC :0.28305: AVG IPC :0.70554: L2-Pf-HR :0.59667: L2-HR :0.67112: (Sim:0h47m0s) 
CPU  0 inst:  346000000 cyc:  490660733 now IPC :0.28314: AVG IPC :0.70250: L2-Pf-HR :0.59643: L2-HR :0.67077: (Sim:0h47m11s) 
CPU  0 inst:  347000000 cyc:  494191755 now IPC :0.28320: AVG IPC :0.69950: L2-Pf-HR :0.59620: L2-HR :0.67043: (Sim:0h47m22s) 
CPU  0 inst:  348000000 cyc:  497724998 now IPC :0.28303: AVG IPC :0.69653: L2-Pf-HR :0.59597: L2-HR :0.67009: (Sim:0h47m34s) 
CPU  0 inst:  349000003 cyc:  501258507 now IPC :0.28301: AVG IPC :0.69361: L2-Pf-HR :0.59574: L2-HR :0.66976: (Sim:0h47m45s) 
CPU  0 inst:  350000000 cyc:  504791168 now IPC :0.28307: AVG IPC :0.69073: L2-Pf-HR :0.59552: L2-HR :0.66943: (Sim:0h47m57s) 
CPU  0 inst:  351000000 cyc:  508322651 now IPC :0.28317: AVG IPC :0.68790: L2-Pf-HR :0.59528: L2-HR :0.66909: (Sim:0h48m8s) 
CPU  0 inst:  352000000 cyc:  511853468 now IPC :0.28322: AVG IPC :0.68510: L2-Pf-HR :0.59506: L2-HR :0.66876: (Sim:0h48m19s) 
CPU  0 inst:  353000000 cyc:  515384418 now IPC :0.28321: AVG IPC :0.68234: L2-Pf-HR :0.59483: L2-HR :0.66842: (Sim:0h48m30s) 
CPU  0 inst:  354000000 cyc:  518915658 now IPC :0.28319: AVG IPC :0.67962: L2-Pf-HR :0.59459: L2-HR :0.66808: (Sim:0h48m41s) 
CPU  0 inst:  355000000 cyc:  522449776 now IPC :0.28296: AVG IPC :0.67693: L2-Pf-HR :0.59435: L2-HR :0.66774: (Sim:0h48m54s) 
CPU  0 inst:  356000000 cyc:  525982661 now IPC :0.28305: AVG IPC :0.67428: L2-Pf-HR :0.59412: L2-HR :0.66741: (Sim:0h49m6s) 
CPU  0 inst:  357000001 cyc:  529518193 now IPC :0.28284: AVG IPC :0.67166: L2-Pf-HR :0.59388: L2-HR :0.66707: (Sim:0h49m18s) 
CPU  0 inst:  358000000 cyc:  533050644 now IPC :0.28309: AVG IPC :0.66908: L2-Pf-HR :0.59365: L2-HR :0.66675: (Sim:0h49m30s) 
CPU  0 inst:  359000000 cyc:  536581582 now IPC :0.28321: AVG IPC :0.66654: L2-Pf-HR :0.59343: L2-HR :0.66642: (Sim:0h49m42s) 
CPU  0 inst:  360000000 cyc:  540112772 now IPC :0.28319: AVG IPC :0.66403: L2-Pf-HR :0.59321: L2-HR :0.66610: (Sim:0h49m54s) 
CPU  0 inst:  361000003 cyc:  543644637 now IPC :0.28314: AVG IPC :0.66155: L2-Pf-HR :0.59298: L2-HR :0.66577: (Sim:0h50m7s) 
CPU  0 inst:  362000000 cyc:  547176193 now IPC :0.28316: AVG IPC :0.65910: L2-Pf-HR :0.59274: L2-HR :0.66544: (Sim:0h50m18s) 
CPU  0 inst:  363000000 cyc:  550707663 now IPC :0.28317: AVG IPC :0.65669: L2-Pf-HR :0.59251: L2-HR :0.66512: (Sim:0h50m30s) 
CPU  0 inst:  364000000 cyc:  554241331 now IPC :0.28299: AVG IPC :0.65430: L2-Pf-HR :0.59229: L2-HR :0.66480: (Sim:0h50m42s) 
CPU  0 inst:  365000003 cyc:  557773362 now IPC :0.28312: AVG IPC :0.65195: L2-Pf-HR :0.59208: L2-HR :0.66448: (Sim:0h50m54s) 
CPU  0 inst:  366000000 cyc:  561304118 now IPC :0.28322: AVG IPC :0.64962: L2-Pf-HR :0.59187: L2-HR :0.66417: (Sim:0h51m6s) 
CPU  0 inst:  367000000 cyc:  564836647 now IPC :0.28308: AVG IPC :0.64733: L2-Pf-HR :0.59163: L2-HR :0.66384: (Sim:0h51m18s) 
CPU  0 inst:  368000000 cyc:  568368332 now IPC :0.28315: AVG IPC :0.64506: L2-Pf-HR :0.59140: L2-HR :0.66352: (Sim:0h51m29s) 
CPU  0 inst:  369000002 cyc:  571901823 now IPC :0.28301: AVG IPC :0.64282: L2-Pf-HR :0.59116: L2-HR :0.66319: (Sim:0h51m40s) 
CPU  0 inst:  370000000 cyc:  575433088 now IPC :0.28318: AVG IPC :0.64061: L2-Pf-HR :0.59093: L2-HR :0.66288: (Sim:0h51m48s) 
CPU  0 inst:  371000002 cyc:  578965936 now IPC :0.28306: AVG IPC :0.63842: L2-Pf-HR :0.59070: L2-HR :0.66256: (Sim:0h51m58s) 
CPU  0 inst:  372000000 cyc:  582502018 now IPC :0.28280: AVG IPC :0.63626: L2-Pf-HR :0.59047: L2-HR :0.66224: (Sim:0h52m9s) 
CPU  0 inst:  373000002 cyc:  586033806 now IPC :0.28314: AVG IPC :0.63413: L2-Pf-HR :0.59026: L2-HR :0.66194: (Sim:0h52m20s) 
CPU  0 inst:  374000000 cyc:  589565740 now IPC :0.28313: AVG IPC :0.63202: L2-Pf-HR :0.59004: L2-HR :0.66163: (Sim:0h52m29s) 
CPU  0 inst:  375000000 cyc:  593099558 now IPC :0.28298: AVG IPC :0.62994: L2-Pf-HR :0.58980: L2-HR :0.66131: (Sim:0h52m38s) 
CPU  0 inst:  376000000 cyc:  596630990 now IPC :0.28317: AVG IPC :0.62788: L2-Pf-HR :0.58957: L2-HR :0.66100: (Sim:0h52m47s) 
CPU  0 inst:  377000000 cyc:  600163068 now IPC :0.28312: AVG IPC :0.62585: L2-Pf-HR :0.58937: L2-HR :0.66070: (Sim:0h52m57s) 
CPU  0 inst:  378000002 cyc:  603695382 now IPC :0.28310: AVG IPC :0.62384: L2-Pf-HR :0.58913: L2-HR :0.66039: (Sim:0h53m5s) 
CPU  0 inst:  379000003 cyc:  607229215 now IPC :0.28298: AVG IPC :0.62186: L2-Pf-HR :0.58892: L2-HR :0.66009: (Sim:0h53m14s) 
CPU  0 inst:  380000000 cyc:  610763720 now IPC :0.28292: AVG IPC :0.61989: L2-Pf-HR :0.58868: L2-HR :0.65977: (Sim:0h53m24s) 
CPU  0 inst:  381000000 cyc:  614295823 now IPC :0.28312: AVG IPC :0.61795: L2-Pf-HR :0.58844: L2-HR :0.65946: (Sim:0h53m35s) 
CPU  0 inst:  382000003 cyc:  617829354 now IPC :0.28300: AVG IPC :0.61603: L2-Pf-HR :0.58821: L2-HR :0.65915: (Sim:0h53m46s) 
CPU  0 inst:  383000000 cyc:  621363149 now IPC :0.28298: AVG IPC :0.61414: L2-Pf-HR :0.58798: L2-HR :0.65884: (Sim:0h53m57s) 
CPU  0 inst:  384000000 cyc:  624894033 now IPC :0.28322: AVG IPC :0.61226: L2-Pf-HR :0.58775: L2-HR :0.65853: (Sim:0h54m8s) 
CPU  0 inst:  385000000 cyc:  628425739 now IPC :0.28315: AVG IPC :0.61041: L2-Pf-HR :0.58753: L2-HR :0.65823: (Sim:0h54m19s) 
CPU  0 inst:  386000003 cyc:  631958580 now IPC :0.28306: AVG IPC :0.60858: L2-Pf-HR :0.58731: L2-HR :0.65793: (Sim:0h54m30s) 
CPU  0 inst:  387000001 cyc:  635493244 now IPC :0.28291: AVG IPC :0.60676: L2-Pf-HR :0.58709: L2-HR :0.65762: (Sim:0h54m40s) 
CPU  0 inst:  388000000 cyc:  639024123 now IPC :0.28322: AVG IPC :0.60497: L2-Pf-HR :0.58688: L2-HR :0.65733: (Sim:0h54m49s) 
CPU  0 inst:  389000000 cyc:  642555017 now IPC :0.28321: AVG IPC :0.60320: L2-Pf-HR :0.58667: L2-HR :0.65704: (Sim:0h54m57s) 
CPU  0 inst:  390000002 cyc:  646086713 now IPC :0.28315: AVG IPC :0.60145: L2-Pf-HR :0.58647: L2-HR :0.65675: (Sim:0h55m5s) 
CPU  0 inst:  391000000 cyc:  649617050 now IPC :0.28326: AVG IPC :0.59972: L2-Pf-HR :0.58629: L2-HR :0.65647: (Sim:0h55m15s) 
CPU  0 inst:  392000000 cyc:  653147141 now IPC :0.28328: AVG IPC :0.59801: L2-Pf-HR :0.58610: L2-HR :0.65619: (Sim:0h55m25s) 
CPU  0 inst:  393000001 cyc:  656678555 now IPC :0.28317: AVG IPC :0.59631: L2-Pf-HR :0.58591: L2-HR :0.65590: (Sim:0h55m36s) 
CPU  0 inst:  394000001 cyc:  660212123 now IPC :0.28300: AVG IPC :0.59463: L2-Pf-HR :0.58571: L2-HR :0.65562: (Sim:0h55m47s) 
CPU  0 inst:  395000001 cyc:  663784035 now IPC :0.27996: AVG IPC :0.59294: L2-Pf-HR :0.58546: L2-HR :0.65527: (Sim:0h55m58s) 
CPU  0 inst:  396000000 cyc:  664548882 now IPC :1.30745: AVG IPC :0.59376: L2-Pf-HR :0.58687: L2-HR :0.65659: (Sim:0h56m6s) 
CPU  0 inst:  397000002 cyc:  665262260 now IPC :1.40178: AVG IPC :0.59463: L2-Pf-HR :0.58831: L2-HR :0.65793: (Sim:0h56m14s) 
CPU  0 inst:  398000003 cyc:  665947056 now IPC :1.46029: AVG IPC :0.59552: L2-Pf-HR :0.58972: L2-HR :0.65924: (Sim:0h56m22s) 
CPU  0 inst:  399000003 cyc:  666653001 now IPC :1.41654: AVG IPC :0.59639: L2-Pf-HR :0.59096: L2-HR :0.66042: (Sim:0h56m30s) 
CPU  0 inst:  400000000 cyc:  667370868 now IPC :1.39301: AVG IPC :0.59725: L2-Pf-HR :0.59208: L2-HR :0.66150: (Sim:0h56m35s) 
CPU  0 inst:  401000001 cyc:  668042817 now IPC :1.48821: AVG IPC :0.59814: L2-Pf-HR :0.59337: L2-HR :0.66270: (Sim:0h56m43s) 
CPU  0 inst:  402000001 cyc:  668684400 now IPC :1.55864: AVG IPC :0.59907: L2-Pf-HR :0.59464: L2-HR :0.66390: (Sim:0h56m49s) 
CPU  0 inst:  403000001 cyc:  669320746 now IPC :1.57147: AVG IPC :0.59999: L2-Pf-HR :0.59592: L2-HR :0.66508: (Sim:0h56m54s) 
CPU  0 inst:  404000000 cyc:  670018953 now IPC :1.43224: AVG IPC :0.60086: L2-Pf-HR :0.59701: L2-HR :0.66610: (Sim:0h57m2s) 
CPU  0 inst:  405000002 cyc:  670679143 now IPC :1.51472: AVG IPC :0.60176: L2-Pf-HR :0.59834: L2-HR :0.66727: (Sim:0h57m8s) 
CPU  0 inst:  406000001 cyc:  671319316 now IPC :1.56208: AVG IPC :0.60268: L2-Pf-HR :0.59967: L2-HR :0.66846: (Sim:0h57m13s) 
CPU  0 inst:  407000001 cyc:  671954088 now IPC :1.57537: AVG IPC :0.60360: L2-Pf-HR :0.60094: L2-HR :0.66958: (Sim:0h57m20s) 
CPU  0 inst:  408000000 cyc:  672623148 now IPC :1.49463: AVG IPC :0.60449: L2-Pf-HR :0.60199: L2-HR :0.67051: (Sim:0h57m30s) 
CPU  0 inst:  409000000 cyc:  673259909 now IPC :1.57045: AVG IPC :0.60540: L2-Pf-HR :0.60324: L2-HR :0.67157: (Sim:0h57m40s) 
CPU  0 inst:  410000000 cyc:  673905263 now IPC :1.54954: AVG IPC :0.60631: L2-Pf-HR :0.60448: L2-HR :0.67263: (Sim:0h57m50s) 
CPU  0 inst:  411000001 cyc:  674542779 now IPC :1.56859: AVG IPC :0.60722: L2-Pf-HR :0.60568: L2-HR :0.67366: (Sim:0h57m59s) 
CPU  0 inst:  412000000 cyc:  675236117 now IPC :1.44230: AVG IPC :0.60808: L2-Pf-HR :0.60667: L2-HR :0.67456: (Sim:0h58m6s) 
CPU  0 inst:  413000000 cyc:  675912369 now IPC :1.47874: AVG IPC :0.60895: L2-Pf-HR :0.60784: L2-HR :0.67567: (Sim:0h58m12s) 
CPU  0 inst:  414000000 cyc:  676597018 now IPC :1.46060: AVG IPC :0.60981: L2-Pf-HR :0.60903: L2-HR :0.67681: (Sim:0h58m17s) 
CPU  0 inst:  415000000 cyc:  677284713 now IPC :1.45413: AVG IPC :0.61067: L2-Pf-HR :0.61015: L2-HR :0.67788: (Sim:0h58m23s) 
CPU  0 inst:  416000000 cyc:  677981207 now IPC :1.43576: AVG IPC :0.61152: L2-Pf-HR :0.61099: L2-HR :0.67874: (Sim:0h58m28s) 
CPU  0 inst:  417000001 cyc:  678613161 now IPC :1.58240: AVG IPC :0.61243: L2-Pf-HR :0.61215: L2-HR :0.67981: (Sim:0h58m34s) 
CPU  0 inst:  418000000 cyc:  679275895 now IPC :1.50890: AVG IPC :0.61330: L2-Pf-HR :0.61331: L2-HR :0.68088: (Sim:0h58m39s) 
CPU  0 inst:  419000000 cyc:  679909760 now IPC :1.57762: AVG IPC :0.61420: L2-Pf-HR :0.61443: L2-HR :0.68191: (Sim:0h58m46s) 
CPU  0 inst:  420000000 cyc:  680546066 now IPC :1.57157: AVG IPC :0.61510: L2-Pf-HR :0.61539: L2-HR :0.68283: (Sim:0h58m52s) 
CPU  0 inst:  421000001 cyc:  681197793 now IPC :1.53439: AVG IPC :0.61598: L2-Pf-HR :0.61649: L2-HR :0.68381: (Sim:0h58m57s) 
CPU  0 inst:  422000002 cyc:  681845674 now IPC :1.54349: AVG IPC :0.61686: L2-Pf-HR :0.61762: L2-HR :0.68482: (Sim:0h59m3s) 
CPU  0 inst:  423000000 cyc:  682482361 now IPC :1.57063: AVG IPC :0.61775: L2-Pf-HR :0.61875: L2-HR :0.68581: (Sim:0h59m8s) 
CPU  0 inst:  424000000 cyc:  683123955 now IPC :1.55862: AVG IPC :0.61864: L2-Pf-HR :0.61982: L2-HR :0.68676: (Sim:0h59m13s) 
CPU  0 inst:  425000000 cyc:  683768729 now IPC :1.55093: AVG IPC :0.61952: L2-Pf-HR :0.62069: L2-HR :0.68753: (Sim:0h59m20s) 
CPU  0 inst:  426000000 cyc:  684412052 now IPC :1.55443: AVG IPC :0.62040: L2-Pf-HR :0.62175: L2-HR :0.68844: (Sim:0h59m26s) 
CPU  0 inst:  427000001 cyc:  685051236 now IPC :1.56450: AVG IPC :0.62128: L2-Pf-HR :0.62279: L2-HR :0.68933: (Sim:0h59m33s) 
CPU  0 inst:  428000000 cyc:  685693667 now IPC :1.55659: AVG IPC :0.62216: L2-Pf-HR :0.62380: L2-HR :0.69019: (Sim:0h59m39s) 
CPU  0 inst:  429000000 cyc:  686394651 now IPC :1.42657: AVG IPC :0.62298: L2-Pf-HR :0.62462: L2-HR :0.69095: (Sim:0h59m47s) 
CPU  0 inst:  430000002 cyc:  687069142 now IPC :1.48260: AVG IPC :0.62383: L2-Pf-HR :0.62557: L2-HR :0.69184: (Sim:0h59m55s) 
CPU  0 inst:  431000003 cyc:  687750901 now IPC :1.46680: AVG IPC :0.62466: L2-Pf-HR :0.62658: L2-HR :0.69277: (Sim:1h0m4s) 
CPU  0 inst:  432000000 cyc:  688431700 now IPC :1.46886: AVG IPC :0.62550: L2-Pf-HR :0.62758: L2-HR :0.69369: (Sim:1h0m12s) 
CPU  0 inst:  433000003 cyc:  689119320 now IPC :1.45430: AVG IPC :0.62633: L2-Pf-HR :0.62832: L2-HR :0.69440: (Sim:1h0m20s) 
CPU  0 inst:  434000003 cyc:  689762303 now IPC :1.55525: AVG IPC :0.62719: L2-Pf-HR :0.62928: L2-HR :0.69527: (Sim:1h0m28s) 
CPU  0 inst:  435000001 cyc:  690421505 now IPC :1.51698: AVG IPC :0.62804: L2-Pf-HR :0.63024: L2-HR :0.69615: (Sim:1h0m36s) 
CPU  0 inst:  436000000 cyc:  691056622 now IPC :1.57451: AVG IPC :0.62892: L2-Pf-HR :0.63119: L2-HR :0.69700: (Sim:1h0m44s) 
CPU  0 inst:  437000003 cyc:  691720609 now IPC :1.50606: AVG IPC :0.62976: L2-Pf-HR :0.63194: L2-HR :0.69770: (Sim:1h0m50s) 
CPU  0 inst:  438000000 cyc:  692356418 now IPC :1.57279: AVG IPC :0.63063: L2-Pf-HR :0.63291: L2-HR :0.69856: (Sim:1h0m55s) 
CPU  0 inst:  439000003 cyc:  693005011 now IPC :1.54180: AVG IPC :0.63148: L2-Pf-HR :0.63390: L2-HR :0.69944: (Sim:1h1m1s) 
CPU  0 inst:  440000000 cyc:  693637432 now IPC :1.58122: AVG IPC :0.63235: L2-Pf-HR :0.63489: L2-HR :0.70030: (Sim:1h1m6s) 
CPU  0 inst:  441000000 cyc:  694289230 now IPC :1.53422: AVG IPC :0.63319: L2-Pf-HR :0.63563: L2-HR :0.70098: (Sim:1h1m11s) 
CPU  0 inst:  442000002 cyc:  694926843 now IPC :1.56835: AVG IPC :0.63405: L2-Pf-HR :0.63652: L2-HR :0.70174: (Sim:1h1m18s) 
CPU  0 inst:  443000003 cyc:  695567079 now IPC :1.56193: AVG IPC :0.63491: L2-Pf-HR :0.63744: L2-HR :0.70253: (Sim:1h1m25s) 
CPU  0 inst:  444000000 cyc:  696203630 now IPC :1.57096: AVG IPC :0.63577: L2-Pf-HR :0.63835: L2-HR :0.70330: (Sim:1h1m31s) 
CPU  0 inst:  445000003 cyc:  696849917 now IPC :1.54730: AVG IPC :0.63661: L2-Pf-HR :0.63912: L2-HR :0.70397: (Sim:1h1m38s) 
CPU  0 inst:  446000002 cyc:  697552113 now IPC :1.42410: AVG IPC :0.63741: L2-Pf-HR :0.63996: L2-HR :0.70474: (Sim:1h1m43s) 
CPU  0 inst:  447000003 cyc:  698234459 now IPC :1.46553: AVG IPC :0.63822: L2-Pf-HR :0.64082: L2-HR :0.70552: (Sim:1h1m48s) 
CPU  0 inst:  448000000 cyc:  698913196 now IPC :1.47332: AVG IPC :0.63903: L2-Pf-HR :0.64170: L2-HR :0.70632: (Sim:1h1m53s) 
CPU  0 inst:  449000003 cyc:  699599870 now IPC :1.45630: AVG IPC :0.63983: L2-Pf-HR :0.64258: L2-HR :0.70712: (Sim:1h1m59s) 
CPU  0 inst:  450000000 cyc:  700268613 now IPC :1.49534: AVG IPC :0.64065: L2-Pf-HR :0.64323: L2-HR :0.70773: (Sim:1h2m4s) 
CPU  0 inst:  451000002 cyc:  700922238 now IPC :1.52993: AVG IPC :0.64148: L2-Pf-HR :0.64408: L2-HR :0.70848: (Sim:1h2m9s) 
CPU  0 inst:  452000000 cyc:  701567066 now IPC :1.55080: AVG IPC :0.64232: L2-Pf-HR :0.64489: L2-HR :0.70920: (Sim:1h2m14s) 
CPU  0 inst:  453000001 cyc:  702206709 now IPC :1.56337: AVG IPC :0.64316: L2-Pf-HR :0.64574: L2-HR :0.70994: (Sim:1h2m19s) 
CPU  0 inst:  454000002 cyc:  702857415 now IPC :1.53679: AVG IPC :0.64399: L2-Pf-HR :0.64645: L2-HR :0.71058: (Sim:1h2m24s) 
CPU  0 inst:  455000003 cyc:  703498447 now IPC :1.55999: AVG IPC :0.64482: L2-Pf-HR :0.64729: L2-HR :0.71133: (Sim:1h2m29s) 
CPU  0 inst:  456000000 cyc:  704143852 now IPC :1.54941: AVG IPC :0.64565: L2-Pf-HR :0.64816: L2-HR :0.71208: (Sim:1h2m34s) 
CPU  0 inst:  457000000 cyc:  704776310 now IPC :1.58113: AVG IPC :0.64649: L2-Pf-HR :0.64898: L2-HR :0.71281: (Sim:1h2m39s) 
CPU  0 inst:  458000002 cyc:  705421631 now IPC :1.54962: AVG IPC :0.64732: L2-Pf-HR :0.64967: L2-HR :0.71343: (Sim:1h2m48s) 
CPU  0 inst:  459000003 cyc:  706058332 now IPC :1.57060: AVG IPC :0.64815: L2-Pf-HR :0.65043: L2-HR :0.71408: (Sim:1h2m58s) 
CPU  0 inst:  460000000 cyc:  706715070 now IPC :1.52267: AVG IPC :0.64897: L2-Pf-HR :0.65120: L2-HR :0.71473: (Sim:1h3m6s) 
CPU  0 inst:  461000000 cyc:  707351036 now IPC :1.57241: AVG IPC :0.64980: L2-Pf-HR :0.65197: L2-HR :0.71539: (Sim:1h3m13s) 
CPU  0 inst:  462000000 cyc:  708025043 now IPC :1.48366: AVG IPC :0.65059: L2-Pf-HR :0.65265: L2-HR :0.71600: (Sim:1h3m20s) 
CPU  0 inst:  463000002 cyc:  708710900 now IPC :1.45803: AVG IPC :0.65138: L2-Pf-HR :0.65359: L2-HR :0.71689: (Sim:1h3m27s) 
CPU  0 inst:  464000000 cyc:  709400526 now IPC :1.45006: AVG IPC :0.65215: L2-Pf-HR :0.65456: L2-HR :0.71780: (Sim:1h3m32s) 
CPU  0 inst:  465000000 cyc:  710081733 now IPC :1.46798: AVG IPC :0.65294: L2-Pf-HR :0.65553: L2-HR :0.71870: (Sim:1h3m39s) 
CPU  0 inst:  466000002 cyc:  710791630 now IPC :1.40866: AVG IPC :0.65369: L2-Pf-HR :0.65625: L2-HR :0.71941: (Sim:1h3m47s) 
CPU  0 inst:  467000001 cyc:  711429526 now IPC :1.56765: AVG IPC :0.65451: L2-Pf-HR :0.65694: L2-HR :0.72005: (Sim:1h3m55s) 
CPU  0 inst:  468000000 cyc:  712097327 now IPC :1.49745: AVG IPC :0.65531: L2-Pf-HR :0.65766: L2-HR :0.72070: (Sim:1h4m0s) 
CPU  0 inst:  469000002 cyc:  712732923 now IPC :1.57333: AVG IPC :0.65613: L2-Pf-HR :0.65836: L2-HR :0.72133: (Sim:1h4m5s) 
CPU  0 inst:  470000003 cyc:  713382679 now IPC :1.53904: AVG IPC :0.65693: L2-Pf-HR :0.65901: L2-HR :0.72192: (Sim:1h4m10s) 
CPU  0 inst:  471000001 cyc:  714031358 now IPC :1.54159: AVG IPC :0.65774: L2-Pf-HR :0.65964: L2-HR :0.72250: (Sim:1h4m15s) 
CPU  0 inst:  472000000 cyc:  714677976 now IPC :1.54651: AVG IPC :0.65854: L2-Pf-HR :0.66038: L2-HR :0.72315: (Sim:1h4m22s) 
CPU  0 inst:  473000001 cyc:  715313796 now IPC :1.57277: AVG IPC :0.65936: L2-Pf-HR :0.66114: L2-HR :0.72381: (Sim:1h4m29s) 
CPU  0 inst:  474000001 cyc:  715946453 now IPC :1.58064: AVG IPC :0.66017: L2-Pf-HR :0.66186: L2-HR :0.72444: (Sim:1h4m37s) 
CPU  0 inst:  475000001 cyc:  716599960 now IPC :1.53021: AVG IPC :0.66096: L2-Pf-HR :0.66239: L2-HR :0.72492: (Sim:1h4m45s) 
CPU  0 inst:  476000000 cyc:  717232994 now IPC :1.57969: AVG IPC :0.66178: L2-Pf-HR :0.66309: L2-HR :0.72550: (Sim:1h4m55s) 
CPU  0 inst:  477000003 cyc:  717882178 now IPC :1.54040: AVG IPC :0.66257: L2-Pf-HR :0.66378: L2-HR :0.72609: (Sim:1h5m4s) 
CPU  0 inst:  478000003 cyc:  718519518 now IPC :1.56902: AVG IPC :0.66338: L2-Pf-HR :0.66445: L2-HR :0.72666: (Sim:1h5m11s) 
CPU  0 inst:  479000002 cyc:  719215982 now IPC :1.43582: AVG IPC :0.66413: L2-Pf-HR :0.66494: L2-HR :0.72713: (Sim:1h5m17s) 
CPU  0 inst:  480000000 cyc:  719891121 now IPC :1.48117: AVG IPC :0.66489: L2-Pf-HR :0.66564: L2-HR :0.72781: (Sim:1h5m22s) 
CPU  0 inst:  481000002 cyc:  720577672 now IPC :1.45656: AVG IPC :0.66565: L2-Pf-HR :0.66635: L2-HR :0.72849: (Sim:1h5m27s) 
CPU  0 inst:  482000000 cyc:  721256289 now IPC :1.47358: AVG IPC :0.66641: L2-Pf-HR :0.66697: L2-HR :0.72910: (Sim:1h5m32s) 
CPU  0 inst:  483000000 cyc:  721944952 now IPC :1.45209: AVG IPC :0.66716: L2-Pf-HR :0.66741: L2-HR :0.72956: (Sim:1h5m37s) 
CPU  0 inst:  484000000 cyc:  722579714 now IPC :1.57539: AVG IPC :0.66796: L2-Pf-HR :0.66808: L2-HR :0.73014: (Sim:1h5m42s) 
CPU  0 inst:  485000003 cyc:  723244350 now IPC :1.50459: AVG IPC :0.66873: L2-Pf-HR :0.66873: L2-HR :0.73071: (Sim:1h5m47s) 
CPU  0 inst:  486000001 cyc:  723887189 now IPC :1.55560: AVG IPC :0.66952: L2-Pf-HR :0.66934: L2-HR :0.73124: (Sim:1h5m53s) 
CPU  0 inst:  487000000 cyc:  724541626 now IPC :1.52803: AVG IPC :0.67029: L2-Pf-HR :0.66980: L2-HR :0.73167: (Sim:1h5m58s) 
CPU  0 inst:  488000000 cyc:  725174190 now IPC :1.58087: AVG IPC :0.67109: L2-Pf-HR :0.67047: L2-HR :0.73226: (Sim:1h6m3s) 
CPU  0 inst:  489000001 cyc:  725822868 now IPC :1.54160: AVG IPC :0.67187: L2-Pf-HR :0.67112: L2-HR :0.73283: (Sim:1h6m8s) 
CPU  0 inst:  490000003 cyc:  726457600 now IPC :1.57547: AVG IPC :0.67266: L2-Pf-HR :0.67176: L2-HR :0.73339: (Sim:1h6m13s) 
CPU  0 inst:  491000000 cyc:  727084875 now IPC :1.59419: AVG IPC :0.67346: L2-Pf-HR :0.67230: L2-HR :0.73387: (Sim:1h6m17s) 
CPU  0 inst:  492000000 cyc:  727736579 now IPC :1.53444: AVG IPC :0.67423: L2-Pf-HR :0.67286: L2-HR :0.73435: (Sim:1h6m24s) 
CPU  0 inst:  493000002 cyc:  728379014 now IPC :1.55658: AVG IPC :0.67501: L2-Pf-HR :0.67346: L2-HR :0.73486: (Sim:1h6m30s) 
CPU  0 inst:  494000000 cyc:  729022394 now IPC :1.55429: AVG IPC :0.67578: L2-Pf-HR :0.67406: L2-HR :0.73537: (Sim:1h6m36s) 
CPU  0 inst:  495000003 cyc:  729669963 now IPC :1.54424: AVG IPC :0.67656: L2-Pf-HR :0.67463: L2-HR :0.73585: (Sim:1h6m43s) 
CPU  0 inst:  496000000 cyc:  730362745 now IPC :1.44345: AVG IPC :0.67728: L2-Pf-HR :0.67508: L2-HR :0.73628: (Sim:1h6m49s) 
CPU  0 inst:  497000001 cyc:  731057767 now IPC :1.43880: AVG IPC :0.67801: L2-Pf-HR :0.67561: L2-HR :0.73679: (Sim:1h6m55s) 
CPU  0 inst:  498000000 cyc:  731733168 now IPC :1.48060: AVG IPC :0.67875: L2-Pf-HR :0.67617: L2-HR :0.73732: (Sim:1h7m2s) 
CPU  0 inst:  499000000 cyc:  732412462 now IPC :1.47212: AVG IPC :0.67949: L2-Pf-HR :0.67669: L2-HR :0.73783: (Sim:1h7m9s) 
CPU  0 inst:  500000000 cyc:  733083578 now IPC :1.49006: AVG IPC :0.68023: L2-Pf-HR :0.67708: L2-HR :0.73821: (Sim:1h7m17s) 
CPU  0 inst:  501000003 cyc:  733738926 now IPC :1.52591: AVG IPC :0.68099: L2-Pf-HR :0.67769: L2-HR :0.73874: (Sim:1h7m24s) 
CPU  0 inst:  502000003 cyc:  734386192 now IPC :1.54496: AVG IPC :0.68175: L2-Pf-HR :0.67829: L2-HR :0.73926: (Sim:1h7m32s) 
CPU  0 inst:  503000000 cyc:  735021763 now IPC :1.57338: AVG IPC :0.68252: L2-Pf-HR :0.67886: L2-HR :0.73976: (Sim:1h7m39s) 
CPU  0 inst:  504000000 cyc:  735678922 now IPC :1.52170: AVG IPC :0.68327: L2-Pf-HR :0.67927: L2-HR :0.74014: (Sim:1h7m44s) 
CPU  0 inst:  505000000 cyc:  736317765 now IPC :1.56533: AVG IPC :0.68404: L2-Pf-HR :0.67989: L2-HR :0.74068: (Sim:1h7m50s) 
CPU  0 inst:  506000000 cyc:  736962584 now IPC :1.55082: AVG IPC :0.68480: L2-Pf-HR :0.68051: L2-HR :0.74121: (Sim:1h7m56s) 
CPU  0 inst:  507000003 cyc:  737593935 now IPC :1.58391: AVG IPC :0.68557: L2-Pf-HR :0.68111: L2-HR :0.74174: (Sim:1h8m0s) 
CPU  0 inst:  508000000 cyc:  738253688 now IPC :1.51571: AVG IPC :0.68631: L2-Pf-HR :0.68152: L2-HR :0.74211: (Sim:1h8m6s) 
CPU  0 inst:  509000001 cyc:  738889347 now IPC :1.57317: AVG IPC :0.68708: L2-Pf-HR :0.68208: L2-HR :0.74257: (Sim:1h8m14s) 
CPU  0 inst:  510000003 cyc:  739534406 now IPC :1.55025: AVG IPC :0.68783: L2-Pf-HR :0.68264: L2-HR :0.74305: (Sim:1h8m20s) 
CPU  0 inst:  511000001 cyc:  740170765 now IPC :1.57144: AVG IPC :0.68859: L2-Pf-HR :0.68319: L2-HR :0.74351: (Sim:1h8m26s) 
CPU  0 inst:  512000000 cyc:  740842358 now IPC :1.48900: AVG IPC :0.68932: L2-Pf-HR :0.68358: L2-HR :0.74385: (Sim:1h8m31s) 
CPU  0 inst:  513000002 cyc:  741525466 now IPC :1.46390: AVG IPC :0.69003: L2-Pf-HR :0.68406: L2-HR :0.74433: (Sim:1h8m37s) 
CPU  0 inst:  514000001 cyc:  742212493 now IPC :1.45555: AVG IPC :0.69074: L2-Pf-HR :0.68460: L2-HR :0.74485: (Sim:1h8m44s) 
CPU  0 inst:  515000002 cyc:  742889501 now IPC :1.47709: AVG IPC :0.69146: L2-Pf-HR :0.68513: L2-HR :0.74536: (Sim:1h8m49s) 
CPU  0 inst:  516000000 cyc:  743581219 now IPC :1.44567: AVG IPC :0.69216: L2-Pf-HR :0.68552: L2-HR :0.74577: (Sim:1h8m54s) 
CPU  0 inst:  517000001 cyc:  744243549 now IPC :1.50982: AVG IPC :0.69289: L2-Pf-HR :0.68596: L2-HR :0.74617: (Sim:1h8m58s) 
CPU  0 inst:  518000002 cyc:  744906142 now IPC :1.50922: AVG IPC :0.69362: L2-Pf-HR :0.68645: L2-HR :0.74660: (Sim:1h9m3s) 
CPU  0 inst:  519000003 cyc:  745543729 now IPC :1.56841: AVG IPC :0.69437: L2-Pf-HR :0.68693: L2-HR :0.74704: (Sim:1h9m8s) 
CPU  0 inst:  520000000 cyc:  746178433 now IPC :1.57553: AVG IPC :0.69512: L2-Pf-HR :0.68740: L2-HR :0.74745: (Sim:1h9m12s) 
CPU  0 inst:  521000003 cyc:  746834599 now IPC :1.52401: AVG IPC :0.69585: L2-Pf-HR :0.68777: L2-HR :0.74780: (Sim:1h9m17s) 
CPU  0 inst:  522000003 cyc:  747480040 now IPC :1.54933: AVG IPC :0.69658: L2-Pf-HR :0.68830: L2-HR :0.74826: (Sim:1h9m22s) 
CPU  0 inst:  523000003 cyc:  748123128 now IPC :1.55500: AVG IPC :0.69732: L2-Pf-HR :0.68881: L2-HR :0.74871: (Sim:1h9m26s) 
CPU  0 inst:  524000000 cyc:  748757395 now IPC :1.57662: AVG IPC :0.69807: L2-Pf-HR :0.68931: L2-HR :0.74915: (Sim:1h9m33s) 
CPU  0 inst:  525000001 cyc:  749409646 now IPC :1.53315: AVG IPC :0.69880: L2-Pf-HR :0.68968: L2-HR :0.74948: (Sim:1h9m38s) 
CPU  0 inst:  526000003 cyc:  750051714 now IPC :1.55747: AVG IPC :0.69953: L2-Pf-HR :0.69015: L2-HR :0.74987: (Sim:1h9m44s) 
CPU  0 inst:  527000002 cyc:  750696376 now IPC :1.55120: AVG IPC :0.70026: L2-Pf-HR :0.69063: L2-HR :0.75027: (Sim:1h9m49s) 
CPU  0 inst:  528000000 cyc:  751337551 now IPC :1.55963: AVG IPC :0.70100: L2-Pf-HR :0.69108: L2-HR :0.75066: (Sim:1h9m55s) 
CPU  0 inst:  529000003 cyc:  752011987 now IPC :1.48272: AVG IPC :0.70170: L2-Pf-HR :0.69146: L2-HR :0.75098: (Sim:1h10m0s) 
CPU  0 inst:  530000003 cyc:  752692513 now IPC :1.46945: AVG IPC :0.70240: L2-Pf-HR :0.69194: L2-HR :0.75139: (Sim:1h10m4s) 
CPU  0 inst:  531000003 cyc:  753378471 now IPC :1.45782: AVG IPC :0.70308: L2-Pf-HR :0.69242: L2-HR :0.75180: (Sim:1h10m9s) 
CPU  0 inst:  532000000 cyc:  754052533 now IPC :1.48354: AVG IPC :0.70378: L2-Pf-HR :0.69291: L2-HR :0.75222: (Sim:1h10m14s) 
CPU  0 inst:  533000003 cyc:  754753207 now IPC :1.42720: AVG IPC :0.70446: L2-Pf-HR :0.69323: L2-HR :0.75251: (Sim:1h10m18s) 
CPU  0 inst:  534000002 cyc:  755392894 now IPC :1.56326: AVG IPC :0.70518: L2-Pf-HR :0.69370: L2-HR :0.75293: (Sim:1h10m23s) 
CPU  0 inst:  535000000 cyc:  756052524 now IPC :1.51600: AVG IPC :0.70589: L2-Pf-HR :0.69416: L2-HR :0.75334: (Sim:1h10m27s) 
CPU  0 inst:  536000000 cyc:  756683004 now IPC :1.58609: AVG IPC :0.70663: L2-Pf-HR :0.69462: L2-HR :0.75375: (Sim:1h10m32s) 
CPU  0 inst:  537000000 cyc:  757340114 now IPC :1.52182: AVG IPC :0.70733: L2-Pf-HR :0.69494: L2-HR :0.75405: (Sim:1h10m37s) 
CPU  0 inst:  538000001 cyc:  757976359 now IPC :1.57172: AVG IPC :0.70806: L2-Pf-HR :0.69542: L2-HR :0.75447: (Sim:1h10m41s) 
CPU  0 inst:  539000002 cyc:  758630605 now IPC :1.52848: AVG IPC :0.70877: L2-Pf-HR :0.69592: L2-HR :0.75490: (Sim:1h10m46s) 
CPU  0 inst:  540000000 cyc:  759258852 now IPC :1.59173: AVG IPC :0.70950: L2-Pf-HR :0.69642: L2-HR :0.75533: (Sim:1h10m50s) 
CPU  0 inst:  541000001 cyc:  759899691 now IPC :1.56046: AVG IPC :0.71022: L2-Pf-HR :0.69685: L2-HR :0.75572: (Sim:1h10m55s) 
CPU  0 inst:  542000003 cyc:  760548532 now IPC :1.54121: AVG IPC :0.71093: L2-Pf-HR :0.69721: L2-HR :0.75603: (Sim:1h11m0s) 
CPU  0 inst:  543000001 cyc:  761193812 now IPC :1.54971: AVG IPC :0.71164: L2-Pf-HR :0.69765: L2-HR :0.75640: (Sim:1h11m5s) 
CPU  0 inst:  544000000 cyc:  761832113 now IPC :1.56666: AVG IPC :0.71236: L2-Pf-HR :0.69810: L2-HR :0.75678: (Sim:1h11m10s) 
CPU  0 inst:  545000003 cyc:  762473080 now IPC :1.56015: AVG IPC :0.71307: L2-Pf-HR :0.69855: L2-HR :0.75716: (Sim:1h11m16s) 
CPU  0 inst:  546000000 cyc:  763175305 now IPC :1.42404: AVG IPC :0.71373: L2-Pf-HR :0.69885: L2-HR :0.75745: (Sim:1h11m21s) 
CPU  0 inst:  547000003 cyc:  763848748 now IPC :1.48491: AVG IPC :0.71441: L2-Pf-HR :0.69930: L2-HR :0.75788: (Sim:1h11m26s) 
CPU  0 inst:  548000000 cyc:  764531276 now IPC :1.46514: AVG IPC :0.71508: L2-Pf-HR :0.69974: L2-HR :0.75830: (Sim:1h11m30s) 
CPU  0 inst:  549000001 cyc:  765208511 now IPC :1.47659: AVG IPC :0.71575: L2-Pf-HR :0.70018: L2-HR :0.75872: (Sim:1h11m35s) 
CPU  0 inst:  550000002 cyc:  765896719 now IPC :1.45305: AVG IPC :0.71642: L2-Pf-HR :0.70042: L2-HR :0.75899: (Sim:1h11m39s) 
CPU  0 inst:  551000000 cyc:  766538322 now IPC :1.55859: AVG IPC :0.71712: L2-Pf-HR :0.70085: L2-HR :0.75937: (Sim:1h11m44s) 
CPU  0 inst:  552000000 cyc:  767189844 now IPC :1.53487: AVG IPC :0.71782: L2-Pf-HR :0.70124: L2-HR :0.75974: (Sim:1h11m48s) 
CPU  0 inst:  553000000 cyc:  767821853 now IPC :1.58226: AVG IPC :0.71853: L2-Pf-HR :0.70165: L2-HR :0.76012: (Sim:1h11m53s) 
CPU  0 inst:  554000001 cyc:  768483283 now IPC :1.51188: AVG IPC :0.71921: L2-Pf-HR :0.70192: L2-HR :0.76038: (Sim:1h11m58s) 
CPU  0 inst:  555000002 cyc:  769111965 now IPC :1.59063: AVG IPC :0.71993: L2-Pf-HR :0.70236: L2-HR :0.76077: (Sim:1h12m2s) 
CPU  0 inst:  556000000 cyc:  769756487 now IPC :1.55153: AVG IPC :0.72063: L2-Pf-HR :0.70283: L2-HR :0.76117: (Sim:1h12m7s) 
CPU  0 inst:  557000002 cyc:  770393945 now IPC :1.56873: AVG IPC :0.72133: L2-Pf-HR :0.70325: L2-HR :0.76153: (Sim:1h12m11s) 
CPU  0 inst:  558000001 cyc:  771052397 now IPC :1.51871: AVG IPC :0.72201: L2-Pf-HR :0.70355: L2-HR :0.76181: (Sim:1h12m16s) 
CPU  0 inst:  559000002 cyc:  771682127 now IPC :1.58798: AVG IPC :0.72272: L2-Pf-HR :0.70395: L2-HR :0.76214: (Sim:1h12m21s) 
CPU  0 inst:  560000000 cyc:  772322780 now IPC :1.56090: AVG IPC :0.72341: L2-Pf-HR :0.70434: L2-HR :0.76247: (Sim:1h12m26s) 
CPU  0 inst:  561000003 cyc:  772968303 now IPC :1.54914: AVG IPC :0.72410: L2-Pf-HR :0.70473: L2-HR :0.76280: (Sim:1h12m31s) 
CPU  0 inst:  562000003 cyc:  773608640 now IPC :1.56168: AVG IPC :0.72480: L2-Pf-HR :0.70507: L2-HR :0.76308: (Sim:1h12m36s) 
CPU  0 inst:  563000000 cyc:  774309362 now IPC :1.42710: AVG IPC :0.72543: L2-Pf-HR :0.70545: L2-HR :0.76345: (Sim:1h12m40s) 
CPU  0 inst:  564000000 cyc:  775002860 now IPC :1.44197: AVG IPC :0.72608: L2-Pf-HR :0.70580: L2-HR :0.76380: (Sim:1h12m45s) 
CPU  0 inst:  565000003 cyc:  775683744 now IPC :1.46868: AVG IPC :0.72673: L2-Pf-HR :0.70619: L2-HR :0.76418: (Sim:1h12m50s) 
CPU  0 inst:  566000003 cyc:  776369023 now IPC :1.45926: AVG IPC :0.72738: L2-Pf-HR :0.70657: L2-HR :0.76454: (Sim:1h12m54s) 
CPU  0 inst:  567000001 cyc:  777027817 now IPC :1.51792: AVG IPC :0.72805: L2-Pf-HR :0.70682: L2-HR :0.76479: (Sim:1h12m59s) 
CPU  0 inst:  568000000 cyc:  777693649 now IPC :1.50188: AVG IPC :0.72871: L2-Pf-HR :0.70718: L2-HR :0.76511: (Sim:1h13m3s) 
CPU  0 inst:  569000003 cyc:  778326926 now IPC :1.57909: AVG IPC :0.72940: L2-Pf-HR :0.70754: L2-HR :0.76544: (Sim:1h13m8s) 
CPU  0 inst:  570000003 cyc:  778956684 now IPC :1.58791: AVG IPC :0.73010: L2-Pf-HR :0.70792: L2-HR :0.76577: (Sim:1h13m12s) 
CPU  0 inst:  571000000 cyc:  779610264 now IPC :1.53003: AVG IPC :0.73077: L2-Pf-HR :0.70818: L2-HR :0.76602: (Sim:1h13m17s) 
CPU  0 inst:  572000000 cyc:  780256995 now IPC :1.54624: AVG IPC :0.73145: L2-Pf-HR :0.70857: L2-HR :0.76636: (Sim:1h13m21s) 
CPU  0 inst:  573000003 cyc:  780894760 now IPC :1.56798: AVG IPC :0.73213: L2-Pf-HR :0.70896: L2-HR :0.76671: (Sim:1h13m25s) 
CPU  0 inst:  574000000 cyc:  781521270 now IPC :1.59614: AVG IPC :0.73282: L2-Pf-HR :0.70938: L2-HR :0.76706: (Sim:1h13m31s) 
CPU  0 inst:  575000002 cyc:  782173800 now IPC :1.53250: AVG IPC :0.73349: L2-Pf-HR :0.70963: L2-HR :0.76729: (Sim:1h13m39s) 
CPU  0 inst:  576000000 cyc:  782806407 now IPC :1.58076: AVG IPC :0.73418: L2-Pf-HR :0.71000: L2-HR :0.76760: (Sim:1h13m47s) 
CPU  0 inst:  577000003 cyc:  783451320 now IPC :1.55060: AVG IPC :0.73485: L2-Pf-HR :0.71036: L2-HR :0.76790: (Sim:1h13m54s) 
CPU  0 inst:  578000000 cyc:  784085162 now IPC :1.57768: AVG IPC :0.73553: L2-Pf-HR :0.71073: L2-HR :0.76821: (Sim:1h14m2s) 
CPU  0 inst:  579000000 cyc:  784772765 now IPC :1.45433: AVG IPC :0.73616: L2-Pf-HR :0.71097: L2-HR :0.76844: (Sim:1h14m7s) 
CPU  0 inst:  580000000 cyc:  785451248 now IPC :1.47388: AVG IPC :0.73680: L2-Pf-HR :0.71129: L2-HR :0.76875: (Sim:1h14m12s) 
CPU  0 inst:  581000000 cyc:  786137254 now IPC :1.45771: AVG IPC :0.73743: L2-Pf-HR :0.71168: L2-HR :0.76912: (Sim:1h14m16s) 
CPU  0 inst:  582000001 cyc:  786812806 now IPC :1.48027: AVG IPC :0.73807: L2-Pf-HR :0.71204: L2-HR :0.76948: (Sim:1h14m21s) 
CPU  0 inst:  583000003 cyc:  787516819 now IPC :1.42043: AVG IPC :0.73868: L2-Pf-HR :0.71225: L2-HR :0.76971: (Sim:1h14m25s) 
CPU  0 inst:  584000000 cyc:  788152097 now IPC :1.57411: AVG IPC :0.73936: L2-Pf-HR :0.71258: L2-HR :0.77000: (Sim:1h14m30s) 
CPU  0 inst:  585000001 cyc:  788822493 now IPC :1.49166: AVG IPC :0.74000: L2-Pf-HR :0.71293: L2-HR :0.77030: (Sim:1h14m35s) 
CPU  0 inst:  586000001 cyc:  789456784 now IPC :1.57656: AVG IPC :0.74067: L2-Pf-HR :0.71327: L2-HR :0.77060: (Sim:1h14m39s) 
CPU  0 inst:  587000001 cyc:  790104063 now IPC :1.54493: AVG IPC :0.74133: L2-Pf-HR :0.71355: L2-HR :0.77084: (Sim:1h14m44s) 
CPU  0 inst:  588000000 cyc:  790757748 now IPC :1.52979: AVG IPC :0.74198: L2-Pf-HR :0.71384: L2-HR :0.77110: (Sim:1h14m49s) 
CPU  0 inst:  589000003 cyc:  791404693 now IPC :1.54573: AVG IPC :0.74264: L2-Pf-HR :0.71422: L2-HR :0.77143: (Sim:1h14m54s) 
CPU  0 inst:  590000002 cyc:  792042932 now IPC :1.56681: AVG IPC :0.74330: L2-Pf-HR :0.71460: L2-HR :0.77176: (Sim:1h14m58s) 
CPU  0 inst:  591000003 cyc:  792677724 now IPC :1.57532: AVG IPC :0.74397: L2-Pf-HR :0.71495: L2-HR :0.77207: (Sim:1h15m3s) 
CPU  0 inst:  592000000 cyc:  793335164 now IPC :1.52105: AVG IPC :0.74462: L2-Pf-HR :0.71516: L2-HR :0.77226: (Sim:1h15m7s) 
CPU  0 inst:  593000000 cyc:  793965581 now IPC :1.58625: AVG IPC :0.74528: L2-Pf-HR :0.71548: L2-HR :0.77252: (Sim:1h15m12s) 
CPU  0 inst:  594000002 cyc:  794614137 now IPC :1.54189: AVG IPC :0.74594: L2-Pf-HR :0.71581: L2-HR :0.77279: (Sim:1h15m17s) 
CPU  0 inst:  595000000 cyc:  795252618 now IPC :1.56621: AVG IPC :0.74659: L2-Pf-HR :0.71611: L2-HR :0.77304: (Sim:1h15m21s) 
CPU  0 inst:  596000000 cyc:  795939294 now IPC :1.45629: AVG IPC :0.74721: L2-Pf-HR :0.71636: L2-HR :0.77327: (Sim:1h15m26s) 
CPU  0 inst:  597000001 cyc:  796624053 now IPC :1.46037: AVG IPC :0.74782: L2-Pf-HR :0.71666: L2-HR :0.77357: (Sim:1h15m30s) 
CPU  0 inst:  598000001 cyc:  797321392 now IPC :1.43402: AVG IPC :0.74842: L2-Pf-HR :0.71693: L2-HR :0.77385: (Sim:1h15m35s) 
CPU  0 inst:  599000002 cyc:  798001412 now IPC :1.47055: AVG IPC :0.74904: L2-Pf-HR :0.71726: L2-HR :0.77417: (Sim:1h15m39s) 
CPU  0 inst:  600000000 cyc:  798684245 now IPC :1.46448: AVG IPC :0.74965: L2-Pf-HR :0.71745: L2-HR :0.77438: (Sim:1h15m44s) 
CPU  0 inst:  601000002 cyc:  799328186 now IPC :1.55294: AVG IPC :0.75030: L2-Pf-HR :0.71774: L2-HR :0.77466: (Sim:1h15m48s) 
CPU  0 inst:  602000001 cyc:  799993599 now IPC :1.50282: AVG IPC :0.75093: L2-Pf-HR :0.71802: L2-HR :0.77492: (Sim:1h15m53s) 
CPU  0 inst:  603000000 cyc:  800621157 now IPC :1.59348: AVG IPC :0.75159: L2-Pf-HR :0.71833: L2-HR :0.77520: (Sim:1h15m57s) 
CPU  0 inst:  604000000 cyc:  801275380 now IPC :1.52853: AVG IPC :0.75222: L2-Pf-HR :0.71853: L2-HR :0.77541: (Sim:1h16m2s) 
CPU  0 inst:  605000003 cyc:  801914560 now IPC :1.56451: AVG IPC :0.75287: L2-Pf-HR :0.71887: L2-HR :0.77570: (Sim:1h16m6s) 
CPU  0 inst:  606000001 cyc:  802569489 now IPC :1.52688: AVG IPC :0.75350: L2-Pf-HR :0.71919: L2-HR :0.77598: (Sim:1h16m10s) 
CPU  0 inst:  607000001 cyc:  803195647 now IPC :1.59704: AVG IPC :0.75416: L2-Pf-HR :0.71954: L2-HR :0.77627: (Sim:1h16m15s) 
CPU  0 inst:  608000000 cyc:  803845519 now IPC :1.53876: AVG IPC :0.75480: L2-Pf-HR :0.71976: L2-HR :0.77648: (Sim:1h16m19s) 
CPU  0 inst:  609000003 cyc:  804478392 now IPC :1.58010: AVG IPC :0.75545: L2-Pf-HR :0.72007: L2-HR :0.77674: (Sim:1h16m24s) 
CPU  0 inst:  610000003 cyc:  805124737 now IPC :1.54716: AVG IPC :0.75608: L2-Pf-HR :0.72037: L2-HR :0.77699: (Sim:1h16m28s) 
CPU  0 inst:  611000001 cyc:  805757300 now IPC :1.58087: AVG IPC :0.75673: L2-Pf-HR :0.72069: L2-HR :0.77724: (Sim:1h16m33s) 
CPU  0 inst:  612000000 cyc:  806403363 now IPC :1.54784: AVG IPC :0.75737: L2-Pf-HR :0.72097: L2-HR :0.77748: (Sim:1h16m37s) 
CPU  0 inst:  613000003 cyc:  807102498 now IPC :1.43034: AVG IPC :0.75795: L2-Pf-HR :0.72118: L2-HR :0.77768: (Sim:1h16m42s) 
CPU  0 inst:  614000002 cyc:  807789111 now IPC :1.45642: AVG IPC :0.75854: L2-Pf-HR :0.72148: L2-HR :0.77796: (Sim:1h16m46s) 
CPU  0 inst:  615000002 cyc:  808471801 now IPC :1.46479: AVG IPC :0.75914: L2-Pf-HR :0.72177: L2-HR :0.77822: (Sim:1h16m50s) 
CPU  0 inst:  616000000 cyc:  809142357 now IPC :1.49130: AVG IPC :0.75975: L2-Pf-HR :0.72208: L2-HR :0.77850: (Sim:1h16m55s) 
CPU  0 inst:  617000003 cyc:  809825627 now IPC :1.46355: AVG IPC :0.76034: L2-Pf-HR :0.72222: L2-HR :0.77865: (Sim:1h16m59s) 
CPU  0 inst:  618000001 cyc:  810481533 now IPC :1.52461: AVG IPC :0.76096: L2-Pf-HR :0.72251: L2-HR :0.77891: (Sim:1h17m4s) 
CPU  0 inst:  619000001 cyc:  811135524 now IPC :1.52907: AVG IPC :0.76158: L2-Pf-HR :0.72278: L2-HR :0.77915: (Sim:1h17m8s) 
CPU  0 inst:  620000000 cyc:  811765806 now IPC :1.58659: AVG IPC :0.76222: L2-Pf-HR :0.72307: L2-HR :0.77941: (Sim:1h17m12s) 
CPU  0 inst:  621000001 cyc:  812425121 now IPC :1.51673: AVG IPC :0.76284: L2-Pf-HR :0.72324: L2-HR :0.77957: (Sim:1h17m17s) 
CPU  0 inst:  622000003 cyc:  813066362 now IPC :1.55948: AVG IPC :0.76347: L2-Pf-HR :0.72354: L2-HR :0.77983: (Sim:1h17m21s) 
CPU  0 inst:  623000000 cyc:  813713551 now IPC :1.54514: AVG IPC :0.76409: L2-Pf-HR :0.72386: L2-HR :0.78011: (Sim:1h17m26s) 
CPU  0 inst:  624000000 cyc:  814343773 now IPC :1.58674: AVG IPC :0.76473: L2-Pf-HR :0.72418: L2-HR :0.78038: (Sim:1h17m30s) 
CPU  0 inst:  625000001 cyc:  815002788 now IPC :1.51742: AVG IPC :0.76533: L2-Pf-HR :0.72436: L2-HR :0.78055: (Sim:1h17m35s) 
CPU  0 inst:  626000003 cyc:  815633504 now IPC :1.58550: AVG IPC :0.76597: L2-Pf-HR :0.72463: L2-HR :0.78078: (Sim:1h17m39s) 
CPU  0 inst:  627000003 cyc:  816278625 now IPC :1.55010: AVG IPC :0.76659: L2-Pf-HR :0.72491: L2-HR :0.78101: (Sim:1h17m44s) 
[...]
dac-> Hits: 10, Late: 0, Early: 0, Misses: 0
dad-> Hits: 13, Late: 0, Early: 0, Misses: 0
dae-> Hits: 1, Late: 0, Early: 0, Misses: 0
daf-> Hits: 3, Late: 0, Early: 0, Misses: 0
db0-> Hits: 7, Late: 4, Early: 0, Misses: 0
db1-> Hits: 12, Late: 0, Early: 0, Misses: 0
db3-> Hits: 14202, Late: 4861, Early: 0, Misses: 13051
db5-> Hits: 3, Late: 0, Early: 0, Misses: 0
db6-> Hits: 1, Late: 0, Early: 0, Misses: 0
db7-> Hits: 3, Late: 0, Early: 0, Misses: 0
db8-> Hits: 3, Late: 0, Early: 0, Misses: 0
db9-> Hits: 2, Late: 0, Early: 0, Misses: 0
dba-> Hits: 4, Late: 0, Early: 0, Misses: 0
dbb-> Hits: 2, Late: 0, Early: 0, Misses: 0
dbc-> Hits: 1, Late: 0, Early: 0, Misses: 0
dbd-> Hits: 1, Late: 0, Early: 0, Misses: 0
dbe-> Hits: 5, Late: 0, Early: 0, Misses: 0
dbf-> Hits: 14, Late: 0, Early: 0, Misses: 0
dc0-> Hits: 55, Late: 6, Early: 0, Misses: 0
dc2-> Hits: 3, Late: 2, Early: 0, Misses: 0
dc3-> Hits: 4, Late: 0, Early: 0, Misses: 0
dc5-> Hits: 609, Late: 26, Early: 0, Misses: 126
dc7-> Hits: 27, Late: 1, Early: 0, Misses: 0
dc8-> Hits: 3, Late: 1, Early: 0, Misses: 0
dca-> Hits: 3, Late: 0, Early: 0, Misses: 0
dcb-> Hits: 6, Late: 0, Early: 0, Misses: 0
dcc-> Hits: 22, Late: 2, Early: 0, Misses: 0
dcd-> Hits: 24, Late: 3, Early: 0, Misses: 0
dcf-> Hits: 16, Late: 0, Early: 0, Misses: 0
dd0-> Hits: 32, Late: 0, Early: 0, Misses: 0
dd1-> Hits: 17, Late: 0, Early: 0, Misses: 0
dd2-> Hits: 1, Late: 20, Early: 0, Misses: 0
dd3-> Hits: 20, Late: 0, Early: 0, Misses: 0
dd5-> Hits: 3, Late: 0, Early: 0, Misses: 0
dd6-> Hits: 4, Late: 0, Early: 0, Misses: 0
dd8-> Hits: 23, Late: 0, Early: 0, Misses: 0
dd9-> Hits: 16, Late: 0, Early: 0, Misses: 0
dda-> Hits: 15744, Late: 5857, Early: 0, Misses: 10515
ddc-> Hits: 5, Late: 0, Early: 0, Misses: 0
dde-> Hits: 4, Late: 0, Early: 0, Misses: 0
ddf-> Hits: 4, Late: 0, Early: 0, Misses: 0
de0-> Hits: 18, Late: 0, Early: 0, Misses: 0
de2-> Hits: 2, Late: 0, Early: 0, Misses: 0
de3-> Hits: 4, Late: 2, Early: 0, Misses: 0
de4-> Hits: 2, Late: 0, Early: 0, Misses: 0
de7-> Hits: 1, Late: 0, Early: 0, Misses: 0
de8-> Hits: 1, Late: 0, Early: 0, Misses: 0
de9-> Hits: 4, Late: 1, Early: 0, Misses: 0
deb-> Hits: 1, Late: 0, Early: 0, Misses: 0
dec-> Hits: 26, Late: 0, Early: 0, Misses: 0
ded-> Hits: 5, Late: 0, Early: 0, Misses: 0
dee-> Hits: 18, Late: 19, Early: 0, Misses: 0
def-> Hits: 797, Late: 126, Early: 0, Misses: 177
df0-> Hits: 1, Late: 0, Early: 0, Misses: 0
df1-> Hits: 17, Late: 0, Early: 0, Misses: 0
df2-> Hits: 3, Late: 0, Early: 0, Misses: 0
df3-> Hits: 6, Late: 0, Early: 0, Misses: 0
df4-> Hits: 1, Late: 0, Early: 0, Misses: 0
df5-> Hits: 6, Late: 0, Early: 0, Misses: 0
df7-> Hits: 7, Late: 0, Early: 0, Misses: 0
df8-> Hits: 1, Late: 0, Early: 0, Misses: 0
df9-> Hits: 2, Late: 0, Early: 0, Misses: 0
dfb-> Hits: 1, Late: 0, Early: 0, Misses: 0
dfd-> Hits: 22, Late: 0, Early: 0, Misses: 0
e00-> Hits: 12, Late: 0, Early: 0, Misses: 0
e01-> Hits: 2, Late: 0, Early: 0, Misses: 0
e02-> Hits: 4, Late: 0, Early: 0, Misses: 0
e03-> Hits: 2, Late: 0, Early: 0, Misses: 0
e04-> Hits: 0, Late: 1, Early: 0, Misses: 335
e05-> Hits: 2, Late: 1, Early: 0, Misses: 0
e06-> Hits: 14479, Late: 5993, Early: 0, Misses: 11657
e07-> Hits: 0, Late: 31, Early: 0, Misses: 0
e0e-> Hits: 914, Late: 0, Early: 0, Misses: 0
e0f-> Hits: 2, Late: 31, Early: 0, Misses: 0
e10-> Hits: 4, Late: 0, Early: 0, Misses: 0
e12-> Hits: 6, Late: 0, Early: 0, Misses: 0
e13-> Hits: 7, Late: 0, Early: 0, Misses: 0
e14-> Hits: 3, Late: 0, Early: 0, Misses: 0
e15-> Hits: 2, Late: 0, Early: 0, Misses: 0
e16-> Hits: 2, Late: 0, Early: 0, Misses: 0
e17-> Hits: 1, Late: 0, Early: 0, Misses: 0
e18-> Hits: 4, Late: 0, Early: 0, Misses: 0
e19-> Hits: 34, Late: 16, Early: 0, Misses: 0
e1a-> Hits: 2, Late: 0, Early: 0, Misses: 0
e1b-> Hits: 3769, Late: 646, Early: 0, Misses: 1231
e1c-> Hits: 5, Late: 0, Early: 0, Misses: 0
e1d-> Hits: 0, Late: 3, Early: 0, Misses: 0
e1e-> Hits: 0, Late: 48, Early: 0, Misses: 0
e20-> Hits: 12, Late: 4, Early: 0, Misses: 0
e22-> Hits: 26, Late: 1, Early: 0, Misses: 0
e23-> Hits: 5, Late: 48, Early: 0, Misses: 0
e25-> Hits: 1, Late: 0, Early: 0, Misses: 0
e26-> Hits: 2, Late: 0, Early: 0, Misses: 0
e28-> Hits: 8, Late: 48, Early: 0, Misses: 0
e29-> Hits: 30, Late: 18, Early: 0, Misses: 0
e2a-> Hits: 2, Late: 1, Early: 0, Misses: 0
e2c-> Hits: 1, Late: 48, Early: 0, Misses: 0
e2d-> Hits: 2, Late: 0, Early: 0, Misses: 0
e30-> Hits: 16, Late: 0, Early: 0, Misses: 0
e31-> Hits: 0, Late: 48, Early: 0, Misses: 0
e33-> Hits: 3, Late: 0, Early: 0, Misses: 0
e34-> Hits: 1, Late: 0, Early: 0, Misses: 0
e35-> Hits: 16, Late: 0, Early: 0, Misses: 0
e36-> Hits: 2, Late: 0, Early: 0, Misses: 0
e38-> Hits: 1, Late: 0, Early: 0, Misses: 0
e39-> Hits: 5, Late: 46, Early: 0, Misses: 0
e3a-> Hits: 1, Late: 0, Early: 0, Misses: 0
e3b-> Hits: 0, Late: 1, Early: 0, Misses: 0
e3c-> Hits: 5, Late: 1, Early: 0, Misses: 0
e3d-> Hits: 16, Late: 1, Early: 0, Misses: 0
e3e-> Hits: 1, Late: 0, Early: 0, Misses: 0
e3f-> Hits: 1, Late: 0, Early: 0, Misses: 0
e40-> Hits: 6, Late: 1, Early: 0, Misses: 0
e41-> Hits: 4, Late: 79, Early: 0, Misses: 0
e42-> Hits: 2, Late: 0, Early: 0, Misses: 0
e44-> Hits: 2, Late: 0, Early: 0, Misses: 0
e45-> Hits: 1, Late: 1, Early: 0, Misses: 0
e47-> Hits: 2, Late: 0, Early: 0, Misses: 0
e48-> Hits: 27578, Late: 0, Early: 0, Misses: 4535
e49-> Hits: 0, Late: 48, Early: 0, Misses: 0
e4a-> Hits: 1, Late: 0, Early: 0, Misses: 0
e4c-> Hits: 1, Late: 1, Early: 0, Misses: 0
e4d-> Hits: 3, Late: 0, Early: 0, Misses: 0
e4e-> Hits: 121, Late: 0, Early: 0, Misses: 0
e4f-> Hits: 2, Late: 0, Early: 0, Misses: 0
e50-> Hits: 0, Late: 3, Early: 0, Misses: 0
e51-> Hits: 2, Late: 0, Early: 0, Misses: 0
e54-> Hits: 1, Late: 0, Early: 0, Misses: 0
e55-> Hits: 2, Late: 0, Early: 0, Misses: 0
e57-> Hits: 8, Late: 0, Early: 0, Misses: 0
e58-> Hits: 2, Late: 0, Early: 0, Misses: 0
e59-> Hits: 20, Late: 0, Early: 0, Misses: 0
e5a-> Hits: 22, Late: 0, Early: 0, Misses: 0
e5b-> Hits: 22, Late: 0, Early: 0, Misses: 0
e5c-> Hits: 2, Late: 0, Early: 0, Misses: 0
e5d-> Hits: 20, Late: 0, Early: 0, Misses: 0
e5e-> Hits: 7, Late: 0, Early: 0, Misses: 0
e5f-> Hits: 20, Late: 0, Early: 0, Misses: 0
e60-> Hits: 3935, Late: 2, Early: 0, Misses: 0
e61-> Hits: 22, Late: 0, Early: 0, Misses: 0
e62-> Hits: 2, Late: 0, Early: 0, Misses: 0
e63-> Hits: 26, Late: 0, Early: 0, Misses: 0
e64-> Hits: 0, Late: 1, Early: 0, Misses: 0
e65-> Hits: 6, Late: 0, Early: 0, Misses: 0
e68-> Hits: 2, Late: 0, Early: 0, Misses: 0
e6b-> Hits: 1, Late: 0, Early: 0, Misses: 0
e6c-> Hits: 1, Late: 0, Early: 0, Misses: 0
e6f-> Hits: 2, Late: 0, Early: 0, Misses: 0
e70-> Hits: 5, Late: 1, Early: 0, Misses: 0
e71-> Hits: 6, Late: 0, Early: 0, Misses: 0
e72-> Hits: 12, Late: 0, Early: 0, Misses: 0
e73-> Hits: 2, Late: 0, Early: 0, Misses: 0
e74-> Hits: 5, Late: 0, Early: 0, Misses: 0
e75-> Hits: 7, Late: 0, Early: 0, Misses: 0
e76-> Hits: 6, Late: 0, Early: 0, Misses: 0
e77-> Hits: 1, Late: 0, Early: 0, Misses: 0
e78-> Hits: 1, Late: 0, Early: 0, Misses: 0
e79-> Hits: 2, Late: 0, Early: 0, Misses: 0
e7a-> Hits: 1, Late: 0, Early: 0, Misses: 0
e7b-> Hits: 1, Late: 0, Early: 0, Misses: 0
e7d-> Hits: 25, Late: 6, Early: 0, Misses: 0
e7e-> Hits: 15, Late: 16, Early: 0, Misses: 0
e7f-> Hits: 34, Late: 0, Early: 0, Misses: 0
e80-> Hits: 1, Late: 0, Early: 0, Misses: 0
e81-> Hits: 37, Late: 0, Early: 0, Misses: 0
e82-> Hits: 4, Late: 0, Early: 0, Misses: 0
e83-> Hits: 34, Late: 0, Early: 0, Misses: 0
e84-> Hits: 26, Late: 15, Early: 0, Misses: 0
e85-> Hits: 31, Late: 0, Early: 0, Misses: 0
e86-> Hits: 3, Late: 0, Early: 0, Misses: 0
e87-> Hits: 31, Late: 0, Early: 0, Misses: 0
e88-> Hits: 36, Late: 14, Early: 0, Misses: 0
e8a-> Hits: 3, Late: 0, Early: 0, Misses: 0
e8b-> Hits: 2, Late: 0, Early: 0, Misses: 0
e8d-> Hits: 1, Late: 0, Early: 0, Misses: 0
e90-> Hits: 2, Late: 0, Early: 0, Misses: 0
e91-> Hits: 2, Late: 0, Early: 0, Misses: 0
e92-> Hits: 4, Late: 0, Early: 0, Misses: 0
e94-> Hits: 4, Late: 0, Early: 0, Misses: 0
e95-> Hits: 1, Late: 0, Early: 0, Misses: 0
e96-> Hits: 1, Late: 0, Early: 0, Misses: 0
e97-> Hits: 2, Late: 0, Early: 0, Misses: 0
e98-> Hits: 2, Late: 0, Early: 0, Misses: 0
e99-> Hits: 17, Late: 32, Early: 0, Misses: 0
e9a-> Hits: 2, Late: 0, Early: 0, Misses: 0
e9b-> Hits: 1, Late: 0, Early: 0, Misses: 0
e9d-> Hits: 1, Late: 0, Early: 0, Misses: 0
ea0-> Hits: 2, Late: 1, Early: 0, Misses: 0
ea1-> Hits: 4, Late: 0, Early: 0, Misses: 0
ea2-> Hits: 2, Late: 0, Early: 0, Misses: 0
ea5-> Hits: 1, Late: 0, Early: 0, Misses: 0
ea6-> Hits: 0, Late: 1, Early: 0, Misses: 0
ea7-> Hits: 1, Late: 0, Early: 0, Misses: 0
ea8-> Hits: 1, Late: 0, Early: 0, Misses: 0
ea9-> Hits: 3, Late: 0, Early: 0, Misses: 0
eaa-> Hits: 1, Late: 0, Early: 0, Misses: 0
eab-> Hits: 7, Late: 0, Early: 0, Misses: 0
eac-> Hits: 1, Late: 0, Early: 0, Misses: 0
eaf-> Hits: 0, Late: 1, Early: 0, Misses: 0
eb0-> Hits: 50347, Late: 6097, Early: 0, Misses: 0
eb3-> Hits: 1, Late: 0, Early: 0, Misses: 0
eb4-> Hits: 1, Late: 0, Early: 0, Misses: 0
eb5-> Hits: 53374, Late: 1387, Early: 0, Misses: 0
eb6-> Hits: 4, Late: 1, Early: 0, Misses: 0
eb8-> Hits: 1, Late: 0, Early: 0, Misses: 0
eba-> Hits: 44961, Late: 11712, Early: 0, Misses: 0
ebc-> Hits: 3, Late: 0, Early: 0, Misses: 0
ebd-> Hits: 1, Late: 0, Early: 0, Misses: 0
ebe-> Hits: 2, Late: 0, Early: 0, Misses: 0
ebf-> Hits: 2, Late: 1, Early: 0, Misses: 0
ec0-> Hits: 49276, Late: 6078, Early: 0, Misses: 0
ec1-> Hits: 13, Late: 0, Early: 0, Misses: 0
ec2-> Hits: 2, Late: 0, Early: 0, Misses: 0
ec3-> Hits: 2, Late: 0, Early: 0, Misses: 0
ec4-> Hits: 1, Late: 1, Early: 0, Misses: 0
ec5-> Hits: 6, Late: 0, Early: 0, Misses: 0
ec6-> Hits: 40624, Late: 15169, Early: 0, Misses: 0
ec7-> Hits: 1, Late: 1, Early: 0, Misses: 0
ec8-> Hits: 1, Late: 0, Early: 0, Misses: 0
eca-> Hits: 1, Late: 0, Early: 0, Misses: 0
ecb-> Hits: 0, Late: 1, Early: 0, Misses: 0
ecc-> Hits: 43323, Late: 10651, Early: 0, Misses: 0
ecd-> Hits: 1, Late: 0, Early: 0, Misses: 0
ece-> Hits: 0, Late: 1, Early: 0, Misses: 0
ecf-> Hits: 1, Late: 0, Early: 0, Misses: 0
ed0-> Hits: 2, Late: 0, Early: 0, Misses: 0
ed1-> Hits: 36, Late: 15, Early: 0, Misses: 0
ed2-> Hits: 31391, Late: 23648, Early: 0, Misses: 0
ed3-> Hits: 2, Late: 0, Early: 0, Misses: 0
ed5-> Hits: 5, Late: 1, Early: 0, Misses: 0
ed6-> Hits: 1, Late: 0, Early: 0, Misses: 0
ed7-> Hits: 3, Late: 0, Early: 0, Misses: 0
ed8-> Hits: 41699, Late: 12796, Early: 0, Misses: 28
ed9-> Hits: 5, Late: 0, Early: 0, Misses: 0
edb-> Hits: 2, Late: 0, Early: 0, Misses: 0
edc-> Hits: 3, Late: 0, Early: 0, Misses: 0
edf-> Hits: 0, Late: 1, Early: 0, Misses: 0
ee0-> Hits: 6, Late: 24, Early: 0, Misses: 25
ee1-> Hits: 6, Late: 16, Early: 0, Misses: 0
ee2-> Hits: 4, Late: 0, Early: 0, Misses: 0
ee3-> Hits: 5, Late: 0, Early: 0, Misses: 0
ee4-> Hits: 8, Late: 0, Early: 0, Misses: 0
ee5-> Hits: 5, Late: 0, Early: 0, Misses: 0
ee7-> Hits: 5, Late: 0, Early: 0, Misses: 0
ee8-> Hits: 1, Late: 0, Early: 0, Misses: 0
ee9-> Hits: 6, Late: 0, Early: 0, Misses: 0
eea-> Hits: 5, Late: 0, Early: 0, Misses: 0
eeb-> Hits: 2, Late: 0, Early: 0, Misses: 0
eec-> Hits: 2, Late: 0, Early: 0, Misses: 0
eed-> Hits: 2, Late: 0, Early: 0, Misses: 0
eee-> Hits: 2, Late: 0, Early: 0, Misses: 0
eef-> Hits: 16, Late: 0, Early: 0, Misses: 0
ef0-> Hits: 5, Late: 0, Early: 0, Misses: 0
ef1-> Hits: 2, Late: 0, Early: 0, Misses: 0
ef2-> Hits: 3, Late: 0, Early: 0, Misses: 0
ef3-> Hits: 1, Late: 0, Early: 0, Misses: 0
ef4-> Hits: 22, Late: 0, Early: 0, Misses: 0
ef5-> Hits: 1, Late: 0, Early: 0, Misses: 0
ef6-> Hits: 2, Late: 0, Early: 0, Misses: 0
ef7-> Hits: 2, Late: 0, Early: 0, Misses: 0
ef8-> Hits: 3, Late: 2, Early: 0, Misses: 0
ef9-> Hits: 1, Late: 0, Early: 0, Misses: 0
efa-> Hits: 8, Late: 0, Early: 0, Misses: 0
efb-> Hits: 5, Late: 0, Early: 0, Misses: 0
efc-> Hits: 4, Late: 0, Early: 0, Misses: 0
efd-> Hits: 2, Late: 0, Early: 0, Misses: 0
efe-> Hits: 48461, Late: 16711, Early: 0, Misses: 308
eff-> Hits: 6, Late: 0, Early: 0, Misses: 0
f00-> Hits: 4, Late: 0, Early: 0, Misses: 0
f01-> Hits: 4, Late: 0, Early: 0, Misses: 0
f02-> Hits: 4, Late: 0, Early: 0, Misses: 0
f03-> Hits: 2, Late: 0, Early: 0, Misses: 0
f04-> Hits: 6, Late: 0, Early: 0, Misses: 0
f05-> Hits: 3, Late: 0, Early: 0, Misses: 0
f06-> Hits: 8, Late: 0, Early: 0, Misses: 0
f07-> Hits: 2, Late: 0, Early: 0, Misses: 0
f08-> Hits: 4, Late: 0, Early: 0, Misses: 0
f09-> Hits: 9, Late: 0, Early: 0, Misses: 0
f0b-> Hits: 2, Late: 0, Early: 0, Misses: 0
f0c-> Hits: 4, Late: 4, Early: 0, Misses: 0
f0d-> Hits: 2, Late: 0, Early: 0, Misses: 0
f0e-> Hits: 1, Late: 0, Early: 0, Misses: 0
f10-> Hits: 41, Late: 3, Early: 0, Misses: 0
f13-> Hits: 35, Late: 0, Early: 0, Misses: 0
f15-> Hits: 1, Late: 0, Early: 0, Misses: 0
f16-> Hits: 4, Late: 0, Early: 0, Misses: 0
f17-> Hits: 56, Late: 0, Early: 0, Misses: 0
f18-> Hits: 1, Late: 0, Early: 0, Misses: 0
f19-> Hits: 5, Late: 2, Early: 0, Misses: 0
f1c-> Hits: 1, Late: 0, Early: 0, Misses: 0
f1e-> Hits: 2, Late: 0, Early: 0, Misses: 1
f20-> Hits: 205, Late: 52, Early: 0, Misses: 0
f21-> Hits: 26, Late: 0, Early: 0, Misses: 0
f22-> Hits: 8, Late: 1, Early: 0, Misses: 0
f23-> Hits: 5, Late: 0, Early: 0, Misses: 0
f24-> Hits: 38, Late: 0, Early: 0, Misses: 0
f25-> Hits: 241, Late: 16, Early: 0, Misses: 0
f26-> Hits: 1, Late: 0, Early: 0, Misses: 0
f27-> Hits: 9, Late: 0, Early: 0, Misses: 0
f28-> Hits: 2, Late: 0, Early: 0, Misses: 0
f29-> Hits: 22, Late: 0, Early: 0, Misses: 0
f2a-> Hits: 199, Late: 63, Early: 0, Misses: 0
f2b-> Hits: 16, Late: 1, Early: 0, Misses: 0
f2f-> Hits: 5, Late: 0, Early: 0, Misses: 0
f30-> Hits: 250, Late: 19, Early: 0, Misses: 0
f31-> Hits: 674, Late: 0, Early: 0, Misses: 0
f32-> Hits: 38, Late: 0, Early: 0, Misses: 0
f33-> Hits: 9, Late: 0, Early: 0, Misses: 0
f34-> Hits: 1, Late: 2, Early: 0, Misses: 0
f37-> Hits: 3, Late: 0, Early: 0, Misses: 0
f39-> Hits: 3, Late: 0, Early: 0, Misses: 0
f3b-> Hits: 8, Late: 0, Early: 0, Misses: 0
f3c-> Hits: 8, Late: 0, Early: 0, Misses: 0
f3d-> Hits: 76, Late: 0, Early: 0, Misses: 0
f3e-> Hits: 2, Late: 0, Early: 0, Misses: 0
f3f-> Hits: 15, Late: 0, Early: 0, Misses: 0
f40-> Hits: 203, Late: 53, Early: 0, Misses: 0
f41-> Hits: 8, Late: 0, Early: 0, Misses: 0
f43-> Hits: 10, Late: 0, Early: 0, Misses: 0
f44-> Hits: 5, Late: 0, Early: 0, Misses: 0
f45-> Hits: 247, Late: 17, Early: 0, Misses: 0
f47-> Hits: 12, Late: 0, Early: 0, Misses: 0
f49-> Hits: 2, Late: 0, Early: 0, Misses: 0
f4a-> Hits: 201, Late: 55, Early: 0, Misses: 0
f4c-> Hits: 0, Late: 1, Early: 0, Misses: 0
f50-> Hits: 238, Late: 19, Early: 0, Misses: 0
f53-> Hits: 6, Late: 0, Early: 0, Misses: 0
f54-> Hits: 2, Late: 0, Early: 0, Misses: 0
f59-> Hits: 2, Late: 687, Early: 0, Misses: 0
f5a-> Hits: 20, Late: 0, Early: 0, Misses: 0
f5b-> Hits: 1, Late: 0, Early: 0, Misses: 0
f5d-> Hits: 0, Late: 1, Early: 0, Misses: 0
f5e-> Hits: 1, Late: 0, Early: 0, Misses: 0
f5f-> Hits: 200, Late: 58, Early: 0, Misses: 0
f60-> Hits: 12, Late: 2, Early: 0, Misses: 0
f61-> Hits: 1, Late: 0, Early: 0, Misses: 0
f63-> Hits: 2, Late: 0, Early: 0, Misses: 0
f64-> Hits: 240, Late: 688, Early: 0, Misses: 16
f65-> Hits: 4, Late: 1, Early: 0, Misses: 0
f66-> Hits: 11, Late: 0, Early: 0, Misses: 0
f68-> Hits: 2, Late: 0, Early: 0, Misses: 0
f69-> Hits: 199, Late: 57, Early: 0, Misses: 0
f6c-> Hits: 46, Late: 1, Early: 0, Misses: 0
f6d-> Hits: 7, Late: 0, Early: 0, Misses: 0
f6f-> Hits: 248, Late: 20, Early: 0, Misses: 0
f70-> Hits: 0, Late: 18, Early: 0, Misses: 0
f73-> Hits: 1, Late: 1, Early: 0, Misses: 0
f74-> Hits: 643, Late: 41, Early: 0, Misses: 6
f78-> Hits: 0, Late: 672, Early: 0, Misses: 16
f7a-> Hits: 4, Late: 0, Early: 0, Misses: 0
f7d-> Hits: 13, Late: 0, Early: 0, Misses: 1
f7e-> Hits: 187, Late: 55, Early: 0, Misses: 0
f7f-> Hits: 3, Late: 1, Early: 0, Misses: 0
f80-> Hits: 4, Late: 1, Early: 0, Misses: 0
f83-> Hits: 219, Late: 20, Early: 0, Misses: 0
f85-> Hits: 3, Late: 0, Early: 0, Misses: 0
f86-> Hits: 3, Late: 1, Early: 0, Misses: 0
f87-> Hits: 14, Late: 0, Early: 0, Misses: 0
f88-> Hits: 188, Late: 52, Early: 0, Misses: 0
f89-> Hits: 1, Late: 0, Early: 0, Misses: 0
f8b-> Hits: 31, Late: 0, Early: 0, Misses: 0
f8c-> Hits: 6, Late: 0, Early: 0, Misses: 0
f8d-> Hits: 3, Late: 0, Early: 0, Misses: 0
f8e-> Hits: 218, Late: 20, Early: 0, Misses: 0
f8f-> Hits: 1, Late: 0, Early: 0, Misses: 0
f90-> Hits: 6, Late: 0, Early: 0, Misses: 0
f91-> Hits: 1, Late: 0, Early: 0, Misses: 0
f92-> Hits: 2, Late: 0, Early: 0, Misses: 0
f93-> Hits: 6, Late: 0, Early: 0, Misses: 0
f94-> Hits: 1, Late: 0, Early: 0, Misses: 0
f95-> Hits: 0, Late: 2, Early: 0, Misses: 0
f96-> Hits: 1, Late: 0, Early: 0, Misses: 0
f98-> Hits: 1, Late: 0, Early: 0, Misses: 0
f9a-> Hits: 17, Late: 0, Early: 0, Misses: 0
f9c-> Hits: 3, Late: 0, Early: 0, Misses: 0
f9d-> Hits: 17, Late: 3, Early: 0, Misses: 0
f9e-> Hits: 1, Late: 0, Early: 0, Misses: 0
f9f-> Hits: 6, Late: 0, Early: 0, Misses: 0
fa0-> Hits: 5, Late: 1, Early: 0, Misses: 0
fa1-> Hits: 1, Late: 0, Early: 0, Misses: 0
fa4-> Hits: 1, Late: 0, Early: 0, Misses: 0
faa-> Hits: 3, Late: 0, Early: 0, Misses: 0
fb0-> Hits: 7898, Late: 675, Early: 0, Misses: 3019
fb1-> Hits: 3, Late: 3, Early: 0, Misses: 0
fb3-> Hits: 10, Late: 0, Early: 0, Misses: 0
fb6-> Hits: 1, Late: 0, Early: 0, Misses: 0
fb8-> Hits: 5, Late: 0, Early: 0, Misses: 0
fba-> Hits: 51, Late: 2, Early: 0, Misses: 13
fbb-> Hits: 15, Late: 1, Early: 0, Misses: 0
fbe-> Hits: 1, Late: 0, Early: 0, Misses: 0
fbf-> Hits: 2, Late: 0, Early: 0, Misses: 0
fc0-> Hits: 5, Late: 0, Early: 0, Misses: 0
fc1-> Hits: 213, Late: 26, Early: 0, Misses: 17
fc4-> Hits: 10, Late: 0, Early: 0, Misses: 0
fc5-> Hits: 3, Late: 0, Early: 0, Misses: 0
fc6-> Hits: 2, Late: 0, Early: 0, Misses: 0
fc7-> Hits: 2, Late: 0, Early: 0, Misses: 0
fc8-> Hits: 10, Late: 0, Early: 0, Misses: 0
fca-> Hits: 2, Late: 0, Early: 0, Misses: 0
fcb-> Hits: 1, Late: 0, Early: 0, Misses: 0
fcd-> Hits: 1, Late: 1, Early: 0, Misses: 0
fce-> Hits: 1, Late: 0, Early: 0, Misses: 0
fd0-> Hits: 4, Late: 0, Early: 0, Misses: 0
fd2-> Hits: 1, Late: 0, Early: 0, Misses: 0
fd5-> Hits: 217, Late: 27, Early: 0, Misses: 12
fd6-> Hits: 6, Late: 0, Early: 0, Misses: 0
fd7-> Hits: 6, Late: 0, Early: 0, Misses: 0
fd8-> Hits: 10, Late: 0, Early: 0, Misses: 0
fda-> Hits: 6, Late: 0, Early: 0, Misses: 0
fdc-> Hits: 7, Late: 1, Early: 0, Misses: 0
fde-> Hits: 8, Late: 0, Early: 0, Misses: 0
fdf-> Hits: 45, Late: 0, Early: 0, Misses: 0
fe0-> Hits: 11, Late: 0, Early: 0, Misses: 0
fe1-> Hits: 4, Late: 0, Early: 0, Misses: 0
fe2-> Hits: 2, Late: 0, Early: 0, Misses: 0
fe3-> Hits: 4, Late: 0, Early: 0, Misses: 0
fe4-> Hits: 15, Late: 1, Early: 0, Misses: 0
fe5-> Hits: 6, Late: 8, Early: 0, Misses: 0
fe6-> Hits: 2, Late: 0, Early: 0, Misses: 0
fe7-> Hits: 1, Late: 1, Early: 0, Misses: 0
fe8-> Hits: 199, Late: 50, Early: 0, Misses: 0
feb-> Hits: 1, Late: 2, Early: 0, Misses: 0
fec-> Hits: 6, Late: 0, Early: 0, Misses: 0
fed-> Hits: 237, Late: 18, Early: 0, Misses: 0
fef-> Hits: 0, Late: 1, Early: 0, Misses: 0
ff0-> Hits: 10, Late: 0, Early: 0, Misses: 0
ff2-> Hits: 196, Late: 725, Early: 0, Misses: 16
ff3-> Hits: 14, Late: 0, Early: 0, Misses: 0
ff7-> Hits: 4, Late: 0, Early: 0, Misses: 0
ff8-> Hits: 224, Late: 17, Early: 0, Misses: 0
ff9-> Hits: 18, Late: 54, Early: 0, Misses: 2
ffd-> Hits: 2, Late: 0, Early: 0, Misses: 0
ffe-> Hits: 19, Late: 2, Early: 0, Misses: 0
fff-> Hits: 12, Late: 0, Early: 0, Misses: 0
Total misses (from ip) 13866084
Total accesses (misses) 180983438 13866084
Pref: Addr 0 IP 0 Current 0
CPU 0 L2C berti prefetcher final stats
Channel_0_RQ_row_buffer_hit 3413395
Channel_0_RQ_row_buffer_miss 2987266
Channel_0_WQ_row_buffer_hit 1239530
Channel_0_WQ_row_buffer_miss 2117695
Channel_0_WQ_full 0
Channel_0_dbus_congested 4490697

avg_congested_cycle 10

EzSearch AVG IPC :0.78555: L2-Pf-HR :0.73286 : L2-HR :0.78813 Uful:0.19548
     > Finished combination: TraceType=770-tot Sim:657000000 Prefetcher=L2berti L1=berti
