TRACE: [496000000][OPT-125M]_[h12][s1024][d64] Warmup: 2000000 NumTraces: 496000000
L1:ipcp:L2:ipcp
*************************************************
   ChampSim Multicore Out-of-Order Simulator
   Last compiled: Oct 26 2024 13:32:40
*************************************************

trace_0 770-tot_memTraces_v3/memTraces[496000000][OPT-125M]_[h12][s1024][d64].champsim.xz
MAIN.cc ln 751 stats print skipped
CPU  0 inst:    1000002 cyc:     503056 now IPC :1.98785: AVG IPC :1.98785: L2-Pf-HR :0.86060: L2-HR :0.79723: (Sim:0h0m5s) 
CPU  0 inst:    2000002 cyc:     978756 now IPC :2.10217: AVG IPC :2.04341: L2-Pf-HR :0.90455: L2-HR :0.83273: (Sim:0h0m9s) 

Warmup complete CPU  0 instructions:    2000002 cycles:     978756 (Simulation time: 0 hr 0 min 9 sec) 

CPU  0 inst:    3000003 cyc:    1696381 now IPC :1.39349: AVG IPC :1.39349: L2-Pf-HR :0.94572: L2-HR :0.86105: (Sim:0h0m14s) 
CPU  0 inst:    4000000 cyc:    2417465 now IPC :1.38680: AVG IPC :1.39013: L2-Pf-HR :0.94402: L2-HR :0.86015: (Sim:0h0m18s) 
CPU  0 inst:    5000001 cyc:    3125385 now IPC :1.41259: AVG IPC :1.39754: L2-Pf-HR :0.94356: L2-HR :0.85886: (Sim:0h0m21s) 
CPU  0 inst:    6000003 cyc:    3852193 now IPC :1.37588: AVG IPC :1.39206: L2-Pf-HR :0.94297: L2-HR :0.85764: (Sim:0h0m24s) 
CPU  0 inst:    7000001 cyc:    4713318 now IPC :1.16127: AVG IPC :1.33884: L2-Pf-HR :0.93646: L2-HR :0.85360: (Sim:0h0m28s) 
CPU  0 inst:    8000000 cyc:    5480320 now IPC :1.30378: AVG IPC :1.33287: L2-Pf-HR :0.93936: L2-HR :0.85541: (Sim:0h0m31s) 
CPU  0 inst:    9000002 cyc:    6250148 now IPC :1.29899: AVG IPC :1.32792: L2-Pf-HR :0.94198: L2-HR :0.85769: (Sim:0h0m35s) 
CPU  0 inst:   10000001 cyc:    7025102 now IPC :1.29040: AVG IPC :1.32311: L2-Pf-HR :0.94415: L2-HR :0.85942: (Sim:0h0m39s) 
CPU  0 inst:   11000000 cyc:    7795200 now IPC :1.29853: AVG IPC :1.32034: L2-Pf-HR :0.94580: L2-HR :0.86063: (Sim:0h0m43s) 
CPU  0 inst:   12000000 cyc:    8570746 now IPC :1.28941: AVG IPC :1.31718: L2-Pf-HR :0.94699: L2-HR :0.86124: (Sim:0h0m48s) 
CPU  0 inst:   13000000 cyc:    9395435 now IPC :1.21258: AVG IPC :1.30693: L2-Pf-HR :0.94553: L2-HR :0.86044: (Sim:0h0m53s) 
CPU  0 inst:   14000001 cyc:   10146419 now IPC :1.33159: AVG IPC :1.30895: L2-Pf-HR :0.94626: L2-HR :0.86104: (Sim:0h0m58s) 
CPU  0 inst:   15000003 cyc:   10894058 now IPC :1.33755: AVG IPC :1.31110: L2-Pf-HR :0.94702: L2-HR :0.86186: (Sim:0h1m3s) 
CPU  0 inst:   16000000 cyc:   11645493 now IPC :1.33078: AVG IPC :1.31249: L2-Pf-HR :0.94744: L2-HR :0.86203: (Sim:0h1m7s) 
CPU  0 inst:   17000003 cyc:   12554477 now IPC :1.10013: AVG IPC :1.29582: L2-Pf-HR :0.94288: L2-HR :0.85845: (Sim:0h1m12s) 
CPU  0 inst:   18000000 cyc:   13329971 now IPC :1.28950: AVG IPC :1.29542: L2-Pf-HR :0.94210: L2-HR :0.85765: (Sim:0h1m17s) 
CPU  0 inst:   19000001 cyc:   14112885 now IPC :1.27728: AVG IPC :1.29434: L2-Pf-HR :0.94159: L2-HR :0.85724: (Sim:0h1m22s) 
CPU  0 inst:   20000000 cyc:   14893744 now IPC :1.28064: AVG IPC :1.29357: L2-Pf-HR :0.94119: L2-HR :0.85699: (Sim:0h1m27s) 
CPU  0 inst:   21000002 cyc:   15672476 now IPC :1.28414: AVG IPC :1.29307: L2-Pf-HR :0.94085: L2-HR :0.85658: (Sim:0h1m32s) 
CPU  0 inst:   22000003 cyc:   16452255 now IPC :1.28242: AVG IPC :1.29253: L2-Pf-HR :0.94032: L2-HR :0.85596: (Sim:0h1m37s) 
CPU  0 inst:   23000001 cyc:   17338620 now IPC :1.12820: AVG IPC :1.28363: L2-Pf-HR :0.93879: L2-HR :0.85492: (Sim:0h1m42s) 
CPU  0 inst:   24000000 cyc:   18107078 now IPC :1.30131: AVG IPC :1.28442: L2-Pf-HR :0.93964: L2-HR :0.85548: (Sim:0h1m48s) 
CPU  0 inst:   25000001 cyc:   18877047 now IPC :1.29875: AVG IPC :1.28504: L2-Pf-HR :0.94045: L2-HR :0.85615: (Sim:0h1m53s) 
CPU  0 inst:   26000001 cyc:   19640549 now IPC :1.30975: AVG IPC :1.28605: L2-Pf-HR :0.94133: L2-HR :0.85693: (Sim:0h1m58s) 
CPU  0 inst:   27000000 cyc:   20406759 now IPC :1.30512: AVG IPC :1.28680: L2-Pf-HR :0.94198: L2-HR :0.85739: (Sim:0h2m3s) 
CPU  0 inst:   28000000 cyc:   21172146 now IPC :1.30653: AVG IPC :1.28755: L2-Pf-HR :0.94259: L2-HR :0.85777: (Sim:0h2m8s) 
CPU  0 inst:   29000003 cyc:   22001143 now IPC :1.20628: AVG IPC :1.28435: L2-Pf-HR :0.94258: L2-HR :0.85784: (Sim:0h2m13s) 
CPU  0 inst:   30000000 cyc:   22744094 now IPC :1.34598: AVG IPC :1.28645: L2-Pf-HR :0.94287: L2-HR :0.85809: (Sim:0h2m18s) 
CPU  0 inst:   31000003 cyc:   23490350 now IPC :1.34003: AVG IPC :1.28823: L2-Pf-HR :0.94336: L2-HR :0.85856: (Sim:0h2m23s) 
CPU  0 inst:   32000000 cyc:   24235167 now IPC :1.34261: AVG IPC :1.28997: L2-Pf-HR :0.94367: L2-HR :0.85877: (Sim:0h2m28s) 
CPU  0 inst:   33000001 cyc:   25131102 now IPC :1.11615: AVG IPC :1.28352: L2-Pf-HR :0.94181: L2-HR :0.85736: (Sim:0h2m33s) 
CPU  0 inst:   34000000 cyc:   25911138 now IPC :1.28199: AVG IPC :1.28347: L2-Pf-HR :0.94129: L2-HR :0.85685: (Sim:0h2m38s) 
CPU  0 inst:   35000002 cyc:   26697756 now IPC :1.27127: AVG IPC :1.28310: L2-Pf-HR :0.94124: L2-HR :0.85682: (Sim:0h2m42s) 
CPU  0 inst:   36000000 cyc:   27478134 now IPC :1.28143: AVG IPC :1.28305: L2-Pf-HR :0.94088: L2-HR :0.85657: (Sim:0h2m47s) 
CPU  0 inst:   37000001 cyc:   28258278 now IPC :1.28182: AVG IPC :1.28301: L2-Pf-HR :0.94058: L2-HR :0.85630: (Sim:0h2m50s) 
CPU  0 inst:   38000000 cyc:   29040844 now IPC :1.27785: AVG IPC :1.28287: L2-Pf-HR :0.94035: L2-HR :0.85601: (Sim:0h2m54s) 
CPU  0 inst:   39000001 cyc:   29927187 now IPC :1.12823: AVG IPC :1.27813: L2-Pf-HR :0.93917: L2-HR :0.85514: (Sim:0h2m57s) 
CPU  0 inst:   40000000 cyc:   30695309 now IPC :1.30188: AVG IPC :1.27875: L2-Pf-HR :0.93957: L2-HR :0.85539: (Sim:0h3m1s) 
CPU  0 inst:   41000001 cyc:   31460099 now IPC :1.30755: AVG IPC :1.27947: L2-Pf-HR :0.94011: L2-HR :0.85581: (Sim:0h3m4s) 
CPU  0 inst:   42000001 cyc:   32225347 now IPC :1.30677: AVG IPC :1.28014: L2-Pf-HR :0.94058: L2-HR :0.85621: (Sim:0h3m8s) 
CPU  0 inst:   43000003 cyc:   32989962 now IPC :1.30785: AVG IPC :1.28080: L2-Pf-HR :0.94105: L2-HR :0.85656: (Sim:0h3m11s) 
CPU  0 inst:   44000000 cyc:   33756679 now IPC :1.30426: AVG IPC :1.28135: L2-Pf-HR :0.94146: L2-HR :0.85682: (Sim:0h3m14s) 
CPU  0 inst:   45000000 cyc:   34594156 now IPC :1.19406: AVG IPC :1.27918: L2-Pf-HR :0.94137: L2-HR :0.85683: (Sim:0h3m18s) 
CPU  0 inst:   46000002 cyc:   35350947 now IPC :1.32137: AVG IPC :1.28010: L2-Pf-HR :0.94160: L2-HR :0.85701: (Sim:0h3m23s) 
CPU  0 inst:   47000000 cyc:   36109320 now IPC :1.31861: AVG IPC :1.28094: L2-Pf-HR :0.94195: L2-HR :0.85732: (Sim:0h3m28s) 
CPU  0 inst:   48000000 cyc:   36865676 now IPC :1.32213: AVG IPC :1.28180: L2-Pf-HR :0.94222: L2-HR :0.85752: (Sim:0h3m33s) 
CPU  0 inst:   49000002 cyc:   37759169 now IPC :1.11921: AVG IPC :1.27785: L2-Pf-HR :0.94107: L2-HR :0.85665: (Sim:0h3m38s) 
CPU  0 inst:   50000003 cyc:   38520735 now IPC :1.31309: AVG IPC :1.27857: L2-Pf-HR :0.94063: L2-HR :0.85622: (Sim:0h3m43s) 
CPU  0 inst:   51000003 cyc:   39283952 now IPC :1.31024: AVG IPC :1.27920: L2-Pf-HR :0.94053: L2-HR :0.85613: (Sim:0h3m47s) 
CPU  0 inst:   52000000 cyc:   40052306 now IPC :1.30148: AVG IPC :1.27964: L2-Pf-HR :0.94047: L2-HR :0.85613: (Sim:0h3m52s) 
CPU  0 inst:   53000001 cyc:   40819229 now IPC :1.30391: AVG IPC :1.28011: L2-Pf-HR :0.94032: L2-HR :0.85598: (Sim:0h3m57s) 
CPU  0 inst:   54000001 cyc:   41585394 now IPC :1.30520: AVG IPC :1.28058: L2-Pf-HR :0.94029: L2-HR :0.85590: (Sim:0h4m2s) 
CPU  0 inst:   55000001 cyc:   42461689 now IPC :1.14117: AVG IPC :1.27763: L2-Pf-HR :0.93951: L2-HR :0.85533: (Sim:0h4m7s) 
CPU  0 inst:   56000000 cyc:   43219789 now IPC :1.31909: AVG IPC :1.27838: L2-Pf-HR :0.93981: L2-HR :0.85552: (Sim:0h4m12s) 
CPU  0 inst:   57000000 cyc:   43980017 now IPC :1.31539: AVG IPC :1.27903: L2-Pf-HR :0.94012: L2-HR :0.85576: (Sim:0h4m16s) 
CPU  0 inst:   58000001 cyc:   44737481 now IPC :1.32020: AVG IPC :1.27974: L2-Pf-HR :0.94050: L2-HR :0.85610: (Sim:0h4m21s) 
CPU  0 inst:   59000002 cyc:   45494975 now IPC :1.32014: AVG IPC :1.28043: L2-Pf-HR :0.94077: L2-HR :0.85631: (Sim:0h4m26s) 
CPU  0 inst:   60000000 cyc:   46251032 now IPC :1.32265: AVG IPC :1.28114: L2-Pf-HR :0.94106: L2-HR :0.85650: (Sim:0h4m31s) 
CPU  0 inst:   61000002 cyc:   47076173 now IPC :1.21192: AVG IPC :1.27990: L2-Pf-HR :0.94091: L2-HR :0.85641: (Sim:0h4m35s) 
CPU  0 inst:   62000000 cyc:   47813570 now IPC :1.35612: AVG IPC :1.28110: L2-Pf-HR :0.94100: L2-HR :0.85648: (Sim:0h4m40s) 
CPU  0 inst:   63000001 cyc:   48560862 now IPC :1.33817: AVG IPC :1.28199: L2-Pf-HR :0.94124: L2-HR :0.85672: (Sim:0h4m45s) 
CPU  0 inst:   64000000 cyc:   49307071 now IPC :1.34011: AVG IPC :1.28289: L2-Pf-HR :0.94146: L2-HR :0.85688: (Sim:0h4m50s) 
CPU  0 inst:   65000003 cyc:   50188945 now IPC :1.13395: AVG IPC :1.28022: L2-Pf-HR :0.94075: L2-HR :0.85634: (Sim:0h4m55s) 
CPU  0 inst:   66000001 cyc:   50967583 now IPC :1.28429: AVG IPC :1.28029: L2-Pf-HR :0.94052: L2-HR :0.85611: (Sim:0h4m59s) 
CPU  0 inst:   67000003 cyc:   51740569 now IPC :1.29369: AVG IPC :1.28049: L2-Pf-HR :0.94040: L2-HR :0.85601: (Sim:0h5m4s) 
CPU  0 inst:   68000000 cyc:   52519273 now IPC :1.28418: AVG IPC :1.28055: L2-Pf-HR :0.94035: L2-HR :0.85599: (Sim:0h5m9s) 
CPU  0 inst:   69000001 cyc:   53295629 now IPC :1.28807: AVG IPC :1.28066: L2-Pf-HR :0.94026: L2-HR :0.85592: (Sim:0h5m14s) 
CPU  0 inst:   70000002 cyc:   54066344 now IPC :1.29750: AVG IPC :1.28090: L2-Pf-HR :0.94010: L2-HR :0.85575: (Sim:0h5m19s) 
CPU  0 inst:   71000000 cyc:   54945232 now IPC :1.13780: AVG IPC :1.27857: L2-Pf-HR :0.93952: L2-HR :0.85533: (Sim:0h5m24s) 
CPU  0 inst:   72000000 cyc:   55716601 now IPC :1.29640: AVG IPC :1.27882: L2-Pf-HR :0.93971: L2-HR :0.85545: (Sim:0h5m29s) 
CPU  0 inst:   73000001 cyc:   56484941 now IPC :1.30151: AVG IPC :1.27914: L2-Pf-HR :0.93992: L2-HR :0.85561: (Sim:0h5m33s) 
CPU  0 inst:   74000003 cyc:   57255258 now IPC :1.29817: AVG IPC :1.27940: L2-Pf-HR :0.94015: L2-HR :0.85581: (Sim:0h5m37s) 
CPU  0 inst:   75000002 cyc:   58024932 now IPC :1.29925: AVG IPC :1.27967: L2-Pf-HR :0.94043: L2-HR :0.85603: (Sim:0h5m41s) 
CPU  0 inst:   76000000 cyc:   58790379 now IPC :1.30642: AVG IPC :1.28002: L2-Pf-HR :0.94062: L2-HR :0.85615: (Sim:0h5m44s) 
CPU  0 inst:   77000000 cyc:   59625451 now IPC :1.19750: AVG IPC :1.27884: L2-Pf-HR :0.94054: L2-HR :0.85611: (Sim:0h5m47s) 
CPU  0 inst:   78000002 cyc:   60391585 now IPC :1.30526: AVG IPC :1.27919: L2-Pf-HR :0.94057: L2-HR :0.85613: (Sim:0h5m52s) 
CPU  0 inst:   79000003 cyc:   61164620 now IPC :1.29360: AVG IPC :1.27937: L2-Pf-HR :0.94080: L2-HR :0.85634: (Sim:0h5m56s) 
CPU  0 inst:   80000000 cyc:   61938127 now IPC :1.29281: AVG IPC :1.27954: L2-Pf-HR :0.94098: L2-HR :0.85648: (Sim:0h6m0s) 
CPU  0 inst:   81000000 cyc:   62837939 now IPC :1.11134: AVG IPC :1.27709: L2-Pf-HR :0.94046: L2-HR :0.85609: (Sim:0h6m5s) 
CPU  0 inst:   82000001 cyc:   63610501 now IPC :1.29440: AVG IPC :1.27731: L2-Pf-HR :0.94033: L2-HR :0.85597: (Sim:0h6m9s) 
CPU  0 inst:   83000000 cyc:   64391436 now IPC :1.28052: AVG IPC :1.27735: L2-Pf-HR :0.94030: L2-HR :0.85594: (Sim:0h6m13s) 
CPU  0 inst:   84000000 cyc:   65164310 now IPC :1.29387: AVG IPC :1.27755: L2-Pf-HR :0.94024: L2-HR :0.85590: (Sim:0h6m18s) 
CPU  0 inst:   85000003 cyc:   65941740 now IPC :1.28629: AVG IPC :1.27765: L2-Pf-HR :0.94020: L2-HR :0.85586: (Sim:0h6m23s) 
CPU  0 inst:   86000003 cyc:   66718288 now IPC :1.28775: AVG IPC :1.27777: L2-Pf-HR :0.94014: L2-HR :0.85579: (Sim:0h6m28s) 
CPU  0 inst:   87000001 cyc:   67583746 now IPC :1.15546: AVG IPC :1.27618: L2-Pf-HR :0.93956: L2-HR :0.85534: (Sim:0h6m33s) 
CPU  0 inst:   88000000 cyc:   68369534 now IPC :1.27261: AVG IPC :1.27614: L2-Pf-HR :0.93971: L2-HR :0.85544: (Sim:0h6m37s) 
CPU  0 inst:   89000002 cyc:   69136010 now IPC :1.30467: AVG IPC :1.27646: L2-Pf-HR :0.93989: L2-HR :0.85558: (Sim:0h6m42s) 
CPU  0 inst:   90000000 cyc:   69902161 now IPC :1.30522: AVG IPC :1.27678: L2-Pf-HR :0.94014: L2-HR :0.85579: (Sim:0h6m47s) 
CPU  0 inst:   91000000 cyc:   70669441 now IPC :1.30331: AVG IPC :1.27707: L2-Pf-HR :0.94034: L2-HR :0.85595: (Sim:0h6m52s) 
CPU  0 inst:   92000000 cyc:   71435587 now IPC :1.30523: AVG IPC :1.27738: L2-Pf-HR :0.94056: L2-HR :0.85610: (Sim:0h6m57s) 
CPU  0 inst:   93000000 cyc:   72269602 now IPC :1.19902: AVG IPC :1.27646: L2-Pf-HR :0.94051: L2-HR :0.85608: (Sim:0h7m2s) 
CPU  0 inst:   94000002 cyc:   73031777 now IPC :1.31204: AVG IPC :1.27684: L2-Pf-HR :0.94062: L2-HR :0.85616: (Sim:0h7m7s) 
CPU  0 inst:   95000000 cyc:   73791620 now IPC :1.31606: AVG IPC :1.27725: L2-Pf-HR :0.94079: L2-HR :0.85632: (Sim:0h7m11s) 
CPU  0 inst:   96000000 cyc:   74551636 now IPC :1.31576: AVG IPC :1.27764: L2-Pf-HR :0.94094: L2-HR :0.85644: (Sim:0h7m16s) 
CPU  0 inst:   97000003 cyc:   75409658 now IPC :1.16547: AVG IPC :1.27635: L2-Pf-HR :0.94061: L2-HR :0.85619: (Sim:0h7m21s) 
CPU  0 inst:   98000002 cyc:   76215473 now IPC :1.24098: AVG IPC :1.27597: L2-Pf-HR :0.94033: L2-HR :0.85594: (Sim:0h7m26s) 
CPU  0 inst:   99000003 cyc:   76989720 now IPC :1.29158: AVG IPC :1.27613: L2-Pf-HR :0.94020: L2-HR :0.85583: (Sim:0h7m31s) 
CPU  0 inst:  100000000 cyc:   77771453 now IPC :1.27921: AVG IPC :1.27616: L2-Pf-HR :0.94017: L2-HR :0.85581: (Sim:0h7m36s) 
CPU  0 inst:  101000000 cyc:   78543135 now IPC :1.29587: AVG IPC :1.27636: L2-Pf-HR :0.94007: L2-HR :0.85573: (Sim:0h7m40s) 
CPU  0 inst:  102000001 cyc:   79316978 now IPC :1.29225: AVG IPC :1.27652: L2-Pf-HR :0.93996: L2-HR :0.85562: (Sim:0h7m45s) 
CPU  0 inst:  103000000 cyc:   80105450 now IPC :1.26827: AVG IPC :1.27643: L2-Pf-HR :0.93986: L2-HR :0.85552: (Sim:0h7m50s) 
CPU  0 inst:  104000000 cyc:   80961273 now IPC :1.16847: AVG IPC :1.27528: L2-Pf-HR :0.93954: L2-HR :0.85530: (Sim:0h7m55s) 
CPU  0 inst:  105000000 cyc:   81723791 now IPC :1.31144: AVG IPC :1.27562: L2-Pf-HR :0.93971: L2-HR :0.85542: (Sim:0h8m0s) 
CPU  0 inst:  106000003 cyc:   82490106 now IPC :1.30495: AVG IPC :1.27590: L2-Pf-HR :0.93988: L2-HR :0.85556: (Sim:0h8m5s) 
CPU  0 inst:  107000003 cyc:   83252381 now IPC :1.31186: AVG IPC :1.27623: L2-Pf-HR :0.94009: L2-HR :0.85573: (Sim:0h8m10s) 
CPU  0 inst:  108000000 cyc:   84016295 now IPC :1.30904: AVG IPC :1.27653: L2-Pf-HR :0.94025: L2-HR :0.85584: (Sim:0h8m14s) 
CPU  0 inst:  109000001 cyc:   84788052 now IPC :1.29575: AVG IPC :1.27671: L2-Pf-HR :0.94040: L2-HR :0.85593: (Sim:0h8m19s) 
CPU  0 inst:  110000001 cyc:   85611354 now IPC :1.21462: AVG IPC :1.27610: L2-Pf-HR :0.94030: L2-HR :0.85588: (Sim:0h8m24s) 
CPU  0 inst:  111000000 cyc:   86386583 now IPC :1.28994: AVG IPC :1.27623: L2-Pf-HR :0.94044: L2-HR :0.85601: (Sim:0h8m29s) 
CPU  0 inst:  112000000 cyc:   87162191 now IPC :1.28931: AVG IPC :1.27635: L2-Pf-HR :0.94058: L2-HR :0.85613: (Sim:0h8m34s) 
CPU  0 inst:  113000002 cyc:   87938673 now IPC :1.28786: AVG IPC :1.27645: L2-Pf-HR :0.94069: L2-HR :0.85620: (Sim:0h8m39s) 
CPU  0 inst:  114000003 cyc:   88838610 now IPC :1.11119: AVG IPC :1.27476: L2-Pf-HR :0.94020: L2-HR :0.85582: (Sim:0h8m44s) 
CPU  0 inst:  115000002 cyc:   89616027 now IPC :1.28631: AVG IPC :1.27486: L2-Pf-HR :0.94016: L2-HR :0.85577: (Sim:0h8m48s) 
CPU  0 inst:  116000000 cyc:   90393966 now IPC :1.28545: AVG IPC :1.27495: L2-Pf-HR :0.94016: L2-HR :0.85578: (Sim:0h8m53s) 
CPU  0 inst:  117000001 cyc:   91169366 now IPC :1.28966: AVG IPC :1.27508: L2-Pf-HR :0.94006: L2-HR :0.85573: (Sim:0h8m58s) 
CPU  0 inst:  118000001 cyc:   91953598 now IPC :1.27513: AVG IPC :1.27508: L2-Pf-HR :0.94002: L2-HR :0.85566: (Sim:0h9m3s) 
CPU  0 inst:  119000001 cyc:   92735370 now IPC :1.27915: AVG IPC :1.27511: L2-Pf-HR :0.93996: L2-HR :0.85558: (Sim:0h9m8s) 
CPU  0 inst:  120000000 cyc:   93606356 now IPC :1.14812: AVG IPC :1.27392: L2-Pf-HR :0.93967: L2-HR :0.85540: (Sim:0h9m13s) 
CPU  0 inst:  121000000 cyc:   94366862 now IPC :1.31491: AVG IPC :1.27425: L2-Pf-HR :0.93981: L2-HR :0.85548: (Sim:0h9m17s) 
CPU  0 inst:  122000003 cyc:   95120727 now IPC :1.32650: AVG IPC :1.27467: L2-Pf-HR :0.93998: L2-HR :0.85563: (Sim:0h9m22s) 
CPU  0 inst:  123000003 cyc:   95873268 now IPC :1.32883: AVG IPC :1.27510: L2-Pf-HR :0.94012: L2-HR :0.85576: (Sim:0h9m27s) 
CPU  0 inst:  124000000 cyc:   96627108 now IPC :1.32654: AVG IPC :1.27551: L2-Pf-HR :0.94028: L2-HR :0.85587: (Sim:0h9m32s) 
CPU  0 inst:  125000002 cyc:   97382952 now IPC :1.32303: AVG IPC :1.27588: L2-Pf-HR :0.94042: L2-HR :0.85595: (Sim:0h9m37s) 
CPU  0 inst:  126000000 cyc:   98225635 now IPC :1.18668: AVG IPC :1.27511: L2-Pf-HR :0.94036: L2-HR :0.85595: (Sim:0h9m42s) 
CPU  0 inst:  127000000 cyc:   98989453 now IPC :1.30921: AVG IPC :1.27537: L2-Pf-HR :0.94042: L2-HR :0.85601: (Sim:0h9m47s) 
CPU  0 inst:  128000000 cyc:   99760777 now IPC :1.29647: AVG IPC :1.27554: L2-Pf-HR :0.94055: L2-HR :0.85613: (Sim:0h9m51s) 
CPU  0 inst:  129000001 cyc:  100535433 now IPC :1.29090: AVG IPC :1.27566: L2-Pf-HR :0.94066: L2-HR :0.85619: (Sim:0h9m56s) 
CPU  0 inst:  130000000 cyc:  101432026 now IPC :1.11533: AVG IPC :1.27422: L2-Pf-HR :0.94015: L2-HR :0.85581: (Sim:0h10m1s) 
CPU  0 inst:  131000000 cyc:  102205000 now IPC :1.29370: AVG IPC :1.27437: L2-Pf-HR :0.94010: L2-HR :0.85574: (Sim:0h10m6s) 
CPU  0 inst:  132000000 cyc:  102971200 now IPC :1.30514: AVG IPC :1.27460: L2-Pf-HR :0.94003: L2-HR :0.85569: (Sim:0h10m11s) 
CPU  0 inst:  133000002 cyc:  103747654 now IPC :1.28791: AVG IPC :1.27470: L2-Pf-HR :0.94000: L2-HR :0.85568: (Sim:0h10m16s) 
CPU  0 inst:  134000001 cyc:  104517170 now IPC :1.29952: AVG IPC :1.27489: L2-Pf-HR :0.93995: L2-HR :0.85562: (Sim:0h10m20s) 
CPU  0 inst:  135000003 cyc:  105292388 now IPC :1.28996: AVG IPC :1.27500: L2-Pf-HR :0.93986: L2-HR :0.85553: (Sim:0h10m25s) 
CPU  0 inst:  136000000 cyc:  106153702 now IPC :1.16101: AVG IPC :1.27407: L2-Pf-HR :0.93965: L2-HR :0.85539: (Sim:0h10m30s) 
CPU  0 inst:  137000000 cyc:  106916443 now IPC :1.31106: AVG IPC :1.27433: L2-Pf-HR :0.93977: L2-HR :0.85548: (Sim:0h10m35s) 
CPU  0 inst:  138000000 cyc:  107683400 now IPC :1.30385: AVG IPC :1.27455: L2-Pf-HR :0.93988: L2-HR :0.85557: (Sim:0h10m40s) 
CPU  0 inst:  139000003 cyc:  108447451 now IPC :1.30882: AVG IPC :1.27479: L2-Pf-HR :0.94004: L2-HR :0.85571: (Sim:0h10m45s) 
CPU  0 inst:  140000000 cyc:  109208028 now IPC :1.31479: AVG IPC :1.27507: L2-Pf-HR :0.94015: L2-HR :0.85578: (Sim:0h10m49s) 
CPU  0 inst:  141000002 cyc:  109974032 now IPC :1.30548: AVG IPC :1.27528: L2-Pf-HR :0.94027: L2-HR :0.85585: (Sim:0h10m54s) 
CPU  0 inst:  142000000 cyc:  110813847 now IPC :1.19074: AVG IPC :1.27464: L2-Pf-HR :0.94023: L2-HR :0.85584: (Sim:0h10m59s) 
CPU  0 inst:  143000002 cyc:  111578033 now IPC :1.30858: AVG IPC :1.27487: L2-Pf-HR :0.94032: L2-HR :0.85591: (Sim:0h11m4s) 
CPU  0 inst:  144000000 cyc:  112341921 now IPC :1.30909: AVG IPC :1.27511: L2-Pf-HR :0.94042: L2-HR :0.85601: (Sim:0h11m9s) 
CPU  0 inst:  145000003 cyc:  113110197 now IPC :1.30162: AVG IPC :1.27529: L2-Pf-HR :0.94052: L2-HR :0.85608: (Sim:0h11m13s) 
CPU  0 inst:  146000001 cyc:  114004912 now IPC :1.11767: AVG IPC :1.27404: L2-Pf-HR :0.94016: L2-HR :0.85580: (Sim:0h11m18s) 
CPU  0 inst:  147000001 cyc:  114778949 now IPC :1.29193: AVG IPC :1.27416: L2-Pf-HR :0.94009: L2-HR :0.85572: (Sim:0h11m23s) 
CPU  0 inst:  148000000 cyc:  115558609 now IPC :1.28261: AVG IPC :1.27422: L2-Pf-HR :0.94005: L2-HR :0.85569: (Sim:0h11m28s) 
CPU  0 inst:  149000003 cyc:  116333115 now IPC :1.29115: AVG IPC :1.27433: L2-Pf-HR :0.94002: L2-HR :0.85567: (Sim:0h11m33s) 
CPU  0 inst:  150000000 cyc:  117111852 now IPC :1.28413: AVG IPC :1.27440: L2-Pf-HR :0.93998: L2-HR :0.85564: (Sim:0h11m38s) 
CPU  0 inst:  151000002 cyc:  117888064 now IPC :1.28831: AVG IPC :1.27449: L2-Pf-HR :0.93991: L2-HR :0.85555: (Sim:0h11m43s) 
CPU  0 inst:  152000000 cyc:  118772235 now IPC :1.13100: AVG IPC :1.27342: L2-Pf-HR :0.93967: L2-HR :0.85538: (Sim:0h11m48s) 
CPU  0 inst:  153000003 cyc:  119546578 now IPC :1.29142: AVG IPC :1.27353: L2-Pf-HR :0.93975: L2-HR :0.85543: (Sim:0h11m53s) 
CPU  0 inst:  154000003 cyc:  120312143 now IPC :1.30622: AVG IPC :1.27374: L2-Pf-HR :0.93988: L2-HR :0.85553: (Sim:0h11m57s) 
CPU  0 inst:  155000003 cyc:  121081621 now IPC :1.29958: AVG IPC :1.27391: L2-Pf-HR :0.94002: L2-HR :0.85565: (Sim:0h12m2s) 
CPU  0 inst:  156000000 cyc:  121849284 now IPC :1.30265: AVG IPC :1.27409: L2-Pf-HR :0.94014: L2-HR :0.85574: (Sim:0h12m7s) 
CPU  0 inst:  157000002 cyc:  122619194 now IPC :1.29886: AVG IPC :1.27425: L2-Pf-HR :0.94027: L2-HR :0.85583: (Sim:0h12m12s) 
CPU  0 inst:  158000001 cyc:  123455830 now IPC :1.19526: AVG IPC :1.27371: L2-Pf-HR :0.94026: L2-HR :0.85583: (Sim:0h12m17s) 
CPU  0 inst:  159000001 cyc:  124215528 now IPC :1.31631: AVG IPC :1.27397: L2-Pf-HR :0.94031: L2-HR :0.85588: (Sim:0h12m22s) 
CPU  0 inst:  160000000 cyc:  124980912 now IPC :1.30653: AVG IPC :1.27417: L2-Pf-HR :0.94042: L2-HR :0.85598: (Sim:0h12m27s) 
CPU  0 inst:  161000001 cyc:  125746658 now IPC :1.30592: AVG IPC :1.27437: L2-Pf-HR :0.94049: L2-HR :0.85603: (Sim:0h12m31s) 
CPU  0 inst:  162000001 cyc:  126640498 now IPC :1.11877: AVG IPC :1.27326: L2-Pf-HR :0.94020: L2-HR :0.85581: (Sim:0h12m36s) 
CPU  0 inst:  163000001 cyc:  127411082 now IPC :1.29772: AVG IPC :1.27341: L2-Pf-HR :0.94007: L2-HR :0.85569: (Sim:0h12m40s) 
CPU  0 inst:  164000000 cyc:  128183627 now IPC :1.29442: AVG IPC :1.27354: L2-Pf-HR :0.94004: L2-HR :0.85566: (Sim:0h12m46s) 
CPU  0 inst:  165000000 cyc:  128958380 now IPC :1.29073: AVG IPC :1.27364: L2-Pf-HR :0.93999: L2-HR :0.85562: (Sim:0h12m51s) 
CPU  0 inst:  166000001 cyc:  129732075 now IPC :1.29250: AVG IPC :1.27375: L2-Pf-HR :0.93997: L2-HR :0.85559: (Sim:0h12m55s) 
CPU  0 inst:  167000000 cyc:  130512405 now IPC :1.28151: AVG IPC :1.27380: L2-Pf-HR :0.93993: L2-HR :0.85554: (Sim:0h13m0s) 
CPU  0 inst:  168000000 cyc:  131382465 now IPC :1.14935: AVG IPC :1.27297: L2-Pf-HR :0.93965: L2-HR :0.85535: (Sim:0h13m5s) 
CPU  0 inst:  169000003 cyc:  132152088 now IPC :1.29934: AVG IPC :1.27312: L2-Pf-HR :0.93975: L2-HR :0.85541: (Sim:0h13m10s) 
CPU  0 inst:  170000002 cyc:  132919458 now IPC :1.30315: AVG IPC :1.27330: L2-Pf-HR :0.93986: L2-HR :0.85549: (Sim:0h13m14s) 
CPU  0 inst:  171000003 cyc:  133685754 now IPC :1.30498: AVG IPC :1.27348: L2-Pf-HR :0.93999: L2-HR :0.85562: (Sim:0h13m19s) 
CPU  0 inst:  172000000 cyc:  134449858 now IPC :1.30872: AVG IPC :1.27368: L2-Pf-HR :0.94009: L2-HR :0.85569: (Sim:0h13m24s) 
CPU  0 inst:  173000002 cyc:  135218490 now IPC :1.30102: AVG IPC :1.27384: L2-Pf-HR :0.94020: L2-HR :0.85576: (Sim:0h13m30s) 
CPU  0 inst:  174000001 cyc:  136045947 now IPC :1.20852: AVG IPC :1.27344: L2-Pf-HR :0.94016: L2-HR :0.85575: (Sim:0h13m34s) 
CPU  0 inst:  175000002 cyc:  136804773 now IPC :1.31783: AVG IPC :1.27369: L2-Pf-HR :0.94020: L2-HR :0.85579: (Sim:0h13m39s) 
CPU  0 inst:  176000000 cyc:  137567354 now IPC :1.31133: AVG IPC :1.27390: L2-Pf-HR :0.94030: L2-HR :0.85588: (Sim:0h13m44s) 
CPU  0 inst:  177000001 cyc:  138334668 now IPC :1.30325: AVG IPC :1.27406: L2-Pf-HR :0.94038: L2-HR :0.85595: (Sim:0h13m47s) 
CPU  0 inst:  178000000 cyc:  139221440 now IPC :1.12768: AVG IPC :1.27312: L2-Pf-HR :0.94014: L2-HR :0.85577: (Sim:0h13m50s) 
CPU  0 inst:  179000003 cyc:  139996509 now IPC :1.29021: AVG IPC :1.27322: L2-Pf-HR :0.94006: L2-HR :0.85569: (Sim:0h13m54s) 
CPU  0 inst:  180000000 cyc:  140780539 now IPC :1.27546: AVG IPC :1.27323: L2-Pf-HR :0.94002: L2-HR :0.85565: (Sim:0h13m58s) 
CPU  0 inst:  181000002 cyc:  141560582 now IPC :1.28198: AVG IPC :1.27328: L2-Pf-HR :0.94000: L2-HR :0.85564: (Sim:0h14m2s) 
CPU  0 inst:  182000002 cyc:  142343804 now IPC :1.27678: AVG IPC :1.27330: L2-Pf-HR :0.93995: L2-HR :0.85560: (Sim:0h14m7s) 
CPU  0 inst:  183000002 cyc:  143119621 now IPC :1.28896: AVG IPC :1.27338: L2-Pf-HR :0.93988: L2-HR :0.85552: (Sim:0h14m10s) 
CPU  0 inst:  184000000 cyc:  143993675 now IPC :1.14409: AVG IPC :1.27259: L2-Pf-HR :0.93960: L2-HR :0.85532: (Sim:0h14m14s) 
CPU  0 inst:  185000003 cyc:  144765888 now IPC :1.29498: AVG IPC :1.27271: L2-Pf-HR :0.93966: L2-HR :0.85536: (Sim:0h14m17s) 
CPU  0 inst:  186000000 cyc:  145532077 now IPC :1.30516: AVG IPC :1.27289: L2-Pf-HR :0.93973: L2-HR :0.85541: (Sim:0h14m22s) 
CPU  0 inst:  187000003 cyc:  146301841 now IPC :1.29910: AVG IPC :1.27303: L2-Pf-HR :0.93983: L2-HR :0.85550: (Sim:0h14m27s) 
CPU  0 inst:  188000000 cyc:  147075785 now IPC :1.29208: AVG IPC :1.27313: L2-Pf-HR :0.93994: L2-HR :0.85558: (Sim:0h14m32s) 
CPU  0 inst:  189000002 cyc:  147849519 now IPC :1.29244: AVG IPC :1.27323: L2-Pf-HR :0.94003: L2-HR :0.85564: (Sim:0h14m37s) 
CPU  0 inst:  190000003 cyc:  148690763 now IPC :1.18872: AVG IPC :1.27275: L2-Pf-HR :0.94001: L2-HR :0.85563: (Sim:0h14m41s) 
CPU  0 inst:  191000001 cyc:  149460398 now IPC :1.29931: AVG IPC :1.27288: L2-Pf-HR :0.94007: L2-HR :0.85568: (Sim:0h14m45s) 
CPU  0 inst:  192000000 cyc:  150232312 now IPC :1.29548: AVG IPC :1.27300: L2-Pf-HR :0.94016: L2-HR :0.85577: (Sim:0h14m49s) 
CPU  0 inst:  193000002 cyc:  151006176 now IPC :1.29222: AVG IPC :1.27310: L2-Pf-HR :0.94024: L2-HR :0.85583: (Sim:0h14m53s) 
CPU  0 inst:  194000001 cyc:  153249823 now IPC :0.44570: AVG IPC :1.26091: L2-Pf-HR :0.93732: L2-HR :0.85396: (Sim:0h14m58s) 
CPU  0 inst:  195000002 cyc:  159608853 now IPC :0.15726: AVG IPC :1.21667: L2-Pf-HR :0.92535: L2-HR :0.84693: (Sim:0h15m11s) 
CPU  0 inst:  196000000 cyc:  166117746 now IPC :0.15364: AVG IPC :1.17477: L2-Pf-HR :0.91372: L2-HR :0.84017: (Sim:0h15m22s) 
CPU  0 inst:  197000002 cyc:  172618866 now IPC :0.15382: AVG IPC :1.13610: L2-Pf-HR :0.90238: L2-HR :0.83368: (Sim:0h15m34s) 
CPU  0 inst:  198000001 cyc:  179122073 now IPC :0.15377: AVG IPC :1.10024: L2-Pf-HR :0.89133: L2-HR :0.82744: (Sim:0h15m50s) 
CPU  0 inst:  199000000 cyc:  185634451 now IPC :0.15355: AVG IPC :1.06685: L2-Pf-HR :0.88056: L2-HR :0.82143: (Sim:0h16m5s) 
CPU  0 inst:  200000000 cyc:  192135516 now IPC :0.15382: AVG IPC :1.03580: L2-Pf-HR :0.87006: L2-HR :0.81565: (Sim:0h16m21s) 
CPU  0 inst:  201000000 cyc:  198208350 now IPC :0.16467: AVG IPC :1.00898: L2-Pf-HR :0.86116: L2-HR :0.81069: (Sim:0h16m35s) 
CPU  0 inst:  202000000 cyc:  201846683 now IPC :0.27485: AVG IPC :0.99568: L2-Pf-HR :0.86025: L2-HR :0.80978: (Sim:0h16m44s) 
CPU  0 inst:  203000002 cyc:  205461826 now IPC :0.27661: AVG IPC :0.98297: L2-Pf-HR :0.85934: L2-HR :0.80887: (Sim:0h16m53s) 
CPU  0 inst:  204000000 cyc:  209047705 now IPC :0.27887: AVG IPC :0.97083: L2-Pf-HR :0.85844: L2-HR :0.80796: (Sim:0h17m1s) 
CPU  0 inst:  205000000 cyc:  212626706 now IPC :0.27941: AVG IPC :0.95914: L2-Pf-HR :0.85754: L2-HR :0.80706: (Sim:0h17m7s) 
CPU  0 inst:  206000000 cyc:  216211897 now IPC :0.27893: AVG IPC :0.94781: L2-Pf-HR :0.85664: L2-HR :0.80616: (Sim:0h17m14s) 
CPU  0 inst:  207000000 cyc:  219799457 now IPC :0.27874: AVG IPC :0.93684: L2-Pf-HR :0.85574: L2-HR :0.80526: (Sim:0h17m23s) 
CPU  0 inst:  208000000 cyc:  223382362 now IPC :0.27910: AVG IPC :0.92624: L2-Pf-HR :0.85484: L2-HR :0.80437: (Sim:0h17m31s) 
CPU  0 inst:  209000000 cyc:  226967494 now IPC :0.27893: AVG IPC :0.91597: L2-Pf-HR :0.85395: L2-HR :0.80348: (Sim:0h17m38s) 
CPU  0 inst:  210000003 cyc:  230548934 now IPC :0.27922: AVG IPC :0.90604: L2-Pf-HR :0.85306: L2-HR :0.80260: (Sim:0h17m47s) 
CPU  0 inst:  211000003 cyc:  234131872 now IPC :0.27910: AVG IPC :0.89641: L2-Pf-HR :0.85218: L2-HR :0.80173: (Sim:0h17m56s) 
CPU  0 inst:  212000000 cyc:  237718913 now IPC :0.27878: AVG IPC :0.88705: L2-Pf-HR :0.85129: L2-HR :0.80085: (Sim:0h18m5s) 
CPU  0 inst:  213000000 cyc:  241300975 now IPC :0.27917: AVG IPC :0.87799: L2-Pf-HR :0.85041: L2-HR :0.79998: (Sim:0h18m14s) 
CPU  0 inst:  214000000 cyc:  244883692 now IPC :0.27912: AVG IPC :0.86919: L2-Pf-HR :0.84953: L2-HR :0.79911: (Sim:0h18m23s) 
CPU  0 inst:  215000000 cyc:  248467308 now IPC :0.27905: AVG IPC :0.86065: L2-Pf-HR :0.84865: L2-HR :0.79825: (Sim:0h18m32s) 
CPU  0 inst:  216000000 cyc:  252055507 now IPC :0.27869: AVG IPC :0.85233: L2-Pf-HR :0.84777: L2-HR :0.79738: (Sim:0h18m38s) 
CPU  0 inst:  217000003 cyc:  255640491 now IPC :0.27894: AVG IPC :0.84426: L2-Pf-HR :0.84689: L2-HR :0.79652: (Sim:0h18m45s) 
CPU  0 inst:  218000001 cyc:  259221641 now IPC :0.27924: AVG IPC :0.83642: L2-Pf-HR :0.84603: L2-HR :0.79567: (Sim:0h18m53s) 
CPU  0 inst:  219000003 cyc:  262807084 now IPC :0.27891: AVG IPC :0.82879: L2-Pf-HR :0.84516: L2-HR :0.79482: (Sim:0h19m1s) 
CPU  0 inst:  220000000 cyc:  266390956 now IPC :0.27903: AVG IPC :0.82136: L2-Pf-HR :0.84429: L2-HR :0.79397: (Sim:0h19m7s) 
CPU  0 inst:  221000003 cyc:  269975677 now IPC :0.27896: AVG IPC :0.81414: L2-Pf-HR :0.84342: L2-HR :0.79313: (Sim:0h19m15s) 
CPU  0 inst:  222000000 cyc:  273554900 now IPC :0.27939: AVG IPC :0.80711: L2-Pf-HR :0.84256: L2-HR :0.79229: (Sim:0h19m21s) 
CPU  0 inst:  223000000 cyc:  277138876 now IPC :0.27902: AVG IPC :0.80026: L2-Pf-HR :0.84169: L2-HR :0.79145: (Sim:0h19m28s) 
CPU  0 inst:  224000000 cyc:  280724266 now IPC :0.27891: AVG IPC :0.79358: L2-Pf-HR :0.84084: L2-HR :0.79062: (Sim:0h19m35s) 
CPU  0 inst:  225000002 cyc:  284305825 now IPC :0.27921: AVG IPC :0.78708: L2-Pf-HR :0.83998: L2-HR :0.78979: (Sim:0h19m41s) 
CPU  0 inst:  226000003 cyc:  287889342 now IPC :0.27906: AVG IPC :0.78073: L2-Pf-HR :0.83914: L2-HR :0.78896: (Sim:0h19m50s) 
CPU  0 inst:  227000000 cyc:  291475258 now IPC :0.27887: AVG IPC :0.77454: L2-Pf-HR :0.83828: L2-HR :0.78814: (Sim:0h19m59s) 
CPU  0 inst:  228000000 cyc:  295054050 now IPC :0.27942: AVG IPC :0.76851: L2-Pf-HR :0.83743: L2-HR :0.78732: (Sim:0h20m7s) 
CPU  0 inst:  229000002 cyc:  298634772 now IPC :0.27927: AVG IPC :0.76263: L2-Pf-HR :0.83658: L2-HR :0.78650: (Sim:0h20m15s) 
CPU  0 inst:  230000000 cyc:  302217214 now IPC :0.27914: AVG IPC :0.75688: L2-Pf-HR :0.83574: L2-HR :0.78569: (Sim:0h20m24s) 
CPU  0 inst:  231000000 cyc:  305795972 now IPC :0.27943: AVG IPC :0.75127: L2-Pf-HR :0.83489: L2-HR :0.78488: (Sim:0h20m33s) 
CPU  0 inst:  232000000 cyc:  309380474 now IPC :0.27898: AVG IPC :0.74578: L2-Pf-HR :0.83405: L2-HR :0.78408: (Sim:0h20m42s) 
CPU  0 inst:  233000000 cyc:  312967408 now IPC :0.27879: AVG IPC :0.74041: L2-Pf-HR :0.83322: L2-HR :0.78328: (Sim:0h20m51s) 
CPU  0 inst:  234000003 cyc:  316553092 now IPC :0.27889: AVG IPC :0.73517: L2-Pf-HR :0.83238: L2-HR :0.78248: (Sim:0h21m0s) 
CPU  0 inst:  235000000 cyc:  320136949 now IPC :0.27903: AVG IPC :0.73005: L2-Pf-HR :0.83155: L2-HR :0.78168: (Sim:0h21m9s) 
CPU  0 inst:  236000000 cyc:  323724045 now IPC :0.27878: AVG IPC :0.72503: L2-Pf-HR :0.83071: L2-HR :0.78089: (Sim:0h21m18s) 
CPU  0 inst:  237000000 cyc:  327306930 now IPC :0.27910: AVG IPC :0.72013: L2-Pf-HR :0.82988: L2-HR :0.78010: (Sim:0h21m27s) 
CPU  0 inst:  238000003 cyc:  330886157 now IPC :0.27939: AVG IPC :0.71535: L2-Pf-HR :0.82905: L2-HR :0.77932: (Sim:0h21m36s) 
CPU  0 inst:  239000000 cyc:  334470434 now IPC :0.27900: AVG IPC :0.71066: L2-Pf-HR :0.82822: L2-HR :0.77853: (Sim:0h21m45s) 
CPU  0 inst:  240000000 cyc:  338052553 now IPC :0.27916: AVG IPC :0.70608: L2-Pf-HR :0.82740: L2-HR :0.77775: (Sim:0h21m54s) 
CPU  0 inst:  241000003 cyc:  341633074 now IPC :0.27929: AVG IPC :0.70159: L2-Pf-HR :0.82657: L2-HR :0.77697: (Sim:0h22m3s) 
CPU  0 inst:  242000003 cyc:  345221516 now IPC :0.27867: AVG IPC :0.69718: L2-Pf-HR :0.82575: L2-HR :0.77620: (Sim:0h22m12s) 
CPU  0 inst:  243000000 cyc:  348808896 now IPC :0.27875: AVG IPC :0.69287: L2-Pf-HR :0.82493: L2-HR :0.77543: (Sim:0h22m21s) 
CPU  0 inst:  244000000 cyc:  352391485 now IPC :0.27913: AVG IPC :0.68865: L2-Pf-HR :0.82412: L2-HR :0.77466: (Sim:0h22m30s) 
CPU  0 inst:  245000000 cyc:  355972035 now IPC :0.27929: AVG IPC :0.68452: L2-Pf-HR :0.82330: L2-HR :0.77390: (Sim:0h22m38s) 
CPU  0 inst:  246000002 cyc:  359553465 now IPC :0.27922: AVG IPC :0.68047: L2-Pf-HR :0.82249: L2-HR :0.77314: (Sim:0h22m47s) 
CPU  0 inst:  247000000 cyc:  363138484 now IPC :0.27894: AVG IPC :0.67650: L2-Pf-HR :0.82168: L2-HR :0.77238: (Sim:0h22m56s) 
CPU  0 inst:  248000000 cyc:  366717871 now IPC :0.27938: AVG IPC :0.67261: L2-Pf-HR :0.82087: L2-HR :0.77162: (Sim:0h23m5s) 
CPU  0 inst:  249000003 cyc:  370307294 now IPC :0.27860: AVG IPC :0.66878: L2-Pf-HR :0.82006: L2-HR :0.77087: (Sim:0h23m14s) 
CPU  0 inst:  250000002 cyc:  373885529 now IPC :0.27947: AVG IPC :0.66505: L2-Pf-HR :0.81926: L2-HR :0.77012: (Sim:0h23m23s) 
CPU  0 inst:  251000000 cyc:  377474254 now IPC :0.27865: AVG IPC :0.66136: L2-Pf-HR :0.81845: L2-HR :0.76937: (Sim:0h23m32s) 
CPU  0 inst:  252000000 cyc:  381057298 now IPC :0.27909: AVG IPC :0.65776: L2-Pf-HR :0.81765: L2-HR :0.76863: (Sim:0h23m41s) 
CPU  0 inst:  253000000 cyc:  384639448 now IPC :0.27916: AVG IPC :0.65422: L2-Pf-HR :0.81685: L2-HR :0.76789: (Sim:0h23m50s) 
CPU  0 inst:  254000000 cyc:  388218870 now IPC :0.27937: AVG IPC :0.65076: L2-Pf-HR :0.81605: L2-HR :0.76715: (Sim:0h23m59s) 
CPU  0 inst:  255000002 cyc:  391806560 now IPC :0.27873: AVG IPC :0.64734: L2-Pf-HR :0.81526: L2-HR :0.76641: (Sim:0h24m8s) 
CPU  0 inst:  256000000 cyc:  395388185 now IPC :0.27920: AVG IPC :0.64400: L2-Pf-HR :0.81447: L2-HR :0.76568: (Sim:0h24m16s) 
CPU  0 inst:  257000000 cyc:  398968910 now IPC :0.27927: AVG IPC :0.64072: L2-Pf-HR :0.81368: L2-HR :0.76495: (Sim:0h24m24s) 
CPU  0 inst:  258000000 cyc:  402550094 now IPC :0.27924: AVG IPC :0.63750: L2-Pf-HR :0.81288: L2-HR :0.76422: (Sim:0h24m31s) 
CPU  0 inst:  259000003 cyc:  406137496 now IPC :0.27875: AVG IPC :0.63432: L2-Pf-HR :0.81209: L2-HR :0.76350: (Sim:0h24m37s) 
CPU  0 inst:  260000000 cyc:  409721072 now IPC :0.27905: AVG IPC :0.63120: L2-Pf-HR :0.81130: L2-HR :0.76277: (Sim:0h24m43s) 
CPU  0 inst:  261000000 cyc:  413309220 now IPC :0.27870: AVG IPC :0.62814: L2-Pf-HR :0.81051: L2-HR :0.76205: (Sim:0h24m50s) 
CPU  0 inst:  262000000 cyc:  416891066 now IPC :0.27919: AVG IPC :0.62513: L2-Pf-HR :0.80973: L2-HR :0.76134: (Sim:0h24m59s) 
CPU  0 inst:  263000001 cyc:  420476001 now IPC :0.27895: AVG IPC :0.62217: L2-Pf-HR :0.80896: L2-HR :0.76063: (Sim:0h25m8s) 
CPU  0 inst:  264000000 cyc:  424061158 now IPC :0.27893: AVG IPC :0.61926: L2-Pf-HR :0.80818: L2-HR :0.75992: (Sim:0h25m17s) 
CPU  0 inst:  265000000 cyc:  427644022 now IPC :0.27911: AVG IPC :0.61641: L2-Pf-HR :0.80740: L2-HR :0.75921: (Sim:0h25m26s) 
CPU  0 inst:  266000000 cyc:  431224856 now IPC :0.27926: AVG IPC :0.61360: L2-Pf-HR :0.80662: L2-HR :0.75850: (Sim:0h25m36s) 
CPU  0 inst:  267000002 cyc:  434809703 now IPC :0.27895: AVG IPC :0.61084: L2-Pf-HR :0.80585: L2-HR :0.75780: (Sim:0h25m45s) 
CPU  0 inst:  268000000 cyc:  438397876 now IPC :0.27869: AVG IPC :0.60811: L2-Pf-HR :0.80507: L2-HR :0.75710: (Sim:0h25m54s) 
CPU  0 inst:  269000000 cyc:  441979479 now IPC :0.27920: AVG IPC :0.60544: L2-Pf-HR :0.80430: L2-HR :0.75640: (Sim:0h26m3s) 
CPU  0 inst:  270000001 cyc:  445559205 now IPC :0.27935: AVG IPC :0.60282: L2-Pf-HR :0.80354: L2-HR :0.75571: (Sim:0h26m11s) 
CPU  0 inst:  271000001 cyc:  449146258 now IPC :0.27878: AVG IPC :0.60022: L2-Pf-HR :0.80278: L2-HR :0.75502: (Sim:0h26m17s) 
CPU  0 inst:  272000000 cyc:  452732340 now IPC :0.27886: AVG IPC :0.59767: L2-Pf-HR :0.80201: L2-HR :0.75433: (Sim:0h26m26s) 
CPU  0 inst:  273000000 cyc:  456312216 now IPC :0.27934: AVG IPC :0.59517: L2-Pf-HR :0.80125: L2-HR :0.75364: (Sim:0h26m35s) 
CPU  0 inst:  274000000 cyc:  459897266 now IPC :0.27894: AVG IPC :0.59270: L2-Pf-HR :0.80049: L2-HR :0.75295: (Sim:0h26m44s) 
CPU  0 inst:  275000000 cyc:  463478473 now IPC :0.27924: AVG IPC :0.59027: L2-Pf-HR :0.79972: L2-HR :0.75227: (Sim:0h26m53s) 
CPU  0 inst:  276000000 cyc:  467068753 now IPC :0.27853: AVG IPC :0.58787: L2-Pf-HR :0.79896: L2-HR :0.75159: (Sim:0h27m2s) 
CPU  0 inst:  277000000 cyc:  470653451 now IPC :0.27896: AVG IPC :0.58551: L2-Pf-HR :0.79821: L2-HR :0.75091: (Sim:0h27m11s) 
CPU  0 inst:  278000003 cyc:  474236311 now IPC :0.27911: AVG IPC :0.58319: L2-Pf-HR :0.79746: L2-HR :0.75024: (Sim:0h27m20s) 
CPU  0 inst:  279000003 cyc:  477823178 now IPC :0.27879: AVG IPC :0.58090: L2-Pf-HR :0.79671: L2-HR :0.74957: (Sim:0h27m29s) 
CPU  0 inst:  280000000 cyc:  481402707 now IPC :0.27937: AVG IPC :0.57866: L2-Pf-HR :0.79596: L2-HR :0.74890: (Sim:0h27m38s) 
CPU  0 inst:  281000000 cyc:  484985372 now IPC :0.27912: AVG IPC :0.57644: L2-Pf-HR :0.79521: L2-HR :0.74823: (Sim:0h27m46s) 
CPU  0 inst:  282000000 cyc:  488569790 now IPC :0.27899: AVG IPC :0.57425: L2-Pf-HR :0.79446: L2-HR :0.74757: (Sim:0h27m53s) 
CPU  0 inst:  283000000 cyc:  492155700 now IPC :0.27887: AVG IPC :0.57210: L2-Pf-HR :0.79372: L2-HR :0.74691: (Sim:0h28m2s) 
CPU  0 inst:  284000000 cyc:  495737596 now IPC :0.27918: AVG IPC :0.56997: L2-Pf-HR :0.79297: L2-HR :0.74624: (Sim:0h28m11s) 
CPU  0 inst:  285000000 cyc:  499322079 now IPC :0.27898: AVG IPC :0.56788: L2-Pf-HR :0.79223: L2-HR :0.74559: (Sim:0h28m20s) 
CPU  0 inst:  286000003 cyc:  502905486 now IPC :0.27906: AVG IPC :0.56582: L2-Pf-HR :0.79149: L2-HR :0.74493: (Sim:0h28m29s) 
CPU  0 inst:  287000000 cyc:  506490791 now IPC :0.27892: AVG IPC :0.56378: L2-Pf-HR :0.79075: L2-HR :0.74428: (Sim:0h28m38s) 
CPU  0 inst:  288000000 cyc:  510071706 now IPC :0.27926: AVG IPC :0.56178: L2-Pf-HR :0.79002: L2-HR :0.74363: (Sim:0h28m47s) 
CPU  0 inst:  289000000 cyc:  513655150 now IPC :0.27906: AVG IPC :0.55981: L2-Pf-HR :0.78929: L2-HR :0.74298: (Sim:0h28m55s) 
CPU  0 inst:  290000000 cyc:  517232248 now IPC :0.27956: AVG IPC :0.55787: L2-Pf-HR :0.78855: L2-HR :0.74234: (Sim:0h29m4s) 
CPU  0 inst:  291000000 cyc:  520811568 now IPC :0.27938: AVG IPC :0.55595: L2-Pf-HR :0.78782: L2-HR :0.74169: (Sim:0h29m13s) 
CPU  0 inst:  292000000 cyc:  524395435 now IPC :0.27903: AVG IPC :0.55405: L2-Pf-HR :0.78709: L2-HR :0.74105: (Sim:0h29m22s) 
CPU  0 inst:  293000003 cyc:  527980292 now IPC :0.27895: AVG IPC :0.55218: L2-Pf-HR :0.78636: L2-HR :0.74042: (Sim:0h29m31s) 
CPU  0 inst:  294000003 cyc:  531570214 now IPC :0.27856: AVG IPC :0.55033: L2-Pf-HR :0.78564: L2-HR :0.73978: (Sim:0h29m40s) 
CPU  0 inst:  295000000 cyc:  535155172 now IPC :0.27894: AVG IPC :0.54851: L2-Pf-HR :0.78491: L2-HR :0.73915: (Sim:0h29m49s) 
CPU  0 inst:  296000000 cyc:  538737633 now IPC :0.27914: AVG IPC :0.54671: L2-Pf-HR :0.78419: L2-HR :0.73852: (Sim:0h29m58s) 
CPU  0 inst:  297000001 cyc:  540316635 now IPC :0.63331: AVG IPC :0.54697: L2-Pf-HR :0.78460: L2-HR :0.73923: (Sim:0h30m4s) 
CPU  0 inst:  298000001 cyc:  540990049 now IPC :1.48497: AVG IPC :0.54814: L2-Pf-HR :0.78562: L2-HR :0.74063: (Sim:0h30m9s) 
CPU  0 inst:  299000002 cyc:  541639331 now IPC :1.54016: AVG IPC :0.54933: L2-Pf-HR :0.78665: L2-HR :0.74204: (Sim:0h30m14s) 
CPU  0 inst:  300000000 cyc:  542290140 now IPC :1.53655: AVG IPC :0.55051: L2-Pf-HR :0.78766: L2-HR :0.74342: (Sim:0h30m19s) 
CPU  0 inst:  301000001 cyc:  542964303 now IPC :1.48332: AVG IPC :0.55168: L2-Pf-HR :0.78826: L2-HR :0.74451: (Sim:0h30m24s) 
CPU  0 inst:  302000003 cyc:  543593719 now IPC :1.58878: AVG IPC :0.55288: L2-Pf-HR :0.78913: L2-HR :0.74579: (Sim:0h30m29s) 
CPU  0 inst:  303000000 cyc:  544218580 now IPC :1.60035: AVG IPC :0.55408: L2-Pf-HR :0.79001: L2-HR :0.74708: (Sim:0h30m34s) 
CPU  0 inst:  304000000 cyc:  544826613 now IPC :1.64465: AVG IPC :0.55530: L2-Pf-HR :0.79082: L2-HR :0.74829: (Sim:0h30m39s) 
CPU  0 inst:  305000003 cyc:  545458468 now IPC :1.58265: AVG IPC :0.55649: L2-Pf-HR :0.79143: L2-HR :0.74937: (Sim:0h30m44s) 
CPU  0 inst:  306000003 cyc:  546078493 now IPC :1.61284: AVG IPC :0.55770: L2-Pf-HR :0.79225: L2-HR :0.75059: (Sim:0h30m49s) 
CPU  0 inst:  307000000 cyc:  546689202 now IPC :1.63744: AVG IPC :0.55890: L2-Pf-HR :0.79308: L2-HR :0.75180: (Sim:0h30m54s) 
CPU  0 inst:  308000000 cyc:  547284241 now IPC :1.68056: AVG IPC :0.56013: L2-Pf-HR :0.79388: L2-HR :0.75299: (Sim:0h30m59s) 
CPU  0 inst:  309000001 cyc:  547902352 now IPC :1.61783: AVG IPC :0.56132: L2-Pf-HR :0.79440: L2-HR :0.75397: (Sim:0h31m4s) 
CPU  0 inst:  310000001 cyc:  548525764 now IPC :1.60408: AVG IPC :0.56251: L2-Pf-HR :0.79507: L2-HR :0.75501: (Sim:0h31m10s) 
CPU  0 inst:  311000002 cyc:  549150630 now IPC :1.60034: AVG IPC :0.56369: L2-Pf-HR :0.79573: L2-HR :0.75603: (Sim:0h31m15s) 
CPU  0 inst:  312000000 cyc:  549777782 now IPC :1.59451: AVG IPC :0.56487: L2-Pf-HR :0.79637: L2-HR :0.75703: (Sim:0h31m20s) 
CPU  0 inst:  313000000 cyc:  550425370 now IPC :1.54419: AVG IPC :0.56602: L2-Pf-HR :0.79675: L2-HR :0.75784: (Sim:0h31m25s) 
CPU  0 inst:  314000001 cyc:  551075038 now IPC :1.53925: AVG IPC :0.56717: L2-Pf-HR :0.79757: L2-HR :0.75897: (Sim:0h31m29s) 
CPU  0 inst:  315000003 cyc:  551725608 now IPC :1.53712: AVG IPC :0.56832: L2-Pf-HR :0.79843: L2-HR :0.76011: (Sim:0h31m33s) 
CPU  0 inst:  316000000 cyc:  552366156 now IPC :1.56116: AVG IPC :0.56947: L2-Pf-HR :0.79928: L2-HR :0.76124: (Sim:0h31m36s) 
CPU  0 inst:  317000002 cyc:  553015595 now IPC :1.53979: AVG IPC :0.57061: L2-Pf-HR :0.80001: L2-HR :0.76229: (Sim:0h31m40s) 
CPU  0 inst:  318000000 cyc:  553644415 now IPC :1.59028: AVG IPC :0.57177: L2-Pf-HR :0.80054: L2-HR :0.76319: (Sim:0h31m45s) 
CPU  0 inst:  319000000 cyc:  554276336 now IPC :1.58248: AVG IPC :0.57293: L2-Pf-HR :0.80127: L2-HR :0.76424: (Sim:0h31m50s) 
CPU  0 inst:  320000000 cyc:  554888246 now IPC :1.63423: AVG IPC :0.57410: L2-Pf-HR :0.80203: L2-HR :0.76532: (Sim:0h31m55s) 
CPU  0 inst:  321000002 cyc:  555489315 now IPC :1.66371: AVG IPC :0.57528: L2-Pf-HR :0.80275: L2-HR :0.76635: (Sim:0h31m59s) 
CPU  0 inst:  322000001 cyc:  556111842 now IPC :1.60635: AVG IPC :0.57644: L2-Pf-HR :0.80321: L2-HR :0.76720: (Sim:0h32m4s) 
CPU  0 inst:  323000000 cyc:  556716482 now IPC :1.65387: AVG IPC :0.57761: L2-Pf-HR :0.80396: L2-HR :0.76825: (Sim:0h32m9s) 
CPU  0 inst:  324000000 cyc:  557318234 now IPC :1.66181: AVG IPC :0.57878: L2-Pf-HR :0.80468: L2-HR :0.76927: (Sim:0h32m14s) 
CPU  0 inst:  325000000 cyc:  557910774 now IPC :1.68765: AVG IPC :0.57996: L2-Pf-HR :0.80541: L2-HR :0.77029: (Sim:0h32m19s) 
CPU  0 inst:  326000002 cyc:  558537644 now IPC :1.59523: AVG IPC :0.58110: L2-Pf-HR :0.80570: L2-HR :0.77097: (Sim:0h32m24s) 
CPU  0 inst:  327000001 cyc:  559152351 now IPC :1.62679: AVG IPC :0.58226: L2-Pf-HR :0.80625: L2-HR :0.77183: (Sim:0h32m29s) 
CPU  0 inst:  328000000 cyc:  559779107 now IPC :1.59552: AVG IPC :0.58339: L2-Pf-HR :0.80680: L2-HR :0.77267: (Sim:0h32m34s) 
CPU  0 inst:  329000002 cyc:  560403571 now IPC :1.60138: AVG IPC :0.58453: L2-Pf-HR :0.80735: L2-HR :0.77350: (Sim:0h32m38s) 
CPU  0 inst:  330000001 cyc:  561062278 now IPC :1.51812: AVG IPC :0.58563: L2-Pf-HR :0.80763: L2-HR :0.77413: (Sim:0h32m41s) 
CPU  0 inst:  331000003 cyc:  561702460 now IPC :1.56206: AVG IPC :0.58674: L2-Pf-HR :0.80826: L2-HR :0.77503: (Sim:0h32m44s) 
CPU  0 inst:  332000000 cyc:  562347003 now IPC :1.55148: AVG IPC :0.58785: L2-Pf-HR :0.80891: L2-HR :0.77593: (Sim:0h32m49s) 
CPU  0 inst:  333000002 cyc:  562988903 now IPC :1.55788: AVG IPC :0.58896: L2-Pf-HR :0.80959: L2-HR :0.77685: (Sim:0h32m54s) 
CPU  0 inst:  334000002 cyc:  563644670 now IPC :1.52493: AVG IPC :0.59005: L2-Pf-HR :0.80997: L2-HR :0.77755: (Sim:0h32m59s) 
CPU  0 inst:  335000000 cyc:  564260202 now IPC :1.62461: AVG IPC :0.59118: L2-Pf-HR :0.81055: L2-HR :0.77841: (Sim:0h33m4s) 
CPU  0 inst:  336000000 cyc:  564889925 now IPC :1.58800: AVG IPC :0.59229: L2-Pf-HR :0.81110: L2-HR :0.77923: (Sim:0h33m9s) 
CPU  0 inst:  337000001 cyc:  565499165 now IPC :1.64139: AVG IPC :0.59342: L2-Pf-HR :0.81164: L2-HR :0.78004: (Sim:0h33m14s) 
CPU  0 inst:  338000003 cyc:  566105466 now IPC :1.64935: AVG IPC :0.59456: L2-Pf-HR :0.81201: L2-HR :0.78073: (Sim:0h33m19s) 
CPU  0 inst:  339000001 cyc:  566720680 now IPC :1.62545: AVG IPC :0.59568: L2-Pf-HR :0.81251: L2-HR :0.78151: (Sim:0h33m24s) 
CPU  0 inst:  340000000 cyc:  567332741 now IPC :1.63382: AVG IPC :0.59680: L2-Pf-HR :0.81297: L2-HR :0.78226: (Sim:0h33m29s) 
CPU  0 inst:  341000000 cyc:  567935099 now IPC :1.66014: AVG IPC :0.59793: L2-Pf-HR :0.81351: L2-HR :0.78307: (Sim:0h33m34s) 
CPU  0 inst:  342000003 cyc:  568529972 now IPC :1.68104: AVG IPC :0.59906: L2-Pf-HR :0.81407: L2-HR :0.78388: (Sim:0h33m37s) 
CPU  0 inst:  343000003 cyc:  569156481 now IPC :1.59615: AVG IPC :0.60016: L2-Pf-HR :0.81427: L2-HR :0.78440: (Sim:0h33m41s) 
CPU  0 inst:  344000000 cyc:  569779779 now IPC :1.60436: AVG IPC :0.60126: L2-Pf-HR :0.81463: L2-HR :0.78502: (Sim:0h33m44s) 
CPU  0 inst:  345000003 cyc:  570409926 now IPC :1.58694: AVG IPC :0.60236: L2-Pf-HR :0.81501: L2-HR :0.78566: (Sim:0h33m47s) 
CPU  0 inst:  346000001 cyc:  571036179 now IPC :1.59680: AVG IPC :0.60345: L2-Pf-HR :0.81544: L2-HR :0.78633: (Sim:0h33m51s) 
CPU  0 inst:  347000000 cyc:  571694592 now IPC :1.51880: AVG IPC :0.60450: L2-Pf-HR :0.81562: L2-HR :0.78682: (Sim:0h33m54s) 
CPU  0 inst:  348000000 cyc:  572340836 now IPC :1.54740: AVG IPC :0.60557: L2-Pf-HR :0.81610: L2-HR :0.78752: (Sim:0h33m57s) 
CPU  0 inst:  349000001 cyc:  572986508 now IPC :1.54878: AVG IPC :0.60664: L2-Pf-HR :0.81657: L2-HR :0.78821: (Sim:0h34m1s) 
CPU  0 inst:  350000003 cyc:  573628767 now IPC :1.55701: AVG IPC :0.60770: L2-Pf-HR :0.81708: L2-HR :0.78893: (Sim:0h34m4s) 
CPU  0 inst:  351000002 cyc:  574276941 now IPC :1.54279: AVG IPC :0.60876: L2-Pf-HR :0.81734: L2-HR :0.78947: (Sim:0h34m7s) 
CPU  0 inst:  352000000 cyc:  574894791 now IPC :1.61851: AVG IPC :0.60985: L2-Pf-HR :0.81777: L2-HR :0.79014: (Sim:0h34m11s) 
CPU  0 inst:  353000001 cyc:  575516895 now IPC :1.60745: AVG IPC :0.61093: L2-Pf-HR :0.81817: L2-HR :0.79079: (Sim:0h34m14s) 
CPU  0 inst:  354000002 cyc:  576120703 now IPC :1.65616: AVG IPC :0.61202: L2-Pf-HR :0.81862: L2-HR :0.79146: (Sim:0h34m17s) 
CPU  0 inst:  355000002 cyc:  576745319 now IPC :1.60098: AVG IPC :0.61310: L2-Pf-HR :0.81884: L2-HR :0.79196: (Sim:0h34m21s) 
CPU  0 inst:  356000000 cyc:  577349387 now IPC :1.65544: AVG IPC :0.61419: L2-Pf-HR :0.81920: L2-HR :0.79257: (Sim:0h34m25s) 
CPU  0 inst:  357000002 cyc:  577962169 now IPC :1.63190: AVG IPC :0.61527: L2-Pf-HR :0.81962: L2-HR :0.79323: (Sim:0h34m29s) 
CPU  0 inst:  358000002 cyc:  578554535 now IPC :1.68815: AVG IPC :0.61637: L2-Pf-HR :0.82009: L2-HR :0.79391: (Sim:0h34m32s) 
CPU  0 inst:  359000001 cyc:  579167239 now IPC :1.63211: AVG IPC :0.61745: L2-Pf-HR :0.82027: L2-HR :0.79438: (Sim:0h34m36s) 
CPU  0 inst:  360000000 cyc:  579785284 now IPC :1.61800: AVG IPC :0.61851: L2-Pf-HR :0.82053: L2-HR :0.79487: (Sim:0h34m40s) 
CPU  0 inst:  361000001 cyc:  580406242 now IPC :1.61042: AVG IPC :0.61958: L2-Pf-HR :0.82085: L2-HR :0.79541: (Sim:0h34m44s) 
CPU  0 inst:  362000003 cyc:  581033694 now IPC :1.59375: AVG IPC :0.62063: L2-Pf-HR :0.82115: L2-HR :0.79593: (Sim:0h34m47s) 
CPU  0 inst:  363000002 cyc:  581665928 now IPC :1.58169: AVG IPC :0.62168: L2-Pf-HR :0.82138: L2-HR :0.79639: (Sim:0h34m51s) 
CPU  0 inst:  364000000 cyc:  582325395 now IPC :1.51637: AVG IPC :0.62269: L2-Pf-HR :0.82164: L2-HR :0.79688: (Sim:0h34m55s) 
CPU  0 inst:  365000000 cyc:  582972463 now IPC :1.54543: AVG IPC :0.62372: L2-Pf-HR :0.82211: L2-HR :0.79753: (Sim:0h34m59s) 
CPU  0 inst:  366000003 cyc:  583614471 now IPC :1.55762: AVG IPC :0.62475: L2-Pf-HR :0.82260: L2-HR :0.79818: (Sim:0h35m3s) 
CPU  0 inst:  367000001 cyc:  584259591 now IPC :1.55010: AVG IPC :0.62577: L2-Pf-HR :0.82305: L2-HR :0.79881: (Sim:0h35m7s) 
CPU  0 inst:  368000000 cyc:  584897678 now IPC :1.56718: AVG IPC :0.62680: L2-Pf-HR :0.82317: L2-HR :0.79920: (Sim:0h35m10s) 
CPU  0 inst:  369000003 cyc:  585523547 now IPC :1.59778: AVG IPC :0.62784: L2-Pf-HR :0.82355: L2-HR :0.79977: (Sim:0h35m14s) 
CPU  0 inst:  370000001 cyc:  586140220 now IPC :1.62160: AVG IPC :0.62889: L2-Pf-HR :0.82395: L2-HR :0.80036: (Sim:0h35m18s) 
CPU  0 inst:  371000000 cyc:  586747175 now IPC :1.64757: AVG IPC :0.62994: L2-Pf-HR :0.82431: L2-HR :0.80092: (Sim:0h35m23s) 
CPU  0 inst:  372000000 cyc:  587368084 now IPC :1.61054: AVG IPC :0.63098: L2-Pf-HR :0.82449: L2-HR :0.80134: (Sim:0h35m27s) 
CPU  0 inst:  373000002 cyc:  587972468 now IPC :1.65458: AVG IPC :0.63203: L2-Pf-HR :0.82486: L2-HR :0.80191: (Sim:0h35m30s) 
CPU  0 inst:  374000001 cyc:  588580149 now IPC :1.64560: AVG IPC :0.63308: L2-Pf-HR :0.82525: L2-HR :0.80249: (Sim:0h35m35s) 
CPU  0 inst:  375000003 cyc:  589176451 now IPC :1.67701: AVG IPC :0.63414: L2-Pf-HR :0.82562: L2-HR :0.80304: (Sim:0h35m40s) 
CPU  0 inst:  376000000 cyc:  589792531 now IPC :1.62316: AVG IPC :0.63518: L2-Pf-HR :0.82579: L2-HR :0.80344: (Sim:0h35m45s) 
CPU  0 inst:  377000002 cyc:  590411975 now IPC :1.61435: AVG IPC :0.63620: L2-Pf-HR :0.82602: L2-HR :0.80387: (Sim:0h35m50s) 
CPU  0 inst:  378000000 cyc:  591037813 now IPC :1.59785: AVG IPC :0.63722: L2-Pf-HR :0.82631: L2-HR :0.80434: (Sim:0h35m55s) 
CPU  0 inst:  379000000 cyc:  591666858 now IPC :1.58971: AVG IPC :0.63824: L2-Pf-HR :0.82657: L2-HR :0.80479: (Sim:0h36m0s) 
CPU  0 inst:  380000000 cyc:  592316491 now IPC :1.53933: AVG IPC :0.63923: L2-Pf-HR :0.82672: L2-HR :0.80514: (Sim:0h36m5s) 
CPU  0 inst:  381000001 cyc:  592960138 now IPC :1.55365: AVG IPC :0.64022: L2-Pf-HR :0.82711: L2-HR :0.80569: (Sim:0h36m10s) 
CPU  0 inst:  382000003 cyc:  593609428 now IPC :1.54015: AVG IPC :0.64121: L2-Pf-HR :0.82745: L2-HR :0.80619: (Sim:0h36m15s) 
CPU  0 inst:  383000000 cyc:  594252441 now IPC :1.55517: AVG IPC :0.64220: L2-Pf-HR :0.82783: L2-HR :0.80672: (Sim:0h36m19s) 
CPU  0 inst:  384000000 cyc:  594904812 now IPC :1.53287: AVG IPC :0.64318: L2-Pf-HR :0.82805: L2-HR :0.80713: (Sim:0h36m24s) 
CPU  0 inst:  385000001 cyc:  595519908 now IPC :1.62576: AVG IPC :0.64419: L2-Pf-HR :0.82837: L2-HR :0.80761: (Sim:0h36m29s) 
CPU  0 inst:  386000000 cyc:  596154404 now IPC :1.57605: AVG IPC :0.64519: L2-Pf-HR :0.82868: L2-HR :0.80809: (Sim:0h36m34s) 
CPU  0 inst:  387000003 cyc:  596762258 now IPC :1.64514: AVG IPC :0.64621: L2-Pf-HR :0.82899: L2-HR :0.80857: (Sim:0h36m39s) 
CPU  0 inst:  388000000 cyc:  597367961 now IPC :1.65097: AVG IPC :0.64723: L2-Pf-HR :0.82929: L2-HR :0.80904: (Sim:0h36m44s) 
CPU  0 inst:  389000003 cyc:  597986223 now IPC :1.61744: AVG IPC :0.64823: L2-Pf-HR :0.82951: L2-HR :0.80945: (Sim:0h36m49s) 
CPU  0 inst:  390000000 cyc:  598596417 now IPC :1.63882: AVG IPC :0.64924: L2-Pf-HR :0.82982: L2-HR :0.80993: (Sim:0h36m54s) 
CPU  0 inst:  391000001 cyc:  599196995 now IPC :1.66506: AVG IPC :0.65026: L2-Pf-HR :0.83012: L2-HR :0.81040: (Sim:0h36m59s) 
CPU  0 inst:  392000000 cyc:  599790999 now IPC :1.68349: AVG IPC :0.65129: L2-Pf-HR :0.83046: L2-HR :0.81089: (Sim:0h37m4s) 
CPU  0 inst:  393000000 cyc:  600419879 now IPC :1.59013: AVG IPC :0.65227: L2-Pf-HR :0.83054: L2-HR :0.81119: (Sim:0h37m9s) 
CPU  0 inst:  394000002 cyc:  601039678 now IPC :1.61343: AVG IPC :0.65327: L2-Pf-HR :0.83077: L2-HR :0.81157: (Sim:0h37m14s) 
CPU  0 inst:  395000000 cyc:  601666963 now IPC :1.59417: AVG IPC :0.65425: L2-Pf-HR :0.83098: L2-HR :0.81195: (Sim:0h37m19s) 
CPU  0 inst:  396000000 cyc:  602292366 now IPC :1.59897: AVG IPC :0.65523: L2-Pf-HR :0.83120: L2-HR :0.81233: (Sim:0h37m23s) 
CPU  0 inst:  397000002 cyc:  602953828 now IPC :1.51181: AVG IPC :0.65617: L2-Pf-HR :0.83130: L2-HR :0.81261: (Sim:0h37m27s) 
CPU  0 inst:  398000003 cyc:  603591368 now IPC :1.56853: AVG IPC :0.65714: L2-Pf-HR :0.83165: L2-HR :0.81309: (Sim:0h37m30s) 
CPU  0 inst:  399000002 cyc:  604240152 now IPC :1.54134: AVG IPC :0.65809: L2-Pf-HR :0.83199: L2-HR :0.81357: (Sim:0h37m34s) 
CPU  0 inst:  400000000 cyc:  604883510 now IPC :1.55434: AVG IPC :0.65904: L2-Pf-HR :0.83231: L2-HR :0.81402: (Sim:0h37m37s) 
CPU  0 inst:  401000001 cyc:  605534722 now IPC :1.53560: AVG IPC :0.65999: L2-Pf-HR :0.83242: L2-HR :0.81431: (Sim:0h37m41s) 
CPU  0 inst:  402000003 cyc:  606146486 now IPC :1.63462: AVG IPC :0.66097: L2-Pf-HR :0.83271: L2-HR :0.81474: (Sim:0h37m44s) 
CPU  0 inst:  403000003 cyc:  606779282 now IPC :1.58029: AVG IPC :0.66193: L2-Pf-HR :0.83298: L2-HR :0.81517: (Sim:0h37m47s) 
CPU  0 inst:  404000000 cyc:  607382715 now IPC :1.65718: AVG IPC :0.66292: L2-Pf-HR :0.83324: L2-HR :0.81558: (Sim:0h37m50s) 
CPU  0 inst:  405000000 cyc:  608005519 now IPC :1.60564: AVG IPC :0.66389: L2-Pf-HR :0.83332: L2-HR :0.81585: (Sim:0h37m54s) 
CPU  0 inst:  406000000 cyc:  608603673 now IPC :1.67181: AVG IPC :0.66488: L2-Pf-HR :0.83362: L2-HR :0.81629: (Sim:0h37m57s) 
CPU  0 inst:  407000003 cyc:  609215745 now IPC :1.63380: AVG IPC :0.66586: L2-Pf-HR :0.83393: L2-HR :0.81673: (Sim:0h38m1s) 
CPU  0 inst:  408000000 cyc:  609814750 now IPC :1.66943: AVG IPC :0.66685: L2-Pf-HR :0.83418: L2-HR :0.81713: (Sim:0h38m4s) 
CPU  0 inst:  409000003 cyc:  610411526 now IPC :1.67568: AVG IPC :0.66783: L2-Pf-HR :0.83431: L2-HR :0.81745: (Sim:0h38m8s) 
CPU  0 inst:  410000002 cyc:  611041762 now IPC :1.58671: AVG IPC :0.66878: L2-Pf-HR :0.83447: L2-HR :0.81776: (Sim:0h38m13s) 
CPU  0 inst:  411000001 cyc:  611662803 now IPC :1.61020: AVG IPC :0.66974: L2-Pf-HR :0.83468: L2-HR :0.81810: (Sim:0h38m16s) 
CPU  0 inst:  412000000 cyc:  612290956 now IPC :1.59197: AVG IPC :0.67069: L2-Pf-HR :0.83487: L2-HR :0.81843: (Sim:0h38m19s) 
CPU  0 inst:  413000003 cyc:  612922217 now IPC :1.58414: AVG IPC :0.67163: L2-Pf-HR :0.83501: L2-HR :0.81872: (Sim:0h38m23s) 
CPU  0 inst:  414000002 cyc:  613576881 now IPC :1.52750: AVG IPC :0.67255: L2-Pf-HR :0.83513: L2-HR :0.81900: (Sim:0h38m26s) 
CPU  0 inst:  415000001 cyc:  614227082 now IPC :1.53798: AVG IPC :0.67346: L2-Pf-HR :0.83542: L2-HR :0.81940: (Sim:0h38m30s) 
CPU  0 inst:  416000000 cyc:  614872676 now IPC :1.54896: AVG IPC :0.67438: L2-Pf-HR :0.83570: L2-HR :0.81979: (Sim:0h38m33s) 
CPU  0 inst:  417000003 cyc:  615513610 now IPC :1.56023: AVG IPC :0.67531: L2-Pf-HR :0.83600: L2-HR :0.82021: (Sim:0h38m36s) 
CPU  0 inst:  418000003 cyc:  616155239 now IPC :1.55853: AVG IPC :0.67623: L2-Pf-HR :0.83611: L2-HR :0.82047: (Sim:0h38m40s) 
CPU  0 inst:  419000002 cyc:  616781005 now IPC :1.59804: AVG IPC :0.67717: L2-Pf-HR :0.83634: L2-HR :0.82083: (Sim:0h38m43s) 
CPU  0 inst:  420000000 cyc:  617396682 now IPC :1.62423: AVG IPC :0.67811: L2-Pf-HR :0.83656: L2-HR :0.82119: (Sim:0h38m46s) 
CPU  0 inst:  421000000 cyc:  618001421 now IPC :1.65361: AVG IPC :0.67907: L2-Pf-HR :0.83680: L2-HR :0.82156: (Sim:0h38m50s) 
CPU  0 inst:  422000002 cyc:  618626344 now IPC :1.60020: AVG IPC :0.68000: L2-Pf-HR :0.83686: L2-HR :0.82179: (Sim:0h38m53s) 
CPU  0 inst:  423000002 cyc:  619232101 now IPC :1.65083: AVG IPC :0.68095: L2-Pf-HR :0.83714: L2-HR :0.82218: (Sim:0h38m56s) 
CPU  0 inst:  424000000 cyc:  619838686 now IPC :1.64857: AVG IPC :0.68190: L2-Pf-HR :0.83740: L2-HR :0.82256: (Sim:0h38m59s) 
CPU  0 inst:  425000003 cyc:  620431783 now IPC :1.68607: AVG IPC :0.68286: L2-Pf-HR :0.83765: L2-HR :0.82293: (Sim:0h39m3s) 
CPU  0 inst:  426000001 cyc:  621055097 now IPC :1.60432: AVG IPC :0.68379: L2-Pf-HR :0.83769: L2-HR :0.82315: (Sim:0h39m6s) 
CPU  0 inst:  427000000 cyc:  621668301 now IPC :1.63078: AVG IPC :0.68472: L2-Pf-HR :0.83787: L2-HR :0.82345: (Sim:0h39m9s) 
CPU  0 inst:  428000000 cyc:  622290353 now IPC :1.60758: AVG IPC :0.68565: L2-Pf-HR :0.83805: L2-HR :0.82375: (Sim:0h39m12s) 
CPU  0 inst:  429000001 cyc:  622917980 now IPC :1.59330: AVG IPC :0.68656: L2-Pf-HR :0.83821: L2-HR :0.82403: (Sim:0h39m15s) 
CPU  0 inst:  430000003 cyc:  623570068 now IPC :1.53354: AVG IPC :0.68745: L2-Pf-HR :0.83824: L2-HR :0.82421: (Sim:0h39m19s) 
CPU  0 inst:  431000001 cyc:  624212042 now IPC :1.55769: AVG IPC :0.68835: L2-Pf-HR :0.83849: L2-HR :0.82457: (Sim:0h39m22s) 
CPU  0 inst:  432000000 cyc:  624858524 now IPC :1.54683: AVG IPC :0.68924: L2-Pf-HR :0.83875: L2-HR :0.82492: (Sim:0h39m25s) 
CPU  0 inst:  433000002 cyc:  625502022 now IPC :1.55401: AVG IPC :0.69013: L2-Pf-HR :0.83898: L2-HR :0.82526: (Sim:0h39m29s) 
CPU  0 inst:  434000002 cyc:  626152369 now IPC :1.53764: AVG IPC :0.69101: L2-Pf-HR :0.83913: L2-HR :0.82554: (Sim:0h39m33s) 
CPU  0 inst:  435000000 cyc:  626776714 now IPC :1.60168: AVG IPC :0.69192: L2-Pf-HR :0.83928: L2-HR :0.82581: (Sim:0h39m38s) 
CPU  0 inst:  436000000 cyc:  627408824 now IPC :1.58200: AVG IPC :0.69281: L2-Pf-HR :0.83948: L2-HR :0.82613: (Sim:0h39m43s) 
CPU  0 inst:  437000001 cyc:  628018574 now IPC :1.64002: AVG IPC :0.69374: L2-Pf-HR :0.83966: L2-HR :0.82643: (Sim:0h39m48s) 
CPU  0 inst:  438000000 cyc:  628622497 now IPC :1.65584: AVG IPC :0.69466: L2-Pf-HR :0.83983: L2-HR :0.82672: (Sim:0h39m53s) 
CPU  0 inst:  439000003 cyc:  629243784 now IPC :1.60957: AVG IPC :0.69557: L2-Pf-HR :0.83984: L2-HR :0.82690: (Sim:0h39m58s) 
CPU  0 inst:  440000000 cyc:  629847253 now IPC :1.65708: AVG IPC :0.69649: L2-Pf-HR :0.83999: L2-HR :0.82718: (Sim:0h40m3s) 
CPU  0 inst:  441000003 cyc:  630449381 now IPC :1.66078: AVG IPC :0.69741: L2-Pf-HR :0.84014: L2-HR :0.82745: (Sim:0h40m9s) 
CPU  0 inst:  442000000 cyc:  631047341 now IPC :1.67235: AVG IPC :0.69834: L2-Pf-HR :0.84029: L2-HR :0.82773: (Sim:0h40m14s) 
CPU  0 inst:  443000002 cyc:  631673888 now IPC :1.59605: AVG IPC :0.69923: L2-Pf-HR :0.84028: L2-HR :0.82788: (Sim:0h40m19s) 
CPU  0 inst:  444000000 cyc:  632288352 now IPC :1.62743: AVG IPC :0.70013: L2-Pf-HR :0.84043: L2-HR :0.82813: (Sim:0h40m22s) 
CPU  0 inst:  445000001 cyc:  632918060 now IPC :1.58804: AVG IPC :0.70102: L2-Pf-HR :0.84055: L2-HR :0.82837: (Sim:0h40m25s) 
CPU  0 inst:  446000000 cyc:  633547552 now IPC :1.58858: AVG IPC :0.70190: L2-Pf-HR :0.84067: L2-HR :0.82861: (Sim:0h40m29s) 
CPU  0 inst:  447000001 cyc:  634197630 now IPC :1.53828: AVG IPC :0.70276: L2-Pf-HR :0.84068: L2-HR :0.82875: (Sim:0h40m33s) 
CPU  0 inst:  448000000 cyc:  634841932 now IPC :1.55207: AVG IPC :0.70362: L2-Pf-HR :0.84088: L2-HR :0.82905: (Sim:0h40m38s) 
CPU  0 inst:  449000001 cyc:  635500720 now IPC :1.51794: AVG IPC :0.70447: L2-Pf-HR :0.84104: L2-HR :0.82931: (Sim:0h40m43s) 
CPU  0 inst:  450000000 cyc:  636144161 now IPC :1.55414: AVG IPC :0.70533: L2-Pf-HR :0.84124: L2-HR :0.82960: (Sim:0h40m48s) 
CPU  0 inst:  451000000 cyc:  636794372 now IPC :1.53796: AVG IPC :0.70618: L2-Pf-HR :0.84131: L2-HR :0.82980: (Sim:0h40m53s) 
CPU  0 inst:  452000000 cyc:  637410351 now IPC :1.62343: AVG IPC :0.70707: L2-Pf-HR :0.84150: L2-HR :0.83009: (Sim:0h40m58s) 
CPU  0 inst:  453000001 cyc:  638047506 now IPC :1.56948: AVG IPC :0.70793: L2-Pf-HR :0.84167: L2-HR :0.83036: (Sim:0h41m3s) 
CPU  0 inst:  454000000 cyc:  638650070 now IPC :1.65957: AVG IPC :0.70883: L2-Pf-HR :0.84184: L2-HR :0.83064: (Sim:0h41m8s) 
CPU  0 inst:  455000002 cyc:  639267334 now IPC :1.62006: AVG IPC :0.70971: L2-Pf-HR :0.84191: L2-HR :0.83083: (Sim:0h41m13s) 
CPU  0 inst:  456000000 cyc:  639872909 now IPC :1.65132: AVG IPC :0.71060: L2-Pf-HR :0.84209: L2-HR :0.83112: (Sim:0h41m18s) 
CPU  0 inst:  457000001 cyc:  640485021 now IPC :1.63369: AVG IPC :0.71149: L2-Pf-HR :0.84229: L2-HR :0.83141: (Sim:0h41m23s) 
CPU  0 inst:  458000001 cyc:  641082273 now IPC :1.67434: AVG IPC :0.71238: L2-Pf-HR :0.84246: L2-HR :0.83169: (Sim:0h41m26s) 
CPU  0 inst:  459000002 cyc:  641680403 now IPC :1.67188: AVG IPC :0.71328: L2-Pf-HR :0.84262: L2-HR :0.83195: (Sim:0h41m30s) 
CPU  0 inst:  460000000 cyc:  642307513 now IPC :1.59461: AVG IPC :0.71414: L2-Pf-HR :0.84266: L2-HR :0.83212: (Sim:0h41m33s) 
CPU  0 inst:  461000002 cyc:  642924386 now IPC :1.62108: AVG IPC :0.71501: L2-Pf-HR :0.84281: L2-HR :0.83237: (Sim:0h41m36s) 
CPU  0 inst:  462000003 cyc:  643551883 now IPC :1.59363: AVG IPC :0.71587: L2-Pf-HR :0.84292: L2-HR :0.83258: (Sim:0h41m40s) 
CPU  0 inst:  463000000 cyc:  644175534 now IPC :1.60346: AVG IPC :0.71673: L2-Pf-HR :0.84307: L2-HR :0.83282: (Sim:0h41m43s) 
CPU  0 inst:  464000000 cyc:  644837173 now IPC :1.51140: AVG IPC :0.71755: L2-Pf-HR :0.84312: L2-HR :0.83298: (Sim:0h41m46s) 
CPU  0 inst:  465000001 cyc:  645477773 now IPC :1.56104: AVG IPC :0.71839: L2-Pf-HR :0.84334: L2-HR :0.83328: (Sim:0h41m50s) 
CPU  0 inst:  466000002 cyc:  646123926 now IPC :1.54762: AVG IPC :0.71922: L2-Pf-HR :0.84355: L2-HR :0.83357: (Sim:0h41m53s) 
CPU  0 inst:  467000003 cyc:  646764114 now IPC :1.56204: AVG IPC :0.72005: L2-Pf-HR :0.84377: L2-HR :0.83386: (Sim:0h41m57s) 
CPU  0 inst:  468000000 cyc:  647416405 now IPC :1.53305: AVG IPC :0.72087: L2-Pf-HR :0.84381: L2-HR :0.83402: (Sim:0h42m0s) 
CPU  0 inst:  469000000 cyc:  648034388 now IPC :1.61817: AVG IPC :0.72173: L2-Pf-HR :0.84398: L2-HR :0.83428: (Sim:0h42m3s) 
CPU  0 inst:  470000001 cyc:  648659903 now IPC :1.59868: AVG IPC :0.72258: L2-Pf-HR :0.84415: L2-HR :0.83454: (Sim:0h42m7s) 
CPU  0 inst:  471000001 cyc:  649261973 now IPC :1.66094: AVG IPC :0.72345: L2-Pf-HR :0.84432: L2-HR :0.83479: (Sim:0h42m10s) 
CPU  0 inst:  472000000 cyc:  649887741 now IPC :1.59803: AVG IPC :0.72429: L2-Pf-HR :0.84436: L2-HR :0.83495: (Sim:0h42m14s) 
CPU  0 inst:  473000002 cyc:  650487979 now IPC :1.66601: AVG IPC :0.72516: L2-Pf-HR :0.84455: L2-HR :0.83523: (Sim:0h42m17s) 
CPU  0 inst:  474000000 cyc:  651097892 now IPC :1.63957: AVG IPC :0.72602: L2-Pf-HR :0.84475: L2-HR :0.83550: (Sim:0h42m21s) 
CPU  0 inst:  475000000 cyc:  651692692 now IPC :1.68124: AVG IPC :0.72689: L2-Pf-HR :0.84491: L2-HR :0.83576: (Sim:0h42m26s) 
CPU  0 inst:  476000000 cyc:  652311024 now IPC :1.61725: AVG IPC :0.72774: L2-Pf-HR :0.84493: L2-HR :0.83590: (Sim:0h42m31s) 
CPU  0 inst:  477000002 cyc:  652925815 now IPC :1.62657: AVG IPC :0.72859: L2-Pf-HR :0.84507: L2-HR :0.83612: (Sim:0h42m36s) 
CPU  0 inst:  478000003 cyc:  653544780 now IPC :1.61560: AVG IPC :0.72943: L2-Pf-HR :0.84520: L2-HR :0.83634: (Sim:0h42m41s) 
CPU  0 inst:  479000001 cyc:  654173076 now IPC :1.59160: AVG IPC :0.73026: L2-Pf-HR :0.84530: L2-HR :0.83653: (Sim:0h42m46s) 
CPU  0 inst:  480000000 cyc:  654806005 now IPC :1.57995: AVG IPC :0.73108: L2-Pf-HR :0.84532: L2-HR :0.83665: (Sim:0h42m51s) 
CPU  0 inst:  481000001 cyc:  655466813 now IPC :1.51330: AVG IPC :0.73187: L2-Pf-HR :0.84540: L2-HR :0.83682: (Sim:0h42m56s) 
CPU  0 inst:  482000000 cyc:  656120443 now IPC :1.52992: AVG IPC :0.73267: L2-Pf-HR :0.84553: L2-HR :0.83704: (Sim:0h43m1s) 
CPU  0 inst:  483000001 cyc:  656769673 now IPC :1.54029: AVG IPC :0.73347: L2-Pf-HR :0.84566: L2-HR :0.83725: (Sim:0h43m6s) 
CPU  0 inst:  484000000 cyc:  657419635 now IPC :1.53855: AVG IPC :0.73426: L2-Pf-HR :0.84579: L2-HR :0.83746: (Sim:0h43m11s) 
CPU  0 inst:  485000000 cyc:  658047135 now IPC :1.59363: AVG IPC :0.73508: L2-Pf-HR :0.84582: L2-HR :0.83759: (Sim:0h43m15s) 
CPU  0 inst:  486000001 cyc:  658682989 now IPC :1.57269: AVG IPC :0.73589: L2-Pf-HR :0.84595: L2-HR :0.83781: (Sim:0h43m20s) 
CPU  0 inst:  487000002 cyc:  659295236 now IPC :1.63333: AVG IPC :0.73673: L2-Pf-HR :0.84608: L2-HR :0.83803: (Sim:0h43m25s) 
CPU  0 inst:  488000000 cyc:  659898045 now IPC :1.65890: AVG IPC :0.73757: L2-Pf-HR :0.84623: L2-HR :0.83826: (Sim:0h43m30s) 
CPU  0 inst:  489000003 cyc:  660519253 now IPC :1.60977: AVG IPC :0.73839: L2-Pf-HR :0.84622: L2-HR :0.83836: (Sim:0h43m35s) 
CPU  0 inst:  490000001 cyc:  661130857 now IPC :1.63504: AVG IPC :0.73922: L2-Pf-HR :0.84637: L2-HR :0.83860: (Sim:0h43m40s) 
CPU  0 inst:  491000003 cyc:  661732481 now IPC :1.66217: AVG IPC :0.74006: L2-Pf-HR :0.84654: L2-HR :0.83885: (Sim:0h43m45s) 
CPU  0 inst:  492000000 cyc:  662324500 now IPC :1.68913: AVG IPC :0.74091: L2-Pf-HR :0.84670: L2-HR :0.83908: (Sim:0h43m50s) 
CPU  0 inst:  493000002 cyc:  662948156 now IPC :1.60345: AVG IPC :0.74173: L2-Pf-HR :0.84666: L2-HR :0.83916: (Sim:0h43m55s) 
Finished CPU 0 instr: 491000000 cyc: 661969400 AVG IPC: 0.74173 (Sim time: 0h43m55s)

ChampSim completed all CPUs

[ROI Statistics]
Core_0_instructions 491000000
Core_0_cycles 661969400
Core_0_IPC 0.74173

Core_0_branch_prediction_accuracy 99.58586
Core_0_branch_MPKI 0.12051
Core_0_average_ROB_occupancy_at_mispredict 239.84472

Core_0_L1D_total_access 251385550
Core_0_L1D_total_hit 230400637 L1D_total_Hit Ratio: 0.91652
Core_0_L1D_total_miss 20984913
Core_0_L1D_loads 135070938
Core_0_L1D_load_hit 126294112 L1D_load_Hit Ratio: 0.93502
Core_0_L1D_load_miss 8776826
Core_0_L1D_RFOs 12900269
Core_0_L1D_RFO_hit 12142734 L1D_RFO_Hit Ratio: 0.94128
Core_0_L1D_RFO_miss 757535
Core_0_L1D_prefetches 103414343
Core_0_L1D_prefetch_hit 91963791 L1D_prefetch_Hit Ratio: 0.88928
Core_0_L1D_prefetch_miss 11450552
Core_0_L1D_writebacks 0
Core_0_L1D_writeback_hit 0 L1D_writeback_Hit Ratio: -nan
Core_0_L1D_writeback_miss 0
Core_0_L1D_prefetch_requested 243848512
Core_0_L1D_prefetch_issued 135325042
Core_0_L1D_prefetch_useful 10203332 L1D_Useful Ratio: 0.07540
Core_0_L1D_prefetch_useless 1275714
Core_0_L1D_prefetch_late 855960
Core_0_L1D_average_miss_latency 7790811.50145

Core_0_L1I_total_access 126684682
Core_0_L1I_total_hit 126679689 L1I_total_Hit Ratio: 0.99996
Core_0_L1I_total_miss 4993
Core_0_L1I_loads 126684682
Core_0_L1I_load_hit 126679689 L1I_load_Hit Ratio: 0.99996
Core_0_L1I_load_miss 4993
Core_0_L1I_RFOs 0
Core_0_L1I_RFO_hit 0 L1I_RFO_Hit Ratio: -nan
Core_0_L1I_RFO_miss 0
Core_0_L1I_prefetches 0
Core_0_L1I_prefetch_hit 0 L1I_prefetch_Hit Ratio: -nan
Core_0_L1I_prefetch_miss 0
Core_0_L1I_writebacks 0
Core_0_L1I_writeback_hit 0 L1I_writeback_Hit Ratio: -nan
Core_0_L1I_writeback_miss 0
Core_0_L1I_prefetch_requested 0
Core_0_L1I_prefetch_issued 0
Core_0_L1I_prefetch_useful 0 L1I_Useful Ratio: -nan
Core_0_L1I_prefetch_useless 0
Core_0_L1I_prefetch_late 0
Core_0_L1I_average_miss_latency 322.08312

Core_0_L2C_total_access 40213157
Core_0_L2C_total_hit 33745238 L2C_total_Hit Ratio: 0.83916
Core_0_L2C_total_miss 6467919
Core_0_L2C_loads 7925980
Core_0_L2C_load_hit 6516606 L2C_load_Hit Ratio: 0.82218
Core_0_L2C_load_miss 1409374
Core_0_L2C_RFOs 757527
Core_0_L2C_RFO_hit 92231 L2C_RFO_Hit Ratio: 0.12175
Core_0_L2C_RFO_miss 665296
Core_0_L2C_prefetches 28615812
Core_0_L2C_prefetch_hit 24227858 L2C_prefetch_Hit Ratio: 0.84666
Core_0_L2C_prefetch_miss 4387954
Core_0_L2C_writebacks 2913838
Core_0_L2C_writeback_hit 2908543 L2C_writeback_Hit Ratio: 0.99818
Core_0_L2C_writeback_miss 5295
Core_0_L2C_prefetch_requested 31867702
Core_0_L2C_prefetch_issued 31842446
Core_0_L2C_prefetch_useful 637180 L2C_Useful Ratio: 0.02001
Core_0_L2C_prefetch_useless 3758071
Core_0_L2C_prefetch_late 21241
Core_0_L2C_average_miss_latency 241.92385

Core_0_LLC_total_access 9362599
Core_0_LLC_total_hit 4727882 LLC_total_Hit Ratio: 0.50498
Core_0_LLC_total_miss 4634717
Core_0_LLC_loads 1388251
Core_0_LLC_load_hit 426536 LLC_load_Hit Ratio: 0.30725
Core_0_LLC_load_miss 961715
Core_0_LLC_RFOs 665293
Core_0_LLC_RFO_hit 172 LLC_RFO_Hit Ratio: 0.00026
Core_0_LLC_RFO_miss 665121
Core_0_LLC_prefetches 4409078
Core_0_LLC_prefetch_hit 1401324 LLC_prefetch_Hit Ratio: 0.31783
Core_0_LLC_prefetch_miss 3007754
Core_0_LLC_writebacks 2899977
Core_0_LLC_writeback_hit 2899850 LLC_writeback_Hit Ratio: 0.99996
Core_0_LLC_writeback_miss 127
Core_0_LLC_prefetch_requested 0
Core_0_LLC_prefetch_issued 0
Core_0_LLC_prefetch_useful 68062 LLC_Useful Ratio: inf
Core_0_LLC_prefetch_useless 2918814
Core_0_LLC_prefetch_late 0
Core_0_LLC_average_miss_latency 295.49751

Core_0_major_page_fault 0
Core_0_minor_page_fault 28665


Channel_0_RQ_row_buffer_hit 2426230
Channel_0_RQ_row_buffer_miss 2208264
Channel_0_WQ_row_buffer_hit 642638
Channel_0_WQ_row_buffer_miss 1863541
Channel_0_WQ_full 0
Channel_0_dbus_congested 3728879

avg_congested_cycle 11

EzSearch AVG IPC :0.74173: L2-Pf-HR :0.84666 : L2-HR :0.83916 Uful:0.02001
     > Finished combination: TraceType=770-tot Sim:491000000 Prefetcher=L2ipcp L1=ipcp
