TRACE: [125000000][OPT-125M]_[h12][s512][d64] Warmup: 2000000 NumTraces: 125000000
L1:bingo_dpc3:L2:bingo_dpc3
*************************************************
   ChampSim Multicore Out-of-Order Simulator
   Last compiled: Oct 26 2024 13:49:13
*************************************************

trace_0 770-tot_memTraces_v3/memTraces[125000000][OPT-125M]_[h12][s512][d64].champsim.xz
Bingo PHT WAYS: 16 and PHT_SIZE: 16384
Bingo2 PHT WAYS: 16 and PHT_SIZE: 16384
MAIN.cc ln 751 stats print skipped
CPU  0 inst:    1000001 cyc:     502022 now IPC :1.99195: AVG IPC :1.99195: L2-Pf-HR :0.65256: L2-HR :0.59504: (Sim:0h0m4s) 
CPU  0 inst:    2000002 cyc:     976171 now IPC :2.10904: AVG IPC :2.04882: L2-Pf-HR :0.71982: L2-HR :0.65163: (Sim:0h0m9s) 

Warmup complete CPU  0 instructions:    2000002 cycles:     976171 (Simulation time: 0 hr 0 min 9 sec) 

CPU  0 inst:    3000001 cyc:    1659497 now IPC :1.46343: AVG IPC :1.46343: L2-Pf-HR :0.79830: L2-HR :0.70143: (Sim:0h0m13s) 
CPU  0 inst:    4000000 cyc:    2335874 now IPC :1.47846: AVG IPC :1.47091: L2-Pf-HR :0.78539: L2-HR :0.70985: (Sim:0h0m18s) 
CPU  0 inst:    5000003 cyc:    3056143 now IPC :1.38837: AVG IPC :1.44233: L2-Pf-HR :0.69717: L2-HR :0.66634: (Sim:0h0m23s) 
CPU  0 inst:    6000002 cyc:    3731280 now IPC :1.48118: AVG IPC :1.45185: L2-Pf-HR :0.69798: L2-HR :0.66641: (Sim:0h0m27s) 
CPU  0 inst:    7000003 cyc:    4407391 now IPC :1.47905: AVG IPC :1.45721: L2-Pf-HR :0.70226: L2-HR :0.66809: (Sim:0h0m32s) 
CPU  0 inst:    8000000 cyc:    5140409 now IPC :1.36422: AVG IPC :1.44084: L2-Pf-HR :0.71529: L2-HR :0.67682: (Sim:0h0m35s) 
CPU  0 inst:    9000003 cyc:    5929620 now IPC :1.26709: AVG IPC :1.41316: L2-Pf-HR :0.69124: L2-HR :0.66387: (Sim:0h0m40s) 
CPU  0 inst:   10000003 cyc:    6630129 now IPC :1.42753: AVG IPC :1.41494: L2-Pf-HR :0.68636: L2-HR :0.65934: (Sim:0h0m45s) 
CPU  0 inst:   11000001 cyc:    7318035 now IPC :1.45368: AVG IPC :1.41914: L2-Pf-HR :0.68389: L2-HR :0.65682: (Sim:0h0m50s) 
CPU  0 inst:   12000000 cyc:    8063096 now IPC :1.34217: AVG IPC :1.41105: L2-Pf-HR :0.69224: L2-HR :0.66149: (Sim:0h0m54s) 
CPU  0 inst:   13000003 cyc:    8871280 now IPC :1.23735: AVG IPC :1.39327: L2-Pf-HR :0.67977: L2-HR :0.65507: (Sim:0h0m58s) 
CPU  0 inst:   14000002 cyc:    9589451 now IPC :1.39242: AVG IPC :1.39320: L2-Pf-HR :0.68132: L2-HR :0.65483: (Sim:0h1m2s) 
CPU  0 inst:   15000003 cyc:   10299388 now IPC :1.40858: AVG IPC :1.39437: L2-Pf-HR :0.67975: L2-HR :0.65294: (Sim:0h1m6s) 
CPU  0 inst:   16000000 cyc:   11036781 now IPC :1.35612: AVG IPC :1.39157: L2-Pf-HR :0.68684: L2-HR :0.65698: (Sim:0h1m11s) 
CPU  0 inst:   17000001 cyc:   11837700 now IPC :1.24857: AVG IPC :1.38102: L2-Pf-HR :0.67779: L2-HR :0.65274: (Sim:0h1m16s) 
CPU  0 inst:   18000000 cyc:   12532895 now IPC :1.43844: AVG IPC :1.38448: L2-Pf-HR :0.67899: L2-HR :0.65267: (Sim:0h1m21s) 
CPU  0 inst:   19000001 cyc:   13231038 now IPC :1.43237: AVG IPC :1.38720: L2-Pf-HR :0.68208: L2-HR :0.65395: (Sim:0h1m25s) 
CPU  0 inst:   20000000 cyc:   13961227 now IPC :1.36951: AVG IPC :1.38621: L2-Pf-HR :0.68517: L2-HR :0.65553: (Sim:0h1m30s) 
CPU  0 inst:   21000000 cyc:   14774879 now IPC :1.22903: AVG IPC :1.37694: L2-Pf-HR :0.67734: L2-HR :0.65185: (Sim:0h1m35s) 
CPU  0 inst:   22000001 cyc:   15480508 now IPC :1.41718: AVG IPC :1.37890: L2-Pf-HR :0.67731: L2-HR :0.65123: (Sim:0h1m39s) 
CPU  0 inst:   23000000 cyc:   16165931 now IPC :1.45895: AVG IPC :1.38251: L2-Pf-HR :0.67644: L2-HR :0.65035: (Sim:0h1m44s) 
CPU  0 inst:   24000000 cyc:   16898482 now IPC :1.36509: AVG IPC :1.38171: L2-Pf-HR :0.67994: L2-HR :0.65208: (Sim:0h1m48s) 
CPU  0 inst:   25000003 cyc:   17703741 now IPC :1.24184: AVG IPC :1.37498: L2-Pf-HR :0.67652: L2-HR :0.65112: (Sim:0h1m52s) 
CPU  0 inst:   26000001 cyc:   18377482 now IPC :1.48425: AVG IPC :1.37921: L2-Pf-HR :0.67612: L2-HR :0.65033: (Sim:0h1m56s) 
CPU  0 inst:   27000002 cyc:   19062510 now IPC :1.45980: AVG IPC :1.38226: L2-Pf-HR :0.67528: L2-HR :0.64954: (Sim:0h2m0s) 
CPU  0 inst:   28000000 cyc:   19778385 now IPC :1.39689: AVG IPC :1.38282: L2-Pf-HR :0.67768: L2-HR :0.65072: (Sim:0h2m3s) 
CPU  0 inst:   29000003 cyc:   20587175 now IPC :1.23642: AVG IPC :1.37678: L2-Pf-HR :0.67425: L2-HR :0.64964: (Sim:0h2m6s) 
CPU  0 inst:   30000002 cyc:   21305518 now IPC :1.39209: AVG IPC :1.37732: L2-Pf-HR :0.67287: L2-HR :0.64842: (Sim:0h2m10s) 
CPU  0 inst:   31000000 cyc:   22019374 now IPC :1.40084: AVG IPC :1.37812: L2-Pf-HR :0.67339: L2-HR :0.64845: (Sim:0h2m15s) 
CPU  0 inst:   32000000 cyc:   22758412 now IPC :1.35311: AVG IPC :1.37727: L2-Pf-HR :0.67535: L2-HR :0.64938: (Sim:0h2m19s) 
CPU  0 inst:   33000002 cyc:   23515587 now IPC :1.32070: AVG IPC :1.37537: L2-Pf-HR :0.67688: L2-HR :0.65070: (Sim:0h2m24s) 
CPU  0 inst:   34000002 cyc:   24269373 now IPC :1.32664: AVG IPC :1.37379: L2-Pf-HR :0.67317: L2-HR :0.64836: (Sim:0h2m27s) 
CPU  0 inst:   35000002 cyc:   24975627 now IPC :1.41592: AVG IPC :1.37503: L2-Pf-HR :0.67271: L2-HR :0.64781: (Sim:0h2m32s) 
CPU  0 inst:   36000000 cyc:   25670649 now IPC :1.43880: AVG IPC :1.37683: L2-Pf-HR :0.67363: L2-HR :0.64793: (Sim:0h2m37s) 
CPU  0 inst:   37000001 cyc:   26415969 now IPC :1.34171: AVG IPC :1.37580: L2-Pf-HR :0.67664: L2-HR :0.65021: (Sim:0h2m41s) 
CPU  0 inst:   38000001 cyc:   27195673 now IPC :1.28254: AVG IPC :1.37302: L2-Pf-HR :0.67222: L2-HR :0.64780: (Sim:0h2m46s) 
CPU  0 inst:   39000001 cyc:   27880089 now IPC :1.46110: AVG IPC :1.37526: L2-Pf-HR :0.67116: L2-HR :0.64700: (Sim:0h2m51s) 
CPU  0 inst:   40000000 cyc:   28562824 now IPC :1.46470: AVG IPC :1.37748: L2-Pf-HR :0.67083: L2-HR :0.64650: (Sim:0h2m54s) 
CPU  0 inst:   41000001 cyc:   29303182 now IPC :1.35070: AVG IPC :1.37678: L2-Pf-HR :0.67347: L2-HR :0.64841: (Sim:0h2m58s) 
CPU  0 inst:   42000001 cyc:   30087721 now IPC :1.27463: AVG IPC :1.37403: L2-Pf-HR :0.67084: L2-HR :0.64714: (Sim:0h3m3s) 
CPU  0 inst:   43000001 cyc:   30783843 now IPC :1.43653: AVG IPC :1.37548: L2-Pf-HR :0.67232: L2-HR :0.64783: (Sim:0h3m7s) 
CPU  0 inst:   44000000 cyc:   31481941 now IPC :1.43246: AVG IPC :1.37679: L2-Pf-HR :0.67372: L2-HR :0.64843: (Sim:0h3m12s) 
CPU  0 inst:   45000001 cyc:   32222687 now IPC :1.34999: AVG IPC :1.37615: L2-Pf-HR :0.67696: L2-HR :0.65053: (Sim:0h3m17s) 
CPU  0 inst:   46000000 cyc:   33023542 now IPC :1.24866: AVG IPC :1.37297: L2-Pf-HR :0.67536: L2-HR :0.64989: (Sim:0h3m22s) 
CPU  0 inst:   47000003 cyc:   33728465 now IPC :1.41860: AVG IPC :1.37395: L2-Pf-HR :0.67652: L2-HR :0.65043: (Sim:0h3m26s) 
CPU  0 inst:   48000000 cyc:   34439409 now IPC :1.40658: AVG IPC :1.37464: L2-Pf-HR :0.67843: L2-HR :0.65138: (Sim:0h3m31s) 
CPU  0 inst:   49000000 cyc:   35180748 now IPC :1.34891: AVG IPC :1.37409: L2-Pf-HR :0.68150: L2-HR :0.65327: (Sim:0h3m36s) 
CPU  0 inst:   50000003 cyc:   39000332 now IPC :0.26181: AVG IPC :1.26236: L2-Pf-HR :0.64691: L2-HR :0.64221: (Sim:0h3m46s) 
CPU  0 inst:   51000000 cyc:   45550147 now IPC :0.15268: AVG IPC :1.09930: L2-Pf-HR :0.58900: L2-HR :0.62546: (Sim:0h4m2s) 
CPU  0 inst:   52000000 cyc:   49823455 now IPC :0.23401: AVG IPC :1.02360: L2-Pf-HR :0.57307: L2-HR :0.61947: (Sim:0h4m13s) 
CPU  0 inst:   53000000 cyc:   53349400 now IPC :0.28361: AVG IPC :0.97378: L2-Pf-HR :0.56832: L2-HR :0.61661: (Sim:0h4m22s) 
CPU  0 inst:   54000002 cyc:   56874932 now IPC :0.28365: AVG IPC :0.93025: L2-Pf-HR :0.56339: L2-HR :0.61382: (Sim:0h4m30s) 
CPU  0 inst:   55000001 cyc:   60400618 now IPC :0.28363: AVG IPC :0.89189: L2-Pf-HR :0.55860: L2-HR :0.61111: (Sim:0h4m39s) 
CPU  0 inst:   56000000 cyc:   63927023 now IPC :0.28357: AVG IPC :0.85781: L2-Pf-HR :0.55388: L2-HR :0.60846: (Sim:0h4m48s) 
CPU  0 inst:   57000003 cyc:   67453259 now IPC :0.28359: AVG IPC :0.82735: L2-Pf-HR :0.54933: L2-HR :0.60590: (Sim:0h4m57s) 
CPU  0 inst:   58000000 cyc:   70979602 now IPC :0.28358: AVG IPC :0.79996: L2-Pf-HR :0.54496: L2-HR :0.60340: (Sim:0h5m6s) 
CPU  0 inst:   59000000 cyc:   74506269 now IPC :0.28355: AVG IPC :0.77519: L2-Pf-HR :0.54078: L2-HR :0.60097: (Sim:0h5m15s) 
CPU  0 inst:   60000000 cyc:   78032467 now IPC :0.28359: AVG IPC :0.75270: L2-Pf-HR :0.53659: L2-HR :0.59860: (Sim:0h5m23s) 
CPU  0 inst:   61000002 cyc:   81558801 now IPC :0.28358: AVG IPC :0.73217: L2-Pf-HR :0.53257: L2-HR :0.59629: (Sim:0h5m32s) 
CPU  0 inst:   62000000 cyc:   85085477 now IPC :0.28355: AVG IPC :0.71336: L2-Pf-HR :0.52858: L2-HR :0.59404: (Sim:0h5m41s) 
CPU  0 inst:   63000000 cyc:   88611466 now IPC :0.28361: AVG IPC :0.69607: L2-Pf-HR :0.52491: L2-HR :0.59185: (Sim:0h5m50s) 
CPU  0 inst:   64000000 cyc:   92136275 now IPC :0.28370: AVG IPC :0.68012: L2-Pf-HR :0.52114: L2-HR :0.58971: (Sim:0h5m58s) 
CPU  0 inst:   65000002 cyc:   95662407 now IPC :0.28360: AVG IPC :0.66536: L2-Pf-HR :0.51741: L2-HR :0.58762: (Sim:0h6m7s) 
CPU  0 inst:   66000000 cyc:   99188869 now IPC :0.28357: AVG IPC :0.65165: L2-Pf-HR :0.51376: L2-HR :0.58558: (Sim:0h6m16s) 
CPU  0 inst:   67000000 cyc:  102715020 now IPC :0.28360: AVG IPC :0.63889: L2-Pf-HR :0.51022: L2-HR :0.58359: (Sim:0h6m25s) 
CPU  0 inst:   68000000 cyc:  106241337 now IPC :0.28358: AVG IPC :0.62699: L2-Pf-HR :0.50684: L2-HR :0.58165: (Sim:0h6m33s) 
CPU  0 inst:   69000002 cyc:  109768025 now IPC :0.28355: AVG IPC :0.61585: L2-Pf-HR :0.50358: L2-HR :0.57975: (Sim:0h6m42s) 
CPU  0 inst:   70000000 cyc:  113294506 now IPC :0.28357: AVG IPC :0.60542: L2-Pf-HR :0.50025: L2-HR :0.57790: (Sim:0h6m51s) 
CPU  0 inst:   71000000 cyc:  116820693 now IPC :0.28359: AVG IPC :0.59563: L2-Pf-HR :0.49697: L2-HR :0.57609: (Sim:0h7m0s) 
CPU  0 inst:   72000000 cyc:  120347137 now IPC :0.28357: AVG IPC :0.58641: L2-Pf-HR :0.49383: L2-HR :0.57432: (Sim:0h7m8s) 
CPU  0 inst:   73000000 cyc:  123873359 now IPC :0.28359: AVG IPC :0.57772: L2-Pf-HR :0.49075: L2-HR :0.57259: (Sim:0h7m17s) 
CPU  0 inst:   74000001 cyc:  127398426 now IPC :0.28368: AVG IPC :0.56952: L2-Pf-HR :0.48776: L2-HR :0.57089: (Sim:0h7m26s) 
CPU  0 inst:   75000000 cyc:  130924286 now IPC :0.28362: AVG IPC :0.56176: L2-Pf-HR :0.48476: L2-HR :0.56924: (Sim:0h7m35s) 
CPU  0 inst:   76000000 cyc:  132846045 now IPC :0.52036: AVG IPC :0.56116: L2-Pf-HR :0.49233: L2-HR :0.57408: (Sim:0h7m41s) 
CPU  0 inst:   77000003 cyc:  133456765 now IPC :1.63742: AVG IPC :0.56612: L2-Pf-HR :0.50761: L2-HR :0.58407: (Sim:0h7m46s) 
CPU  0 inst:   78000001 cyc:  134154956 now IPC :1.43227: AVG IPC :0.57066: L2-Pf-HR :0.52078: L2-HR :0.59300: (Sim:0h7m51s) 
CPU  0 inst:   79000003 cyc:  134729680 now IPC :1.73997: AVG IPC :0.57569: L2-Pf-HR :0.53412: L2-HR :0.60200: (Sim:0h7m56s) 
CPU  0 inst:   80000000 cyc:  135382467 now IPC :1.53189: AVG IPC :0.58033: L2-Pf-HR :0.54575: L2-HR :0.61018: (Sim:0h8m1s) 
CPU  0 inst:   81000002 cyc:  135987763 now IPC :1.65209: AVG IPC :0.58513: L2-Pf-HR :0.55748: L2-HR :0.61830: (Sim:0h8m6s) 
CPU  0 inst:   82000003 cyc:  136600021 now IPC :1.63330: AVG IPC :0.58987: L2-Pf-HR :0.56812: L2-HR :0.62593: (Sim:0h8m10s) 
CPU  0 inst:   83000000 cyc:  137169166 now IPC :1.75702: AVG IPC :0.59474: L2-Pf-HR :0.57847: L2-HR :0.63326: (Sim:0h8m14s) 
CPU  0 inst:   84000000 cyc:  137769729 now IPC :1.66510: AVG IPC :0.59944: L2-Pf-HR :0.58753: L2-HR :0.63996: (Sim:0h8m18s) 
CPU  0 inst:   85000003 cyc:  138372779 now IPC :1.65824: AVG IPC :0.60409: L2-Pf-HR :0.59677: L2-HR :0.64663: (Sim:0h8m23s) 
CPU  0 inst:   86000003 cyc:  138979345 now IPC :1.64863: AVG IPC :0.60868: L2-Pf-HR :0.60513: L2-HR :0.65289: (Sim:0h8m28s) 
CPU  0 inst:   87000002 cyc:  139547830 now IPC :1.75906: AVG IPC :0.61340: L2-Pf-HR :0.61339: L2-HR :0.65897: (Sim:0h8m33s) 
CPU  0 inst:   88000000 cyc:  140139926 now IPC :1.68891: AVG IPC :0.61798: L2-Pf-HR :0.62070: L2-HR :0.66452: (Sim:0h8m38s) 
CPU  0 inst:   89000002 cyc:  140741376 now IPC :1.66265: AVG IPC :0.62247: L2-Pf-HR :0.62813: L2-HR :0.67013: (Sim:0h8m42s) 
CPU  0 inst:   90000001 cyc:  141343799 now IPC :1.65996: AVG IPC :0.62693: L2-Pf-HR :0.63520: L2-HR :0.67555: (Sim:0h8m46s) 
CPU  0 inst:   91000000 cyc:  141924477 now IPC :1.72212: AVG IPC :0.63144: L2-Pf-HR :0.64155: L2-HR :0.68046: (Sim:0h8m49s) 
CPU  0 inst:   92000000 cyc:  142493155 now IPC :1.75846: AVG IPC :0.63597: L2-Pf-HR :0.64795: L2-HR :0.68540: (Sim:0h8m53s) 
CPU  0 inst:   93000001 cyc:  143109209 now IPC :1.62324: AVG IPC :0.64025: L2-Pf-HR :0.65371: L2-HR :0.68998: (Sim:0h8m56s) 
CPU  0 inst:   94000003 cyc:  143711457 now IPC :1.66045: AVG IPC :0.64455: L2-Pf-HR :0.65956: L2-HR :0.69458: (Sim:0h9m0s) 
CPU  0 inst:   95000003 cyc:  144306979 now IPC :1.67920: AVG IPC :0.64885: L2-Pf-HR :0.66469: L2-HR :0.69870: (Sim:0h9m3s) 
CPU  0 inst:   96000000 cyc:  144873140 now IPC :1.76628: AVG IPC :0.65325: L2-Pf-HR :0.67006: L2-HR :0.70294: (Sim:0h9m6s) 
CPU  0 inst:   97000000 cyc:  145480689 now IPC :1.64596: AVG IPC :0.65742: L2-Pf-HR :0.67493: L2-HR :0.70692: (Sim:0h9m10s) 
CPU  0 inst:   98000002 cyc:  146084226 now IPC :1.65690: AVG IPC :0.66158: L2-Pf-HR :0.67983: L2-HR :0.71085: (Sim:0h9m15s) 
CPU  0 inst:   99000003 cyc:  146685113 now IPC :1.66421: AVG IPC :0.66571: L2-Pf-HR :0.68413: L2-HR :0.71441: (Sim:0h9m18s) 
CPU  0 inst:  100000000 cyc:  147250920 now IPC :1.76738: AVG IPC :0.66997: L2-Pf-HR :0.68869: L2-HR :0.71810: (Sim:0h9m22s) 
CPU  0 inst:  101000003 cyc:  147856218 now IPC :1.65208: AVG IPC :0.67402: L2-Pf-HR :0.69284: L2-HR :0.72158: (Sim:0h9m25s) 
CPU  0 inst:  102000001 cyc:  148460666 now IPC :1.65440: AVG IPC :0.67804: L2-Pf-HR :0.69705: L2-HR :0.72501: (Sim:0h9m28s) 
CPU  0 inst:  103000002 cyc:  149064105 now IPC :1.65717: AVG IPC :0.68203: L2-Pf-HR :0.70069: L2-HR :0.72811: (Sim:0h9m33s) 
CPU  0 inst:  104000000 cyc:  149630020 now IPC :1.76705: AVG IPC :0.68616: L2-Pf-HR :0.70461: L2-HR :0.73133: (Sim:0h9m38s) 
CPU  0 inst:  105000003 cyc:  150222479 now IPC :1.68789: AVG IPC :0.69013: L2-Pf-HR :0.70817: L2-HR :0.73439: (Sim:0h9m43s) 
CPU  0 inst:  106000003 cyc:  150827927 now IPC :1.65167: AVG IPC :0.69402: L2-Pf-HR :0.71178: L2-HR :0.73737: (Sim:0h9m48s) 
CPU  0 inst:  107000001 cyc:  151435630 now IPC :1.64554: AVG IPC :0.69786: L2-Pf-HR :0.71494: L2-HR :0.74010: (Sim:0h9m51s) 
CPU  0 inst:  108000000 cyc:  152002073 now IPC :1.76540: AVG IPC :0.70187: L2-Pf-HR :0.71833: L2-HR :0.74294: (Sim:0h9m56s) 
CPU  0 inst:  109000003 cyc:  152590835 now IPC :1.69848: AVG IPC :0.70574: L2-Pf-HR :0.72139: L2-HR :0.74560: (Sim:0h10m1s) 
CPU  0 inst:  110000003 cyc:  153200467 now IPC :1.64033: AVG IPC :0.70948: L2-Pf-HR :0.72448: L2-HR :0.74821: (Sim:0h10m6s) 
CPU  0 inst:  111000003 cyc:  153809528 now IPC :1.64187: AVG IPC :0.71320: L2-Pf-HR :0.72730: L2-HR :0.75066: (Sim:0h10m10s) 
CPU  0 inst:  112000000 cyc:  154376430 now IPC :1.76397: AVG IPC :0.71708: L2-Pf-HR :0.73028: L2-HR :0.75320: (Sim:0h10m13s) 
CPU  0 inst:  113000002 cyc:  154957729 now IPC :1.72029: AVG IPC :0.72087: L2-Pf-HR :0.73294: L2-HR :0.75554: (Sim:0h10m17s) 
CPU  0 inst:  114000001 cyc:  155567751 now IPC :1.63928: AVG IPC :0.72449: L2-Pf-HR :0.73561: L2-HR :0.75786: (Sim:0h10m22s) 
CPU  0 inst:  115000000 cyc:  156167647 now IPC :1.66695: AVG IPC :0.72813: L2-Pf-HR :0.73838: L2-HR :0.76024: (Sim:0h10m27s) 
CPU  0 inst:  116000000 cyc:  156757878 now IPC :1.69425: AVG IPC :0.73179: L2-Pf-HR :0.74079: L2-HR :0.76237: (Sim:0h10m32s) 
CPU  0 inst:  117000000 cyc:  157323611 now IPC :1.76762: AVG IPC :0.73554: L2-Pf-HR :0.74335: L2-HR :0.76460: (Sim:0h10m37s) 
CPU  0 inst:  118000001 cyc:  157943778 now IPC :1.61247: AVG IPC :0.73901: L2-Pf-HR :0.74553: L2-HR :0.76655: (Sim:0h10m42s) 
CPU  0 inst:  119000003 cyc:  158544020 now IPC :1.66600: AVG IPC :0.74254: L2-Pf-HR :0.74797: L2-HR :0.76868: (Sim:0h10m47s) 
CPU  0 inst:  120000000 cyc:  159136655 now IPC :1.68737: AVG IPC :0.74608: L2-Pf-HR :0.75016: L2-HR :0.77063: (Sim:0h10m52s) 
CPU  0 inst:  121000002 cyc:  159701776 now IPC :1.76954: AVG IPC :0.74972: L2-Pf-HR :0.75243: L2-HR :0.77263: (Sim:0h10m57s) 
CPU  0 inst:  122000000 cyc:  160315318 now IPC :1.62988: AVG IPC :0.75311: L2-Pf-HR :0.75434: L2-HR :0.77437: (Sim:0h11m2s) 
Finished CPU 0 instr: 120000002 cyc: 159339148 AVG IPC: 0.75311 (Sim time: 0h11m2s)

ChampSim completed all CPUs

[ROI Statistics]
Core_0_instructions 120000002
Core_0_cycles 159339148
Core_0_IPC 0.75311

Core_0_branch_prediction_accuracy 99.19469
Core_0_branch_MPKI 0.24154
Core_0_average_ROB_occupancy_at_mispredict 236.04068

Core_0_L1D_total_access 39567652
Core_0_L1D_total_hit 34789825 L1D_total_Hit Ratio: 0.87925
Core_0_L1D_total_miss 4777827
Core_0_L1D_loads 32948289
Core_0_L1D_load_hit 31179545 L1D_load_Hit Ratio: 0.94632
Core_0_L1D_load_miss 1768744
Core_0_L1D_RFOs 3302821
Core_0_L1D_RFO_hit 3194353 L1D_RFO_Hit Ratio: 0.96716
Core_0_L1D_RFO_miss 108468
Core_0_L1D_prefetches 3316542
Core_0_L1D_prefetch_hit 415927 L1D_prefetch_Hit Ratio: 0.12541
Core_0_L1D_prefetch_miss 2900615
Core_0_L1D_writebacks 0
Core_0_L1D_writeback_hit 0 L1D_writeback_Hit Ratio: -nan
Core_0_L1D_writeback_miss 0
Core_0_L1D_prefetch_requested 4300950
Core_0_L1D_prefetch_issued 4300950
Core_0_L1D_prefetch_useful 2850470 L1D_Useful Ratio: 0.66275
Core_0_L1D_prefetch_useless 76945
Core_0_L1D_prefetch_late 475974
Core_0_L1D_average_miss_latency 9979190.71584

Core_0_L1I_total_access 30678788
Core_0_L1I_total_hit 30673840 L1I_total_Hit Ratio: 0.99984
Core_0_L1I_total_miss 4948
Core_0_L1I_loads 30678788
Core_0_L1I_load_hit 30673840 L1I_load_Hit Ratio: 0.99984
Core_0_L1I_load_miss 4948
Core_0_L1I_RFOs 0
Core_0_L1I_RFO_hit 0 L1I_RFO_Hit Ratio: -nan
Core_0_L1I_RFO_miss 0
Core_0_L1I_prefetches 0
Core_0_L1I_prefetch_hit 0 L1I_prefetch_Hit Ratio: -nan
Core_0_L1I_prefetch_miss 0
Core_0_L1I_writebacks 0
Core_0_L1I_writeback_hit 0 L1I_writeback_Hit Ratio: -nan
Core_0_L1I_writeback_miss 0
Core_0_L1I_prefetch_requested 0
Core_0_L1I_prefetch_issued 0
Core_0_L1I_prefetch_useful 0 L1I_Useful Ratio: -nan
Core_0_L1I_prefetch_useless 0
Core_0_L1I_prefetch_late 0
Core_0_L1I_average_miss_latency 236.14450

Core_0_L2C_total_access 6221551
Core_0_L2C_total_hit 4817810 L2C_total_Hit Ratio: 0.77437
Core_0_L2C_total_miss 1403741
Core_0_L2C_loads 1298925
Core_0_L2C_load_hit 988825 L2C_load_Hit Ratio: 0.76126
Core_0_L2C_load_miss 310100
Core_0_L2C_RFOs 108467
Core_0_L2C_RFO_hit 17610 L2C_RFO_Hit Ratio: 0.16235
Core_0_L2C_RFO_miss 90857
Core_0_L2C_prefetches 4067842
Core_0_L2C_prefetch_hit 3068520 L2C_prefetch_Hit Ratio: 0.75434
Core_0_L2C_prefetch_miss 999322
Core_0_L2C_writebacks 746317
Core_0_L2C_writeback_hit 742855 L2C_writeback_Hit Ratio: 0.99536
Core_0_L2C_writeback_miss 3462
Core_0_L2C_prefetch_requested 850490
Core_0_L2C_prefetch_issued 850490
Core_0_L2C_prefetch_useful 207786 L2C_Useful Ratio: 0.24431
Core_0_L2C_prefetch_useless 799833
Core_0_L2C_prefetch_late 7011
Core_0_L2C_average_miss_latency 289.82533

Core_0_LLC_total_access 2136459
Core_0_LLC_total_hit 1074588 LLC_total_Hit Ratio: 0.50298
Core_0_LLC_total_miss 1061871
Core_0_LLC_loads 303298
Core_0_LLC_load_hit 117118 LLC_load_Hit Ratio: 0.38615
Core_0_LLC_load_miss 186180
Core_0_LLC_RFOs 90857
Core_0_LLC_RFO_hit 374 LLC_RFO_Hit Ratio: 0.00412
Core_0_LLC_RFO_miss 90483
Core_0_LLC_prefetches 1006112
Core_0_LLC_prefetch_hit 220912 LLC_prefetch_Hit Ratio: 0.21957
Core_0_LLC_prefetch_miss 785200
Core_0_LLC_writebacks 736192
Core_0_LLC_writeback_hit 736184 LLC_writeback_Hit Ratio: 0.99999
Core_0_LLC_writeback_miss 8
Core_0_LLC_prefetch_requested 0
Core_0_LLC_prefetch_issued 0
Core_0_LLC_prefetch_useful 59788 LLC_Useful Ratio: inf
Core_0_LLC_prefetch_useless 703178
Core_0_LLC_prefetch_late 0
Core_0_LLC_average_miss_latency 343.86458

Core_0_major_page_fault 0
Core_0_minor_page_fault 8629

[Bingo] PHT Access: 679090
[Bingo] PHT Hit PC+Addr: 307077
[Bingo] PHT Hit PC+Offs: 348174
[Bingo] PHT Miss: 23839
[Bingo] Prefetch PC+Addr: 0
[Bingo] Prefetch PC+Offs: 0
[Bingo] Useful PC+Addr: 0
[Bingo] Useful PC+Offs: 0
[Bingo] Useless PC+Addr: 0
[Bingo] Useless PC+Offs: 0
[Bingo] L1 Prefetch per Region: 7.55802
[Bingo] L2 Prefetch per Region: 0.28126
[Bingo] L3 Prefetch per Region: 0.00000
[Bingo] No Prefetch per Region: 24.16072
[Bingo] Number of Voters Mean: 13.00522
[Bingo] Number of Voters SD: 5.04005
PHT read accesses: 8554387
PHT write accesses: 649060
AT read accesses: 30689180
AT write accesses: 30689179
FT read accesses: 6626312
FT write accesses: 679090
PS read accesses: 2246519
PS write accesses: 655251
PHT tag read accesses: 24418152
PHT tag write accesses: 956137
AT tag read accesses: 627307345
AT tag write accesses: 31338239
FT tag read accesses: 157026386
FT tag write accesses: 4331727
PS tag read accesses: 550393231
PS tag write accesses: 2894171
[Bingo2] PHT Access: 171014
[Bingo2] PHT Hit PC+Addr: 10171
[Bingo2] PHT Hit PC+Offs: 151852
[Bingo2] PHT Miss: 8991
[Bingo2] Prefetch PC+Addr: 0
[Bingo2] Prefetch PC+Offs: 0
[Bingo2] Useful PC+Addr: 0
[Bingo2] Useful PC+Offs: 0
[Bingo2] Useless PC+Addr: 0
[Bingo2] Useless PC+Offs: 0
[Bingo2] L1 Prefetch per Region: 0.00000
[Bingo2] L2 Prefetch per Region: 6.41796
[Bingo2] L3 Prefetch per Region: 0.00000
[Bingo2] No Prefetch per Region: 25.58204
[Bingo2] Number of Voters Mean: 14.67426
[Bingo2] Number of Voters SD: 3.90263
PHT read accesses: 2377211
PHT write accesses: 115298
AT read accesses: 1227406
AT write accesses: 1238024
FT read accesses: 400091
FT write accesses: 171014
PS read accesses: 353851
PS write accesses: 162023
PHT tag read accesses: 6206122
PHT tag write accesses: 125469
AT tag read accesses: 47909933
AT tag write accesses: 1342747
FT tag read accesses: 32900764
FT tag write accesses: 450536
PS tag read accesses: 26425114
PS tag write accesses: 514042
Channel_0_RQ_row_buffer_hit 614792
Channel_0_RQ_row_buffer_miss 447071
Channel_0_WQ_row_buffer_hit 232152
Channel_0_WQ_row_buffer_miss 381164
Channel_0_WQ_full 0
Channel_0_dbus_congested 1161413

avg_congested_cycle 11

EzSearch AVG IPC :0.75311: L2-Pf-HR :0.75434 : L2-HR :0.77437 Uful:0.24431
     > Finished combination: TraceType=770-tot Sim:120000000 Prefetcher=L2bingo_dpc3 L1=bingo_dpc3
