TRACE: [1622000000][GPT-Neo-2_7B]_[h32][s1024][d80] Warmup: 2000000 NumTraces: 1622000000
L1:bingo_dpc3:L2:bingo_dpc3
*************************************************
   ChampSim Multicore Out-of-Order Simulator
   Last compiled: Oct 26 2024 13:18:59
*************************************************

trace_0 770-tot_memTraces_v3/memTraces[1622000000][GPT-Neo-2_7B]_[h32][s1024][d80].champsim.xz
Bingo PHT WAYS: 16 and PHT_SIZE: 16384
Bingo2 PHT WAYS: 16 and PHT_SIZE: 16384
MAIN.cc ln 751 stats print skipped
CPU  0 inst:    1000003 cyc:     503236 now IPC :1.98715: AVG IPC :1.98715: L2-Pf-HR :0.65934: L2-HR :0.65491: (Sim:0h0m5s) 
CPU  0 inst:    2000000 cyc:     979910 now IPC :2.09786: AVG IPC :2.04100: L2-Pf-HR :0.75493: L2-HR :0.73235: (Sim:0h0m9s) 

Warmup complete CPU  0 instructions:    2000003 cycles:     979911 (Simulation time: 0 hr 0 min 9 sec) 

CPU  0 inst:    3000002 cyc:    1648745 now IPC :1.49514: AVG IPC :1.49514: L2-Pf-HR :0.74196: L2-HR :0.71125: (Sim:0h0m14s) 
CPU  0 inst:    4000000 cyc:    2323989 now IPC :1.48094: AVG IPC :1.48801: L2-Pf-HR :0.78113: L2-HR :0.73653: (Sim:0h0m18s) 
CPU  0 inst:    5000002 cyc:    2989629 now IPC :1.50232: AVG IPC :1.49275: L2-Pf-HR :0.80239: L2-HR :0.75493: (Sim:0h0m23s) 
CPU  0 inst:    6000002 cyc:    3660589 now IPC :1.49040: AVG IPC :1.49216: L2-Pf-HR :0.78393: L2-HR :0.74364: (Sim:0h0m28s) 
CPU  0 inst:    7000000 cyc:    4330932 now IPC :1.49177: AVG IPC :1.49208: L2-Pf-HR :0.78887: L2-HR :0.74564: (Sim:0h0m32s) 
CPU  0 inst:    8000000 cyc:    5146712 now IPC :1.22582: AVG IPC :1.43995: L2-Pf-HR :0.77285: L2-HR :0.73835: (Sim:0h0m37s) 
CPU  0 inst:    9000000 cyc:    5864952 now IPC :1.39229: AVG IPC :1.43295: L2-Pf-HR :0.79051: L2-HR :0.75050: (Sim:0h0m42s) 
CPU  0 inst:   10000002 cyc:    6581902 now IPC :1.39480: AVG IPC :1.42806: L2-Pf-HR :0.79777: L2-HR :0.75516: (Sim:0h0m46s) 
CPU  0 inst:   11000002 cyc:    7293774 now IPC :1.40475: AVG IPC :1.42543: L2-Pf-HR :0.80162: L2-HR :0.75657: (Sim:0h0m51s) 
CPU  0 inst:   12000000 cyc:    8005084 now IPC :1.40585: AVG IPC :1.42345: L2-Pf-HR :0.81177: L2-HR :0.76316: (Sim:0h0m56s) 
CPU  0 inst:   13000000 cyc:    8698652 now IPC :1.44182: AVG IPC :1.42510: L2-Pf-HR :0.81155: L2-HR :0.76373: (Sim:0h1m0s) 
CPU  0 inst:   14000001 cyc:    9388755 now IPC :1.44906: AVG IPC :1.42707: L2-Pf-HR :0.81358: L2-HR :0.76497: (Sim:0h1m5s) 
CPU  0 inst:   15000000 cyc:   10084374 now IPC :1.43757: AVG IPC :1.42787: L2-Pf-HR :0.81713: L2-HR :0.76653: (Sim:0h1m10s) 
CPU  0 inst:   16000000 cyc:   10856501 now IPC :1.29512: AVG IPC :1.41749: L2-Pf-HR :0.81832: L2-HR :0.76859: (Sim:0h1m14s) 
CPU  0 inst:   17000003 cyc:   11555630 now IPC :1.43036: AVG IPC :1.41834: L2-Pf-HR :0.82332: L2-HR :0.77161: (Sim:0h1m19s) 
CPU  0 inst:   18000000 cyc:   12241431 now IPC :1.45814: AVG IPC :1.42077: L2-Pf-HR :0.82632: L2-HR :0.77332: (Sim:0h1m24s) 
CPU  0 inst:   19000001 cyc:   12891682 now IPC :1.53787: AVG IPC :1.42716: L2-Pf-HR :0.82690: L2-HR :0.77396: (Sim:0h1m28s) 
CPU  0 inst:   20000000 cyc:   13550332 now IPC :1.51826: AVG IPC :1.43193: L2-Pf-HR :0.82770: L2-HR :0.77400: (Sim:0h1m33s) 
CPU  0 inst:   21000000 cyc:   14414416 now IPC :1.15729: AVG IPC :1.41427: L2-Pf-HR :0.81930: L2-HR :0.76928: (Sim:0h1m38s) 
CPU  0 inst:   22000002 cyc:   15132963 now IPC :1.39170: AVG IPC :1.41312: L2-Pf-HR :0.82052: L2-HR :0.77029: (Sim:0h1m43s) 
CPU  0 inst:   23000001 cyc:   15849555 now IPC :1.39549: AVG IPC :1.41227: L2-Pf-HR :0.81633: L2-HR :0.76704: (Sim:0h1m47s) 
CPU  0 inst:   24000000 cyc:   16564198 now IPC :1.39930: AVG IPC :1.41168: L2-Pf-HR :0.81619: L2-HR :0.76656: (Sim:0h1m52s) 
CPU  0 inst:   25000003 cyc:   17254345 now IPC :1.44897: AVG IPC :1.41326: L2-Pf-HR :0.81492: L2-HR :0.76604: (Sim:0h1m57s) 
CPU  0 inst:   26000003 cyc:   17941840 now IPC :1.45456: AVG IPC :1.41493: L2-Pf-HR :0.80997: L2-HR :0.76278: (Sim:0h2m1s) 
CPU  0 inst:   27000001 cyc:   18631751 now IPC :1.44946: AVG IPC :1.41628: L2-Pf-HR :0.80916: L2-HR :0.76190: (Sim:0h2m6s) 
CPU  0 inst:   28000000 cyc:   19460440 now IPC :1.20672: AVG IPC :1.40689: L2-Pf-HR :0.80370: L2-HR :0.75892: (Sim:0h2m11s) 
CPU  0 inst:   29000002 cyc:   20179951 now IPC :1.38984: AVG IPC :1.40625: L2-Pf-HR :0.80708: L2-HR :0.76130: (Sim:0h2m16s) 
CPU  0 inst:   30000000 cyc:   20895923 now IPC :1.39670: AVG IPC :1.40590: L2-Pf-HR :0.80855: L2-HR :0.76224: (Sim:0h2m20s) 
CPU  0 inst:   31000002 cyc:   21609904 now IPC :1.40060: AVG IPC :1.40572: L2-Pf-HR :0.80938: L2-HR :0.76248: (Sim:0h2m25s) 
CPU  0 inst:   32000000 cyc:   22318460 now IPC :1.41132: AVG IPC :1.40591: L2-Pf-HR :0.81227: L2-HR :0.76434: (Sim:0h2m30s) 
CPU  0 inst:   33000000 cyc:   23013772 now IPC :1.43820: AVG IPC :1.40693: L2-Pf-HR :0.81200: L2-HR :0.76434: (Sim:0h2m35s) 
CPU  0 inst:   34000000 cyc:   23700614 now IPC :1.45594: AVG IPC :1.40841: L2-Pf-HR :0.81282: L2-HR :0.76484: (Sim:0h2m39s) 
CPU  0 inst:   35000001 cyc:   24396819 now IPC :1.43636: AVG IPC :1.40924: L2-Pf-HR :0.81414: L2-HR :0.76536: (Sim:0h2m44s) 
CPU  0 inst:   36000000 cyc:   25172030 now IPC :1.28997: AVG IPC :1.40542: L2-Pf-HR :0.81496: L2-HR :0.76640: (Sim:0h2m49s) 
CPU  0 inst:   37000002 cyc:   25883658 now IPC :1.40523: AVG IPC :1.40541: L2-Pf-HR :0.81704: L2-HR :0.76763: (Sim:0h2m53s) 
CPU  0 inst:   38000001 cyc:   26582140 now IPC :1.43167: AVG IPC :1.40613: L2-Pf-HR :0.81842: L2-HR :0.76840: (Sim:0h2m58s) 
CPU  0 inst:   39000002 cyc:   27241101 now IPC :1.51754: AVG IPC :1.40892: L2-Pf-HR :0.81890: L2-HR :0.76887: (Sim:0h3m3s) 
CPU  0 inst:   40000000 cyc:   27913799 now IPC :1.48655: AVG IPC :1.41086: L2-Pf-HR :0.81943: L2-HR :0.76902: (Sim:0h3m7s) 
CPU  0 inst:   41000000 cyc:   28774724 now IPC :1.16154: AVG IPC :1.40314: L2-Pf-HR :0.81581: L2-HR :0.76700: (Sim:0h3m12s) 
CPU  0 inst:   42000000 cyc:   29500935 now IPC :1.37701: AVG IPC :1.40247: L2-Pf-HR :0.81655: L2-HR :0.76757: (Sim:0h3m17s) 
CPU  0 inst:   43000000 cyc:   30219227 now IPC :1.39219: AVG IPC :1.40222: L2-Pf-HR :0.81461: L2-HR :0.76607: (Sim:0h3m22s) 
CPU  0 inst:   44000000 cyc:   30943230 now IPC :1.38121: AVG IPC :1.40171: L2-Pf-HR :0.81457: L2-HR :0.76586: (Sim:0h3m27s) 
CPU  0 inst:   45000003 cyc:   31624567 now IPC :1.46771: AVG IPC :1.40318: L2-Pf-HR :0.81368: L2-HR :0.76548: (Sim:0h3m31s) 
CPU  0 inst:   46000000 cyc:   32318047 now IPC :1.44200: AVG IPC :1.40404: L2-Pf-HR :0.81097: L2-HR :0.76370: (Sim:0h3m36s) 
CPU  0 inst:   47000001 cyc:   33008486 now IPC :1.44836: AVG IPC :1.40500: L2-Pf-HR :0.81043: L2-HR :0.76314: (Sim:0h3m41s) 
CPU  0 inst:   48000000 cyc:   33845329 now IPC :1.19497: AVG IPC :1.39965: L2-Pf-HR :0.80725: L2-HR :0.76141: (Sim:0h3m46s) 
CPU  0 inst:   49000003 cyc:   34567474 now IPC :1.38477: AVG IPC :1.39933: L2-Pf-HR :0.80914: L2-HR :0.76275: (Sim:0h3m50s) 
CPU  0 inst:   50000000 cyc:   35284666 now IPC :1.39432: AVG IPC :1.39922: L2-Pf-HR :0.80995: L2-HR :0.76327: (Sim:0h3m55s) 
CPU  0 inst:   51000002 cyc:   35998146 now IPC :1.40158: AVG IPC :1.39927: L2-Pf-HR :0.81041: L2-HR :0.76341: (Sim:0h4m0s) 
CPU  0 inst:   52000000 cyc:   36709978 now IPC :1.40482: AVG IPC :1.39938: L2-Pf-HR :0.81219: L2-HR :0.76454: (Sim:0h4m5s) 
CPU  0 inst:   53000000 cyc:   37403647 now IPC :1.44161: AVG IPC :1.40019: L2-Pf-HR :0.81205: L2-HR :0.76460: (Sim:0h4m9s) 
CPU  0 inst:   54000001 cyc:   38091962 now IPC :1.45282: AVG IPC :1.40116: L2-Pf-HR :0.81261: L2-HR :0.76494: (Sim:0h4m12s) 
CPU  0 inst:   55000002 cyc:   38789390 now IPC :1.43384: AVG IPC :1.40176: L2-Pf-HR :0.81340: L2-HR :0.76524: (Sim:0h4m15s) 
CPU  0 inst:   56000000 cyc:   39562986 now IPC :1.29266: AVG IPC :1.39958: L2-Pf-HR :0.81373: L2-HR :0.76574: (Sim:0h4m18s) 
CPU  0 inst:   57000000 cyc:   40269210 now IPC :1.41598: AVG IPC :1.39987: L2-Pf-HR :0.81518: L2-HR :0.76662: (Sim:0h4m21s) 
CPU  0 inst:   58000000 cyc:   40962193 now IPC :1.44304: AVG IPC :1.40062: L2-Pf-HR :0.81605: L2-HR :0.76713: (Sim:0h4m26s) 
CPU  0 inst:   59000001 cyc:   41621237 now IPC :1.51735: AVG IPC :1.40251: L2-Pf-HR :0.81643: L2-HR :0.76747: (Sim:0h4m31s) 
CPU  0 inst:   60000000 cyc:   42295249 now IPC :1.48365: AVG IPC :1.40384: L2-Pf-HR :0.81687: L2-HR :0.76760: (Sim:0h4m36s) 
CPU  0 inst:   61000003 cyc:   43159105 now IPC :1.15760: AVG IPC :1.39879: L2-Pf-HR :0.81457: L2-HR :0.76629: (Sim:0h4m40s) 
CPU  0 inst:   62000003 cyc:   43892453 now IPC :1.36361: AVG IPC :1.39819: L2-Pf-HR :0.81509: L2-HR :0.76670: (Sim:0h4m43s) 
CPU  0 inst:   63000003 cyc:   44618879 now IPC :1.37660: AVG IPC :1.39783: L2-Pf-HR :0.81361: L2-HR :0.76557: (Sim:0h4m46s) 
CPU  0 inst:   64000000 cyc:   45350765 now IPC :1.36633: AVG IPC :1.39731: L2-Pf-HR :0.81359: L2-HR :0.76543: (Sim:0h4m49s) 
CPU  0 inst:   65000000 cyc:   46044860 now IPC :1.44072: AVG IPC :1.39798: L2-Pf-HR :0.81331: L2-HR :0.76536: (Sim:0h4m52s) 
CPU  0 inst:   66000000 cyc:   46749455 now IPC :1.41926: AVG IPC :1.39831: L2-Pf-HR :0.81162: L2-HR :0.76424: (Sim:0h4m55s) 
CPU  0 inst:   67000001 cyc:   47448492 now IPC :1.43054: AVG IPC :1.39879: L2-Pf-HR :0.81119: L2-HR :0.76383: (Sim:0h4m59s) 
CPU  0 inst:   68000000 cyc:   48283085 now IPC :1.19819: AVG IPC :1.39526: L2-Pf-HR :0.80898: L2-HR :0.76261: (Sim:0h5m4s) 
CPU  0 inst:   69000002 cyc:   48992764 now IPC :1.40909: AVG IPC :1.39546: L2-Pf-HR :0.81027: L2-HR :0.76351: (Sim:0h5m9s) 
CPU  0 inst:   70000001 cyc:   49701003 now IPC :1.41195: AVG IPC :1.39570: L2-Pf-HR :0.81080: L2-HR :0.76386: (Sim:0h5m14s) 
CPU  0 inst:   71000002 cyc:   50405587 now IPC :1.41928: AVG IPC :1.39604: L2-Pf-HR :0.81111: L2-HR :0.76393: (Sim:0h5m19s) 
CPU  0 inst:   72000000 cyc:   51107658 now IPC :1.42435: AVG IPC :1.39643: L2-Pf-HR :0.81235: L2-HR :0.76474: (Sim:0h5m23s) 
CPU  0 inst:   73000001 cyc:   51793125 now IPC :1.45886: AVG IPC :1.39727: L2-Pf-HR :0.81227: L2-HR :0.76477: (Sim:0h5m28s) 
CPU  0 inst:   74000000 cyc:   52474715 now IPC :1.46716: AVG IPC :1.39820: L2-Pf-HR :0.81259: L2-HR :0.76496: (Sim:0h5m33s) 
CPU  0 inst:   75000000 cyc:   53164381 now IPC :1.44998: AVG IPC :1.39888: L2-Pf-HR :0.81323: L2-HR :0.76524: (Sim:0h5m38s) 
CPU  0 inst:   76000000 cyc:   53924505 now IPC :1.31557: AVG IPC :1.39769: L2-Pf-HR :0.81352: L2-HR :0.76564: (Sim:0h5m42s) 
CPU  0 inst:   77000003 cyc:   54618776 now IPC :1.44036: AVG IPC :1.39824: L2-Pf-HR :0.81453: L2-HR :0.76625: (Sim:0h5m45s) 
CPU  0 inst:   78000003 cyc:   55302731 now IPC :1.46208: AVG IPC :1.39904: L2-Pf-HR :0.81529: L2-HR :0.76669: (Sim:0h5m49s) 
CPU  0 inst:   79000001 cyc:   55950447 now IPC :1.54388: AVG IPC :1.40075: L2-Pf-HR :0.81559: L2-HR :0.76696: (Sim:0h5m53s) 
CPU  0 inst:   80000000 cyc:   56611011 now IPC :1.51386: AVG IPC :1.40209: L2-Pf-HR :0.81600: L2-HR :0.76712: (Sim:0h5m57s) 
CPU  0 inst:   81000000 cyc:   57477596 now IPC :1.15395: AVG IPC :1.39829: L2-Pf-HR :0.81422: L2-HR :0.76612: (Sim:0h6m2s) 
CPU  0 inst:   82000001 cyc:   58204697 now IPC :1.37533: AVG IPC :1.39800: L2-Pf-HR :0.81470: L2-HR :0.76649: (Sim:0h6m7s) 
CPU  0 inst:   83000000 cyc:   58928814 now IPC :1.38099: AVG IPC :1.39778: L2-Pf-HR :0.81353: L2-HR :0.76560: (Sim:0h6m12s) 
CPU  0 inst:   84000000 cyc:   59656967 now IPC :1.37334: AVG IPC :1.39748: L2-Pf-HR :0.81356: L2-HR :0.76552: (Sim:0h6m17s) 
CPU  0 inst:   85000003 cyc:   60350226 now IPC :1.44247: AVG IPC :1.39801: L2-Pf-HR :0.81340: L2-HR :0.76549: (Sim:0h6m21s) 
CPU  0 inst:   86000000 cyc:   61047187 now IPC :1.43480: AVG IPC :1.39843: L2-Pf-HR :0.81208: L2-HR :0.76462: (Sim:0h6m26s) 
CPU  0 inst:   87000000 cyc:   61746115 now IPC :1.43076: AVG IPC :1.39880: L2-Pf-HR :0.81174: L2-HR :0.76429: (Sim:0h6m31s) 
CPU  0 inst:   88000000 cyc:   62576197 now IPC :1.20470: AVG IPC :1.39619: L2-Pf-HR :0.81001: L2-HR :0.76333: (Sim:0h6m36s) 
CPU  0 inst:   89000000 cyc:   63296355 now IPC :1.38858: AVG IPC :1.39610: L2-Pf-HR :0.81105: L2-HR :0.76406: (Sim:0h6m41s) 
CPU  0 inst:   90000000 cyc:   64013307 now IPC :1.39479: AVG IPC :1.39609: L2-Pf-HR :0.81143: L2-HR :0.76431: (Sim:0h6m46s) 
CPU  0 inst:   91000003 cyc:   64729070 now IPC :1.39711: AVG IPC :1.39610: L2-Pf-HR :0.81169: L2-HR :0.76437: (Sim:0h6m51s) 
CPU  0 inst:   92000000 cyc:   65440505 now IPC :1.40561: AVG IPC :1.39620: L2-Pf-HR :0.81263: L2-HR :0.76498: (Sim:0h6m55s) 
CPU  0 inst:   93000000 cyc:   66138908 now IPC :1.43184: AVG IPC :1.39658: L2-Pf-HR :0.81256: L2-HR :0.76499: (Sim:0h7m0s) 
CPU  0 inst:   94000003 cyc:   66825648 now IPC :1.45616: AVG IPC :1.39721: L2-Pf-HR :0.81274: L2-HR :0.76510: (Sim:0h7m5s) 
CPU  0 inst:   95000002 cyc:   67524519 now IPC :1.43088: AVG IPC :1.39756: L2-Pf-HR :0.81320: L2-HR :0.76529: (Sim:0h7m10s) 
CPU  0 inst:   96000000 cyc:   68299816 now IPC :1.28983: AVG IPC :1.39632: L2-Pf-HR :0.81347: L2-HR :0.76563: (Sim:0h7m15s) 
CPU  0 inst:   97000003 cyc:   69013951 now IPC :1.40030: AVG IPC :1.39636: L2-Pf-HR :0.81432: L2-HR :0.76615: (Sim:0h7m20s) 
CPU  0 inst:   98000001 cyc:   69713581 now IPC :1.42932: AVG IPC :1.39670: L2-Pf-HR :0.81489: L2-HR :0.76647: (Sim:0h7m25s) 
CPU  0 inst:   99000002 cyc:   70370951 now IPC :1.52121: AVG IPC :1.39787: L2-Pf-HR :0.81515: L2-HR :0.76670: (Sim:0h7m29s) 
CPU  0 inst:  100000000 cyc:   71042657 now IPC :1.48874: AVG IPC :1.39875: L2-Pf-HR :0.81543: L2-HR :0.76680: (Sim:0h7m34s) 
CPU  0 inst:  101000001 cyc:   71908356 now IPC :1.15514: AVG IPC :1.39577: L2-Pf-HR :0.81402: L2-HR :0.76598: (Sim:0h7m39s) 
CPU  0 inst:  102000000 cyc:   72636212 now IPC :1.37390: AVG IPC :1.39555: L2-Pf-HR :0.81431: L2-HR :0.76621: (Sim:0h7m44s) 
CPU  0 inst:  103000000 cyc:   73361356 now IPC :1.37904: AVG IPC :1.39539: L2-Pf-HR :0.81351: L2-HR :0.76558: (Sim:0h7m48s) 
CPU  0 inst:  104000000 cyc:   74091070 now IPC :1.37040: AVG IPC :1.39514: L2-Pf-HR :0.81357: L2-HR :0.76553: (Sim:0h7m52s) 
CPU  0 inst:  105000003 cyc:   74784195 now IPC :1.44275: AVG IPC :1.39558: L2-Pf-HR :0.81314: L2-HR :0.76533: (Sim:0h7m57s) 
CPU  0 inst:  106000003 cyc:   75482935 now IPC :1.43115: AVG IPC :1.39592: L2-Pf-HR :0.81203: L2-HR :0.76459: (Sim:0h8m2s) 
CPU  0 inst:  107000002 cyc:   76181339 now IPC :1.43183: AVG IPC :1.39625: L2-Pf-HR :0.81172: L2-HR :0.76430: (Sim:0h8m7s) 
CPU  0 inst:  108000000 cyc:   77023280 now IPC :1.18773: AVG IPC :1.39394: L2-Pf-HR :0.81031: L2-HR :0.76352: (Sim:0h8m12s) 
CPU  0 inst:  109000000 cyc:   77740207 now IPC :1.39484: AVG IPC :1.39395: L2-Pf-HR :0.81114: L2-HR :0.76411: (Sim:0h8m17s) 
CPU  0 inst:  110000002 cyc:   78454516 now IPC :1.39996: AVG IPC :1.39401: L2-Pf-HR :0.81145: L2-HR :0.76431: (Sim:0h8m22s) 
CPU  0 inst:  111000001 cyc:   79167233 now IPC :1.40308: AVG IPC :1.39409: L2-Pf-HR :0.81166: L2-HR :0.76436: (Sim:0h8m27s) 
CPU  0 inst:  112000000 cyc:   79879489 now IPC :1.40399: AVG IPC :1.39418: L2-Pf-HR :0.81250: L2-HR :0.76490: (Sim:0h8m31s) 
CPU  0 inst:  113000002 cyc:   80574674 now IPC :1.43847: AVG IPC :1.39456: L2-Pf-HR :0.81247: L2-HR :0.76496: (Sim:0h8m36s) 
CPU  0 inst:  114000001 cyc:   81263943 now IPC :1.45081: AVG IPC :1.39505: L2-Pf-HR :0.81280: L2-HR :0.76515: (Sim:0h8m41s) 
CPU  0 inst:  115000000 cyc:   81963795 now IPC :1.42887: AVG IPC :1.39534: L2-Pf-HR :0.81322: L2-HR :0.76533: (Sim:0h8m46s) 
CPU  0 inst:  116000000 cyc:   82736600 now IPC :1.29399: AVG IPC :1.39438: L2-Pf-HR :0.81341: L2-HR :0.76560: (Sim:0h8m50s) 
CPU  0 inst:  117000001 cyc:   83448156 now IPC :1.40537: AVG IPC :1.39448: L2-Pf-HR :0.81408: L2-HR :0.76600: (Sim:0h8m55s) 
CPU  0 inst:  118000002 cyc:   84146062 now IPC :1.43286: AVG IPC :1.39480: L2-Pf-HR :0.81452: L2-HR :0.76628: (Sim:0h9m0s) 
CPU  0 inst:  119000001 cyc:   84804152 now IPC :1.51955: AVG IPC :1.39578: L2-Pf-HR :0.81469: L2-HR :0.76645: (Sim:0h9m5s) 
CPU  0 inst:  120000000 cyc:   85477866 now IPC :1.48431: AVG IPC :1.39648: L2-Pf-HR :0.81494: L2-HR :0.76660: (Sim:0h9m10s) 
CPU  0 inst:  121000001 cyc:   86345033 now IPC :1.15318: AVG IPC :1.39401: L2-Pf-HR :0.81376: L2-HR :0.76592: (Sim:0h9m15s) 
CPU  0 inst:  122000002 cyc:   87077951 now IPC :1.36441: AVG IPC :1.39376: L2-Pf-HR :0.81404: L2-HR :0.76612: (Sim:0h9m19s) 
CPU  0 inst:  123000001 cyc:   87810892 now IPC :1.36436: AVG IPC :1.39351: L2-Pf-HR :0.81327: L2-HR :0.76554: (Sim:0h9m23s) 
CPU  0 inst:  124000000 cyc:   88541788 now IPC :1.36818: AVG IPC :1.39330: L2-Pf-HR :0.81325: L2-HR :0.76548: (Sim:0h9m26s) 
CPU  0 inst:  125000001 cyc:   89245055 now IPC :1.42194: AVG IPC :1.39353: L2-Pf-HR :0.81313: L2-HR :0.76547: (Sim:0h9m31s) 
CPU  0 inst:  126000001 cyc:   89951381 now IPC :1.41578: AVG IPC :1.39371: L2-Pf-HR :0.81223: L2-HR :0.76487: (Sim:0h9m35s) 
CPU  0 inst:  127000002 cyc:   90653711 now IPC :1.42383: AVG IPC :1.39394: L2-Pf-HR :0.81201: L2-HR :0.76466: (Sim:0h9m39s) 
CPU  0 inst:  128000000 cyc:   91489533 now IPC :1.19642: AVG IPC :1.39212: L2-Pf-HR :0.81088: L2-HR :0.76404: (Sim:0h9m43s) 
CPU  0 inst:  129000002 cyc:   92198397 now IPC :1.41071: AVG IPC :1.39226: L2-Pf-HR :0.81160: L2-HR :0.76454: (Sim:0h9m46s) 
CPU  0 inst:  130000001 cyc:   92906986 now IPC :1.41125: AVG IPC :1.39241: L2-Pf-HR :0.81184: L2-HR :0.76469: (Sim:0h9m50s) 
CPU  0 inst:  131000000 cyc:   93613164 now IPC :1.41607: AVG IPC :1.39259: L2-Pf-HR :0.81201: L2-HR :0.76472: (Sim:0h9m55s) 
CPU  0 inst:  132000000 cyc:   94310522 now IPC :1.43398: AVG IPC :1.39290: L2-Pf-HR :0.81263: L2-HR :0.76513: (Sim:0h10m0s) 
CPU  0 inst:  133000000 cyc:   94980410 now IPC :1.49279: AVG IPC :1.39361: L2-Pf-HR :0.81249: L2-HR :0.76509: (Sim:0h10m4s) 
CPU  0 inst:  134000003 cyc:   95649058 now IPC :1.49556: AVG IPC :1.39433: L2-Pf-HR :0.81265: L2-HR :0.76518: (Sim:0h10m9s) 
CPU  0 inst:  135000000 cyc:   96336053 now IPC :1.45561: AVG IPC :1.39477: L2-Pf-HR :0.81296: L2-HR :0.76532: (Sim:0h10m14s) 
CPU  0 inst:  136000000 cyc:   97107572 now IPC :1.29614: AVG IPC :1.39398: L2-Pf-HR :0.81311: L2-HR :0.76553: (Sim:0h10m19s) 
CPU  0 inst:  137000000 cyc:   97818273 now IPC :1.40706: AVG IPC :1.39408: L2-Pf-HR :0.81370: L2-HR :0.76589: (Sim:0h10m23s) 
CPU  0 inst:  138000002 cyc:   98515268 now IPC :1.43473: AVG IPC :1.39437: L2-Pf-HR :0.81407: L2-HR :0.76610: (Sim:0h10m26s) 
CPU  0 inst:  139000002 cyc:   99155751 now IPC :1.56132: AVG IPC :1.39546: L2-Pf-HR :0.81411: L2-HR :0.76617: (Sim:0h10m30s) 
CPU  0 inst:  140000000 cyc:   99831249 now IPC :1.48039: AVG IPC :1.39604: L2-Pf-HR :0.81430: L2-HR :0.76624: (Sim:0h10m33s) 
CPU  0 inst:  141000000 cyc:  100692535 now IPC :1.16105: AVG IPC :1.39401: L2-Pf-HR :0.81328: L2-HR :0.76566: (Sim:0h10m37s) 
CPU  0 inst:  142000002 cyc:  101420051 now IPC :1.37454: AVG IPC :1.39386: L2-Pf-HR :0.81350: L2-HR :0.76583: (Sim:0h10m42s) 
CPU  0 inst:  143000001 cyc:  102145210 now IPC :1.37901: AVG IPC :1.39376: L2-Pf-HR :0.81294: L2-HR :0.76538: (Sim:0h10m47s) 
CPU  0 inst:  144000000 cyc:  102863413 now IPC :1.39236: AVG IPC :1.39375: L2-Pf-HR :0.81291: L2-HR :0.76529: (Sim:0h10m52s) 
CPU  0 inst:  145000000 cyc:  103566906 now IPC :1.42148: AVG IPC :1.39394: L2-Pf-HR :0.81279: L2-HR :0.76527: (Sim:0h10m57s) 
CPU  0 inst:  146000000 cyc:  104268764 now IPC :1.42479: AVG IPC :1.39415: L2-Pf-HR :0.81206: L2-HR :0.76478: (Sim:0h11m2s) 
CPU  0 inst:  147000003 cyc:  104967100 now IPC :1.43198: AVG IPC :1.39440: L2-Pf-HR :0.81186: L2-HR :0.76459: (Sim:0h11m6s) 
CPU  0 inst:  148000000 cyc:  105808245 now IPC :1.18885: AVG IPC :1.39275: L2-Pf-HR :0.81097: L2-HR :0.76411: (Sim:0h11m11s) 
CPU  0 inst:  149000000 cyc:  106528551 now IPC :1.38830: AVG IPC :1.39272: L2-Pf-HR :0.81162: L2-HR :0.76456: (Sim:0h11m16s) 
CPU  0 inst:  150000001 cyc:  107245759 now IPC :1.39430: AVG IPC :1.39273: L2-Pf-HR :0.81186: L2-HR :0.76471: (Sim:0h11m21s) 
CPU  0 inst:  151000001 cyc:  107962113 now IPC :1.39596: AVG IPC :1.39276: L2-Pf-HR :0.81201: L2-HR :0.76474: (Sim:0h11m25s) 
CPU  0 inst:  152000000 cyc:  108675949 now IPC :1.40088: AVG IPC :1.39281: L2-Pf-HR :0.81256: L2-HR :0.76510: (Sim:0h11m28s) 
CPU  0 inst:  153000000 cyc:  109374543 now IPC :1.43145: AVG IPC :1.39306: L2-Pf-HR :0.81248: L2-HR :0.76508: (Sim:0h11m31s) 
CPU  0 inst:  154000001 cyc:  110062861 now IPC :1.45282: AVG IPC :1.39344: L2-Pf-HR :0.81263: L2-HR :0.76516: (Sim:0h11m34s) 
CPU  0 inst:  155000003 cyc:  110763392 now IPC :1.42749: AVG IPC :1.39365: L2-Pf-HR :0.81292: L2-HR :0.76529: (Sim:0h11m39s) 
CPU  0 inst:  156000000 cyc:  111513476 now IPC :1.33318: AVG IPC :1.39324: L2-Pf-HR :0.81306: L2-HR :0.76548: (Sim:0h11m44s) 
CPU  0 inst:  157000002 cyc:  112207115 now IPC :1.44167: AVG IPC :1.39354: L2-Pf-HR :0.81357: L2-HR :0.76578: (Sim:0h11m49s) 
CPU  0 inst:  158000000 cyc:  112884329 now IPC :1.47664: AVG IPC :1.39405: L2-Pf-HR :0.81390: L2-HR :0.76596: (Sim:0h11m54s) 
CPU  0 inst:  159000002 cyc:  113532924 now IPC :1.54180: AVG IPC :1.39490: L2-Pf-HR :0.81403: L2-HR :0.76608: (Sim:0h11m58s) 
CPU  0 inst:  160000000 cyc:  114196542 now IPC :1.50689: AVG IPC :1.39555: L2-Pf-HR :0.81423: L2-HR :0.76617: (Sim:0h12m3s) 
CPU  0 inst:  161000001 cyc:  115062741 now IPC :1.15447: AVG IPC :1.39372: L2-Pf-HR :0.81331: L2-HR :0.76565: (Sim:0h12m8s) 
CPU  0 inst:  162000003 cyc:  115792414 now IPC :1.37048: AVG IPC :1.39358: L2-Pf-HR :0.81348: L2-HR :0.76577: (Sim:0h12m13s) 
CPU  0 inst:  163000000 cyc:  116518908 now IPC :1.37647: AVG IPC :1.39347: L2-Pf-HR :0.81300: L2-HR :0.76538: (Sim:0h12m18s) 
CPU  0 inst:  164000000 cyc:  117248168 now IPC :1.37125: AVG IPC :1.39333: L2-Pf-HR :0.81297: L2-HR :0.76532: (Sim:0h12m23s) 
CPU  0 inst:  165000001 cyc:  117949283 now IPC :1.42630: AVG IPC :1.39353: L2-Pf-HR :0.81281: L2-HR :0.76526: (Sim:0h12m28s) 
CPU  0 inst:  166000003 cyc:  118660073 now IPC :1.40689: AVG IPC :1.39361: L2-Pf-HR :0.81213: L2-HR :0.76481: (Sim:0h12m33s) 
CPU  0 inst:  167000003 cyc:  119370261 now IPC :1.40808: AVG IPC :1.39369: L2-Pf-HR :0.81196: L2-HR :0.76464: (Sim:0h12m37s) 
CPU  0 inst:  168000000 cyc:  120207971 now IPC :1.19373: AVG IPC :1.39229: L2-Pf-HR :0.81116: L2-HR :0.76421: (Sim:0h12m42s) 
CPU  0 inst:  169000001 cyc:  120924666 now IPC :1.39530: AVG IPC :1.39231: L2-Pf-HR :0.81174: L2-HR :0.76461: (Sim:0h12m47s) 
CPU  0 inst:  170000002 cyc:  121640960 now IPC :1.39608: AVG IPC :1.39233: L2-Pf-HR :0.81194: L2-HR :0.76474: (Sim:0h12m52s) 
CPU  0 inst:  171000003 cyc:  122353361 now IPC :1.40371: AVG IPC :1.39240: L2-Pf-HR :0.81208: L2-HR :0.76476: (Sim:0h12m57s) 
CPU  0 inst:  172000000 cyc:  123064436 now IPC :1.40632: AVG IPC :1.39248: L2-Pf-HR :0.81259: L2-HR :0.76510: (Sim:0h13m2s) 
CPU  0 inst:  173000002 cyc:  123763002 now IPC :1.43151: AVG IPC :1.39270: L2-Pf-HR :0.81257: L2-HR :0.76513: (Sim:0h13m7s) 
CPU  0 inst:  174000001 cyc:  124459390 now IPC :1.43598: AVG IPC :1.39294: L2-Pf-HR :0.81285: L2-HR :0.76529: (Sim:0h13m10s) 
CPU  0 inst:  175000001 cyc:  125161222 now IPC :1.42484: AVG IPC :1.39312: L2-Pf-HR :0.81312: L2-HR :0.76541: (Sim:0h13m14s) 
CPU  0 inst:  176000000 cyc:  125931295 now IPC :1.29858: AVG IPC :1.39254: L2-Pf-HR :0.81322: L2-HR :0.76556: (Sim:0h13m18s) 
CPU  0 inst:  177000001 cyc:  126642874 now IPC :1.40533: AVG IPC :1.39261: L2-Pf-HR :0.81367: L2-HR :0.76583: (Sim:0h13m23s) 
CPU  0 inst:  178000003 cyc:  127331413 now IPC :1.45235: AVG IPC :1.39294: L2-Pf-HR :0.81394: L2-HR :0.76599: (Sim:0h13m28s) 
CPU  0 inst:  179000000 cyc:  127993474 now IPC :1.51043: AVG IPC :1.39355: L2-Pf-HR :0.81411: L2-HR :0.76613: (Sim:0h13m32s) 
CPU  0 inst:  180000000 cyc:  128671790 now IPC :1.47424: AVG IPC :1.39398: L2-Pf-HR :0.81434: L2-HR :0.76623: (Sim:0h13m37s) 
CPU  0 inst:  181000003 cyc:  129536210 now IPC :1.15685: AVG IPC :1.39239: L2-Pf-HR :0.81350: L2-HR :0.76574: (Sim:0h13m42s) 
CPU  0 inst:  182000002 cyc:  130263533 now IPC :1.37490: AVG IPC :1.39229: L2-Pf-HR :0.81365: L2-HR :0.76586: (Sim:0h13m47s) 
CPU  0 inst:  183000002 cyc:  130991232 now IPC :1.37419: AVG IPC :1.39219: L2-Pf-HR :0.81318: L2-HR :0.76550: (Sim:0h13m52s) 
CPU  0 inst:  184000000 cyc:  131714949 now IPC :1.38175: AVG IPC :1.39213: L2-Pf-HR :0.81325: L2-HR :0.76550: (Sim:0h13m56s) 
CPU  0 inst:  185000000 cyc:  132414475 now IPC :1.42954: AVG IPC :1.39233: L2-Pf-HR :0.81302: L2-HR :0.76540: (Sim:0h14m0s) 
CPU  0 inst:  186000001 cyc:  133117794 now IPC :1.42183: AVG IPC :1.39248: L2-Pf-HR :0.81244: L2-HR :0.76501: (Sim:0h14m3s) 
CPU  0 inst:  187000002 cyc:  133816733 now IPC :1.43074: AVG IPC :1.39269: L2-Pf-HR :0.81232: L2-HR :0.76489: (Sim:0h14m7s) 
CPU  0 inst:  188000000 cyc:  134655927 now IPC :1.19162: AVG IPC :1.39142: L2-Pf-HR :0.81144: L2-HR :0.76440: (Sim:0h14m12s) 
CPU  0 inst:  189000003 cyc:  135376371 now IPC :1.38804: AVG IPC :1.39141: L2-Pf-HR :0.81195: L2-HR :0.76476: (Sim:0h14m17s) 
CPU  0 inst:  190000003 cyc:  136096911 now IPC :1.38785: AVG IPC :1.39139: L2-Pf-HR :0.81213: L2-HR :0.76487: (Sim:0h14m21s) 
CPU  0 inst:  191000003 cyc:  136813551 now IPC :1.39540: AVG IPC :1.39141: L2-Pf-HR :0.81225: L2-HR :0.76489: (Sim:0h14m26s) 
CPU  0 inst:  192000000 cyc:  137524150 now IPC :1.40726: AVG IPC :1.39149: L2-Pf-HR :0.81269: L2-HR :0.76519: (Sim:0h14m31s) 
CPU  0 inst:  193000000 cyc:  138222140 now IPC :1.43269: AVG IPC :1.39170: L2-Pf-HR :0.81260: L2-HR :0.76517: (Sim:0h14m35s) 
CPU  0 inst:  194000000 cyc:  138914754 now IPC :1.44381: AVG IPC :1.39196: L2-Pf-HR :0.81277: L2-HR :0.76527: (Sim:0h14m40s) 
CPU  0 inst:  195000000 cyc:  139620216 now IPC :1.41751: AVG IPC :1.39209: L2-Pf-HR :0.81303: L2-HR :0.76540: (Sim:0h14m45s) 
CPU  0 inst:  196000000 cyc:  140391334 now IPC :1.29682: AVG IPC :1.39156: L2-Pf-HR :0.81310: L2-HR :0.76552: (Sim:0h14m50s) 
CPU  0 inst:  197000000 cyc:  141100139 now IPC :1.41083: AVG IPC :1.39166: L2-Pf-HR :0.81351: L2-HR :0.76577: (Sim:0h14m53s) 
CPU  0 inst:  198000001 cyc:  141789041 now IPC :1.45159: AVG IPC :1.39196: L2-Pf-HR :0.81379: L2-HR :0.76594: (Sim:0h14m57s) 
CPU  0 inst:  199000002 cyc:  142451936 now IPC :1.50854: AVG IPC :1.39250: L2-Pf-HR :0.81391: L2-HR :0.76604: (Sim:0h15m0s) 
CPU  0 inst:  200000000 cyc:  143126862 now IPC :1.48164: AVG IPC :1.39292: L2-Pf-HR :0.81408: L2-HR :0.76611: (Sim:0h15m3s) 
CPU  0 inst:  201000003 cyc:  143981414 now IPC :1.17021: AVG IPC :1.39159: L2-Pf-HR :0.81335: L2-HR :0.76568: (Sim:0h15m8s) 
CPU  0 inst:  202000002 cyc:  144709176 now IPC :1.37407: AVG IPC :1.39151: L2-Pf-HR :0.81350: L2-HR :0.76580: (Sim:0h15m12s) 
CPU  0 inst:  203000002 cyc:  145437965 now IPC :1.37214: AVG IPC :1.39141: L2-Pf-HR :0.81307: L2-HR :0.76546: (Sim:0h15m17s) 
CPU  0 inst:  204000000 cyc:  146161066 now IPC :1.38293: AVG IPC :1.39137: L2-Pf-HR :0.81311: L2-HR :0.76545: (Sim:0h15m22s) 
CPU  0 inst:  205000001 cyc:  146863113 now IPC :1.42441: AVG IPC :1.39152: L2-Pf-HR :0.81289: L2-HR :0.76535: (Sim:0h15m27s) 
CPU  0 inst:  206000000 cyc:  147570219 now IPC :1.41421: AVG IPC :1.39163: L2-Pf-HR :0.81237: L2-HR :0.76500: (Sim:0h15m32s) 
CPU  0 inst:  207000000 cyc:  148273823 now IPC :1.42125: AVG IPC :1.39178: L2-Pf-HR :0.81224: L2-HR :0.76487: (Sim:0h15m37s) 
CPU  0 inst:  208000000 cyc:  149111280 now IPC :1.19409: AVG IPC :1.39066: L2-Pf-HR :0.81145: L2-HR :0.76443: (Sim:0h15m41s) 
CPU  0 inst:  209000002 cyc:  149825245 now IPC :1.40063: AVG IPC :1.39071: L2-Pf-HR :0.81190: L2-HR :0.76474: (Sim:0h15m46s) 
CPU  0 inst:  210000001 cyc:  150538095 now IPC :1.40282: AVG IPC :1.39076: L2-Pf-HR :0.81205: L2-HR :0.76484: (Sim:0h15m51s) 
CPU  0 inst:  211000002 cyc:  151247884 now IPC :1.40887: AVG IPC :1.39085: L2-Pf-HR :0.81217: L2-HR :0.76487: (Sim:0h15m56s) 
CPU  0 inst:  212000000 cyc:  151944637 now IPC :1.43523: AVG IPC :1.39105: L2-Pf-HR :0.81253: L2-HR :0.76511: (Sim:0h16m1s) 
CPU  0 inst:  213000001 cyc:  152623452 now IPC :1.47316: AVG IPC :1.39142: L2-Pf-HR :0.81245: L2-HR :0.76508: (Sim:0h16m5s) 
CPU  0 inst:  214000002 cyc:  153310425 now IPC :1.45566: AVG IPC :1.39171: L2-Pf-HR :0.81260: L2-HR :0.76516: (Sim:0h16m10s) 
CPU  0 inst:  215000003 cyc:  154003217 now IPC :1.44344: AVG IPC :1.39194: L2-Pf-HR :0.81282: L2-HR :0.76527: (Sim:0h16m15s) 
CPU  0 inst:  216000000 cyc:  154768107 now IPC :1.30737: AVG IPC :1.39152: L2-Pf-HR :0.81290: L2-HR :0.76539: (Sim:0h16m20s) 
CPU  0 inst:  217000001 cyc:  155478680 now IPC :1.40732: AVG IPC :1.39160: L2-Pf-HR :0.81326: L2-HR :0.76559: (Sim:0h16m24s) 
CPU  0 inst:  218000002 cyc:  156158256 now IPC :1.47151: AVG IPC :1.39195: L2-Pf-HR :0.81346: L2-HR :0.76570: (Sim:0h16m29s) 
CPU  0 inst:  219000000 cyc:  156822752 now IPC :1.50490: AVG IPC :1.39243: L2-Pf-HR :0.81356: L2-HR :0.76579: (Sim:0h16m34s) 
CPU  0 inst:  220000000 cyc:  157502228 now IPC :1.47172: AVG IPC :1.39277: L2-Pf-HR :0.81369: L2-HR :0.76584: (Sim:0h16m39s) 
CPU  0 inst:  221000001 cyc:  158359487 now IPC :1.16651: AVG IPC :1.39154: L2-Pf-HR :0.81308: L2-HR :0.76550: (Sim:0h16m44s) 
CPU  0 inst:  222000001 cyc:  159090443 now IPC :1.36807: AVG IPC :1.39143: L2-Pf-HR :0.81318: L2-HR :0.76557: (Sim:0h16m48s) 
CPU  0 inst:  223000001 cyc:  159813186 now IPC :1.38362: AVG IPC :1.39140: L2-Pf-HR :0.81283: L2-HR :0.76529: (Sim:0h16m52s) 
CPU  0 inst:  224000000 cyc:  160541360 now IPC :1.37330: AVG IPC :1.39131: L2-Pf-HR :0.81284: L2-HR :0.76526: (Sim:0h16m56s) 
CPU  0 inst:  225000003 cyc:  161234310 now IPC :1.44311: AVG IPC :1.39154: L2-Pf-HR :0.81265: L2-HR :0.76517: (Sim:0h17m1s) 
CPU  0 inst:  226000001 cyc:  161931508 now IPC :1.43431: AVG IPC :1.39172: L2-Pf-HR :0.81217: L2-HR :0.76485: (Sim:0h17m6s) 
CPU  0 inst:  227000000 cyc:  162623136 now IPC :1.44586: AVG IPC :1.39195: L2-Pf-HR :0.81205: L2-HR :0.76472: (Sim:0h17m11s) 
CPU  0 inst:  228000000 cyc:  163465474 now IPC :1.18717: AVG IPC :1.39089: L2-Pf-HR :0.81144: L2-HR :0.76439: (Sim:0h17m16s) 
CPU  0 inst:  229000000 cyc:  164183148 now IPC :1.39339: AVG IPC :1.39090: L2-Pf-HR :0.81185: L2-HR :0.76467: (Sim:0h17m21s) 
CPU  0 inst:  230000002 cyc:  164896999 now IPC :1.40086: AVG IPC :1.39095: L2-Pf-HR :0.81199: L2-HR :0.76476: (Sim:0h17m26s) 
CPU  0 inst:  231000003 cyc:  165610081 now IPC :1.40236: AVG IPC :1.39100: L2-Pf-HR :0.81210: L2-HR :0.76479: (Sim:0h17m31s) 
CPU  0 inst:  232000000 cyc:  166319771 now IPC :1.40906: AVG IPC :1.39107: L2-Pf-HR :0.81249: L2-HR :0.76504: (Sim:0h17m36s) 
CPU  0 inst:  233000003 cyc:  167013749 now IPC :1.44097: AVG IPC :1.39128: L2-Pf-HR :0.81244: L2-HR :0.76504: (Sim:0h17m40s) 
CPU  0 inst:  234000003 cyc:  167701789 now IPC :1.45340: AVG IPC :1.39154: L2-Pf-HR :0.81263: L2-HR :0.76515: (Sim:0h17m45s) 
CPU  0 inst:  235000000 cyc:  168401344 now IPC :1.42948: AVG IPC :1.39170: L2-Pf-HR :0.81283: L2-HR :0.76524: (Sim:0h17m49s) 
CPU  0 inst:  236000000 cyc:  169168177 now IPC :1.30406: AVG IPC :1.39130: L2-Pf-HR :0.81293: L2-HR :0.76536: (Sim:0h17m53s) 
CPU  0 inst:  237000003 cyc:  169881139 now IPC :1.40260: AVG IPC :1.39135: L2-Pf-HR :0.81326: L2-HR :0.76556: (Sim:0h17m56s) 
CPU  0 inst:  238000003 cyc:  170566981 now IPC :1.45806: AVG IPC :1.39162: L2-Pf-HR :0.81346: L2-HR :0.76568: (Sim:0h18m0s) 
CPU  0 inst:  239000003 cyc:  171231579 now IPC :1.50467: AVG IPC :1.39206: L2-Pf-HR :0.81359: L2-HR :0.76578: (Sim:0h18m3s) 
CPU  0 inst:  240000000 cyc:  171910271 now IPC :1.47342: AVG IPC :1.39238: L2-Pf-HR :0.81375: L2-HR :0.76585: (Sim:0h18m7s) 
CPU  0 inst:  241000003 cyc:  172769586 now IPC :1.16372: AVG IPC :1.39124: L2-Pf-HR :0.81313: L2-HR :0.76549: (Sim:0h18m10s) 
CPU  0 inst:  242000000 cyc:  173501707 now IPC :1.36589: AVG IPC :1.39113: L2-Pf-HR :0.81322: L2-HR :0.76556: (Sim:0h18m14s) 
CPU  0 inst:  243000003 cyc:  174224278 now IPC :1.38395: AVG IPC :1.39110: L2-Pf-HR :0.81286: L2-HR :0.76529: (Sim:0h18m17s) 
CPU  0 inst:  244000000 cyc:  174940649 now IPC :1.39592: AVG IPC :1.39112: L2-Pf-HR :0.81292: L2-HR :0.76530: (Sim:0h18m21s) 
CPU  0 inst:  245000002 cyc:  175644371 now IPC :1.42102: AVG IPC :1.39124: L2-Pf-HR :0.81277: L2-HR :0.76524: (Sim:0h18m26s) 
CPU  0 inst:  246000001 cyc:  176349963 now IPC :1.41725: AVG IPC :1.39134: L2-Pf-HR :0.81235: L2-HR :0.76496: (Sim:0h18m31s) 
CPU  0 inst:  247000001 cyc:  177046945 now IPC :1.43476: AVG IPC :1.39152: L2-Pf-HR :0.81226: L2-HR :0.76486: (Sim:0h18m35s) 
CPU  0 inst:  248000000 cyc:  177888249 now IPC :1.18863: AVG IPC :1.39055: L2-Pf-HR :0.81161: L2-HR :0.76450: (Sim:0h18m40s) 
CPU  0 inst:  249000001 cyc:  178607321 now IPC :1.39068: AVG IPC :1.39055: L2-Pf-HR :0.81198: L2-HR :0.76476: (Sim:0h18m45s) 
CPU  0 inst:  250000001 cyc:  179324644 now IPC :1.39407: AVG IPC :1.39057: L2-Pf-HR :0.81211: L2-HR :0.76484: (Sim:0h18m50s) 
CPU  0 inst:  251000001 cyc:  180040203 now IPC :1.39751: AVG IPC :1.39059: L2-Pf-HR :0.81222: L2-HR :0.76487: (Sim:0h18m55s) 
CPU  0 inst:  252000000 cyc:  180746772 now IPC :1.41529: AVG IPC :1.39069: L2-Pf-HR :0.81257: L2-HR :0.76511: (Sim:0h19m1s) 
CPU  0 inst:  253000002 cyc:  181442904 now IPC :1.43651: AVG IPC :1.39087: L2-Pf-HR :0.81253: L2-HR :0.76511: (Sim:0h19m6s) 
CPU  0 inst:  254000001 cyc:  182129438 now IPC :1.45659: AVG IPC :1.39112: L2-Pf-HR :0.81268: L2-HR :0.76520: (Sim:0h19m10s) 
CPU  0 inst:  255000000 cyc:  182831201 now IPC :1.42498: AVG IPC :1.39125: L2-Pf-HR :0.81289: L2-HR :0.76531: (Sim:0h19m15s) 
CPU  0 inst:  256000000 cyc:  183587129 now IPC :1.32288: AVG IPC :1.39096: L2-Pf-HR :0.81295: L2-HR :0.76541: (Sim:0h19m19s) 
CPU  0 inst:  257000002 cyc:  184293077 now IPC :1.41654: AVG IPC :1.39106: L2-Pf-HR :0.81325: L2-HR :0.76558: (Sim:0h19m24s) 
CPU  0 inst:  258000000 cyc:  184974439 now IPC :1.46765: AVG IPC :1.39135: L2-Pf-HR :0.81345: L2-HR :0.76570: (Sim:0h19m28s) 
CPU  0 inst:  259000000 cyc:  185632203 now IPC :1.52030: AVG IPC :1.39181: L2-Pf-HR :0.81355: L2-HR :0.76578: (Sim:0h19m33s) 
CPU  0 inst:  260000000 cyc:  186322677 now IPC :1.44828: AVG IPC :1.39202: L2-Pf-HR :0.81368: L2-HR :0.76584: (Sim:0h19m38s) 
CPU  0 inst:  261000001 cyc:  187168001 now IPC :1.18298: AVG IPC :1.39107: L2-Pf-HR :0.81317: L2-HR :0.76555: (Sim:0h19m43s) 
CPU  0 inst:  262000003 cyc:  187900120 now IPC :1.36590: AVG IPC :1.39097: L2-Pf-HR :0.81327: L2-HR :0.76562: (Sim:0h19m48s) 
CPU  0 inst:  263000003 cyc:  188625256 now IPC :1.37905: AVG IPC :1.39092: L2-Pf-HR :0.81292: L2-HR :0.76535: (Sim:0h19m52s) 
CPU  0 inst:  264000000 cyc:  189346332 now IPC :1.38681: AVG IPC :1.39091: L2-Pf-HR :0.81296: L2-HR :0.76535: (Sim:0h19m57s) 
CPU  0 inst:  265000001 cyc:  190050664 now IPC :1.41979: AVG IPC :1.39101: L2-Pf-HR :0.81287: L2-HR :0.76531: (Sim:0h20m2s) 
CPU  0 inst:  266000001 cyc:  190759173 now IPC :1.41141: AVG IPC :1.39109: L2-Pf-HR :0.81249: L2-HR :0.76506: (Sim:0h20m7s) 
CPU  0 inst:  267000003 cyc:  191461636 now IPC :1.42357: AVG IPC :1.39121: L2-Pf-HR :0.81242: L2-HR :0.76498: (Sim:0h20m12s) 
CPU  0 inst:  268000000 cyc:  192297783 now IPC :1.19596: AVG IPC :1.39036: L2-Pf-HR :0.81185: L2-HR :0.76466: (Sim:0h20m17s) 
CPU  0 inst:  269000001 cyc:  193019526 now IPC :1.38554: AVG IPC :1.39034: L2-Pf-HR :0.81220: L2-HR :0.76491: (Sim:0h20m21s) 
CPU  0 inst:  270000003 cyc:  193738274 now IPC :1.39131: AVG IPC :1.39034: L2-Pf-HR :0.81231: L2-HR :0.76498: (Sim:0h20m26s) 
CPU  0 inst:  271000001 cyc:  194455416 now IPC :1.39442: AVG IPC :1.39036: L2-Pf-HR :0.81241: L2-HR :0.76501: (Sim:0h20m31s) 
CPU  0 inst:  272000000 cyc:  195166652 now IPC :1.40600: AVG IPC :1.39041: L2-Pf-HR :0.81270: L2-HR :0.76520: (Sim:0h20m36s) 
CPU  0 inst:  273000001 cyc:  195865410 now IPC :1.43111: AVG IPC :1.39056: L2-Pf-HR :0.81263: L2-HR :0.76517: (Sim:0h20m40s) 
CPU  0 inst:  274000003 cyc:  196557138 now IPC :1.44566: AVG IPC :1.39075: L2-Pf-HR :0.81273: L2-HR :0.76523: (Sim:0h20m45s) 
CPU  0 inst:  275000003 cyc:  197266275 now IPC :1.41016: AVG IPC :1.39083: L2-Pf-HR :0.81290: L2-HR :0.76530: (Sim:0h20m50s) 
CPU  0 inst:  276000000 cyc:  198031095 now IPC :1.30749: AVG IPC :1.39050: L2-Pf-HR :0.81298: L2-HR :0.76541: (Sim:0h20m55s) 
CPU  0 inst:  277000001 cyc:  198742129 now IPC :1.40640: AVG IPC :1.39056: L2-Pf-HR :0.81326: L2-HR :0.76558: (Sim:0h20m59s) 
CPU  0 inst:  278000003 cyc:  199428913 now IPC :1.45606: AVG IPC :1.39079: L2-Pf-HR :0.81345: L2-HR :0.76568: (Sim:0h21m4s) 
CPU  0 inst:  279000000 cyc:  200095456 now IPC :1.50027: AVG IPC :1.39115: L2-Pf-HR :0.81354: L2-HR :0.76576: (Sim:0h21m9s) 
CPU  0 inst:  280000000 cyc:  200805876 now IPC :1.40762: AVG IPC :1.39121: L2-Pf-HR :0.81363: L2-HR :0.76580: (Sim:0h21m14s) 
CPU  0 inst:  281000003 cyc:  201632197 now IPC :1.21019: AVG IPC :1.39047: L2-Pf-HR :0.81315: L2-HR :0.76553: (Sim:0h21m18s) 
CPU  0 inst:  282000002 cyc:  202356342 now IPC :1.38094: AVG IPC :1.39043: L2-Pf-HR :0.81325: L2-HR :0.76560: (Sim:0h21m23s) 
CPU  0 inst:  283000003 cyc:  203071889 now IPC :1.39753: AVG IPC :1.39046: L2-Pf-HR :0.81291: L2-HR :0.76533: (Sim:0h21m28s) 
CPU  0 inst:  284000000 cyc:  203790730 now IPC :1.39112: AVG IPC :1.39046: L2-Pf-HR :0.81296: L2-HR :0.76534: (Sim:0h21m33s) 
CPU  0 inst:  285000000 cyc:  204473173 now IPC :1.46532: AVG IPC :1.39071: L2-Pf-HR :0.81281: L2-HR :0.76528: (Sim:0h21m38s) 
CPU  0 inst:  286000002 cyc:  205165153 now IPC :1.44513: AVG IPC :1.39089: L2-Pf-HR :0.81244: L2-HR :0.76503: (Sim:0h21m42s) 
CPU  0 inst:  287000003 cyc:  205859060 now IPC :1.44112: AVG IPC :1.39106: L2-Pf-HR :0.81235: L2-HR :0.76493: (Sim:0h21m46s) 
CPU  0 inst:  288000000 cyc:  206686486 now IPC :1.20856: AVG IPC :1.39033: L2-Pf-HR :0.81181: L2-HR :0.76463: (Sim:0h21m49s) 
CPU  0 inst:  289000001 cyc:  207394707 now IPC :1.41199: AVG IPC :1.39040: L2-Pf-HR :0.81214: L2-HR :0.76486: (Sim:0h21m52s) 
CPU  0 inst:  290000001 cyc:  208100116 now IPC :1.41762: AVG IPC :1.39050: L2-Pf-HR :0.81223: L2-HR :0.76492: (Sim:0h21m56s) 
CPU  0 inst:  291000000 cyc:  208801712 now IPC :1.42532: AVG IPC :1.39061: L2-Pf-HR :0.81233: L2-HR :0.76494: (Sim:0h22m1s) 
CPU  0 inst:  292000000 cyc:  209501338 now IPC :1.42934: AVG IPC :1.39074: L2-Pf-HR :0.81263: L2-HR :0.76514: (Sim:0h22m5s) 
CPU  0 inst:  293000001 cyc:  210190304 now IPC :1.45145: AVG IPC :1.39094: L2-Pf-HR :0.81257: L2-HR :0.76513: (Sim:0h22m10s) 
CPU  0 inst:  294000001 cyc:  210872626 now IPC :1.46558: AVG IPC :1.39119: L2-Pf-HR :0.81271: L2-HR :0.76521: (Sim:0h22m15s) 
CPU  0 inst:  295000000 cyc:  211570770 now IPC :1.43237: AVG IPC :1.39132: L2-Pf-HR :0.81287: L2-HR :0.76529: (Sim:0h22m19s) 
CPU  0 inst:  296000000 cyc:  212338727 now IPC :1.30216: AVG IPC :1.39100: L2-Pf-HR :0.81293: L2-HR :0.76537: (Sim:0h22m24s) 
CPU  0 inst:  297000003 cyc:  213049733 now IPC :1.40646: AVG IPC :1.39105: L2-Pf-HR :0.81319: L2-HR :0.76552: (Sim:0h22m29s) 
CPU  0 inst:  298000000 cyc:  213736250 now IPC :1.45662: AVG IPC :1.39126: L2-Pf-HR :0.81336: L2-HR :0.76563: (Sim:0h22m33s) 
CPU  0 inst:  299000003 cyc:  214408311 now IPC :1.48796: AVG IPC :1.39157: L2-Pf-HR :0.81349: L2-HR :0.76572: (Sim:0h22m38s) 
CPU  0 inst:  300000000 cyc:  215128964 now IPC :1.38763: AVG IPC :1.39155: L2-Pf-HR :0.81356: L2-HR :0.76576: (Sim:0h22m43s) 
CPU  0 inst:  301000000 cyc:  215951065 now IPC :1.21640: AVG IPC :1.39088: L2-Pf-HR :0.81315: L2-HR :0.76551: (Sim:0h22m48s) 
CPU  0 inst:  302000000 cyc:  216682766 now IPC :1.36668: AVG IPC :1.39080: L2-Pf-HR :0.81323: L2-HR :0.76558: (Sim:0h22m52s) 
CPU  0 inst:  303000001 cyc:  217408458 now IPC :1.37800: AVG IPC :1.39076: L2-Pf-HR :0.81293: L2-HR :0.76535: (Sim:0h22m57s) 
CPU  0 inst:  304000000 cyc:  218129496 now IPC :1.38689: AVG IPC :1.39075: L2-Pf-HR :0.81295: L2-HR :0.76534: (Sim:0h23m2s) 
CPU  0 inst:  305000002 cyc:  218823335 now IPC :1.44126: AVG IPC :1.39091: L2-Pf-HR :0.81284: L2-HR :0.76530: (Sim:0h23m7s) 
CPU  0 inst:  306000003 cyc:  219539095 now IPC :1.39712: AVG IPC :1.39093: L2-Pf-HR :0.81252: L2-HR :0.76508: (Sim:0h23m11s) 
CPU  0 inst:  307000002 cyc:  220242428 now IPC :1.42180: AVG IPC :1.39103: L2-Pf-HR :0.81247: L2-HR :0.76501: (Sim:0h23m16s) 
CPU  0 inst:  308000000 cyc:  221088930 now IPC :1.18133: AVG IPC :1.39022: L2-Pf-HR :0.81203: L2-HR :0.76477: (Sim:0h23m21s) 
CPU  0 inst:  309000000 cyc:  221806612 now IPC :1.39337: AVG IPC :1.39023: L2-Pf-HR :0.81234: L2-HR :0.76499: (Sim:0h23m26s) 
CPU  0 inst:  310000001 cyc:  222519810 now IPC :1.40214: AVG IPC :1.39027: L2-Pf-HR :0.81242: L2-HR :0.76504: (Sim:0h23m30s) 
CPU  0 inst:  311000002 cyc:  223230439 now IPC :1.40721: AVG IPC :1.39032: L2-Pf-HR :0.81252: L2-HR :0.76507: (Sim:0h23m35s) 
CPU  0 inst:  312000000 cyc:  223935528 now IPC :1.41826: AVG IPC :1.39041: L2-Pf-HR :0.81278: L2-HR :0.76525: (Sim:0h23m40s) 
CPU  0 inst:  313000002 cyc:  224632379 now IPC :1.43503: AVG IPC :1.39055: L2-Pf-HR :0.81272: L2-HR :0.76524: (Sim:0h23m44s) 
CPU  0 inst:  314000003 cyc:  225325049 now IPC :1.44369: AVG IPC :1.39071: L2-Pf-HR :0.81284: L2-HR :0.76531: (Sim:0h23m49s) 
CPU  0 inst:  315000000 cyc:  226034448 now IPC :1.40964: AVG IPC :1.39077: L2-Pf-HR :0.81299: L2-HR :0.76538: (Sim:0h23m54s) 
CPU  0 inst:  316000000 cyc:  226780841 now IPC :1.33978: AVG IPC :1.39061: L2-Pf-HR :0.81306: L2-HR :0.76547: (Sim:0h23m59s) 
CPU  0 inst:  317000000 cyc:  227477421 now IPC :1.43559: AVG IPC :1.39074: L2-Pf-HR :0.81329: L2-HR :0.76561: (Sim:0h24m3s) 
CPU  0 inst:  318000002 cyc:  228150242 now IPC :1.48628: AVG IPC :1.39103: L2-Pf-HR :0.81345: L2-HR :0.76570: (Sim:0h24m8s) 
CPU  0 inst:  319000000 cyc:  228802430 now IPC :1.53330: AVG IPC :1.39143: L2-Pf-HR :0.81352: L2-HR :0.76576: (Sim:0h24m12s) 
CPU  0 inst:  320000000 cyc:  229522221 now IPC :1.38929: AVG IPC :1.39143: L2-Pf-HR :0.81355: L2-HR :0.76578: (Sim:0h24m16s) 
CPU  0 inst:  321000001 cyc:  230333344 now IPC :1.23286: AVG IPC :1.39087: L2-Pf-HR :0.81323: L2-HR :0.76559: (Sim:0h24m21s) 
CPU  0 inst:  322000000 cyc:  231060948 now IPC :1.37437: AVG IPC :1.39081: L2-Pf-HR :0.81334: L2-HR :0.76567: (Sim:0h24m26s) 
CPU  0 inst:  323000003 cyc:  231782807 now IPC :1.38532: AVG IPC :1.39080: L2-Pf-HR :0.81309: L2-HR :0.76547: (Sim:0h24m30s) 
CPU  0 inst:  324000000 cyc:  232503110 now IPC :1.38830: AVG IPC :1.39079: L2-Pf-HR :0.81310: L2-HR :0.76545: (Sim:0h24m34s) 
CPU  0 inst:  325000000 cyc:  233185517 now IPC :1.46540: AVG IPC :1.39101: L2-Pf-HR :0.81293: L2-HR :0.76537: (Sim:0h24m38s) 
CPU  0 inst:  326000001 cyc:  233891237 now IPC :1.41699: AVG IPC :1.39109: L2-Pf-HR :0.81261: L2-HR :0.76515: (Sim:0h24m42s) 
CPU  0 inst:  327000000 cyc:  234581794 now IPC :1.44810: AVG IPC :1.39126: L2-Pf-HR :0.81253: L2-HR :0.76506: (Sim:0h24m47s) 
CPU  0 inst:  328000000 cyc:  235420544 now IPC :1.19225: AVG IPC :1.39054: L2-Pf-HR :0.81207: L2-HR :0.76481: (Sim:0h24m51s) 
CPU  0 inst:  329000003 cyc:  236138577 now IPC :1.39270: AVG IPC :1.39055: L2-Pf-HR :0.81235: L2-HR :0.76501: (Sim:0h24m56s) 
CPU  0 inst:  330000003 cyc:  236853538 now IPC :1.39868: AVG IPC :1.39058: L2-Pf-HR :0.81243: L2-HR :0.76506: (Sim:0h25m1s) 
CPU  0 inst:  331000001 cyc:  237567085 now IPC :1.40145: AVG IPC :1.39061: L2-Pf-HR :0.81252: L2-HR :0.76509: (Sim:0h25m5s) 
CPU  0 inst:  332000000 cyc:  238274493 now IPC :1.41361: AVG IPC :1.39068: L2-Pf-HR :0.81278: L2-HR :0.76526: (Sim:0h25m10s) 
CPU  0 inst:  333000002 cyc:  238968606 now IPC :1.44069: AVG IPC :1.39082: L2-Pf-HR :0.81272: L2-HR :0.76524: (Sim:0h25m15s) 
CPU  0 inst:  334000002 cyc:  239668257 now IPC :1.42928: AVG IPC :1.39094: L2-Pf-HR :0.81287: L2-HR :0.76532: (Sim:0h25m20s) 
CPU  0 inst:  335000003 cyc:  240384153 now IPC :1.39685: AVG IPC :1.39095: L2-Pf-HR :0.81300: L2-HR :0.76538: (Sim:0h25m25s) 
CPU  0 inst:  336000000 cyc:  241139011 now IPC :1.32475: AVG IPC :1.39074: L2-Pf-HR :0.81309: L2-HR :0.76548: (Sim:0h25m30s) 
CPU  0 inst:  337000000 cyc:  241851049 now IPC :1.40442: AVG IPC :1.39079: L2-Pf-HR :0.81332: L2-HR :0.76561: (Sim:0h25m35s) 
CPU  0 inst:  338000002 cyc:  242538037 now IPC :1.45563: AVG IPC :1.39097: L2-Pf-HR :0.81346: L2-HR :0.76570: (Sim:0h25m40s) 
CPU  0 inst:  339000000 cyc:  243198871 now IPC :1.51324: AVG IPC :1.39130: L2-Pf-HR :0.81350: L2-HR :0.76574: (Sim:0h25m44s) 
CPU  0 inst:  340000000 cyc:  243944177 now IPC :1.34173: AVG IPC :1.39115: L2-Pf-HR :0.81348: L2-HR :0.76573: (Sim:0h25m49s) 
CPU  0 inst:  341000003 cyc:  244732261 now IPC :1.26890: AVG IPC :1.39076: L2-Pf-HR :0.81320: L2-HR :0.76556: (Sim:0h25m54s) 
CPU  0 inst:  342000002 cyc:  245452964 now IPC :1.38753: AVG IPC :1.39075: L2-Pf-HR :0.81322: L2-HR :0.76558: (Sim:0h25m59s) 
CPU  0 inst:  343000003 cyc:  246164176 now IPC :1.40605: AVG IPC :1.39079: L2-Pf-HR :0.81300: L2-HR :0.76540: (Sim:0h26m4s) 
CPU  0 inst:  344000000 cyc:  246873431 now IPC :1.40993: AVG IPC :1.39085: L2-Pf-HR :0.81300: L2-HR :0.76537: (Sim:0h26m9s) 
CPU  0 inst:  345000003 cyc:  247555049 now IPC :1.46710: AVG IPC :1.39106: L2-Pf-HR :0.81291: L2-HR :0.76533: (Sim:0h26m13s) 
CPU  0 inst:  346000001 cyc:  248252637 now IPC :1.43351: AVG IPC :1.39118: L2-Pf-HR :0.81258: L2-HR :0.76511: (Sim:0h26m18s) 
CPU  0 inst:  347000002 cyc:  248937824 now IPC :1.45946: AVG IPC :1.39137: L2-Pf-HR :0.81250: L2-HR :0.76503: (Sim:0h26m23s) 
CPU  0 inst:  348000000 cyc:  249770835 now IPC :1.20046: AVG IPC :1.39073: L2-Pf-HR :0.81213: L2-HR :0.76484: (Sim:0h26m28s) 
CPU  0 inst:  349000001 cyc:  250490304 now IPC :1.38992: AVG IPC :1.39072: L2-Pf-HR :0.81240: L2-HR :0.76503: (Sim:0h26m33s) 
CPU  0 inst:  350000002 cyc:  251207294 now IPC :1.39472: AVG IPC :1.39074: L2-Pf-HR :0.81248: L2-HR :0.76507: (Sim:0h26m37s) 
CPU  0 inst:  351000003 cyc:  251919183 now IPC :1.40471: AVG IPC :1.39077: L2-Pf-HR :0.81257: L2-HR :0.76510: (Sim:0h26m42s) 
CPU  0 inst:  352000000 cyc:  252629397 now IPC :1.40802: AVG IPC :1.39082: L2-Pf-HR :0.81282: L2-HR :0.76527: (Sim:0h26m47s) 
CPU  0 inst:  353000003 cyc:  253332101 now IPC :1.42308: AVG IPC :1.39091: L2-Pf-HR :0.81278: L2-HR :0.76527: (Sim:0h26m51s) 
CPU  0 inst:  354000001 cyc:  254027288 now IPC :1.43846: AVG IPC :1.39104: L2-Pf-HR :0.81290: L2-HR :0.76534: (Sim:0h26m55s) 
CPU  0 inst:  355000003 cyc:  254744323 now IPC :1.39463: AVG IPC :1.39105: L2-Pf-HR :0.81297: L2-HR :0.76537: (Sim:0h26m58s) 
CPU  0 inst:  356000000 cyc:  255503982 now IPC :1.31638: AVG IPC :1.39083: L2-Pf-HR :0.81310: L2-HR :0.76548: (Sim:0h27m3s) 
CPU  0 inst:  357000003 cyc:  256217452 now IPC :1.40160: AVG IPC :1.39086: L2-Pf-HR :0.81331: L2-HR :0.76561: (Sim:0h27m6s) 
CPU  0 inst:  358000001 cyc:  256910187 now IPC :1.44355: AVG IPC :1.39100: L2-Pf-HR :0.81346: L2-HR :0.76570: (Sim:0h27m9s) 
CPU  0 inst:  359000001 cyc:  257575710 now IPC :1.50258: AVG IPC :1.39129: L2-Pf-HR :0.81353: L2-HR :0.76575: (Sim:0h27m14s) 
CPU  0 inst:  360000000 cyc:  258333866 now IPC :1.31899: AVG IPC :1.39108: L2-Pf-HR :0.81348: L2-HR :0.76573: (Sim:0h27m19s) 
CPU  0 inst:  361000002 cyc:  259113626 now IPC :1.28245: AVG IPC :1.39075: L2-Pf-HR :0.81326: L2-HR :0.76559: (Sim:0h27m23s) 
CPU  0 inst:  362000001 cyc:  259839598 now IPC :1.37746: AVG IPC :1.39071: L2-Pf-HR :0.81330: L2-HR :0.76563: (Sim:0h27m28s) 
CPU  0 inst:  363000001 cyc:  260557281 now IPC :1.39337: AVG IPC :1.39072: L2-Pf-HR :0.81307: L2-HR :0.76545: (Sim:0h27m33s) 
CPU  0 inst:  364000000 cyc:  261268138 now IPC :1.40675: AVG IPC :1.39077: L2-Pf-HR :0.81309: L2-HR :0.76544: (Sim:0h27m38s) 
CPU  0 inst:  365000001 cyc:  261954839 now IPC :1.45624: AVG IPC :1.39094: L2-Pf-HR :0.81295: L2-HR :0.76538: (Sim:0h27m41s) 
CPU  0 inst:  366000000 cyc:  262659175 now IPC :1.41978: AVG IPC :1.39102: L2-Pf-HR :0.81267: L2-HR :0.76518: (Sim:0h27m46s) 
CPU  0 inst:  367000002 cyc:  263351312 now IPC :1.44480: AVG IPC :1.39116: L2-Pf-HR :0.81261: L2-HR :0.76512: (Sim:0h27m51s) 
CPU  0 inst:  368000000 cyc:  264182285 now IPC :1.20341: AVG IPC :1.39056: L2-Pf-HR :0.81226: L2-HR :0.76493: (Sim:0h27m55s) 
CPU  0 inst:  369000000 cyc:  264884815 now IPC :1.42343: AVG IPC :1.39065: L2-Pf-HR :0.81252: L2-HR :0.76512: (Sim:0h28m0s) 
CPU  0 inst:  370000002 cyc:  265586817 now IPC :1.42450: AVG IPC :1.39074: L2-Pf-HR :0.81258: L2-HR :0.76515: (Sim:0h28m5s) 
CPU  0 inst:  371000003 cyc:  266284783 now IPC :1.43274: AVG IPC :1.39085: L2-Pf-HR :0.81267: L2-HR :0.76519: (Sim:0h28m10s) 
CPU  0 inst:  372000000 cyc:  266978036 now IPC :1.44247: AVG IPC :1.39099: L2-Pf-HR :0.81289: L2-HR :0.76533: (Sim:0h28m15s) 
CPU  0 inst:  373000002 cyc:  267656524 now IPC :1.47387: AVG IPC :1.39120: L2-Pf-HR :0.81281: L2-HR :0.76530: (Sim:0h28m20s) 
CPU  0 inst:  374000000 cyc:  268335713 now IPC :1.47234: AVG IPC :1.39140: L2-Pf-HR :0.81292: L2-HR :0.76537: (Sim:0h28m25s) 
CPU  0 inst:  375000002 cyc:  269044357 now IPC :1.41115: AVG IPC :1.39146: L2-Pf-HR :0.81295: L2-HR :0.76538: (Sim:0h28m29s) 
CPU  0 inst:  376000000 cyc:  269797129 now IPC :1.32842: AVG IPC :1.39128: L2-Pf-HR :0.81310: L2-HR :0.76550: (Sim:0h28m34s) 
CPU  0 inst:  377000000 cyc:  270509330 now IPC :1.40410: AVG IPC :1.39131: L2-Pf-HR :0.81331: L2-HR :0.76563: (Sim:0h28m39s) 
CPU  0 inst:  378000002 cyc:  271195902 now IPC :1.45651: AVG IPC :1.39148: L2-Pf-HR :0.81342: L2-HR :0.76570: (Sim:0h28m44s) 
CPU  0 inst:  379000000 cyc:  271833901 now IPC :1.56740: AVG IPC :1.39189: L2-Pf-HR :0.81343: L2-HR :0.76572: (Sim:0h28m49s) 
CPU  0 inst:  380000000 cyc:  272601109 now IPC :1.30343: AVG IPC :1.39164: L2-Pf-HR :0.81333: L2-HR :0.76567: (Sim:0h28m54s) 
CPU  0 inst:  381000001 cyc:  273373153 now IPC :1.29526: AVG IPC :1.39137: L2-Pf-HR :0.81318: L2-HR :0.76556: (Sim:0h28m58s) 
CPU  0 inst:  382000002 cyc:  274103396 now IPC :1.36941: AVG IPC :1.39131: L2-Pf-HR :0.81322: L2-HR :0.76559: (Sim:0h29m3s) 
CPU  0 inst:  383000003 cyc:  274830215 now IPC :1.37586: AVG IPC :1.39127: L2-Pf-HR :0.81301: L2-HR :0.76542: (Sim:0h29m8s) 
CPU  0 inst:  384000000 cyc:  275552672 now IPC :1.38416: AVG IPC :1.39125: L2-Pf-HR :0.81304: L2-HR :0.76542: (Sim:0h29m13s) 
CPU  0 inst:  385000000 cyc:  276259007 now IPC :1.41576: AVG IPC :1.39132: L2-Pf-HR :0.81295: L2-HR :0.76538: (Sim:0h29m18s) 
CPU  0 inst:  386000002 cyc:  276962033 now IPC :1.42243: AVG IPC :1.39139: L2-Pf-HR :0.81267: L2-HR :0.76519: (Sim:0h29m23s) 
CPU  0 inst:  387000003 cyc:  277665191 now IPC :1.42216: AVG IPC :1.39147: L2-Pf-HR :0.81263: L2-HR :0.76514: (Sim:0h29m28s) 
CPU  0 inst:  388000000 cyc:  278503289 now IPC :1.19317: AVG IPC :1.39087: L2-Pf-HR :0.81229: L2-HR :0.76496: (Sim:0h29m33s) 
CPU  0 inst:  389000003 cyc:  279216259 now IPC :1.40259: AVG IPC :1.39090: L2-Pf-HR :0.81253: L2-HR :0.76513: (Sim:0h29m38s) 
CPU  0 inst:  390000000 cyc:  279927555 now IPC :1.40588: AVG IPC :1.39094: L2-Pf-HR :0.81259: L2-HR :0.76516: (Sim:0h29m43s) 
CPU  0 inst:  391000001 cyc:  280637320 now IPC :1.40892: AVG IPC :1.39099: L2-Pf-HR :0.81267: L2-HR :0.76519: (Sim:0h29m47s) 
CPU  0 inst:  392000000 cyc:  281343944 now IPC :1.41518: AVG IPC :1.39105: L2-Pf-HR :0.81287: L2-HR :0.76532: (Sim:0h29m50s) 
CPU  0 inst:  393000000 cyc:  282039150 now IPC :1.43842: AVG IPC :1.39117: L2-Pf-HR :0.81282: L2-HR :0.76530: (Sim:0h29m53s) 
CPU  0 inst:  394000002 cyc:  282726201 now IPC :1.45550: AVG IPC :1.39132: L2-Pf-HR :0.81291: L2-HR :0.76535: (Sim:0h29m57s) 
CPU  0 inst:  395000001 cyc:  283445363 now IPC :1.39051: AVG IPC :1.39132: L2-Pf-HR :0.81291: L2-HR :0.76535: (Sim:0h30m2s) 
CPU  0 inst:  396000000 cyc:  284187052 now IPC :1.34827: AVG IPC :1.39121: L2-Pf-HR :0.81307: L2-HR :0.76547: (Sim:0h30m7s) 
CPU  0 inst:  397000003 cyc:  284889973 now IPC :1.42264: AVG IPC :1.39129: L2-Pf-HR :0.81326: L2-HR :0.76558: (Sim:0h30m11s) 
CPU  0 inst:  398000002 cyc:  285577165 now IPC :1.45520: AVG IPC :1.39144: L2-Pf-HR :0.81339: L2-HR :0.76565: (Sim:0h30m16s) 
CPU  0 inst:  399000000 cyc:  286237712 now IPC :1.51389: AVG IPC :1.39172: L2-Pf-HR :0.81343: L2-HR :0.76570: (Sim:0h30m20s) 
CPU  0 inst:  400000000 cyc:  287007223 now IPC :1.29953: AVG IPC :1.39148: L2-Pf-HR :0.81333: L2-HR :0.76564: (Sim:0h30m25s) 
CPU  0 inst:  401000003 cyc:  287775664 now IPC :1.30134: AVG IPC :1.39123: L2-Pf-HR :0.81317: L2-HR :0.76554: (Sim:0h30m29s) 
CPU  0 inst:  402000001 cyc:  288501733 now IPC :1.37728: AVG IPC :1.39120: L2-Pf-HR :0.81319: L2-HR :0.76556: (Sim:0h30m33s) 
CPU  0 inst:  403000001 cyc:  289224276 now IPC :1.38400: AVG IPC :1.39118: L2-Pf-HR :0.81298: L2-HR :0.76538: (Sim:0h30m36s) 
CPU  0 inst:  404000000 cyc:  289939786 now IPC :1.39760: AVG IPC :1.39120: L2-Pf-HR :0.81298: L2-HR :0.76537: (Sim:0h30m39s) 
CPU  0 inst:  405000002 cyc:  290623737 now IPC :1.46210: AVG IPC :1.39136: L2-Pf-HR :0.81290: L2-HR :0.76533: (Sim:0h30m44s) 
CPU  0 inst:  406000003 cyc:  291324484 now IPC :1.42705: AVG IPC :1.39145: L2-Pf-HR :0.81263: L2-HR :0.76516: (Sim:0h30m49s) 
CPU  0 inst:  407000003 cyc:  292025643 now IPC :1.42621: AVG IPC :1.39153: L2-Pf-HR :0.81256: L2-HR :0.76508: (Sim:0h30m53s) 
CPU  0 inst:  408000000 cyc:  292863156 now IPC :1.19401: AVG IPC :1.39097: L2-Pf-HR :0.81226: L2-HR :0.76493: (Sim:0h30m58s) 
CPU  0 inst:  409000000 cyc:  293584239 now IPC :1.38680: AVG IPC :1.39096: L2-Pf-HR :0.81250: L2-HR :0.76509: (Sim:0h31m2s) 
CPU  0 inst:  410000001 cyc:  294301877 now IPC :1.39346: AVG IPC :1.39096: L2-Pf-HR :0.81255: L2-HR :0.76512: (Sim:0h31m7s) 
CPU  0 inst:  411000000 cyc:  295018479 now IPC :1.39547: AVG IPC :1.39097: L2-Pf-HR :0.81264: L2-HR :0.76515: (Sim:0h31m12s) 
CPU  0 inst:  412000000 cyc:  295730360 now IPC :1.40473: AVG IPC :1.39101: L2-Pf-HR :0.81283: L2-HR :0.76529: (Sim:0h31m15s) 
CPU  0 inst:  413000000 cyc:  296426379 now IPC :1.43674: AVG IPC :1.39111: L2-Pf-HR :0.81278: L2-HR :0.76527: (Sim:0h31m20s) 
CPU  0 inst:  414000002 cyc:  297120180 now IPC :1.44134: AVG IPC :1.39123: L2-Pf-HR :0.81288: L2-HR :0.76533: (Sim:0h31m25s) 
CPU  0 inst:  415000002 cyc:  297858150 now IPC :1.35507: AVG IPC :1.39114: L2-Pf-HR :0.81285: L2-HR :0.76532: (Sim:0h31m29s) 
CPU  0 inst:  416000000 cyc:  298600577 now IPC :1.34693: AVG IPC :1.39103: L2-Pf-HR :0.81305: L2-HR :0.76545: (Sim:0h31m34s) 
CPU  0 inst:  417000001 cyc:  299312877 now IPC :1.40390: AVG IPC :1.39106: L2-Pf-HR :0.81324: L2-HR :0.76556: (Sim:0h31m39s) 
CPU  0 inst:  418000000 cyc:  300005707 now IPC :1.44335: AVG IPC :1.39118: L2-Pf-HR :0.81337: L2-HR :0.76564: (Sim:0h31m44s) 
CPU  0 inst:  419000002 cyc:  300666046 now IPC :1.51438: AVG IPC :1.39146: L2-Pf-HR :0.81342: L2-HR :0.76568: (Sim:0h31m48s) 
CPU  0 inst:  420000000 cyc:  301436757 now IPC :1.29750: AVG IPC :1.39121: L2-Pf-HR :0.81330: L2-HR :0.76562: (Sim:0h31m53s) 
CPU  0 inst:  421000002 cyc:  302207035 now IPC :1.29824: AVG IPC :1.39098: L2-Pf-HR :0.81317: L2-HR :0.76553: (Sim:0h31m58s) 
CPU  0 inst:  422000001 cyc:  302938587 now IPC :1.36696: AVG IPC :1.39092: L2-Pf-HR :0.81322: L2-HR :0.76557: (Sim:0h32m2s) 
CPU  0 inst:  423000000 cyc:  303667942 now IPC :1.37107: AVG IPC :1.39087: L2-Pf-HR :0.81301: L2-HR :0.76541: (Sim:0h32m6s) 
CPU  0 inst:  424000000 cyc:  304388715 now IPC :1.38740: AVG IPC :1.39086: L2-Pf-HR :0.81302: L2-HR :0.76540: (Sim:0h32m10s) 
CPU  0 inst:  425000001 cyc:  305086412 now IPC :1.43329: AVG IPC :1.39096: L2-Pf-HR :0.81295: L2-HR :0.76537: (Sim:0h32m14s) 
CPU  0 inst:  426000000 cyc:  305796648 now IPC :1.40798: AVG IPC :1.39100: L2-Pf-HR :0.81269: L2-HR :0.76520: (Sim:0h32m19s) 
CPU  0 inst:  427000001 cyc:  306487906 now IPC :1.44664: AVG IPC :1.39113: L2-Pf-HR :0.81261: L2-HR :0.76513: (Sim:0h32m24s) 
CPU  0 inst:  428000000 cyc:  307322386 now IPC :1.19835: AVG IPC :1.39060: L2-Pf-HR :0.81229: L2-HR :0.76496: (Sim:0h32m29s) 
CPU  0 inst:  429000002 cyc:  308038293 now IPC :1.39683: AVG IPC :1.39061: L2-Pf-HR :0.81252: L2-HR :0.76511: (Sim:0h32m34s) 
CPU  0 inst:  430000001 cyc:  308751418 now IPC :1.40228: AVG IPC :1.39064: L2-Pf-HR :0.81257: L2-HR :0.76514: (Sim:0h32m39s) 
CPU  0 inst:  431000001 cyc:  309462564 now IPC :1.40618: AVG IPC :1.39068: L2-Pf-HR :0.81264: L2-HR :0.76517: (Sim:0h32m44s) 
CPU  0 inst:  432000000 cyc:  310167389 now IPC :1.41879: AVG IPC :1.39074: L2-Pf-HR :0.81283: L2-HR :0.76530: (Sim:0h32m49s) 
CPU  0 inst:  433000002 cyc:  310858728 now IPC :1.44647: AVG IPC :1.39087: L2-Pf-HR :0.81277: L2-HR :0.76527: (Sim:0h32m54s) 
CPU  0 inst:  434000001 cyc:  311550027 now IPC :1.44655: AVG IPC :1.39099: L2-Pf-HR :0.81285: L2-HR :0.76532: (Sim:0h32m59s) 
CPU  0 inst:  435000003 cyc:  312279383 now IPC :1.37108: AVG IPC :1.39094: L2-Pf-HR :0.81283: L2-HR :0.76531: (Sim:0h33m4s) 
CPU  0 inst:  436000000 cyc:  313018649 now IPC :1.35269: AVG IPC :1.39085: L2-Pf-HR :0.81300: L2-HR :0.76543: (Sim:0h33m9s) 
CPU  0 inst:  437000000 cyc:  313726007 now IPC :1.41371: AVG IPC :1.39090: L2-Pf-HR :0.81318: L2-HR :0.76554: (Sim:0h33m12s) 
CPU  0 inst:  438000001 cyc:  314409923 now IPC :1.46217: AVG IPC :1.39106: L2-Pf-HR :0.81329: L2-HR :0.76561: (Sim:0h33m16s) 
CPU  0 inst:  439000000 cyc:  315071127 now IPC :1.51239: AVG IPC :1.39132: L2-Pf-HR :0.81335: L2-HR :0.76565: (Sim:0h33m20s) 
CPU  0 inst:  440000000 cyc:  315843953 now IPC :1.29395: AVG IPC :1.39108: L2-Pf-HR :0.81324: L2-HR :0.76559: (Sim:0h33m25s) 
CPU  0 inst:  441000002 cyc:  316610683 now IPC :1.30424: AVG IPC :1.39087: L2-Pf-HR :0.81313: L2-HR :0.76552: (Sim:0h33m30s) 
CPU  0 inst:  442000002 cyc:  317344063 now IPC :1.36355: AVG IPC :1.39080: L2-Pf-HR :0.81318: L2-HR :0.76556: (Sim:0h33m35s) 
CPU  0 inst:  443000001 cyc:  318071775 now IPC :1.37417: AVG IPC :1.39076: L2-Pf-HR :0.81298: L2-HR :0.76541: (Sim:0h33m40s) 
CPU  0 inst:  444000000 cyc:  318793107 now IPC :1.38632: AVG IPC :1.39075: L2-Pf-HR :0.81302: L2-HR :0.76541: (Sim:0h33m44s) 
CPU  0 inst:  445000001 cyc:  319494518 now IPC :1.42570: AVG IPC :1.39083: L2-Pf-HR :0.81291: L2-HR :0.76537: (Sim:0h33m48s) 
CPU  0 inst:  446000000 cyc:  320194509 now IPC :1.42859: AVG IPC :1.39091: L2-Pf-HR :0.81267: L2-HR :0.76521: (Sim:0h33m51s) 
CPU  0 inst:  447000003 cyc:  320898386 now IPC :1.42071: AVG IPC :1.39098: L2-Pf-HR :0.81261: L2-HR :0.76514: (Sim:0h33m55s) 
CPU  0 inst:  448000000 cyc:  321741313 now IPC :1.18634: AVG IPC :1.39044: L2-Pf-HR :0.81228: L2-HR :0.76497: (Sim:0h34m1s) 
CPU  0 inst:  449000001 cyc:  322460338 now IPC :1.39077: AVG IPC :1.39044: L2-Pf-HR :0.81250: L2-HR :0.76512: (Sim:0h34m5s) 
CPU  0 inst:  450000002 cyc:  323178956 now IPC :1.39156: AVG IPC :1.39044: L2-Pf-HR :0.81254: L2-HR :0.76514: (Sim:0h34m10s) 
CPU  0 inst:  451000003 cyc:  323892842 now IPC :1.40079: AVG IPC :1.39047: L2-Pf-HR :0.81261: L2-HR :0.76516: (Sim:0h34m15s) 
CPU  0 inst:  452000000 cyc:  324604023 now IPC :1.40611: AVG IPC :1.39050: L2-Pf-HR :0.81279: L2-HR :0.76528: (Sim:0h34m20s) 
CPU  0 inst:  453000000 cyc:  325301329 now IPC :1.43409: AVG IPC :1.39060: L2-Pf-HR :0.81273: L2-HR :0.76525: (Sim:0h34m25s) 
CPU  0 inst:  454000001 cyc:  325991065 now IPC :1.44983: AVG IPC :1.39072: L2-Pf-HR :0.81280: L2-HR :0.76529: (Sim:0h34m29s) 
CPU  0 inst:  455000003 cyc:  326729081 now IPC :1.35499: AVG IPC :1.39064: L2-Pf-HR :0.81278: L2-HR :0.76528: (Sim:0h34m34s) 
CPU  0 inst:  456000000 cyc:  327468351 now IPC :1.35268: AVG IPC :1.39055: L2-Pf-HR :0.81295: L2-HR :0.76540: (Sim:0h34m39s) 
CPU  0 inst:  457000001 cyc:  328181405 now IPC :1.40242: AVG IPC :1.39058: L2-Pf-HR :0.81311: L2-HR :0.76550: (Sim:0h34m44s) 
CPU  0 inst:  458000000 cyc:  328866963 now IPC :1.45866: AVG IPC :1.39072: L2-Pf-HR :0.81322: L2-HR :0.76556: (Sim:0h34m49s) 
CPU  0 inst:  459000000 cyc:  329520523 now IPC :1.53008: AVG IPC :1.39100: L2-Pf-HR :0.81325: L2-HR :0.76559: (Sim:0h34m53s) 
CPU  0 inst:  460000000 cyc:  330298492 now IPC :1.28540: AVG IPC :1.39075: L2-Pf-HR :0.81315: L2-HR :0.76554: (Sim:0h34m58s) 
CPU  0 inst:  461000003 cyc:  331053954 now IPC :1.32370: AVG IPC :1.39060: L2-Pf-HR :0.81303: L2-HR :0.76546: (Sim:0h35m3s) 
CPU  0 inst:  462000001 cyc:  331776812 now IPC :1.38339: AVG IPC :1.39058: L2-Pf-HR :0.81305: L2-HR :0.76548: (Sim:0h35m8s) 
CPU  0 inst:  463000002 cyc:  332498523 now IPC :1.38560: AVG IPC :1.39057: L2-Pf-HR :0.81287: L2-HR :0.76533: (Sim:0h35m13s) 
CPU  0 inst:  464000000 cyc:  333214297 now IPC :1.39709: AVG IPC :1.39058: L2-Pf-HR :0.81287: L2-HR :0.76532: (Sim:0h35m18s) 
CPU  0 inst:  465000000 cyc:  333894154 now IPC :1.47090: AVG IPC :1.39075: L2-Pf-HR :0.81279: L2-HR :0.76528: (Sim:0h35m23s) 
CPU  0 inst:  466000000 cyc:  334585611 now IPC :1.44622: AVG IPC :1.39086: L2-Pf-HR :0.81257: L2-HR :0.76513: (Sim:0h35m27s) 
CPU  0 inst:  467000000 cyc:  335284138 now IPC :1.43158: AVG IPC :1.39095: L2-Pf-HR :0.81252: L2-HR :0.76507: (Sim:0h35m32s) 
CPU  0 inst:  468000000 cyc:  336116259 now IPC :1.20175: AVG IPC :1.39048: L2-Pf-HR :0.81224: L2-HR :0.76492: (Sim:0h35m37s) 
CPU  0 inst:  469000001 cyc:  336834470 now IPC :1.39235: AVG IPC :1.39048: L2-Pf-HR :0.81246: L2-HR :0.76507: (Sim:0h35m42s) 
CPU  0 inst:  470000000 cyc:  337548662 now IPC :1.40018: AVG IPC :1.39050: L2-Pf-HR :0.81250: L2-HR :0.76510: (Sim:0h35m47s) 
CPU  0 inst:  471000002 cyc:  338261079 now IPC :1.40368: AVG IPC :1.39053: L2-Pf-HR :0.81257: L2-HR :0.76512: (Sim:0h35m52s) 
CPU  0 inst:  472000000 cyc:  338968307 now IPC :1.41397: AVG IPC :1.39058: L2-Pf-HR :0.81275: L2-HR :0.76524: (Sim:0h35m57s) 
CPU  0 inst:  473000002 cyc:  339659857 now IPC :1.44603: AVG IPC :1.39069: L2-Pf-HR :0.81270: L2-HR :0.76522: (Sim:0h36m1s) 
CPU  0 inst:  474000002 cyc:  340351312 now IPC :1.44623: AVG IPC :1.39081: L2-Pf-HR :0.81278: L2-HR :0.76527: (Sim:0h36m6s) 
CPU  0 inst:  475000002 cyc:  341094528 now IPC :1.34550: AVG IPC :1.39071: L2-Pf-HR :0.81275: L2-HR :0.76526: (Sim:0h36m11s) 
CPU  0 inst:  476000000 cyc:  341829673 now IPC :1.36027: AVG IPC :1.39064: L2-Pf-HR :0.81293: L2-HR :0.76538: (Sim:0h36m15s) 
CPU  0 inst:  477000002 cyc:  342540747 now IPC :1.40633: AVG IPC :1.39067: L2-Pf-HR :0.81309: L2-HR :0.76547: (Sim:0h36m20s) 
CPU  0 inst:  478000003 cyc:  343227106 now IPC :1.45696: AVG IPC :1.39081: L2-Pf-HR :0.81319: L2-HR :0.76553: (Sim:0h36m25s) 
CPU  0 inst:  479000000 cyc:  343894586 now IPC :1.49817: AVG IPC :1.39102: L2-Pf-HR :0.81325: L2-HR :0.76558: (Sim:0h36m29s) 
CPU  0 inst:  480000000 cyc:  344680524 now IPC :1.27236: AVG IPC :1.39075: L2-Pf-HR :0.81314: L2-HR :0.76552: (Sim:0h36m34s) 
CPU  0 inst:  481000002 cyc:  345436413 now IPC :1.32295: AVG IPC :1.39060: L2-Pf-HR :0.81302: L2-HR :0.76544: (Sim:0h36m39s) 
CPU  0 inst:  482000003 cyc:  346164304 now IPC :1.37383: AVG IPC :1.39056: L2-Pf-HR :0.81306: L2-HR :0.76548: (Sim:0h36m44s) 
CPU  0 inst:  483000002 cyc:  346886411 now IPC :1.38483: AVG IPC :1.39055: L2-Pf-HR :0.81288: L2-HR :0.76534: (Sim:0h36m48s) 
CPU  0 inst:  484000000 cyc:  347601873 now IPC :1.39770: AVG IPC :1.39056: L2-Pf-HR :0.81292: L2-HR :0.76534: (Sim:0h36m53s) 
CPU  0 inst:  485000001 cyc:  348293401 now IPC :1.44607: AVG IPC :1.39067: L2-Pf-HR :0.81282: L2-HR :0.76530: (Sim:0h36m58s) 
CPU  0 inst:  486000000 cyc:  349000025 now IPC :1.41518: AVG IPC :1.39072: L2-Pf-HR :0.81260: L2-HR :0.76515: (Sim:0h37m2s) 
CPU  0 inst:  487000000 cyc:  349705248 now IPC :1.41799: AVG IPC :1.39078: L2-Pf-HR :0.81254: L2-HR :0.76509: (Sim:0h37m7s) 
CPU  0 inst:  488000000 cyc:  350542587 now IPC :1.19426: AVG IPC :1.39031: L2-Pf-HR :0.81223: L2-HR :0.76493: (Sim:0h37m12s) 
CPU  0 inst:  489000000 cyc:  351258980 now IPC :1.39588: AVG IPC :1.39032: L2-Pf-HR :0.81244: L2-HR :0.76507: (Sim:0h37m17s) 
CPU  0 inst:  490000001 cyc:  351974804 now IPC :1.39699: AVG IPC :1.39033: L2-Pf-HR :0.81247: L2-HR :0.76509: (Sim:0h37m21s) 
CPU  0 inst:  491000000 cyc:  352684519 now IPC :1.40901: AVG IPC :1.39037: L2-Pf-HR :0.81254: L2-HR :0.76511: (Sim:0h37m25s) 
CPU  0 inst:  492000000 cyc:  353389155 now IPC :1.41917: AVG IPC :1.39043: L2-Pf-HR :0.81272: L2-HR :0.76524: (Sim:0h37m29s) 
CPU  0 inst:  493000001 cyc:  354085205 now IPC :1.43668: AVG IPC :1.39052: L2-Pf-HR :0.81269: L2-HR :0.76523: (Sim:0h37m32s) 
CPU  0 inst:  494000003 cyc:  354770915 now IPC :1.45835: AVG IPC :1.39065: L2-Pf-HR :0.81279: L2-HR :0.76528: (Sim:0h37m35s) 
CPU  0 inst:  495000000 cyc:  355503013 now IPC :1.36593: AVG IPC :1.39060: L2-Pf-HR :0.81278: L2-HR :0.76529: (Sim:0h37m40s) 
CPU  0 inst:  496000000 cyc:  356237188 now IPC :1.36207: AVG IPC :1.39054: L2-Pf-HR :0.81295: L2-HR :0.76541: (Sim:0h37m45s) 
CPU  0 inst:  497000003 cyc:  356944283 now IPC :1.41424: AVG IPC :1.39059: L2-Pf-HR :0.81311: L2-HR :0.76550: (Sim:0h37m49s) 
CPU  0 inst:  498000001 cyc:  357628431 now IPC :1.46167: AVG IPC :1.39073: L2-Pf-HR :0.81321: L2-HR :0.76556: (Sim:0h37m54s) 
CPU  0 inst:  499000000 cyc:  358291470 now IPC :1.50821: AVG IPC :1.39094: L2-Pf-HR :0.81326: L2-HR :0.76560: (Sim:0h37m59s) 
CPU  0 inst:  500000000 cyc:  359072494 now IPC :1.28037: AVG IPC :1.39070: L2-Pf-HR :0.81315: L2-HR :0.76554: (Sim:0h38m3s) 
CPU  0 inst:  501000000 cyc:  359832990 now IPC :1.31493: AVG IPC :1.39054: L2-Pf-HR :0.81307: L2-HR :0.76549: (Sim:0h38m7s) 
CPU  0 inst:  502000003 cyc:  360564530 now IPC :1.36698: AVG IPC :1.39049: L2-Pf-HR :0.81309: L2-HR :0.76550: (Sim:0h38m11s) 
CPU  0 inst:  503000002 cyc:  361292481 now IPC :1.37372: AVG IPC :1.39046: L2-Pf-HR :0.81293: L2-HR :0.76538: (Sim:0h38m14s) 
CPU  0 inst:  504000000 cyc:  362017325 now IPC :1.37960: AVG IPC :1.39044: L2-Pf-HR :0.81295: L2-HR :0.76537: (Sim:0h38m19s) 
CPU  0 inst:  505000001 cyc:  362714424 now IPC :1.43452: AVG IPC :1.39052: L2-Pf-HR :0.81286: L2-HR :0.76533: (Sim:0h38m24s) 
CPU  0 inst:  506000001 cyc:  363420499 now IPC :1.41628: AVG IPC :1.39057: L2-Pf-HR :0.81266: L2-HR :0.76519: (Sim:0h38m29s) 
CPU  0 inst:  507000000 cyc:  364122189 now IPC :1.42513: AVG IPC :1.39064: L2-Pf-HR :0.81262: L2-HR :0.76514: (Sim:0h38m33s) 
CPU  0 inst:  508000000 cyc:  364968561 now IPC :1.18151: AVG IPC :1.39015: L2-Pf-HR :0.81236: L2-HR :0.76501: (Sim:0h38m38s) 
CPU  0 inst:  509000001 cyc:  365684825 now IPC :1.39613: AVG IPC :1.39016: L2-Pf-HR :0.81257: L2-HR :0.76515: (Sim:0h38m43s) 
CPU  0 inst:  510000000 cyc:  366400975 now IPC :1.39635: AVG IPC :1.39018: L2-Pf-HR :0.81260: L2-HR :0.76517: (Sim:0h38m48s) 
CPU  0 inst:  511000001 cyc:  367116092 now IPC :1.39837: AVG IPC :1.39019: L2-Pf-HR :0.81267: L2-HR :0.76519: (Sim:0h38m53s) 
CPU  0 inst:  512000000 cyc:  367823653 now IPC :1.41330: AVG IPC :1.39024: L2-Pf-HR :0.81283: L2-HR :0.76530: (Sim:0h38m57s) 
CPU  0 inst:  513000001 cyc:  368516970 now IPC :1.44234: AVG IPC :1.39034: L2-Pf-HR :0.81279: L2-HR :0.76528: (Sim:0h39m2s) 
CPU  0 inst:  514000000 cyc:  369207248 now IPC :1.44869: AVG IPC :1.39045: L2-Pf-HR :0.81287: L2-HR :0.76533: (Sim:0h39m6s) 
CPU  0 inst:  515000002 cyc:  369939172 now IPC :1.36626: AVG IPC :1.39040: L2-Pf-HR :0.81285: L2-HR :0.76532: (Sim:0h39m10s) 
CPU  0 inst:  516000000 cyc:  370669935 now IPC :1.36843: AVG IPC :1.39035: L2-Pf-HR :0.81301: L2-HR :0.76543: (Sim:0h39m14s) 
CPU  0 inst:  517000002 cyc:  371379233 now IPC :1.40985: AVG IPC :1.39039: L2-Pf-HR :0.81315: L2-HR :0.76551: (Sim:0h39m18s) 
CPU  0 inst:  518000000 cyc:  372059852 now IPC :1.46925: AVG IPC :1.39054: L2-Pf-HR :0.81324: L2-HR :0.76557: (Sim:0h39m23s) 
CPU  0 inst:  519000001 cyc:  372720753 now IPC :1.51309: AVG IPC :1.39075: L2-Pf-HR :0.81328: L2-HR :0.76560: (Sim:0h39m28s) 
CPU  0 inst:  520000000 cyc:  373500062 now IPC :1.28319: AVG IPC :1.39053: L2-Pf-HR :0.81317: L2-HR :0.76554: (Sim:0h39m32s) 
CPU  0 inst:  521000000 cyc:  374264375 now IPC :1.30836: AVG IPC :1.39036: L2-Pf-HR :0.81309: L2-HR :0.76549: (Sim:0h39m37s) 
CPU  0 inst:  522000000 cyc:  374994771 now IPC :1.36912: AVG IPC :1.39032: L2-Pf-HR :0.81312: L2-HR :0.76552: (Sim:0h39m42s) 
CPU  0 inst:  523000000 cyc:  375724377 now IPC :1.37060: AVG IPC :1.39028: L2-Pf-HR :0.81297: L2-HR :0.76539: (Sim:0h39m47s) 
CPU  0 inst:  524000000 cyc:  376449597 now IPC :1.37889: AVG IPC :1.39026: L2-Pf-HR :0.81298: L2-HR :0.76539: (Sim:0h39m52s) 
CPU  0 inst:  525000002 cyc:  377139879 now IPC :1.44869: AVG IPC :1.39037: L2-Pf-HR :0.81288: L2-HR :0.76533: (Sim:0h39m57s) 
CPU  0 inst:  526000003 cyc:  377847759 now IPC :1.41267: AVG IPC :1.39041: L2-Pf-HR :0.81269: L2-HR :0.76521: (Sim:0h40m1s) 
CPU  0 inst:  527000001 cyc:  378552207 now IPC :1.41955: AVG IPC :1.39046: L2-Pf-HR :0.81265: L2-HR :0.76516: (Sim:0h40m6s) 
CPU  0 inst:  528000000 cyc:  379394130 now IPC :1.18776: AVG IPC :1.39001: L2-Pf-HR :0.81240: L2-HR :0.76503: (Sim:0h40m11s) 
CPU  0 inst:  529000001 cyc:  380104040 now IPC :1.40863: AVG IPC :1.39005: L2-Pf-HR :0.81260: L2-HR :0.76517: (Sim:0h40m16s) 
CPU  0 inst:  530000000 cyc:  380811597 now IPC :1.41331: AVG IPC :1.39009: L2-Pf-HR :0.81263: L2-HR :0.76518: (Sim:0h40m21s) 
CPU  0 inst:  531000002 cyc:  381515963 now IPC :1.41972: AVG IPC :1.39014: L2-Pf-HR :0.81270: L2-HR :0.76521: (Sim:0h40m25s) 
CPU  0 inst:  532000000 cyc:  382219967 now IPC :1.42044: AVG IPC :1.39020: L2-Pf-HR :0.81285: L2-HR :0.76531: (Sim:0h40m28s) 
CPU  0 inst:  533000000 cyc:  382912085 now IPC :1.44484: AVG IPC :1.39030: L2-Pf-HR :0.81281: L2-HR :0.76530: (Sim:0h40m31s) 
CPU  0 inst:  534000001 cyc:  383594020 now IPC :1.46642: AVG IPC :1.39043: L2-Pf-HR :0.81288: L2-HR :0.76534: (Sim:0h40m34s) 
CPU  0 inst:  535000000 cyc:  384334661 now IPC :1.35018: AVG IPC :1.39036: L2-Pf-HR :0.81286: L2-HR :0.76533: (Sim:0h40m38s) 
CPU  0 inst:  536000000 cyc:  385066104 now IPC :1.36716: AVG IPC :1.39031: L2-Pf-HR :0.81301: L2-HR :0.76543: (Sim:0h40m42s) 
CPU  0 inst:  537000000 cyc:  385775084 now IPC :1.41048: AVG IPC :1.39035: L2-Pf-HR :0.81315: L2-HR :0.76551: (Sim:0h40m47s) 
CPU  0 inst:  538000003 cyc:  386459584 now IPC :1.46092: AVG IPC :1.39048: L2-Pf-HR :0.81323: L2-HR :0.76556: (Sim:0h40m52s) 
CPU  0 inst:  539000002 cyc:  387125011 now IPC :1.50279: AVG IPC :1.39067: L2-Pf-HR :0.81328: L2-HR :0.76560: (Sim:0h40m55s) 
CPU  0 inst:  540000000 cyc:  387916849 now IPC :1.26288: AVG IPC :1.39041: L2-Pf-HR :0.81317: L2-HR :0.76554: (Sim:0h40m59s) 
CPU  0 inst:  541000002 cyc:  388673406 now IPC :1.32178: AVG IPC :1.39027: L2-Pf-HR :0.81310: L2-HR :0.76549: (Sim:0h41m4s) 
CPU  0 inst:  542000000 cyc:  389395497 now IPC :1.38486: AVG IPC :1.39026: L2-Pf-HR :0.81312: L2-HR :0.76551: (Sim:0h41m8s) 
CPU  0 inst:  543000002 cyc:  390120220 now IPC :1.37984: AVG IPC :1.39024: L2-Pf-HR :0.81298: L2-HR :0.76540: (Sim:0h41m13s) 
CPU  0 inst:  544000000 cyc:  390838631 now IPC :1.39196: AVG IPC :1.39025: L2-Pf-HR :0.81299: L2-HR :0.76539: (Sim:0h41m18s) 
CPU  0 inst:  545000001 cyc:  391532005 now IPC :1.44222: AVG IPC :1.39034: L2-Pf-HR :0.81292: L2-HR :0.76537: (Sim:0h41m23s) 
CPU  0 inst:  546000002 cyc:  392237612 now IPC :1.41722: AVG IPC :1.39039: L2-Pf-HR :0.81276: L2-HR :0.76525: (Sim:0h41m28s) 
CPU  0 inst:  547000001 cyc:  392932953 now IPC :1.43814: AVG IPC :1.39047: L2-Pf-HR :0.81273: L2-HR :0.76521: (Sim:0h41m32s) 
CPU  0 inst:  548000000 cyc:  393767323 now IPC :1.19851: AVG IPC :1.39006: L2-Pf-HR :0.81249: L2-HR :0.76509: (Sim:0h41m36s) 
CPU  0 inst:  549000002 cyc:  394474614 now IPC :1.41385: AVG IPC :1.39011: L2-Pf-HR :0.81267: L2-HR :0.76522: (Sim:0h41m40s) 
CPU  0 inst:  550000000 cyc:  395179104 now IPC :1.41946: AVG IPC :1.39016: L2-Pf-HR :0.81270: L2-HR :0.76523: (Sim:0h41m43s) 
CPU  0 inst:  551000002 cyc:  395881755 now IPC :1.42318: AVG IPC :1.39022: L2-Pf-HR :0.81277: L2-HR :0.76526: (Sim:0h41m46s) 
CPU  0 inst:  552000000 cyc:  396568716 now IPC :1.45568: AVG IPC :1.39033: L2-Pf-HR :0.81290: L2-HR :0.76535: (Sim:0h41m49s) 
CPU  0 inst:  553000002 cyc:  397242655 now IPC :1.48382: AVG IPC :1.39049: L2-Pf-HR :0.81284: L2-HR :0.76532: (Sim:0h41m52s) 
CPU  0 inst:  554000000 cyc:  397919348 now IPC :1.47777: AVG IPC :1.39064: L2-Pf-HR :0.81291: L2-HR :0.76536: (Sim:0h41m56s) 
CPU  0 inst:  555000000 cyc:  398653997 now IPC :1.36119: AVG IPC :1.39059: L2-Pf-HR :0.81289: L2-HR :0.76535: (Sim:0h42m0s) 
CPU  0 inst:  556000000 cyc:  399369084 now IPC :1.39843: AVG IPC :1.39060: L2-Pf-HR :0.81304: L2-HR :0.76546: (Sim:0h42m4s) 
CPU  0 inst:  557000000 cyc:  400062993 now IPC :1.44111: AVG IPC :1.39069: L2-Pf-HR :0.81318: L2-HR :0.76554: (Sim:0h42m7s) 
CPU  0 inst:  558000000 cyc:  400732594 now IPC :1.49343: AVG IPC :1.39086: L2-Pf-HR :0.81325: L2-HR :0.76559: (Sim:0h42m11s) 
CPU  0 inst:  559000002 cyc:  401380698 now IPC :1.54297: AVG IPC :1.39111: L2-Pf-HR :0.81330: L2-HR :0.76563: (Sim:0h42m16s) 
CPU  0 inst:  560000000 cyc:  402160466 now IPC :1.28243: AVG IPC :1.39089: L2-Pf-HR :0.81318: L2-HR :0.76556: (Sim:0h42m21s) 
CPU  0 inst:  561000003 cyc:  402910559 now IPC :1.33317: AVG IPC :1.39079: L2-Pf-HR :0.81308: L2-HR :0.76549: (Sim:0h42m26s) 
CPU  0 inst:  562000002 cyc:  403631360 now IPC :1.38734: AVG IPC :1.39078: L2-Pf-HR :0.81312: L2-HR :0.76553: (Sim:0h42m30s) 
CPU  0 inst:  563000002 cyc:  404352545 now IPC :1.38661: AVG IPC :1.39077: L2-Pf-HR :0.81298: L2-HR :0.76541: (Sim:0h42m35s) 
CPU  0 inst:  564000000 cyc:  405067896 now IPC :1.39791: AVG IPC :1.39079: L2-Pf-HR :0.81298: L2-HR :0.76540: (Sim:0h42m39s) 
CPU  0 inst:  565000003 cyc:  405760890 now IPC :1.44302: AVG IPC :1.39088: L2-Pf-HR :0.81289: L2-HR :0.76536: (Sim:0h42m44s) 
CPU  0 inst:  566000003 cyc:  406454329 now IPC :1.44209: AVG IPC :1.39096: L2-Pf-HR :0.81272: L2-HR :0.76524: (Sim:0h42m49s) 
CPU  0 inst:  567000001 cyc:  407145838 now IPC :1.44611: AVG IPC :1.39106: L2-Pf-HR :0.81266: L2-HR :0.76518: (Sim:0h42m54s) 
CPU  0 inst:  568000000 cyc:  407984447 now IPC :1.19245: AVG IPC :1.39065: L2-Pf-HR :0.81241: L2-HR :0.76505: (Sim:0h42m59s) 
CPU  0 inst:  569000001 cyc:  408692418 now IPC :1.41249: AVG IPC :1.39069: L2-Pf-HR :0.81260: L2-HR :0.76518: (Sim:0h43m4s) 
CPU  0 inst:  570000002 cyc:  409400416 now IPC :1.41243: AVG IPC :1.39072: L2-Pf-HR :0.81262: L2-HR :0.76519: (Sim:0h43m9s) 
CPU  0 inst:  571000002 cyc:  410104988 now IPC :1.41930: AVG IPC :1.39077: L2-Pf-HR :0.81269: L2-HR :0.76521: (Sim:0h43m14s) 
CPU  0 inst:  572000000 cyc:  410805163 now IPC :1.42821: AVG IPC :1.39084: L2-Pf-HR :0.81282: L2-HR :0.76531: (Sim:0h43m18s) 
CPU  0 inst:  573000003 cyc:  411492098 now IPC :1.45575: AVG IPC :1.39095: L2-Pf-HR :0.81278: L2-HR :0.76529: (Sim:0h43m23s) 
CPU  0 inst:  574000002 cyc:  412173358 now IPC :1.46787: AVG IPC :1.39107: L2-Pf-HR :0.81285: L2-HR :0.76533: (Sim:0h43m28s) 
CPU  0 inst:  575000002 cyc:  412916881 now IPC :1.34495: AVG IPC :1.39099: L2-Pf-HR :0.81284: L2-HR :0.76533: (Sim:0h43m32s) 
CPU  0 inst:  576000000 cyc:  413624116 now IPC :1.41395: AVG IPC :1.39103: L2-Pf-HR :0.81299: L2-HR :0.76543: (Sim:0h43m37s) 
CPU  0 inst:  577000003 cyc:  414317786 now IPC :1.44161: AVG IPC :1.39111: L2-Pf-HR :0.81312: L2-HR :0.76550: (Sim:0h43m42s) 
CPU  0 inst:  578000003 cyc:  414986612 now IPC :1.49516: AVG IPC :1.39128: L2-Pf-HR :0.81320: L2-HR :0.76555: (Sim:0h43m46s) 
CPU  0 inst:  579000003 cyc:  415638126 now IPC :1.53489: AVG IPC :1.39151: L2-Pf-HR :0.81325: L2-HR :0.76559: (Sim:0h43m51s) 
CPU  0 inst:  580000000 cyc:  416420170 now IPC :1.27870: AVG IPC :1.39130: L2-Pf-HR :0.81314: L2-HR :0.76553: (Sim:0h43m57s) 
CPU  0 inst:  581000001 cyc:  417177447 now IPC :1.32052: AVG IPC :1.39117: L2-Pf-HR :0.81306: L2-HR :0.76548: (Sim:0h44m2s) 
CPU  0 inst:  582000000 cyc:  417902756 now IPC :1.37872: AVG IPC :1.39114: L2-Pf-HR :0.81308: L2-HR :0.76550: (Sim:0h44m6s) 
CPU  0 inst:  583000001 cyc:  418631713 now IPC :1.37182: AVG IPC :1.39111: L2-Pf-HR :0.81295: L2-HR :0.76539: (Sim:0h44m11s) 
CPU  0 inst:  584000000 cyc:  419355160 now IPC :1.38227: AVG IPC :1.39110: L2-Pf-HR :0.81296: L2-HR :0.76538: (Sim:0h44m16s) 
CPU  0 inst:  585000003 cyc:  420037214 now IPC :1.46616: AVG IPC :1.39122: L2-Pf-HR :0.81289: L2-HR :0.76535: (Sim:0h44m21s) 
CPU  0 inst:  586000000 cyc:  420735503 now IPC :1.43207: AVG IPC :1.39129: L2-Pf-HR :0.81273: L2-HR :0.76524: (Sim:0h44m26s) 
CPU  0 inst:  587000001 cyc:  421434501 now IPC :1.43062: AVG IPC :1.39135: L2-Pf-HR :0.81267: L2-HR :0.76518: (Sim:0h44m31s) 
CPU  0 inst:  588000000 cyc:  422273221 now IPC :1.19229: AVG IPC :1.39095: L2-Pf-HR :0.81245: L2-HR :0.76507: (Sim:0h44m36s) 
CPU  0 inst:  589000001 cyc:  422987872 now IPC :1.39929: AVG IPC :1.39097: L2-Pf-HR :0.81263: L2-HR :0.76519: (Sim:0h44m41s) 
CPU  0 inst:  590000002 cyc:  423699338 now IPC :1.40555: AVG IPC :1.39099: L2-Pf-HR :0.81266: L2-HR :0.76521: (Sim:0h44m46s) 
CPU  0 inst:  591000001 cyc:  424411236 now IPC :1.40469: AVG IPC :1.39102: L2-Pf-HR :0.81272: L2-HR :0.76523: (Sim:0h44m51s) 
CPU  0 inst:  592000000 cyc:  425117135 now IPC :1.41663: AVG IPC :1.39106: L2-Pf-HR :0.81285: L2-HR :0.76532: (Sim:0h44m56s) 
CPU  0 inst:  593000002 cyc:  425813641 now IPC :1.43574: AVG IPC :1.39113: L2-Pf-HR :0.81281: L2-HR :0.76530: (Sim:0h45m1s) 
CPU  0 inst:  594000000 cyc:  426503346 now IPC :1.44989: AVG IPC :1.39123: L2-Pf-HR :0.81289: L2-HR :0.76535: (Sim:0h45m6s) 
CPU  0 inst:  595000001 cyc:  427248736 now IPC :1.34158: AVG IPC :1.39114: L2-Pf-HR :0.81288: L2-HR :0.76534: (Sim:0h45m10s) 
CPU  0 inst:  596000000 cyc:  427954805 now IPC :1.41629: AVG IPC :1.39118: L2-Pf-HR :0.81301: L2-HR :0.76544: (Sim:0h45m15s) 
CPU  0 inst:  597000000 cyc:  428646536 now IPC :1.44565: AVG IPC :1.39127: L2-Pf-HR :0.81313: L2-HR :0.76550: (Sim:0h45m19s) 
CPU  0 inst:  598000002 cyc:  429316791 now IPC :1.49197: AVG IPC :1.39143: L2-Pf-HR :0.81320: L2-HR :0.76555: (Sim:0h45m24s) 
CPU  0 inst:  599000000 cyc:  429969201 now IPC :1.53278: AVG IPC :1.39164: L2-Pf-HR :0.81324: L2-HR :0.76558: (Sim:0h45m29s) 
CPU  0 inst:  600000000 cyc:  430761672 now IPC :1.26188: AVG IPC :1.39140: L2-Pf-HR :0.81313: L2-HR :0.76552: (Sim:0h45m34s) 
CPU  0 inst:  601000001 cyc:  431515015 now IPC :1.32742: AVG IPC :1.39129: L2-Pf-HR :0.81306: L2-HR :0.76546: (Sim:0h45m39s) 
CPU  0 inst:  602000003 cyc:  432242179 now IPC :1.37521: AVG IPC :1.39126: L2-Pf-HR :0.81309: L2-HR :0.76549: (Sim:0h45m43s) 
CPU  0 inst:  603000002 cyc:  432968895 now IPC :1.37605: AVG IPC :1.39124: L2-Pf-HR :0.81295: L2-HR :0.76538: (Sim:0h45m48s) 
CPU  0 inst:  604000000 cyc:  433693653 now IPC :1.37977: AVG IPC :1.39122: L2-Pf-HR :0.81297: L2-HR :0.76538: (Sim:0h45m53s) 
CPU  0 inst:  605000002 cyc:  434391345 now IPC :1.43330: AVG IPC :1.39129: L2-Pf-HR :0.81290: L2-HR :0.76535: (Sim:0h45m58s) 
CPU  0 inst:  606000000 cyc:  435090488 now IPC :1.43032: AVG IPC :1.39135: L2-Pf-HR :0.81274: L2-HR :0.76524: (Sim:0h46m3s) 
CPU  0 inst:  607000002 cyc:  435777337 now IPC :1.45593: AVG IPC :1.39145: L2-Pf-HR :0.81268: L2-HR :0.76519: (Sim:0h46m8s) 
CPU  0 inst:  608000000 cyc:  436616630 now IPC :1.19148: AVG IPC :1.39107: L2-Pf-HR :0.81244: L2-HR :0.76507: (Sim:0h46m13s) 
CPU  0 inst:  609000003 cyc:  437334673 now IPC :1.39268: AVG IPC :1.39107: L2-Pf-HR :0.81261: L2-HR :0.76518: (Sim:0h46m18s) 
CPU  0 inst:  610000001 cyc:  438051052 now IPC :1.39591: AVG IPC :1.39108: L2-Pf-HR :0.81264: L2-HR :0.76520: (Sim:0h46m23s) 
CPU  0 inst:  611000002 cyc:  438766350 now IPC :1.39802: AVG IPC :1.39109: L2-Pf-HR :0.81270: L2-HR :0.76522: (Sim:0h46m27s) 
CPU  0 inst:  612000000 cyc:  439472083 now IPC :1.41696: AVG IPC :1.39113: L2-Pf-HR :0.81282: L2-HR :0.76530: (Sim:0h46m32s) 
CPU  0 inst:  613000001 cyc:  440168677 now IPC :1.43556: AVG IPC :1.39120: L2-Pf-HR :0.81279: L2-HR :0.76529: (Sim:0h46m37s) 
CPU  0 inst:  614000002 cyc:  440853984 now IPC :1.45920: AVG IPC :1.39131: L2-Pf-HR :0.81287: L2-HR :0.76534: (Sim:0h46m42s) 
CPU  0 inst:  615000001 cyc:  441603846 now IPC :1.33358: AVG IPC :1.39121: L2-Pf-HR :0.81286: L2-HR :0.76534: (Sim:0h46m45s) 
CPU  0 inst:  616000000 cyc:  442313311 now IPC :1.40951: AVG IPC :1.39124: L2-Pf-HR :0.81299: L2-HR :0.76543: (Sim:0h46m48s) 
CPU  0 inst:  617000000 cyc:  443009405 now IPC :1.43659: AVG IPC :1.39131: L2-Pf-HR :0.81311: L2-HR :0.76550: (Sim:0h46m52s) 
CPU  0 inst:  618000001 cyc:  443682737 now IPC :1.48515: AVG IPC :1.39145: L2-Pf-HR :0.81319: L2-HR :0.76555: (Sim:0h46m55s) 
CPU  0 inst:  619000001 cyc:  444333823 now IPC :1.53590: AVG IPC :1.39166: L2-Pf-HR :0.81322: L2-HR :0.76558: (Sim:0h46m58s) 
CPU  0 inst:  620000000 cyc:  445124138 now IPC :1.26532: AVG IPC :1.39144: L2-Pf-HR :0.81311: L2-HR :0.76553: (Sim:0h47m1s) 
CPU  0 inst:  621000003 cyc:  445868760 now IPC :1.34297: AVG IPC :1.39136: L2-Pf-HR :0.81304: L2-HR :0.76548: (Sim:0h47m4s) 
CPU  0 inst:  622000002 cyc:  446594250 now IPC :1.37838: AVG IPC :1.39134: L2-Pf-HR :0.81307: L2-HR :0.76550: (Sim:0h47m7s) 
CPU  0 inst:  623000000 cyc:  447319456 now IPC :1.37892: AVG IPC :1.39132: L2-Pf-HR :0.81294: L2-HR :0.76540: (Sim:0h47m10s) 
CPU  0 inst:  624000000 cyc:  448040448 now IPC :1.38698: AVG IPC :1.39131: L2-Pf-HR :0.81294: L2-HR :0.76539: (Sim:0h47m13s) 
CPU  0 inst:  625000003 cyc:  448741147 now IPC :1.42715: AVG IPC :1.39137: L2-Pf-HR :0.81285: L2-HR :0.76535: (Sim:0h47m17s) 
CPU  0 inst:  626000001 cyc:  449445553 now IPC :1.41963: AVG IPC :1.39141: L2-Pf-HR :0.81270: L2-HR :0.76524: (Sim:0h47m20s) 
[...]
CPU  0 inst: 1510000001 cyc: 1846211583 now IPC :1.76046: AVG IPC :0.81724: L2-Pf-HR :0.47680: L2-HR :0.56314: (Sim:2h8m15s) 
CPU  0 inst: 1511000001 cyc: 1846839111 now IPC :1.59355: AVG IPC :0.81751: L2-Pf-HR :0.47687: L2-HR :0.56318: (Sim:2h8m19s) 
CPU  0 inst: 1512000000 cyc: 1847557988 now IPC :1.39106: AVG IPC :0.81773: L2-Pf-HR :0.47681: L2-HR :0.56316: (Sim:2h8m24s) 
CPU  0 inst: 1513000003 cyc: 1848127341 now IPC :1.75638: AVG IPC :0.81802: L2-Pf-HR :0.47661: L2-HR :0.56301: (Sim:2h8m28s) 
CPU  0 inst: 1514000003 cyc: 1848714767 now IPC :1.70234: AVG IPC :0.81830: L2-Pf-HR :0.47644: L2-HR :0.56291: (Sim:2h8m33s) 
CPU  0 inst: 1515000003 cyc: 1849319278 now IPC :1.65423: AVG IPC :0.81857: L2-Pf-HR :0.47627: L2-HR :0.56280: (Sim:2h8m37s) 
CPU  0 inst: 1516000000 cyc: 1849969811 now IPC :1.53720: AVG IPC :0.81883: L2-Pf-HR :0.47608: L2-HR :0.56268: (Sim:2h8m41s) 
CPU  0 inst: 1517000002 cyc: 1850488902 now IPC :1.92645: AVG IPC :0.81914: L2-Pf-HR :0.47592: L2-HR :0.56255: (Sim:2h8m46s) 
CPU  0 inst: 1518000000 cyc: 1851077290 now IPC :1.69956: AVG IPC :0.81942: L2-Pf-HR :0.47573: L2-HR :0.56243: (Sim:2h8m50s) 
CPU  0 inst: 1519000000 cyc: 1851648366 now IPC :1.75108: AVG IPC :0.81970: L2-Pf-HR :0.47556: L2-HR :0.56232: (Sim:2h8m54s) 
CPU  0 inst: 1520000000 cyc: 1852311309 now IPC :1.50843: AVG IPC :0.81995: L2-Pf-HR :0.47538: L2-HR :0.56220: (Sim:2h8m59s) 
CPU  0 inst: 1521000002 cyc: 1852821327 now IPC :1.96072: AVG IPC :0.82026: L2-Pf-HR :0.47523: L2-HR :0.56209: (Sim:2h9m3s) 
CPU  0 inst: 1522000002 cyc: 1853458238 now IPC :1.57008: AVG IPC :0.82052: L2-Pf-HR :0.47500: L2-HR :0.56194: (Sim:2h9m8s) 
CPU  0 inst: 1523000000 cyc: 1854047142 now IPC :1.69807: AVG IPC :0.82080: L2-Pf-HR :0.47483: L2-HR :0.56182: (Sim:2h9m12s) 
CPU  0 inst: 1524000000 cyc: 1854684982 now IPC :1.56779: AVG IPC :0.82106: L2-Pf-HR :0.47466: L2-HR :0.56171: (Sim:2h9m17s) 
CPU  0 inst: 1525000001 cyc: 1855195597 now IPC :1.95842: AVG IPC :0.82137: L2-Pf-HR :0.47451: L2-HR :0.56160: (Sim:2h9m21s) 
CPU  0 inst: 1526000003 cyc: 1855802028 now IPC :1.64900: AVG IPC :0.82164: L2-Pf-HR :0.47428: L2-HR :0.56145: (Sim:2h9m26s) 
CPU  0 inst: 1527000000 cyc: 1856359324 now IPC :1.79437: AVG IPC :0.82193: L2-Pf-HR :0.47411: L2-HR :0.56134: (Sim:2h9m29s) 
CPU  0 inst: 1528000000 cyc: 1856898933 now IPC :1.85319: AVG IPC :0.82223: L2-Pf-HR :0.47400: L2-HR :0.56126: (Sim:2h9m33s) 
CPU  0 inst: 1529000002 cyc: 1857520788 now IPC :1.60810: AVG IPC :0.82250: L2-Pf-HR :0.47380: L2-HR :0.56113: (Sim:2h9m38s) 
CPU  0 inst: 1530000000 cyc: 1858128480 now IPC :1.64557: AVG IPC :0.82277: L2-Pf-HR :0.47358: L2-HR :0.56099: (Sim:2h9m43s) 
CPU  0 inst: 1531000001 cyc: 1858637059 now IPC :1.96626: AVG IPC :0.82308: L2-Pf-HR :0.47344: L2-HR :0.56089: (Sim:2h9m47s) 
CPU  0 inst: 1532000000 cyc: 1859194788 now IPC :1.79298: AVG IPC :0.82337: L2-Pf-HR :0.47331: L2-HR :0.56081: (Sim:2h9m51s) 
CPU  0 inst: 1533000002 cyc: 1859875952 now IPC :1.46808: AVG IPC :0.82361: L2-Pf-HR :0.47332: L2-HR :0.56081: (Sim:2h9m56s) 
CPU  0 inst: 1534000002 cyc: 1860588021 now IPC :1.40436: AVG IPC :0.82383: L2-Pf-HR :0.47331: L2-HR :0.56082: (Sim:2h10m1s) 
CPU  0 inst: 1535000002 cyc: 1861113800 now IPC :1.90194: AVG IPC :0.82413: L2-Pf-HR :0.47315: L2-HR :0.56069: (Sim:2h10m5s) 
CPU  0 inst: 1536000000 cyc: 1861750138 now IPC :1.57149: AVG IPC :0.82439: L2-Pf-HR :0.47295: L2-HR :0.56057: (Sim:2h10m9s) 
CPU  0 inst: 1537000002 cyc: 1862357410 now IPC :1.64671: AVG IPC :0.82466: L2-Pf-HR :0.47279: L2-HR :0.56046: (Sim:2h10m14s) 
CPU  0 inst: 1538000003 cyc: 1863009078 now IPC :1.53453: AVG IPC :0.82491: L2-Pf-HR :0.47261: L2-HR :0.56035: (Sim:2h10m18s) 
CPU  0 inst: 1539000002 cyc: 1863515145 now IPC :1.97602: AVG IPC :0.82522: L2-Pf-HR :0.47248: L2-HR :0.56025: (Sim:2h10m22s) 
CPU  0 inst: 1540000000 cyc: 1864120578 now IPC :1.65171: AVG IPC :0.82549: L2-Pf-HR :0.47227: L2-HR :0.56011: (Sim:2h10m27s) 
CPU  0 inst: 1541000003 cyc: 1864694224 now IPC :1.74324: AVG IPC :0.82577: L2-Pf-HR :0.47212: L2-HR :0.56001: (Sim:2h10m31s) 
CPU  0 inst: 1542000002 cyc: 1865355450 now IPC :1.51234: AVG IPC :0.82601: L2-Pf-HR :0.47197: L2-HR :0.55991: (Sim:2h10m36s) 
CPU  0 inst: 1543000002 cyc: 1865867053 now IPC :1.95464: AVG IPC :0.82632: L2-Pf-HR :0.47184: L2-HR :0.55980: (Sim:2h10m40s) 
CPU  0 inst: 1544000000 cyc: 1866498626 now IPC :1.58335: AVG IPC :0.82658: L2-Pf-HR :0.47163: L2-HR :0.55966: (Sim:2h10m45s) 
CPU  0 inst: 1545000000 cyc: 1867059399 now IPC :1.78325: AVG IPC :0.82687: L2-Pf-HR :0.47148: L2-HR :0.55955: (Sim:2h10m49s) 
CPU  0 inst: 1546000001 cyc: 1867607122 now IPC :1.82574: AVG IPC :0.82716: L2-Pf-HR :0.47137: L2-HR :0.55948: (Sim:2h10m53s) 
CPU  0 inst: 1547000001 cyc: 1868245847 now IPC :1.56562: AVG IPC :0.82741: L2-Pf-HR :0.47120: L2-HR :0.55936: (Sim:2h10m58s) 
CPU  0 inst: 1548000000 cyc: 1868850563 now IPC :1.65367: AVG IPC :0.82768: L2-Pf-HR :0.47099: L2-HR :0.55923: (Sim:2h11m2s) 
CPU  0 inst: 1549000002 cyc: 1869361042 now IPC :1.95895: AVG IPC :0.82799: L2-Pf-HR :0.47086: L2-HR :0.55913: (Sim:2h11m7s) 
CPU  0 inst: 1550000002 cyc: 1869922710 now IPC :1.78041: AVG IPC :0.82828: L2-Pf-HR :0.47072: L2-HR :0.55904: (Sim:2h11m11s) 
CPU  0 inst: 1551000002 cyc: 1870569128 now IPC :1.54699: AVG IPC :0.82852: L2-Pf-HR :0.47053: L2-HR :0.55892: (Sim:2h11m16s) 
CPU  0 inst: 1552000000 cyc: 1871177429 now IPC :1.64392: AVG IPC :0.82879: L2-Pf-HR :0.47031: L2-HR :0.55877: (Sim:2h11m20s) 
CPU  0 inst: 1553000000 cyc: 1871672532 now IPC :2.01978: AVG IPC :0.82910: L2-Pf-HR :0.47018: L2-HR :0.55868: (Sim:2h11m24s) 
CPU  0 inst: 1554000003 cyc: 1872244728 now IPC :1.74766: AVG IPC :0.82939: L2-Pf-HR :0.47004: L2-HR :0.55859: (Sim:2h11m29s) 
CPU  0 inst: 1555000001 cyc: 1872925094 now IPC :1.46979: AVG IPC :0.82962: L2-Pf-HR :0.47004: L2-HR :0.55858: (Sim:2h11m33s) 
CPU  0 inst: 1556000000 cyc: 1873641345 now IPC :1.39616: AVG IPC :0.82983: L2-Pf-HR :0.47006: L2-HR :0.55861: (Sim:2h11m38s) 
CPU  0 inst: 1557000001 cyc: 1874159965 now IPC :1.92820: AVG IPC :0.83014: L2-Pf-HR :0.46992: L2-HR :0.55850: (Sim:2h11m42s) 
CPU  0 inst: 1558000003 cyc: 1874811178 now IPC :1.53560: AVG IPC :0.83038: L2-Pf-HR :0.46970: L2-HR :0.55837: (Sim:2h11m47s) 
CPU  0 inst: 1559000001 cyc: 1875414535 now IPC :1.65739: AVG IPC :0.83065: L2-Pf-HR :0.46954: L2-HR :0.55826: (Sim:2h11m51s) 
CPU  0 inst: 1560000000 cyc: 1876069719 now IPC :1.52629: AVG IPC :0.83089: L2-Pf-HR :0.46938: L2-HR :0.55816: (Sim:2h11m56s) 
CPU  0 inst: 1561000001 cyc: 1876577167 now IPC :1.97065: AVG IPC :0.83120: L2-Pf-HR :0.46928: L2-HR :0.55807: (Sim:2h12m0s) 
CPU  0 inst: 1562000002 cyc: 1877181205 now IPC :1.65553: AVG IPC :0.83147: L2-Pf-HR :0.46910: L2-HR :0.55795: (Sim:2h12m5s) 
CPU  0 inst: 1563000000 cyc: 1877724808 now IPC :1.83957: AVG IPC :0.83176: L2-Pf-HR :0.46899: L2-HR :0.55786: (Sim:2h12m9s) 
CPU  0 inst: 1564000000 cyc: 1878265508 now IPC :1.84945: AVG IPC :0.83205: L2-Pf-HR :0.46890: L2-HR :0.55780: (Sim:2h12m13s) 
CPU  0 inst: 1565000002 cyc: 1878935559 now IPC :1.49243: AVG IPC :0.83229: L2-Pf-HR :0.46873: L2-HR :0.55768: (Sim:2h12m18s) 
CPU  0 inst: 1566000002 cyc: 1879569103 now IPC :1.57842: AVG IPC :0.83254: L2-Pf-HR :0.46853: L2-HR :0.55754: (Sim:2h12m22s) 
CPU  0 inst: 1567000002 cyc: 1880079013 now IPC :1.96113: AVG IPC :0.83285: L2-Pf-HR :0.46843: L2-HR :0.55746: (Sim:2h12m27s) 
CPU  0 inst: 1568000000 cyc: 1880660448 now IPC :1.71988: AVG IPC :0.83312: L2-Pf-HR :0.46832: L2-HR :0.55739: (Sim:2h12m31s) 
CPU  0 inst: 1569000003 cyc: 1881309440 now IPC :1.54086: AVG IPC :0.83336: L2-Pf-HR :0.46814: L2-HR :0.55727: (Sim:2h12m36s) 
CPU  0 inst: 1570000002 cyc: 1881920631 now IPC :1.63615: AVG IPC :0.83363: L2-Pf-HR :0.46794: L2-HR :0.55713: (Sim:2h12m40s) 
CPU  0 inst: 1571000001 cyc: 1882419692 now IPC :2.00376: AVG IPC :0.83394: L2-Pf-HR :0.46785: L2-HR :0.55706: (Sim:2h12m44s) 
CPU  0 inst: 1572000000 cyc: 1882993028 now IPC :1.74418: AVG IPC :0.83421: L2-Pf-HR :0.46773: L2-HR :0.55697: (Sim:2h12m49s) 
CPU  0 inst: 1573000000 cyc: 1883639848 now IPC :1.54603: AVG IPC :0.83446: L2-Pf-HR :0.46756: L2-HR :0.55686: (Sim:2h12m53s) 
CPU  0 inst: 1574000002 cyc: 1884252201 now IPC :1.63305: AVG IPC :0.83472: L2-Pf-HR :0.46737: L2-HR :0.55673: (Sim:2h12m58s) 
CPU  0 inst: 1575000003 cyc: 1884747900 now IPC :2.01736: AVG IPC :0.83503: L2-Pf-HR :0.46726: L2-HR :0.55665: (Sim:2h13m2s) 
CPU  0 inst: 1576000000 cyc: 1885321100 now IPC :1.74459: AVG IPC :0.83531: L2-Pf-HR :0.46712: L2-HR :0.55656: (Sim:2h13m6s) 
CPU  0 inst: 1577000002 cyc: 1885954734 now IPC :1.57820: AVG IPC :0.83555: L2-Pf-HR :0.46710: L2-HR :0.55653: (Sim:2h13m11s) 
CPU  0 inst: 1578000002 cyc: 1886685797 now IPC :1.36787: AVG IPC :0.83576: L2-Pf-HR :0.46717: L2-HR :0.55660: (Sim:2h13m16s) 
CPU  0 inst: 1579000001 cyc: 1887237779 now IPC :1.81165: AVG IPC :0.83605: L2-Pf-HR :0.46701: L2-HR :0.55648: (Sim:2h13m20s) 
CPU  0 inst: 1580000000 cyc: 1887889691 now IPC :1.53395: AVG IPC :0.83629: L2-Pf-HR :0.46680: L2-HR :0.55634: (Sim:2h13m25s) 
CPU  0 inst: 1581000002 cyc: 1888426626 now IPC :1.86243: AVG IPC :0.83658: L2-Pf-HR :0.46667: L2-HR :0.55624: (Sim:2h13m29s) 
CPU  0 inst: 1582000003 cyc: 1889005657 now IPC :1.72703: AVG IPC :0.83685: L2-Pf-HR :0.46655: L2-HR :0.55617: (Sim:2h13m33s) 
CPU  0 inst: 1583000002 cyc: 1889651409 now IPC :1.54858: AVG IPC :0.83710: L2-Pf-HR :0.46637: L2-HR :0.55605: (Sim:2h13m38s) 
CPU  0 inst: 1584000000 cyc: 1890257389 now IPC :1.65022: AVG IPC :0.83736: L2-Pf-HR :0.46616: L2-HR :0.55591: (Sim:2h13m42s) 
CPU  0 inst: 1585000001 cyc: 1890762976 now IPC :1.97790: AVG IPC :0.83766: L2-Pf-HR :0.46604: L2-HR :0.55582: (Sim:2h13m46s) 
CPU  0 inst: 1586000000 cyc: 1891322232 now IPC :1.78809: AVG IPC :0.83794: L2-Pf-HR :0.46591: L2-HR :0.55574: (Sim:2h13m51s) 
CPU  0 inst: 1587000001 cyc: 1891997896 now IPC :1.48003: AVG IPC :0.83817: L2-Pf-HR :0.46573: L2-HR :0.55562: (Sim:2h13m56s) 
CPU  0 inst: 1588000000 cyc: 1892637220 now IPC :1.56415: AVG IPC :0.83842: L2-Pf-HR :0.46552: L2-HR :0.55547: (Sim:2h14m0s) 
CPU  0 inst: 1589000001 cyc: 1893137714 now IPC :1.99803: AVG IPC :0.83872: L2-Pf-HR :0.46540: L2-HR :0.55539: (Sim:2h14m4s) 
CPU  0 inst: 1590000001 cyc: 1893726957 now IPC :1.69709: AVG IPC :0.83899: L2-Pf-HR :0.46526: L2-HR :0.55529: (Sim:2h14m9s) 
CPU  0 inst: 1591000002 cyc: 1894380088 now IPC :1.53109: AVG IPC :0.83923: L2-Pf-HR :0.46508: L2-HR :0.55517: (Sim:2h14m13s) 
CPU  0 inst: 1592000000 cyc: 1894993000 now IPC :1.63155: AVG IPC :0.83949: L2-Pf-HR :0.46487: L2-HR :0.55503: (Sim:2h14m18s) 
CPU  0 inst: 1593000000 cyc: 1895492013 now IPC :2.00396: AVG IPC :0.83979: L2-Pf-HR :0.46477: L2-HR :0.55495: (Sim:2h14m22s) 
CPU  0 inst: 1594000002 cyc: 1896064057 now IPC :1.74812: AVG IPC :0.84007: L2-Pf-HR :0.46464: L2-HR :0.55487: (Sim:2h14m26s) 
CPU  0 inst: 1595000002 cyc: 1896718086 now IPC :1.52898: AVG IPC :0.84031: L2-Pf-HR :0.46449: L2-HR :0.55477: (Sim:2h14m31s) 
CPU  0 inst: 1596000000 cyc: 1897245115 now IPC :1.89743: AVG IPC :0.84060: L2-Pf-HR :0.46434: L2-HR :0.55465: (Sim:2h14m35s) 
CPU  0 inst: 1597000002 cyc: 1897827941 now IPC :1.71578: AVG IPC :0.84087: L2-Pf-HR :0.46418: L2-HR :0.55455: (Sim:2h14m40s) 
CPU  0 inst: 1598000001 cyc: 1898400303 now IPC :1.74714: AVG IPC :0.84114: L2-Pf-HR :0.46404: L2-HR :0.55446: (Sim:2h14m44s) 
CPU  0 inst: 1599000000 cyc: 1899006895 now IPC :1.64855: AVG IPC :0.84140: L2-Pf-HR :0.46399: L2-HR :0.55441: (Sim:2h14m49s) 
CPU  0 inst: 1600000000 cyc: 1899637759 now IPC :1.58513: AVG IPC :0.84165: L2-Pf-HR :0.46414: L2-HR :0.55451: (Sim:2h14m53s) 
CPU  0 inst: 1601000001 cyc: 1900320868 now IPC :1.46390: AVG IPC :0.84187: L2-Pf-HR :0.46396: L2-HR :0.55440: (Sim:2h14m58s) 
CPU  0 inst: 1602000002 cyc: 1900970811 now IPC :1.53860: AVG IPC :0.84211: L2-Pf-HR :0.46374: L2-HR :0.55426: (Sim:2h15m3s) 
CPU  0 inst: 1603000002 cyc: 1901483042 now IPC :1.95224: AVG IPC :0.84241: L2-Pf-HR :0.46362: L2-HR :0.55417: (Sim:2h15m7s) 
CPU  0 inst: 1604000000 cyc: 1902079449 now IPC :1.67670: AVG IPC :0.84267: L2-Pf-HR :0.46349: L2-HR :0.55409: (Sim:2h15m11s) 
CPU  0 inst: 1605000003 cyc: 1902732727 now IPC :1.53075: AVG IPC :0.84291: L2-Pf-HR :0.46331: L2-HR :0.55396: (Sim:2h15m16s) 
CPU  0 inst: 1606000003 cyc: 1903341632 now IPC :1.64229: AVG IPC :0.84316: L2-Pf-HR :0.46311: L2-HR :0.55383: (Sim:2h15m21s) 
CPU  0 inst: 1607000001 cyc: 1903837608 now IPC :2.01622: AVG IPC :0.84347: L2-Pf-HR :0.46300: L2-HR :0.55375: (Sim:2h15m25s) 
CPU  0 inst: 1608000000 cyc: 1904409846 now IPC :1.74752: AVG IPC :0.84374: L2-Pf-HR :0.46287: L2-HR :0.55366: (Sim:2h15m29s) 
CPU  0 inst: 1609000003 cyc: 1905085503 now IPC :1.48005: AVG IPC :0.84397: L2-Pf-HR :0.46270: L2-HR :0.55354: (Sim:2h15m34s) 
CPU  0 inst: 1610000002 cyc: 1905716722 now IPC :1.58423: AVG IPC :0.84421: L2-Pf-HR :0.46249: L2-HR :0.55339: (Sim:2h15m38s) 
CPU  0 inst: 1611000003 cyc: 1906222871 now IPC :1.97570: AVG IPC :0.84451: L2-Pf-HR :0.46236: L2-HR :0.55331: (Sim:2h15m42s) 
CPU  0 inst: 1612000000 cyc: 1906813793 now IPC :1.69227: AVG IPC :0.84477: L2-Pf-HR :0.46222: L2-HR :0.55321: (Sim:2h15m47s) 
CPU  0 inst: 1613000001 cyc: 1907458317 now IPC :1.55153: AVG IPC :0.84501: L2-Pf-HR :0.46205: L2-HR :0.55310: (Sim:2h15m51s) 
CPU  0 inst: 1614000003 cyc: 1907988045 now IPC :1.88777: AVG IPC :0.84530: L2-Pf-HR :0.46189: L2-HR :0.55297: (Sim:2h15m55s) 
CPU  0 inst: 1615000002 cyc: 1908569255 now IPC :1.72055: AVG IPC :0.84557: L2-Pf-HR :0.46171: L2-HR :0.55287: (Sim:2h16m0s) 
CPU  0 inst: 1616000000 cyc: 1909142654 now IPC :1.74398: AVG IPC :0.84584: L2-Pf-HR :0.46157: L2-HR :0.55277: (Sim:2h16m4s) 
CPU  0 inst: 1617000001 cyc: 1909785413 now IPC :1.55579: AVG IPC :0.84608: L2-Pf-HR :0.46142: L2-HR :0.55267: (Sim:2h16m9s) 
CPU  0 inst: 1618000000 cyc: 1910297856 now IPC :1.95143: AVG IPC :0.84638: L2-Pf-HR :0.46127: L2-HR :0.55256: (Sim:2h16m13s) 
CPU  0 inst: 1619000000 cyc: 1910896815 now IPC :1.66956: AVG IPC :0.84663: L2-Pf-HR :0.46108: L2-HR :0.55244: (Sim:2h16m17s) 
Finished CPU 0 instr: 1617000001 cyc: 1909916905 AVG IPC: 0.84663 (Sim time: 2h16m17s)

ChampSim completed all CPUs

[ROI Statistics]
Core_0_instructions 1617000001
Core_0_cycles 1909916905
Core_0_IPC 0.84663

Core_0_branch_prediction_accuracy 99.26547
Core_0_branch_MPKI 0.21633
Core_0_average_ROB_occupancy_at_mispredict 250.64508

Core_0_L1D_total_access 465835295
Core_0_L1D_total_hit 430568556 L1D_total_Hit Ratio: 0.92429
Core_0_L1D_total_miss 35266739
Core_0_L1D_loads 376977037
Core_0_L1D_load_hit 365971476 L1D_load_Hit Ratio: 0.97081
Core_0_L1D_load_miss 11005561
Core_0_L1D_RFOs 44265048
Core_0_L1D_RFO_hit 42734936 L1D_RFO_Hit Ratio: 0.96543
Core_0_L1D_RFO_miss 1530112
Core_0_L1D_prefetches 44593210
Core_0_L1D_prefetch_hit 21862144 L1D_prefetch_Hit Ratio: 0.49026
Core_0_L1D_prefetch_miss 22731066
Core_0_L1D_writebacks 0
Core_0_L1D_writeback_hit 0 L1D_writeback_Hit Ratio: -nan
Core_0_L1D_writeback_miss 0
Core_0_L1D_prefetch_requested 52697093
Core_0_L1D_prefetch_issued 52697093
Core_0_L1D_prefetch_useful 22520498 L1D_Useful Ratio: 0.42736
Core_0_L1D_prefetch_useless 232373
Core_0_L1D_prefetch_late 3013246
Core_0_L1D_average_miss_latency 66526544.27813

Core_0_L1I_total_access 402534376
Core_0_L1I_total_hit 402529470 L1I_total_Hit Ratio: 0.99999
Core_0_L1I_total_miss 4906
Core_0_L1I_loads 402534376
Core_0_L1I_load_hit 402529470 L1I_load_Hit Ratio: 0.99999
Core_0_L1I_load_miss 4906
Core_0_L1I_RFOs 0
Core_0_L1I_RFO_hit 0 L1I_RFO_Hit Ratio: -nan
Core_0_L1I_RFO_miss 0
Core_0_L1I_prefetches 0
Core_0_L1I_prefetch_hit 0 L1I_prefetch_Hit Ratio: -nan
Core_0_L1I_prefetch_miss 0
Core_0_L1I_writebacks 0
Core_0_L1I_writeback_hit 0 L1I_writeback_Hit Ratio: -nan
Core_0_L1I_writeback_miss 0
Core_0_L1I_prefetch_requested 0
Core_0_L1I_prefetch_issued 0
Core_0_L1I_prefetch_useful 0 L1I_Useful Ratio: -nan
Core_0_L1I_prefetch_useless 0
Core_0_L1I_prefetch_late 0
Core_0_L1I_average_miss_latency 243.24378

Core_0_L2C_total_access 54600435
Core_0_L2C_total_hit 30163415 L2C_total_Hit Ratio: 0.55244
Core_0_L2C_total_miss 24437020
Core_0_L2C_loads 7998435
Core_0_L2C_load_hit 3530120 L2C_load_Hit Ratio: 0.44135
Core_0_L2C_load_miss 4468315
Core_0_L2C_RFOs 1530003
Core_0_L2C_RFO_hit 85750 L2C_RFO_Hit Ratio: 0.05605
Core_0_L2C_RFO_miss 1444253
Core_0_L2C_prefetches 34122485
Core_0_L2C_prefetch_hit 15733215 L2C_prefetch_Hit Ratio: 0.46108
Core_0_L2C_prefetch_miss 18389270
Core_0_L2C_writebacks 10949512
Core_0_L2C_writeback_hit 10814330 L2C_writeback_Hit Ratio: 0.98765
Core_0_L2C_writeback_miss 135182
Core_0_L2C_prefetch_requested 10033024
Core_0_L2C_prefetch_issued 10033024
Core_0_L2C_prefetch_useful 1432397 L2C_Useful Ratio: 0.14277
Core_0_L2C_prefetch_useless 16965228
Core_0_L2C_prefetch_late 221818
Core_0_L2C_average_miss_latency 187.71071

Core_0_LLC_total_access 34916521
Core_0_LLC_total_hit 23037557 LLC_total_Hit Ratio: 0.65979
Core_0_LLC_total_miss 11878964
Core_0_LLC_loads 4246446
Core_0_LLC_load_hit 1634095 LLC_load_Hit Ratio: 0.38481
Core_0_LLC_load_miss 2612351
Core_0_LLC_RFOs 1444253
Core_0_LLC_RFO_hit 82450 LLC_RFO_Hit Ratio: 0.05709
Core_0_LLC_RFO_miss 1361803
Core_0_LLC_prefetches 18610928
Core_0_LLC_prefetch_hit 10706284 LLC_prefetch_Hit Ratio: 0.57527
Core_0_LLC_prefetch_miss 7904644
Core_0_LLC_writebacks 10614894
Core_0_LLC_writeback_hit 10614728 LLC_writeback_Hit Ratio: 0.99998
Core_0_LLC_writeback_miss 166
Core_0_LLC_prefetch_requested 0
Core_0_LLC_prefetch_issued 0
Core_0_LLC_prefetch_useful 470144 LLC_Useful Ratio: inf
Core_0_LLC_prefetch_useless 7417866
Core_0_LLC_prefetch_late 0
Core_0_LLC_average_miss_latency 326.00967

Core_0_major_page_fault 0
Core_0_minor_page_fault 76848

[Bingo] PHT Access: 3813150
[Bingo] PHT Hit PC+Addr: 1135815
[Bingo] PHT Hit PC+Offs: 2557741
[Bingo] PHT Miss: 119594
[Bingo] Prefetch PC+Addr: 0
[Bingo] Prefetch PC+Offs: 0
[Bingo] Useful PC+Addr: 0
[Bingo] Useful PC+Offs: 0
[Bingo] Useless PC+Addr: 0
[Bingo] Useless PC+Offs: 0
[Bingo] L1 Prefetch per Region: 14.81709
[Bingo] L2 Prefetch per Region: 0.91969
[Bingo] L3 Prefetch per Region: 0.00000
[Bingo] No Prefetch per Region: 16.26322
[Bingo] Number of Voters Mean: 15.70720
[Bingo] Number of Voters SD: 1.67884
PHT read accesses: 50924011
PHT write accesses: 3673520
AT read accesses: 356374847
AT write accesses: 356374845
FT read accesses: 55211963
FT write accesses: 3813150
PS read accesses: 23374347
PS write accesses: 3693556
PHT tag read accesses: 150646135
PHT tag write accesses: 4809335
AT tag read accesses: 6746734576
AT tag write accesses: 360048365
FT tag read accesses: 1160640590
FT tag write accesses: 33325638
PS tag read accesses: 6179692737
PS tag write accesses: 27029966
[Bingo2] PHT Access: 2466776
[Bingo2] PHT Hit PC+Addr: 136744
[Bingo2] PHT Hit PC+Offs: 2220499
[Bingo2] PHT Miss: 109533
[Bingo2] Prefetch PC+Addr: 0
[Bingo2] Prefetch PC+Offs: 0
[Bingo2] Useful PC+Addr: 0
[Bingo2] Useful PC+Offs: 0
[Bingo2] Useless PC+Addr: 0
[Bingo2] Useless PC+Offs: 0
[Bingo2] L1 Prefetch per Region: 0.00000
[Bingo2] L2 Prefetch per Region: 5.31438
[Bingo2] L3 Prefetch per Region: 0.00000
[Bingo2] No Prefetch per Region: 26.68562
[Bingo2] Number of Voters Mean: 15.62647
[Bingo2] Number of Voters SD: 1.86677
PHT read accesses: 36569275
PHT write accesses: 1635743
AT read accesses: 7087288
AT write accesses: 7144840
FT read accesses: 5481294
FT write accesses: 2466776
PS read accesses: 4768788
PS write accesses: 2357243
PHT tag read accesses: 89431833
PHT tag write accesses: 1772487
AT tag read accesses: 583627566
AT tag write accesses: 8722972
FT tag read accesses: 538644576
FT tag write accesses: 6289883
PS tag read accesses: 215327384
PS tag write accesses: 7110169
Channel_0_RQ_row_buffer_hit 7022800
Channel_0_RQ_row_buffer_miss 4853887
Channel_0_WQ_row_buffer_hit 2248116
Channel_0_WQ_row_buffer_miss 4626685
Channel_0_WQ_full 0
Channel_0_dbus_congested 11651731

avg_congested_cycle 11

EzSearch AVG IPC :0.84663: L2-Pf-HR :0.46108 : L2-HR :0.55244 Uful:0.14277
     > Finished combination: TraceType=770-tot Sim:1617000000 Prefetcher=L2bingo_dpc3 L1=bingo_dpc3
