TRACE: [103000000]_FE_[OPT-2_7B]_[h32]_[s256]_[d80] Warmup: 2000000 NumTraces: 103000000
L1:bingo_dpc3:L2:bingo_dpc3
*************************************************
   ChampSim Multicore Out-of-Order Simulator
   Last compiled: Oct 20 2024 03:59:48
*************************************************

trace_0 770-tot_memTraces_v3/memTraces[103000000]_FE_[OPT-2_7B]_[h32]_[s256]_[d80].champsim.xz
Bingo PHT WAYS: 16 and PHT_SIZE: 16384
Bingo2 PHT WAYS: 16 and PHT_SIZE: 16384
MAIN.cc ln 751 stats print skipped
CPU  0 inst:    1000001 cyc:     502765 now IPC :1.98900: AVG IPC :1.98900: L2-Pf-HR :0.78000: L2-HR :0.65733: (Sim:0h0m5s) 
CPU  0 inst:    2000002 cyc:     982955 now IPC :2.08251: AVG IPC :2.03468: L2-Pf-HR :0.80717: L2-HR :0.73764: (Sim:0h0m10s) 

Warmup complete CPU  0 instructions:    2000002 cycles:     982955 (Simulation time: 0 hr 0 min 10 sec) 

CPU  0 inst:    3000000 cyc:    1559142 now IPC :1.73554: AVG IPC :1.73554: L2-Pf-HR :0.78743: L2-HR :0.80941: (Sim:0h0m14s) 
CPU  0 inst:    4000000 cyc:    2106021 now IPC :1.82856: AVG IPC :1.78084: L2-Pf-HR :0.81825: L2-HR :0.83339: (Sim:0h0m18s) 
CPU  0 inst:    5000001 cyc:    2697953 now IPC :1.68938: AVG IPC :1.74927: L2-Pf-HR :0.80599: L2-HR :0.82311: (Sim:0h0m23s) 
CPU  0 inst:    6000003 cyc:    3303385 now IPC :1.65172: AVG IPC :1.72382: L2-Pf-HR :0.80101: L2-HR :0.81900: (Sim:0h0m27s) 
CPU  0 inst:    7000002 cyc:    3909971 now IPC :1.64857: AVG IPC :1.70822: L2-Pf-HR :0.80586: L2-HR :0.82385: (Sim:0h0m31s) 
CPU  0 inst:    8000000 cyc:    4540548 now IPC :1.58585: AVG IPC :1.68653: L2-Pf-HR :0.80309: L2-HR :0.82273: (Sim:0h0m36s) 
CPU  0 inst:    9000001 cyc:    5116207 now IPC :1.73714: AVG IPC :1.69358: L2-Pf-HR :0.80499: L2-HR :0.82491: (Sim:0h0m40s) 
CPU  0 inst:   10000000 cyc:    5759592 now IPC :1.55428: AVG IPC :1.67482: L2-Pf-HR :0.80522: L2-HR :0.82466: (Sim:0h0m44s) 
CPU  0 inst:   11000000 cyc:    6412539 now IPC :1.53152: AVG IPC :1.65759: L2-Pf-HR :0.80483: L2-HR :0.82381: (Sim:0h0m49s) 
CPU  0 inst:   12000000 cyc:    7069590 now IPC :1.52195: AVG IPC :1.64294: L2-Pf-HR :0.80264: L2-HR :0.82152: (Sim:0h0m53s) 
CPU  0 inst:   13000001 cyc:    7657949 now IPC :1.69964: AVG IPC :1.64794: L2-Pf-HR :0.80733: L2-HR :0.82510: (Sim:0h0m57s) 
CPU  0 inst:   14000000 cyc:    8323890 now IPC :1.50163: AVG IPC :1.63467: L2-Pf-HR :0.80635: L2-HR :0.82362: (Sim:0h1m2s) 
CPU  0 inst:   15000003 cyc:    8983400 now IPC :1.51628: AVG IPC :1.62491: L2-Pf-HR :0.80534: L2-HR :0.82240: (Sim:0h1m6s) 
CPU  0 inst:   16000000 cyc:    9649869 now IPC :1.50044: AVG IPC :1.61534: L2-Pf-HR :0.80663: L2-HR :0.82244: (Sim:0h1m11s) 
CPU  0 inst:   17000002 cyc:   10251214 now IPC :1.66294: AVG IPC :1.61843: L2-Pf-HR :0.80919: L2-HR :0.82428: (Sim:0h1m15s) 
CPU  0 inst:   18000003 cyc:   10872647 now IPC :1.60919: AVG IPC :1.61785: L2-Pf-HR :0.80719: L2-HR :0.82322: (Sim:0h1m19s) 
CPU  0 inst:   19000000 cyc:   11502010 now IPC :1.58890: AVG IPC :1.61611: L2-Pf-HR :0.80747: L2-HR :0.82388: (Sim:0h1m24s) 
CPU  0 inst:   20000000 cyc:   12148067 now IPC :1.54785: AVG IPC :1.61216: L2-Pf-HR :0.80557: L2-HR :0.82249: (Sim:0h1m28s) 
CPU  0 inst:   21000000 cyc:   12747012 now IPC :1.66960: AVG IPC :1.61509: L2-Pf-HR :0.80863: L2-HR :0.82497: (Sim:0h1m33s) 
CPU  0 inst:   22000000 cyc:   13385302 now IPC :1.56669: AVG IPC :1.61260: L2-Pf-HR :0.80811: L2-HR :0.82405: (Sim:0h1m37s) 
CPU  0 inst:   23000000 cyc:   14010018 now IPC :1.60073: AVG IPC :1.61203: L2-Pf-HR :0.80765: L2-HR :0.82407: (Sim:0h1m41s) 
CPU  0 inst:   24000000 cyc:   14647744 now IPC :1.56807: AVG IPC :1.60998: L2-Pf-HR :0.80713: L2-HR :0.82388: (Sim:0h1m46s) 
CPU  0 inst:   25000002 cyc:   15257044 now IPC :1.64123: AVG IPC :1.61131: L2-Pf-HR :0.80691: L2-HR :0.82431: (Sim:0h1m50s) 
CPU  0 inst:   26000002 cyc:   15848030 now IPC :1.69209: AVG IPC :1.61452: L2-Pf-HR :0.80717: L2-HR :0.82462: (Sim:0h1m54s) 
CPU  0 inst:   27000001 cyc:   16506902 now IPC :1.51774: AVG IPC :1.61042: L2-Pf-HR :0.80636: L2-HR :0.82398: (Sim:0h1m59s) 
CPU  0 inst:   28000000 cyc:   17127399 now IPC :1.61161: AVG IPC :1.61046: L2-Pf-HR :0.80651: L2-HR :0.82432: (Sim:0h2m3s) 
CPU  0 inst:   29000001 cyc:   17750297 now IPC :1.60540: AVG IPC :1.61027: L2-Pf-HR :0.80599: L2-HR :0.82407: (Sim:0h2m8s) 
CPU  0 inst:   30000001 cyc:   18347389 now IPC :1.67478: AVG IPC :1.61249: L2-Pf-HR :0.80692: L2-HR :0.82483: (Sim:0h2m12s) 
CPU  0 inst:   31000000 cyc:   19012080 now IPC :1.50446: AVG IPC :1.60851: L2-Pf-HR :0.80618: L2-HR :0.82432: (Sim:0h2m16s) 
CPU  0 inst:   32000000 cyc:   19634694 now IPC :1.60613: AVG IPC :1.60843: L2-Pf-HR :0.80646: L2-HR :0.82455: (Sim:0h2m21s) 
CPU  0 inst:   33000002 cyc:   20279799 now IPC :1.55014: AVG IPC :1.60648: L2-Pf-HR :0.80617: L2-HR :0.82419: (Sim:0h2m25s) 
CPU  0 inst:   34000000 cyc:   20856541 now IPC :1.73387: AVG IPC :1.61018: L2-Pf-HR :0.80725: L2-HR :0.82502: (Sim:0h2m30s) 
CPU  0 inst:   35000002 cyc:   21505633 now IPC :1.54062: AVG IPC :1.60798: L2-Pf-HR :0.80664: L2-HR :0.82456: (Sim:0h2m34s) 
CPU  0 inst:   36000000 cyc:   22135623 now IPC :1.58732: AVG IPC :1.60736: L2-Pf-HR :0.80611: L2-HR :0.82425: (Sim:0h2m38s) 
CPU  0 inst:   37000000 cyc:   22782161 now IPC :1.54670: AVG IPC :1.60556: L2-Pf-HR :0.80571: L2-HR :0.82388: (Sim:0h2m43s) 
CPU  0 inst:   38000001 cyc:   23398401 now IPC :1.62275: AVG IPC :1.60604: L2-Pf-HR :0.80658: L2-HR :0.82462: (Sim:0h2m47s) 
CPU  0 inst:   39000000 cyc:   23989707 now IPC :1.69117: AVG IPC :1.60822: L2-Pf-HR :0.80682: L2-HR :0.82489: (Sim:0h2m51s) 
CPU  0 inst:   40000000 cyc:   24619117 now IPC :1.58879: AVG IPC :1.60771: L2-Pf-HR :0.80647: L2-HR :0.82465: (Sim:0h2m56s) 
CPU  0 inst:   41000000 cyc:   25257738 now IPC :1.56587: AVG IPC :1.60661: L2-Pf-HR :0.80611: L2-HR :0.82431: (Sim:0h3m0s) 
CPU  0 inst:   42000002 cyc:   26382000 now IPC :0.88947: AVG IPC :1.57486: L2-Pf-HR :0.80090: L2-HR :0.81968: (Sim:0h3m5s) 
CPU  0 inst:   43000001 cyc:   32545999 now IPC :0.16223: AVG IPC :1.29899: L2-Pf-HR :0.71281: L2-HR :0.76996: (Sim:0h3m20s) 
CPU  0 inst:   44000000 cyc:   36390372 now IPC :0.26012: AVG IPC :1.18619: L2-Pf-HR :0.69381: L2-HR :0.75862: (Sim:0h3m30s) 
CPU  0 inst:   45000002 cyc:   39830614 now IPC :0.29068: AVG IPC :1.10689: L2-Pf-HR :0.68224: L2-HR :0.75179: (Sim:0h3m38s) 
CPU  0 inst:   46000002 cyc:   43270883 now IPC :0.29067: AVG IPC :1.04049: L2-Pf-HR :0.67104: L2-HR :0.74518: (Sim:0h3m47s) 
CPU  0 inst:   47000002 cyc:   46711068 now IPC :0.29068: AVG IPC :0.98408: L2-Pf-HR :0.66020: L2-HR :0.73878: (Sim:0h3m55s) 
CPU  0 inst:   48000000 cyc:   50151267 now IPC :0.29068: AVG IPC :0.93556: L2-Pf-HR :0.64971: L2-HR :0.73257: (Sim:0h4m4s) 
CPU  0 inst:   49000002 cyc:   53591507 now IPC :0.29068: AVG IPC :0.89339: L2-Pf-HR :0.63955: L2-HR :0.72654: (Sim:0h4m10s) 
CPU  0 inst:   50000002 cyc:   57031776 now IPC :0.29067: AVG IPC :0.85640: L2-Pf-HR :0.62970: L2-HR :0.72070: (Sim:0h4m15s) 
CPU  0 inst:   51000002 cyc:   60471961 now IPC :0.29068: AVG IPC :0.82368: L2-Pf-HR :0.62015: L2-HR :0.71503: (Sim:0h4m21s) 
CPU  0 inst:   52000000 cyc:   63912160 now IPC :0.29068: AVG IPC :0.79454: L2-Pf-HR :0.61088: L2-HR :0.70952: (Sim:0h4m26s) 
CPU  0 inst:   53000002 cyc:   67352400 now IPC :0.29068: AVG IPC :0.76843: L2-Pf-HR :0.60189: L2-HR :0.70416: (Sim:0h4m31s) 
CPU  0 inst:   54000002 cyc:   70792669 now IPC :0.29067: AVG IPC :0.74488: L2-Pf-HR :0.59316: L2-HR :0.69896: (Sim:0h4m37s) 
CPU  0 inst:   55000002 cyc:   74232854 now IPC :0.29068: AVG IPC :0.72355: L2-Pf-HR :0.58467: L2-HR :0.69390: (Sim:0h4m44s) 
CPU  0 inst:   56000000 cyc:   77673053 now IPC :0.29068: AVG IPC :0.70413: L2-Pf-HR :0.57643: L2-HR :0.68898: (Sim:0h4m52s) 
CPU  0 inst:   57000002 cyc:   81113293 now IPC :0.29068: AVG IPC :0.68638: L2-Pf-HR :0.56842: L2-HR :0.68420: (Sim:0h5m1s) 
CPU  0 inst:   58000002 cyc:   84553562 now IPC :0.29067: AVG IPC :0.67009: L2-Pf-HR :0.56062: L2-HR :0.67954: (Sim:0h5m9s) 
CPU  0 inst:   59000002 cyc:   87993747 now IPC :0.29068: AVG IPC :0.65509: L2-Pf-HR :0.55304: L2-HR :0.67500: (Sim:0h5m17s) 
CPU  0 inst:   60000000 cyc:   90569660 now IPC :0.38821: AVG IPC :0.64742: L2-Pf-HR :0.54787: L2-HR :0.67086: (Sim:0h5m24s) 
CPU  0 inst:   61000002 cyc:   91180596 now IPC :1.63684: AVG IPC :0.65412: L2-Pf-HR :0.55627: L2-HR :0.67544: (Sim:0h5m29s) 
CPU  0 inst:   62000000 cyc:   91757233 now IPC :1.73419: AVG IPC :0.66098: L2-Pf-HR :0.56278: L2-HR :0.67877: (Sim:0h5m33s) 
CPU  0 inst:   63000002 cyc:   92398387 now IPC :1.55969: AVG IPC :0.66728: L2-Pf-HR :0.56825: L2-HR :0.68155: (Sim:0h5m37s) 
CPU  0 inst:   64000000 cyc:   93014065 now IPC :1.62422: AVG IPC :0.67369: L2-Pf-HR :0.57408: L2-HR :0.68458: (Sim:0h5m42s) 
CPU  0 inst:   65000000 cyc:   93528546 now IPC :1.94371: AVG IPC :0.68075: L2-Pf-HR :0.58180: L2-HR :0.68902: (Sim:0h5m46s) 
CPU  0 inst:   66000002 cyc:   94125270 now IPC :1.67582: AVG IPC :0.68712: L2-Pf-HR :0.58664: L2-HR :0.69155: (Sim:0h5m50s) 
CPU  0 inst:   67000001 cyc:   94737392 now IPC :1.63366: AVG IPC :0.69330: L2-Pf-HR :0.59110: L2-HR :0.69383: (Sim:0h5m54s) 
CPU  0 inst:   68000000 cyc:   95338646 now IPC :1.66319: AVG IPC :0.69948: L2-Pf-HR :0.59658: L2-HR :0.69684: (Sim:0h5m58s) 
CPU  0 inst:   69000003 cyc:   95844235 now IPC :1.97790: AVG IPC :0.70629: L2-Pf-HR :0.60253: L2-HR :0.70027: (Sim:0h6m3s) 
CPU  0 inst:   70000003 cyc:   96457607 now IPC :1.63033: AVG IPC :0.71223: L2-Pf-HR :0.60617: L2-HR :0.70213: (Sim:0h6m7s) 
CPU  0 inst:   71000000 cyc:   97072102 now IPC :1.62735: AVG IPC :0.71808: L2-Pf-HR :0.60972: L2-HR :0.70395: (Sim:0h6m11s) 
CPU  0 inst:   72000000 cyc:   97619901 now IPC :1.82549: AVG IPC :0.72436: L2-Pf-HR :0.61558: L2-HR :0.70758: (Sim:0h6m16s) 
CPU  0 inst:   73000000 cyc:   98185759 now IPC :1.76723: AVG IPC :0.73043: L2-Pf-HR :0.61937: L2-HR :0.70957: (Sim:0h6m20s) 
CPU  0 inst:   74000003 cyc:   98792119 now IPC :1.64919: AVG IPC :0.73613: L2-Pf-HR :0.62231: L2-HR :0.71110: (Sim:0h6m25s) 
CPU  0 inst:   75000000 cyc:   99402713 now IPC :1.63774: AVG IPC :0.74172: L2-Pf-HR :0.62579: L2-HR :0.71301: (Sim:0h6m29s) 
CPU  0 inst:   76000000 cyc:   99914450 now IPC :1.95413: AVG IPC :0.74799: L2-Pf-HR :0.63103: L2-HR :0.71624: (Sim:0h6m33s) 
CPU  0 inst:   77000003 cyc:  100521157 now IPC :1.64825: AVG IPC :0.75348: L2-Pf-HR :0.63377: L2-HR :0.71772: (Sim:0h6m38s) 
CPU  0 inst:   78000001 cyc:  101132560 now IPC :1.63558: AVG IPC :0.75886: L2-Pf-HR :0.63624: L2-HR :0.71902: (Sim:0h6m42s) 
CPU  0 inst:   79000000 cyc:  101738243 now IPC :1.65103: AVG IPC :0.76423: L2-Pf-HR :0.63978: L2-HR :0.72108: (Sim:0h6m47s) 
CPU  0 inst:   80000000 cyc:  102242292 now IPC :1.98393: AVG IPC :0.77030: L2-Pf-HR :0.64408: L2-HR :0.72369: (Sim:0h6m51s) 
CPU  0 inst:   81000002 cyc:  102854549 now IPC :1.63330: AVG IPC :0.77549: L2-Pf-HR :0.64651: L2-HR :0.72503: (Sim:0h6m55s) 
CPU  0 inst:   82000001 cyc:  103459741 now IPC :1.65237: AVG IPC :0.78066: L2-Pf-HR :0.64896: L2-HR :0.72638: (Sim:0h7m0s) 
CPU  0 inst:   83000000 cyc:  104003952 now IPC :1.83752: AVG IPC :0.78625: L2-Pf-HR :0.65318: L2-HR :0.72911: (Sim:0h7m3s) 
CPU  0 inst:   84000000 cyc:  104572291 now IPC :1.75951: AVG IPC :0.79159: L2-Pf-HR :0.65576: L2-HR :0.73059: (Sim:0h7m6s) 
CPU  0 inst:   85000001 cyc:  105187790 now IPC :1.62470: AVG IPC :0.79651: L2-Pf-HR :0.65778: L2-HR :0.73168: (Sim:0h7m9s) 
CPU  0 inst:   86000000 cyc:  105792796 now IPC :1.65287: AVG IPC :0.80145: L2-Pf-HR :0.66023: L2-HR :0.73308: (Sim:0h7m11s) 
CPU  0 inst:   87000000 cyc:  106304238 now IPC :1.95526: AVG IPC :0.80705: L2-Pf-HR :0.66416: L2-HR :0.73562: (Sim:0h7m14s) 
CPU  0 inst:   88000000 cyc:  106911972 now IPC :1.64546: AVG IPC :0.81186: L2-Pf-HR :0.66610: L2-HR :0.73673: (Sim:0h7m17s) 
CPU  0 inst:   89000000 cyc:  107520233 now IPC :1.64403: AVG IPC :0.81662: L2-Pf-HR :0.66792: L2-HR :0.73775: (Sim:0h7m20s) 
CPU  0 inst:   90000002 cyc:  108125370 now IPC :1.65252: AVG IPC :0.82134: L2-Pf-HR :0.67046: L2-HR :0.73929: (Sim:0h7m22s) 
CPU  0 inst:   91000001 cyc:  108629441 now IPC :1.98385: AVG IPC :0.82678: L2-Pf-HR :0.67365: L2-HR :0.74133: (Sim:0h7m25s) 
CPU  0 inst:   92000000 cyc:  109238711 now IPC :1.64131: AVG IPC :0.83136: L2-Pf-HR :0.67528: L2-HR :0.74225: (Sim:0h7m28s) 
CPU  0 inst:   93000000 cyc:  109857609 now IPC :1.61578: AVG IPC :0.83582: L2-Pf-HR :0.67704: L2-HR :0.74324: (Sim:0h7m31s) 
CPU  0 inst:   94000003 cyc:  110396763 now IPC :1.85476: AVG IPC :0.84084: L2-Pf-HR :0.68038: L2-HR :0.74547: (Sim:0h7m33s) 
CPU  0 inst:   95000000 cyc:  110976160 now IPC :1.72593: AVG IPC :0.84551: L2-Pf-HR :0.68211: L2-HR :0.74646: (Sim:0h7m36s) 
CPU  0 inst:   96000000 cyc:  111583253 now IPC :1.64719: AVG IPC :0.84991: L2-Pf-HR :0.68353: L2-HR :0.74726: (Sim:0h7m39s) 
CPU  0 inst:   97000003 cyc:  112193896 now IPC :1.63762: AVG IPC :0.85423: L2-Pf-HR :0.68528: L2-HR :0.74831: (Sim:0h7m42s) 
CPU  0 inst:   98000000 cyc:  112703037 now IPC :1.96409: AVG IPC :0.85929: L2-Pf-HR :0.68835: L2-HR :0.75034: (Sim:0h7m44s) 
CPU  0 inst:   99000003 cyc:  113310667 now IPC :1.64574: AVG IPC :0.86354: L2-Pf-HR :0.68950: L2-HR :0.75103: (Sim:0h7m47s) 
CPU  0 inst:  100000000 cyc:  113927898 now IPC :1.62013: AVG IPC :0.86768: L2-Pf-HR :0.69093: L2-HR :0.75182: (Sim:0h7m51s) 
Finished CPU 0 instr: 98000002 cyc: 112944963 AVG IPC: 0.86768 (Sim time: 0h7m51s)

ChampSim completed all CPUs

[ROI Statistics]
Core_0_instructions 98000002
Core_0_cycles 112944963
Core_0_IPC 0.86768

Core_0_branch_prediction_accuracy 98.32538
Core_0_branch_MPKI 0.51239
Core_0_average_ROB_occupancy_at_mispredict 220.65428

Core_0_L1D_total_access 29348976
Core_0_L1D_total_hit 26810940 L1D_total_Hit Ratio: 0.91352
Core_0_L1D_total_miss 2538036
Core_0_L1D_loads 22964250
Core_0_L1D_load_hit 22301103 L1D_load_Hit Ratio: 0.97112
Core_0_L1D_load_miss 663147
Core_0_L1D_RFOs 2958596
Core_0_L1D_RFO_hit 2912125 L1D_RFO_Hit Ratio: 0.98429
Core_0_L1D_RFO_miss 46471
Core_0_L1D_prefetches 3426130
Core_0_L1D_prefetch_hit 1597712 L1D_prefetch_Hit Ratio: 0.46633
Core_0_L1D_prefetch_miss 1828418
Core_0_L1D_writebacks 0
Core_0_L1D_writeback_hit 0 L1D_writeback_Hit Ratio: -nan
Core_0_L1D_writeback_miss 0
Core_0_L1D_prefetch_requested 3871842
Core_0_L1D_prefetch_issued 3871842
Core_0_L1D_prefetch_useful 1840484 L1D_Useful Ratio: 0.47535
Core_0_L1D_prefetch_useless 15613
Core_0_L1D_prefetch_late 229288
Core_0_L1D_average_miss_latency 4774000.75702

Core_0_L1I_total_access 23451464
Core_0_L1I_total_hit 23446685 L1I_total_Hit Ratio: 0.99980
Core_0_L1I_total_miss 4779
Core_0_L1I_loads 23451464
Core_0_L1I_load_hit 23446685 L1I_load_Hit Ratio: 0.99980
Core_0_L1I_load_miss 4779
Core_0_L1I_RFOs 0
Core_0_L1I_RFO_hit 0 L1I_RFO_Hit Ratio: -nan
Core_0_L1I_RFO_miss 0
Core_0_L1I_prefetches 0
Core_0_L1I_prefetch_hit 0 L1I_prefetch_Hit Ratio: -nan
Core_0_L1I_prefetch_miss 0
Core_0_L1I_writebacks 0
Core_0_L1I_writeback_hit 0 L1I_writeback_Hit Ratio: -nan
Core_0_L1I_writeback_miss 0
Core_0_L1I_prefetch_requested 0
Core_0_L1I_prefetch_issued 0
Core_0_L1I_prefetch_useful 0 L1I_Useful Ratio: -nan
Core_0_L1I_prefetch_useless 0
Core_0_L1I_prefetch_late 0
Core_0_L1I_average_miss_latency 227.70182

Core_0_L2C_total_access 3554828
Core_0_L2C_total_hit 2672608 L2C_total_Hit Ratio: 0.75182
Core_0_L2C_total_miss 882220
Core_0_L2C_loads 439300
Core_0_L2C_load_hit 313222 L2C_load_Hit Ratio: 0.71300
Core_0_L2C_load_miss 126078
Core_0_L2C_RFOs 46158
Core_0_L2C_RFO_hit 25928 L2C_RFO_Hit Ratio: 0.56172
Core_0_L2C_RFO_miss 20230
Core_0_L2C_prefetches 2380131
Core_0_L2C_prefetch_hit 1644494 L2C_prefetch_Hit Ratio: 0.69093
Core_0_L2C_prefetch_miss 735637
Core_0_L2C_writebacks 689239
Core_0_L2C_writeback_hit 688964 L2C_writeback_Hit Ratio: 0.99960
Core_0_L2C_writeback_miss 275
Core_0_L2C_prefetch_requested 603687
Core_0_L2C_prefetch_issued 603687
Core_0_L2C_prefetch_useful 129588 L2C_Useful Ratio: 0.21466
Core_0_L2C_prefetch_useless 606645
Core_0_L2C_prefetch_late 14271
Core_0_L2C_average_miss_latency 310.19653

Core_0_LLC_total_access 1375191
Core_0_LLC_total_hit 565261 LLC_total_Hit Ratio: 0.41104
Core_0_LLC_total_miss 809930
Core_0_LLC_loads 111848
Core_0_LLC_load_hit 5701 LLC_load_Hit Ratio: 0.05097
Core_0_LLC_load_miss 106147
Core_0_LLC_RFOs 20230
Core_0_LLC_RFO_hit 11194 LLC_RFO_Hit Ratio: 0.55334
Core_0_LLC_RFO_miss 9036
Core_0_LLC_prefetches 749860
Core_0_LLC_prefetch_hit 59764 LLC_prefetch_Hit Ratio: 0.07970
Core_0_LLC_prefetch_miss 690096
Core_0_LLC_writebacks 493253
Core_0_LLC_writeback_hit 488602 LLC_writeback_Hit Ratio: 0.99057
Core_0_LLC_writeback_miss 4651
Core_0_LLC_prefetch_requested 0
Core_0_LLC_prefetch_issued 0
Core_0_LLC_prefetch_useful 1368 LLC_Useful Ratio: inf
Core_0_LLC_prefetch_useless 669093
Core_0_LLC_prefetch_late 0
Core_0_LLC_average_miss_latency 305.30278

Core_0_major_page_fault 0
Core_0_minor_page_fault 7592

[Bingo] PHT Access: 225163
[Bingo] PHT Hit PC+Addr: 114315
[Bingo] PHT Hit PC+Offs: 107067
[Bingo] PHT Miss: 3781
[Bingo] Prefetch PC+Addr: 0
[Bingo] Prefetch PC+Offs: 0
[Bingo] Useful PC+Addr: 0
[Bingo] Useful PC+Offs: 0
[Bingo] Useless PC+Addr: 0
[Bingo] Useless PC+Offs: 0
[Bingo] L1 Prefetch per Region: 19.36919
[Bingo] L2 Prefetch per Region: 0.07755
[Bingo] L3 Prefetch per Region: 0.00000
[Bingo] No Prefetch per Region: 12.55327
[Bingo] Number of Voters Mean: 15.74643
[Bingo] Number of Voters SD: 2.82056
PHT read accesses: 2045349
PHT write accesses: 212760
AT read accesses: 21676063
AT write accesses: 21676061
FT read accesses: 3347392
FT write accesses: 225163
PS read accesses: 1701475
PS write accesses: 221382
PHT tag read accesses: 7103410
PHT tag write accesses: 327075
AT tag read accesses: 416476921
AT tag write accesses: 21888821
FT tag read accesses: 76452842
FT tag write accesses: 2011371
PS tag read accesses: 375782933
PS tag write accesses: 1912139
[Bingo2] PHT Access: 73346
[Bingo2] PHT Hit PC+Addr: 5745
[Bingo2] PHT Hit PC+Offs: 63889
[Bingo2] PHT Miss: 3712
[Bingo2] Prefetch PC+Addr: 0
[Bingo2] Prefetch PC+Offs: 0
[Bingo2] Useful PC+Addr: 0
[Bingo2] Useful PC+Offs: 0
[Bingo2] Useless PC+Addr: 0
[Bingo2] Useless PC+Offs: 0
[Bingo2] L1 Prefetch per Region: 0.00000
[Bingo2] L2 Prefetch per Region: 12.92239
[Bingo2] L3 Prefetch per Region: 0.00000
[Bingo2] No Prefetch per Region: 19.07761
[Bingo2] Number of Voters Mean: 13.98959
[Bingo2] Number of Voters SD: 4.48900
PHT read accesses: 955127
PHT write accesses: 48812
AT read accesses: 356859
AT write accesses: 401600
FT read accesses: 174049
FT write accesses: 73346
PS read accesses: 178947
PS write accesses: 69634
PHT tag read accesses: 2588994
PHT tag write accesses: 54557
AT tag read accesses: 23456093
AT tag write accesses: 405668
FT tag read accesses: 18979524
FT tag write accesses: 185423
PS tag read accesses: 9249231
PS tag write accesses: 235718
Channel_0_RQ_row_buffer_hit 480164
Channel_0_RQ_row_buffer_miss 325115
Channel_0_WQ_row_buffer_hit 158315
Channel_0_WQ_row_buffer_miss 272378
Channel_0_WQ_full 0
Channel_0_dbus_congested 1002555

avg_congested_cycle 11

EzSearch AVG IPC :0.86768: L2-Pf-HR :0.69093 : L2-HR :0.75182 Uful:0.21466
     > Finished combination: TraceType=770-tot Sim:98000000 Prefetcher=L2bingo_dpc3 L1=bingo_dpc3
