TRACE: [83000000][Pythia-70M]_[h8][s512][d64] Warmup: 2000000 NumTraces: 83000000
L1:no:L2:no
*************************************************
   ChampSim Multicore Out-of-Order Simulator
   Last compiled: Oct 26 2024 14:09:03
*************************************************

trace_0 770-tot_memTraces_v3/memTraces[83000000][Pythia-70M]_[h8][s512][d64].champsim.xz
MAIN.cc ln 751 stats print skipped
CPU  0 inst:    1000002 cyc:     502965 now IPC :1.98821: AVG IPC :1.98821: L2-Pf-HR :-nan: L2-HR :0.57655: (Sim:0h0m5s) 
CPU  0 inst:    2000001 cyc:     978095 now IPC :2.10469: AVG IPC :2.04479: L2-Pf-HR :-nan: L2-HR :0.62582: (Sim:0h0m10s) 

Warmup complete CPU  0 instructions:    2000001 cycles:     978095 (Simulation time: 0 hr 0 min 10 sec) 

CPU  0 inst:    3000002 cyc:    1747004 now IPC :1.30055: AVG IPC :1.30055: L2-Pf-HR :-nan: L2-HR :0.68629: (Sim:0h0m14s) 
CPU  0 inst:    4000000 cyc:    2488725 now IPC :1.34821: AVG IPC :1.32395: L2-Pf-HR :-nan: L2-HR :0.69389: (Sim:0h0m18s) 
CPU  0 inst:    5000000 cyc:    3324521 now IPC :1.19646: AVG IPC :1.27854: L2-Pf-HR :-nan: L2-HR :0.66950: (Sim:0h0m23s) 
CPU  0 inst:    6000003 cyc:    4111106 now IPC :1.27132: AVG IPC :1.27673: L2-Pf-HR :-nan: L2-HR :0.67311: (Sim:0h0m27s) 
CPU  0 inst:    7000000 cyc:    4894855 now IPC :1.27591: AVG IPC :1.27657: L2-Pf-HR :-nan: L2-HR :0.67603: (Sim:0h0m32s) 
CPU  0 inst:    8000000 cyc:    5705270 now IPC :1.23394: AVG IPC :1.26926: L2-Pf-HR :-nan: L2-HR :0.68046: (Sim:0h0m36s) 
CPU  0 inst:    9000002 cyc:    6607582 now IPC :1.10827: AVG IPC :1.24345: L2-Pf-HR :-nan: L2-HR :0.67265: (Sim:0h0m41s) 
CPU  0 inst:   10000002 cyc:    7432132 now IPC :1.21278: AVG IPC :1.23953: L2-Pf-HR :-nan: L2-HR :0.67403: (Sim:0h0m45s) 
CPU  0 inst:   11000001 cyc:    8252995 now IPC :1.21823: AVG IPC :1.23713: L2-Pf-HR :-nan: L2-HR :0.67550: (Sim:0h0m49s) 
CPU  0 inst:   12000000 cyc:    9075749 now IPC :1.21543: AVG IPC :1.23493: L2-Pf-HR :-nan: L2-HR :0.67802: (Sim:0h0m54s) 
CPU  0 inst:   13000000 cyc:    9967558 now IPC :1.12132: AVG IPC :1.22365: L2-Pf-HR :-nan: L2-HR :0.67361: (Sim:0h0m58s) 
CPU  0 inst:   14000000 cyc:   10788657 now IPC :1.21788: AVG IPC :1.22317: L2-Pf-HR :-nan: L2-HR :0.67455: (Sim:0h1m2s) 
CPU  0 inst:   15000003 cyc:   11608979 now IPC :1.21904: AVG IPC :1.22285: L2-Pf-HR :-nan: L2-HR :0.67534: (Sim:0h1m7s) 
CPU  0 inst:   16000000 cyc:   12437875 now IPC :1.20642: AVG IPC :1.22166: L2-Pf-HR :-nan: L2-HR :0.67684: (Sim:0h1m11s) 
CPU  0 inst:   17000002 cyc:   13327804 now IPC :1.12369: AVG IPC :1.21460: L2-Pf-HR :-nan: L2-HR :0.67330: (Sim:0h1m16s) 
CPU  0 inst:   18000003 cyc:   14145724 now IPC :1.22261: AVG IPC :1.21510: L2-Pf-HR :-nan: L2-HR :0.67413: (Sim:0h1m20s) 
CPU  0 inst:   19000002 cyc:   14961210 now IPC :1.22626: AVG IPC :1.21575: L2-Pf-HR :-nan: L2-HR :0.67461: (Sim:0h1m24s) 
CPU  0 inst:   20000000 cyc:   15786629 now IPC :1.21150: AVG IPC :1.21552: L2-Pf-HR :-nan: L2-HR :0.67598: (Sim:0h1m29s) 
CPU  0 inst:   21000000 cyc:   16677062 now IPC :1.12305: AVG IPC :1.21027: L2-Pf-HR :-nan: L2-HR :0.67329: (Sim:0h1m33s) 
CPU  0 inst:   22000000 cyc:   17496176 now IPC :1.22083: AVG IPC :1.21079: L2-Pf-HR :-nan: L2-HR :0.67400: (Sim:0h1m37s) 
CPU  0 inst:   23000000 cyc:   18309179 now IPC :1.23001: AVG IPC :1.21170: L2-Pf-HR :-nan: L2-HR :0.67441: (Sim:0h1m42s) 
CPU  0 inst:   24000000 cyc:   19140003 now IPC :1.20362: AVG IPC :1.21133: L2-Pf-HR :-nan: L2-HR :0.67544: (Sim:0h1m46s) 
CPU  0 inst:   25000002 cyc:   20031067 now IPC :1.12226: AVG IPC :1.20716: L2-Pf-HR :-nan: L2-HR :0.67343: (Sim:0h1m51s) 
CPU  0 inst:   26000002 cyc:   20857367 now IPC :1.21021: AVG IPC :1.20729: L2-Pf-HR :-nan: L2-HR :0.67391: (Sim:0h1m55s) 
CPU  0 inst:   27000002 cyc:   21683261 now IPC :1.21081: AVG IPC :1.20743: L2-Pf-HR :-nan: L2-HR :0.67446: (Sim:0h1m59s) 
CPU  0 inst:   28000000 cyc:   22526285 now IPC :1.18620: AVG IPC :1.20660: L2-Pf-HR :-nan: L2-HR :0.67499: (Sim:0h2m4s) 
CPU  0 inst:   29000000 cyc:   23405572 now IPC :1.13729: AVG IPC :1.20388: L2-Pf-HR :-nan: L2-HR :0.67360: (Sim:0h2m8s) 
CPU  0 inst:   30000001 cyc:   24226990 now IPC :1.21741: AVG IPC :1.20436: L2-Pf-HR :-nan: L2-HR :0.67400: (Sim:0h2m12s) 
CPU  0 inst:   31000001 cyc:   25040649 now IPC :1.22902: AVG IPC :1.20519: L2-Pf-HR :-nan: L2-HR :0.67442: (Sim:0h2m17s) 
CPU  0 inst:   32000000 cyc:   25873726 now IPC :1.20037: AVG IPC :1.20503: L2-Pf-HR :-nan: L2-HR :0.67493: (Sim:0h2m21s) 
CPU  0 inst:   33000000 cyc:   26749816 now IPC :1.14144: AVG IPC :1.20287: L2-Pf-HR :-nan: L2-HR :0.67486: (Sim:0h2m25s) 
CPU  0 inst:   34000000 cyc:   32956485 now IPC :0.16112: AVG IPC :1.00068: L2-Pf-HR :-nan: L2-HR :0.63827: (Sim:0h2m40s) 
CPU  0 inst:   35000001 cyc:   38482370 now IPC :0.18097: AVG IPC :0.87990: L2-Pf-HR :-nan: L2-HR :0.62709: (Sim:0h2m51s) 
CPU  0 inst:   36000000 cyc:   43884001 now IPC :0.18513: AVG IPC :0.79243: L2-Pf-HR :-nan: L2-HR :0.62082: (Sim:0h3m2s) 
CPU  0 inst:   37000002 cyc:   48979323 now IPC :0.19626: AVG IPC :0.72915: L2-Pf-HR :-nan: L2-HR :0.61481: (Sim:0h3m12s) 
CPU  0 inst:   38000000 cyc:   54097809 now IPC :0.19537: AVG IPC :0.67771: L2-Pf-HR :-nan: L2-HR :0.60905: (Sim:0h3m22s) 
CPU  0 inst:   39000000 cyc:   59255930 now IPC :0.19387: AVG IPC :0.63489: L2-Pf-HR :-nan: L2-HR :0.60352: (Sim:0h3m33s) 
CPU  0 inst:   40000000 cyc:   64062608 now IPC :0.20804: AVG IPC :0.60237: L2-Pf-HR :-nan: L2-HR :0.59820: (Sim:0h3m43s) 
CPU  0 inst:   41000001 cyc:   68954601 now IPC :0.20442: AVG IPC :0.57373: L2-Pf-HR :-nan: L2-HR :0.59309: (Sim:0h3m53s) 
CPU  0 inst:   42000001 cyc:   73969422 now IPC :0.19941: AVG IPC :0.54801: L2-Pf-HR :-nan: L2-HR :0.58817: (Sim:0h4m3s) 
CPU  0 inst:   43000001 cyc:   79018838 now IPC :0.19804: AVG IPC :0.52537: L2-Pf-HR :-nan: L2-HR :0.58343: (Sim:0h4m13s) 
CPU  0 inst:   44000000 cyc:   83906655 now IPC :0.20459: AVG IPC :0.50646: L2-Pf-HR :-nan: L2-HR :0.57887: (Sim:0h4m23s) 
CPU  0 inst:   45000002 cyc:   88886989 now IPC :0.20079: AVG IPC :0.48914: L2-Pf-HR :-nan: L2-HR :0.57447: (Sim:0h4m33s) 
CPU  0 inst:   46000000 cyc:   93958721 now IPC :0.19717: AVG IPC :0.47322: L2-Pf-HR :-nan: L2-HR :0.57023: (Sim:0h4m44s) 
CPU  0 inst:   47000000 cyc:   99042535 now IPC :0.19670: AVG IPC :0.45888: L2-Pf-HR :-nan: L2-HR :0.56614: (Sim:0h4m54s) 
CPU  0 inst:   48000000 cyc:  103954394 now IPC :0.20359: AVG IPC :0.44670: L2-Pf-HR :-nan: L2-HR :0.56218: (Sim:0h5m4s) 
CPU  0 inst:   49000000 cyc:  109199707 now IPC :0.19065: AVG IPC :0.43429: L2-Pf-HR :-nan: L2-HR :0.55836: (Sim:0h5m14s) 
CPU  0 inst:   50000003 cyc:  114254897 now IPC :0.19782: AVG IPC :0.42374: L2-Pf-HR :-nan: L2-HR :0.55466: (Sim:0h5m24s) 
CPU  0 inst:   51000001 cyc:  116703993 now IPC :0.40831: AVG IPC :0.42341: L2-Pf-HR :-nan: L2-HR :0.56299: (Sim:0h5m31s) 
CPU  0 inst:   52000000 cyc:  117671669 now IPC :1.03340: AVG IPC :0.42847: L2-Pf-HR :-nan: L2-HR :0.57782: (Sim:0h5m36s) 
CPU  0 inst:   53000002 cyc:  118688966 now IPC :0.98300: AVG IPC :0.43327: L2-Pf-HR :-nan: L2-HR :0.59113: (Sim:0h5m41s) 
CPU  0 inst:   54000001 cyc:  119594265 now IPC :1.10461: AVG IPC :0.43839: L2-Pf-HR :-nan: L2-HR :0.60348: (Sim:0h5m46s) 
CPU  0 inst:   55000002 cyc:  120645682 now IPC :0.95110: AVG IPC :0.44289: L2-Pf-HR :-nan: L2-HR :0.61464: (Sim:0h5m51s) 
CPU  0 inst:   56000000 cyc:  121596393 now IPC :1.05184: AVG IPC :0.44769: L2-Pf-HR :-nan: L2-HR :0.62548: (Sim:0h5m56s) 
CPU  0 inst:   57000001 cyc:  122569592 now IPC :1.02754: AVG IPC :0.45233: L2-Pf-HR :-nan: L2-HR :0.63519: (Sim:0h6m1s) 
CPU  0 inst:   58000001 cyc:  123436984 now IPC :1.15288: AVG IPC :0.45730: L2-Pf-HR :-nan: L2-HR :0.64444: (Sim:0h6m6s) 
CPU  0 inst:   59000000 cyc:  124328507 now IPC :1.12167: AVG IPC :0.46210: L2-Pf-HR :-nan: L2-HR :0.65303: (Sim:0h6m11s) 
CPU  0 inst:   60000000 cyc:  125231319 now IPC :1.10765: AVG IPC :0.46679: L2-Pf-HR :-nan: L2-HR :0.66129: (Sim:0h6m16s) 
CPU  0 inst:   61000002 cyc:  126187376 now IPC :1.04596: AVG IPC :0.47121: L2-Pf-HR :-nan: L2-HR :0.66860: (Sim:0h6m21s) 
CPU  0 inst:   62000001 cyc:  127004154 now IPC :1.22432: AVG IPC :0.47609: L2-Pf-HR :-nan: L2-HR :0.67587: (Sim:0h6m25s) 
CPU  0 inst:   63000002 cyc:  127873953 now IPC :1.14969: AVG IPC :0.48071: L2-Pf-HR :-nan: L2-HR :0.68260: (Sim:0h6m30s) 
CPU  0 inst:   64000000 cyc:  128761073 now IPC :1.12724: AVG IPC :0.48520: L2-Pf-HR :-nan: L2-HR :0.68914: (Sim:0h6m35s) 
CPU  0 inst:   65000003 cyc:  129701947 now IPC :1.06284: AVG IPC :0.48942: L2-Pf-HR :-nan: L2-HR :0.69501: (Sim:0h6m40s) 
CPU  0 inst:   66000000 cyc:  130547177 now IPC :1.18311: AVG IPC :0.49395: L2-Pf-HR :-nan: L2-HR :0.70071: (Sim:0h6m45s) 
CPU  0 inst:   67000003 cyc:  131349897 now IPC :1.24577: AVG IPC :0.49857: L2-Pf-HR :-nan: L2-HR :0.70645: (Sim:0h6m48s) 
CPU  0 inst:   68000000 cyc:  132285558 now IPC :1.06876: AVG IPC :0.50264: L2-Pf-HR :-nan: L2-HR :0.71140: (Sim:0h6m51s) 
CPU  0 inst:   69000000 cyc:  133214085 now IPC :1.07697: AVG IPC :0.50667: L2-Pf-HR :-nan: L2-HR :0.71628: (Sim:0h6m54s) 
CPU  0 inst:   70000000 cyc:  134091760 now IPC :1.13937: AVG IPC :0.51084: L2-Pf-HR :-nan: L2-HR :0.72079: (Sim:0h6m57s) 
CPU  0 inst:   71000002 cyc:  134883208 now IPC :1.26351: AVG IPC :0.51529: L2-Pf-HR :-nan: L2-HR :0.72544: (Sim:0h7m0s) 
CPU  0 inst:   72000000 cyc:  135803669 now IPC :1.08641: AVG IPC :0.51919: L2-Pf-HR :-nan: L2-HR :0.72957: (Sim:0h7m5s) 
CPU  0 inst:   73000002 cyc:  136730977 now IPC :1.07839: AVG IPC :0.52301: L2-Pf-HR :-nan: L2-HR :0.73363: (Sim:0h7m9s) 
CPU  0 inst:   74000000 cyc:  137620042 now IPC :1.12477: AVG IPC :0.52692: L2-Pf-HR :-nan: L2-HR :0.73738: (Sim:0h7m12s) 
CPU  0 inst:   75000003 cyc:  138425378 now IPC :1.24172: AVG IPC :0.53111: L2-Pf-HR :-nan: L2-HR :0.74123: (Sim:0h7m15s) 
CPU  0 inst:   76000000 cyc:  139342415 now IPC :1.09047: AVG IPC :0.53482: L2-Pf-HR :-nan: L2-HR :0.74464: (Sim:0h7m18s) 
CPU  0 inst:   77000003 cyc:  140269347 now IPC :1.07883: AVG IPC :0.53844: L2-Pf-HR :-nan: L2-HR :0.74803: (Sim:0h7m21s) 
CPU  0 inst:   78000002 cyc:  141144424 now IPC :1.14276: AVG IPC :0.54221: L2-Pf-HR :-nan: L2-HR :0.75130: (Sim:0h7m24s) 
CPU  0 inst:   79000000 cyc:  141951310 now IPC :1.23933: AVG IPC :0.54620: L2-Pf-HR :-nan: L2-HR :0.75457: (Sim:0h7m27s) 
CPU  0 inst:   80000000 cyc:  142869903 now IPC :1.08862: AVG IPC :0.54971: L2-Pf-HR :-nan: L2-HR :0.75740: (Sim:0h7m31s) 
Finished CPU 0 instr: 78000000 cyc: 141891846 AVG IPC: 0.54971 (Sim time: 0h7m31s)

ChampSim completed all CPUs

[ROI Statistics]
Core_0_instructions 78000000
Core_0_cycles 141891846
Core_0_IPC 0.54971

Core_0_branch_prediction_accuracy 99.16542
Core_0_branch_MPKI 0.25491
Core_0_average_ROB_occupancy_at_mispredict 231.26108

Core_0_L1D_total_access 23462925
Core_0_L1D_total_hit 20455862 L1D_total_Hit Ratio: 0.87184
Core_0_L1D_total_miss 3007063
Core_0_L1D_loads 21301029
Core_0_L1D_load_hit 18426312 L1D_load_Hit Ratio: 0.86504
Core_0_L1D_load_miss 2874717
Core_0_L1D_RFOs 2161896
Core_0_L1D_RFO_hit 2029550 L1D_RFO_Hit Ratio: 0.93878
Core_0_L1D_RFO_miss 132346
Core_0_L1D_prefetches 0
Core_0_L1D_prefetch_hit 0 L1D_prefetch_Hit Ratio: -nan
Core_0_L1D_prefetch_miss 0
Core_0_L1D_writebacks 0
Core_0_L1D_writeback_hit 0 L1D_writeback_Hit Ratio: -nan
Core_0_L1D_writeback_miss 0
Core_0_L1D_prefetch_requested 0
Core_0_L1D_prefetch_issued 0
Core_0_L1D_prefetch_useful 0 L1D_Useful Ratio: -nan
Core_0_L1D_prefetch_useless 0
Core_0_L1D_prefetch_late 0
Core_0_L1D_average_miss_latency 84.47911

Core_0_L1I_total_access 19676880
Core_0_L1I_total_hit 19671968 L1I_total_Hit Ratio: 0.99975
Core_0_L1I_total_miss 4912
Core_0_L1I_loads 19676880
Core_0_L1I_load_hit 19671968 L1I_load_Hit Ratio: 0.99975
Core_0_L1I_load_miss 4912
Core_0_L1I_RFOs 0
Core_0_L1I_RFO_hit 0 L1I_RFO_Hit Ratio: -nan
Core_0_L1I_RFO_miss 0
Core_0_L1I_prefetches 0
Core_0_L1I_prefetch_hit 0 L1I_prefetch_Hit Ratio: -nan
Core_0_L1I_prefetch_miss 0
Core_0_L1I_writebacks 0
Core_0_L1I_writeback_hit 0 L1I_writeback_Hit Ratio: -nan
Core_0_L1I_writeback_miss 0
Core_0_L1I_prefetch_requested 0
Core_0_L1I_prefetch_issued 0
Core_0_L1I_prefetch_useful 0 L1I_Useful Ratio: -nan
Core_0_L1I_prefetch_useless 0
Core_0_L1I_prefetch_late 0
Core_0_L1I_average_miss_latency 264.92142

Core_0_L2C_total_access 3503511
Core_0_L2C_total_hit 2653564 L2C_total_Hit Ratio: 0.75740
Core_0_L2C_total_miss 849947
Core_0_L2C_loads 2879629
Core_0_L2C_load_hit 2162522 L2C_load_Hit Ratio: 0.75097
Core_0_L2C_load_miss 717107
Core_0_L2C_RFOs 132346
Core_0_L2C_RFO_hit 670 L2C_RFO_Hit Ratio: 0.00506
Core_0_L2C_RFO_miss 131676
Core_0_L2C_prefetches 0
Core_0_L2C_prefetch_hit 0 L2C_prefetch_Hit Ratio: -nan
Core_0_L2C_prefetch_miss 0
Core_0_L2C_writebacks 491536
Core_0_L2C_writeback_hit 490372 L2C_writeback_Hit Ratio: 0.99763
Core_0_L2C_writeback_miss 1164
Core_0_L2C_prefetch_requested 0
Core_0_L2C_prefetch_issued 0
Core_0_L2C_prefetch_useful 0 L2C_Useful Ratio: -nan
Core_0_L2C_prefetch_useless 0
Core_0_L2C_prefetch_late 0
Core_0_L2C_average_miss_latency 249.30548

Core_0_LLC_total_access 1333482
Core_0_LLC_total_hit 634046 LLC_total_Hit Ratio: 0.47548
Core_0_LLC_total_miss 699436
Core_0_LLC_loads 717103
Core_0_LLC_load_hit 148947 LLC_load_Hit Ratio: 0.20771
Core_0_LLC_load_miss 568156
Core_0_LLC_RFOs 131676
Core_0_LLC_RFO_hit 402 LLC_RFO_Hit Ratio: 0.00305
Core_0_LLC_RFO_miss 131274
Core_0_LLC_prefetches 0
Core_0_LLC_prefetch_hit 0 LLC_prefetch_Hit Ratio: -nan
Core_0_LLC_prefetch_miss 0
Core_0_LLC_writebacks 484703
Core_0_LLC_writeback_hit 484697 LLC_writeback_Hit Ratio: 0.99999
Core_0_LLC_writeback_miss 6
Core_0_LLC_prefetch_requested 0
Core_0_LLC_prefetch_issued 0
Core_0_LLC_prefetch_useful 0 LLC_Useful Ratio: -nan
Core_0_LLC_prefetch_useless 0
Core_0_LLC_prefetch_late 0
Core_0_LLC_average_miss_latency 266.30683

Core_0_major_page_fault 0
Core_0_minor_page_fault 6067

Channel_0_RQ_row_buffer_hit 359751
Channel_0_RQ_row_buffer_miss 339679
Channel_0_WQ_row_buffer_hit 175211
Channel_0_WQ_row_buffer_miss 232801
Channel_0_WQ_full 0
Channel_0_dbus_congested 351925

avg_congested_cycle 11

EzSearch AVG IPC :0.54971: L2-Pf-HR :-nan : L2-HR :0.75740 Uful:-nan
     > Finished combination: TraceType=770-tot Sim:78000000 Prefetcher=L2no L1=no
