TRACE: [2366000000][OPT-6_7B]_[h32][s1024][d128] Warmup: 2000000 NumTraces: 2366000000
L1:next_line:L2:029-SecTOP-L2-MultiMarkovDelta_ip_stride_v4
*************************************************
   ChampSim Multicore Out-of-Order Simulator
   Last compiled: Oct 26 2024 13:06:47
*************************************************

trace_0 770-tot_memTraces_v3/memTraces[2366000000][OPT-6_7B]_[h32][s1024][d128].champsim.xz
CPU 0 L1D next line prefetcher
MK1: Size: 128 TMAX: 64 TMIN: 32 MKPTHRESH: 40
MK2: Size: 256 TMAX: 32 TMIN: 16 MK2PTHRESH: 20
MK3: Size: 384 TMAX: 16 TMIN: 8 MK3PTHRESH: 25
MK4: Size: 512 TMAX: 8 TMIN: 0 MK4PTHRESH: 20
Stride Size: 512 Prefetch Degree: 15

CPU 0 L2C prefetcher
MAIN.cc ln 751 stats print skipped
CPU 0 L2C prefetcher initialized


Cache Size: 256
number of cache lines: 4096
CPU  0 inst:    1000002 cyc:     503613 now IPC :1.98566: AVG IPC :1.98566: L2-Pf-HR :0.73928: L2-HR :0.72550: (Sim:0h0m3s) 
CPU  0 inst:    2000000 cyc:     980890 now IPC :2.09522: AVG IPC :2.03896: L2-Pf-HR :0.75343: L2-HR :0.73957: (Sim:0h0m5s) 

Warmup complete CPU  0 instructions:    2000004 cycles:     980892 (Simulation time: 0 hr 0 min 5 sec) 

CPU  0 inst:    3000003 cyc:    1552499 now IPC :1.74945: AVG IPC :1.74945: L2-Pf-HR :0.76838: L2-HR :0.75628: (Sim:0h0m8s) 
CPU  0 inst:    4000000 cyc:    2117695 now IPC :1.76929: AVG IPC :1.75932: L2-Pf-HR :0.77807: L2-HR :0.76590: (Sim:0h0m11s) 
CPU  0 inst:    5000002 cyc:    2689563 now IPC :1.74866: AVG IPC :1.75575: L2-Pf-HR :0.78262: L2-HR :0.77013: (Sim:0h0m13s) 
CPU  0 inst:    6000001 cyc:    3257942 now IPC :1.75939: AVG IPC :1.75666: L2-Pf-HR :0.78525: L2-HR :0.77308: (Sim:0h0m16s) 
CPU  0 inst:    7000002 cyc:    3830679 now IPC :1.74600: AVG IPC :1.75452: L2-Pf-HR :0.78704: L2-HR :0.77502: (Sim:0h0m18s) 
CPU  0 inst:    8000000 cyc:    4408036 now IPC :1.73203: AVG IPC :1.75073: L2-Pf-HR :0.78747: L2-HR :0.77523: (Sim:0h0m21s) 
CPU  0 inst:    9000001 cyc:    4980055 now IPC :1.74820: AVG IPC :1.75037: L2-Pf-HR :0.78773: L2-HR :0.77555: (Sim:0h0m23s) 
CPU  0 inst:   10000002 cyc:    5560795 now IPC :1.72194: AVG IPC :1.74676: L2-Pf-HR :0.78966: L2-HR :0.77744: (Sim:0h0m26s) 
CPU  0 inst:   11000001 cyc:    6144064 now IPC :1.71447: AVG IPC :1.74311: L2-Pf-HR :0.79164: L2-HR :0.77924: (Sim:0h0m29s) 
CPU  0 inst:   12000000 cyc:    6744365 now IPC :1.66583: AVG IPC :1.73506: L2-Pf-HR :0.79418: L2-HR :0.78154: (Sim:0h0m31s) 
CPU  0 inst:   13000000 cyc:    7552137 now IPC :1.23797: AVG IPC :1.67396: L2-Pf-HR :0.79233: L2-HR :0.78054: (Sim:0h0m34s) 
CPU  0 inst:   14000003 cyc:    8144283 now IPC :1.68878: AVG IPC :1.67518: L2-Pf-HR :0.79275: L2-HR :0.78107: (Sim:0h0m37s) 
CPU  0 inst:   15000001 cyc:    8728436 now IPC :1.71188: AVG IPC :1.67795: L2-Pf-HR :0.79322: L2-HR :0.78163: (Sim:0h0m39s) 
CPU  0 inst:   16000000 cyc:    9316334 now IPC :1.70097: AVG IPC :1.67957: L2-Pf-HR :0.79346: L2-HR :0.78197: (Sim:0h0m42s) 
CPU  0 inst:   17000002 cyc:    9903778 now IPC :1.70229: AVG IPC :1.68107: L2-Pf-HR :0.79408: L2-HR :0.78266: (Sim:0h0m45s) 
CPU  0 inst:   18000001 cyc:   10494761 now IPC :1.69209: AVG IPC :1.68176: L2-Pf-HR :0.79444: L2-HR :0.78314: (Sim:0h0m47s) 
CPU  0 inst:   19000003 cyc:   11079712 now IPC :1.70955: AVG IPC :1.68336: L2-Pf-HR :0.79476: L2-HR :0.78359: (Sim:0h0m50s) 
CPU  0 inst:   20000000 cyc:   11665225 now IPC :1.70790: AVG IPC :1.68471: L2-Pf-HR :0.79469: L2-HR :0.78359: (Sim:0h0m53s) 
CPU  0 inst:   21000003 cyc:   12250728 now IPC :1.70794: AVG IPC :1.68592: L2-Pf-HR :0.79500: L2-HR :0.78393: (Sim:0h0m55s) 
CPU  0 inst:   22000001 cyc:   12834649 now IPC :1.71256: AVG IPC :1.68723: L2-Pf-HR :0.79524: L2-HR :0.78420: (Sim:0h0m58s) 
CPU  0 inst:   23000001 cyc:   13417754 now IPC :1.71496: AVG IPC :1.68853: L2-Pf-HR :0.79576: L2-HR :0.78470: (Sim:0h1m0s) 
CPU  0 inst:   24000000 cyc:   14098900 now IPC :1.46811: AVG IPC :1.67708: L2-Pf-HR :0.79558: L2-HR :0.78467: (Sim:0h1m3s) 
CPU  0 inst:   25000002 cyc:   14685846 now IPC :1.70374: AVG IPC :1.67823: L2-Pf-HR :0.79710: L2-HR :0.78609: (Sim:0h1m6s) 
CPU  0 inst:   26000000 cyc:   15252031 now IPC :1.76620: AVG IPC :1.68172: L2-Pf-HR :0.79798: L2-HR :0.78694: (Sim:0h1m8s) 
CPU  0 inst:   27000001 cyc:   15820277 now IPC :1.75980: AVG IPC :1.68471: L2-Pf-HR :0.79873: L2-HR :0.78769: (Sim:0h1m11s) 
CPU  0 inst:   28000000 cyc:   16385248 now IPC :1.77000: AVG IPC :1.68783: L2-Pf-HR :0.79951: L2-HR :0.78851: (Sim:0h1m14s) 
CPU  0 inst:   29000003 cyc:   16945428 now IPC :1.78515: AVG IPC :1.69125: L2-Pf-HR :0.80006: L2-HR :0.78908: (Sim:0h1m16s) 
CPU  0 inst:   30000000 cyc:   17505957 now IPC :1.78402: AVG IPC :1.69440: L2-Pf-HR :0.80174: L2-HR :0.79067: (Sim:0h1m19s) 
CPU  0 inst:   31000002 cyc:   18065114 now IPC :1.78841: AVG IPC :1.69747: L2-Pf-HR :0.80403: L2-HR :0.79282: (Sim:0h1m21s) 
CPU  0 inst:   32000000 cyc:   18847844 now IPC :1.27758: AVG IPC :1.67908: L2-Pf-HR :0.80476: L2-HR :0.79357: (Sim:0h1m24s) 
CPU  0 inst:   33000003 cyc:   19461002 now IPC :1.63091: AVG IPC :1.67748: L2-Pf-HR :0.80443: L2-HR :0.79317: (Sim:0h1m27s) 
CPU  0 inst:   34000002 cyc:   20058259 now IPC :1.67432: AVG IPC :1.67738: L2-Pf-HR :0.80409: L2-HR :0.79275: (Sim:0h1m30s) 
CPU  0 inst:   35000002 cyc:   20656082 now IPC :1.67274: AVG IPC :1.67724: L2-Pf-HR :0.80395: L2-HR :0.79255: (Sim:0h1m32s) 
CPU  0 inst:   36000000 cyc:   21260449 now IPC :1.65462: AVG IPC :1.67657: L2-Pf-HR :0.80376: L2-HR :0.79227: (Sim:0h1m35s) 
CPU  0 inst:   37000000 cyc:   21856857 now IPC :1.67670: AVG IPC :1.67657: L2-Pf-HR :0.80362: L2-HR :0.79211: (Sim:0h1m38s) 
CPU  0 inst:   38000002 cyc:   22453976 now IPC :1.67471: AVG IPC :1.67652: L2-Pf-HR :0.80349: L2-HR :0.79193: (Sim:0h1m40s) 
CPU  0 inst:   39000002 cyc:   23052562 now IPC :1.67060: AVG IPC :1.67636: L2-Pf-HR :0.80338: L2-HR :0.79178: (Sim:0h1m43s) 
CPU  0 inst:   40000000 cyc:   23649575 now IPC :1.67500: AVG IPC :1.67632: L2-Pf-HR :0.80306: L2-HR :0.79143: (Sim:0h1m46s) 
CPU  0 inst:   41000003 cyc:   24248220 now IPC :1.67044: AVG IPC :1.67617: L2-Pf-HR :0.80304: L2-HR :0.79137: (Sim:0h1m48s) 
CPU  0 inst:   42000000 cyc:   24841823 now IPC :1.68462: AVG IPC :1.67638: L2-Pf-HR :0.80291: L2-HR :0.79123: (Sim:0h1m51s) 
CPU  0 inst:   43000003 cyc:   25444036 now IPC :1.66055: AVG IPC :1.67599: L2-Pf-HR :0.80312: L2-HR :0.79138: (Sim:0h1m53s) 
CPU  0 inst:   44000000 cyc:   26251823 now IPC :1.23795: AVG IPC :1.66199: L2-Pf-HR :0.80265: L2-HR :0.79104: (Sim:0h1m56s) 
CPU  0 inst:   45000002 cyc:   26828598 now IPC :1.73378: AVG IPC :1.66359: L2-Pf-HR :0.80251: L2-HR :0.79093: (Sim:0h1m59s) 
CPU  0 inst:   46000003 cyc:   27392709 now IPC :1.77270: AVG IPC :1.66592: L2-Pf-HR :0.80238: L2-HR :0.79081: (Sim:0h2m1s) 
CPU  0 inst:   47000001 cyc:   27953564 now IPC :1.78299: AVG IPC :1.66836: L2-Pf-HR :0.80229: L2-HR :0.79075: (Sim:0h2m4s) 
CPU  0 inst:   48000000 cyc:   28520101 now IPC :1.76511: AVG IPC :1.67035: L2-Pf-HR :0.80217: L2-HR :0.79065: (Sim:0h2m7s) 
CPU  0 inst:   49000002 cyc:   29088415 now IPC :1.75959: AVG IPC :1.67215: L2-Pf-HR :0.80214: L2-HR :0.79066: (Sim:0h2m9s) 
CPU  0 inst:   50000002 cyc:   29658405 now IPC :1.75442: AVG IPC :1.67379: L2-Pf-HR :0.80212: L2-HR :0.79069: (Sim:0h2m12s) 
CPU  0 inst:   51000003 cyc:   30222828 now IPC :1.77172: AVG IPC :1.67568: L2-Pf-HR :0.80198: L2-HR :0.79058: (Sim:0h2m14s) 
CPU  0 inst:   52000000 cyc:   30782976 now IPC :1.78524: AVG IPC :1.67773: L2-Pf-HR :0.80182: L2-HR :0.79046: (Sim:0h2m17s) 
CPU  0 inst:   53000000 cyc:   31342755 now IPC :1.78642: AVG IPC :1.67974: L2-Pf-HR :0.80179: L2-HR :0.79044: (Sim:0h2m20s) 
CPU  0 inst:   54000001 cyc:   31905374 now IPC :1.77740: AVG IPC :1.68152: L2-Pf-HR :0.80179: L2-HR :0.79045: (Sim:0h2m22s) 
CPU  0 inst:   55000001 cyc:   32467324 now IPC :1.77952: AVG IPC :1.68326: L2-Pf-HR :0.80201: L2-HR :0.79065: (Sim:0h2m25s) 
CPU  0 inst:   56000000 cyc:   33164371 now IPC :1.43462: AVG IPC :1.67788: L2-Pf-HR :0.80197: L2-HR :0.79067: (Sim:0h2m28s) 
CPU  0 inst:   57000003 cyc:   33732602 now IPC :1.75985: AVG IPC :1.67930: L2-Pf-HR :0.80243: L2-HR :0.79111: (Sim:0h2m30s) 
CPU  0 inst:   58000002 cyc:   34296802 now IPC :1.77242: AVG IPC :1.68088: L2-Pf-HR :0.80276: L2-HR :0.79143: (Sim:0h2m33s) 
CPU  0 inst:   59000001 cyc:   34864440 now IPC :1.76168: AVG IPC :1.68223: L2-Pf-HR :0.80303: L2-HR :0.79171: (Sim:0h2m35s) 
CPU  0 inst:   60000000 cyc:   35431839 now IPC :1.76243: AVG IPC :1.68355: L2-Pf-HR :0.80328: L2-HR :0.79199: (Sim:0h2m38s) 
CPU  0 inst:   61000002 cyc:   35994191 now IPC :1.77825: AVG IPC :1.68507: L2-Pf-HR :0.80366: L2-HR :0.79235: (Sim:0h2m41s) 
CPU  0 inst:   62000001 cyc:   36550813 now IPC :1.79655: AVG IPC :1.68682: L2-Pf-HR :0.80463: L2-HR :0.79326: (Sim:0h2m43s) 
CPU  0 inst:   63000001 cyc:   37112054 now IPC :1.78177: AVG IPC :1.68829: L2-Pf-HR :0.80584: L2-HR :0.79437: (Sim:0h2m46s) 
CPU  0 inst:   64000000 cyc:   37924048 now IPC :1.23153: AVG IPC :1.67825: L2-Pf-HR :0.80544: L2-HR :0.79404: (Sim:0h2m49s) 
CPU  0 inst:   65000002 cyc:   38513934 now IPC :1.69525: AVG IPC :1.67852: L2-Pf-HR :0.80533: L2-HR :0.79389: (Sim:0h2m51s) 
CPU  0 inst:   66000001 cyc:   39102429 now IPC :1.69925: AVG IPC :1.67884: L2-Pf-HR :0.80517: L2-HR :0.79369: (Sim:0h2m54s) 
CPU  0 inst:   67000002 cyc:   39697261 now IPC :1.68115: AVG IPC :1.67888: L2-Pf-HR :0.80506: L2-HR :0.79353: (Sim:0h2m56s) 
CPU  0 inst:   68000000 cyc:   40286814 now IPC :1.69620: AVG IPC :1.67914: L2-Pf-HR :0.80494: L2-HR :0.79339: (Sim:0h2m59s) 
CPU  0 inst:   69000002 cyc:   40878784 now IPC :1.68928: AVG IPC :1.67929: L2-Pf-HR :0.80487: L2-HR :0.79329: (Sim:0h3m2s) 
CPU  0 inst:   70000001 cyc:   41472410 now IPC :1.68456: AVG IPC :1.67936: L2-Pf-HR :0.80471: L2-HR :0.79313: (Sim:0h3m4s) 
CPU  0 inst:   71000000 cyc:   42055902 now IPC :1.71382: AVG IPC :1.67985: L2-Pf-HR :0.80456: L2-HR :0.79296: (Sim:0h3m7s) 
CPU  0 inst:   72000000 cyc:   42637283 now IPC :1.72004: AVG IPC :1.68041: L2-Pf-HR :0.80440: L2-HR :0.79276: (Sim:0h3m10s) 
CPU  0 inst:   73000000 cyc:   43227480 now IPC :1.69435: AVG IPC :1.68061: L2-Pf-HR :0.80428: L2-HR :0.79264: (Sim:0h3m12s) 
CPU  0 inst:   74000002 cyc:   43821665 now IPC :1.68298: AVG IPC :1.68064: L2-Pf-HR :0.80431: L2-HR :0.79264: (Sim:0h3m15s) 
CPU  0 inst:   75000000 cyc:   44412563 now IPC :1.69234: AVG IPC :1.68080: L2-Pf-HR :0.80449: L2-HR :0.79278: (Sim:0h3m17s) 
CPU  0 inst:   76000000 cyc:   45226576 now IPC :1.22848: AVG IPC :1.67248: L2-Pf-HR :0.80388: L2-HR :0.79228: (Sim:0h3m20s) 
CPU  0 inst:   77000002 cyc:   45797214 now IPC :1.75243: AVG IPC :1.67350: L2-Pf-HR :0.80376: L2-HR :0.79219: (Sim:0h3m23s) 
CPU  0 inst:   78000002 cyc:   46368011 now IPC :1.75194: AVG IPC :1.67448: L2-Pf-HR :0.80372: L2-HR :0.79215: (Sim:0h3m26s) 
CPU  0 inst:   79000002 cyc:   46951245 now IPC :1.71458: AVG IPC :1.67499: L2-Pf-HR :0.80364: L2-HR :0.79209: (Sim:0h3m28s) 
CPU  0 inst:   80000000 cyc:   47530129 now IPC :1.72746: AVG IPC :1.67564: L2-Pf-HR :0.80356: L2-HR :0.79201: (Sim:0h3m31s) 
CPU  0 inst:   81000001 cyc:   48108251 now IPC :1.72974: AVG IPC :1.67631: L2-Pf-HR :0.80350: L2-HR :0.79198: (Sim:0h3m33s) 
CPU  0 inst:   82000001 cyc:   48684932 now IPC :1.73406: AVG IPC :1.67701: L2-Pf-HR :0.80345: L2-HR :0.79196: (Sim:0h3m36s) 
CPU  0 inst:   83000003 cyc:   49258071 now IPC :1.74478: AVG IPC :1.67781: L2-Pf-HR :0.80336: L2-HR :0.79190: (Sim:0h3m38s) 
CPU  0 inst:   84000000 cyc:   49823402 now IPC :1.76887: AVG IPC :1.67887: L2-Pf-HR :0.80331: L2-HR :0.79186: (Sim:0h3m41s) 
CPU  0 inst:   85000000 cyc:   50392017 now IPC :1.75866: AVG IPC :1.67978: L2-Pf-HR :0.80323: L2-HR :0.79179: (Sim:0h3m44s) 
CPU  0 inst:   86000003 cyc:   50964610 now IPC :1.74645: AVG IPC :1.68055: L2-Pf-HR :0.80325: L2-HR :0.79181: (Sim:0h3m46s) 
CPU  0 inst:   87000001 cyc:   51612630 now IPC :1.54316: AVG IPC :1.67879: L2-Pf-HR :0.80307: L2-HR :0.79167: (Sim:0h3m49s) 
CPU  0 inst:   88000000 cyc:   52232952 now IPC :1.61206: AVG IPC :1.67798: L2-Pf-HR :0.80336: L2-HR :0.79194: (Sim:0h3m51s) 
CPU  0 inst:   89000003 cyc:   52801802 now IPC :1.75794: AVG IPC :1.67886: L2-Pf-HR :0.80357: L2-HR :0.79215: (Sim:0h3m54s) 
CPU  0 inst:   90000001 cyc:   53367771 now IPC :1.76688: AVG IPC :1.67981: L2-Pf-HR :0.80372: L2-HR :0.79230: (Sim:0h3m57s) 
CPU  0 inst:   91000002 cyc:   53935199 now IPC :1.76234: AVG IPC :1.68069: L2-Pf-HR :0.80387: L2-HR :0.79246: (Sim:0h3m59s) 
CPU  0 inst:   92000000 cyc:   54498612 now IPC :1.77489: AVG IPC :1.68169: L2-Pf-HR :0.80402: L2-HR :0.79262: (Sim:0h4m2s) 
CPU  0 inst:   93000002 cyc:   55060896 now IPC :1.77846: AVG IPC :1.68269: L2-Pf-HR :0.80444: L2-HR :0.79302: (Sim:0h4m4s) 
CPU  0 inst:   94000001 cyc:   55617240 now IPC :1.79745: AVG IPC :1.68386: L2-Pf-HR :0.80512: L2-HR :0.79365: (Sim:0h4m7s) 
CPU  0 inst:   95000003 cyc:   56378091 now IPC :1.31432: AVG IPC :1.67879: L2-Pf-HR :0.80535: L2-HR :0.79389: (Sim:0h4m10s) 
CPU  0 inst:   96000000 cyc:   57012187 now IPC :1.57704: AVG IPC :1.67763: L2-Pf-HR :0.80518: L2-HR :0.79371: (Sim:0h4m12s) 
CPU  0 inst:   97000003 cyc:   57603651 now IPC :1.69073: AVG IPC :1.67777: L2-Pf-HR :0.80506: L2-HR :0.79356: (Sim:0h4m15s) 
CPU  0 inst:   98000002 cyc:   58199302 now IPC :1.67883: AVG IPC :1.67778: L2-Pf-HR :0.80497: L2-HR :0.79344: (Sim:0h4m17s) 
CPU  0 inst:   99000000 cyc:   58786752 now IPC :1.70227: AVG IPC :1.67803: L2-Pf-HR :0.80483: L2-HR :0.79328: (Sim:0h4m20s) 
CPU  0 inst:  100000000 cyc:   59379000 now IPC :1.68848: AVG IPC :1.67814: L2-Pf-HR :0.80478: L2-HR :0.79320: (Sim:0h4m23s) 
CPU  0 inst:  101000000 cyc:   59978973 now IPC :1.66674: AVG IPC :1.67802: L2-Pf-HR :0.80466: L2-HR :0.79306: (Sim:0h4m25s) 
CPU  0 inst:  102000001 cyc:   60569544 now IPC :1.69328: AVG IPC :1.67817: L2-Pf-HR :0.80457: L2-HR :0.79297: (Sim:0h4m28s) 
CPU  0 inst:  103000003 cyc:   61164713 now IPC :1.68020: AVG IPC :1.67819: L2-Pf-HR :0.80444: L2-HR :0.79281: (Sim:0h4m30s) 
CPU  0 inst:  104000000 cyc:   61764079 now IPC :1.66842: AVG IPC :1.67810: L2-Pf-HR :0.80432: L2-HR :0.79269: (Sim:0h4m33s) 
CPU  0 inst:  105000002 cyc:   62346738 now IPC :1.71627: AVG IPC :1.67846: L2-Pf-HR :0.80427: L2-HR :0.79263: (Sim:0h4m36s) 
CPU  0 inst:  106000000 cyc:   62940723 now IPC :1.68354: AVG IPC :1.67851: L2-Pf-HR :0.80428: L2-HR :0.79262: (Sim:0h4m38s) 
CPU  0 inst:  107000000 cyc:   63738574 now IPC :1.25337: AVG IPC :1.67310: L2-Pf-HR :0.80399: L2-HR :0.79239: (Sim:0h4m41s) 
CPU  0 inst:  108000000 cyc:   64334765 now IPC :1.67731: AVG IPC :1.67314: L2-Pf-HR :0.80392: L2-HR :0.79233: (Sim:0h4m44s) 
CPU  0 inst:  109000001 cyc:   64901542 now IPC :1.76436: AVG IPC :1.67395: L2-Pf-HR :0.80385: L2-HR :0.79226: (Sim:0h4m46s) 
CPU  0 inst:  110000000 cyc:   65467972 now IPC :1.76544: AVG IPC :1.67475: L2-Pf-HR :0.80379: L2-HR :0.79222: (Sim:0h4m49s) 
CPU  0 inst:  111000001 cyc:   66033995 now IPC :1.76671: AVG IPC :1.67555: L2-Pf-HR :0.80374: L2-HR :0.79217: (Sim:0h4m52s) 
CPU  0 inst:  112000000 cyc:   66603430 now IPC :1.75612: AVG IPC :1.67625: L2-Pf-HR :0.80371: L2-HR :0.79216: (Sim:0h4m54s) 
CPU  0 inst:  113000000 cyc:   67169742 now IPC :1.76581: AVG IPC :1.67702: L2-Pf-HR :0.80365: L2-HR :0.79212: (Sim:0h4m57s) 
CPU  0 inst:  114000001 cyc:   67733595 now IPC :1.77351: AVG IPC :1.67783: L2-Pf-HR :0.80359: L2-HR :0.79208: (Sim:0h4m59s) 
CPU  0 inst:  115000000 cyc:   68298034 now IPC :1.77167: AVG IPC :1.67862: L2-Pf-HR :0.80349: L2-HR :0.79199: (Sim:0h5m2s) 
CPU  0 inst:  116000000 cyc:   68862628 now IPC :1.77118: AVG IPC :1.67939: L2-Pf-HR :0.80344: L2-HR :0.79196: (Sim:0h5m5s) 
CPU  0 inst:  117000003 cyc:   69425955 now IPC :1.77517: AVG IPC :1.68018: L2-Pf-HR :0.80341: L2-HR :0.79194: (Sim:0h5m7s) 
CPU  0 inst:  118000000 cyc:   69985419 now IPC :1.78742: AVG IPC :1.68105: L2-Pf-HR :0.80348: L2-HR :0.79200: (Sim:0h5m10s) 
CPU  0 inst:  119000001 cyc:   70691514 now IPC :1.41624: AVG IPC :1.67837: L2-Pf-HR :0.80341: L2-HR :0.79196: (Sim:0h5m13s) 
CPU  0 inst:  120000000 cyc:   71259501 now IPC :1.76060: AVG IPC :1.67903: L2-Pf-HR :0.80358: L2-HR :0.79212: (Sim:0h5m15s) 
CPU  0 inst:  121000003 cyc:   71827075 now IPC :1.76189: AVG IPC :1.67970: L2-Pf-HR :0.80367: L2-HR :0.79222: (Sim:0h5m18s) 
CPU  0 inst:  122000002 cyc:   72393874 now IPC :1.76429: AVG IPC :1.68037: L2-Pf-HR :0.80377: L2-HR :0.79232: (Sim:0h5m21s) 
CPU  0 inst:  123000002 cyc:   72957450 now IPC :1.77438: AVG IPC :1.68110: L2-Pf-HR :0.80385: L2-HR :0.79242: (Sim:0h5m23s) 
CPU  0 inst:  124000000 cyc:   73521854 now IPC :1.77178: AVG IPC :1.68181: L2-Pf-HR :0.80397: L2-HR :0.79254: (Sim:0h5m26s) 
CPU  0 inst:  125000000 cyc:   74084646 now IPC :1.77686: AVG IPC :1.68254: L2-Pf-HR :0.80442: L2-HR :0.79296: (Sim:0h5m28s) 
CPU  0 inst:  126000001 cyc:   74645389 now IPC :1.78335: AVG IPC :1.68331: L2-Pf-HR :0.80502: L2-HR :0.79351: (Sim:0h5m31s) 
CPU  0 inst:  127000001 cyc:   75454247 now IPC :1.23631: AVG IPC :1.67845: L2-Pf-HR :0.80487: L2-HR :0.79339: (Sim:0h5m34s) 
CPU  0 inst:  128000000 cyc:   76041657 now IPC :1.70239: AVG IPC :1.67864: L2-Pf-HR :0.80478: L2-HR :0.79329: (Sim:0h5m36s) 
CPU  0 inst:  129000002 cyc:   76628444 now IPC :1.70420: AVG IPC :1.67884: L2-Pf-HR :0.80471: L2-HR :0.79319: (Sim:0h5m39s) 
CPU  0 inst:  130000001 cyc:   77213498 now IPC :1.70924: AVG IPC :1.67907: L2-Pf-HR :0.80466: L2-HR :0.79313: (Sim:0h5m42s) 
CPU  0 inst:  131000002 cyc:   77807956 now IPC :1.68221: AVG IPC :1.67910: L2-Pf-HR :0.80459: L2-HR :0.79303: (Sim:0h5m44s) 
CPU  0 inst:  132000000 cyc:   78400270 now IPC :1.68829: AVG IPC :1.67917: L2-Pf-HR :0.80454: L2-HR :0.79297: (Sim:0h5m47s) 
CPU  0 inst:  133000002 cyc:   78991099 now IPC :1.69254: AVG IPC :1.67927: L2-Pf-HR :0.80450: L2-HR :0.79293: (Sim:0h5m50s) 
CPU  0 inst:  134000003 cyc:   79583153 now IPC :1.68904: AVG IPC :1.67934: L2-Pf-HR :0.80441: L2-HR :0.79282: (Sim:0h5m52s) 
CPU  0 inst:  135000000 cyc:   80168015 now IPC :1.70980: AVG IPC :1.67957: L2-Pf-HR :0.80432: L2-HR :0.79272: (Sim:0h5m55s) 
CPU  0 inst:  136000000 cyc:   80758389 now IPC :1.69384: AVG IPC :1.67967: L2-Pf-HR :0.80426: L2-HR :0.79265: (Sim:0h5m58s) 
CPU  0 inst:  137000001 cyc:   81347330 now IPC :1.69796: AVG IPC :1.67981: L2-Pf-HR :0.80425: L2-HR :0.79263: (Sim:0h6m0s) 
CPU  0 inst:  138000003 cyc:   81929719 now IPC :1.71707: AVG IPC :1.68007: L2-Pf-HR :0.80432: L2-HR :0.79268: (Sim:0h6m3s) 
CPU  0 inst:  139000000 cyc:   82744487 now IPC :1.22734: AVG IPC :1.67556: L2-Pf-HR :0.80401: L2-HR :0.79244: (Sim:0h6m6s) 
CPU  0 inst:  140000000 cyc:   83322080 now IPC :1.73132: AVG IPC :1.67595: L2-Pf-HR :0.80398: L2-HR :0.79241: (Sim:0h6m8s) 
CPU  0 inst:  141000002 cyc:   83899446 now IPC :1.73201: AVG IPC :1.67634: L2-Pf-HR :0.80393: L2-HR :0.79237: (Sim:0h6m11s) 
CPU  0 inst:  142000001 cyc:   84476058 now IPC :1.73427: AVG IPC :1.67674: L2-Pf-HR :0.80389: L2-HR :0.79234: (Sim:0h6m13s) 
CPU  0 inst:  143000003 cyc:   85049389 now IPC :1.74420: AVG IPC :1.67720: L2-Pf-HR :0.80384: L2-HR :0.79230: (Sim:0h6m16s) 
CPU  0 inst:  144000000 cyc:   85623956 now IPC :1.74044: AVG IPC :1.67763: L2-Pf-HR :0.80382: L2-HR :0.79228: (Sim:0h6m19s) 
CPU  0 inst:  145000002 cyc:   86197103 now IPC :1.74476: AVG IPC :1.67808: L2-Pf-HR :0.80377: L2-HR :0.79225: (Sim:0h6m21s) 
CPU  0 inst:  146000000 cyc:   86767166 now IPC :1.75419: AVG IPC :1.67859: L2-Pf-HR :0.80368: L2-HR :0.79218: (Sim:0h6m24s) 
CPU  0 inst:  147000000 cyc:   87339716 now IPC :1.74657: AVG IPC :1.67904: L2-Pf-HR :0.80363: L2-HR :0.79214: (Sim:0h6m27s) 
CPU  0 inst:  148000000 cyc:   87914907 now IPC :1.73855: AVG IPC :1.67943: L2-Pf-HR :0.80357: L2-HR :0.79209: (Sim:0h6m29s) 
CPU  0 inst:  149000001 cyc:   88486329 now IPC :1.75002: AVG IPC :1.67990: L2-Pf-HR :0.80357: L2-HR :0.79209: (Sim:0h6m32s) 
CPU  0 inst:  150000002 cyc:   89059925 now IPC :1.74339: AVG IPC :1.68031: L2-Pf-HR :0.80365: L2-HR :0.79216: (Sim:0h6m34s) 
CPU  0 inst:  151000001 cyc:   89754801 now IPC :1.43910: AVG IPC :1.67842: L2-Pf-HR :0.80363: L2-HR :0.79218: (Sim:0h6m37s) 
CPU  0 inst:  152000000 cyc:   90321182 now IPC :1.76559: AVG IPC :1.67897: L2-Pf-HR :0.80378: L2-HR :0.79232: (Sim:0h6m40s) 
CPU  0 inst:  153000002 cyc:   90887651 now IPC :1.76533: AVG IPC :1.67952: L2-Pf-HR :0.80385: L2-HR :0.79239: (Sim:0h6m42s) 
CPU  0 inst:  154000002 cyc:   91458512 now IPC :1.75174: AVG IPC :1.67997: L2-Pf-HR :0.80396: L2-HR :0.79250: (Sim:0h6m45s) 
CPU  0 inst:  155000003 cyc:   92022493 now IPC :1.77311: AVG IPC :1.68055: L2-Pf-HR :0.80404: L2-HR :0.79259: (Sim:0h6m48s) 
CPU  0 inst:  156000000 cyc:   92584701 now IPC :1.77870: AVG IPC :1.68115: L2-Pf-HR :0.80429: L2-HR :0.79282: (Sim:0h6m50s) 
CPU  0 inst:  157000003 cyc:   93141536 now IPC :1.79587: AVG IPC :1.68185: L2-Pf-HR :0.80466: L2-HR :0.79317: (Sim:0h6m53s) 
CPU  0 inst:  158000001 cyc:   93865524 now IPC :1.38124: AVG IPC :1.67950: L2-Pf-HR :0.80485: L2-HR :0.79337: (Sim:0h6m56s) 
CPU  0 inst:  159000003 cyc:   94520531 now IPC :1.52670: AVG IPC :1.67843: L2-Pf-HR :0.80477: L2-HR :0.79329: (Sim:0h6m59s) 
CPU  0 inst:  160000000 cyc:   95113840 now IPC :1.68546: AVG IPC :1.67848: L2-Pf-HR :0.80472: L2-HR :0.79322: (Sim:0h7m1s) 
CPU  0 inst:  161000003 cyc:   95696869 now IPC :1.71519: AVG IPC :1.67870: L2-Pf-HR :0.80466: L2-HR :0.79314: (Sim:0h7m4s) 
CPU  0 inst:  162000002 cyc:   96287061 now IPC :1.69436: AVG IPC :1.67880: L2-Pf-HR :0.80459: L2-HR :0.79306: (Sim:0h7m7s) 
CPU  0 inst:  163000000 cyc:   96881210 now IPC :1.68308: AVG IPC :1.67883: L2-Pf-HR :0.80457: L2-HR :0.79303: (Sim:0h7m9s) 
CPU  0 inst:  164000000 cyc:   97470750 now IPC :1.69624: AVG IPC :1.67893: L2-Pf-HR :0.80454: L2-HR :0.79299: (Sim:0h7m12s) 
CPU  0 inst:  165000001 cyc:   98060167 now IPC :1.69659: AVG IPC :1.67904: L2-Pf-HR :0.80451: L2-HR :0.79296: (Sim:0h7m15s) 
CPU  0 inst:  166000000 cyc:   98648969 now IPC :1.69836: AVG IPC :1.67916: L2-Pf-HR :0.80445: L2-HR :0.79288: (Sim:0h7m17s) 
CPU  0 inst:  167000003 cyc:   99231579 now IPC :1.71642: AVG IPC :1.67938: L2-Pf-HR :0.80438: L2-HR :0.79281: (Sim:0h7m20s) 
CPU  0 inst:  168000000 cyc:   99818157 now IPC :1.70480: AVG IPC :1.67953: L2-Pf-HR :0.80434: L2-HR :0.79276: (Sim:0h7m23s) 
CPU  0 inst:  169000002 cyc:  100403038 now IPC :1.70975: AVG IPC :1.67971: L2-Pf-HR :0.80435: L2-HR :0.79276: (Sim:0h7m25s) 
CPU  0 inst:  170000002 cyc:  101162445 now IPC :1.31682: AVG IPC :1.67696: L2-Pf-HR :0.80419: L2-HR :0.79263: (Sim:0h7m28s) 
CPU  0 inst:  171000001 cyc:  101793542 now IPC :1.58454: AVG IPC :1.67638: L2-Pf-HR :0.80413: L2-HR :0.79258: (Sim:0h7m31s) 
CPU  0 inst:  172000000 cyc:  102363927 now IPC :1.75320: AVG IPC :1.67681: L2-Pf-HR :0.80407: L2-HR :0.79253: (Sim:0h7m33s) 
CPU  0 inst:  173000000 cyc:  102936821 now IPC :1.74552: AVG IPC :1.67720: L2-Pf-HR :0.80403: L2-HR :0.79249: (Sim:0h7m36s) 
CPU  0 inst:  174000001 cyc:  103505730 now IPC :1.75775: AVG IPC :1.67764: L2-Pf-HR :0.80398: L2-HR :0.79245: (Sim:0h7m39s) 
CPU  0 inst:  175000002 cyc:  104077724 now IPC :1.74827: AVG IPC :1.67803: L2-Pf-HR :0.80396: L2-HR :0.79244: (Sim:0h7m41s) 
CPU  0 inst:  176000000 cyc:  104648303 now IPC :1.75260: AVG IPC :1.67844: L2-Pf-HR :0.80393: L2-HR :0.79242: (Sim:0h7m44s) 
CPU  0 inst:  177000000 cyc:  105218071 now IPC :1.75510: AVG IPC :1.67886: L2-Pf-HR :0.80390: L2-HR :0.79241: (Sim:0h7m47s) 
CPU  0 inst:  178000003 cyc:  105785608 now IPC :1.76200: AVG IPC :1.67931: L2-Pf-HR :0.80383: L2-HR :0.79235: (Sim:0h7m49s) 
CPU  0 inst:  179000000 cyc:  106354055 now IPC :1.75917: AVG IPC :1.67974: L2-Pf-HR :0.80380: L2-HR :0.79232: (Sim:0h7m52s) 
CPU  0 inst:  180000000 cyc:  106922985 now IPC :1.75769: AVG IPC :1.68016: L2-Pf-HR :0.80377: L2-HR :0.79230: (Sim:0h7m54s) 
CPU  0 inst:  181000001 cyc:  107482426 now IPC :1.78750: AVG IPC :1.68073: L2-Pf-HR :0.80380: L2-HR :0.79233: (Sim:0h7m57s) 
CPU  0 inst:  182000001 cyc:  108184387 now IPC :1.42458: AVG IPC :1.67905: L2-Pf-HR :0.80373: L2-HR :0.79228: (Sim:0h8m0s) 
CPU  0 inst:  183000003 cyc:  108758732 now IPC :1.74112: AVG IPC :1.67938: L2-Pf-HR :0.80387: L2-HR :0.79241: (Sim:0h8m2s) 
CPU  0 inst:  184000000 cyc:  109328203 now IPC :1.75601: AVG IPC :1.67978: L2-Pf-HR :0.80395: L2-HR :0.79249: (Sim:0h8m5s) 
CPU  0 inst:  185000000 cyc:  109896590 now IPC :1.75936: AVG IPC :1.68020: L2-Pf-HR :0.80401: L2-HR :0.79255: (Sim:0h8m8s) 
CPU  0 inst:  186000001 cyc:  110462716 now IPC :1.76639: AVG IPC :1.68064: L2-Pf-HR :0.80408: L2-HR :0.79263: (Sim:0h8m10s) 
CPU  0 inst:  187000003 cyc:  111031698 now IPC :1.75753: AVG IPC :1.68104: L2-Pf-HR :0.80414: L2-HR :0.79270: (Sim:0h8m13s) 
CPU  0 inst:  188000000 cyc:  111588503 now IPC :1.79596: AVG IPC :1.68162: L2-Pf-HR :0.80441: L2-HR :0.79295: (Sim:0h8m16s) 
CPU  0 inst:  189000001 cyc:  112145054 now IPC :1.79678: AVG IPC :1.68220: L2-Pf-HR :0.80478: L2-HR :0.79330: (Sim:0h8m18s) 
CPU  0 inst:  190000001 cyc:  112942827 now IPC :1.25349: AVG IPC :1.67914: L2-Pf-HR :0.80475: L2-HR :0.79328: (Sim:0h8m22s) 
CPU  0 inst:  191000002 cyc:  113547097 now IPC :1.65489: AVG IPC :1.67901: L2-Pf-HR :0.80469: L2-HR :0.79321: (Sim:0h8m26s) 
CPU  0 inst:  192000000 cyc:  114135940 now IPC :1.69824: AVG IPC :1.67911: L2-Pf-HR :0.80464: L2-HR :0.79315: (Sim:0h8m29s) 
CPU  0 inst:  193000002 cyc:  114723811 now IPC :1.70106: AVG IPC :1.67923: L2-Pf-HR :0.80459: L2-HR :0.79309: (Sim:0h8m32s) 
CPU  0 inst:  194000003 cyc:  115315222 now IPC :1.69087: AVG IPC :1.67929: L2-Pf-HR :0.80453: L2-HR :0.79301: (Sim:0h8m34s) 
CPU  0 inst:  195000003 cyc:  115908499 now IPC :1.68555: AVG IPC :1.67932: L2-Pf-HR :0.80450: L2-HR :0.79298: (Sim:0h8m38s) 
CPU  0 inst:  196000000 cyc:  116502241 now IPC :1.68423: AVG IPC :1.67934: L2-Pf-HR :0.80447: L2-HR :0.79294: (Sim:0h8m40s) 
CPU  0 inst:  197000002 cyc:  117092526 now IPC :1.69410: AVG IPC :1.67942: L2-Pf-HR :0.80441: L2-HR :0.79287: (Sim:0h8m43s) 
CPU  0 inst:  198000001 cyc:  117683715 now IPC :1.69150: AVG IPC :1.67948: L2-Pf-HR :0.80434: L2-HR :0.79280: (Sim:0h8m46s) 
CPU  0 inst:  199000003 cyc:  118271960 now IPC :1.69998: AVG IPC :1.67958: L2-Pf-HR :0.80430: L2-HR :0.79275: (Sim:0h8m49s) 
CPU  0 inst:  200000000 cyc:  118858246 now IPC :1.70565: AVG IPC :1.67971: L2-Pf-HR :0.80428: L2-HR :0.79272: (Sim:0h8m52s) 
CPU  0 inst:  201000001 cyc:  119454438 now IPC :1.67731: AVG IPC :1.67970: L2-Pf-HR :0.80432: L2-HR :0.79275: (Sim:0h8m54s) 
CPU  0 inst:  202000001 cyc:  120264180 now IPC :1.23496: AVG IPC :1.67668: L2-Pf-HR :0.80414: L2-HR :0.79261: (Sim:0h8m57s) 
CPU  0 inst:  203000001 cyc:  120843277 now IPC :1.72683: AVG IPC :1.67692: L2-Pf-HR :0.80412: L2-HR :0.79259: (Sim:0h9m0s) 
CPU  0 inst:  204000000 cyc:  121417873 now IPC :1.74035: AVG IPC :1.67723: L2-Pf-HR :0.80408: L2-HR :0.79257: (Sim:0h9m3s) 
CPU  0 inst:  205000003 cyc:  121990203 now IPC :1.74725: AVG IPC :1.67756: L2-Pf-HR :0.80405: L2-HR :0.79254: (Sim:0h9m6s) 
CPU  0 inst:  206000000 cyc:  122563711 now IPC :1.74365: AVG IPC :1.67787: L2-Pf-HR :0.80403: L2-HR :0.79252: (Sim:0h9m9s) 
CPU  0 inst:  207000001 cyc:  123134405 now IPC :1.75225: AVG IPC :1.67822: L2-Pf-HR :0.80402: L2-HR :0.79252: (Sim:0h9m11s) 
CPU  0 inst:  208000000 cyc:  123700192 now IPC :1.76745: AVG IPC :1.67863: L2-Pf-HR :0.80401: L2-HR :0.79252: (Sim:0h9m14s) 
CPU  0 inst:  209000003 cyc:  124275413 now IPC :1.73847: AVG IPC :1.67891: L2-Pf-HR :0.80397: L2-HR :0.79249: (Sim:0h9m17s) 
CPU  0 inst:  210000003 cyc:  124847788 now IPC :1.74711: AVG IPC :1.67922: L2-Pf-HR :0.80392: L2-HR :0.79245: (Sim:0h9m19s) 
CPU  0 inst:  211000001 cyc:  125413004 now IPC :1.76923: AVG IPC :1.67963: L2-Pf-HR :0.80389: L2-HR :0.79242: (Sim:0h9m22s) 
CPU  0 inst:  212000000 cyc:  125974592 now IPC :1.78066: AVG IPC :1.68008: L2-Pf-HR :0.80389: L2-HR :0.79242: (Sim:0h9m24s) 
CPU  0 inst:  213000000 cyc:  126535055 now IPC :1.78424: AVG IPC :1.68055: L2-Pf-HR :0.80396: L2-HR :0.79248: (Sim:0h9m27s) 
CPU  0 inst:  214000000 cyc:  127237039 now IPC :1.42453: AVG IPC :1.67913: L2-Pf-HR :0.80392: L2-HR :0.79247: (Sim:0h9m30s) 
CPU  0 inst:  215000002 cyc:  127806166 now IPC :1.75708: AVG IPC :1.67948: L2-Pf-HR :0.80402: L2-HR :0.79256: (Sim:0h9m33s) 
CPU  0 inst:  216000000 cyc:  128374449 now IPC :1.75968: AVG IPC :1.67983: L2-Pf-HR :0.80408: L2-HR :0.79262: (Sim:0h9m35s) 
CPU  0 inst:  217000000 cyc:  128943140 now IPC :1.75842: AVG IPC :1.68018: L2-Pf-HR :0.80415: L2-HR :0.79269: (Sim:0h9m39s) 
CPU  0 inst:  218000003 cyc:  129504142 now IPC :1.78253: AVG IPC :1.68063: L2-Pf-HR :0.80420: L2-HR :0.79275: (Sim:0h9m43s) 
CPU  0 inst:  219000003 cyc:  130070484 now IPC :1.76572: AVG IPC :1.68100: L2-Pf-HR :0.80435: L2-HR :0.79289: (Sim:0h9m47s) 
CPU  0 inst:  220000000 cyc:  130632625 now IPC :1.77891: AVG IPC :1.68143: L2-Pf-HR :0.80461: L2-HR :0.79314: (Sim:0h9m49s) 
CPU  0 inst:  221000003 cyc:  131189546 now IPC :1.79559: AVG IPC :1.68192: L2-Pf-HR :0.80496: L2-HR :0.79346: (Sim:0h9m52s) 
CPU  0 inst:  222000001 cyc:  132016864 now IPC :1.20872: AVG IPC :1.67893: L2-Pf-HR :0.80476: L2-HR :0.79328: (Sim:0h9m55s) 
CPU  0 inst:  223000003 cyc:  132605926 now IPC :1.69762: AVG IPC :1.67901: L2-Pf-HR :0.80471: L2-HR :0.79323: (Sim:0h9m59s) 
CPU  0 inst:  224000000 cyc:  133201269 now IPC :1.67970: AVG IPC :1.67902: L2-Pf-HR :0.80468: L2-HR :0.79318: (Sim:0h10m3s) 
CPU  0 inst:  225000000 cyc:  133790301 now IPC :1.69770: AVG IPC :1.67910: L2-Pf-HR :0.80464: L2-HR :0.79314: (Sim:0h10m6s) 
CPU  0 inst:  226000002 cyc:  134380652 now IPC :1.69391: AVG IPC :1.67916: L2-Pf-HR :0.80462: L2-HR :0.79310: (Sim:0h10m10s) 
CPU  0 inst:  227000000 cyc:  134973476 now IPC :1.68684: AVG IPC :1.67920: L2-Pf-HR :0.80458: L2-HR :0.79306: (Sim:0h10m14s) 
CPU  0 inst:  228000000 cyc:  135562659 now IPC :1.69727: AVG IPC :1.67928: L2-Pf-HR :0.80455: L2-HR :0.79302: (Sim:0h10m18s) 
CPU  0 inst:  229000000 cyc:  136153666 now IPC :1.69203: AVG IPC :1.67933: L2-Pf-HR :0.80450: L2-HR :0.79296: (Sim:0h10m23s) 
CPU  0 inst:  230000000 cyc:  136739679 now IPC :1.70645: AVG IPC :1.67945: L2-Pf-HR :0.80447: L2-HR :0.79293: (Sim:0h10m27s) 
CPU  0 inst:  231000002 cyc:  137329939 now IPC :1.69417: AVG IPC :1.67951: L2-Pf-HR :0.80443: L2-HR :0.79289: (Sim:0h10m32s) 
CPU  0 inst:  232000000 cyc:  137921407 now IPC :1.69071: AVG IPC :1.67956: L2-Pf-HR :0.80442: L2-HR :0.79287: (Sim:0h10m36s) 
CPU  0 inst:  233000002 cyc:  138565973 now IPC :1.55143: AVG IPC :1.67896: L2-Pf-HR :0.80440: L2-HR :0.79284: (Sim:0h10m40s) 
CPU  0 inst:  234000002 cyc:  139309530 now IPC :1.34489: AVG IPC :1.67717: L2-Pf-HR :0.80426: L2-HR :0.79274: (Sim:0h10m45s) 
CPU  0 inst:  235000002 cyc:  139875269 now IPC :1.76760: AVG IPC :1.67753: L2-Pf-HR :0.80424: L2-HR :0.79271: (Sim:0h10m48s) 
CPU  0 inst:  236000000 cyc:  140439372 now IPC :1.77272: AVG IPC :1.67792: L2-Pf-HR :0.80422: L2-HR :0.79270: (Sim:0h10m51s) 
CPU  0 inst:  237000001 cyc:  141005537 now IPC :1.76627: AVG IPC :1.67828: L2-Pf-HR :0.80418: L2-HR :0.79267: (Sim:0h10m54s) 
CPU  0 inst:  238000002 cyc:  141570212 now IPC :1.77093: AVG IPC :1.67865: L2-Pf-HR :0.80416: L2-HR :0.79265: (Sim:0h10m56s) 
CPU  0 inst:  239000001 cyc:  142137460 now IPC :1.76290: AVG IPC :1.67899: L2-Pf-HR :0.80414: L2-HR :0.79264: (Sim:0h10m59s) 
CPU  0 inst:  240000000 cyc:  142701005 now IPC :1.77448: AVG IPC :1.67937: L2-Pf-HR :0.80412: L2-HR :0.79263: (Sim:0h11m2s) 
CPU  0 inst:  241000003 cyc:  143265463 now IPC :1.77162: AVG IPC :1.67973: L2-Pf-HR :0.80407: L2-HR :0.79259: (Sim:0h11m5s) 
CPU  0 inst:  242000003 cyc:  143826954 now IPC :1.78097: AVG IPC :1.68013: L2-Pf-HR :0.80405: L2-HR :0.79257: (Sim:0h11m7s) 
CPU  0 inst:  243000002 cyc:  144385290 now IPC :1.79103: AVG IPC :1.68056: L2-Pf-HR :0.80403: L2-HR :0.79256: (Sim:0h11m10s) 
CPU  0 inst:  244000000 cyc:  144944497 now IPC :1.78824: AVG IPC :1.68098: L2-Pf-HR :0.80403: L2-HR :0.79256: (Sim:0h11m13s) 
CPU  0 inst:  245000002 cyc:  145635768 now IPC :1.44661: AVG IPC :1.67986: L2-Pf-HR :0.80398: L2-HR :0.79252: (Sim:0h11m16s) 
CPU  0 inst:  246000001 cyc:  146213741 now IPC :1.73018: AVG IPC :1.68006: L2-Pf-HR :0.80408: L2-HR :0.79262: (Sim:0h11m18s) 
CPU  0 inst:  247000000 cyc:  146779550 now IPC :1.76738: AVG IPC :1.68040: L2-Pf-HR :0.80415: L2-HR :0.79269: (Sim:0h11m21s) 
CPU  0 inst:  248000000 cyc:  147350776 now IPC :1.75062: AVG IPC :1.68067: L2-Pf-HR :0.80421: L2-HR :0.79275: (Sim:0h11m24s) 
CPU  0 inst:  249000002 cyc:  147921488 now IPC :1.75220: AVG IPC :1.68095: L2-Pf-HR :0.80426: L2-HR :0.79280: (Sim:0h11m27s) 
CPU  0 inst:  250000000 cyc:  148484936 now IPC :1.77478: AVG IPC :1.68131: L2-Pf-HR :0.80431: L2-HR :0.79285: (Sim:0h11m29s) 
CPU  0 inst:  251000001 cyc:  149043515 now IPC :1.79026: AVG IPC :1.68172: L2-Pf-HR :0.80450: L2-HR :0.79303: (Sim:0h11m32s) 
CPU  0 inst:  252000000 cyc:  149603514 now IPC :1.78572: AVG IPC :1.68211: L2-Pf-HR :0.80475: L2-HR :0.79327: (Sim:0h11m36s) 
CPU  0 inst:  253000001 cyc:  150392046 now IPC :1.26818: AVG IPC :1.67993: L2-Pf-HR :0.80478: L2-HR :0.79330: (Sim:0h11m39s) 
CPU  0 inst:  254000000 cyc:  150981787 now IPC :1.69566: AVG IPC :1.67999: L2-Pf-HR :0.80474: L2-HR :0.79326: (Sim:0h11m42s) 
CPU  0 inst:  255000000 cyc:  151574612 now IPC :1.68684: AVG IPC :1.68002: L2-Pf-HR :0.80471: L2-HR :0.79322: (Sim:0h11m45s) 
CPU  0 inst:  256000000 cyc:  152160961 now IPC :1.70547: AVG IPC :1.68012: L2-Pf-HR :0.80468: L2-HR :0.79318: (Sim:0h11m47s) 
CPU  0 inst:  257000001 cyc:  152751334 now IPC :1.69385: AVG IPC :1.68017: L2-Pf-HR :0.80465: L2-HR :0.79314: (Sim:0h11m50s) 
CPU  0 inst:  258000002 cyc:  153350760 now IPC :1.66826: AVG IPC :1.68012: L2-Pf-HR :0.80463: L2-HR :0.79312: (Sim:0h11m53s) 
CPU  0 inst:  259000001 cyc:  153937869 now IPC :1.70326: AVG IPC :1.68021: L2-Pf-HR :0.80460: L2-HR :0.79309: (Sim:0h11m56s) 
CPU  0 inst:  260000000 cyc:  154525944 now IPC :1.70046: AVG IPC :1.68029: L2-Pf-HR :0.80458: L2-HR :0.79306: (Sim:0h11m59s) 
CPU  0 inst:  261000000 cyc:  155122935 now IPC :1.67507: AVG IPC :1.68027: L2-Pf-HR :0.80453: L2-HR :0.79299: (Sim:0h12m1s) 
CPU  0 inst:  262000000 cyc:  155716762 now IPC :1.68399: AVG IPC :1.68028: L2-Pf-HR :0.80450: L2-HR :0.79297: (Sim:0h12m5s) 
CPU  0 inst:  263000003 cyc:  156310755 now IPC :1.68353: AVG IPC :1.68029: L2-Pf-HR :0.80448: L2-HR :0.79294: (Sim:0h12m8s) 
CPU  0 inst:  264000000 cyc:  156898322 now IPC :1.70193: AVG IPC :1.68038: L2-Pf-HR :0.80449: L2-HR :0.79294: (Sim:0h12m11s) 
CPU  0 inst:  265000000 cyc:  157714729 now IPC :1.22488: AVG IPC :1.67800: L2-Pf-HR :0.80436: L2-HR :0.79284: (Sim:0h12m14s) 
CPU  0 inst:  266000003 cyc:  158293866 now IPC :1.72671: AVG IPC :1.67818: L2-Pf-HR :0.80434: L2-HR :0.79282: (Sim:0h12m17s) 
CPU  0 inst:  267000002 cyc:  158859252 now IPC :1.76870: AVG IPC :1.67851: L2-Pf-HR :0.80431: L2-HR :0.79280: (Sim:0h12m19s) 
CPU  0 inst:  268000000 cyc:  159427838 now IPC :1.75875: AVG IPC :1.67880: L2-Pf-HR :0.80430: L2-HR :0.79279: (Sim:0h12m22s) 
CPU  0 inst:  269000001 cyc:  160001207 now IPC :1.74408: AVG IPC :1.67903: L2-Pf-HR :0.80427: L2-HR :0.79276: (Sim:0h12m26s) 
CPU  0 inst:  270000001 cyc:  160572633 now IPC :1.75001: AVG IPC :1.67928: L2-Pf-HR :0.80425: L2-HR :0.79274: (Sim:0h12m30s) 
CPU  0 inst:  271000003 cyc:  161150649 now IPC :1.73006: AVG IPC :1.67947: L2-Pf-HR :0.80424: L2-HR :0.79274: (Sim:0h12m34s) 
CPU  0 inst:  272000000 cyc:  161719282 now IPC :1.75860: AVG IPC :1.67975: L2-Pf-HR :0.80421: L2-HR :0.79272: (Sim:0h12m37s) 
CPU  0 inst:  273000001 cyc:  162283142 now IPC :1.77349: AVG IPC :1.68008: L2-Pf-HR :0.80416: L2-HR :0.79268: (Sim:0h12m40s) 
CPU  0 inst:  274000003 cyc:  162847931 now IPC :1.77058: AVG IPC :1.68039: L2-Pf-HR :0.80415: L2-HR :0.79267: (Sim:0h12m43s) 
CPU  0 inst:  275000002 cyc:  163407069 now IPC :1.78847: AVG IPC :1.68076: L2-Pf-HR :0.80414: L2-HR :0.79266: (Sim:0h12m45s) 
CPU  0 inst:  276000000 cyc:  163970688 now IPC :1.77424: AVG IPC :1.68109: L2-Pf-HR :0.80418: L2-HR :0.79270: (Sim:0h12m48s) 
CPU  0 inst:  277000000 cyc:  164666384 now IPC :1.43741: AVG IPC :1.68005: L2-Pf-HR :0.80414: L2-HR :0.79268: (Sim:0h12m51s) 
CPU  0 inst:  278000003 cyc:  165236905 now IPC :1.75279: AVG IPC :1.68030: L2-Pf-HR :0.80422: L2-HR :0.79276: (Sim:0h12m54s) 
CPU  0 inst:  279000000 cyc:  165800116 now IPC :1.77553: AVG IPC :1.68063: L2-Pf-HR :0.80428: L2-HR :0.79281: (Sim:0h12m56s) 
CPU  0 inst:  280000000 cyc:  166365173 now IPC :1.76973: AVG IPC :1.68093: L2-Pf-HR :0.80433: L2-HR :0.79287: (Sim:0h12m59s) 
CPU  0 inst:  281000002 cyc:  166933532 now IPC :1.75945: AVG IPC :1.68120: L2-Pf-HR :0.80439: L2-HR :0.79293: (Sim:0h13m2s) 
CPU  0 inst:  282000002 cyc:  167498835 now IPC :1.76896: AVG IPC :1.68150: L2-Pf-HR :0.80448: L2-HR :0.79301: (Sim:0h13m4s) 
CPU  0 inst:  283000001 cyc:  168055759 now IPC :1.79558: AVG IPC :1.68188: L2-Pf-HR :0.80469: L2-HR :0.79322: (Sim:0h13m7s) 
CPU  0 inst:  284000000 cyc:  168612853 now IPC :1.79503: AVG IPC :1.68226: L2-Pf-HR :0.80498: L2-HR :0.79347: (Sim:0h13m10s) 
CPU  0 inst:  285000002 cyc:  169427882 now IPC :1.22695: AVG IPC :1.68005: L2-Pf-HR :0.80484: L2-HR :0.79335: (Sim:0h13m13s) 
CPU  0 inst:  286000000 cyc:  170022908 now IPC :1.68060: AVG IPC :1.68006: L2-Pf-HR :0.80479: L2-HR :0.79330: (Sim:0h13m16s) 
CPU  0 inst:  287000003 cyc:  170599084 now IPC :1.73559: AVG IPC :1.68024: L2-Pf-HR :0.80475: L2-HR :0.79325: (Sim:0h13m18s) 
CPU  0 inst:  288000000 cyc:  171194857 now IPC :1.67849: AVG IPC :1.68024: L2-Pf-HR :0.80472: L2-HR :0.79321: (Sim:0h13m22s) 
CPU  0 inst:  289000003 cyc:  171798860 now IPC :1.65563: AVG IPC :1.68015: L2-Pf-HR :0.80468: L2-HR :0.79316: (Sim:0h13m25s) 
CPU  0 inst:  290000000 cyc:  172383285 now IPC :1.71108: AVG IPC :1.68026: L2-Pf-HR :0.80466: L2-HR :0.79314: (Sim:0h13m28s) 
CPU  0 inst:  291000000 cyc:  172972922 now IPC :1.69596: AVG IPC :1.68031: L2-Pf-HR :0.80464: L2-HR :0.79311: (Sim:0h13m31s) 
CPU  0 inst:  292000000 cyc:  173561289 now IPC :1.69962: AVG IPC :1.68038: L2-Pf-HR :0.80459: L2-HR :0.79306: (Sim:0h13m34s) 
CPU  0 inst:  293000002 cyc:  174149419 now IPC :1.70031: AVG IPC :1.68044: L2-Pf-HR :0.80455: L2-HR :0.79302: (Sim:0h13m36s) 
CPU  0 inst:  294000000 cyc:  174741384 now IPC :1.68929: AVG IPC :1.68047: L2-Pf-HR :0.80452: L2-HR :0.79299: (Sim:0h13m39s) 
CPU  0 inst:  295000002 cyc:  175321547 now IPC :1.72366: AVG IPC :1.68062: L2-Pf-HR :0.80452: L2-HR :0.79297: (Sim:0h13m44s) 
CPU  0 inst:  296000000 cyc:  175919514 now IPC :1.67233: AVG IPC :1.68059: L2-Pf-HR :0.80455: L2-HR :0.79300: (Sim:0h13m48s) 
CPU  0 inst:  297000001 cyc:  176723842 now IPC :1.24328: AVG IPC :1.67859: L2-Pf-HR :0.80440: L2-HR :0.79288: (Sim:0h13m52s) 
CPU  0 inst:  298000000 cyc:  177287562 now IPC :1.77393: AVG IPC :1.67889: L2-Pf-HR :0.80439: L2-HR :0.79287: (Sim:0h13m55s) 
CPU  0 inst:  299000003 cyc:  177847979 now IPC :1.78439: AVG IPC :1.67923: L2-Pf-HR :0.80437: L2-HR :0.79285: (Sim:0h13m57s) 
CPU  0 inst:  300000000 cyc:  178412674 now IPC :1.77086: AVG IPC :1.67952: L2-Pf-HR :0.80435: L2-HR :0.79283: (Sim:0h14m0s) 
CPU  0 inst:  301000002 cyc:  178979316 now IPC :1.76479: AVG IPC :1.67979: L2-Pf-HR :0.80433: L2-HR :0.79282: (Sim:0h14m3s) 
CPU  0 inst:  302000001 cyc:  179547218 now IPC :1.76087: AVG IPC :1.68005: L2-Pf-HR :0.80431: L2-HR :0.79281: (Sim:0h14m6s) 
CPU  0 inst:  303000001 cyc:  180114881 now IPC :1.76161: AVG IPC :1.68031: L2-Pf-HR :0.80430: L2-HR :0.79281: (Sim:0h14m9s) 
CPU  0 inst:  304000000 cyc:  180677727 now IPC :1.77668: AVG IPC :1.68061: L2-Pf-HR :0.80427: L2-HR :0.79279: (Sim:0h14m13s) 
CPU  0 inst:  305000001 cyc:  181237292 now IPC :1.78710: AVG IPC :1.68094: L2-Pf-HR :0.80426: L2-HR :0.79278: (Sim:0h14m16s) 
CPU  0 inst:  306000000 cyc:  181794719 now IPC :1.79396: AVG IPC :1.68129: L2-Pf-HR :0.80423: L2-HR :0.79275: (Sim:0h14m19s) 
CPU  0 inst:  307000002 cyc:  182359575 now IPC :1.77037: AVG IPC :1.68156: L2-Pf-HR :0.80424: L2-HR :0.79276: (Sim:0h14m23s) 
CPU  0 inst:  308000000 cyc:  183020625 now IPC :1.51274: AVG IPC :1.68095: L2-Pf-HR :0.80419: L2-HR :0.79272: (Sim:0h14m27s) 
CPU  0 inst:  309000002 cyc:  183625582 now IPC :1.65301: AVG IPC :1.68086: L2-Pf-HR :0.80426: L2-HR :0.79279: (Sim:0h14m30s) 
CPU  0 inst:  310000001 cyc:  184194389 now IPC :1.75806: AVG IPC :1.68110: L2-Pf-HR :0.80434: L2-HR :0.79286: (Sim:0h14m33s) 
CPU  0 inst:  311000000 cyc:  184763417 now IPC :1.75738: AVG IPC :1.68133: L2-Pf-HR :0.80437: L2-HR :0.79290: (Sim:0h14m36s) 
CPU  0 inst:  312000000 cyc:  185328697 now IPC :1.76903: AVG IPC :1.68160: L2-Pf-HR :0.80441: L2-HR :0.79294: (Sim:0h14m39s) 
CPU  0 inst:  313000001 cyc:  185892312 now IPC :1.77426: AVG IPC :1.68189: L2-Pf-HR :0.80445: L2-HR :0.79298: (Sim:0h14m42s) 
CPU  0 inst:  314000000 cyc:  186454901 now IPC :1.77749: AVG IPC :1.68218: L2-Pf-HR :0.80459: L2-HR :0.79311: (Sim:0h14m45s) 
CPU  0 inst:  315000000 cyc:  187015489 now IPC :1.78384: AVG IPC :1.68248: L2-Pf-HR :0.80479: L2-HR :0.79330: (Sim:0h14m47s) 
CPU  0 inst:  316000000 cyc:  187785886 now IPC :1.29803: AVG IPC :1.68090: L2-Pf-HR :0.80483: L2-HR :0.79335: (Sim:0h14m52s) 
CPU  0 inst:  317000001 cyc:  188405045 now IPC :1.61510: AVG IPC :1.68068: L2-Pf-HR :0.80479: L2-HR :0.79331: (Sim:0h14m55s) 
CPU  0 inst:  318000003 cyc:  188992017 now IPC :1.70366: AVG IPC :1.68075: L2-Pf-HR :0.80476: L2-HR :0.79327: (Sim:0h14m59s) 
CPU  0 inst:  319000001 cyc:  189587299 now IPC :1.67987: AVG IPC :1.68075: L2-Pf-HR :0.80474: L2-HR :0.79324: (Sim:0h15m2s) 
CPU  0 inst:  320000000 cyc:  190180146 now IPC :1.68677: AVG IPC :1.68077: L2-Pf-HR :0.80471: L2-HR :0.79320: (Sim:0h15m5s) 
CPU  0 inst:  321000002 cyc:  190767183 now IPC :1.70347: AVG IPC :1.68084: L2-Pf-HR :0.80469: L2-HR :0.79318: (Sim:0h15m8s) 
CPU  0 inst:  322000002 cyc:  191365327 now IPC :1.67184: AVG IPC :1.68081: L2-Pf-HR :0.80467: L2-HR :0.79315: (Sim:0h15m11s) 
CPU  0 inst:  323000003 cyc:  191950640 now IPC :1.70849: AVG IPC :1.68089: L2-Pf-HR :0.80466: L2-HR :0.79313: (Sim:0h15m14s) 
CPU  0 inst:  324000000 cyc:  192550676 now IPC :1.66656: AVG IPC :1.68085: L2-Pf-HR :0.80462: L2-HR :0.79309: (Sim:0h15m17s) 
CPU  0 inst:  325000002 cyc:  193148130 now IPC :1.67377: AVG IPC :1.68083: L2-Pf-HR :0.80460: L2-HR :0.79306: (Sim:0h15m22s) 
CPU  0 inst:  326000003 cyc:  193737251 now IPC :1.69745: AVG IPC :1.68088: L2-Pf-HR :0.80458: L2-HR :0.79304: (Sim:0h15m26s) 
CPU  0 inst:  327000003 cyc:  194327130 now IPC :1.69526: AVG IPC :1.68092: L2-Pf-HR :0.80459: L2-HR :0.79304: (Sim:0h15m30s) 
CPU  0 inst:  328000000 cyc:  195136306 now IPC :1.23582: AVG IPC :1.67907: L2-Pf-HR :0.80449: L2-HR :0.79296: (Sim:0h15m35s) 
CPU  0 inst:  329000000 cyc:  195717305 now IPC :1.72117: AVG IPC :1.67919: L2-Pf-HR :0.80447: L2-HR :0.79295: (Sim:0h15m39s) 
CPU  0 inst:  330000003 cyc:  196285531 now IPC :1.75987: AVG IPC :1.67943: L2-Pf-HR :0.80446: L2-HR :0.79293: (Sim:0h15m44s) 
CPU  0 inst:  331000003 cyc:  196846892 now IPC :1.78138: AVG IPC :1.67972: L2-Pf-HR :0.80443: L2-HR :0.79291: (Sim:0h15m48s) 
CPU  0 inst:  332000000 cyc:  197421520 now IPC :1.74025: AVG IPC :1.67990: L2-Pf-HR :0.80442: L2-HR :0.79290: (Sim:0h15m52s) 
CPU  0 inst:  333000002 cyc:  197989899 now IPC :1.75939: AVG IPC :1.68013: L2-Pf-HR :0.80441: L2-HR :0.79290: (Sim:0h15m57s) 
CPU  0 inst:  334000002 cyc:  198557771 now IPC :1.76096: AVG IPC :1.68036: L2-Pf-HR :0.80440: L2-HR :0.79289: (Sim:0h16m1s) 
CPU  0 inst:  335000003 cyc:  199119548 now IPC :1.78007: AVG IPC :1.68064: L2-Pf-HR :0.80438: L2-HR :0.79288: (Sim:0h16m5s) 
CPU  0 inst:  336000000 cyc:  199684445 now IPC :1.77023: AVG IPC :1.68090: L2-Pf-HR :0.80435: L2-HR :0.79286: (Sim:0h16m10s) 
CPU  0 inst:  337000000 cyc:  200247411 now IPC :1.77631: AVG IPC :1.68117: L2-Pf-HR :0.80433: L2-HR :0.79284: (Sim:0h16m14s) 
CPU  0 inst:  338000000 cyc:  200808968 now IPC :1.78076: AVG IPC :1.68145: L2-Pf-HR :0.80431: L2-HR :0.79282: (Sim:0h16m18s) 
CPU  0 inst:  339000001 cyc:  201370461 now IPC :1.78097: AVG IPC :1.68172: L2-Pf-HR :0.80434: L2-HR :0.79285: (Sim:0h16m23s) 
CPU  0 inst:  340000000 cyc:  202072205 now IPC :1.42502: AVG IPC :1.68083: L2-Pf-HR :0.80432: L2-HR :0.79284: (Sim:0h16m27s) 
CPU  0 inst:  341000002 cyc:  202642288 now IPC :1.75413: AVG IPC :1.68104: L2-Pf-HR :0.80438: L2-HR :0.79290: (Sim:0h16m32s) 
CPU  0 inst:  342000002 cyc:  203209839 now IPC :1.76196: AVG IPC :1.68126: L2-Pf-HR :0.80441: L2-HR :0.79293: (Sim:0h16m36s) 
CPU  0 inst:  343000001 cyc:  203782310 now IPC :1.74681: AVG IPC :1.68145: L2-Pf-HR :0.80445: L2-HR :0.79297: (Sim:0h16m40s) 
CPU  0 inst:  344000000 cyc:  204349882 now IPC :1.76189: AVG IPC :1.68167: L2-Pf-HR :0.80447: L2-HR :0.79300: (Sim:0h16m45s) 
CPU  0 inst:  345000003 cyc:  204912737 now IPC :1.77666: AVG IPC :1.68193: L2-Pf-HR :0.80452: L2-HR :0.79304: (Sim:0h16m49s) 
CPU  0 inst:  346000000 cyc:  205470708 now IPC :1.79220: AVG IPC :1.68224: L2-Pf-HR :0.80469: L2-HR :0.79320: (Sim:0h16m54s) 
CPU  0 inst:  347000002 cyc:  206032271 now IPC :1.78075: AVG IPC :1.68251: L2-Pf-HR :0.80490: L2-HR :0.79340: (Sim:0h16m58s) 
CPU  0 inst:  348000000 cyc:  206845475 now IPC :1.22970: AVG IPC :1.68072: L2-Pf-HR :0.80483: L2-HR :0.79334: (Sim:0h17m3s) 
CPU  0 inst:  349000002 cyc:  207445886 now IPC :1.66553: AVG IPC :1.68067: L2-Pf-HR :0.80480: L2-HR :0.79330: (Sim:0h17m7s) 
CPU  0 inst:  350000001 cyc:  208045008 now IPC :1.66911: AVG IPC :1.68064: L2-Pf-HR :0.80477: L2-HR :0.79327: (Sim:0h17m12s) 
CPU  0 inst:  351000003 cyc:  208640945 now IPC :1.67803: AVG IPC :1.68063: L2-Pf-HR :0.80476: L2-HR :0.79324: (Sim:0h17m16s) 
CPU  0 inst:  352000000 cyc:  209237559 now IPC :1.67612: AVG IPC :1.68062: L2-Pf-HR :0.80472: L2-HR :0.79321: (Sim:0h17m20s) 
CPU  0 inst:  353000003 cyc:  209835225 now IPC :1.67318: AVG IPC :1.68060: L2-Pf-HR :0.80471: L2-HR :0.79319: (Sim:0h17m25s) 
CPU  0 inst:  354000003 cyc:  210427049 now IPC :1.68969: AVG IPC :1.68062: L2-Pf-HR :0.80469: L2-HR :0.79317: (Sim:0h17m29s) 
CPU  0 inst:  355000000 cyc:  211026142 now IPC :1.66918: AVG IPC :1.68059: L2-Pf-HR :0.80466: L2-HR :0.79313: (Sim:0h17m34s) 
CPU  0 inst:  356000000 cyc:  211629589 now IPC :1.65715: AVG IPC :1.68052: L2-Pf-HR :0.80463: L2-HR :0.79309: (Sim:0h17m38s) 
CPU  0 inst:  357000002 cyc:  212218564 now IPC :1.69787: AVG IPC :1.68057: L2-Pf-HR :0.80460: L2-HR :0.79307: (Sim:0h17m42s) 
CPU  0 inst:  358000002 cyc:  212810224 now IPC :1.69016: AVG IPC :1.68060: L2-Pf-HR :0.80459: L2-HR :0.79305: (Sim:0h17m47s) 
CPU  0 inst:  359000002 cyc:  213398271 now IPC :1.70054: AVG IPC :1.68065: L2-Pf-HR :0.80462: L2-HR :0.79307: (Sim:0h17m51s) 
CPU  0 inst:  360000000 cyc:  214213068 now IPC :1.22730: AVG IPC :1.67892: L2-Pf-HR :0.80448: L2-HR :0.79296: (Sim:0h17m56s) 
CPU  0 inst:  361000000 cyc:  214789102 now IPC :1.73601: AVG IPC :1.67907: L2-Pf-HR :0.80447: L2-HR :0.79295: (Sim:0h18m0s) 
CPU  0 inst:  362000002 cyc:  215362552 now IPC :1.74383: AVG IPC :1.67925: L2-Pf-HR :0.80445: L2-HR :0.79293: (Sim:0h18m4s) 
CPU  0 inst:  363000002 cyc:  215941065 now IPC :1.72857: AVG IPC :1.67938: L2-Pf-HR :0.80444: L2-HR :0.79292: (Sim:0h18m8s) 
CPU  0 inst:  364000000 cyc:  216512159 now IPC :1.75102: AVG IPC :1.67957: L2-Pf-HR :0.80442: L2-HR :0.79291: (Sim:0h18m12s) 
CPU  0 inst:  365000000 cyc:  217084416 now IPC :1.74747: AVG IPC :1.67975: L2-Pf-HR :0.80441: L2-HR :0.79290: (Sim:0h18m16s) 
CPU  0 inst:  366000001 cyc:  217654276 now IPC :1.75482: AVG IPC :1.67995: L2-Pf-HR :0.80440: L2-HR :0.79290: (Sim:0h18m21s) 
CPU  0 inst:  367000003 cyc:  218230519 now IPC :1.73538: AVG IPC :1.68009: L2-Pf-HR :0.80436: L2-HR :0.79287: (Sim:0h18m25s) 
CPU  0 inst:  368000000 cyc:  218799675 now IPC :1.75698: AVG IPC :1.68030: L2-Pf-HR :0.80434: L2-HR :0.79285: (Sim:0h18m30s) 
CPU  0 inst:  369000000 cyc:  219373698 now IPC :1.74209: AVG IPC :1.68046: L2-Pf-HR :0.80432: L2-HR :0.79283: (Sim:0h18m35s) 
CPU  0 inst:  370000001 cyc:  219935561 now IPC :1.77980: AVG IPC :1.68071: L2-Pf-HR :0.80432: L2-HR :0.79283: (Sim:0h18m39s) 
CPU  0 inst:  371000001 cyc:  220517930 now IPC :1.71712: AVG IPC :1.68081: L2-Pf-HR :0.80433: L2-HR :0.79284: (Sim:0h18m43s) 
CPU  0 inst:  372000000 cyc:  221204192 now IPC :1.45717: AVG IPC :1.68011: L2-Pf-HR :0.80434: L2-HR :0.79286: (Sim:0h18m47s) 
CPU  0 inst:  373000003 cyc:  221772990 now IPC :1.75810: AVG IPC :1.68031: L2-Pf-HR :0.80439: L2-HR :0.79291: (Sim:0h18m50s) 
CPU  0 inst:  374000001 cyc:  222338980 now IPC :1.76681: AVG IPC :1.68053: L2-Pf-HR :0.80443: L2-HR :0.79294: (Sim:0h18m53s) 
CPU  0 inst:  375000001 cyc:  222907971 now IPC :1.75750: AVG IPC :1.68073: L2-Pf-HR :0.80446: L2-HR :0.79298: (Sim:0h18m57s) 
CPU  0 inst:  376000000 cyc:  223475491 now IPC :1.76205: AVG IPC :1.68094: L2-Pf-HR :0.80449: L2-HR :0.79301: (Sim:0h19m2s) 
CPU  0 inst:  377000002 cyc:  224038055 now IPC :1.77758: AVG IPC :1.68118: L2-Pf-HR :0.80459: L2-HR :0.79311: (Sim:0h19m6s) 
CPU  0 inst:  378000002 cyc:  224598558 now IPC :1.78411: AVG IPC :1.68144: L2-Pf-HR :0.80475: L2-HR :0.79325: (Sim:0h19m10s) 
CPU  0 inst:  379000000 cyc:  225341511 now IPC :1.34598: AVG IPC :1.68033: L2-Pf-HR :0.80482: L2-HR :0.79333: (Sim:0h19m15s) 
CPU  0 inst:  380000000 cyc:  225984761 now IPC :1.55461: AVG IPC :1.67997: L2-Pf-HR :0.80480: L2-HR :0.79331: (Sim:0h19m19s) 
CPU  0 inst:  381000003 cyc:  226580575 now IPC :1.67838: AVG IPC :1.67997: L2-Pf-HR :0.80477: L2-HR :0.79327: (Sim:0h19m22s) 
CPU  0 inst:  382000000 cyc:  227169849 now IPC :1.69700: AVG IPC :1.68001: L2-Pf-HR :0.80475: L2-HR :0.79324: (Sim:0h19m25s) 
CPU  0 inst:  383000000 cyc:  227754668 now IPC :1.70993: AVG IPC :1.68009: L2-Pf-HR :0.80472: L2-HR :0.79321: (Sim:0h19m28s) 
CPU  0 inst:  384000000 cyc:  228347266 now IPC :1.68748: AVG IPC :1.68011: L2-Pf-HR :0.80470: L2-HR :0.79318: (Sim:0h19m31s) 
CPU  0 inst:  385000003 cyc:  228928582 now IPC :1.72024: AVG IPC :1.68021: L2-Pf-HR :0.80468: L2-HR :0.79316: (Sim:0h19m34s) 
CPU  0 inst:  386000002 cyc:  229523161 now IPC :1.68186: AVG IPC :1.68021: L2-Pf-HR :0.80466: L2-HR :0.79313: (Sim:0h19m38s) 
CPU  0 inst:  387000002 cyc:  230121752 now IPC :1.67059: AVG IPC :1.68019: L2-Pf-HR :0.80462: L2-HR :0.79309: (Sim:0h19m42s) 
CPU  0 inst:  388000000 cyc:  230702710 now IPC :1.72129: AVG IPC :1.68029: L2-Pf-HR :0.80460: L2-HR :0.79307: (Sim:0h19m47s) 
CPU  0 inst:  389000002 cyc:  231284987 now IPC :1.71740: AVG IPC :1.68039: L2-Pf-HR :0.80459: L2-HR :0.79305: (Sim:0h19m50s) 
CPU  0 inst:  390000001 cyc:  231865937 now IPC :1.72132: AVG IPC :1.68049: L2-Pf-HR :0.80458: L2-HR :0.79304: (Sim:0h19m53s) 
CPU  0 inst:  391000001 cyc:  232649259 now IPC :1.27661: AVG IPC :1.67912: L2-Pf-HR :0.80450: L2-HR :0.79297: (Sim:0h19m57s) 
CPU  0 inst:  392000000 cyc:  233261675 now IPC :1.63288: AVG IPC :1.67900: L2-Pf-HR :0.80447: L2-HR :0.79295: (Sim:0h20m1s) 
CPU  0 inst:  393000003 cyc:  233836380 now IPC :1.74003: AVG IPC :1.67915: L2-Pf-HR :0.80445: L2-HR :0.79293: (Sim:0h20m4s) 
CPU  0 inst:  394000001 cyc:  234412919 now IPC :1.73448: AVG IPC :1.67929: L2-Pf-HR :0.80444: L2-HR :0.79292: (Sim:0h20m9s) 
CPU  0 inst:  395000001 cyc:  234991107 now IPC :1.72954: AVG IPC :1.67941: L2-Pf-HR :0.80442: L2-HR :0.79291: (Sim:0h20m13s) 
CPU  0 inst:  396000000 cyc:  235568557 now IPC :1.73175: AVG IPC :1.67954: L2-Pf-HR :0.80441: L2-HR :0.79290: (Sim:0h20m18s) 
CPU  0 inst:  397000003 cyc:  236144676 now IPC :1.73576: AVG IPC :1.67968: L2-Pf-HR :0.80440: L2-HR :0.79289: (Sim:0h20m22s) 
CPU  0 inst:  398000001 cyc:  236715310 now IPC :1.75243: AVG IPC :1.67986: L2-Pf-HR :0.80438: L2-HR :0.79288: (Sim:0h20m26s) 
CPU  0 inst:  399000000 cyc:  237283865 now IPC :1.75884: AVG IPC :1.68005: L2-Pf-HR :0.80435: L2-HR :0.79285: (Sim:0h20m29s) 
CPU  0 inst:  400000000 cyc:  237853045 now IPC :1.75691: AVG IPC :1.68023: L2-Pf-HR :0.80434: L2-HR :0.79284: (Sim:0h20m32s) 
CPU  0 inst:  401000001 cyc:  238425426 now IPC :1.74709: AVG IPC :1.68039: L2-Pf-HR :0.80433: L2-HR :0.79283: (Sim:0h20m35s) 
CPU  0 inst:  402000000 cyc:  238990692 now IPC :1.76908: AVG IPC :1.68060: L2-Pf-HR :0.80434: L2-HR :0.79284: (Sim:0h20m39s) 
CPU  0 inst:  403000002 cyc:  239685088 now IPC :1.44010: AVG IPC :1.67990: L2-Pf-HR :0.80431: L2-HR :0.79283: (Sim:0h20m42s) 
CPU  0 inst:  404000000 cyc:  240255197 now IPC :1.75405: AVG IPC :1.68008: L2-Pf-HR :0.80437: L2-HR :0.79289: (Sim:0h20m46s) 
CPU  0 inst:  405000003 cyc:  240821596 now IPC :1.76555: AVG IPC :1.68028: L2-Pf-HR :0.80440: L2-HR :0.79291: (Sim:0h20m51s) 
CPU  0 inst:  406000001 cyc:  241391282 now IPC :1.75535: AVG IPC :1.68046: L2-Pf-HR :0.80443: L2-HR :0.79295: (Sim:0h20m55s) 
CPU  0 inst:  407000000 cyc:  241954571 now IPC :1.77529: AVG IPC :1.68068: L2-Pf-HR :0.80447: L2-HR :0.79299: (Sim:0h20m59s) 
CPU  0 inst:  408000000 cyc:  242520541 now IPC :1.76688: AVG IPC :1.68088: L2-Pf-HR :0.80451: L2-HR :0.79302: (Sim:0h21m4s) 
CPU  0 inst:  409000000 cyc:  243082368 now IPC :1.77991: AVG IPC :1.68111: L2-Pf-HR :0.80463: L2-HR :0.79314: (Sim:0h21m8s) 
CPU  0 inst:  410000003 cyc:  243638476 now IPC :1.79822: AVG IPC :1.68138: L2-Pf-HR :0.80481: L2-HR :0.79331: (Sim:0h21m13s) 
CPU  0 inst:  411000000 cyc:  244443417 now IPC :1.24232: AVG IPC :1.67993: L2-Pf-HR :0.80478: L2-HR :0.79328: (Sim:0h21m17s) 
CPU  0 inst:  412000000 cyc:  245051727 now IPC :1.64390: AVG IPC :1.67984: L2-Pf-HR :0.80476: L2-HR :0.79326: (Sim:0h21m22s) 
CPU  0 inst:  413000001 cyc:  245658140 now IPC :1.64904: AVG IPC :1.67976: L2-Pf-HR :0.80474: L2-HR :0.79323: (Sim:0h21m26s) 
CPU  0 inst:  414000001 cyc:  246254836 now IPC :1.67590: AVG IPC :1.67975: L2-Pf-HR :0.80471: L2-HR :0.79320: (Sim:0h21m31s) 
CPU  0 inst:  415000003 cyc:  246856078 now IPC :1.66323: AVG IPC :1.67971: L2-Pf-HR :0.80468: L2-HR :0.79317: (Sim:0h21m35s) 
CPU  0 inst:  416000000 cyc:  247450889 now IPC :1.68120: AVG IPC :1.67972: L2-Pf-HR :0.80467: L2-HR :0.79315: (Sim:0h21m40s) 
CPU  0 inst:  417000003 cyc:  248055972 now IPC :1.65267: AVG IPC :1.67965: L2-Pf-HR :0.80466: L2-HR :0.79313: (Sim:0h21m44s) 
CPU  0 inst:  418000001 cyc:  248658006 now IPC :1.66103: AVG IPC :1.67961: L2-Pf-HR :0.80463: L2-HR :0.79310: (Sim:0h21m48s) 
CPU  0 inst:  419000001 cyc:  249251246 now IPC :1.68566: AVG IPC :1.67962: L2-Pf-HR :0.80461: L2-HR :0.79308: (Sim:0h21m51s) 
CPU  0 inst:  420000000 cyc:  249847217 now IPC :1.67793: AVG IPC :1.67962: L2-Pf-HR :0.80459: L2-HR :0.79306: (Sim:0h21m56s) 
CPU  0 inst:  421000000 cyc:  250447251 now IPC :1.66657: AVG IPC :1.67959: L2-Pf-HR :0.80458: L2-HR :0.79304: (Sim:0h22m0s) 
CPU  0 inst:  422000000 cyc:  251051215 now IPC :1.65573: AVG IPC :1.67953: L2-Pf-HR :0.80460: L2-HR :0.79305: (Sim:0h22m5s) 
CPU  0 inst:  423000001 cyc:  251866585 now IPC :1.22644: AVG IPC :1.67806: L2-Pf-HR :0.80450: L2-HR :0.79297: (Sim:0h22m8s) 
CPU  0 inst:  424000000 cyc:  252444863 now IPC :1.72927: AVG IPC :1.67817: L2-Pf-HR :0.80449: L2-HR :0.79297: (Sim:0h22m12s) 
CPU  0 inst:  425000001 cyc:  253022589 now IPC :1.73093: AVG IPC :1.67829: L2-Pf-HR :0.80448: L2-HR :0.79296: (Sim:0h22m17s) 
CPU  0 inst:  426000003 cyc:  253598830 now IPC :1.73539: AVG IPC :1.67842: L2-Pf-HR :0.80447: L2-HR :0.79294: (Sim:0h22m21s) 
CPU  0 inst:  427000003 cyc:  254173616 now IPC :1.73978: AVG IPC :1.67856: L2-Pf-HR :0.80445: L2-HR :0.79293: (Sim:0h22m26s) 
CPU  0 inst:  428000000 cyc:  254747912 now IPC :1.74126: AVG IPC :1.67871: L2-Pf-HR :0.80444: L2-HR :0.79293: (Sim:0h22m30s) 
CPU  0 inst:  429000000 cyc:  255323812 now IPC :1.73641: AVG IPC :1.67884: L2-Pf-HR :0.80443: L2-HR :0.79292: (Sim:0h22m34s) 
CPU  0 inst:  430000003 cyc:  255892662 now IPC :1.75794: AVG IPC :1.67901: L2-Pf-HR :0.80441: L2-HR :0.79291: (Sim:0h22m39s) 
CPU  0 inst:  431000001 cyc:  256464683 now IPC :1.74818: AVG IPC :1.67917: L2-Pf-HR :0.80440: L2-HR :0.79290: (Sim:0h22m43s) 
CPU  0 inst:  432000000 cyc:  257037008 now IPC :1.74726: AVG IPC :1.67932: L2-Pf-HR :0.80438: L2-HR :0.79288: (Sim:0h22m47s) 
CPU  0 inst:  433000003 cyc:  257610181 now IPC :1.74468: AVG IPC :1.67947: L2-Pf-HR :0.80438: L2-HR :0.79288: (Sim:0h22m51s) 
CPU  0 inst:  434000003 cyc:  258182503 now IPC :1.74727: AVG IPC :1.67962: L2-Pf-HR :0.80441: L2-HR :0.79290: (Sim:0h22m56s) 
CPU  0 inst:  435000003 cyc:  258878486 now IPC :1.43682: AVG IPC :1.67896: L2-Pf-HR :0.80439: L2-HR :0.79290: (Sim:0h23m0s) 
CPU  0 inst:  436000000 cyc:  259441422 now IPC :1.77640: AVG IPC :1.67917: L2-Pf-HR :0.80444: L2-HR :0.79295: (Sim:0h23m5s) 
CPU  0 inst:  437000003 cyc:  260008359 now IPC :1.76387: AVG IPC :1.67936: L2-Pf-HR :0.80447: L2-HR :0.79298: (Sim:0h23m9s) 
CPU  0 inst:  438000000 cyc:  260577306 now IPC :1.75763: AVG IPC :1.67953: L2-Pf-HR :0.80451: L2-HR :0.79302: (Sim:0h23m14s) 
CPU  0 inst:  439000003 cyc:  261136387 now IPC :1.78865: AVG IPC :1.67976: L2-Pf-HR :0.80454: L2-HR :0.79306: (Sim:0h23m18s) 
CPU  0 inst:  440000000 cyc:  261697837 now IPC :1.78110: AVG IPC :1.67998: L2-Pf-HR :0.80462: L2-HR :0.79313: (Sim:0h23m22s) 
CPU  0 inst:  441000000 cyc:  262257138 now IPC :1.78795: AVG IPC :1.68021: L2-Pf-HR :0.80475: L2-HR :0.79325: (Sim:0h23m26s) 
CPU  0 inst:  442000001 cyc:  262877524 now IPC :1.61190: AVG IPC :1.68005: L2-Pf-HR :0.80488: L2-HR :0.79337: (Sim:0h23m29s) 
CPU  0 inst:  443000000 cyc:  263638276 now IPC :1.31449: AVG IPC :1.67899: L2-Pf-HR :0.80482: L2-HR :0.79331: (Sim:0h23m32s) 
CPU  0 inst:  444000000 cyc:  264236733 now IPC :1.67096: AVG IPC :1.67898: L2-Pf-HR :0.80479: L2-HR :0.79328: (Sim:0h23m35s) 
CPU  0 inst:  445000000 cyc:  264828472 now IPC :1.68993: AVG IPC :1.67900: L2-Pf-HR :0.80478: L2-HR :0.79326: (Sim:0h23m39s) 
CPU  0 inst:  446000003 cyc:  265422207 now IPC :1.68426: AVG IPC :1.67901: L2-Pf-HR :0.80476: L2-HR :0.79324: (Sim:0h23m43s) 
CPU  0 inst:  447000002 cyc:  266009328 now IPC :1.70322: AVG IPC :1.67907: L2-Pf-HR :0.80474: L2-HR :0.79322: (Sim:0h23m47s) 
CPU  0 inst:  448000000 cyc:  266616181 now IPC :1.64784: AVG IPC :1.67899: L2-Pf-HR :0.80472: L2-HR :0.79320: (Sim:0h23m52s) 
CPU  0 inst:  449000002 cyc:  267212717 now IPC :1.67635: AVG IPC :1.67899: L2-Pf-HR :0.80471: L2-HR :0.79318: (Sim:0h23m56s) 
CPU  0 inst:  450000001 cyc:  267795388 now IPC :1.71623: AVG IPC :1.67907: L2-Pf-HR :0.80469: L2-HR :0.79315: (Sim:0h24m1s) 
CPU  0 inst:  451000000 cyc:  268392287 now IPC :1.67532: AVG IPC :1.67906: L2-Pf-HR :0.80467: L2-HR :0.79313: (Sim:0h24m5s) 
CPU  0 inst:  452000000 cyc:  268978314 now IPC :1.70641: AVG IPC :1.67912: L2-Pf-HR :0.80464: L2-HR :0.79311: (Sim:0h24m9s) 
CPU  0 inst:  453000002 cyc:  269571022 now IPC :1.68717: AVG IPC :1.67914: L2-Pf-HR :0.80463: L2-HR :0.79309: (Sim:0h24m12s) 
CPU  0 inst:  454000000 cyc:  270318354 now IPC :1.33809: AVG IPC :1.67819: L2-Pf-HR :0.80458: L2-HR :0.79305: (Sim:0h24m15s) 
CPU  0 inst:  455000003 cyc:  270966716 now IPC :1.54235: AVG IPC :1.67787: L2-Pf-HR :0.80456: L2-HR :0.79303: (Sim:0h24m19s) 
CPU  0 inst:  456000000 cyc:  271547718 now IPC :1.72116: AVG IPC :1.67796: L2-Pf-HR :0.80455: L2-HR :0.79302: (Sim:0h24m23s) 
CPU  0 inst:  457000001 cyc:  272126595 now IPC :1.72748: AVG IPC :1.67806: L2-Pf-HR :0.80453: L2-HR :0.79300: (Sim:0h24m28s) 
CPU  0 inst:  458000001 cyc:  272705029 now IPC :1.72881: AVG IPC :1.67817: L2-Pf-HR :0.80451: L2-HR :0.79299: (Sim:0h24m32s) 
CPU  0 inst:  459000003 cyc:  273279826 now IPC :1.73975: AVG IPC :1.67830: L2-Pf-HR :0.80449: L2-HR :0.79298: (Sim:0h24m35s) 
CPU  0 inst:  460000000 cyc:  273857794 now IPC :1.73019: AVG IPC :1.67841: L2-Pf-HR :0.80448: L2-HR :0.79297: (Sim:0h24m38s) 
CPU  0 inst:  461000000 cyc:  274432668 now IPC :1.73951: AVG IPC :1.67854: L2-Pf-HR :0.80447: L2-HR :0.79296: (Sim:0h24m41s) 
CPU  0 inst:  462000000 cyc:  275006337 now IPC :1.74317: AVG IPC :1.67868: L2-Pf-HR :0.80445: L2-HR :0.79294: (Sim:0h24m45s) 
CPU  0 inst:  463000003 cyc:  275581078 now IPC :1.73992: AVG IPC :1.67880: L2-Pf-HR :0.80443: L2-HR :0.79293: (Sim:0h24m49s) 
CPU  0 inst:  464000000 cyc:  276149004 now IPC :1.76079: AVG IPC :1.67897: L2-Pf-HR :0.80441: L2-HR :0.79291: (Sim:0h24m53s) 
CPU  0 inst:  465000001 cyc:  276717490 now IPC :1.75906: AVG IPC :1.67914: L2-Pf-HR :0.80442: L2-HR :0.79292: (Sim:0h24m57s) 
CPU  0 inst:  466000001 cyc:  277417559 now IPC :1.42843: AVG IPC :1.67850: L2-Pf-HR :0.80439: L2-HR :0.79290: (Sim:0h25m2s) 
CPU  0 inst:  467000001 cyc:  277993977 now IPC :1.73485: AVG IPC :1.67862: L2-Pf-HR :0.80444: L2-HR :0.79295: (Sim:0h25m6s) 
CPU  0 inst:  468000000 cyc:  278557850 now IPC :1.77345: AVG IPC :1.67881: L2-Pf-HR :0.80448: L2-HR :0.79298: (Sim:0h25m10s) 
CPU  0 inst:  469000000 cyc:  279125584 now IPC :1.76139: AVG IPC :1.67898: L2-Pf-HR :0.80450: L2-HR :0.79301: (Sim:0h25m15s) 
CPU  0 inst:  470000002 cyc:  279697010 now IPC :1.75001: AVG IPC :1.67913: L2-Pf-HR :0.80452: L2-HR :0.79303: (Sim:0h25m19s) 
CPU  0 inst:  471000002 cyc:  280265527 now IPC :1.75896: AVG IPC :1.67929: L2-Pf-HR :0.80454: L2-HR :0.79306: (Sim:0h25m23s) 
CPU  0 inst:  472000000 cyc:  280821526 now IPC :1.79856: AVG IPC :1.67953: L2-Pf-HR :0.80464: L2-HR :0.79315: (Sim:0h25m28s) 
CPU  0 inst:  473000003 cyc:  281378317 now IPC :1.79601: AVG IPC :1.67976: L2-Pf-HR :0.80478: L2-HR :0.79328: (Sim:0h25m32s) 
CPU  0 inst:  474000003 cyc:  282178096 now IPC :1.25035: AVG IPC :1.67854: L2-Pf-HR :0.80478: L2-HR :0.79328: (Sim:0h25m35s) 
CPU  0 inst:  475000002 cyc:  282784974 now IPC :1.64778: AVG IPC :1.67847: L2-Pf-HR :0.80476: L2-HR :0.79326: (Sim:0h25m38s) 
CPU  0 inst:  476000000 cyc:  283373218 now IPC :1.69997: AVG IPC :1.67852: L2-Pf-HR :0.80474: L2-HR :0.79323: (Sim:0h25m41s) 
CPU  0 inst:  477000001 cyc:  283969870 now IPC :1.67602: AVG IPC :1.67851: L2-Pf-HR :0.80472: L2-HR :0.79321: (Sim:0h25m45s) 
CPU  0 inst:  478000001 cyc:  284568931 now IPC :1.66928: AVG IPC :1.67849: L2-Pf-HR :0.80470: L2-HR :0.79318: (Sim:0h25m49s) 
CPU  0 inst:  479000003 cyc:  285168810 now IPC :1.66701: AVG IPC :1.67847: L2-Pf-HR :0.80469: L2-HR :0.79317: (Sim:0h25m53s) 
CPU  0 inst:  480000000 cyc:  285774254 now IPC :1.65168: AVG IPC :1.67841: L2-Pf-HR :0.80467: L2-HR :0.79315: (Sim:0h25m58s) 
CPU  0 inst:  481000003 cyc:  286363562 now IPC :1.69691: AVG IPC :1.67845: L2-Pf-HR :0.80465: L2-HR :0.79313: (Sim:0h26m2s) 
CPU  0 inst:  482000002 cyc:  286964234 now IPC :1.66480: AVG IPC :1.67842: L2-Pf-HR :0.80462: L2-HR :0.79309: (Sim:0h26m6s) 
CPU  0 inst:  483000001 cyc:  287561869 now IPC :1.67326: AVG IPC :1.67841: L2-Pf-HR :0.80461: L2-HR :0.79308: (Sim:0h26m11s) 
CPU  0 inst:  484000000 cyc:  288163013 now IPC :1.66349: AVG IPC :1.67838: L2-Pf-HR :0.80460: L2-HR :0.79306: (Sim:0h26m15s) 
CPU  0 inst:  485000000 cyc:  288765694 now IPC :1.65925: AVG IPC :1.67834: L2-Pf-HR :0.80461: L2-HR :0.79307: (Sim:0h26m20s) 
CPU  0 inst:  486000001 cyc:  289577603 now IPC :1.23167: AVG IPC :1.67708: L2-Pf-HR :0.80453: L2-HR :0.79300: (Sim:0h26m24s) 
CPU  0 inst:  487000001 cyc:  290162065 now IPC :1.71098: AVG IPC :1.67715: L2-Pf-HR :0.80452: L2-HR :0.79300: (Sim:0h26m28s) 
CPU  0 inst:  488000000 cyc:  290743307 now IPC :1.72045: AVG IPC :1.67724: L2-Pf-HR :0.80451: L2-HR :0.79299: (Sim:0h26m32s) 
CPU  0 inst:  489000002 cyc:  291321728 now IPC :1.72885: AVG IPC :1.67734: L2-Pf-HR :0.80450: L2-HR :0.79298: (Sim:0h26m36s) 
CPU  0 inst:  490000001 cyc:  291904600 now IPC :1.71564: AVG IPC :1.67742: L2-Pf-HR :0.80448: L2-HR :0.79297: (Sim:0h26m39s) 
CPU  0 inst:  491000000 cyc:  292489582 now IPC :1.70945: AVG IPC :1.67748: L2-Pf-HR :0.80447: L2-HR :0.79296: (Sim:0h26m42s) 
CPU  0 inst:  492000000 cyc:  293069735 now IPC :1.72368: AVG IPC :1.67757: L2-Pf-HR :0.80446: L2-HR :0.79295: (Sim:0h26m46s) 
CPU  0 inst:  493000000 cyc:  293649704 now IPC :1.72423: AVG IPC :1.67766: L2-Pf-HR :0.80444: L2-HR :0.79294: (Sim:0h26m50s) 
CPU  0 inst:  494000000 cyc:  294229663 now IPC :1.72426: AVG IPC :1.67776: L2-Pf-HR :0.80441: L2-HR :0.79291: (Sim:0h26m55s) 
CPU  0 inst:  495000002 cyc:  294805197 now IPC :1.73752: AVG IPC :1.67787: L2-Pf-HR :0.80440: L2-HR :0.79291: (Sim:0h26m59s) 
CPU  0 inst:  496000000 cyc:  295377186 now IPC :1.74828: AVG IPC :1.67801: L2-Pf-HR :0.80440: L2-HR :0.79290: (Sim:0h27m2s) 
CPU  0 inst:  497000003 cyc:  295950066 now IPC :1.74557: AVG IPC :1.67814: L2-Pf-HR :0.80443: L2-HR :0.79293: (Sim:0h27m6s) 
CPU  0 inst:  498000001 cyc:  296658355 now IPC :1.41185: AVG IPC :1.67750: L2-Pf-HR :0.80441: L2-HR :0.79291: (Sim:0h27m11s) 
CPU  0 inst:  499000000 cyc:  297226976 now IPC :1.75864: AVG IPC :1.67766: L2-Pf-HR :0.80445: L2-HR :0.79296: (Sim:0h27m15s) 
CPU  0 inst:  500000000 cyc:  297796270 now IPC :1.75656: AVG IPC :1.67781: L2-Pf-HR :0.80447: L2-HR :0.79298: (Sim:0h27m19s) 
CPU  0 inst:  501000000 cyc:  298364963 now IPC :1.75842: AVG IPC :1.67796: L2-Pf-HR :0.80450: L2-HR :0.79301: (Sim:0h27m24s) 
CPU  0 inst:  502000003 cyc:  298928925 now IPC :1.77317: AVG IPC :1.67814: L2-Pf-HR :0.80453: L2-HR :0.79304: (Sim:0h27m28s) 
CPU  0 inst:  503000000 cyc:  299495313 now IPC :1.76557: AVG IPC :1.67831: L2-Pf-HR :0.80459: L2-HR :0.79309: (Sim:0h27m33s) 
CPU  0 inst:  504000000 cyc:  300053123 now IPC :1.79273: AVG IPC :1.67852: L2-Pf-HR :0.80471: L2-HR :0.79321: (Sim:0h27m37s) 
CPU  0 inst:  505000000 cyc:  300607857 now IPC :1.80267: AVG IPC :1.67875: L2-Pf-HR :0.80487: L2-HR :0.79335: (Sim:0h27m42s) 
CPU  0 inst:  506000003 cyc:  301430129 now IPC :1.21615: AVG IPC :1.67749: L2-Pf-HR :0.80478: L2-HR :0.79328: (Sim:0h27m47s) 
CPU  0 inst:  507000000 cyc:  302016532 now IPC :1.70531: AVG IPC :1.67754: L2-Pf-HR :0.80476: L2-HR :0.79326: (Sim:0h27m52s) 
CPU  0 inst:  508000000 cyc:  302608312 now IPC :1.68982: AVG IPC :1.67757: L2-Pf-HR :0.80474: L2-HR :0.79323: (Sim:0h27m56s) 
CPU  0 inst:  509000003 cyc:  303193444 now IPC :1.70902: AVG IPC :1.67763: L2-Pf-HR :0.80472: L2-HR :0.79321: (Sim:0h28m1s) 
CPU  0 inst:  510000000 cyc:  303785138 now IPC :1.69006: AVG IPC :1.67765: L2-Pf-HR :0.80470: L2-HR :0.79319: (Sim:0h28m5s) 
CPU  0 inst:  511000001 cyc:  304379831 now IPC :1.68154: AVG IPC :1.67766: L2-Pf-HR :0.80469: L2-HR :0.79317: (Sim:0h28m8s) 
CPU  0 inst:  512000000 cyc:  304956209 now IPC :1.73497: AVG IPC :1.67777: L2-Pf-HR :0.80468: L2-HR :0.79316: (Sim:0h28m12s) 
CPU  0 inst:  513000001 cyc:  305542963 now IPC :1.70429: AVG IPC :1.67782: L2-Pf-HR :0.80466: L2-HR :0.79313: (Sim:0h28m15s) 
CPU  0 inst:  514000001 cyc:  306129882 now IPC :1.70381: AVG IPC :1.67787: L2-Pf-HR :0.80464: L2-HR :0.79311: (Sim:0h28m19s) 
CPU  0 inst:  515000002 cyc:  306719046 now IPC :1.69732: AVG IPC :1.67791: L2-Pf-HR :0.80462: L2-HR :0.79309: (Sim:0h28m24s) 
CPU  0 inst:  516000000 cyc:  307315722 now IPC :1.67595: AVG IPC :1.67790: L2-Pf-HR :0.80462: L2-HR :0.79308: (Sim:0h28m28s) 
CPU  0 inst:  517000001 cyc:  307909334 now IPC :1.68460: AVG IPC :1.67792: L2-Pf-HR :0.80463: L2-HR :0.79309: (Sim:0h28m32s) 
CPU  0 inst:  518000003 cyc:  308707128 now IPC :1.25346: AVG IPC :1.67682: L2-Pf-HR :0.80456: L2-HR :0.79304: (Sim:0h28m37s) 
CPU  0 inst:  519000003 cyc:  309279292 now IPC :1.74775: AVG IPC :1.67695: L2-Pf-HR :0.80454: L2-HR :0.79302: (Sim:0h28m42s) 
CPU  0 inst:  520000000 cyc:  309848516 now IPC :1.75677: AVG IPC :1.67709: L2-Pf-HR :0.80453: L2-HR :0.79301: (Sim:0h28m46s) 
CPU  0 inst:  521000003 cyc:  310421638 now IPC :1.74483: AVG IPC :1.67722: L2-Pf-HR :0.80451: L2-HR :0.79300: (Sim:0h28m51s) 
CPU  0 inst:  522000000 cyc:  310996037 now IPC :1.74094: AVG IPC :1.67734: L2-Pf-HR :0.80450: L2-HR :0.79299: (Sim:0h28m55s) 
CPU  0 inst:  523000002 cyc:  311571782 now IPC :1.73688: AVG IPC :1.67745: L2-Pf-HR :0.80449: L2-HR :0.79298: (Sim:0h28m59s) 
CPU  0 inst:  524000000 cyc:  312147984 now IPC :1.73550: AVG IPC :1.67756: L2-Pf-HR :0.80448: L2-HR :0.79297: (Sim:0h29m3s) 
CPU  0 inst:  525000001 cyc:  312715255 now IPC :1.76283: AVG IPC :1.67771: L2-Pf-HR :0.80446: L2-HR :0.79296: (Sim:0h29m8s) 
CPU  0 inst:  526000002 cyc:  313278217 now IPC :1.77632: AVG IPC :1.67789: L2-Pf-HR :0.80445: L2-HR :0.79295: (Sim:0h29m12s) 
CPU  0 inst:  527000001 cyc:  313844096 now IPC :1.76716: AVG IPC :1.67805: L2-Pf-HR :0.80443: L2-HR :0.79293: (Sim:0h29m16s) 
CPU  0 inst:  528000000 cyc:  314406944 now IPC :1.77668: AVG IPC :1.67823: L2-Pf-HR :0.80443: L2-HR :0.79294: (Sim:0h29m19s) 
CPU  0 inst:  529000003 cyc:  315092146 now IPC :1.45943: AVG IPC :1.67775: L2-Pf-HR :0.80440: L2-HR :0.79291: (Sim:0h29m23s) 
CPU  0 inst:  530000003 cyc:  315677585 now IPC :1.70812: AVG IPC :1.67781: L2-Pf-HR :0.80445: L2-HR :0.79295: (Sim:0h29m26s) 
CPU  0 inst:  531000002 cyc:  316241885 now IPC :1.77211: AVG IPC :1.67797: L2-Pf-HR :0.80447: L2-HR :0.79298: (Sim:0h29m31s) 
CPU  0 inst:  532000000 cyc:  316810692 now IPC :1.75806: AVG IPC :1.67812: L2-Pf-HR :0.80450: L2-HR :0.79301: (Sim:0h29m35s) 
CPU  0 inst:  533000000 cyc:  317378214 now IPC :1.76205: AVG IPC :1.67827: L2-Pf-HR :0.80452: L2-HR :0.79303: (Sim:0h29m39s) 
CPU  0 inst:  534000000 cyc:  317940037 now IPC :1.77992: AVG IPC :1.67845: L2-Pf-HR :0.80455: L2-HR :0.79306: (Sim:0h29m44s) 
CPU  0 inst:  535000003 cyc:  318499312 now IPC :1.78803: AVG IPC :1.67864: L2-Pf-HR :0.80463: L2-HR :0.79314: (Sim:0h29m48s) 
CPU  0 inst:  536000000 cyc:  319058125 now IPC :1.78950: AVG IPC :1.67884: L2-Pf-HR :0.80476: L2-HR :0.79326: (Sim:0h29m52s) 
CPU  0 inst:  537000002 cyc:  319839767 now IPC :1.27936: AVG IPC :1.67786: L2-Pf-HR :0.80478: L2-HR :0.79329: (Sim:0h29m57s) 
CPU  0 inst:  538000000 cyc:  320450020 now IPC :1.63866: AVG IPC :1.67778: L2-Pf-HR :0.80477: L2-HR :0.79326: (Sim:0h30m2s) 
CPU  0 inst:  539000002 cyc:  321046532 now IPC :1.67642: AVG IPC :1.67778: L2-Pf-HR :0.80475: L2-HR :0.79324: (Sim:0h30m6s) 
CPU  0 inst:  540000000 cyc:  321646955 now IPC :1.66549: AVG IPC :1.67776: L2-Pf-HR :0.80474: L2-HR :0.79323: (Sim:0h30m11s) 
CPU  0 inst:  541000003 cyc:  322255202 now IPC :1.64407: AVG IPC :1.67769: L2-Pf-HR :0.80472: L2-HR :0.79321: (Sim:0h30m15s) 
CPU  0 inst:  542000000 cyc:  322848579 now IPC :1.68526: AVG IPC :1.67771: L2-Pf-HR :0.80471: L2-HR :0.79319: (Sim:0h30m19s) 
CPU  0 inst:  543000003 cyc:  323445443 now IPC :1.67543: AVG IPC :1.67770: L2-Pf-HR :0.80469: L2-HR :0.79317: (Sim:0h30m24s) 
CPU  0 inst:  544000000 cyc:  324048197 now IPC :1.65905: AVG IPC :1.67767: L2-Pf-HR :0.80468: L2-HR :0.79315: (Sim:0h30m28s) 
CPU  0 inst:  545000003 cyc:  324636686 now IPC :1.69927: AVG IPC :1.67771: L2-Pf-HR :0.80465: L2-HR :0.79313: (Sim:0h30m32s) 
CPU  0 inst:  546000000 cyc:  325240821 now IPC :1.65525: AVG IPC :1.67767: L2-Pf-HR :0.80463: L2-HR :0.79311: (Sim:0h30m36s) 
CPU  0 inst:  547000000 cyc:  325841404 now IPC :1.66505: AVG IPC :1.67764: L2-Pf-HR :0.80462: L2-HR :0.79309: (Sim:0h30m40s) 
CPU  0 inst:  548000000 cyc:  326431794 now IPC :1.69380: AVG IPC :1.67767: L2-Pf-HR :0.80462: L2-HR :0.79309: (Sim:0h30m43s) 
CPU  0 inst:  549000000 cyc:  327245680 now IPC :1.22867: AVG IPC :1.67655: L2-Pf-HR :0.80456: L2-HR :0.79304: (Sim:0h30m47s) 
CPU  0 inst:  550000001 cyc:  327823313 now IPC :1.73120: AVG IPC :1.67665: L2-Pf-HR :0.80455: L2-HR :0.79303: (Sim:0h30m52s) 
CPU  0 inst:  551000003 cyc:  328390391 now IPC :1.76343: AVG IPC :1.67680: L2-Pf-HR :0.80454: L2-HR :0.79302: (Sim:0h30m56s) 
CPU  0 inst:  552000000 cyc:  328956885 now IPC :1.76524: AVG IPC :1.67695: L2-Pf-HR :0.80452: L2-HR :0.79301: (Sim:0h31m1s) 
CPU  0 inst:  553000001 cyc:  329532733 now IPC :1.73657: AVG IPC :1.67706: L2-Pf-HR :0.80452: L2-HR :0.79300: (Sim:0h31m5s) 
CPU  0 inst:  554000002 cyc:  330105109 now IPC :1.74711: AVG IPC :1.67718: L2-Pf-HR :0.80451: L2-HR :0.79300: (Sim:0h31m9s) 
CPU  0 inst:  555000000 cyc:  330678922 now IPC :1.74272: AVG IPC :1.67729: L2-Pf-HR :0.80449: L2-HR :0.79299: (Sim:0h31m13s) 
CPU  0 inst:  556000000 cyc:  331250693 now IPC :1.74895: AVG IPC :1.67742: L2-Pf-HR :0.80448: L2-HR :0.79298: (Sim:0h31m18s) 
CPU  0 inst:  557000002 cyc:  331817970 now IPC :1.76281: AVG IPC :1.67756: L2-Pf-HR :0.80446: L2-HR :0.79296: (Sim:0h31m22s) 
CPU  0 inst:  558000003 cyc:  332382726 now IPC :1.77068: AVG IPC :1.67772: L2-Pf-HR :0.80445: L2-HR :0.79295: (Sim:0h31m27s) 
CPU  0 inst:  559000000 cyc:  332947972 now IPC :1.76914: AVG IPC :1.67788: L2-Pf-HR :0.80444: L2-HR :0.79295: (Sim:0h31m31s) 
CPU  0 inst:  560000000 cyc:  333513519 now IPC :1.76820: AVG IPC :1.67803: L2-Pf-HR :0.80446: L2-HR :0.79296: (Sim:0h31m34s) 
CPU  0 inst:  561000001 cyc:  334222788 now IPC :1.40990: AVG IPC :1.67746: L2-Pf-HR :0.80444: L2-HR :0.79295: (Sim:0h31m38s) 
CPU  0 inst:  562000002 cyc:  334792677 now IPC :1.75473: AVG IPC :1.67759: L2-Pf-HR :0.80448: L2-HR :0.79299: (Sim:0h31m41s) 
CPU  0 inst:  563000000 cyc:  335357595 now IPC :1.77016: AVG IPC :1.67775: L2-Pf-HR :0.80449: L2-HR :0.79300: (Sim:0h31m44s) 
CPU  0 inst:  564000000 cyc:  335927763 now IPC :1.75387: AVG IPC :1.67788: L2-Pf-HR :0.80452: L2-HR :0.79303: (Sim:0h31m47s) 
CPU  0 inst:  565000002 cyc:  336498801 now IPC :1.75120: AVG IPC :1.67800: L2-Pf-HR :0.80454: L2-HR :0.79305: (Sim:0h31m50s) 
CPU  0 inst:  566000003 cyc:  337061528 now IPC :1.77706: AVG IPC :1.67817: L2-Pf-HR :0.80457: L2-HR :0.79308: (Sim:0h31m54s) 
CPU  0 inst:  567000001 cyc:  337616272 now IPC :1.80263: AVG IPC :1.67837: L2-Pf-HR :0.80467: L2-HR :0.79318: (Sim:0h31m58s) 
CPU  0 inst:  568000000 cyc:  338171919 now IPC :1.79970: AVG IPC :1.67857: L2-Pf-HR :0.80481: L2-HR :0.79330: (Sim:0h32m1s) 
CPU  0 inst:  569000002 cyc:  338984848 now IPC :1.23012: AVG IPC :1.67750: L2-Pf-HR :0.80475: L2-HR :0.79325: (Sim:0h32m6s) 
CPU  0 inst:  570000001 cyc:  339574723 now IPC :1.69527: AVG IPC :1.67753: L2-Pf-HR :0.80473: L2-HR :0.79323: (Sim:0h32m10s) 
CPU  0 inst:  571000000 cyc:  340155703 now IPC :1.72123: AVG IPC :1.67760: L2-Pf-HR :0.80472: L2-HR :0.79322: (Sim:0h32m15s) 
CPU  0 inst:  572000000 cyc:  340745880 now IPC :1.69441: AVG IPC :1.67763: L2-Pf-HR :0.80471: L2-HR :0.79320: (Sim:0h32m19s) 
CPU  0 inst:  573000000 cyc:  341331858 now IPC :1.70655: AVG IPC :1.67768: L2-Pf-HR :0.80469: L2-HR :0.79317: (Sim:0h32m24s) 
CPU  0 inst:  574000002 cyc:  341922894 now IPC :1.69195: AVG IPC :1.67770: L2-Pf-HR :0.80467: L2-HR :0.79316: (Sim:0h32m27s) 
CPU  0 inst:  575000001 cyc:  342511757 now IPC :1.69819: AVG IPC :1.67774: L2-Pf-HR :0.80466: L2-HR :0.79314: (Sim:0h32m31s) 
CPU  0 inst:  576000000 cyc:  343102835 now IPC :1.69182: AVG IPC :1.67776: L2-Pf-HR :0.80464: L2-HR :0.79312: (Sim:0h32m34s) 
CPU  0 inst:  577000001 cyc:  343699782 now IPC :1.67519: AVG IPC :1.67776: L2-Pf-HR :0.80462: L2-HR :0.79310: (Sim:0h32m38s) 
CPU  0 inst:  578000001 cyc:  344283605 now IPC :1.71285: AVG IPC :1.67782: L2-Pf-HR :0.80461: L2-HR :0.79308: (Sim:0h32m42s) 
CPU  0 inst:  579000000 cyc:  344872360 now IPC :1.69850: AVG IPC :1.67785: L2-Pf-HR :0.80461: L2-HR :0.79308: (Sim:0h32m47s) 
CPU  0 inst:  580000000 cyc:  345459931 now IPC :1.70192: AVG IPC :1.67790: L2-Pf-HR :0.80462: L2-HR :0.79308: (Sim:0h32m50s) 
CPU  0 inst:  581000001 cyc:  346273576 now IPC :1.22904: AVG IPC :1.67684: L2-Pf-HR :0.80454: L2-HR :0.79302: (Sim:0h32m55s) 
CPU  0 inst:  582000001 cyc:  346850527 now IPC :1.73325: AVG IPC :1.67693: L2-Pf-HR :0.80453: L2-HR :0.79301: (Sim:0h32m59s) 
CPU  0 inst:  583000002 cyc:  347418780 now IPC :1.75978: AVG IPC :1.67707: L2-Pf-HR :0.80452: L2-HR :0.79300: (Sim:0h33m3s) 
CPU  0 inst:  584000000 cyc:  347991499 now IPC :1.74605: AVG IPC :1.67718: L2-Pf-HR :0.80450: L2-HR :0.79299: (Sim:0h33m7s) 
CPU  0 inst:  585000000 cyc:  348565219 now IPC :1.74301: AVG IPC :1.67729: L2-Pf-HR :0.80449: L2-HR :0.79297: (Sim:0h33m12s) 
CPU  0 inst:  586000002 cyc:  349139607 now IPC :1.74099: AVG IPC :1.67740: L2-Pf-HR :0.80448: L2-HR :0.79297: (Sim:0h33m16s) 
CPU  0 inst:  587000001 cyc:  349707266 now IPC :1.76162: AVG IPC :1.67753: L2-Pf-HR :0.80447: L2-HR :0.79296: (Sim:0h33m21s) 
CPU  0 inst:  588000000 cyc:  350279778 now IPC :1.74669: AVG IPC :1.67765: L2-Pf-HR :0.80445: L2-HR :0.79295: (Sim:0h33m26s) 
CPU  0 inst:  589000000 cyc:  350850791 now IPC :1.75127: AVG IPC :1.67777: L2-Pf-HR :0.80443: L2-HR :0.79293: (Sim:0h33m30s) 
CPU  0 inst:  590000001 cyc:  351419539 now IPC :1.75825: AVG IPC :1.67790: L2-Pf-HR :0.80442: L2-HR :0.79293: (Sim:0h33m34s) 
CPU  0 inst:  591000002 cyc:  351986160 now IPC :1.76485: AVG IPC :1.67804: L2-Pf-HR :0.80442: L2-HR :0.79293: (Sim:0h33m39s) 
CPU  0 inst:  592000000 cyc:  352639713 now IPC :1.53009: AVG IPC :1.67776: L2-Pf-HR :0.80440: L2-HR :0.79291: (Sim:0h33m43s) 
CPU  0 inst:  593000000 cyc:  353255775 now IPC :1.62321: AVG IPC :1.67767: L2-Pf-HR :0.80444: L2-HR :0.79295: (Sim:0h33m48s) 
CPU  0 inst:  594000003 cyc:  353826982 now IPC :1.75068: AVG IPC :1.67779: L2-Pf-HR :0.80448: L2-HR :0.79298: (Sim:0h33m52s) 
CPU  0 inst:  595000000 cyc:  354392473 now IPC :1.76837: AVG IPC :1.67793: L2-Pf-HR :0.80450: L2-HR :0.79300: (Sim:0h33m56s) 
CPU  0 inst:  596000000 cyc:  354958965 now IPC :1.76525: AVG IPC :1.67807: L2-Pf-HR :0.80453: L2-HR :0.79303: (Sim:0h33m59s) 
CPU  0 inst:  597000002 cyc:  355526530 now IPC :1.76192: AVG IPC :1.67820: L2-Pf-HR :0.80455: L2-HR :0.79306: (Sim:0h34m4s) 
CPU  0 inst:  598000000 cyc:  356090320 now IPC :1.77371: AVG IPC :1.67836: L2-Pf-HR :0.80462: L2-HR :0.79312: (Sim:0h34m8s) 
CPU  0 inst:  599000000 cyc:  356644965 now IPC :1.80296: AVG IPC :1.67855: L2-Pf-HR :0.80472: L2-HR :0.79322: (Sim:0h34m12s) 
CPU  0 inst:  600000000 cyc:  357406423 now IPC :1.31327: AVG IPC :1.67777: L2-Pf-HR :0.80476: L2-HR :0.79326: (Sim:0h34m16s) 
CPU  0 inst:  601000001 cyc:  358035813 now IPC :1.58884: AVG IPC :1.67761: L2-Pf-HR :0.80474: L2-HR :0.79323: (Sim:0h34m20s) 
CPU  0 inst:  602000003 cyc:  358628451 now IPC :1.68737: AVG IPC :1.67763: L2-Pf-HR :0.80472: L2-HR :0.79321: (Sim:0h34m24s) 
CPU  0 inst:  603000002 cyc:  359228681 now IPC :1.66603: AVG IPC :1.67761: L2-Pf-HR :0.80471: L2-HR :0.79319: (Sim:0h34m27s) 
CPU  0 inst:  604000000 cyc:  359817393 now IPC :1.69862: AVG IPC :1.67764: L2-Pf-HR :0.80469: L2-HR :0.79317: (Sim:0h34m30s) 
CPU  0 inst:  605000003 cyc:  360406113 now IPC :1.69861: AVG IPC :1.67768: L2-Pf-HR :0.80467: L2-HR :0.79315: (Sim:0h34m33s) 
CPU  0 inst:  606000001 cyc:  361004851 now IPC :1.67018: AVG IPC :1.67767: L2-Pf-HR :0.80466: L2-HR :0.79314: (Sim:0h34m37s) 
CPU  0 inst:  607000003 cyc:  361586637 now IPC :1.71885: AVG IPC :1.67773: L2-Pf-HR :0.80465: L2-HR :0.79313: (Sim:0h34m42s) 
CPU  0 inst:  608000000 cyc:  362178729 now IPC :1.68892: AVG IPC :1.67775: L2-Pf-HR :0.80463: L2-HR :0.79310: (Sim:0h34m46s) 
CPU  0 inst:  609000003 cyc:  362768786 now IPC :1.69476: AVG IPC :1.67778: L2-Pf-HR :0.80462: L2-HR :0.79309: (Sim:0h34m50s) 
CPU  0 inst:  610000003 cyc:  363355616 now IPC :1.70407: AVG IPC :1.67782: L2-Pf-HR :0.80461: L2-HR :0.79308: (Sim:0h34m54s) 
CPU  0 inst:  611000003 cyc:  363943800 now IPC :1.70015: AVG IPC :1.67786: L2-Pf-HR :0.80461: L2-HR :0.79307: (Sim:0h34m58s) 
CPU  0 inst:  612000000 cyc:  364737997 now IPC :1.25913: AVG IPC :1.67694: L2-Pf-HR :0.80456: L2-HR :0.79304: (Sim:0h35m3s) 
CPU  0 inst:  613000002 cyc:  365341074 now IPC :1.65817: AVG IPC :1.67691: L2-Pf-HR :0.80455: L2-HR :0.79303: (Sim:0h35m8s) 
CPU  0 inst:  614000002 cyc:  365917724 now IPC :1.73415: AVG IPC :1.67700: L2-Pf-HR :0.80454: L2-HR :0.79301: (Sim:0h35m12s) 
CPU  0 inst:  615000003 cyc:  366495526 now IPC :1.73070: AVG IPC :1.67709: L2-Pf-HR :0.80453: L2-HR :0.79301: (Sim:0h35m16s) 
CPU  0 inst:  616000000 cyc:  367074687 now IPC :1.72663: AVG IPC :1.67717: L2-Pf-HR :0.80452: L2-HR :0.79300: (Sim:0h35m21s) 
CPU  0 inst:  617000000 cyc:  367655123 now IPC :1.72284: AVG IPC :1.67724: L2-Pf-HR :0.80452: L2-HR :0.79300: (Sim:0h35m25s) 
CPU  0 inst:  618000002 cyc:  368230004 now IPC :1.73949: AVG IPC :1.67734: L2-Pf-HR :0.80450: L2-HR :0.79299: (Sim:0h35m30s) 
CPU  0 inst:  619000002 cyc:  368800971 now IPC :1.75141: AVG IPC :1.67745: L2-Pf-HR :0.80450: L2-HR :0.79299: (Sim:0h35m34s) 
CPU  0 inst:  620000000 cyc:  369370509 now IPC :1.75581: AVG IPC :1.67757: L2-Pf-HR :0.80448: L2-HR :0.79297: (Sim:0h35m38s) 
CPU  0 inst:  621000001 cyc:  369942892 now IPC :1.74708: AVG IPC :1.67768: L2-Pf-HR :0.80447: L2-HR :0.79296: (Sim:0h35m41s) 
CPU  0 inst:  622000000 cyc:  370514555 now IPC :1.74928: AVG IPC :1.67779: L2-Pf-HR :0.80446: L2-HR :0.79296: (Sim:0h35m44s) 
CPU  0 inst:  623000000 cyc:  371087281 now IPC :1.74604: AVG IPC :1.67790: L2-Pf-HR :0.80447: L2-HR :0.79296: (Sim:0h35m48s) 
CPU  0 inst:  624000000 cyc:  371783597 now IPC :1.43613: AVG IPC :1.67744: L2-Pf-HR :0.80446: L2-HR :0.79296: (Sim:0h35m52s) 
CPU  0 inst:  625000000 cyc:  372348239 now IPC :1.77103: AVG IPC :1.67758: L2-Pf-HR :0.80450: L2-HR :0.79299: (Sim:0h35m57s) 
[...]
CPU  0 inst: 2246000002 cyc: 2214292958 now IPC :1.68297: AVG IPC :1.01387: L2-Pf-HR :0.78086: L2-HR :0.77348: (Sim:2h50m27s) 
CPU  0 inst: 2247000000 cyc: 2214929930 now IPC :1.56992: AVG IPC :1.01403: L2-Pf-HR :0.78084: L2-HR :0.77347: (Sim:2h50m31s) 
CPU  0 inst: 2248000000 cyc: 2215442909 now IPC :1.94940: AVG IPC :1.01424: L2-Pf-HR :0.78084: L2-HR :0.77347: (Sim:2h50m36s) 
CPU  0 inst: 2249000000 cyc: 2216076109 now IPC :1.57928: AVG IPC :1.01440: L2-Pf-HR :0.78081: L2-HR :0.77345: (Sim:2h50m40s) 
CPU  0 inst: 2250000000 cyc: 2216742980 now IPC :1.49954: AVG IPC :1.01455: L2-Pf-HR :0.78079: L2-HR :0.77344: (Sim:2h50m45s) 
CPU  0 inst: 2251000001 cyc: 2217374565 now IPC :1.58332: AVG IPC :1.01471: L2-Pf-HR :0.78077: L2-HR :0.77343: (Sim:2h50m49s) 
CPU  0 inst: 2252000000 cyc: 2217892529 now IPC :1.93063: AVG IPC :1.01493: L2-Pf-HR :0.78077: L2-HR :0.77342: (Sim:2h50m54s) 
CPU  0 inst: 2253000002 cyc: 2218588049 now IPC :1.43778: AVG IPC :1.01506: L2-Pf-HR :0.78073: L2-HR :0.77340: (Sim:2h50m58s) 
CPU  0 inst: 2254000002 cyc: 2219097781 now IPC :1.96182: AVG IPC :1.01528: L2-Pf-HR :0.78073: L2-HR :0.77340: (Sim:2h51m2s) 
CPU  0 inst: 2255000001 cyc: 2219730371 now IPC :1.58080: AVG IPC :1.01544: L2-Pf-HR :0.78070: L2-HR :0.77338: (Sim:2h51m7s) 
CPU  0 inst: 2256000000 cyc: 2220240088 now IPC :1.96187: AVG IPC :1.01565: L2-Pf-HR :0.78071: L2-HR :0.77340: (Sim:2h51m11s) 
CPU  0 inst: 2257000000 cyc: 2220952226 now IPC :1.40422: AVG IPC :1.01578: L2-Pf-HR :0.78068: L2-HR :0.77337: (Sim:2h51m16s) 
CPU  0 inst: 2258000000 cyc: 2221468720 now IPC :1.93613: AVG IPC :1.01599: L2-Pf-HR :0.78067: L2-HR :0.77337: (Sim:2h51m20s) 
CPU  0 inst: 2259000003 cyc: 2222123222 now IPC :1.52788: AVG IPC :1.01614: L2-Pf-HR :0.78064: L2-HR :0.77334: (Sim:2h51m25s) 
CPU  0 inst: 2260000000 cyc: 2222635061 now IPC :1.95373: AVG IPC :1.01636: L2-Pf-HR :0.78065: L2-HR :0.77335: (Sim:2h51m29s) 
CPU  0 inst: 2261000000 cyc: 2223174503 now IPC :1.85377: AVG IPC :1.01656: L2-Pf-HR :0.78065: L2-HR :0.77336: (Sim:2h51m33s) 
CPU  0 inst: 2262000003 cyc: 2223754851 now IPC :1.72311: AVG IPC :1.01675: L2-Pf-HR :0.78064: L2-HR :0.77336: (Sim:2h51m38s) 
CPU  0 inst: 2263000001 cyc: 2224427031 now IPC :1.48769: AVG IPC :1.01689: L2-Pf-HR :0.78062: L2-HR :0.77334: (Sim:2h51m42s) 
CPU  0 inst: 2264000000 cyc: 2225084601 now IPC :1.52075: AVG IPC :1.01704: L2-Pf-HR :0.78060: L2-HR :0.77333: (Sim:2h51m47s) 
CPU  0 inst: 2265000002 cyc: 2225952699 now IPC :1.15195: AVG IPC :1.01709: L2-Pf-HR :0.78060: L2-HR :0.77334: (Sim:2h51m52s) 
CPU  0 inst: 2266000000 cyc: 2226505141 now IPC :1.81014: AVG IPC :1.01729: L2-Pf-HR :0.78060: L2-HR :0.77334: (Sim:2h51m56s) 
CPU  0 inst: 2267000001 cyc: 2227041282 now IPC :1.86518: AVG IPC :1.01749: L2-Pf-HR :0.78060: L2-HR :0.77334: (Sim:2h52m1s) 
CPU  0 inst: 2268000000 cyc: 2227765745 now IPC :1.38033: AVG IPC :1.01761: L2-Pf-HR :0.78057: L2-HR :0.77331: (Sim:2h52m5s) 
CPU  0 inst: 2269000001 cyc: 2228284498 now IPC :1.92770: AVG IPC :1.01782: L2-Pf-HR :0.78058: L2-HR :0.77332: (Sim:2h52m10s) 
CPU  0 inst: 2270000001 cyc: 2228937207 now IPC :1.53208: AVG IPC :1.01797: L2-Pf-HR :0.78055: L2-HR :0.77331: (Sim:2h52m14s) 
CPU  0 inst: 2271000002 cyc: 2229460299 now IPC :1.91171: AVG IPC :1.01818: L2-Pf-HR :0.78056: L2-HR :0.77332: (Sim:2h52m18s) 
CPU  0 inst: 2272000000 cyc: 2230273127 now IPC :1.23027: AVG IPC :1.01826: L2-Pf-HR :0.78053: L2-HR :0.77330: (Sim:2h52m23s) 
CPU  0 inst: 2273000001 cyc: 2230796077 now IPC :1.91223: AVG IPC :1.01847: L2-Pf-HR :0.78054: L2-HR :0.77330: (Sim:2h52m27s) 
CPU  0 inst: 2274000003 cyc: 2231526676 now IPC :1.36874: AVG IPC :1.01858: L2-Pf-HR :0.78051: L2-HR :0.77328: (Sim:2h52m32s) 
CPU  0 inst: 2275000000 cyc: 2232042289 now IPC :1.93943: AVG IPC :1.01880: L2-Pf-HR :0.78053: L2-HR :0.77330: (Sim:2h52m36s) 
CPU  0 inst: 2276000000 cyc: 2232682904 now IPC :1.56100: AVG IPC :1.01895: L2-Pf-HR :0.78051: L2-HR :0.77329: (Sim:2h52m41s) 
CPU  0 inst: 2277000002 cyc: 2233200490 now IPC :1.93205: AVG IPC :1.01916: L2-Pf-HR :0.78053: L2-HR :0.77331: (Sim:2h52m45s) 
CPU  0 inst: 2278000003 cyc: 2234005248 now IPC :1.24261: AVG IPC :1.01925: L2-Pf-HR :0.78050: L2-HR :0.77329: (Sim:2h52m50s) 
CPU  0 inst: 2279000000 cyc: 2234525325 now IPC :1.92279: AVG IPC :1.01946: L2-Pf-HR :0.78050: L2-HR :0.77329: (Sim:2h52m53s) 
CPU  0 inst: 2280000000 cyc: 2235233458 now IPC :1.41216: AVG IPC :1.01958: L2-Pf-HR :0.78046: L2-HR :0.77326: (Sim:2h52m56s) 
CPU  0 inst: 2281000001 cyc: 2235760855 now IPC :1.89611: AVG IPC :1.01979: L2-Pf-HR :0.78046: L2-HR :0.77326: (Sim:2h52m59s) 
CPU  0 inst: 2282000000 cyc: 2236276329 now IPC :1.93996: AVG IPC :1.02000: L2-Pf-HR :0.78046: L2-HR :0.77327: (Sim:2h53m2s) 
CPU  0 inst: 2283000002 cyc: 2236904710 now IPC :1.59139: AVG IPC :1.02016: L2-Pf-HR :0.78044: L2-HR :0.77326: (Sim:2h53m5s) 
CPU  0 inst: 2284000000 cyc: 2237671085 now IPC :1.30484: AVG IPC :1.02026: L2-Pf-HR :0.78041: L2-HR :0.77324: (Sim:2h53m8s) 
CPU  0 inst: 2285000001 cyc: 2238209695 now IPC :1.85663: AVG IPC :1.02046: L2-Pf-HR :0.78041: L2-HR :0.77324: (Sim:2h53m11s) 
CPU  0 inst: 2286000002 cyc: 2238734856 now IPC :1.90418: AVG IPC :1.02067: L2-Pf-HR :0.78040: L2-HR :0.77323: (Sim:2h53m14s) 
CPU  0 inst: 2287000000 cyc: 2239426133 now IPC :1.44660: AVG IPC :1.02080: L2-Pf-HR :0.78037: L2-HR :0.77321: (Sim:2h53m17s) 
CPU  0 inst: 2288000000 cyc: 2239937293 now IPC :1.95633: AVG IPC :1.02101: L2-Pf-HR :0.78038: L2-HR :0.77322: (Sim:2h53m20s) 
CPU  0 inst: 2289000003 cyc: 2240562105 now IPC :1.60049: AVG IPC :1.02117: L2-Pf-HR :0.78036: L2-HR :0.77321: (Sim:2h53m23s) 
CPU  0 inst: 2290000000 cyc: 2241076232 now IPC :1.94504: AVG IPC :1.02139: L2-Pf-HR :0.78037: L2-HR :0.77323: (Sim:2h53m26s) 
CPU  0 inst: 2291000003 cyc: 2241783930 now IPC :1.41304: AVG IPC :1.02151: L2-Pf-HR :0.78035: L2-HR :0.77321: (Sim:2h53m29s) 
CPU  0 inst: 2292000000 cyc: 2242303628 now IPC :1.92419: AVG IPC :1.02172: L2-Pf-HR :0.78034: L2-HR :0.77320: (Sim:2h53m34s) 
CPU  0 inst: 2293000003 cyc: 2242964749 now IPC :1.51259: AVG IPC :1.02186: L2-Pf-HR :0.78031: L2-HR :0.77318: (Sim:2h53m38s) 
CPU  0 inst: 2294000002 cyc: 2243475020 now IPC :1.95974: AVG IPC :1.02208: L2-Pf-HR :0.78032: L2-HR :0.77319: (Sim:2h53m42s) 
CPU  0 inst: 2295000001 cyc: 2244080229 now IPC :1.65232: AVG IPC :1.02225: L2-Pf-HR :0.78030: L2-HR :0.77318: (Sim:2h53m46s) 
CPU  0 inst: 2296000000 cyc: 2244591181 now IPC :1.95713: AVG IPC :1.02246: L2-Pf-HR :0.78031: L2-HR :0.77320: (Sim:2h53m49s) 
CPU  0 inst: 2297000000 cyc: 2245266529 now IPC :1.48072: AVG IPC :1.02260: L2-Pf-HR :0.78030: L2-HR :0.77318: (Sim:2h53m52s) 
CPU  0 inst: 2298000000 cyc: 2245927131 now IPC :1.51377: AVG IPC :1.02274: L2-Pf-HR :0.78029: L2-HR :0.77318: (Sim:2h53m55s) 
CPU  0 inst: 2299000000 cyc: 2246796299 now IPC :1.15053: AVG IPC :1.02279: L2-Pf-HR :0.78028: L2-HR :0.77318: (Sim:2h53m58s) 
CPU  0 inst: 2300000000 cyc: 2247341875 now IPC :1.83293: AVG IPC :1.02299: L2-Pf-HR :0.78028: L2-HR :0.77317: (Sim:2h54m3s) 
CPU  0 inst: 2301000003 cyc: 2247903718 now IPC :1.77986: AVG IPC :1.02318: L2-Pf-HR :0.78027: L2-HR :0.77317: (Sim:2h54m7s) 
CPU  0 inst: 2302000001 cyc: 2248582617 now IPC :1.47297: AVG IPC :1.02331: L2-Pf-HR :0.78024: L2-HR :0.77315: (Sim:2h54m11s) 
CPU  0 inst: 2303000002 cyc: 2249100453 now IPC :1.93112: AVG IPC :1.02352: L2-Pf-HR :0.78025: L2-HR :0.77316: (Sim:2h54m15s) 
CPU  0 inst: 2304000000 cyc: 2249752175 now IPC :1.53439: AVG IPC :1.02367: L2-Pf-HR :0.78023: L2-HR :0.77315: (Sim:2h54m20s) 
CPU  0 inst: 2305000000 cyc: 2250415905 now IPC :1.50664: AVG IPC :1.02381: L2-Pf-HR :0.78021: L2-HR :0.77314: (Sim:2h54m25s) 
CPU  0 inst: 2306000001 cyc: 2251086923 now IPC :1.49027: AVG IPC :1.02395: L2-Pf-HR :0.78020: L2-HR :0.77313: (Sim:2h54m30s) 
CPU  0 inst: 2307000001 cyc: 2251604180 now IPC :1.93327: AVG IPC :1.02416: L2-Pf-HR :0.78021: L2-HR :0.77314: (Sim:2h54m33s) 
CPU  0 inst: 2308000000 cyc: 2252326839 now IPC :1.38378: AVG IPC :1.02428: L2-Pf-HR :0.78017: L2-HR :0.77311: (Sim:2h54m37s) 
CPU  0 inst: 2309000000 cyc: 2252837681 now IPC :1.95755: AVG IPC :1.02449: L2-Pf-HR :0.78019: L2-HR :0.77313: (Sim:2h54m40s) 
CPU  0 inst: 2310000001 cyc: 2253479196 now IPC :1.55881: AVG IPC :1.02464: L2-Pf-HR :0.78017: L2-HR :0.77311: (Sim:2h54m44s) 
CPU  0 inst: 2311000001 cyc: 2253990349 now IPC :1.95636: AVG IPC :1.02485: L2-Pf-HR :0.78018: L2-HR :0.77314: (Sim:2h54m47s) 
CPU  0 inst: 2312000000 cyc: 2254797557 now IPC :1.23884: AVG IPC :1.02493: L2-Pf-HR :0.78016: L2-HR :0.77311: (Sim:2h54m51s) 
CPU  0 inst: 2313000000 cyc: 2255313703 now IPC :1.93744: AVG IPC :1.02514: L2-Pf-HR :0.78016: L2-HR :0.77312: (Sim:2h54m54s) 
CPU  0 inst: 2314000002 cyc: 2256024977 now IPC :1.40593: AVG IPC :1.02526: L2-Pf-HR :0.78011: L2-HR :0.77308: (Sim:2h54m57s) 
CPU  0 inst: 2315000000 cyc: 2256543052 now IPC :1.93022: AVG IPC :1.02547: L2-Pf-HR :0.78012: L2-HR :0.77309: (Sim:2h55m0s) 
CPU  0 inst: 2316000000 cyc: 2257076899 now IPC :1.87320: AVG IPC :1.02567: L2-Pf-HR :0.78012: L2-HR :0.77310: (Sim:2h55m3s) 
CPU  0 inst: 2317000003 cyc: 2257688032 now IPC :1.63631: AVG IPC :1.02583: L2-Pf-HR :0.78010: L2-HR :0.77308: (Sim:2h55m7s) 
CPU  0 inst: 2318000000 cyc: 2258463221 now IPC :1.29000: AVG IPC :1.02592: L2-Pf-HR :0.78007: L2-HR :0.77306: (Sim:2h55m10s) 
CPU  0 inst: 2319000002 cyc: 2258994315 now IPC :1.88291: AVG IPC :1.02612: L2-Pf-HR :0.78007: L2-HR :0.77306: (Sim:2h55m14s) 
CPU  0 inst: 2320000000 cyc: 2259559378 now IPC :1.76971: AVG IPC :1.02631: L2-Pf-HR :0.78005: L2-HR :0.77305: (Sim:2h55m18s) 
CPU  0 inst: 2321000002 cyc: 2260204556 now IPC :1.54996: AVG IPC :1.02646: L2-Pf-HR :0.78003: L2-HR :0.77303: (Sim:2h55m22s) 
CPU  0 inst: 2322000001 cyc: 2260715596 now IPC :1.95679: AVG IPC :1.02667: L2-Pf-HR :0.78003: L2-HR :0.77304: (Sim:2h55m24s) 
CPU  0 inst: 2323000002 cyc: 2261341245 now IPC :1.59834: AVG IPC :1.02683: L2-Pf-HR :0.78001: L2-HR :0.77302: (Sim:2h55m27s) 
CPU  0 inst: 2324000000 cyc: 2261944109 now IPC :1.65875: AVG IPC :1.02700: L2-Pf-HR :0.78001: L2-HR :0.77303: (Sim:2h55m31s) 
CPU  0 inst: 2325000000 cyc: 2262564657 now IPC :1.61148: AVG IPC :1.02716: L2-Pf-HR :0.77999: L2-HR :0.77302: (Sim:2h55m34s) 
CPU  0 inst: 2326000000 cyc: 2263079312 now IPC :1.94305: AVG IPC :1.02736: L2-Pf-HR :0.77999: L2-HR :0.77302: (Sim:2h55m37s) 
CPU  0 inst: 2327000001 cyc: 2263739246 now IPC :1.51530: AVG IPC :1.02751: L2-Pf-HR :0.77997: L2-HR :0.77301: (Sim:2h55m40s) 
CPU  0 inst: 2328000000 cyc: 2264249348 now IPC :1.96039: AVG IPC :1.02772: L2-Pf-HR :0.77998: L2-HR :0.77302: (Sim:2h55m43s) 
CPU  0 inst: 2329000003 cyc: 2264856590 now IPC :1.64679: AVG IPC :1.02788: L2-Pf-HR :0.77996: L2-HR :0.77301: (Sim:2h55m46s) 
CPU  0 inst: 2330000002 cyc: 2265366572 now IPC :1.96085: AVG IPC :1.02809: L2-Pf-HR :0.77997: L2-HR :0.77303: (Sim:2h55m49s) 
CPU  0 inst: 2331000001 cyc: 2266045112 now IPC :1.47375: AVG IPC :1.02823: L2-Pf-HR :0.77995: L2-HR :0.77300: (Sim:2h55m52s) 
CPU  0 inst: 2332000000 cyc: 2266785507 now IPC :1.35063: AVG IPC :1.02833: L2-Pf-HR :0.77993: L2-HR :0.77299: (Sim:2h55m55s) 
CPU  0 inst: 2333000003 cyc: 2267591414 now IPC :1.24084: AVG IPC :1.02841: L2-Pf-HR :0.77994: L2-HR :0.77300: (Sim:2h55m59s) 
CPU  0 inst: 2334000001 cyc: 2268121239 now IPC :1.88741: AVG IPC :1.02861: L2-Pf-HR :0.77994: L2-HR :0.77301: (Sim:2h56m1s) 
CPU  0 inst: 2335000000 cyc: 2268830864 now IPC :1.40919: AVG IPC :1.02873: L2-Pf-HR :0.77991: L2-HR :0.77298: (Sim:2h56m5s) 
CPU  0 inst: 2336000000 cyc: 2269376191 now IPC :1.83376: AVG IPC :1.02892: L2-Pf-HR :0.77992: L2-HR :0.77299: (Sim:2h56m7s) 
CPU  0 inst: 2337000000 cyc: 2269898801 now IPC :1.91347: AVG IPC :1.02912: L2-Pf-HR :0.77993: L2-HR :0.77301: (Sim:2h56m10s) 
CPU  0 inst: 2338000002 cyc: 2270556423 now IPC :1.52063: AVG IPC :1.02927: L2-Pf-HR :0.77991: L2-HR :0.77299: (Sim:2h56m15s) 
CPU  0 inst: 2339000000 cyc: 2271348550 now IPC :1.26242: AVG IPC :1.02935: L2-Pf-HR :0.77988: L2-HR :0.77297: (Sim:2h56m20s) 
CPU  0 inst: 2340000000 cyc: 2271889949 now IPC :1.84707: AVG IPC :1.02954: L2-Pf-HR :0.77988: L2-HR :0.77298: (Sim:2h56m24s) 
CPU  0 inst: 2341000002 cyc: 2272414121 now IPC :1.90777: AVG IPC :1.02975: L2-Pf-HR :0.77989: L2-HR :0.77298: (Sim:2h56m28s) 
CPU  0 inst: 2342000001 cyc: 2273131261 now IPC :1.39443: AVG IPC :1.02986: L2-Pf-HR :0.77986: L2-HR :0.77296: (Sim:2h56m33s) 
CPU  0 inst: 2343000003 cyc: 2273643614 now IPC :1.95178: AVG IPC :1.03007: L2-Pf-HR :0.77987: L2-HR :0.77298: (Sim:2h56m37s) 
CPU  0 inst: 2344000000 cyc: 2274282392 now IPC :1.56548: AVG IPC :1.03022: L2-Pf-HR :0.77986: L2-HR :0.77297: (Sim:2h56m42s) 
CPU  0 inst: 2345000000 cyc: 2274795827 now IPC :1.94767: AVG IPC :1.03043: L2-Pf-HR :0.77988: L2-HR :0.77299: (Sim:2h56m46s) 
CPU  0 inst: 2346000003 cyc: 2275589104 now IPC :1.26060: AVG IPC :1.03051: L2-Pf-HR :0.77985: L2-HR :0.77297: (Sim:2h56m49s) 
CPU  0 inst: 2347000003 cyc: 2276111500 now IPC :1.91426: AVG IPC :1.03071: L2-Pf-HR :0.77985: L2-HR :0.77297: (Sim:2h56m52s) 
CPU  0 inst: 2348000000 cyc: 2276826151 now IPC :1.39928: AVG IPC :1.03083: L2-Pf-HR :0.77982: L2-HR :0.77295: (Sim:2h56m55s) 
CPU  0 inst: 2349000003 cyc: 2277336522 now IPC :1.95936: AVG IPC :1.03103: L2-Pf-HR :0.77983: L2-HR :0.77296: (Sim:2h56m58s) 
CPU  0 inst: 2350000002 cyc: 2277969493 now IPC :1.57985: AVG IPC :1.03119: L2-Pf-HR :0.77981: L2-HR :0.77295: (Sim:2h57m1s) 
CPU  0 inst: 2351000003 cyc: 2278484497 now IPC :1.94173: AVG IPC :1.03139: L2-Pf-HR :0.77982: L2-HR :0.77296: (Sim:2h57m4s) 
CPU  0 inst: 2352000000 cyc: 2279273076 now IPC :1.26810: AVG IPC :1.03147: L2-Pf-HR :0.77979: L2-HR :0.77294: (Sim:2h57m7s) 
CPU  0 inst: 2353000002 cyc: 2279789161 now IPC :1.93767: AVG IPC :1.03168: L2-Pf-HR :0.77979: L2-HR :0.77294: (Sim:2h57m10s) 
CPU  0 inst: 2354000000 cyc: 2280480419 now IPC :1.44664: AVG IPC :1.03181: L2-Pf-HR :0.77976: L2-HR :0.77291: (Sim:2h57m13s) 
CPU  0 inst: 2355000000 cyc: 2281000856 now IPC :1.92146: AVG IPC :1.03201: L2-Pf-HR :0.77976: L2-HR :0.77292: (Sim:2h57m16s) 
CPU  0 inst: 2356000000 cyc: 2281514097 now IPC :1.94840: AVG IPC :1.03221: L2-Pf-HR :0.77977: L2-HR :0.77293: (Sim:2h57m20s) 
CPU  0 inst: 2357000003 cyc: 2282139250 now IPC :1.59961: AVG IPC :1.03237: L2-Pf-HR :0.77974: L2-HR :0.77292: (Sim:2h57m25s) 
CPU  0 inst: 2358000000 cyc: 2282841666 now IPC :1.42365: AVG IPC :1.03249: L2-Pf-HR :0.77973: L2-HR :0.77291: (Sim:2h57m30s) 
CPU  0 inst: 2359000002 cyc: 2283365905 now IPC :1.90753: AVG IPC :1.03269: L2-Pf-HR :0.77973: L2-HR :0.77291: (Sim:2h57m34s) 
CPU  0 inst: 2360000000 cyc: 2283888577 now IPC :1.91324: AVG IPC :1.03289: L2-Pf-HR :0.77973: L2-HR :0.77291: (Sim:2h57m39s) 
CPU  0 inst: 2361000001 cyc: 2284538263 now IPC :1.53921: AVG IPC :1.03304: L2-Pf-HR :0.77970: L2-HR :0.77289: (Sim:2h57m44s) 
CPU  0 inst: 2362000003 cyc: 2285050382 now IPC :1.95268: AVG IPC :1.03324: L2-Pf-HR :0.77971: L2-HR :0.77291: (Sim:2h57m48s) 
CPU  0 inst: 2363000003 cyc: 2285657234 now IPC :1.64785: AVG IPC :1.03341: L2-Pf-HR :0.77969: L2-HR :0.77289: (Sim:2h57m53s) 
Finished CPU 0 instr: 2361000003 cyc: 2284676343 AVG IPC: 1.03341 (Sim time: 2h57m53s)

ChampSim completed all CPUs

[ROI Statistics]
Core_0_instructions 2361000003
Core_0_cycles 2284676343
Core_0_IPC 1.03341

Core_0_branch_prediction_accuracy 98.59504
Core_0_branch_MPKI 0.33667
Core_0_average_ROB_occupancy_at_mispredict 251.11722

Core_0_L1D_total_access 1398715741
Core_0_L1D_total_hit 1346798887 L1D_total_Hit Ratio: 0.96288
Core_0_L1D_total_miss 51916854
Core_0_L1D_loads 537524396
Core_0_L1D_load_hit 515736456 L1D_load_Hit Ratio: 0.95947
Core_0_L1D_load_miss 21787940
Core_0_L1D_RFOs 45727727
Core_0_L1D_RFO_hit 43259562 L1D_RFO_Hit Ratio: 0.94602
Core_0_L1D_RFO_miss 2468165
Core_0_L1D_prefetches 815463618
Core_0_L1D_prefetch_hit 787802869 L1D_prefetch_Hit Ratio: 0.96608
Core_0_L1D_prefetch_miss 27660749
Core_0_L1D_writebacks 0
Core_0_L1D_writeback_hit 0 L1D_writeback_Hit Ratio: -nan
Core_0_L1D_writeback_miss 0
Core_0_L1D_prefetch_requested 1618672119
Core_0_L1D_prefetch_issued 978881628
Core_0_L1D_prefetch_useful 22358500 L1D_Useful Ratio: 0.02284
Core_0_L1D_prefetch_useless 5330430
Core_0_L1D_prefetch_late 4614023
Core_0_L1D_average_miss_latency 89065742.21430

Core_0_L1I_total_access 543961674
Core_0_L1I_total_hit 543956760 L1I_total_Hit Ratio: 0.99999
Core_0_L1I_total_miss 4914
Core_0_L1I_loads 543961674
Core_0_L1I_load_hit 543956760 L1I_load_Hit Ratio: 0.99999
Core_0_L1I_load_miss 4914
Core_0_L1I_RFOs 0
Core_0_L1I_RFO_hit 0 L1I_RFO_Hit Ratio: -nan
Core_0_L1I_RFO_miss 0
Core_0_L1I_prefetches 0
Core_0_L1I_prefetch_hit 0 L1I_prefetch_Hit Ratio: -nan
Core_0_L1I_prefetch_miss 0
Core_0_L1I_writebacks 0
Core_0_L1I_writeback_hit 0 L1I_writeback_Hit Ratio: -nan
Core_0_L1I_writeback_miss 0
Core_0_L1I_prefetch_requested 0
Core_0_L1I_prefetch_issued 0
Core_0_L1I_prefetch_useful 0 L1I_Useful Ratio: -nan
Core_0_L1I_prefetch_useless 0
Core_0_L1I_prefetch_late 0
Core_0_L1I_average_miss_latency 335.40639

Core_0_L2C_total_access 226701552
Core_0_L2C_total_hit 175216216 L2C_total_Hit Ratio: 0.77289
Core_0_L2C_total_miss 51485336
Core_0_L2C_loads 17179845
Core_0_L2C_load_hit 11090113 L2C_load_Hit Ratio: 0.64553
Core_0_L2C_load_miss 6089732
Core_0_L2C_RFOs 2468102
Core_0_L2C_RFO_hit 327108 L2C_RFO_Hit Ratio: 0.13253
Core_0_L2C_RFO_miss 2140994
Core_0_L2C_prefetches 195017305
Core_0_L2C_prefetch_hit 152053306 L2C_prefetch_Hit Ratio: 0.77969
Core_0_L2C_prefetch_miss 42963999
Core_0_L2C_writebacks 12036300
Core_0_L2C_writeback_hit 11745689 L2C_writeback_Hit Ratio: 0.97586
Core_0_L2C_writeback_miss 290611
Core_0_L2C_prefetch_requested 326424295
Core_0_L2C_prefetch_issued 257079261
Core_0_L2C_prefetch_useful 10039807 L2C_Useful Ratio: 0.03905
Core_0_L2C_prefetch_useless 32963951
Core_0_L2C_prefetch_late 295001
Core_0_L2C_average_miss_latency 124.72924

Core_0_LLC_total_access 64072427
Core_0_LLC_total_hit 49255390 LLC_total_Hit Ratio: 0.76875
Core_0_LLC_total_miss 14817037
Core_0_LLC_loads 5794765
Core_0_LLC_load_hit 4282802 LLC_load_Hit Ratio: 0.73908
Core_0_LLC_load_miss 1511963
Core_0_LLC_RFOs 2140951
Core_0_LLC_RFO_hit 133663 LLC_RFO_Hit Ratio: 0.06243
Core_0_LLC_RFO_miss 2007288
Core_0_LLC_prefetches 44244667
Core_0_LLC_prefetch_hit 32948717 LLC_prefetch_Hit Ratio: 0.74469
Core_0_LLC_prefetch_miss 11295950
Core_0_LLC_writebacks 11892044
Core_0_LLC_writeback_hit 11890208 LLC_writeback_Hit Ratio: 0.99985
Core_0_LLC_writeback_miss 1836
Core_0_LLC_prefetch_requested 0
Core_0_LLC_prefetch_issued 0
Core_0_LLC_prefetch_useful 2277189 LLC_Useful Ratio: inf
Core_0_LLC_prefetch_useless 9018241
Core_0_LLC_prefetch_late 79222
Core_0_LLC_average_miss_latency 351.16608

Core_0_major_page_fault 0
Core_0_minor_page_fault 83038

CPU 0 L1D next line prefetcher final stats
CPU 0 L2C PC-based stride prefetcher final stats
Stride Degree: 15
MK1  MARKOV_LRU_SIZE: 128
MK1  MARKOV_PREDICTION_PERCENTTHRESHOLD: 40.00000
MK1  OUTLIERS_THRESHOLD_Max: 64
MK1  OUTLIERS_THRESHOLD_Min: 32
MK2  MARKOV_LRU_SIZE: 256
MK2  MARKOV_PREDICTION_PERCENTTHRESHOLD: 20.00000
MK2  OUTLIERS_THRESHOLD_Max: 32
MK2  OUTLIERS_THRESHOLD_Min: 16
MK3  MARKOV_LRU_SIZE: 384
MK3  MARKOV_PREDICTION_PERCENTTHRESHOLD: 25.00000
MK3  OUTLIERS_THRESHOLD_Max: 16
MK3  OUTLIERS_THRESHOLD_Min: 8
MK4  MARKOV_LRU_SIZE: 512
MK4  MARKOV_PREDICTION_PERCENTTHRESHOLD: 20.00000
MK4  OUTLIERS_THRESHOLD_Max: 8
MK4  OUTLIERS_THRESHOLD_Min: 0
IPStride Degree/Access Ratio: 4.80882
MK1 IPDEltaMarkov  Degree/Access Ratio: 0.20652
MK2 IPDEltaMarkov  Degree/Access Ratio: 0.24626
MK3 IPDEltaMarkov  Degree/Access Ratio: 0.48794
MK4 IPDEltaMarkov  Degree/Access Ratio: 1.42562
Channel_0_RQ_row_buffer_hit 7708194
Channel_0_RQ_row_buffer_miss 7104438
Channel_0_WQ_row_buffer_hit 1650026
Channel_0_WQ_row_buffer_miss 5933326
Channel_0_WQ_full 0
Channel_0_dbus_congested 14651635

avg_congested_cycle 11

EzSearch AVG IPC :1.03341: L2-Pf-HR :0.77969 : L2-HR :0.77289 Uful:0.03905
     > Finished combination: TraceType=770-tot Sim:2361000000 Prefetcher=L2029-SecTOP-L2-MultiMarkovDelta_ip_stride_v4 L1=next_line
