TRACE: [32000000]_FE_[OPT-125M]_[h12]_[s256]_[d64] Warmup: 2000000 NumTraces: 32000000
L1:no:L2:spp_berti_src
Initialize SIGNATURE TABLE
ST_SET: 1
ST_WAY: 256
ST_TAG_BIT: 16
ST_TAG_MASK: ffff

Initialize PATTERN TABLE
PT_SET: 512
PT_WAY: 4
SIG_DELTA_BIT: 7
C_SIG_BIT: 4
C_DELTA_BIT: 4

Initialize PREFETCH FILTER
FILTER_SET: 1024
*************************************************
   ChampSim Multicore Out-of-Order Simulator
   Last compiled: Oct 26 2024 16:15:42
*************************************************

trace_0 770-tot_memTraces_v3/memTraces[32000000]_FE_[OPT-125M]_[h12]_[s256]_[d64].champsim.xz
ST_WAYS: 256
PT_SETS: 512
MAIN.cc ln 751 stats print skipped
CPU  0 inst:    1000000 cyc:     503569 now IPC :1.98583: AVG IPC :1.98583: L2-Pf-HR :0.97902: L2-HR :0.87772: (Sim:0h0m4s) 
CPU  0 inst:    2000003 cyc:     983715 now IPC :2.08271: AVG IPC :2.03311: L2-Pf-HR :0.98221: L2-HR :0.90162: (Sim:0h0m9s) 

Warmup complete CPU  0 instructions:    2000003 cycles:     983715 (Simulation time: 0 hr 0 min 9 sec) 

CPU  0 inst:    3000002 cyc:    1653636 now IPC :1.49271: AVG IPC :1.49271: L2-Pf-HR :0.99003: L2-HR :0.91898: (Sim:0h0m12s) 
CPU  0 inst:    4000000 cyc:    2327603 now IPC :1.48375: AVG IPC :1.48822: L2-Pf-HR :0.98975: L2-HR :0.91984: (Sim:0h0m15s) 
CPU  0 inst:    5000003 cyc:    3005892 now IPC :1.47430: AVG IPC :1.48355: L2-Pf-HR :0.98970: L2-HR :0.92037: (Sim:0h0m18s) 
CPU  0 inst:    6000000 cyc:    3715697 now IPC :1.40883: AVG IPC :1.46414: L2-Pf-HR :0.98966: L2-HR :0.91975: (Sim:0h0m22s) 
CPU  0 inst:    7000003 cyc:    4445325 now IPC :1.37057: AVG IPC :1.44441: L2-Pf-HR :0.98963: L2-HR :0.91952: (Sim:0h0m24s) 
CPU  0 inst:    8000000 cyc:    5184712 now IPC :1.35247: AVG IPC :1.42823: L2-Pf-HR :0.98959: L2-HR :0.91926: (Sim:0h0m27s) 
CPU  0 inst:    9000000 cyc:    5918869 now IPC :1.36211: AVG IPC :1.41839: L2-Pf-HR :0.98961: L2-HR :0.91941: (Sim:0h0m30s) 
CPU  0 inst:   10000002 cyc:    6654864 now IPC :1.35871: AVG IPC :1.41065: L2-Pf-HR :0.98960: L2-HR :0.91922: (Sim:0h0m32s) 
CPU  0 inst:   11000001 cyc:    7395686 now IPC :1.34985: AVG IPC :1.40362: L2-Pf-HR :0.98954: L2-HR :0.91920: (Sim:0h0m35s) 
CPU  0 inst:   12000000 cyc:    8138907 now IPC :1.34549: AVG IPC :1.39759: L2-Pf-HR :0.98951: L2-HR :0.91906: (Sim:0h0m38s) 
CPU  0 inst:   13000002 cyc:    9933841 now IPC :0.55712: AVG IPC :1.22903: L2-Pf-HR :0.98894: L2-HR :0.90197: (Sim:0h0m42s) 
CPU  0 inst:   14000000 cyc:   14018959 now IPC :0.24479: AVG IPC :0.92058: L2-Pf-HR :0.98305: L2-HR :0.87663: (Sim:0h0m47s) 
CPU  0 inst:   15000000 cyc:   17601171 now IPC :0.27916: AVG IPC :0.78231: L2-Pf-HR :0.97628: L2-HR :0.86709: (Sim:0h0m53s) 
CPU  0 inst:   16000000 cyc:   21184566 now IPC :0.27906: AVG IPC :0.69304: L2-Pf-HR :0.96961: L2-HR :0.85798: (Sim:0h0m58s) 
CPU  0 inst:   17000000 cyc:   24767887 now IPC :0.27907: AVG IPC :0.63067: L2-Pf-HR :0.96302: L2-HR :0.84928: (Sim:0h1m3s) 
CPU  0 inst:   18000000 cyc:   28356779 now IPC :0.27864: AVG IPC :0.58452: L2-Pf-HR :0.95653: L2-HR :0.84095: (Sim:0h1m8s) 
CPU  0 inst:   19000000 cyc:   31946703 now IPC :0.27856: AVG IPC :0.54904: L2-Pf-HR :0.95012: L2-HR :0.83298: (Sim:0h1m13s) 
CPU  0 inst:   20000000 cyc:   34068093 now IPC :0.47139: AVG IPC :0.54406: L2-Pf-HR :0.95015: L2-HR :0.83732: (Sim:0h1m17s) 
CPU  0 inst:   21000001 cyc:   34771484 now IPC :1.42169: AVG IPC :0.56233: L2-Pf-HR :0.95457: L2-HR :0.85120: (Sim:0h1m20s) 
CPU  0 inst:   22000000 cyc:   35471006 now IPC :1.42955: AVG IPC :0.57992: L2-Pf-HR :0.95803: L2-HR :0.86234: (Sim:0h1m23s) 
CPU  0 inst:   23000000 cyc:   36162625 now IPC :1.44588: AVG IPC :0.59695: L2-Pf-HR :0.96099: L2-HR :0.87172: (Sim:0h1m26s) 
CPU  0 inst:   24000000 cyc:   36845250 now IPC :1.46493: AVG IPC :0.61347: L2-Pf-HR :0.96345: L2-HR :0.87967: (Sim:0h1m29s) 
CPU  0 inst:   25000001 cyc:   37524486 now IPC :1.47224: AVG IPC :0.62943: L2-Pf-HR :0.96548: L2-HR :0.88617: (Sim:0h1m32s) 
CPU  0 inst:   26000003 cyc:   38192759 now IPC :1.49640: AVG IPC :0.64500: L2-Pf-HR :0.96723: L2-HR :0.89179: (Sim:0h1m35s) 
CPU  0 inst:   27000000 cyc:   38859454 now IPC :1.49993: AVG IPC :0.66005: L2-Pf-HR :0.96872: L2-HR :0.89668: (Sim:0h1m38s) 
CPU  0 inst:   28000000 cyc:   39519727 now IPC :1.51453: AVG IPC :0.67469: L2-Pf-HR :0.97014: L2-HR :0.90122: (Sim:0h1m41s) 
CPU  0 inst:   29000000 cyc:   40188394 now IPC :1.49551: AVG IPC :0.68869: L2-Pf-HR :0.97131: L2-HR :0.90505: (Sim:0h1m44s) 
Finished CPU 0 instr: 27000001 cyc: 39204680 AVG IPC: 0.68869 (Sim time: 0h1m44s)

ChampSim completed all CPUs

[ROI Statistics]
Core_0_instructions 27000001
Core_0_cycles 39204680
Core_0_IPC 0.68869

Core_0_branch_prediction_accuracy 98.37822
Core_0_branch_MPKI 0.53456
Core_0_average_ROB_occupancy_at_mispredict 195.39112

Core_0_L1D_total_access 8160380
Core_0_L1D_total_hit 7157640 L1D_total_Hit Ratio: 0.87712
Core_0_L1D_total_miss 1002740
Core_0_L1D_loads 7336150
Core_0_L1D_load_hit 6383566 L1D_load_Hit Ratio: 0.87015
Core_0_L1D_load_miss 952584
Core_0_L1D_RFOs 824230
Core_0_L1D_RFO_hit 774074 L1D_RFO_Hit Ratio: 0.93915
Core_0_L1D_RFO_miss 50156
Core_0_L1D_prefetches 0
Core_0_L1D_prefetch_hit 0 L1D_prefetch_Hit Ratio: -nan
Core_0_L1D_prefetch_miss 0
Core_0_L1D_writebacks 0
Core_0_L1D_writeback_hit 0 L1D_writeback_Hit Ratio: -nan
Core_0_L1D_writeback_miss 0
Core_0_L1D_prefetch_requested 0
Core_0_L1D_prefetch_issued 0
Core_0_L1D_prefetch_useful 0 L1D_Useful Ratio: -nan
Core_0_L1D_prefetch_useless 0
Core_0_L1D_prefetch_late 0
Core_0_L1D_average_miss_latency 55.95483

Core_0_L1I_total_access 6672661
Core_0_L1I_total_hit 6667935 L1I_total_Hit Ratio: 0.99929
Core_0_L1I_total_miss 4726
Core_0_L1I_loads 6672661
Core_0_L1I_load_hit 6667935 L1I_load_Hit Ratio: 0.99929
Core_0_L1I_load_miss 4726
Core_0_L1I_RFOs 0
Core_0_L1I_RFO_hit 0 L1I_RFO_Hit Ratio: -nan
Core_0_L1I_RFO_miss 0
Core_0_L1I_prefetches 0
Core_0_L1I_prefetch_hit 0 L1I_prefetch_Hit Ratio: -nan
Core_0_L1I_prefetch_miss 0
Core_0_L1I_writebacks 0
Core_0_L1I_writeback_hit 0 L1I_writeback_Hit Ratio: -nan
Core_0_L1I_writeback_miss 0
Core_0_L1I_prefetch_requested 0
Core_0_L1I_prefetch_issued 0
Core_0_L1I_prefetch_useful 0 L1I_Useful Ratio: -nan
Core_0_L1I_prefetch_useless 0
Core_0_L1I_prefetch_late 0
Core_0_L1I_average_miss_latency 305.76407

Core_0_L2C_total_access 3179665
Core_0_L2C_total_hit 2877762 L2C_total_Hit Ratio: 0.90505
Core_0_L2C_total_miss 301903
Core_0_L2C_loads 957310
Core_0_L2C_load_hit 763380 L2C_load_Hit Ratio: 0.79742
Core_0_L2C_load_miss 193930
Core_0_L2C_RFOs 50156
Core_0_L2C_RFO_hit 498 L2C_RFO_Hit Ratio: 0.00993
Core_0_L2C_RFO_miss 49658
Core_0_L2C_prefetches 1995927
Core_0_L2C_prefetch_hit 1938672 L2C_prefetch_Hit Ratio: 0.97131
Core_0_L2C_prefetch_miss 57255
Core_0_L2C_writebacks 176272
Core_0_L2C_writeback_hit 175212 L2C_writeback_Hit Ratio: 0.99399
Core_0_L2C_writeback_miss 1060
Core_0_L2C_prefetch_requested 5186586
Core_0_L2C_prefetch_issued 5177411
Core_0_L2C_prefetch_useful 59105 L2C_Useful Ratio: 0.01142
Core_0_L2C_prefetch_useless 903
Core_0_L2C_prefetch_late 19471
Core_0_L2C_average_miss_latency 152.89022

Core_0_LLC_total_access 1228042
Core_0_LLC_total_hit 953513 LLC_total_Hit Ratio: 0.77645
Core_0_LLC_total_miss 274529
Core_0_LLC_loads 174483
Core_0_LLC_load_hit 108845 LLC_load_Hit Ratio: 0.62381
Core_0_LLC_load_miss 65638
Core_0_LLC_RFOs 49658
Core_0_LLC_RFO_hit 349 LLC_RFO_Hit Ratio: 0.00703
Core_0_LLC_RFO_miss 49309
Core_0_LLC_prefetches 830462
Core_0_LLC_prefetch_hit 671104 LLC_prefetch_Hit Ratio: 0.80811
Core_0_LLC_prefetch_miss 159358
Core_0_LLC_writebacks 173439
Core_0_LLC_writeback_hit 173215 LLC_writeback_Hit Ratio: 0.99871
Core_0_LLC_writeback_miss 224
Core_0_LLC_prefetch_requested 0
Core_0_LLC_prefetch_issued 0
Core_0_LLC_prefetch_useful 99298 LLC_Useful Ratio: inf
Core_0_LLC_prefetch_useless 60905
Core_0_LLC_prefetch_late 25412
Core_0_LLC_average_miss_latency 291.01598

Core_0_major_page_fault 0
Core_0_minor_page_fault 3170

 All Calls: 1001507
 Critical Calls: 1001507
------------------
Depth Distribution
------------------
depth 0: 0
depth 1: 695792
depth 2: 661025
depth 3: 627876
depth 4: 591146
depth 5: 540866
depth 6: 488319
depth 7: 423166
depth 8: 350806
depth 9: 272313
depth 10: 217149
depth 11: 150070
depth 12: 94127
depth 13: 44501
depth 14: 10455
depth 15: 9746
depth 16: 54
depth 17: 0
depth 18: 0
depth 19: 0
depth 20: 0
depth 21: 0
depth 22: 0
depth 23: 0
depth 24: 0
depth 25: 0
depth 26: 0
depth 27: 0
depth 28: 0
depth 29: 0
Total: 5177411
-----------------------------
-----------------------------
	Captured at Filter
-----------------------------
depth 0: 0
depth 1: 269460
depth 2: 252152
depth 3: 233417
depth 4: 213171
depth 5: 193229
depth 6: 165154
depth 7: 131729
depth 8: 91360
depth 9: 56565
depth 10: 39483
depth 11: 22856
depth 12: 10665
depth 13: 4345
depth 14: 426
depth 15: 240
depth 16: 1
depth 17: 0
depth 18: 0
depth 19: 0
depth 20: 0
depth 21: 0
depth 22: 0
depth 23: 0
depth 24: 0
depth 25: 0
depth 26: 0
depth 27: 0
depth 28: 0
depth 29: 0
-----------------------------
-----------------------------
		Lost at Page
-----------------------------
depth 0: 0
depth 1: 45489
depth 2: 74760
depth 3: 106480
depth 4: 135987
depth 5: 167753
depth 6: 189575
depth 7: 204322
depth 8: 211503
depth 9: 190627
depth 10: 190077
depth 11: 158303
depth 12: 113677
depth 13: 61326
depth 14: 14180
depth 15: 14162
depth 16: 39
depth 17: 0
depth 18: 0
depth 19: 0
depth 20: 0
depth 21: 0
depth 22: 0
depth 23: 0
depth 24: 0
depth 25: 0
depth 26: 0
depth 27: 0
depth 28: 0
depth 29: 0
-----------------------------
-----------------------------
	Lost due to PQ Size
-----------------------------
9175
-----------------------------
ST read accesses: 952618
ST write accesses: 4692
PT read accesses: 47460709
PT write accesses: 1424344
FILTER read accesses: 7823563
FILTER write accesses: 979098
GHR read accesses: 12014229
GHR write accesses: 1851261
GHR counter read accesses: 39296756
GHR counter write accesses: 1635429
ST tag read accesses: 373453112
ST tag write accesses: 4340978
Channel_0_RQ_row_buffer_hit 127009
Channel_0_RQ_row_buffer_miss 147296
Channel_0_WQ_row_buffer_hit 55398
Channel_0_WQ_row_buffer_miss 97837
Channel_0_WQ_full 0
Channel_0_dbus_congested 205988

avg_congested_cycle 11

EzSearch AVG IPC :0.68869: L2-Pf-HR :0.97131 : L2-HR :0.90505 Uful:0.01142
     > Finished combination: TraceType=770-tot Sim:27000000 Prefetcher=L2spp_berti_src L1=no
