TRACE: [21000000]_FE_[Pythia-70M]_[h8]_[s256]_[d64] Warmup: 2000000 NumTraces: 21000000
L1:ipcp:L2:ipcp
*************************************************
   ChampSim Multicore Out-of-Order Simulator
   Last compiled: Oct 26 2024 16:11:34
*************************************************

trace_0 770-tot_memTraces_v3/memTraces[21000000]_FE_[Pythia-70M]_[h8]_[s256]_[d64].champsim.xz
MAIN.cc ln 751 stats print skipped
CPU  0 inst:    1000001 cyc:     503257 now IPC :1.98706: AVG IPC :1.98706: L2-Pf-HR :0.85265: L2-HR :0.77059: (Sim:0h0m4s) 
CPU  0 inst:    2000003 cyc:     982153 now IPC :2.08814: AVG IPC :2.03635: L2-Pf-HR :0.88967: L2-HR :0.80622: (Sim:0h0m9s) 

Warmup complete CPU  0 instructions:    2000003 cycles:     982153 (Simulation time: 0 hr 0 min 9 sec) 

CPU  0 inst:    3000000 cyc:    1686810 now IPC :1.41913: AVG IPC :1.41913: L2-Pf-HR :0.91126: L2-HR :0.82634: (Sim:0h0m14s) 
CPU  0 inst:    4000000 cyc:    2385150 now IPC :1.43197: AVG IPC :1.42552: L2-Pf-HR :0.90830: L2-HR :0.82746: (Sim:0h0m18s) 
CPU  0 inst:    5000000 cyc:    3100265 now IPC :1.39838: AVG IPC :1.41635: L2-Pf-HR :0.90870: L2-HR :0.82868: (Sim:0h0m23s) 
CPU  0 inst:    6000003 cyc:    3853349 now IPC :1.32788: AVG IPC :1.39315: L2-Pf-HR :0.90728: L2-HR :0.82784: (Sim:0h0m27s) 
CPU  0 inst:    7000003 cyc:    4640292 now IPC :1.27074: AVG IPC :1.36682: L2-Pf-HR :0.90814: L2-HR :0.82813: (Sim:0h0m32s) 
CPU  0 inst:    8000000 cyc:    5430549 now IPC :1.26541: AVG IPC :1.34880: L2-Pf-HR :0.90774: L2-HR :0.82747: (Sim:0h0m37s) 
CPU  0 inst:    9000000 cyc:    7920809 now IPC :0.40156: AVG IPC :1.00884: L2-Pf-HR :0.79761: L2-HR :0.76561: (Sim:0h0m45s) 
CPU  0 inst:   10000000 cyc:   11359661 now IPC :0.29079: AVG IPC :0.77090: L2-Pf-HR :0.76896: L2-HR :0.74462: (Sim:0h0m53s) 
CPU  0 inst:   11000000 cyc:   14802053 now IPC :0.29050: AVG IPC :0.65123: L2-Pf-HR :0.74258: L2-HR :0.72576: (Sim:0h1m1s) 
CPU  0 inst:   12000000 cyc:   18243382 now IPC :0.29059: AVG IPC :0.57933: L2-Pf-HR :0.71874: L2-HR :0.70903: (Sim:0h1m10s) 
CPU  0 inst:   13000000 cyc:   21684480 now IPC :0.29060: AVG IPC :0.53134: L2-Pf-HR :0.69697: L2-HR :0.69405: (Sim:0h1m15s) 
CPU  0 inst:   14000002 cyc:   22563462 now IPC :1.13768: AVG IPC :0.55604: L2-Pf-HR :0.74315: L2-HR :0.73589: (Sim:0h1m18s) 
CPU  0 inst:   15000000 cyc:   23229511 now IPC :1.50139: AVG IPC :0.58434: L2-Pf-HR :0.77654: L2-HR :0.76835: (Sim:0h1m21s) 
CPU  0 inst:   16000000 cyc:   23893674 now IPC :1.50565: AVG IPC :0.61105: L2-Pf-HR :0.80061: L2-HR :0.79247: (Sim:0h1m24s) 
CPU  0 inst:   17000001 cyc:   24546821 now IPC :1.53105: AVG IPC :0.63655: L2-Pf-HR :0.81853: L2-HR :0.81090: (Sim:0h1m27s) 
CPU  0 inst:   18000000 cyc:   25192504 now IPC :1.54875: AVG IPC :0.66087: L2-Pf-HR :0.83294: L2-HR :0.82586: (Sim:0h1m30s) 
Finished CPU 0 instr: 16000001 cyc: 24210352 AVG IPC: 0.66087 (Sim time: 0h1m30s)

ChampSim completed all CPUs

[ROI Statistics]
Core_0_instructions 16000001
Core_0_cycles 24210352
Core_0_IPC 0.66087

Core_0_branch_prediction_accuracy 98.24557
Core_0_branch_MPKI 0.63131
Core_0_average_ROB_occupancy_at_mispredict 187.82477

Core_0_L1D_total_access 8105477
Core_0_L1D_total_hit 7529253 L1D_total_Hit Ratio: 0.92891
Core_0_L1D_total_miss 576224
Core_0_L1D_loads 4330505
Core_0_L1D_load_hit 4082524 L1D_load_Hit Ratio: 0.94274
Core_0_L1D_load_miss 247981
Core_0_L1D_RFOs 550552
Core_0_L1D_RFO_hit 529504 L1D_RFO_Hit Ratio: 0.96177
Core_0_L1D_RFO_miss 21048
Core_0_L1D_prefetches 3224420
Core_0_L1D_prefetch_hit 2917225 L1D_prefetch_Hit Ratio: 0.90473
Core_0_L1D_prefetch_miss 307195
Core_0_L1D_writebacks 0
Core_0_L1D_writeback_hit 0 L1D_writeback_Hit Ratio: -nan
Core_0_L1D_writeback_miss 0
Core_0_L1D_prefetch_requested 9377519
Core_0_L1D_prefetch_issued 5071825
Core_0_L1D_prefetch_useful 319066 L1D_Useful Ratio: 0.06291
Core_0_L1D_prefetch_useless 14132
Core_0_L1D_prefetch_late 33555
Core_0_L1D_average_miss_latency 445005.54247

Core_0_L1I_total_access 4103623
Core_0_L1I_total_hit 4098911 L1I_total_Hit Ratio: 0.99885
Core_0_L1I_total_miss 4712
Core_0_L1I_loads 4103623
Core_0_L1I_load_hit 4098911 L1I_load_Hit Ratio: 0.99885
Core_0_L1I_load_miss 4712
Core_0_L1I_RFOs 0
Core_0_L1I_RFO_hit 0 L1I_RFO_Hit Ratio: -nan
Core_0_L1I_RFO_miss 0
Core_0_L1I_prefetches 0
Core_0_L1I_prefetch_hit 0 L1I_prefetch_Hit Ratio: -nan
Core_0_L1I_prefetch_miss 0
Core_0_L1I_writebacks 0
Core_0_L1I_writeback_hit 0 L1I_writeback_Hit Ratio: -nan
Core_0_L1I_writeback_miss 0
Core_0_L1I_prefetch_requested 0
Core_0_L1I_prefetch_issued 0
Core_0_L1I_prefetch_useful 0 L1I_Useful Ratio: -nan
Core_0_L1I_prefetch_useless 0
Core_0_L1I_prefetch_late 0
Core_0_L1I_average_miss_latency 292.75149

Core_0_L2C_total_access 1117104
Core_0_L2C_total_hit 922569 L2C_total_Hit Ratio: 0.82586
Core_0_L2C_total_miss 194535
Core_0_L2C_loads 219251
Core_0_L2C_load_hit 171870 L2C_load_Hit Ratio: 0.78390
Core_0_L2C_load_miss 47381
Core_0_L2C_RFOs 21040
Core_0_L2C_RFO_hit 2334 L2C_RFO_Hit Ratio: 0.11093
Core_0_L2C_RFO_miss 18706
Core_0_L2C_prefetches 764675
Core_0_L2C_prefetch_hit 636928 L2C_prefetch_Hit Ratio: 0.83294
Core_0_L2C_prefetch_miss 127747
Core_0_L2C_writebacks 112138
Core_0_L2C_writeback_hit 111437 L2C_writeback_Hit Ratio: 0.99375
Core_0_L2C_writeback_miss 701
Core_0_L2C_prefetch_requested 961149
Core_0_L2C_prefetch_issued 960350
Core_0_L2C_prefetch_useful 23882 L2C_Useful Ratio: 0.02487
Core_0_L2C_prefetch_useless 110767
Core_0_L2C_prefetch_late 1908
Core_0_L2C_average_miss_latency 286.61264

Core_0_LLC_total_access 304932
Core_0_LLC_total_hit 133000 LLC_total_Hit Ratio: 0.43616
Core_0_LLC_total_miss 171932
Core_0_LLC_loads 45598
Core_0_LLC_load_hit 8403 LLC_load_Hit Ratio: 0.18428
Core_0_LLC_load_miss 37195
Core_0_LLC_RFOs 18704
Core_0_LLC_RFO_hit 138 LLC_RFO_Hit Ratio: 0.00738
Core_0_LLC_RFO_miss 18566
Core_0_LLC_prefetches 129532
Core_0_LLC_prefetch_hit 13459 LLC_prefetch_Hit Ratio: 0.10390
Core_0_LLC_prefetch_miss 116073
Core_0_LLC_writebacks 111098
Core_0_LLC_writeback_hit 111000 LLC_writeback_Hit Ratio: 0.99912
Core_0_LLC_writeback_miss 98
Core_0_LLC_prefetch_requested 0
Core_0_LLC_prefetch_issued 0
Core_0_LLC_prefetch_useful 1908 LLC_Useful Ratio: inf
Core_0_LLC_prefetch_useless 93338
Core_0_LLC_prefetch_late 0
Core_0_LLC_average_miss_latency 290.84816

Core_0_major_page_fault 0
Core_0_minor_page_fault 2382


Channel_0_RQ_row_buffer_hit 81164
Channel_0_RQ_row_buffer_miss 90670
Channel_0_WQ_row_buffer_hit 28923
Channel_0_WQ_row_buffer_miss 69729
Channel_0_WQ_full 0
Channel_0_dbus_congested 150089

avg_congested_cycle 11

EzSearch AVG IPC :0.66087: L2-Pf-HR :0.83294 : L2-HR :0.82586 Uful:0.02487
     > Finished combination: TraceType=770-tot Sim:16000000 Prefetcher=L2ipcp L1=ipcp
