TRACE: [298000000][GPT-Neo_1_3B]_[h16][s512][d128] Warmup: 2000000 NumTraces: 298000000
L1:isb_ideal:L2:isb_ideal
*************************************************
   ChampSim Multicore Out-of-Order Simulator
   Last compiled: Oct 26 2024 14:09:35
*************************************************

trace_0 770-tot_memTraces_v3/memTraces[298000000][GPT-Neo_1_3B]_[h16][s512][d128].champsim.xz
L1D: Ideal ISB Prefetching
Ideal ISB Prefetching
MAIN.cc ln 751 stats print skipped
CPU  0 inst:    1000003 cyc:     503323 now IPC :1.98680: AVG IPC :1.98680: L2-Pf-HR :0.86264: L2-HR :0.77015: (Sim:0h0m5s) 
CPU  0 inst:    2000001 cyc:     981601 now IPC :2.09083: AVG IPC :2.03749: L2-Pf-HR :0.86231: L2-HR :0.80639: (Sim:0h0m10s) 

Warmup complete CPU  0 instructions:    2000001 cycles:     981601 (Simulation time: 0 hr 0 min 10 sec) 

CPU  0 inst:    3000003 cyc:    1673089 now IPC :1.44616: AVG IPC :1.44616: L2-Pf-HR :0.86302: L2-HR :0.84061: (Sim:0h0m14s) 
CPU  0 inst:    4000000 cyc:    2356272 now IPC :1.46373: AVG IPC :1.45489: L2-Pf-HR :0.86314: L2-HR :0.84162: (Sim:0h0m19s) 
CPU  0 inst:    5000003 cyc:    3047963 now IPC :1.44574: AVG IPC :1.45183: L2-Pf-HR :0.86291: L2-HR :0.84131: (Sim:0h0m23s) 
CPU  0 inst:    6000003 cyc:    3734600 now IPC :1.45637: AVG IPC :1.45296: L2-Pf-HR :0.86277: L2-HR :0.84168: (Sim:0h0m28s) 
CPU  0 inst:    7000000 cyc:    4420299 now IPC :1.45836: AVG IPC :1.45404: L2-Pf-HR :0.87900: L2-HR :0.85690: (Sim:0h0m32s) 
CPU  0 inst:    8000000 cyc:    5046556 now IPC :1.59679: AVG IPC :1.47603: L2-Pf-HR :0.89550: L2-HR :0.87266: (Sim:0h0m37s) 
CPU  0 inst:    9000003 cyc:    5903365 now IPC :1.16712: AVG IPC :1.42225: L2-Pf-HR :0.89202: L2-HR :0.86801: (Sim:0h0m42s) 
CPU  0 inst:   10000001 cyc:    6608959 now IPC :1.41724: AVG IPC :1.42163: L2-Pf-HR :0.88818: L2-HR :0.86496: (Sim:0h0m46s) 
CPU  0 inst:   11000003 cyc:    7318861 now IPC :1.40865: AVG IPC :1.42017: L2-Pf-HR :0.88515: L2-HR :0.86247: (Sim:0h0m51s) 
CPU  0 inst:   12000000 cyc:    8016042 now IPC :1.43434: AVG IPC :1.42158: L2-Pf-HR :0.88273: L2-HR :0.86072: (Sim:0h0m55s) 
CPU  0 inst:   13000003 cyc:    8728364 now IPC :1.40386: AVG IPC :1.41995: L2-Pf-HR :0.88070: L2-HR :0.85907: (Sim:0h1m0s) 
CPU  0 inst:   14000003 cyc:    9431464 now IPC :1.42227: AVG IPC :1.42014: L2-Pf-HR :0.87899: L2-HR :0.85795: (Sim:0h1m5s) 
CPU  0 inst:   15000001 cyc:   10151943 now IPC :1.38796: AVG IPC :1.41761: L2-Pf-HR :0.88355: L2-HR :0.86205: (Sim:0h1m10s) 
CPU  0 inst:   16000000 cyc:   10808962 now IPC :1.52202: AVG IPC :1.42459: L2-Pf-HR :0.89037: L2-HR :0.86824: (Sim:0h1m14s) 
CPU  0 inst:   17000002 cyc:   11690211 now IPC :1.13476: AVG IPC :1.40074: L2-Pf-HR :0.88940: L2-HR :0.86660: (Sim:0h1m19s) 
CPU  0 inst:   18000001 cyc:   12393427 now IPC :1.42204: AVG IPC :1.40205: L2-Pf-HR :0.88764: L2-HR :0.86512: (Sim:0h1m24s) 
CPU  0 inst:   19000003 cyc:   13091199 now IPC :1.43314: AVG IPC :1.40385: L2-Pf-HR :0.88608: L2-HR :0.86389: (Sim:0h1m28s) 
CPU  0 inst:   20000000 cyc:   13801179 now IPC :1.40849: AVG IPC :1.40410: L2-Pf-HR :0.88467: L2-HR :0.86268: (Sim:0h1m33s) 
CPU  0 inst:   21000003 cyc:   14509141 now IPC :1.41251: AVG IPC :1.40454: L2-Pf-HR :0.88338: L2-HR :0.86156: (Sim:0h1m38s) 
CPU  0 inst:   22000003 cyc:   15211205 now IPC :1.42437: AVG IPC :1.40552: L2-Pf-HR :0.88225: L2-HR :0.86077: (Sim:0h1m42s) 
CPU  0 inst:   23000001 cyc:   15939294 now IPC :1.37346: AVG IPC :1.40396: L2-Pf-HR :0.88467: L2-HR :0.86296: (Sim:0h1m47s) 
CPU  0 inst:   24000000 cyc:   16594127 now IPC :1.52711: AVG IPC :1.40912: L2-Pf-HR :0.88895: L2-HR :0.86688: (Sim:0h1m52s) 
CPU  0 inst:   25000000 cyc:   17473367 now IPC :1.13735: AVG IPC :1.39464: L2-Pf-HR :0.88855: L2-HR :0.86600: (Sim:0h1m57s) 
CPU  0 inst:   26000001 cyc:   18175765 now IPC :1.42370: AVG IPC :1.39582: L2-Pf-HR :0.88739: L2-HR :0.86498: (Sim:0h2m2s) 
CPU  0 inst:   27000003 cyc:   18872503 now IPC :1.43526: AVG IPC :1.39736: L2-Pf-HR :0.88633: L2-HR :0.86414: (Sim:0h2m6s) 
CPU  0 inst:   28000000 cyc:   19577266 now IPC :1.41891: AVG IPC :1.39818: L2-Pf-HR :0.88537: L2-HR :0.86328: (Sim:0h2m11s) 
CPU  0 inst:   29000003 cyc:   20283606 now IPC :1.41575: AVG IPC :1.39882: L2-Pf-HR :0.88445: L2-HR :0.86245: (Sim:0h2m15s) 
CPU  0 inst:   30000002 cyc:   20980831 now IPC :1.43426: AVG IPC :1.40005: L2-Pf-HR :0.88361: L2-HR :0.86184: (Sim:0h2m20s) 
CPU  0 inst:   31000002 cyc:   21705008 now IPC :1.38088: AVG IPC :1.39938: L2-Pf-HR :0.88521: L2-HR :0.86326: (Sim:0h2m25s) 
CPU  0 inst:   32000000 cyc:   22360315 now IPC :1.52600: AVG IPC :1.40326: L2-Pf-HR :0.88832: L2-HR :0.86606: (Sim:0h2m30s) 
CPU  0 inst:   33000002 cyc:   23241167 now IPC :1.13527: AVG IPC :1.39266: L2-Pf-HR :0.88815: L2-HR :0.86551: (Sim:0h2m35s) 
CPU  0 inst:   34000000 cyc:   23952191 now IPC :1.40642: AVG IPC :1.39309: L2-Pf-HR :0.88728: L2-HR :0.86473: (Sim:0h2m40s) 
CPU  0 inst:   35000003 cyc:   24654775 now IPC :1.42332: AVG IPC :1.39398: L2-Pf-HR :0.88648: L2-HR :0.86407: (Sim:0h2m44s) 
CPU  0 inst:   36000000 cyc:   25366688 now IPC :1.40466: AVG IPC :1.39429: L2-Pf-HR :0.88572: L2-HR :0.86341: (Sim:0h2m49s) 
CPU  0 inst:   37000000 cyc:   26064996 now IPC :1.43203: AVG IPC :1.39535: L2-Pf-HR :0.88498: L2-HR :0.86281: (Sim:0h2m54s) 
CPU  0 inst:   38000002 cyc:   26776765 now IPC :1.40495: AVG IPC :1.39561: L2-Pf-HR :0.88430: L2-HR :0.86224: (Sim:0h2m58s) 
CPU  0 inst:   39000000 cyc:   27506137 now IPC :1.37104: AVG IPC :1.39493: L2-Pf-HR :0.88541: L2-HR :0.86323: (Sim:0h3m3s) 
CPU  0 inst:   40000000 cyc:   28161010 now IPC :1.52701: AVG IPC :1.39812: L2-Pf-HR :0.88789: L2-HR :0.86544: (Sim:0h3m8s) 
CPU  0 inst:   41000002 cyc:   29043410 now IPC :1.13328: AVG IPC :1.38979: L2-Pf-HR :0.88788: L2-HR :0.86510: (Sim:0h3m11s) 
CPU  0 inst:   42000001 cyc:   29738650 now IPC :1.43835: AVG IPC :1.39096: L2-Pf-HR :0.88718: L2-HR :0.86453: (Sim:0h3m14s) 
CPU  0 inst:   43000003 cyc:   30444146 now IPC :1.41745: AVG IPC :1.39160: L2-Pf-HR :0.88653: L2-HR :0.86395: (Sim:0h3m19s) 
CPU  0 inst:   44000000 cyc:   31149653 now IPC :1.41742: AVG IPC :1.39220: L2-Pf-HR :0.88590: L2-HR :0.86337: (Sim:0h3m24s) 
CPU  0 inst:   45000000 cyc:   31848198 now IPC :1.43155: AVG IPC :1.39309: L2-Pf-HR :0.88529: L2-HR :0.86289: (Sim:0h3m28s) 
CPU  0 inst:   46000002 cyc:   32558038 now IPC :1.40877: AVG IPC :1.39344: L2-Pf-HR :0.88472: L2-HR :0.86241: (Sim:0h3m33s) 
CPU  0 inst:   47000002 cyc:   33280801 now IPC :1.38358: AVG IPC :1.39322: L2-Pf-HR :0.88553: L2-HR :0.86313: (Sim:0h3m38s) 
CPU  0 inst:   48000000 cyc:   33939629 now IPC :1.51784: AVG IPC :1.39571: L2-Pf-HR :0.88757: L2-HR :0.86494: (Sim:0h3m41s) 
CPU  0 inst:   49000002 cyc:   34812894 now IPC :1.14513: AVG IPC :1.38925: L2-Pf-HR :0.88765: L2-HR :0.86474: (Sim:0h3m46s) 
CPU  0 inst:   50000001 cyc:   35511203 now IPC :1.43203: AVG IPC :1.39011: L2-Pf-HR :0.88707: L2-HR :0.86427: (Sim:0h3m51s) 
CPU  0 inst:   51000003 cyc:   36218723 now IPC :1.41339: AVG IPC :1.39058: L2-Pf-HR :0.88652: L2-HR :0.86377: (Sim:0h3m54s) 
CPU  0 inst:   52000000 cyc:   36935175 now IPC :1.39576: AVG IPC :1.39068: L2-Pf-HR :0.88598: L2-HR :0.86329: (Sim:0h3m58s) 
CPU  0 inst:   53000003 cyc:   37632387 now IPC :1.43429: AVG IPC :1.39151: L2-Pf-HR :0.88547: L2-HR :0.86288: (Sim:0h4m2s) 
CPU  0 inst:   54000002 cyc:   38345332 now IPC :1.40263: AVG IPC :1.39172: L2-Pf-HR :0.88498: L2-HR :0.86245: (Sim:0h4m7s) 
CPU  0 inst:   55000000 cyc:   39075711 now IPC :1.36915: AVG IPC :1.39129: L2-Pf-HR :0.88558: L2-HR :0.86300: (Sim:0h4m12s) 
CPU  0 inst:   56000000 cyc:   39732482 now IPC :1.52260: AVG IPC :1.39352: L2-Pf-HR :0.88733: L2-HR :0.86454: (Sim:0h4m16s) 
CPU  0 inst:   57000002 cyc:   40609136 now IPC :1.14070: AVG IPC :1.38792: L2-Pf-HR :0.88747: L2-HR :0.86440: (Sim:0h4m22s) 
CPU  0 inst:   58000001 cyc:   41300404 now IPC :1.44662: AVG IPC :1.38893: L2-Pf-HR :0.88698: L2-HR :0.86402: (Sim:0h4m26s) 
CPU  0 inst:   59000000 cyc:   42006928 now IPC :1.41538: AVG IPC :1.38939: L2-Pf-HR :0.88650: L2-HR :0.86359: (Sim:0h4m31s) 
CPU  0 inst:   60000000 cyc:   42702693 now IPC :1.43727: AVG IPC :1.39018: L2-Pf-HR :0.88603: L2-HR :0.86321: (Sim:0h4m36s) 
CPU  0 inst:   61000003 cyc:   43405543 now IPC :1.42278: AVG IPC :1.39072: L2-Pf-HR :0.88559: L2-HR :0.86281: (Sim:0h4m41s) 
CPU  0 inst:   62000001 cyc:   44111772 now IPC :1.41597: AVG IPC :1.39114: L2-Pf-HR :0.88516: L2-HR :0.86244: (Sim:0h4m45s) 
CPU  0 inst:   63000000 cyc:   44842654 now IPC :1.36821: AVG IPC :1.39076: L2-Pf-HR :0.88563: L2-HR :0.86287: (Sim:0h4m50s) 
CPU  0 inst:   64000000 cyc:   45500674 now IPC :1.51971: AVG IPC :1.39266: L2-Pf-HR :0.88716: L2-HR :0.86422: (Sim:0h4m55s) 
CPU  0 inst:   65000002 cyc:   46369703 now IPC :1.15071: AVG IPC :1.38803: L2-Pf-HR :0.88735: L2-HR :0.86420: (Sim:0h5m0s) 
CPU  0 inst:   66000000 cyc:   47074414 now IPC :1.41902: AVG IPC :1.38850: L2-Pf-HR :0.88692: L2-HR :0.86383: (Sim:0h5m5s) 
CPU  0 inst:   67000003 cyc:   47778803 now IPC :1.41967: AVG IPC :1.38897: L2-Pf-HR :0.88650: L2-HR :0.86345: (Sim:0h5m10s) 
CPU  0 inst:   68000000 cyc:   48475599 now IPC :1.43514: AVG IPC :1.38965: L2-Pf-HR :0.88609: L2-HR :0.86312: (Sim:0h5m15s) 
CPU  0 inst:   69000003 cyc:   49182471 now IPC :1.41469: AVG IPC :1.39002: L2-Pf-HR :0.88569: L2-HR :0.86276: (Sim:0h5m19s) 
CPU  0 inst:   70000000 cyc:   49880813 now IPC :1.43196: AVG IPC :1.39062: L2-Pf-HR :0.88530: L2-HR :0.86245: (Sim:0h5m24s) 
CPU  0 inst:   71000000 cyc:   50615761 now IPC :1.36064: AVG IPC :1.39017: L2-Pf-HR :0.88564: L2-HR :0.86276: (Sim:0h5m29s) 
CPU  0 inst:   72000000 cyc:   51274065 now IPC :1.51906: AVG IPC :1.39186: L2-Pf-HR :0.88699: L2-HR :0.86395: (Sim:0h5m34s) 
CPU  0 inst:   73000003 cyc:   52139290 now IPC :1.15577: AVG IPC :1.38787: L2-Pf-HR :0.88723: L2-HR :0.86398: (Sim:0h5m39s) 
CPU  0 inst:   74000002 cyc:   52845087 now IPC :1.41684: AVG IPC :1.38826: L2-Pf-HR :0.88684: L2-HR :0.86365: (Sim:0h5m44s) 
CPU  0 inst:   75000002 cyc:   53552753 now IPC :1.41310: AVG IPC :1.38859: L2-Pf-HR :0.88647: L2-HR :0.86331: (Sim:0h5m49s) 
CPU  0 inst:   76000000 cyc:   54250458 now IPC :1.43327: AVG IPC :1.38918: L2-Pf-HR :0.88611: L2-HR :0.86302: (Sim:0h5m53s) 
CPU  0 inst:   77000003 cyc:   54959897 now IPC :1.40957: AVG IPC :1.38945: L2-Pf-HR :0.88575: L2-HR :0.86270: (Sim:0h5m58s) 
CPU  0 inst:   78000002 cyc:   55656534 now IPC :1.43547: AVG IPC :1.39003: L2-Pf-HR :0.88541: L2-HR :0.86244: (Sim:0h6m3s) 
CPU  0 inst:   79000001 cyc:   56394815 now IPC :1.35450: AVG IPC :1.38956: L2-Pf-HR :0.88566: L2-HR :0.86266: (Sim:0h6m8s) 
CPU  0 inst:   80000000 cyc:   57051017 now IPC :1.52392: AVG IPC :1.39113: L2-Pf-HR :0.88688: L2-HR :0.86372: (Sim:0h6m12s) 
CPU  0 inst:   81000002 cyc:   57923145 now IPC :1.14662: AVG IPC :1.38739: L2-Pf-HR :0.88713: L2-HR :0.86379: (Sim:0h6m18s) 
CPU  0 inst:   82000001 cyc:   58628094 now IPC :1.41854: AVG IPC :1.38777: L2-Pf-HR :0.88679: L2-HR :0.86349: (Sim:0h6m23s) 
CPU  0 inst:   83000003 cyc:   59321331 now IPC :1.44251: AVG IPC :1.38842: L2-Pf-HR :0.88645: L2-HR :0.86322: (Sim:0h6m27s) 
CPU  0 inst:   84000000 cyc:   60025806 now IPC :1.41949: AVG IPC :1.38879: L2-Pf-HR :0.88613: L2-HR :0.86292: (Sim:0h6m32s) 
CPU  0 inst:   85000003 cyc:   60736124 now IPC :1.40782: AVG IPC :1.38902: L2-Pf-HR :0.88581: L2-HR :0.86263: (Sim:0h6m37s) 
CPU  0 inst:   86000002 cyc:   61431604 now IPC :1.43785: AVG IPC :1.38958: L2-Pf-HR :0.88549: L2-HR :0.86240: (Sim:0h6m41s) 
CPU  0 inst:   87000001 cyc:   62171486 now IPC :1.35157: AVG IPC :1.38912: L2-Pf-HR :0.88568: L2-HR :0.86256: (Sim:0h6m46s) 
CPU  0 inst:   88000000 cyc:   62821170 now IPC :1.53921: AVG IPC :1.39070: L2-Pf-HR :0.88679: L2-HR :0.86352: (Sim:0h6m51s) 
CPU  0 inst:   89000002 cyc:   63687744 now IPC :1.15397: AVG IPC :1.38742: L2-Pf-HR :0.88707: L2-HR :0.86363: (Sim:0h6m56s) 
CPU  0 inst:   90000001 cyc:   64400856 now IPC :1.40230: AVG IPC :1.38759: L2-Pf-HR :0.88676: L2-HR :0.86336: (Sim:0h7m1s) 
CPU  0 inst:   91000003 cyc:   65098790 now IPC :1.43280: AVG IPC :1.38808: L2-Pf-HR :0.88645: L2-HR :0.86311: (Sim:0h7m6s) 
CPU  0 inst:   92000000 cyc:   65806010 now IPC :1.41398: AVG IPC :1.38837: L2-Pf-HR :0.88615: L2-HR :0.86284: (Sim:0h7m11s) 
CPU  0 inst:   93000003 cyc:   66513325 now IPC :1.41380: AVG IPC :1.38864: L2-Pf-HR :0.88586: L2-HR :0.86257: (Sim:0h7m15s) 
CPU  0 inst:   94000002 cyc:   67213731 now IPC :1.42774: AVG IPC :1.38905: L2-Pf-HR :0.88557: L2-HR :0.86236: (Sim:0h7m20s) 
CPU  0 inst:   95000002 cyc:   67963101 now IPC :1.33445: AVG IPC :1.38844: L2-Pf-HR :0.88569: L2-HR :0.86247: (Sim:0h7m25s) 
CPU  0 inst:   96000000 cyc:   68619834 now IPC :1.52269: AVG IPC :1.38975: L2-Pf-HR :0.88670: L2-HR :0.86337: (Sim:0h7m30s) 
CPU  0 inst:   97000002 cyc:   69490990 now IPC :1.14790: AVG IPC :1.38667: L2-Pf-HR :0.88701: L2-HR :0.86350: (Sim:0h7m35s) 
CPU  0 inst:   98000001 cyc:   70200378 now IPC :1.40966: AVG IPC :1.38691: L2-Pf-HR :0.88672: L2-HR :0.86325: (Sim:0h7m40s) 
CPU  0 inst:   99000003 cyc:   70899147 now IPC :1.43109: AVG IPC :1.38735: L2-Pf-HR :0.88644: L2-HR :0.86302: (Sim:0h7m45s) 
CPU  0 inst:  100000000 cyc:   71606333 now IPC :1.41405: AVG IPC :1.38762: L2-Pf-HR :0.88616: L2-HR :0.86278: (Sim:0h7m50s) 
CPU  0 inst:  101000003 cyc:   72305763 now IPC :1.42974: AVG IPC :1.38803: L2-Pf-HR :0.88589: L2-HR :0.86256: (Sim:0h7m54s) 
CPU  0 inst:  102000002 cyc:   73015079 now IPC :1.40981: AVG IPC :1.38824: L2-Pf-HR :0.88562: L2-HR :0.86233: (Sim:0h7m59s) 
CPU  0 inst:  103000003 cyc:   73755025 now IPC :1.35145: AVG IPC :1.38787: L2-Pf-HR :0.88569: L2-HR :0.86240: (Sim:0h8m4s) 
CPU  0 inst:  104000000 cyc:   74412370 now IPC :1.52127: AVG IPC :1.38906: L2-Pf-HR :0.88663: L2-HR :0.86321: (Sim:0h8m9s) 
CPU  0 inst:  105000002 cyc:   75283601 now IPC :1.14780: AVG IPC :1.38623: L2-Pf-HR :0.88696: L2-HR :0.86337: (Sim:0h8m14s) 
CPU  0 inst:  106000001 cyc:   75985338 now IPC :1.42503: AVG IPC :1.38660: L2-Pf-HR :0.88669: L2-HR :0.86316: (Sim:0h8m19s) 
CPU  0 inst:  107000003 cyc:   76692928 now IPC :1.41325: AVG IPC :1.38685: L2-Pf-HR :0.88643: L2-HR :0.86293: (Sim:0h8m24s) 
CPU  0 inst:  108000000 cyc:   77400288 now IPC :1.41370: AVG IPC :1.38710: L2-Pf-HR :0.88618: L2-HR :0.86270: (Sim:0h8m29s) 
CPU  0 inst:  109000003 cyc:   78100410 now IPC :1.42833: AVG IPC :1.38747: L2-Pf-HR :0.88593: L2-HR :0.86250: (Sim:0h8m33s) 
CPU  0 inst:  110000001 cyc:   78813982 now IPC :1.40140: AVG IPC :1.38760: L2-Pf-HR :0.88568: L2-HR :0.86230: (Sim:0h8m38s) 
CPU  0 inst:  111000000 cyc:   79562545 now IPC :1.33589: AVG IPC :1.38710: L2-Pf-HR :0.88571: L2-HR :0.86233: (Sim:0h8m43s) 
CPU  0 inst:  112000000 cyc:   80221876 now IPC :1.51669: AVG IPC :1.38818: L2-Pf-HR :0.88658: L2-HR :0.86309: (Sim:0h8m48s) 
CPU  0 inst:  113000001 cyc:   81087031 now IPC :1.15586: AVG IPC :1.38567: L2-Pf-HR :0.88692: L2-HR :0.86326: (Sim:0h8m53s) 
CPU  0 inst:  114000000 cyc:   81784440 now IPC :1.43388: AVG IPC :1.38609: L2-Pf-HR :0.88667: L2-HR :0.86308: (Sim:0h8m58s) 
CPU  0 inst:  115000000 cyc:   82489565 now IPC :1.41819: AVG IPC :1.38637: L2-Pf-HR :0.88643: L2-HR :0.86286: (Sim:0h9m3s) 
CPU  0 inst:  116000000 cyc:   83197553 now IPC :1.41245: AVG IPC :1.38659: L2-Pf-HR :0.88619: L2-HR :0.86265: (Sim:0h9m8s) 
CPU  0 inst:  117000000 cyc:   83892946 now IPC :1.43804: AVG IPC :1.38702: L2-Pf-HR :0.88596: L2-HR :0.86246: (Sim:0h9m12s) 
CPU  0 inst:  118000002 cyc:   84603881 now IPC :1.40660: AVG IPC :1.38719: L2-Pf-HR :0.88573: L2-HR :0.86227: (Sim:0h9m17s) 
CPU  0 inst:  119000000 cyc:   85343604 now IPC :1.35185: AVG IPC :1.38688: L2-Pf-HR :0.88572: L2-HR :0.86228: (Sim:0h9m22s) 
CPU  0 inst:  120000000 cyc:   86000019 now IPC :1.52343: AVG IPC :1.38793: L2-Pf-HR :0.88653: L2-HR :0.86299: (Sim:0h9m27s) 
CPU  0 inst:  121000001 cyc:   86863220 now IPC :1.15848: AVG IPC :1.38563: L2-Pf-HR :0.88687: L2-HR :0.86317: (Sim:0h9m32s) 
CPU  0 inst:  122000001 cyc:   87561358 now IPC :1.43238: AVG IPC :1.38601: L2-Pf-HR :0.88665: L2-HR :0.86300: (Sim:0h9m37s) 
CPU  0 inst:  123000002 cyc:   88268042 now IPC :1.41506: AVG IPC :1.38624: L2-Pf-HR :0.88642: L2-HR :0.86280: (Sim:0h9m42s) 
CPU  0 inst:  124000000 cyc:   88964805 now IPC :1.43521: AVG IPC :1.38663: L2-Pf-HR :0.88620: L2-HR :0.86262: (Sim:0h9m46s) 
CPU  0 inst:  125000000 cyc:   89671220 now IPC :1.41560: AVG IPC :1.38686: L2-Pf-HR :0.88598: L2-HR :0.86243: (Sim:0h9m51s) 
CPU  0 inst:  126000002 cyc:   90381351 now IPC :1.40819: AVG IPC :1.38703: L2-Pf-HR :0.88576: L2-HR :0.86224: (Sim:0h9m56s) 
CPU  0 inst:  127000002 cyc:   91123193 now IPC :1.34800: AVG IPC :1.38671: L2-Pf-HR :0.88572: L2-HR :0.86222: (Sim:0h10m1s) 
CPU  0 inst:  128000000 cyc:   91774804 now IPC :1.53465: AVG IPC :1.38777: L2-Pf-HR :0.88648: L2-HR :0.86288: (Sim:0h10m6s) 
CPU  0 inst:  129000000 cyc:   94211624 now IPC :0.41037: AVG IPC :1.36222: L2-Pf-HR :0.88698: L2-HR :0.86134: (Sim:0h10m16s) 
CPU  0 inst:  130000001 cyc:  100623685 now IPC :0.15596: AVG IPC :1.28460: L2-Pf-HR :0.88698: L2-HR :0.85542: (Sim:0h10m38s) 
CPU  0 inst:  131000000 cyc:  107038427 now IPC :0.15589: AVG IPC :1.21633: L2-Pf-HR :0.88698: L2-HR :0.84970: (Sim:0h11m1s) 
CPU  0 inst:  132000000 cyc:  112396049 now IPC :0.18665: AVG IPC :1.16681: L2-Pf-HR :0.88698: L2-HR :0.84850: (Sim:0h11m13s) 
CPU  0 inst:  133000000 cyc:  117784366 now IPC :0.18559: AVG IPC :1.12155: L2-Pf-HR :0.88698: L2-HR :0.84759: (Sim:0h11m24s) 
CPU  0 inst:  134000000 cyc:  122816874 now IPC :0.19871: AVG IPC :1.08343: L2-Pf-HR :0.88698: L2-HR :0.84668: (Sim:0h11m35s) 
CPU  0 inst:  135000002 cyc:  127736564 now IPC :0.20327: AVG IPC :1.04927: L2-Pf-HR :0.88698: L2-HR :0.84578: (Sim:0h11m46s) 
CPU  0 inst:  136000000 cyc:  132707480 now IPC :0.20117: AVG IPC :1.01726: L2-Pf-HR :0.88698: L2-HR :0.84488: (Sim:0h11m57s) 
CPU  0 inst:  137000000 cyc:  137772029 now IPC :0.19745: AVG IPC :0.98691: L2-Pf-HR :0.88698: L2-HR :0.84398: (Sim:0h12m8s) 
CPU  0 inst:  138000000 cyc:  142823743 now IPC :0.19795: AVG IPC :0.95881: L2-Pf-HR :0.88698: L2-HR :0.84309: (Sim:0h12m19s) 
CPU  0 inst:  139000000 cyc:  147835560 now IPC :0.19953: AVG IPC :0.93290: L2-Pf-HR :0.88698: L2-HR :0.84219: (Sim:0h12m29s) 
CPU  0 inst:  140000000 cyc:  152812671 now IPC :0.20092: AVG IPC :0.90890: L2-Pf-HR :0.88698: L2-HR :0.84130: (Sim:0h12m40s) 
CPU  0 inst:  141000002 cyc:  157882781 now IPC :0.19723: AVG IPC :0.88591: L2-Pf-HR :0.88698: L2-HR :0.84042: (Sim:0h12m51s) 
CPU  0 inst:  142000002 cyc:  162911276 now IPC :0.19887: AVG IPC :0.86457: L2-Pf-HR :0.88698: L2-HR :0.83954: (Sim:0h13m2s) 
CPU  0 inst:  143000001 cyc:  167822994 now IPC :0.20359: AVG IPC :0.84511: L2-Pf-HR :0.88698: L2-HR :0.83866: (Sim:0h13m13s) 
CPU  0 inst:  144000000 cyc:  172741279 now IPC :0.20332: AVG IPC :0.82674: L2-Pf-HR :0.88698: L2-HR :0.83778: (Sim:0h13m24s) 
CPU  0 inst:  145000000 cyc:  177770096 now IPC :0.19885: AVG IPC :0.80888: L2-Pf-HR :0.88698: L2-HR :0.83691: (Sim:0h13m34s) 
CPU  0 inst:  146000000 cyc:  182723491 now IPC :0.20188: AVG IPC :0.79233: L2-Pf-HR :0.88698: L2-HR :0.83604: (Sim:0h13m45s) 
CPU  0 inst:  147000000 cyc:  187738131 now IPC :0.19942: AVG IPC :0.77641: L2-Pf-HR :0.88698: L2-HR :0.83517: (Sim:0h13m56s) 
CPU  0 inst:  148000000 cyc:  192665927 now IPC :0.20293: AVG IPC :0.76167: L2-Pf-HR :0.88698: L2-HR :0.83430: (Sim:0h14m7s) 
CPU  0 inst:  149000000 cyc:  197515930 now IPC :0.20619: AVG IPC :0.74796: L2-Pf-HR :0.88698: L2-HR :0.83344: (Sim:0h14m17s) 
CPU  0 inst:  150000000 cyc:  202573972 now IPC :0.19770: AVG IPC :0.73415: L2-Pf-HR :0.88698: L2-HR :0.83258: (Sim:0h14m25s) 
CPU  0 inst:  151000002 cyc:  207577321 now IPC :0.19987: AVG IPC :0.72122: L2-Pf-HR :0.88698: L2-HR :0.83173: (Sim:0h14m35s) 
CPU  0 inst:  152000000 cyc:  212722494 now IPC :0.19436: AVG IPC :0.70841: L2-Pf-HR :0.88698: L2-HR :0.83088: (Sim:0h14m43s) 
CPU  0 inst:  153000002 cyc:  217756594 now IPC :0.19865: AVG IPC :0.69657: L2-Pf-HR :0.88698: L2-HR :0.83002: (Sim:0h14m50s) 
CPU  0 inst:  154000000 cyc:  222662355 now IPC :0.20384: AVG IPC :0.68567: L2-Pf-HR :0.88698: L2-HR :0.82918: (Sim:0h14m57s) 
CPU  0 inst:  155000000 cyc:  227609076 now IPC :0.20215: AVG IPC :0.67512: L2-Pf-HR :0.88698: L2-HR :0.82833: (Sim:0h15m4s) 
CPU  0 inst:  156000000 cyc:  232615992 now IPC :0.19972: AVG IPC :0.66484: L2-Pf-HR :0.88698: L2-HR :0.82749: (Sim:0h15m11s) 
CPU  0 inst:  157000000 cyc:  237675011 now IPC :0.19767: AVG IPC :0.65486: L2-Pf-HR :0.88698: L2-HR :0.82665: (Sim:0h15m18s) 
CPU  0 inst:  158000000 cyc:  242626455 now IPC :0.20196: AVG IPC :0.64558: L2-Pf-HR :0.88698: L2-HR :0.82582: (Sim:0h15m25s) 
CPU  0 inst:  159000000 cyc:  247618175 now IPC :0.20033: AVG IPC :0.63656: L2-Pf-HR :0.88698: L2-HR :0.82499: (Sim:0h15m32s) 
CPU  0 inst:  160000000 cyc:  252652841 now IPC :0.19862: AVG IPC :0.62780: L2-Pf-HR :0.88698: L2-HR :0.82416: (Sim:0h15m42s) 
CPU  0 inst:  161000002 cyc:  257710320 now IPC :0.19773: AVG IPC :0.61933: L2-Pf-HR :0.88698: L2-HR :0.82333: (Sim:0h15m50s) 
CPU  0 inst:  162000001 cyc:  262723749 now IPC :0.19946: AVG IPC :0.61129: L2-Pf-HR :0.88698: L2-HR :0.82251: (Sim:0h16m1s) 
CPU  0 inst:  163000000 cyc:  267728110 now IPC :0.19983: AVG IPC :0.60357: L2-Pf-HR :0.88698: L2-HR :0.82168: (Sim:0h16m12s) 
CPU  0 inst:  164000000 cyc:  269962185 now IPC :0.44761: AVG IPC :0.60227: L2-Pf-HR :0.88671: L2-HR :0.82116: (Sim:0h16m19s) 
CPU  0 inst:  165000003 cyc:  270678616 now IPC :1.39581: AVG IPC :0.60438: L2-Pf-HR :0.88662: L2-HR :0.82139: (Sim:0h16m22s) 
CPU  0 inst:  166000001 cyc:  271446824 now IPC :1.30173: AVG IPC :0.60636: L2-Pf-HR :0.88652: L2-HR :0.82162: (Sim:0h16m25s) 
CPU  0 inst:  167000002 cyc:  272321975 now IPC :1.14266: AVG IPC :0.60809: L2-Pf-HR :0.88642: L2-HR :0.82168: (Sim:0h16m31s) 
CPU  0 inst:  168000000 cyc:  272889297 now IPC :1.76266: AVG IPC :0.61050: L2-Pf-HR :0.88610: L2-HR :0.82173: (Sim:0h16m35s) 
CPU  0 inst:  169000002 cyc:  273556115 now IPC :1.49966: AVG IPC :0.61268: L2-Pf-HR :0.88578: L2-HR :0.82172: (Sim:0h16m40s) 
CPU  0 inst:  170000001 cyc:  274288341 now IPC :1.36570: AVG IPC :0.61469: L2-Pf-HR :0.88585: L2-HR :0.82196: (Sim:0h16m45s) 
CPU  0 inst:  171000002 cyc:  274858365 now IPC :1.75431: AVG IPC :0.61707: L2-Pf-HR :0.88544: L2-HR :0.82189: (Sim:0h16m49s) 
CPU  0 inst:  172000000 cyc:  275749800 now IPC :1.12178: AVG IPC :0.61870: L2-Pf-HR :0.88534: L2-HR :0.82190: (Sim:0h16m53s) 
CPU  0 inst:  173000002 cyc:  276409827 now IPC :1.51509: AVG IPC :0.62085: L2-Pf-HR :0.88512: L2-HR :0.82193: (Sim:0h16m56s) 
CPU  0 inst:  174000000 cyc:  277076828 now IPC :1.49925: AVG IPC :0.62297: L2-Pf-HR :0.88482: L2-HR :0.82189: (Sim:0h16m59s) 
CPU  0 inst:  175000003 cyc:  277988193 now IPC :1.09726: AVG IPC :0.62453: L2-Pf-HR :0.88487: L2-HR :0.82193: (Sim:0h17m3s) 
CPU  0 inst:  176000000 cyc:  278554174 now IPC :1.76684: AVG IPC :0.62686: L2-Pf-HR :0.88457: L2-HR :0.82189: (Sim:0h17m7s) 
CPU  0 inst:  177000001 cyc:  279121534 now IPC :1.76255: AVG IPC :0.62918: L2-Pf-HR :0.88433: L2-HR :0.82191: (Sim:0h17m10s) 
CPU  0 inst:  178000001 cyc:  279771818 now IPC :1.53779: AVG IPC :0.63130: L2-Pf-HR :0.88431: L2-HR :0.82208: (Sim:0h17m13s) 
CPU  0 inst:  179000003 cyc:  280488190 now IPC :1.39593: AVG IPC :0.63326: L2-Pf-HR :0.88394: L2-HR :0.82183: (Sim:0h17m17s) 
CPU  0 inst:  180000000 cyc:  281115524 now IPC :1.59404: AVG IPC :0.63541: L2-Pf-HR :0.88370: L2-HR :0.82181: (Sim:0h17m20s) 
CPU  0 inst:  181000003 cyc:  282010084 now IPC :1.11787: AVG IPC :0.63695: L2-Pf-HR :0.88347: L2-HR :0.82163: (Sim:0h17m24s) 
CPU  0 inst:  182000001 cyc:  282688826 now IPC :1.47331: AVG IPC :0.63896: L2-Pf-HR :0.88328: L2-HR :0.82160: (Sim:0h17m27s) 
CPU  0 inst:  183000003 cyc:  283435667 now IPC :1.33898: AVG IPC :0.64081: L2-Pf-HR :0.88313: L2-HR :0.82159: (Sim:0h17m30s) 
CPU  0 inst:  184000000 cyc:  284234297 now IPC :1.25214: AVG IPC :0.64254: L2-Pf-HR :0.88293: L2-HR :0.82142: (Sim:0h17m34s) 
CPU  0 inst:  185000000 cyc:  284805298 now IPC :1.75131: AVG IPC :0.64477: L2-Pf-HR :0.88268: L2-HR :0.82138: (Sim:0h17m39s) 
CPU  0 inst:  186000001 cyc:  285476433 now IPC :1.49001: AVG IPC :0.64676: L2-Pf-HR :0.88242: L2-HR :0.82127: (Sim:0h17m44s) 
CPU  0 inst:  187000003 cyc:  286183637 now IPC :1.41402: AVG IPC :0.64866: L2-Pf-HR :0.88230: L2-HR :0.82122: (Sim:0h17m50s) 
CPU  0 inst:  188000000 cyc:  286774902 now IPC :1.69128: AVG IPC :0.65082: L2-Pf-HR :0.88188: L2-HR :0.82101: (Sim:0h17m55s) 
CPU  0 inst:  189000000 cyc:  287677945 now IPC :1.10737: AVG IPC :0.65226: L2-Pf-HR :0.88171: L2-HR :0.82083: (Sim:0h18m1s) 
CPU  0 inst:  190000002 cyc:  288362985 now IPC :1.45977: AVG IPC :0.65418: L2-Pf-HR :0.88153: L2-HR :0.82078: (Sim:0h18m5s) 
CPU  0 inst:  191000001 cyc:  289055962 now IPC :1.44305: AVG IPC :0.65608: L2-Pf-HR :0.88124: L2-HR :0.82066: (Sim:0h18m10s) 
CPU  0 inst:  192000000 cyc:  289950959 now IPC :1.11732: AVG IPC :0.65751: L2-Pf-HR :0.88115: L2-HR :0.82047: (Sim:0h18m17s) 
CPU  0 inst:  193000003 cyc:  290527910 now IPC :1.73325: AVG IPC :0.65965: L2-Pf-HR :0.88086: L2-HR :0.82036: (Sim:0h18m21s) 
CPU  0 inst:  194000002 cyc:  291112323 now IPC :1.71112: AVG IPC :0.66177: L2-Pf-HR :0.88060: L2-HR :0.82025: (Sim:0h18m26s) 
CPU  0 inst:  195000002 cyc:  291845928 now IPC :1.36313: AVG IPC :0.66354: L2-Pf-HR :0.88056: L2-HR :0.82025: (Sim:0h18m32s) 
CPU  0 inst:  196000000 cyc:  292494722 now IPC :1.54132: AVG IPC :0.66549: L2-Pf-HR :0.88014: L2-HR :0.81993: (Sim:0h18m38s) 
CPU  0 inst:  197000003 cyc:  293123956 now IPC :1.58924: AVG IPC :0.66748: L2-Pf-HR :0.87994: L2-HR :0.81986: (Sim:0h18m43s) 
CPU  0 inst:  198000002 cyc:  294028718 now IPC :1.10526: AVG IPC :0.66883: L2-Pf-HR :0.87970: L2-HR :0.81959: (Sim:0h18m49s) 
CPU  0 inst:  199000003 cyc:  294721496 now IPC :1.44347: AVG IPC :0.67066: L2-Pf-HR :0.87949: L2-HR :0.81945: (Sim:0h18m53s) 
CPU  0 inst:  200000000 cyc:  295470345 now IPC :1.33538: AVG IPC :0.67235: L2-Pf-HR :0.87937: L2-HR :0.81940: (Sim:0h18m59s) 
CPU  0 inst:  201000001 cyc:  296266599 now IPC :1.25588: AVG IPC :0.67393: L2-Pf-HR :0.87913: L2-HR :0.81914: (Sim:0h19m4s) 
CPU  0 inst:  202000000 cyc:  296845329 now IPC :1.72792: AVG IPC :0.67599: L2-Pf-HR :0.87890: L2-HR :0.81906: (Sim:0h19m9s) 
CPU  0 inst:  203000000 cyc:  297520935 now IPC :1.48015: AVG IPC :0.67782: L2-Pf-HR :0.87865: L2-HR :0.81889: (Sim:0h19m14s) 
CPU  0 inst:  204000000 cyc:  298230936 now IPC :1.40845: AVG IPC :0.67956: L2-Pf-HR :0.87851: L2-HR :0.81879: (Sim:0h19m20s) 
CPU  0 inst:  205000001 cyc:  298839563 now IPC :1.64304: AVG IPC :0.68153: L2-Pf-HR :0.87809: L2-HR :0.81850: (Sim:0h19m25s) 
CPU  0 inst:  206000001 cyc:  299743837 now IPC :1.10586: AVG IPC :0.68282: L2-Pf-HR :0.87800: L2-HR :0.81834: (Sim:0h19m31s) 
CPU  0 inst:  207000003 cyc:  300426151 now IPC :1.46560: AVG IPC :0.68460: L2-Pf-HR :0.87781: L2-HR :0.81823: (Sim:0h19m36s) 
CPU  0 inst:  208000000 cyc:  301187874 now IPC :1.31281: AVG IPC :0.68619: L2-Pf-HR :0.87752: L2-HR :0.81800: (Sim:0h19m41s) 
CPU  0 inst:  209000002 cyc:  302020188 now IPC :1.20147: AVG IPC :0.68762: L2-Pf-HR :0.87752: L2-HR :0.81794: (Sim:0h19m47s) 
CPU  0 inst:  210000000 cyc:  302598244 now IPC :1.72993: AVG IPC :0.68962: L2-Pf-HR :0.87728: L2-HR :0.81785: (Sim:0h19m52s) 
CPU  0 inst:  211000002 cyc:  303196468 now IPC :1.67162: AVG IPC :0.69156: L2-Pf-HR :0.87700: L2-HR :0.81770: (Sim:0h19m57s) 
CPU  0 inst:  212000000 cyc:  303975169 now IPC :1.28419: AVG IPC :0.69308: L2-Pf-HR :0.87706: L2-HR :0.81776: (Sim:0h20m3s) 
CPU  0 inst:  213000001 cyc:  304563500 now IPC :1.69973: AVG IPC :0.69503: L2-Pf-HR :0.87674: L2-HR :0.81758: (Sim:0h20m7s) 
CPU  0 inst:  214000002 cyc:  305195183 now IPC :1.58307: AVG IPC :0.69688: L2-Pf-HR :0.87668: L2-HR :0.81766: (Sim:0h20m12s) 
CPU  0 inst:  215000001 cyc:  306116484 now IPC :1.08542: AVG IPC :0.69805: L2-Pf-HR :0.87644: L2-HR :0.81737: (Sim:0h20m16s) 
CPU  0 inst:  216000000 cyc:  306797818 now IPC :1.46771: AVG IPC :0.69977: L2-Pf-HR :0.87625: L2-HR :0.81727: (Sim:0h20m19s) 
CPU  0 inst:  217000000 cyc:  307542105 now IPC :1.34357: AVG IPC :0.70133: L2-Pf-HR :0.87621: L2-HR :0.81730: (Sim:0h20m23s) 
CPU  0 inst:  218000001 cyc:  308332021 now IPC :1.26596: AVG IPC :0.70278: L2-Pf-HR :0.87599: L2-HR :0.81706: (Sim:0h20m27s) 
CPU  0 inst:  219000003 cyc:  308923980 now IPC :1.68931: AVG IPC :0.70468: L2-Pf-HR :0.87577: L2-HR :0.81696: (Sim:0h20m31s) 
CPU  0 inst:  220000000 cyc:  309583291 now IPC :1.51673: AVG IPC :0.70641: L2-Pf-HR :0.87561: L2-HR :0.81689: (Sim:0h20m36s) 
CPU  0 inst:  221000002 cyc:  310306269 now IPC :1.38317: AVG IPC :0.70799: L2-Pf-HR :0.87548: L2-HR :0.81676: (Sim:0h20m42s) 
CPU  0 inst:  222000002 cyc:  310964848 now IPC :1.51842: AVG IPC :0.70972: L2-Pf-HR :0.87509: L2-HR :0.81645: (Sim:0h20m46s) 
CPU  0 inst:  223000000 cyc:  311821829 now IPC :1.16688: AVG IPC :0.71098: L2-Pf-HR :0.87512: L2-HR :0.81643: (Sim:0h20m50s) 
CPU  0 inst:  224000000 cyc:  312507420 now IPC :1.45860: AVG IPC :0.71262: L2-Pf-HR :0.87492: L2-HR :0.81630: (Sim:0h20m54s) 
CPU  0 inst:  225000000 cyc:  313273356 now IPC :1.30559: AVG IPC :0.71408: L2-Pf-HR :0.87469: L2-HR :0.81610: (Sim:0h20m59s) 
CPU  0 inst:  226000003 cyc:  314095621 now IPC :1.21616: AVG IPC :0.71539: L2-Pf-HR :0.87466: L2-HR :0.81602: (Sim:0h21m5s) 
CPU  0 inst:  227000001 cyc:  314695197 now IPC :1.66784: AVG IPC :0.71721: L2-Pf-HR :0.87444: L2-HR :0.81590: (Sim:0h21m9s) 
CPU  0 inst:  228000000 cyc:  315299652 now IPC :1.65438: AVG IPC :0.71902: L2-Pf-HR :0.87415: L2-HR :0.81573: (Sim:0h21m14s) 
CPU  0 inst:  229000003 cyc:  316081123 now IPC :1.27964: AVG IPC :0.72041: L2-Pf-HR :0.87415: L2-HR :0.81566: (Sim:0h21m21s) 
CPU  0 inst:  230000001 cyc:  316692909 now IPC :1.63456: AVG IPC :0.72218: L2-Pf-HR :0.87378: L2-HR :0.81535: (Sim:0h21m26s) 
CPU  0 inst:  231000003 cyc:  317442788 now IPC :1.33355: AVG IPC :0.72363: L2-Pf-HR :0.87367: L2-HR :0.81523: (Sim:0h21m32s) 
CPU  0 inst:  232000000 cyc:  318258085 now IPC :1.22654: AVG IPC :0.72492: L2-Pf-HR :0.87340: L2-HR :0.81493: (Sim:0h21m37s) 
CPU  0 inst:  233000002 cyc:  318949209 now IPC :1.44692: AVG IPC :0.72649: L2-Pf-HR :0.87320: L2-HR :0.81477: (Sim:0h21m42s) 
CPU  0 inst:  234000003 cyc:  319690012 now IPC :1.34989: AVG IPC :0.72794: L2-Pf-HR :0.87316: L2-HR :0.81473: (Sim:0h21m46s) 
CPU  0 inst:  235000002 cyc:  320491802 now IPC :1.24721: AVG IPC :0.72924: L2-Pf-HR :0.87292: L2-HR :0.81443: (Sim:0h21m50s) 
CPU  0 inst:  236000000 cyc:  321095772 now IPC :1.65571: AVG IPC :0.73099: L2-Pf-HR :0.87268: L2-HR :0.81425: (Sim:0h21m53s) 
CPU  0 inst:  237000001 cyc:  321762640 now IPC :1.49955: AVG IPC :0.73259: L2-Pf-HR :0.87254: L2-HR :0.81415: (Sim:0h21m57s) 
CPU  0 inst:  238000001 cyc:  322506222 now IPC :1.34484: AVG IPC :0.73400: L2-Pf-HR :0.87234: L2-HR :0.81391: (Sim:0h22m0s) 
CPU  0 inst:  239000002 cyc:  323173992 now IPC :1.49752: AVG IPC :0.73559: L2-Pf-HR :0.87198: L2-HR :0.81355: (Sim:0h22m4s) 
CPU  0 inst:  240000000 cyc:  324048105 now IPC :1.14401: AVG IPC :0.73669: L2-Pf-HR :0.87192: L2-HR :0.81341: (Sim:0h22m9s) 
CPU  0 inst:  241000003 cyc:  324726687 now IPC :1.47367: AVG IPC :0.73824: L2-Pf-HR :0.87172: L2-HR :0.81323: (Sim:0h22m14s) 
CPU  0 inst:  242000001 cyc:  325496578 now IPC :1.29888: AVG IPC :0.73957: L2-Pf-HR :0.87153: L2-HR :0.81303: (Sim:0h22m20s) 
CPU  0 inst:  243000000 cyc:  326334553 now IPC :1.19335: AVG IPC :0.74073: L2-Pf-HR :0.87145: L2-HR :0.81287: (Sim:0h22m26s) 
CPU  0 inst:  244000000 cyc:  326940949 now IPC :1.64909: AVG IPC :0.74242: L2-Pf-HR :0.87124: L2-HR :0.81271: (Sim:0h22m31s) 
CPU  0 inst:  245000003 cyc:  327639419 now IPC :1.43170: AVG IPC :0.74390: L2-Pf-HR :0.87097: L2-HR :0.81244: (Sim:0h22m36s) 
CPU  0 inst:  246000002 cyc:  328349389 now IPC :1.40851: AVG IPC :0.74534: L2-Pf-HR :0.87096: L2-HR :0.81241: (Sim:0h22m41s) 
CPU  0 inst:  247000000 cyc:  328975306 now IPC :1.59765: AVG IPC :0.74697: L2-Pf-HR :0.87062: L2-HR :0.81208: (Sim:0h22m47s) 
CPU  0 inst:  248000000 cyc:  329874373 now IPC :1.11226: AVG IPC :0.74796: L2-Pf-HR :0.87046: L2-HR :0.81180: (Sim:0h22m53s) 
CPU  0 inst:  249000000 cyc:  330576202 now IPC :1.42485: AVG IPC :0.74941: L2-Pf-HR :0.87027: L2-HR :0.81163: (Sim:0h22m58s) 
CPU  0 inst:  250000001 cyc:  331269444 now IPC :1.44250: AVG IPC :0.75086: L2-Pf-HR :0.87012: L2-HR :0.81150: (Sim:0h23m3s) 
CPU  0 inst:  251000001 cyc:  332015131 now IPC :1.34105: AVG IPC :0.75219: L2-Pf-HR :0.87010: L2-HR :0.81147: (Sim:0h23m8s) 
CPU  0 inst:  252000000 cyc:  332829829 now IPC :1.22745: AVG IPC :0.75336: L2-Pf-HR :0.86985: L2-HR :0.81112: (Sim:0h23m14s) 
CPU  0 inst:  253000001 cyc:  333426437 now IPC :1.67614: AVG IPC :0.75501: L2-Pf-HR :0.86962: L2-HR :0.81094: (Sim:0h23m19s) 
CPU  0 inst:  254000001 cyc:  334091065 now IPC :1.50460: AVG IPC :0.75651: L2-Pf-HR :0.86952: L2-HR :0.81086: (Sim:0h23m25s) 
CPU  0 inst:  255000001 cyc:  334831090 now IPC :1.35131: AVG IPC :0.75783: L2-Pf-HR :0.86929: L2-HR :0.81057: (Sim:0h23m30s) 
CPU  0 inst:  256000000 cyc:  335497276 now IPC :1.50108: AVG IPC :0.75931: L2-Pf-HR :0.86899: L2-HR :0.81025: (Sim:0h23m36s) 
CPU  0 inst:  257000001 cyc:  336393839 now IPC :1.11537: AVG IPC :0.76026: L2-Pf-HR :0.86889: L2-HR :0.81005: (Sim:0h23m42s) 
CPU  0 inst:  258000002 cyc:  337076020 now IPC :1.46589: AVG IPC :0.76169: L2-Pf-HR :0.86871: L2-HR :0.80987: (Sim:0h23m47s) 
CPU  0 inst:  259000002 cyc:  337848071 now IPC :1.29525: AVG IPC :0.76291: L2-Pf-HR :0.86855: L2-HR :0.80968: (Sim:0h23m52s) 
CPU  0 inst:  260000000 cyc:  338666326 now IPC :1.22211: AVG IPC :0.76403: L2-Pf-HR :0.86847: L2-HR :0.80951: (Sim:0h23m58s) 
CPU  0 inst:  261000002 cyc:  339278402 now IPC :1.63379: AVG IPC :0.76560: L2-Pf-HR :0.86826: L2-HR :0.80932: (Sim:0h24m3s) 
CPU  0 inst:  262000003 cyc:  339975795 now IPC :1.43391: AVG IPC :0.76697: L2-Pf-HR :0.86802: L2-HR :0.80908: (Sim:0h24m9s) 
CPU  0 inst:  263000002 cyc:  340677647 now IPC :1.42480: AVG IPC :0.76833: L2-Pf-HR :0.86800: L2-HR :0.80903: (Sim:0h24m13s) 
CPU  0 inst:  264000000 cyc:  341298045 now IPC :1.61187: AVG IPC :0.76987: L2-Pf-HR :0.86768: L2-HR :0.80873: (Sim:0h24m17s) 
CPU  0 inst:  265000001 cyc:  342200520 now IPC :1.10807: AVG IPC :0.77077: L2-Pf-HR :0.86755: L2-HR :0.80848: (Sim:0h24m23s) 
CPU  0 inst:  266000002 cyc:  342902750 now IPC :1.42404: AVG IPC :0.77211: L2-Pf-HR :0.86738: L2-HR :0.80831: (Sim:0h24m26s) 
CPU  0 inst:  267000001 cyc:  343597652 now IPC :1.43905: AVG IPC :0.77346: L2-Pf-HR :0.86724: L2-HR :0.80817: (Sim:0h24m30s) 
CPU  0 inst:  268000000 cyc:  344414418 now IPC :1.22434: AVG IPC :0.77453: L2-Pf-HR :0.86724: L2-HR :0.80813: (Sim:0h24m34s) 
CPU  0 inst:  269000002 cyc:  345152225 now IPC :1.35537: AVG IPC :0.77578: L2-Pf-HR :0.86698: L2-HR :0.80781: (Sim:0h24m38s) 
CPU  0 inst:  270000000 cyc:  345752146 now IPC :1.66688: AVG IPC :0.77733: L2-Pf-HR :0.86676: L2-HR :0.80764: (Sim:0h24m41s) 
CPU  0 inst:  271000003 cyc:  346424134 now IPC :1.48813: AVG IPC :0.77871: L2-Pf-HR :0.86670: L2-HR :0.80760: (Sim:0h24m45s) 
CPU  0 inst:  272000000 cyc:  347174017 now IPC :1.33354: AVG IPC :0.77991: L2-Pf-HR :0.86646: L2-HR :0.80729: (Sim:0h24m49s) 
CPU  0 inst:  273000002 cyc:  347840784 now IPC :1.49978: AVG IPC :0.78130: L2-Pf-HR :0.86621: L2-HR :0.80703: (Sim:0h24m53s) 
CPU  0 inst:  274000002 cyc:  348747658 now IPC :1.10269: AVG IPC :0.78214: L2-Pf-HR :0.86608: L2-HR :0.80680: (Sim:0h24m59s) 
CPU  0 inst:  275000002 cyc:  349429669 now IPC :1.46625: AVG IPC :0.78347: L2-Pf-HR :0.86594: L2-HR :0.80667: (Sim:0h25m4s) 
CPU  0 inst:  276000000 cyc:  350208675 now IPC :1.28368: AVG IPC :0.78459: L2-Pf-HR :0.86580: L2-HR :0.80648: (Sim:0h25m10s) 
CPU  0 inst:  277000003 cyc:  351040577 now IPC :1.20207: AVG IPC :0.78558: L2-Pf-HR :0.86570: L2-HR :0.80629: (Sim:0h25m15s) 
CPU  0 inst:  278000002 cyc:  351639125 now IPC :1.67071: AVG IPC :0.78709: L2-Pf-HR :0.86548: L2-HR :0.80612: (Sim:0h25m20s) 
CPU  0 inst:  279000001 cyc:  352330199 now IPC :1.44702: AVG IPC :0.78839: L2-Pf-HR :0.86529: L2-HR :0.80591: (Sim:0h25m26s) 
CPU  0 inst:  280000000 cyc:  353050507 now IPC :1.38829: AVG IPC :0.78962: L2-Pf-HR :0.86523: L2-HR :0.80582: (Sim:0h25m31s) 
CPU  0 inst:  281000002 cyc:  353667470 now IPC :1.62085: AVG IPC :0.79107: L2-Pf-HR :0.86492: L2-HR :0.80552: (Sim:0h25m36s) 
CPU  0 inst:  282000000 cyc:  354574140 now IPC :1.10293: AVG IPC :0.79187: L2-Pf-HR :0.86480: L2-HR :0.80526: (Sim:0h25m41s) 
CPU  0 inst:  283000001 cyc:  355276379 now IPC :1.42402: AVG IPC :0.79312: L2-Pf-HR :0.86466: L2-HR :0.80511: (Sim:0h25m44s) 
CPU  0 inst:  284000000 cyc:  355977306 now IPC :1.42668: AVG IPC :0.79438: L2-Pf-HR :0.86449: L2-HR :0.80493: (Sim:0h25m48s) 
CPU  0 inst:  285000000 cyc:  356892326 now IPC :1.09287: AVG IPC :0.79514: L2-Pf-HR :0.86447: L2-HR :0.80479: (Sim:0h25m52s) 
CPU  0 inst:  286000000 cyc:  357520212 now IPC :1.59265: AVG IPC :0.79655: L2-Pf-HR :0.86426: L2-HR :0.80459: (Sim:0h25m56s) 
CPU  0 inst:  287000000 cyc:  358118576 now IPC :1.67122: AVG IPC :0.79801: L2-Pf-HR :0.86408: L2-HR :0.80446: (Sim:0h25m59s) 
CPU  0 inst:  288000000 cyc:  358794068 now IPC :1.48040: AVG IPC :0.79930: L2-Pf-HR :0.86402: L2-HR :0.80440: (Sim:0h26m3s) 
CPU  0 inst:  289000003 cyc:  359553285 now IPC :1.31715: AVG IPC :0.80040: L2-Pf-HR :0.86374: L2-HR :0.80404: (Sim:0h26m7s) 
CPU  0 inst:  290000003 cyc:  360207370 now IPC :1.52885: AVG IPC :0.80172: L2-Pf-HR :0.86352: L2-HR :0.80382: (Sim:0h26m11s) 
CPU  0 inst:  291000000 cyc:  361125751 now IPC :1.08887: AVG IPC :0.80246: L2-Pf-HR :0.86336: L2-HR :0.80355: (Sim:0h26m17s) 
CPU  0 inst:  292000000 cyc:  361829567 now IPC :1.42083: AVG IPC :0.80366: L2-Pf-HR :0.86323: L2-HR :0.80341: (Sim:0h26m22s) 
CPU  0 inst:  293000002 cyc:  362596866 now IPC :1.30328: AVG IPC :0.80472: L2-Pf-HR :0.86311: L2-HR :0.80326: (Sim:0h26m28s) 
CPU  0 inst:  294000002 cyc:  363426626 now IPC :1.20517: AVG IPC :0.80564: L2-Pf-HR :0.86298: L2-HR :0.80304: (Sim:0h26m34s) 
CPU  0 inst:  295000000 cyc:  364033528 now IPC :1.64771: AVG IPC :0.80705: L2-Pf-HR :0.86279: L2-HR :0.80287: (Sim:0h26m39s) 
Finished CPU 0 instr: 293000003 cyc: 363051928 AVG IPC: 0.80705 (Sim time: 0h26m39s)

ChampSim completed all CPUs

[ROI Statistics]
Core_0_instructions 293000003
Core_0_cycles 363051928
Core_0_IPC 0.80705

Core_0_branch_prediction_accuracy 98.23789
Core_0_branch_MPKI 0.42863
Core_0_average_ROB_occupancy_at_mispredict 247.76617

Core_0_L1D_total_access 73586962
Core_0_L1D_total_hit 67841769 L1D_total_Hit Ratio: 0.92193
Core_0_L1D_total_miss 5745193
Core_0_L1D_loads 66539746
Core_0_L1D_load_hit 61123115 L1D_load_Hit Ratio: 0.91860
Core_0_L1D_load_miss 5416631
Core_0_L1D_RFOs 5906917
Core_0_L1D_RFO_hit 5578355 L1D_RFO_Hit Ratio: 0.94438
Core_0_L1D_RFO_miss 328562
Core_0_L1D_prefetches 1140299
Core_0_L1D_prefetch_hit 1140299 L1D_prefetch_Hit Ratio: 1.00000
Core_0_L1D_prefetch_miss 0
Core_0_L1D_writebacks 0
Core_0_L1D_writeback_hit 0 L1D_writeback_Hit Ratio: -nan
Core_0_L1D_writeback_miss 0
Core_0_L1D_prefetch_requested 31447883
Core_0_L1D_prefetch_issued 19463646
Core_0_L1D_prefetch_useful 0 L1D_Useful Ratio: 0.00000
Core_0_L1D_prefetch_useless 0
Core_0_L1D_prefetch_late 0
Core_0_L1D_average_miss_latency 105.49545

Core_0_L1I_total_access 66360316
Core_0_L1I_total_hit 66355468 L1I_total_Hit Ratio: 0.99993
Core_0_L1I_total_miss 4848
Core_0_L1I_loads 66360316
Core_0_L1I_load_hit 66355468 L1I_load_Hit Ratio: 0.99993
Core_0_L1I_load_miss 4848
Core_0_L1I_RFOs 0
Core_0_L1I_RFO_hit 0 L1I_RFO_Hit Ratio: -nan
Core_0_L1I_RFO_miss 0
Core_0_L1I_prefetches 0
Core_0_L1I_prefetch_hit 0 L1I_prefetch_Hit Ratio: -nan
Core_0_L1I_prefetch_miss 0
Core_0_L1I_writebacks 0
Core_0_L1I_writeback_hit 0 L1I_writeback_Hit Ratio: -nan
Core_0_L1I_writeback_miss 0
Core_0_L1I_prefetch_requested 0
Core_0_L1I_prefetch_issued 0
Core_0_L1I_prefetch_useful 0 L1I_Useful Ratio: -nan
Core_0_L1I_prefetch_useless 0
Core_0_L1I_prefetch_late 0
Core_0_L1I_average_miss_latency 261.89934

Core_0_L2C_total_access 23948710
Core_0_L2C_total_hit 19227790 L2C_total_Hit Ratio: 0.80287
Core_0_L2C_total_miss 4720920
Core_0_L2C_loads 5421449
Core_0_L2C_load_hit 3341074 L2C_load_Hit Ratio: 0.61627
Core_0_L2C_load_miss 2080375
Core_0_L2C_RFOs 328562
Core_0_L2C_RFO_hit 37141 L2C_RFO_Hit Ratio: 0.11304
Core_0_L2C_RFO_miss 291421
Core_0_L2C_prefetches 16609519
Core_0_L2C_prefetch_hit 14330500 L2C_prefetch_Hit Ratio: 0.86279
Core_0_L2C_prefetch_miss 2279019
Core_0_L2C_writebacks 1589180
Core_0_L2C_writeback_hit 1519075 L2C_writeback_Hit Ratio: 0.95589
Core_0_L2C_writeback_miss 70105
Core_0_L2C_prefetch_requested 6863620
Core_0_L2C_prefetch_issued 869451
Core_0_L2C_prefetch_useful 2298044 L2C_Useful Ratio: 2.64310
Core_0_L2C_prefetch_useless 1178
Core_0_L2C_prefetch_late 133750
Core_0_L2C_average_miss_latency 126.16901

Core_0_LLC_total_access 6536629
Core_0_LLC_total_hit 4951129 LLC_total_Hit Ratio: 0.75744
Core_0_LLC_total_miss 1585500
Core_0_LLC_loads 1946609
Core_0_LLC_load_hit 634019 LLC_load_Hit Ratio: 0.32570
Core_0_LLC_load_miss 1312590
Core_0_LLC_RFOs 291420
Core_0_LLC_RFO_hit 28544 LLC_RFO_Hit Ratio: 0.09795
Core_0_LLC_RFO_miss 262876
Core_0_LLC_prefetches 2759614
Core_0_LLC_prefetch_hit 2749586 LLC_prefetch_Hit Ratio: 0.99637
Core_0_LLC_prefetch_miss 10028
Core_0_LLC_writebacks 1538986
Core_0_LLC_writeback_hit 1538980 LLC_writeback_Hit Ratio: 1.00000
Core_0_LLC_writeback_miss 6
Core_0_LLC_prefetch_requested 0
Core_0_LLC_prefetch_issued 0
Core_0_LLC_prefetch_useful 6853 LLC_Useful Ratio: inf
Core_0_LLC_prefetch_useless 2940
Core_0_LLC_prefetch_late 16
Core_0_LLC_average_miss_latency 287.77173

Core_0_major_page_fault 0
Core_0_minor_page_fault 13331

CPU 0 L1D next line prefetcher final stats
Prefetcher final stats
Training Unit Size: 4689
Addr table size: 783244 783245


Triggers: 2097793
No Prediction: 844926 40.27690
Stream end: 494134
No translation: 494293456 23562.54673
Predictions: 869451 41.44599


Stream divergence: 161396 7.69361
Stream divergence -- new stream: 0
Channel_0_RQ_row_buffer_hit 895177
Channel_0_RQ_row_buffer_miss 690313
Channel_0_WQ_row_buffer_hit 376334
Channel_0_WQ_row_buffer_miss 482204
Channel_0_WQ_full 0
Channel_0_dbus_congested 721417

avg_congested_cycle 11

EzSearch AVG IPC :0.80705: L2-Pf-HR :0.86279 : L2-HR :0.80287 Uful:2.64310
     > Finished combination: TraceType=770-tot Sim:293000000 Prefetcher=L2isb_ideal L1=isb_ideal
