TRACE: [103000000]_FE_[OPT-2_7B]_[h32]_[s256]_[d80] Warmup: 2000000 NumTraces: 103000000
L1:bingo_dpc3_PHT1k:L2:bingo_dpc3_PHT1k
*************************************************
   ChampSim Multicore Out-of-Order Simulator
   Last compiled: Oct 20 2024 06:49:05
*************************************************

trace_0 770-tot_memTraces_v3/memTraces[103000000]_FE_[OPT-2_7B]_[h32]_[s256]_[d80].champsim.xz
Bingo PHT WAYS: 16 and PHT_SIZE: 1024
Bingo2 PHT WAYS: 16 and PHT_SIZE: 1024
MAIN.cc ln 751 stats print skipped
CPU  0 inst:    1000001 cyc:     502769 now IPC :1.98899: AVG IPC :1.98899: L2-Pf-HR :0.78040: L2-HR :0.65715: (Sim:0h0m4s) 
CPU  0 inst:    2000002 cyc:     982979 now IPC :2.08242: AVG IPC :2.03463: L2-Pf-HR :0.80656: L2-HR :0.73390: (Sim:0h0m8s) 

Warmup complete CPU  0 instructions:    2000002 cycles:     982979 (Simulation time: 0 hr 0 min 8 sec) 

CPU  0 inst:    3000000 cyc:    1568679 now IPC :1.70736: AVG IPC :1.70736: L2-Pf-HR :0.79497: L2-HR :0.80949: (Sim:0h0m12s) 
CPU  0 inst:    4000000 cyc:    2114719 now IPC :1.83137: AVG IPC :1.76719: L2-Pf-HR :0.82096: L2-HR :0.83283: (Sim:0h0m17s) 
CPU  0 inst:    5000001 cyc:    2720137 now IPC :1.65175: AVG IPC :1.72696: L2-Pf-HR :0.80915: L2-HR :0.82258: (Sim:0h0m21s) 
CPU  0 inst:    6000003 cyc:    3327670 now IPC :1.64600: AVG IPC :1.70598: L2-Pf-HR :0.80380: L2-HR :0.81843: (Sim:0h0m25s) 
CPU  0 inst:    7000002 cyc:    3933119 now IPC :1.65167: AVG IPC :1.69483: L2-Pf-HR :0.80954: L2-HR :0.82389: (Sim:0h0m29s) 
CPU  0 inst:    8000000 cyc:    4557404 now IPC :1.60183: AVG IPC :1.67859: L2-Pf-HR :0.80820: L2-HR :0.82339: (Sim:0h0m34s) 
CPU  0 inst:    9000001 cyc:    5134089 now IPC :1.73405: AVG IPC :1.68630: L2-Pf-HR :0.80917: L2-HR :0.82516: (Sim:0h0m38s) 
CPU  0 inst:   10000000 cyc:    5777024 now IPC :1.55537: AVG IPC :1.66874: L2-Pf-HR :0.81048: L2-HR :0.82549: (Sim:0h0m42s) 
CPU  0 inst:   11000000 cyc:    6424999 now IPC :1.54327: AVG IPC :1.65380: L2-Pf-HR :0.80993: L2-HR :0.82479: (Sim:0h0m46s) 
CPU  0 inst:   12000000 cyc:    7082827 now IPC :1.52015: AVG IPC :1.63938: L2-Pf-HR :0.80822: L2-HR :0.82288: (Sim:0h0m51s) 
CPU  0 inst:   13000001 cyc:    7668695 now IPC :1.70687: AVG IPC :1.64530: L2-Pf-HR :0.81228: L2-HR :0.82634: (Sim:0h0m55s) 
CPU  0 inst:   14000000 cyc:    8331894 now IPC :1.50784: AVG IPC :1.63289: L2-Pf-HR :0.81077: L2-HR :0.82473: (Sim:0h0m59s) 
CPU  0 inst:   15000003 cyc:    8962604 now IPC :1.58552: AVG IPC :1.62915: L2-Pf-HR :0.80897: L2-HR :0.82374: (Sim:0h1m4s) 
CPU  0 inst:   16000000 cyc:    9609254 now IPC :1.54643: AVG IPC :1.62295: L2-Pf-HR :0.81049: L2-HR :0.82444: (Sim:0h1m8s) 
CPU  0 inst:   17000002 cyc:   10201474 now IPC :1.68857: AVG IPC :1.62716: L2-Pf-HR :0.81297: L2-HR :0.82641: (Sim:0h1m12s) 
CPU  0 inst:   18000003 cyc:   10828473 now IPC :1.59490: AVG IPC :1.62511: L2-Pf-HR :0.81098: L2-HR :0.82524: (Sim:0h1m17s) 
CPU  0 inst:   19000000 cyc:   11473687 now IPC :1.54987: AVG IPC :1.62048: L2-Pf-HR :0.81207: L2-HR :0.82578: (Sim:0h1m21s) 
CPU  0 inst:   20000000 cyc:   12131877 now IPC :1.51932: AVG IPC :1.61451: L2-Pf-HR :0.81069: L2-HR :0.82447: (Sim:0h1m25s) 
CPU  0 inst:   21000000 cyc:   12748767 now IPC :1.62103: AVG IPC :1.61485: L2-Pf-HR :0.81377: L2-HR :0.82636: (Sim:0h1m29s) 
CPU  0 inst:   22000000 cyc:   13403877 now IPC :1.52646: AVG IPC :1.61019: L2-Pf-HR :0.81298: L2-HR :0.82527: (Sim:0h1m34s) 
CPU  0 inst:   23000000 cyc:   14034135 now IPC :1.58665: AVG IPC :1.60905: L2-Pf-HR :0.81263: L2-HR :0.82522: (Sim:0h1m38s) 
CPU  0 inst:   24000000 cyc:   14671007 now IPC :1.57017: AVG IPC :1.60724: L2-Pf-HR :0.81215: L2-HR :0.82514: (Sim:0h1m42s) 
CPU  0 inst:   25000002 cyc:   15285354 now IPC :1.62775: AVG IPC :1.60812: L2-Pf-HR :0.81172: L2-HR :0.82532: (Sim:0h1m47s) 
CPU  0 inst:   26000002 cyc:   15872053 now IPC :1.70445: AVG IPC :1.61192: L2-Pf-HR :0.81211: L2-HR :0.82585: (Sim:0h1m51s) 
CPU  0 inst:   27000001 cyc:   16529389 now IPC :1.52129: AVG IPC :1.60809: L2-Pf-HR :0.81131: L2-HR :0.82525: (Sim:0h1m54s) 
CPU  0 inst:   28000000 cyc:   17149092 now IPC :1.61367: AVG IPC :1.60830: L2-Pf-HR :0.81146: L2-HR :0.82553: (Sim:0h1m57s) 
CPU  0 inst:   29000001 cyc:   17770438 now IPC :1.60941: AVG IPC :1.60834: L2-Pf-HR :0.81119: L2-HR :0.82538: (Sim:0h2m0s) 
CPU  0 inst:   30000001 cyc:   18363815 now IPC :1.68527: AVG IPC :1.61097: L2-Pf-HR :0.81196: L2-HR :0.82611: (Sim:0h2m2s) 
CPU  0 inst:   31000000 cyc:   19041224 now IPC :1.47621: AVG IPC :1.60591: L2-Pf-HR :0.81114: L2-HR :0.82544: (Sim:0h2m6s) 
CPU  0 inst:   32000000 cyc:   19673593 now IPC :1.58136: AVG IPC :1.60508: L2-Pf-HR :0.81088: L2-HR :0.82531: (Sim:0h2m10s) 
CPU  0 inst:   33000002 cyc:   20304402 now IPC :1.58527: AVG IPC :1.60444: L2-Pf-HR :0.81140: L2-HR :0.82566: (Sim:0h2m15s) 
CPU  0 inst:   34000000 cyc:   20882128 now IPC :1.73092: AVG IPC :1.60811: L2-Pf-HR :0.81245: L2-HR :0.82648: (Sim:0h2m19s) 
CPU  0 inst:   35000002 cyc:   21534373 now IPC :1.53317: AVG IPC :1.60573: L2-Pf-HR :0.81177: L2-HR :0.82596: (Sim:0h2m23s) 
CPU  0 inst:   36000000 cyc:   22170132 now IPC :1.57292: AVG IPC :1.60475: L2-Pf-HR :0.81113: L2-HR :0.82551: (Sim:0h2m28s) 
CPU  0 inst:   37000000 cyc:   22821996 now IPC :1.53406: AVG IPC :1.60264: L2-Pf-HR :0.81102: L2-HR :0.82530: (Sim:0h2m32s) 
CPU  0 inst:   38000002 cyc:   23433497 now IPC :1.63532: AVG IPC :1.60353: L2-Pf-HR :0.81199: L2-HR :0.82613: (Sim:0h2m36s) 
CPU  0 inst:   39000000 cyc:   24028604 now IPC :1.68037: AVG IPC :1.60551: L2-Pf-HR :0.81196: L2-HR :0.82626: (Sim:0h2m41s) 
CPU  0 inst:   40000000 cyc:   24664698 now IPC :1.57209: AVG IPC :1.60461: L2-Pf-HR :0.81175: L2-HR :0.82595: (Sim:0h2m45s) 
CPU  0 inst:   41000000 cyc:   25307069 now IPC :1.55673: AVG IPC :1.60335: L2-Pf-HR :0.81171: L2-HR :0.82584: (Sim:0h2m49s) 
CPU  0 inst:   42000002 cyc:   26421702 now IPC :0.89716: AVG IPC :1.57241: L2-Pf-HR :0.80653: L2-HR :0.82126: (Sim:0h2m54s) 
CPU  0 inst:   43000001 cyc:   32588803 now IPC :0.16215: AVG IPC :1.29723: L2-Pf-HR :0.71652: L2-HR :0.77159: (Sim:0h3m9s) 
CPU  0 inst:   44000000 cyc:   36433326 now IPC :0.26011: AVG IPC :1.18476: L2-Pf-HR :0.69725: L2-HR :0.76028: (Sim:0h3m18s) 
CPU  0 inst:   45000002 cyc:   39873568 now IPC :0.29068: AVG IPC :1.10567: L2-Pf-HR :0.68545: L2-HR :0.75346: (Sim:0h3m27s) 
CPU  0 inst:   46000002 cyc:   43313837 now IPC :0.29067: AVG IPC :1.03943: L2-Pf-HR :0.67405: L2-HR :0.74686: (Sim:0h3m35s) 
CPU  0 inst:   47000002 cyc:   46754022 now IPC :0.29068: AVG IPC :0.98315: L2-Pf-HR :0.66302: L2-HR :0.74047: (Sim:0h3m44s) 
CPU  0 inst:   48000000 cyc:   50194221 now IPC :0.29068: AVG IPC :0.93475: L2-Pf-HR :0.65235: L2-HR :0.73427: (Sim:0h3m52s) 
CPU  0 inst:   49000002 cyc:   53634461 now IPC :0.29068: AVG IPC :0.89266: L2-Pf-HR :0.64202: L2-HR :0.72826: (Sim:0h4m0s) 
CPU  0 inst:   50000002 cyc:   57074730 now IPC :0.29067: AVG IPC :0.85574: L2-Pf-HR :0.63200: L2-HR :0.72242: (Sim:0h4m7s) 
CPU  0 inst:   51000002 cyc:   60514915 now IPC :0.29068: AVG IPC :0.82309: L2-Pf-HR :0.62230: L2-HR :0.71676: (Sim:0h4m13s) 
CPU  0 inst:   52000000 cyc:   63955114 now IPC :0.29068: AVG IPC :0.79400: L2-Pf-HR :0.61289: L2-HR :0.71125: (Sim:0h4m21s) 
CPU  0 inst:   53000002 cyc:   67395354 now IPC :0.29068: AVG IPC :0.76793: L2-Pf-HR :0.60376: L2-HR :0.70591: (Sim:0h4m28s) 
CPU  0 inst:   54000002 cyc:   70835623 now IPC :0.29067: AVG IPC :0.74442: L2-Pf-HR :0.59489: L2-HR :0.70071: (Sim:0h4m34s) 
CPU  0 inst:   55000002 cyc:   74275808 now IPC :0.29068: AVG IPC :0.72313: L2-Pf-HR :0.58629: L2-HR :0.69565: (Sim:0h4m39s) 
CPU  0 inst:   56000000 cyc:   77716007 now IPC :0.29068: AVG IPC :0.70374: L2-Pf-HR :0.57793: L2-HR :0.69073: (Sim:0h4m44s) 
CPU  0 inst:   57000002 cyc:   81156247 now IPC :0.29068: AVG IPC :0.68601: L2-Pf-HR :0.56980: L2-HR :0.68595: (Sim:0h4m49s) 
CPU  0 inst:   58000002 cyc:   84596516 now IPC :0.29067: AVG IPC :0.66975: L2-Pf-HR :0.56190: L2-HR :0.68129: (Sim:0h4m54s) 
CPU  0 inst:   59000002 cyc:   88036701 now IPC :0.29068: AVG IPC :0.65477: L2-Pf-HR :0.55421: L2-HR :0.67675: (Sim:0h5m0s) 
CPU  0 inst:   60000000 cyc:   90621411 now IPC :0.38689: AVG IPC :0.64704: L2-Pf-HR :0.54925: L2-HR :0.67257: (Sim:0h5m6s) 
CPU  0 inst:   61000002 cyc:   91239033 now IPC :1.61912: AVG IPC :0.65370: L2-Pf-HR :0.55721: L2-HR :0.67687: (Sim:0h5m10s) 
CPU  0 inst:   62000000 cyc:   91819212 now IPC :1.72360: AVG IPC :0.66053: L2-Pf-HR :0.56345: L2-HR :0.68004: (Sim:0h5m14s) 
CPU  0 inst:   63000002 cyc:   92462910 now IPC :1.55353: AVG IPC :0.66681: L2-Pf-HR :0.56888: L2-HR :0.68274: (Sim:0h5m18s) 
CPU  0 inst:   64000000 cyc:   93070108 now IPC :1.64691: AVG IPC :0.67328: L2-Pf-HR :0.57465: L2-HR :0.68579: (Sim:0h5m23s) 
CPU  0 inst:   65000000 cyc:   93583282 now IPC :1.94866: AVG IPC :0.68034: L2-Pf-HR :0.58227: L2-HR :0.69014: (Sim:0h5m27s) 
CPU  0 inst:   66000002 cyc:   94176934 now IPC :1.68449: AVG IPC :0.68674: L2-Pf-HR :0.58694: L2-HR :0.69263: (Sim:0h5m31s) 
CPU  0 inst:   67000001 cyc:   94785286 now IPC :1.64378: AVG IPC :0.69295: L2-Pf-HR :0.59123: L2-HR :0.69482: (Sim:0h5m35s) 
CPU  0 inst:   68000000 cyc:   95380058 now IPC :1.68131: AVG IPC :0.69917: L2-Pf-HR :0.59664: L2-HR :0.69784: (Sim:0h5m40s) 
CPU  0 inst:   69000003 cyc:   95884268 now IPC :1.98331: AVG IPC :0.70600: L2-Pf-HR :0.60245: L2-HR :0.70120: (Sim:0h5m44s) 
CPU  0 inst:   70000003 cyc:   96496041 now IPC :1.63459: AVG IPC :0.71194: L2-Pf-HR :0.60582: L2-HR :0.70290: (Sim:0h5m48s) 
CPU  0 inst:   71000000 cyc:   97102176 now IPC :1.64979: AVG IPC :0.71786: L2-Pf-HR :0.60933: L2-HR :0.70477: (Sim:0h5m52s) 
CPU  0 inst:   72000000 cyc:   97648297 now IPC :1.83110: AVG IPC :0.72415: L2-Pf-HR :0.61504: L2-HR :0.70834: (Sim:0h5m56s) 
CPU  0 inst:   73000000 cyc:   98209940 now IPC :1.78049: AVG IPC :0.73025: L2-Pf-HR :0.61869: L2-HR :0.71026: (Sim:0h6m1s) 
CPU  0 inst:   74000003 cyc:   98817068 now IPC :1.64710: AVG IPC :0.73594: L2-Pf-HR :0.62151: L2-HR :0.71170: (Sim:0h6m5s) 
CPU  0 inst:   75000000 cyc:   99420863 now IPC :1.65619: AVG IPC :0.74158: L2-Pf-HR :0.62493: L2-HR :0.71363: (Sim:0h6m9s) 
CPU  0 inst:   76000000 cyc:   99931150 now IPC :1.95968: AVG IPC :0.74787: L2-Pf-HR :0.63007: L2-HR :0.71680: (Sim:0h6m13s) 
CPU  0 inst:   77000003 cyc:  100534433 now IPC :1.65760: AVG IPC :0.75338: L2-Pf-HR :0.63257: L2-HR :0.71819: (Sim:0h6m17s) 
CPU  0 inst:   78000001 cyc:  101143176 now IPC :1.64273: AVG IPC :0.75878: L2-Pf-HR :0.63500: L2-HR :0.71945: (Sim:0h6m22s) 
CPU  0 inst:   79000000 cyc:  101740195 now IPC :1.67499: AVG IPC :0.76421: L2-Pf-HR :0.63849: L2-HR :0.72152: (Sim:0h6m26s) 
CPU  0 inst:   80000000 cyc:  102243776 now IPC :1.98578: AVG IPC :0.77029: L2-Pf-HR :0.64264: L2-HR :0.72404: (Sim:0h6m30s) 
CPU  0 inst:   81000002 cyc:  102853006 now IPC :1.64142: AVG IPC :0.77550: L2-Pf-HR :0.64501: L2-HR :0.72534: (Sim:0h6m34s) 
CPU  0 inst:   82000001 cyc:  103452716 now IPC :1.66747: AVG IPC :0.78072: L2-Pf-HR :0.64746: L2-HR :0.72672: (Sim:0h6m39s) 
CPU  0 inst:   83000000 cyc:  103995165 now IPC :1.84349: AVG IPC :0.78631: L2-Pf-HR :0.65161: L2-HR :0.72944: (Sim:0h6m43s) 
CPU  0 inst:   84000000 cyc:  104561429 now IPC :1.76596: AVG IPC :0.79167: L2-Pf-HR :0.65414: L2-HR :0.73087: (Sim:0h6m47s) 
CPU  0 inst:   85000001 cyc:  105173535 now IPC :1.63371: AVG IPC :0.79662: L2-Pf-HR :0.65612: L2-HR :0.73194: (Sim:0h6m51s) 
CPU  0 inst:   86000000 cyc:  105773018 now IPC :1.66810: AVG IPC :0.80160: L2-Pf-HR :0.65849: L2-HR :0.73333: (Sim:0h6m55s) 
CPU  0 inst:   87000000 cyc:  106284340 now IPC :1.95571: AVG IPC :0.80721: L2-Pf-HR :0.66239: L2-HR :0.73584: (Sim:0h6m59s) 
CPU  0 inst:   88000000 cyc:  106887073 now IPC :1.65911: AVG IPC :0.81206: L2-Pf-HR :0.66419: L2-HR :0.73689: (Sim:0h7m4s) 
CPU  0 inst:   89000000 cyc:  107492486 now IPC :1.65176: AVG IPC :0.81683: L2-Pf-HR :0.66594: L2-HR :0.73786: (Sim:0h7m8s) 
CPU  0 inst:   90000002 cyc:  108090679 now IPC :1.67170: AVG IPC :0.82160: L2-Pf-HR :0.66850: L2-HR :0.73943: (Sim:0h7m12s) 
CPU  0 inst:   91000001 cyc:  108593774 now IPC :1.98769: AVG IPC :0.82705: L2-Pf-HR :0.67160: L2-HR :0.74141: (Sim:0h7m16s) 
CPU  0 inst:   92000000 cyc:  109200361 now IPC :1.64857: AVG IPC :0.83166: L2-Pf-HR :0.67313: L2-HR :0.74224: (Sim:0h7m21s) 
CPU  0 inst:   93000003 cyc:  109812867 now IPC :1.63264: AVG IPC :0.83617: L2-Pf-HR :0.67485: L2-HR :0.74324: (Sim:0h7m25s) 
CPU  0 inst:   94000003 cyc:  110351060 now IPC :1.85807: AVG IPC :0.84120: L2-Pf-HR :0.67814: L2-HR :0.74546: (Sim:0h7m29s) 
CPU  0 inst:   95000000 cyc:  110928875 now IPC :1.73065: AVG IPC :0.84587: L2-Pf-HR :0.67980: L2-HR :0.74642: (Sim:0h7m33s) 
CPU  0 inst:   96000000 cyc:  111536839 now IPC :1.64483: AVG IPC :0.85026: L2-Pf-HR :0.68119: L2-HR :0.74720: (Sim:0h7m37s) 
CPU  0 inst:   97000003 cyc:  112141611 now IPC :1.65352: AVG IPC :0.85463: L2-Pf-HR :0.68295: L2-HR :0.74827: (Sim:0h7m42s) 
CPU  0 inst:   98000000 cyc:  112650148 now IPC :1.96642: AVG IPC :0.85970: L2-Pf-HR :0.68599: L2-HR :0.75028: (Sim:0h7m46s) 
CPU  0 inst:   99000003 cyc:  113250762 now IPC :1.66497: AVG IPC :0.86401: L2-Pf-HR :0.68712: L2-HR :0.75096: (Sim:0h7m50s) 
CPU  0 inst:  100000000 cyc:  113866505 now IPC :1.62405: AVG IPC :0.86815: L2-Pf-HR :0.68848: L2-HR :0.75171: (Sim:0h7m54s) 
Finished CPU 0 instr: 98000002 cyc: 112883546 AVG IPC: 0.86815 (Sim time: 0h7m54s)

ChampSim completed all CPUs

[ROI Statistics]
Core_0_instructions 98000002
Core_0_cycles 112883546
Core_0_IPC 0.86815

Core_0_branch_prediction_accuracy 98.32538
Core_0_branch_MPKI 0.51239
Core_0_average_ROB_occupancy_at_mispredict 220.65165

Core_0_L1D_total_access 29293446
Core_0_L1D_total_hit 26756822 L1D_total_Hit Ratio: 0.91341
Core_0_L1D_total_miss 2536624
Core_0_L1D_loads 22950433
Core_0_L1D_load_hit 22258113 L1D_load_Hit Ratio: 0.96983
Core_0_L1D_load_miss 692320
Core_0_L1D_RFOs 2958132
Core_0_L1D_RFO_hit 2911607 L1D_RFO_Hit Ratio: 0.98427
Core_0_L1D_RFO_miss 46525
Core_0_L1D_prefetches 3384881
Core_0_L1D_prefetch_hit 1587102 L1D_prefetch_Hit Ratio: 0.46888
Core_0_L1D_prefetch_miss 1797779
Core_0_L1D_writebacks 0
Core_0_L1D_writeback_hit 0 L1D_writeback_Hit Ratio: -nan
Core_0_L1D_writeback_miss 0
Core_0_L1D_prefetch_requested 3821185
Core_0_L1D_prefetch_issued 3821185
Core_0_L1D_prefetch_useful 1809092 L1D_Useful Ratio: 0.47344
Core_0_L1D_prefetch_useless 15643
Core_0_L1D_prefetch_late 225022
Core_0_L1D_average_miss_latency 4719643.23711

Core_0_L1I_total_access 23452230
Core_0_L1I_total_hit 23447453 L1I_total_Hit Ratio: 0.99980
Core_0_L1I_total_miss 4777
Core_0_L1I_loads 23452230
Core_0_L1I_load_hit 23447453 L1I_load_Hit Ratio: 0.99980
Core_0_L1I_load_miss 4777
Core_0_L1I_RFOs 0
Core_0_L1I_RFO_hit 0 L1I_RFO_Hit Ratio: -nan
Core_0_L1I_RFO_miss 0
Core_0_L1I_prefetches 0
Core_0_L1I_prefetch_hit 0 L1I_prefetch_Hit Ratio: -nan
Core_0_L1I_prefetch_miss 0
Core_0_L1I_writebacks 0
Core_0_L1I_writeback_hit 0 L1I_writeback_Hit Ratio: -nan
Core_0_L1I_writeback_miss 0
Core_0_L1I_prefetch_requested 0
Core_0_L1I_prefetch_issued 0
Core_0_L1I_prefetch_useful 0 L1I_Useful Ratio: -nan
Core_0_L1I_prefetch_useless 0
Core_0_L1I_prefetch_late 0
Core_0_L1I_average_miss_latency 240.32887

Core_0_L2C_total_access 3554299
Core_0_L2C_total_hit 2671794 L2C_total_Hit Ratio: 0.75171
Core_0_L2C_total_miss 882505
Core_0_L2C_loads 472690
Core_0_L2C_load_hit 341647 L2C_load_Hit Ratio: 0.72277
Core_0_L2C_load_miss 131043
Core_0_L2C_RFOs 46214
Core_0_L2C_RFO_hit 25944 L2C_RFO_Hit Ratio: 0.56139
Core_0_L2C_RFO_miss 20270
Core_0_L2C_prefetches 2346156
Core_0_L2C_prefetch_hit 1615273 L2C_prefetch_Hit Ratio: 0.68848
Core_0_L2C_prefetch_miss 730883
Core_0_L2C_writebacks 689239
Core_0_L2C_writeback_hit 688930 L2C_writeback_Hit Ratio: 0.99955
Core_0_L2C_writeback_miss 309
Core_0_L2C_prefetch_requested 567022
Core_0_L2C_prefetch_issued 567022
Core_0_L2C_prefetch_useful 141858 L2C_Useful Ratio: 0.25018
Core_0_L2C_prefetch_useless 589310
Core_0_L2C_prefetch_late 13064
Core_0_L2C_average_miss_latency 309.78814

Core_0_LLC_total_access 1375478
Core_0_LLC_total_hit 565525 LLC_total_Hit Ratio: 0.41115
Core_0_LLC_total_miss 809953
Core_0_LLC_loads 118021
Core_0_LLC_load_hit 6381 LLC_load_Hit Ratio: 0.05407
Core_0_LLC_load_miss 111640
Core_0_LLC_RFOs 20270
Core_0_LLC_RFO_hit 11211 LLC_RFO_Hit Ratio: 0.55308
Core_0_LLC_RFO_miss 9059
Core_0_LLC_prefetches 743894
Core_0_LLC_prefetch_hit 59313 LLC_prefetch_Hit Ratio: 0.07973
Core_0_LLC_prefetch_miss 684581
Core_0_LLC_writebacks 493293
Core_0_LLC_writeback_hit 488620 LLC_writeback_Hit Ratio: 0.99053
Core_0_LLC_writeback_miss 4673
Core_0_LLC_prefetch_requested 0
Core_0_LLC_prefetch_issued 0
Core_0_LLC_prefetch_useful 1311 LLC_Useful Ratio: inf
Core_0_LLC_prefetch_useless 663318
Core_0_LLC_prefetch_late 0
Core_0_LLC_average_miss_latency 304.82395

Core_0_major_page_fault 0
Core_0_minor_page_fault 7592

[Bingo] PHT Access: 225175
[Bingo] PHT Hit PC+Addr: 110826
[Bingo] PHT Hit PC+Offs: 105838
[Bingo] PHT Miss: 8511
[Bingo] Prefetch PC+Addr: 0
[Bingo] Prefetch PC+Offs: 0
[Bingo] Useful PC+Addr: 0
[Bingo] Useful PC+Offs: 0
[Bingo] Useless PC+Addr: 0
[Bingo] Useless PC+Offs: 0
[Bingo] L1 Prefetch per Region: 19.45051
[Bingo] L2 Prefetch per Region: 0.07449
[Bingo] L3 Prefetch per Region: 0.00000
[Bingo] No Prefetch per Region: 12.47500
[Bingo] Number of Voters Mean: 13.74460
[Bingo] Number of Voters SD: 4.46617
PHT read accesses: 2725194
PHT write accesses: 212776
AT read accesses: 21677633
AT write accesses: 21677631
FT read accesses: 3347445
FT write accesses: 225175
PS read accesses: 1630809
PS write accesses: 216664
PHT tag read accesses: 7802989
PHT tag write accesses: 323602
AT tag read accesses: 416479992
AT tag write accesses: 21890407
FT tag read accesses: 76431495
FT tag write accesses: 2011415
PS tag read accesses: 375664596
PS tag write accesses: 1837585
[Bingo2] PHT Access: 73325
[Bingo2] PHT Hit PC+Addr: 4810
[Bingo2] PHT Hit PC+Offs: 57511
[Bingo2] PHT Miss: 11004
[Bingo2] Prefetch PC+Addr: 0
[Bingo2] Prefetch PC+Offs: 0
[Bingo2] Useful PC+Addr: 0
[Bingo2] Useful PC+Offs: 0
[Bingo2] Useless PC+Addr: 0
[Bingo2] Useless PC+Offs: 0
[Bingo2] L1 Prefetch per Region: 0.00000
[Bingo2] L2 Prefetch per Region: 13.52056
[Bingo2] L3 Prefetch per Region: 0.00000
[Bingo2] No Prefetch per Region: 18.47944
[Bingo2] Number of Voters Mean: 12.19036
[Bingo2] Number of Voters SD: 4.99781
PHT read accesses: 1133218
PHT write accesses: 49134
AT read accesses: 390060
AT write accesses: 435348
FT read accesses: 174910
FT write accesses: 73325
PS read accesses: 173368
PS write accesses: 62321
PHT tag read accesses: 2658534
PHT tag write accesses: 53944
AT tag read accesses: 24012082
AT tag write accesses: 439189
FT tag read accesses: 18993227
FT tag write accesses: 185960
PS tag read accesses: 9609958
PS tag write accesses: 226324
Channel_0_RQ_row_buffer_hit 480302
Channel_0_RQ_row_buffer_miss 324978
Channel_0_WQ_row_buffer_hit 157572
Channel_0_WQ_row_buffer_miss 273172
Channel_0_WQ_full 0
Channel_0_dbus_congested 1013617

avg_congested_cycle 11

EzSearch AVG IPC :0.86815: L2-Pf-HR :0.68848 : L2-HR :0.75171 Uful:0.25018
     > Finished combination: TraceType=770-tot Sim:98000000 Prefetcher=L2bingo_dpc3_PHT1k L1=bingo_dpc3_PHT1k
