TRACE: [167000000][OPT-350M]_[h16][s512][d64] Warmup: 2000000 NumTraces: 167000000
L1:bingo_dpc3_PHT1k:L2:bingo_dpc3_PHT1k
*************************************************
   ChampSim Multicore Out-of-Order Simulator
   Last compiled: Oct 26 2024 13:14:13
*************************************************

trace_0 770-tot_memTraces_v3/memTraces[167000000][OPT-350M]_[h16][s512][d64].champsim.xz
Bingo PHT WAYS: 16 and PHT_SIZE: 1024
Bingo2 PHT WAYS: 16 and PHT_SIZE: 1024
MAIN.cc ln 751 stats print skipped
CPU  0 inst:    1000002 cyc:     501868 now IPC :1.99256: AVG IPC :1.99256: L2-Pf-HR :0.64782: L2-HR :0.59592: (Sim:0h0m3s) 
CPU  0 inst:    2000002 cyc:     976152 now IPC :2.10844: AVG IPC :2.04886: L2-Pf-HR :0.69764: L2-HR :0.64310: (Sim:0h0m5s) 

Warmup complete CPU  0 instructions:    2000002 cycles:     976152 (Simulation time: 0 hr 0 min 5 sec) 

CPU  0 inst:    3000001 cyc:    1658024 now IPC :1.46655: AVG IPC :1.46655: L2-Pf-HR :0.76987: L2-HR :0.68801: (Sim:0h0m8s) 
CPU  0 inst:    4000000 cyc:    2334551 now IPC :1.47814: AVG IPC :1.47232: L2-Pf-HR :0.77603: L2-HR :0.70172: (Sim:0h0m11s) 
CPU  0 inst:    5000000 cyc:    3063671 now IPC :1.37152: AVG IPC :1.43711: L2-Pf-HR :0.70443: L2-HR :0.66612: (Sim:0h0m13s) 
CPU  0 inst:    6000002 cyc:    3735868 now IPC :1.48766: AVG IPC :1.44942: L2-Pf-HR :0.69222: L2-HR :0.65596: (Sim:0h0m16s) 
CPU  0 inst:    7000000 cyc:    4410073 now IPC :1.48323: AVG IPC :1.45606: L2-Pf-HR :0.69601: L2-HR :0.65628: (Sim:0h0m19s) 
CPU  0 inst:    8000000 cyc:    5154560 now IPC :1.34321: AVG IPC :1.43595: L2-Pf-HR :0.70846: L2-HR :0.66409: (Sim:0h0m22s) 
CPU  0 inst:    9000002 cyc:    5969265 now IPC :1.22744: AVG IPC :1.40193: L2-Pf-HR :0.69971: L2-HR :0.66011: (Sim:0h0m24s) 
CPU  0 inst:   10000002 cyc:    6691431 now IPC :1.38472: AVG IPC :1.39976: L2-Pf-HR :0.68878: L2-HR :0.65246: (Sim:0h0m27s) 
CPU  0 inst:   11000003 cyc:    7407690 now IPC :1.39614: AVG IPC :1.39935: L2-Pf-HR :0.68911: L2-HR :0.65146: (Sim:0h0m30s) 
CPU  0 inst:   12000000 cyc:    8165483 now IPC :1.31962: AVG IPC :1.39095: L2-Pf-HR :0.69648: L2-HR :0.65590: (Sim:0h0m33s) 
CPU  0 inst:   13000000 cyc:    8978967 now IPC :1.22928: AVG IPC :1.37452: L2-Pf-HR :0.69280: L2-HR :0.65514: (Sim:0h0m36s) 
CPU  0 inst:   14000000 cyc:    9706581 now IPC :1.37436: AVG IPC :1.37450: L2-Pf-HR :0.69131: L2-HR :0.65359: (Sim:0h0m39s) 
CPU  0 inst:   15000000 cyc:   10437986 now IPC :1.36723: AVG IPC :1.37394: L2-Pf-HR :0.69217: L2-HR :0.65338: (Sim:0h0m42s) 
CPU  0 inst:   16000000 cyc:   11197852 now IPC :1.31602: AVG IPC :1.36963: L2-Pf-HR :0.69618: L2-HR :0.65568: (Sim:0h0m44s) 
CPU  0 inst:   17000002 cyc:   12015999 now IPC :1.22228: AVG IPC :1.35871: L2-Pf-HR :0.68440: L2-HR :0.65013: (Sim:0h0m47s) 
CPU  0 inst:   18000001 cyc:   12732896 now IPC :1.39490: AVG IPC :1.36092: L2-Pf-HR :0.67896: L2-HR :0.64634: (Sim:0h0m50s) 
CPU  0 inst:   19000001 cyc:   13449922 now IPC :1.39465: AVG IPC :1.36286: L2-Pf-HR :0.67844: L2-HR :0.64554: (Sim:0h0m53s) 
CPU  0 inst:   20000000 cyc:   14203553 now IPC :1.32691: AVG IPC :1.36081: L2-Pf-HR :0.68332: L2-HR :0.64816: (Sim:0h0m55s) 
CPU  0 inst:   21000000 cyc:   15012524 now IPC :1.23614: AVG IPC :1.35363: L2-Pf-HR :0.67510: L2-HR :0.64463: (Sim:0h0m58s) 
CPU  0 inst:   22000003 cyc:   15725064 now IPC :1.40343: AVG IPC :1.35603: L2-Pf-HR :0.67345: L2-HR :0.64353: (Sim:0h1m1s) 
CPU  0 inst:   23000003 cyc:   16432701 now IPC :1.41315: AVG IPC :1.35865: L2-Pf-HR :0.67436: L2-HR :0.64372: (Sim:0h1m4s) 
CPU  0 inst:   24000000 cyc:   17180557 now IPC :1.33715: AVG IPC :1.35766: L2-Pf-HR :0.67749: L2-HR :0.64517: (Sim:0h1m7s) 
CPU  0 inst:   25000001 cyc:   17988949 now IPC :1.23702: AVG IPC :1.35192: L2-Pf-HR :0.67506: L2-HR :0.64456: (Sim:0h1m9s) 
CPU  0 inst:   26000001 cyc:   18717075 now IPC :1.37339: AVG IPC :1.35280: L2-Pf-HR :0.67653: L2-HR :0.64515: (Sim:0h1m13s) 
CPU  0 inst:   27000001 cyc:   19433180 now IPC :1.39644: AVG IPC :1.35450: L2-Pf-HR :0.67673: L2-HR :0.64500: (Sim:0h1m18s) 
CPU  0 inst:   28000000 cyc:   20194295 now IPC :1.31386: AVG IPC :1.35289: L2-Pf-HR :0.68007: L2-HR :0.64660: (Sim:0h1m22s) 
CPU  0 inst:   29000001 cyc:   21005275 now IPC :1.23308: AVG IPC :1.34804: L2-Pf-HR :0.67702: L2-HR :0.64577: (Sim:0h1m27s) 
CPU  0 inst:   30000003 cyc:   21743437 now IPC :1.35472: AVG IPC :1.34827: L2-Pf-HR :0.67506: L2-HR :0.64432: (Sim:0h1m32s) 
CPU  0 inst:   31000000 cyc:   22462604 now IPC :1.39049: AVG IPC :1.34969: L2-Pf-HR :0.67328: L2-HR :0.64306: (Sim:0h1m36s) 
CPU  0 inst:   32000000 cyc:   23212047 now IPC :1.33432: AVG IPC :1.34917: L2-Pf-HR :0.67474: L2-HR :0.64356: (Sim:0h1m41s) 
CPU  0 inst:   33000001 cyc:   23990959 now IPC :1.28384: AVG IPC :1.34696: L2-Pf-HR :0.67684: L2-HR :0.64529: (Sim:0h1m46s) 
CPU  0 inst:   34000002 cyc:   24755568 now IPC :1.30786: AVG IPC :1.34570: L2-Pf-HR :0.67431: L2-HR :0.64376: (Sim:0h1m50s) 
CPU  0 inst:   35000002 cyc:   25465382 now IPC :1.40882: AVG IPC :1.34753: L2-Pf-HR :0.67170: L2-HR :0.64204: (Sim:0h1m55s) 
CPU  0 inst:   36000000 cyc:   26187866 now IPC :1.38411: AVG IPC :1.34858: L2-Pf-HR :0.67203: L2-HR :0.64188: (Sim:0h1m59s) 
CPU  0 inst:   37000003 cyc:   26938460 now IPC :1.33228: AVG IPC :1.34811: L2-Pf-HR :0.67467: L2-HR :0.64372: (Sim:0h2m4s) 
CPU  0 inst:   38000003 cyc:   27751635 now IPC :1.22975: AVG IPC :1.34451: L2-Pf-HR :0.67297: L2-HR :0.64287: (Sim:0h2m9s) 
CPU  0 inst:   39000002 cyc:   28466560 now IPC :1.39875: AVG IPC :1.34592: L2-Pf-HR :0.67052: L2-HR :0.64130: (Sim:0h2m13s) 
CPU  0 inst:   40000000 cyc:   29199570 now IPC :1.36424: AVG IPC :1.34640: L2-Pf-HR :0.67112: L2-HR :0.64133: (Sim:0h2m18s) 
CPU  0 inst:   41000003 cyc:   29945129 now IPC :1.34128: AVG IPC :1.34627: L2-Pf-HR :0.67393: L2-HR :0.64339: (Sim:0h2m22s) 
CPU  0 inst:   42000000 cyc:   30757026 now IPC :1.23168: AVG IPC :1.34314: L2-Pf-HR :0.67189: L2-HR :0.64250: (Sim:0h2m27s) 
CPU  0 inst:   43000003 cyc:   31464782 now IPC :1.41292: AVG IPC :1.34476: L2-Pf-HR :0.66987: L2-HR :0.64115: (Sim:0h2m32s) 
CPU  0 inst:   44000000 cyc:   32190558 now IPC :1.37783: AVG IPC :1.34553: L2-Pf-HR :0.67005: L2-HR :0.64096: (Sim:0h2m36s) 
CPU  0 inst:   45000002 cyc:   32945905 now IPC :1.32390: AVG IPC :1.34502: L2-Pf-HR :0.67230: L2-HR :0.64242: (Sim:0h2m39s) 
CPU  0 inst:   46000002 cyc:   33760609 now IPC :1.22744: AVG IPC :1.34210: L2-Pf-HR :0.67146: L2-HR :0.64216: (Sim:0h2m42s) 
CPU  0 inst:   47000000 cyc:   34482004 now IPC :1.38620: AVG IPC :1.34305: L2-Pf-HR :0.66887: L2-HR :0.64047: (Sim:0h2m45s) 
CPU  0 inst:   48000000 cyc:   35207307 now IPC :1.37873: AVG IPC :1.34381: L2-Pf-HR :0.66959: L2-HR :0.64063: (Sim:0h2m48s) 
CPU  0 inst:   49000002 cyc:   35964396 now IPC :1.32085: AVG IPC :1.34331: L2-Pf-HR :0.67163: L2-HR :0.64191: (Sim:0h2m50s) 
CPU  0 inst:   50000000 cyc:   36781356 now IPC :1.22405: AVG IPC :1.34059: L2-Pf-HR :0.67072: L2-HR :0.64160: (Sim:0h2m53s) 
CPU  0 inst:   51000003 cyc:   37502767 now IPC :1.38618: AVG IPC :1.34149: L2-Pf-HR :0.66960: L2-HR :0.64077: (Sim:0h2m56s) 
CPU  0 inst:   52000000 cyc:   38228689 now IPC :1.37755: AVG IPC :1.34219: L2-Pf-HR :0.66955: L2-HR :0.64054: (Sim:0h2m59s) 
CPU  0 inst:   53000001 cyc:   38991580 now IPC :1.31080: AVG IPC :1.34156: L2-Pf-HR :0.67145: L2-HR :0.64164: (Sim:0h3m2s) 
CPU  0 inst:   54000002 cyc:   39803776 now IPC :1.23123: AVG IPC :1.33925: L2-Pf-HR :0.67059: L2-HR :0.64141: (Sim:0h3m5s) 
CPU  0 inst:   55000001 cyc:   40527287 now IPC :1.38215: AVG IPC :1.34004: L2-Pf-HR :0.66947: L2-HR :0.64065: (Sim:0h3m8s) 
CPU  0 inst:   56000000 cyc:   41249211 now IPC :1.38519: AVG IPC :1.34085: L2-Pf-HR :0.66954: L2-HR :0.64054: (Sim:0h3m11s) 
CPU  0 inst:   57000003 cyc:   42010899 now IPC :1.31288: AVG IPC :1.34033: L2-Pf-HR :0.67127: L2-HR :0.64144: (Sim:0h3m14s) 
CPU  0 inst:   58000000 cyc:   42819438 now IPC :1.23680: AVG IPC :1.33833: L2-Pf-HR :0.66869: L2-HR :0.64021: (Sim:0h3m16s) 
CPU  0 inst:   59000003 cyc:   43536739 now IPC :1.39412: AVG IPC :1.33927: L2-Pf-HR :0.66692: L2-HR :0.63898: (Sim:0h3m19s) 
CPU  0 inst:   60000000 cyc:   44256218 now IPC :1.38989: AVG IPC :1.34011: L2-Pf-HR :0.66756: L2-HR :0.63920: (Sim:0h3m22s) 
CPU  0 inst:   61000003 cyc:   45009967 now IPC :1.32671: AVG IPC :1.33988: L2-Pf-HR :0.66899: L2-HR :0.63992: (Sim:0h3m25s) 
CPU  0 inst:   62000001 cyc:   45821927 now IPC :1.23159: AVG IPC :1.33792: L2-Pf-HR :0.66781: L2-HR :0.63959: (Sim:0h3m28s) 
CPU  0 inst:   63000001 cyc:   46545013 now IPC :1.38296: AVG IPC :1.33863: L2-Pf-HR :0.66720: L2-HR :0.63908: (Sim:0h3m33s) 
CPU  0 inst:   64000000 cyc:   47261307 now IPC :1.39607: AVG IPC :1.33952: L2-Pf-HR :0.66679: L2-HR :0.63870: (Sim:0h3m37s) 
CPU  0 inst:   65000001 cyc:   48014560 now IPC :1.32758: AVG IPC :1.33933: L2-Pf-HR :0.66800: L2-HR :0.63924: (Sim:0h3m42s) 
CPU  0 inst:   66000000 cyc:   49429370 now IPC :0.70681: AVG IPC :1.32086: L2-Pf-HR :0.66410: L2-HR :0.63795: (Sim:0h3m46s) 
CPU  0 inst:   67000001 cyc:   55784454 now IPC :0.15735: AVG IPC :1.18595: L2-Pf-HR :0.61296: L2-HR :0.62443: (Sim:0h3m56s) 
CPU  0 inst:   68000000 cyc:   62293570 now IPC :0.15363: AVG IPC :1.07637: L2-Pf-HR :0.56933: L2-HR :0.61341: (Sim:0h4m9s) 
CPU  0 inst:   69000000 cyc:   66648153 now IPC :0.22964: AVG IPC :1.02022: L2-Pf-HR :0.55598: L2-HR :0.60897: (Sim:0h4m19s) 
CPU  0 inst:   70000000 cyc:   70175867 now IPC :0.28347: AVG IPC :0.98266: L2-Pf-HR :0.55234: L2-HR :0.60688: (Sim:0h4m28s) 
CPU  0 inst:   71000002 cyc:   73703015 now IPC :0.28352: AVG IPC :0.94876: L2-Pf-HR :0.54868: L2-HR :0.60483: (Sim:0h4m37s) 
CPU  0 inst:   72000000 cyc:   77230311 now IPC :0.28350: AVG IPC :0.91798: L2-Pf-HR :0.54514: L2-HR :0.60283: (Sim:0h4m45s) 
CPU  0 inst:   73000003 cyc:   80757787 now IPC :0.28349: AVG IPC :0.88993: L2-Pf-HR :0.54158: L2-HR :0.60087: (Sim:0h4m54s) 
CPU  0 inst:   74000000 cyc:   84284019 now IPC :0.28359: AVG IPC :0.86426: L2-Pf-HR :0.53806: L2-HR :0.59895: (Sim:0h5m3s) 
CPU  0 inst:   75000003 cyc:   87810913 now IPC :0.28354: AVG IPC :0.84068: L2-Pf-HR :0.53462: L2-HR :0.59707: (Sim:0h5m11s) 
CPU  0 inst:   76000000 cyc:   91338173 now IPC :0.28351: AVG IPC :0.81893: L2-Pf-HR :0.53125: L2-HR :0.59522: (Sim:0h5m20s) 
CPU  0 inst:   77000000 cyc:   94865611 now IPC :0.28349: AVG IPC :0.79881: L2-Pf-HR :0.52781: L2-HR :0.59342: (Sim:0h5m29s) 
CPU  0 inst:   78000000 cyc:   98393199 now IPC :0.28348: AVG IPC :0.78015: L2-Pf-HR :0.52449: L2-HR :0.59165: (Sim:0h5m37s) 
CPU  0 inst:   79000002 cyc:  101920432 now IPC :0.28351: AVG IPC :0.76280: L2-Pf-HR :0.52131: L2-HR :0.58992: (Sim:0h5m46s) 
CPU  0 inst:   80000000 cyc:  105447943 now IPC :0.28349: AVG IPC :0.74661: L2-Pf-HR :0.51818: L2-HR :0.58822: (Sim:0h5m53s) 
CPU  0 inst:   81000003 cyc:  108975611 now IPC :0.28347: AVG IPC :0.73149: L2-Pf-HR :0.51518: L2-HR :0.58656: (Sim:0h5m59s) 
CPU  0 inst:   82000000 cyc:  112502822 now IPC :0.28351: AVG IPC :0.71732: L2-Pf-HR :0.51229: L2-HR :0.58493: (Sim:0h6m5s) 
CPU  0 inst:   83000002 cyc:  116029628 now IPC :0.28354: AVG IPC :0.70402: L2-Pf-HR :0.50931: L2-HR :0.58333: (Sim:0h6m10s) 
CPU  0 inst:   84000000 cyc:  119556095 now IPC :0.28357: AVG IPC :0.69152: L2-Pf-HR :0.50636: L2-HR :0.58176: (Sim:0h6m16s) 
CPU  0 inst:   85000000 cyc:  123083121 now IPC :0.28352: AVG IPC :0.67973: L2-Pf-HR :0.50352: L2-HR :0.58021: (Sim:0h6m22s) 
CPU  0 inst:   86000000 cyc:  126610258 now IPC :0.28352: AVG IPC :0.66861: L2-Pf-HR :0.50068: L2-HR :0.57870: (Sim:0h6m30s) 
CPU  0 inst:   87000002 cyc:  130137592 now IPC :0.28350: AVG IPC :0.65809: L2-Pf-HR :0.49799: L2-HR :0.57722: (Sim:0h6m39s) 
CPU  0 inst:   88000000 cyc:  133665321 now IPC :0.28347: AVG IPC :0.64813: L2-Pf-HR :0.49544: L2-HR :0.57576: (Sim:0h6m48s) 
CPU  0 inst:   89000003 cyc:  137192470 now IPC :0.28352: AVG IPC :0.63869: L2-Pf-HR :0.49280: L2-HR :0.57433: (Sim:0h6m57s) 
CPU  0 inst:   90000000 cyc:  140719728 now IPC :0.28351: AVG IPC :0.62972: L2-Pf-HR :0.49022: L2-HR :0.57293: (Sim:0h7m6s) 
CPU  0 inst:   91000001 cyc:  144247488 now IPC :0.28347: AVG IPC :0.62120: L2-Pf-HR :0.48770: L2-HR :0.57155: (Sim:0h7m15s) 
CPU  0 inst:   92000000 cyc:  147774925 now IPC :0.28349: AVG IPC :0.61308: L2-Pf-HR :0.48522: L2-HR :0.57019: (Sim:0h7m23s) 
CPU  0 inst:   93000001 cyc:  151301524 now IPC :0.28356: AVG IPC :0.60535: L2-Pf-HR :0.48276: L2-HR :0.56886: (Sim:0h7m32s) 
CPU  0 inst:   94000002 cyc:  154827773 now IPC :0.28359: AVG IPC :0.59798: L2-Pf-HR :0.48038: L2-HR :0.56755: (Sim:0h7m41s) 
CPU  0 inst:   95000002 cyc:  158354984 now IPC :0.28351: AVG IPC :0.59093: L2-Pf-HR :0.47810: L2-HR :0.56626: (Sim:0h7m50s) 
CPU  0 inst:   96000000 cyc:  161882613 now IPC :0.28348: AVG IPC :0.58419: L2-Pf-HR :0.47596: L2-HR :0.56500: (Sim:0h7m59s) 
CPU  0 inst:   97000003 cyc:  165409866 now IPC :0.28351: AVG IPC :0.57774: L2-Pf-HR :0.47369: L2-HR :0.56376: (Sim:0h8m8s) 
CPU  0 inst:   98000000 cyc:  168937362 now IPC :0.28349: AVG IPC :0.57156: L2-Pf-HR :0.47149: L2-HR :0.56254: (Sim:0h8m17s) 
CPU  0 inst:   99000001 cyc:  172465021 now IPC :0.28347: AVG IPC :0.56563: L2-Pf-HR :0.46930: L2-HR :0.56133: (Sim:0h8m26s) 
CPU  0 inst:  100000000 cyc:  175992216 now IPC :0.28351: AVG IPC :0.55995: L2-Pf-HR :0.46719: L2-HR :0.56015: (Sim:0h8m34s) 
CPU  0 inst:  101000000 cyc:  178104356 now IPC :0.47345: AVG IPC :0.55892: L2-Pf-HR :0.47265: L2-HR :0.56358: (Sim:0h8m41s) 
CPU  0 inst:  102000003 cyc:  178718774 now IPC :1.62756: AVG IPC :0.56261: L2-Pf-HR :0.48479: L2-HR :0.57172: (Sim:0h8m46s) 
CPU  0 inst:  103000000 cyc:  179430453 now IPC :1.40512: AVG IPC :0.56597: L2-Pf-HR :0.49508: L2-HR :0.57893: (Sim:0h8m51s) 
CPU  0 inst:  104000000 cyc:  180013920 now IPC :1.71389: AVG IPC :0.56971: L2-Pf-HR :0.50571: L2-HR :0.58649: (Sim:0h8m56s) 
CPU  0 inst:  105000003 cyc:  180661131 now IPC :1.54510: AVG IPC :0.57323: L2-Pf-HR :0.51526: L2-HR :0.59345: (Sim:0h9m1s) 
CPU  0 inst:  106000001 cyc:  181277988 now IPC :1.62112: AVG IPC :0.57681: L2-Pf-HR :0.52497: L2-HR :0.60025: (Sim:0h9m6s) 
CPU  0 inst:  107000002 cyc:  181909681 now IPC :1.58305: AVG IPC :0.58032: L2-Pf-HR :0.53347: L2-HR :0.60660: (Sim:0h9m11s) 
CPU  0 inst:  108000000 cyc:  182486025 now IPC :1.73507: AVG IPC :0.58399: L2-Pf-HR :0.54218: L2-HR :0.61303: (Sim:0h9m16s) 
CPU  0 inst:  109000003 cyc:  183087399 now IPC :1.66286: AVG IPC :0.58755: L2-Pf-HR :0.54991: L2-HR :0.61897: (Sim:0h9m21s) 
CPU  0 inst:  110000000 cyc:  183707080 now IPC :1.61373: AVG IPC :0.59103: L2-Pf-HR :0.55795: L2-HR :0.62472: (Sim:0h9m26s) 
CPU  0 inst:  111000003 cyc:  184326819 now IPC :1.61359: AVG IPC :0.59449: L2-Pf-HR :0.56521: L2-HR :0.63021: (Sim:0h9m31s) 
CPU  0 inst:  112000000 cyc:  184900847 now IPC :1.74207: AVG IPC :0.59807: L2-Pf-HR :0.57238: L2-HR :0.63570: (Sim:0h9m36s) 
CPU  0 inst:  113000002 cyc:  185496858 now IPC :1.67782: AVG IPC :0.60156: L2-Pf-HR :0.57888: L2-HR :0.64080: (Sim:0h9m41s) 
CPU  0 inst:  114000001 cyc:  186115066 now IPC :1.61758: AVG IPC :0.60495: L2-Pf-HR :0.58557: L2-HR :0.64577: (Sim:0h9m46s) 
CPU  0 inst:  115000002 cyc:  186720709 now IPC :1.65114: AVG IPC :0.60836: L2-Pf-HR :0.59212: L2-HR :0.65071: (Sim:0h9m51s) 
CPU  0 inst:  116000000 cyc:  187309206 now IPC :1.69924: AVG IPC :0.61181: L2-Pf-HR :0.59791: L2-HR :0.65532: (Sim:0h9m56s) 
CPU  0 inst:  117000003 cyc:  187884071 now IPC :1.73954: AVG IPC :0.61528: L2-Pf-HR :0.60377: L2-HR :0.65993: (Sim:0h10m1s) 
CPU  0 inst:  118000001 cyc:  188515775 now IPC :1.58302: AVG IPC :0.61854: L2-Pf-HR :0.60915: L2-HR :0.66408: (Sim:0h10m6s) 
CPU  0 inst:  119000003 cyc:  189124992 now IPC :1.64145: AVG IPC :0.62185: L2-Pf-HR :0.61480: L2-HR :0.66836: (Sim:0h10m11s) 
CPU  0 inst:  120000000 cyc:  189722748 now IPC :1.67292: AVG IPC :0.62518: L2-Pf-HR :0.61973: L2-HR :0.67242: (Sim:0h10m16s) 
CPU  0 inst:  121000001 cyc:  190298079 now IPC :1.73813: AVG IPC :0.62856: L2-Pf-HR :0.62489: L2-HR :0.67648: (Sim:0h10m21s) 
CPU  0 inst:  122000002 cyc:  190924540 now IPC :1.59627: AVG IPC :0.63175: L2-Pf-HR :0.62936: L2-HR :0.68011: (Sim:0h10m26s) 
CPU  0 inst:  123000001 cyc:  191536311 now IPC :1.63460: AVG IPC :0.63497: L2-Pf-HR :0.63434: L2-HR :0.68389: (Sim:0h10m31s) 
CPU  0 inst:  124000000 cyc:  192138509 now IPC :1.66058: AVG IPC :0.63820: L2-Pf-HR :0.63865: L2-HR :0.68749: (Sim:0h10m35s) 
CPU  0 inst:  125000001 cyc:  192712494 now IPC :1.74221: AVG IPC :0.64151: L2-Pf-HR :0.64305: L2-HR :0.69103: (Sim:0h10m38s) 
CPU  0 inst:  126000003 cyc:  193332094 now IPC :1.61395: AVG IPC :0.64464: L2-Pf-HR :0.64702: L2-HR :0.69430: (Sim:0h10m42s) 
CPU  0 inst:  127000000 cyc:  193945434 now IPC :1.63041: AVG IPC :0.64777: L2-Pf-HR :0.65137: L2-HR :0.69767: (Sim:0h10m45s) 
CPU  0 inst:  128000000 cyc:  194556697 now IPC :1.63596: AVG IPC :0.65089: L2-Pf-HR :0.65507: L2-HR :0.70080: (Sim:0h10m48s) 
CPU  0 inst:  129000001 cyc:  195129884 now IPC :1.74463: AVG IPC :0.65412: L2-Pf-HR :0.65897: L2-HR :0.70396: (Sim:0h10m52s) 
CPU  0 inst:  130000000 cyc:  195736295 now IPC :1.64904: AVG IPC :0.65722: L2-Pf-HR :0.66246: L2-HR :0.70692: (Sim:0h10m56s) 
CPU  0 inst:  131000003 cyc:  196347481 now IPC :1.63617: AVG IPC :0.66028: L2-Pf-HR :0.66632: L2-HR :0.70993: (Sim:0h11m0s) 
CPU  0 inst:  132000000 cyc:  196967690 now IPC :1.61235: AVG IPC :0.66329: L2-Pf-HR :0.66954: L2-HR :0.71268: (Sim:0h11m5s) 
CPU  0 inst:  133000003 cyc:  197542795 now IPC :1.73882: AVG IPC :0.66644: L2-Pf-HR :0.67298: L2-HR :0.71553: (Sim:0h11m10s) 
CPU  0 inst:  134000001 cyc:  198141718 now IPC :1.66966: AVG IPC :0.66949: L2-Pf-HR :0.67610: L2-HR :0.71823: (Sim:0h11m15s) 
CPU  0 inst:  135000000 cyc:  198752032 now IPC :1.63850: AVG IPC :0.67248: L2-Pf-HR :0.67947: L2-HR :0.72092: (Sim:0h11m20s) 
CPU  0 inst:  136000000 cyc:  199379647 now IPC :1.59333: AVG IPC :0.67539: L2-Pf-HR :0.68238: L2-HR :0.72335: (Sim:0h11m25s) 
CPU  0 inst:  137000002 cyc:  199954713 now IPC :1.73893: AVG IPC :0.67847: L2-Pf-HR :0.68543: L2-HR :0.72595: (Sim:0h11m30s) 
CPU  0 inst:  138000001 cyc:  200527811 now IPC :1.74490: AVG IPC :0.68153: L2-Pf-HR :0.68843: L2-HR :0.72854: (Sim:0h11m35s) 
CPU  0 inst:  139000001 cyc:  201152596 now IPC :1.60055: AVG IPC :0.68440: L2-Pf-HR :0.69123: L2-HR :0.73083: (Sim:0h11m40s) 
CPU  0 inst:  140000000 cyc:  201777012 now IPC :1.60149: AVG IPC :0.68725: L2-Pf-HR :0.69405: L2-HR :0.73316: (Sim:0h11m45s) 
CPU  0 inst:  141000002 cyc:  202368442 now IPC :1.69082: AVG IPC :0.69020: L2-Pf-HR :0.69660: L2-HR :0.73539: (Sim:0h11m49s) 
CPU  0 inst:  142000002 cyc:  202942672 now IPC :1.74146: AVG IPC :0.69318: L2-Pf-HR :0.69934: L2-HR :0.73773: (Sim:0h11m54s) 
CPU  0 inst:  143000001 cyc:  203563728 now IPC :1.61016: AVG IPC :0.69600: L2-Pf-HR :0.70182: L2-HR :0.73983: (Sim:0h11m59s) 
CPU  0 inst:  144000000 cyc:  204180776 now IPC :1.62062: AVG IPC :0.69880: L2-Pf-HR :0.70443: L2-HR :0.74194: (Sim:0h12m4s) 
CPU  0 inst:  145000000 cyc:  204784192 now IPC :1.65723: AVG IPC :0.70164: L2-Pf-HR :0.70667: L2-HR :0.74397: (Sim:0h12m9s) 
CPU  0 inst:  146000002 cyc:  205356547 now IPC :1.74717: AVG IPC :0.70457: L2-Pf-HR :0.70914: L2-HR :0.74607: (Sim:0h12m14s) 
CPU  0 inst:  147000003 cyc:  205976299 now IPC :1.61355: AVG IPC :0.70732: L2-Pf-HR :0.71133: L2-HR :0.74798: (Sim:0h12m19s) 
CPU  0 inst:  148000000 cyc:  206594282 now IPC :1.61816: AVG IPC :0.71005: L2-Pf-HR :0.71371: L2-HR :0.74993: (Sim:0h12m24s) 
CPU  0 inst:  149000002 cyc:  207199363 now IPC :1.65267: AVG IPC :0.71282: L2-Pf-HR :0.71581: L2-HR :0.75181: (Sim:0h12m29s) 
CPU  0 inst:  150000002 cyc:  207771125 now IPC :1.74898: AVG IPC :0.71568: L2-Pf-HR :0.71805: L2-HR :0.75375: (Sim:0h12m34s) 
CPU  0 inst:  151000002 cyc:  208389004 now IPC :1.61844: AVG IPC :0.71837: L2-Pf-HR :0.71998: L2-HR :0.75547: (Sim:0h12m39s) 
CPU  0 inst:  152000000 cyc:  209004297 now IPC :1.62524: AVG IPC :0.72106: L2-Pf-HR :0.72219: L2-HR :0.75727: (Sim:0h12m44s) 
CPU  0 inst:  153000002 cyc:  209612112 now IPC :1.64524: AVG IPC :0.72375: L2-Pf-HR :0.72414: L2-HR :0.75901: (Sim:0h12m49s) 
CPU  0 inst:  154000002 cyc:  210185588 now IPC :1.74375: AVG IPC :0.72654: L2-Pf-HR :0.72617: L2-HR :0.76076: (Sim:0h12m54s) 
CPU  0 inst:  155000001 cyc:  210801654 now IPC :1.62320: AVG IPC :0.72918: L2-Pf-HR :0.72786: L2-HR :0.76232: (Sim:0h12m59s) 
CPU  0 inst:  156000000 cyc:  211411541 now IPC :1.63965: AVG IPC :0.73182: L2-Pf-HR :0.72989: L2-HR :0.76401: (Sim:0h13m4s) 
CPU  0 inst:  157000003 cyc:  212027236 now IPC :1.62419: AVG IPC :0.73442: L2-Pf-HR :0.73169: L2-HR :0.76560: (Sim:0h13m9s) 
CPU  0 inst:  158000002 cyc:  212598841 now IPC :1.74946: AVG IPC :0.73716: L2-Pf-HR :0.73357: L2-HR :0.76724: (Sim:0h13m13s) 
CPU  0 inst:  159000000 cyc:  213208941 now IPC :1.63907: AVG IPC :0.73975: L2-Pf-HR :0.73512: L2-HR :0.76867: (Sim:0h13m16s) 
CPU  0 inst:  160000000 cyc:  213820208 now IPC :1.63595: AVG IPC :0.74233: L2-Pf-HR :0.73697: L2-HR :0.77023: (Sim:0h13m20s) 
CPU  0 inst:  161000002 cyc:  214428546 now IPC :1.64383: AVG IPC :0.74490: L2-Pf-HR :0.73881: L2-HR :0.77180: (Sim:0h13m24s) 
CPU  0 inst:  162000002 cyc:  215019526 now IPC :1.69210: AVG IPC :0.74751: L2-Pf-HR :0.74034: L2-HR :0.77321: (Sim:0h13m29s) 
CPU  0 inst:  163000002 cyc:  215599259 now IPC :1.72493: AVG IPC :0.75015: L2-Pf-HR :0.74193: L2-HR :0.77465: (Sim:0h13m33s) 
CPU  0 inst:  164000000 cyc:  216231989 now IPC :1.58045: AVG IPC :0.75259: L2-Pf-HR :0.74346: L2-HR :0.77597: (Sim:0h13m37s) 
Finished CPU 0 instr: 162000000 cyc: 215255876 AVG IPC: 0.75259 (Sim time: 0h13m37s)

ChampSim completed all CPUs

[ROI Statistics]
Core_0_instructions 162000000
Core_0_cycles 215255876
Core_0_IPC 0.75259

Core_0_branch_prediction_accuracy 99.21038
Core_0_branch_MPKI 0.23475
Core_0_average_ROB_occupancy_at_mispredict 238.89321

Core_0_L1D_total_access 52886240
Core_0_L1D_total_hit 46424157 L1D_total_Hit Ratio: 0.87781
Core_0_L1D_total_miss 6462083
Core_0_L1D_loads 44447229
Core_0_L1D_load_hit 41717844 L1D_load_Hit Ratio: 0.93859
Core_0_L1D_load_miss 2729385
Core_0_L1D_RFOs 4409030
Core_0_L1D_RFO_hit 4262285 L1D_RFO_Hit Ratio: 0.96672
Core_0_L1D_RFO_miss 146745
Core_0_L1D_prefetches 4029981
Core_0_L1D_prefetch_hit 444028 L1D_prefetch_Hit Ratio: 0.11018
Core_0_L1D_prefetch_miss 3585953
Core_0_L1D_writebacks 0
Core_0_L1D_writeback_hit 0 L1D_writeback_Hit Ratio: -nan
Core_0_L1D_writeback_miss 0
Core_0_L1D_prefetch_requested 5323564
Core_0_L1D_prefetch_issued 5323564
Core_0_L1D_prefetch_useful 3524836 L1D_Useful Ratio: 0.66212
Core_0_L1D_prefetch_useless 87523
Core_0_L1D_prefetch_late 594024
Core_0_L1D_average_miss_latency 12184131.93304

Core_0_L1I_total_access 41228068
Core_0_L1I_total_hit 41223033 L1I_total_Hit Ratio: 0.99988
Core_0_L1I_total_miss 5035
Core_0_L1I_loads 41228068
Core_0_L1I_load_hit 41223033 L1I_load_Hit Ratio: 0.99988
Core_0_L1I_load_miss 5035
Core_0_L1I_RFOs 0
Core_0_L1I_RFO_hit 0 L1I_RFO_Hit Ratio: -nan
Core_0_L1I_RFO_miss 0
Core_0_L1I_prefetches 0
Core_0_L1I_prefetch_hit 0 L1I_prefetch_Hit Ratio: -nan
Core_0_L1I_prefetch_miss 0
Core_0_L1I_writebacks 0
Core_0_L1I_writeback_hit 0 L1I_writeback_Hit Ratio: -nan
Core_0_L1I_writeback_miss 0
Core_0_L1I_prefetch_requested 0
Core_0_L1I_prefetch_issued 0
Core_0_L1I_prefetch_useful 0 L1I_Useful Ratio: -nan
Core_0_L1I_prefetch_useless 0
Core_0_L1I_prefetch_late 0
Core_0_L1I_average_miss_latency 260.35492

Core_0_L2C_total_access 8412515
Core_0_L2C_total_hit 6527882 L2C_total_Hit Ratio: 0.77597
Core_0_L2C_total_miss 1884633
Core_0_L2C_loads 2141535
Core_0_L2C_load_hit 1701567 L2C_load_Hit Ratio: 0.79455
Core_0_L2C_load_miss 439968
Core_0_L2C_RFOs 146745
Core_0_L2C_RFO_hit 24158 L2C_RFO_Hit Ratio: 0.16463
Core_0_L2C_RFO_miss 122587
Core_0_L2C_prefetches 5123458
Core_0_L2C_prefetch_hit 3809099 L2C_prefetch_Hit Ratio: 0.74346
Core_0_L2C_prefetch_miss 1314359
Core_0_L2C_writebacks 1000777
Core_0_L2C_writeback_hit 993058 L2C_writeback_Hit Ratio: 0.99229
Core_0_L2C_writeback_miss 7719
Core_0_L2C_prefetch_requested 1067767
Core_0_L2C_prefetch_issued 1067767
Core_0_L2C_prefetch_useful 320385 L2C_Useful Ratio: 0.30005
Core_0_L2C_prefetch_useless 1003287
Core_0_L2C_prefetch_late 10898
Core_0_L2C_average_miss_latency 288.57177

Core_0_LLC_total_access 2863781
Core_0_LLC_total_hit 1440717 LLC_total_Hit Ratio: 0.50308
Core_0_LLC_total_miss 1423064
Core_0_LLC_loads 429291
Core_0_LLC_load_hit 149022 LLC_load_Hit Ratio: 0.34714
Core_0_LLC_load_miss 280269
Core_0_LLC_RFOs 122587
Core_0_LLC_RFO_hit 815 LLC_RFO_Hit Ratio: 0.00665
Core_0_LLC_RFO_miss 121772
Core_0_LLC_prefetches 1325030
Core_0_LLC_prefetch_hit 304013 LLC_prefetch_Hit Ratio: 0.22944
Core_0_LLC_prefetch_miss 1021017
Core_0_LLC_writebacks 986873
Core_0_LLC_writeback_hit 986867 LLC_writeback_Hit Ratio: 0.99999
Core_0_LLC_writeback_miss 6
Core_0_LLC_prefetch_requested 0
Core_0_LLC_prefetch_issued 0
Core_0_LLC_prefetch_useful 66367 LLC_Useful Ratio: inf
Core_0_LLC_prefetch_useless 932755
Core_0_LLC_prefetch_late 0
Core_0_LLC_average_miss_latency 342.94199

Core_0_major_page_fault 0
Core_0_minor_page_fault 11197

[Bingo] PHT Access: 916131
[Bingo] PHT Hit PC+Addr: 246415
[Bingo] PHT Hit PC+Offs: 529149
[Bingo] PHT Miss: 140567
[Bingo] Prefetch PC+Addr: 0
[Bingo] Prefetch PC+Offs: 0
[Bingo] Useful PC+Addr: 0
[Bingo] Useful PC+Offs: 0
[Bingo] Useless PC+Addr: 0
[Bingo] Useless PC+Offs: 0
[Bingo] L1 Prefetch per Region: 7.74005
[Bingo] L2 Prefetch per Region: 0.39843
[Bingo] L3 Prefetch per Region: 0.00000
[Bingo] No Prefetch per Region: 23.86152
[Bingo] Number of Voters Mean: 8.30908
[Bingo] Number of Voters SD: 6.32204
PHT read accesses: 13049731
PHT write accesses: 875310
AT read accesses: 41446842
AT write accesses: 41446839
FT read accesses: 8873432
FT write accesses: 916131
PS read accesses: 2716140
PS write accesses: 775564
PHT tag read accesses: 37037177
PHT tag write accesses: 1121725
AT tag read accesses: 846727391
AT tag write accesses: 42322149
FT tag read accesses: 211578520
FT tag write accesses: 5810843
PS tag read accesses: 739153263
PS tag write accesses: 3484790
[Bingo2] PHT Access: 228156
[Bingo2] PHT Hit PC+Addr: 9415
[Bingo2] PHT Hit PC+Offs: 166392
[Bingo2] PHT Miss: 52349
[Bingo2] Prefetch PC+Addr: 0
[Bingo2] Prefetch PC+Offs: 0
[Bingo2] Useful PC+Addr: 0
[Bingo2] Useful PC+Offs: 0
[Bingo2] Useless PC+Addr: 0
[Bingo2] Useless PC+Offs: 0
[Bingo2] L1 Prefetch per Region: 0.00000
[Bingo2] L2 Prefetch per Region: 7.28878
[Bingo2] L3 Prefetch per Region: 0.00000
[Bingo2] No Prefetch per Region: 24.71122
[Bingo2] Number of Voters Mean: 12.21041
[Bingo2] Number of Voters SD: 5.50871
PHT read accesses: 3584862
PHT write accesses: 155252
AT read accesses: 2047904
AT write accesses: 2062557
FT read accesses: 535552
FT write accesses: 228156
PS read accesses: 394601
PS write accesses: 175807
PHT tag read accesses: 8441155
PHT tag write accesses: 164667
AT tag read accesses: 70698144
AT tag write accesses: 2203196
FT tag read accesses: 44115598
FT tag write accesses: 602302
PS tag read accesses: 40664388
PS tag write accesses: 568473
Channel_0_RQ_row_buffer_hit 824615
Channel_0_RQ_row_buffer_miss 598443
Channel_0_WQ_row_buffer_hit 305544
Channel_0_WQ_row_buffer_miss 512875
Channel_0_WQ_full 0
Channel_0_dbus_congested 1528335

avg_congested_cycle 11

EzSearch AVG IPC :0.75259: L2-Pf-HR :0.74346 : L2-HR :0.77597 Uful:0.30005
     > Finished combination: TraceType=770-tot Sim:162000000 Prefetcher=L2bingo_dpc3_PHT1k L1=bingo_dpc3_PHT1k
