TRACE: [125000000][OPT-125M]_[h12][s512][d64] Warmup: 2000000 NumTraces: 125000000
L1:no:L2:no
*************************************************
   ChampSim Multicore Out-of-Order Simulator
   Last compiled: Oct 18 2024 17:01:11
*************************************************

trace_0 770-tot_memTraces_v3/memTraces[125000000][OPT-125M]_[h12][s512][d64].champsim.xz
MAIN.cc ln 751 stats print skipped
CPU  0 inst:    1000001 cyc:     503019 now IPC :1.98800: AVG IPC :1.98800: L2-Pf-HR :-nan: L2-HR :0.58815: (Sim:0h0m4s) 
CPU  0 inst:    2000002 cyc:     978173 now IPC :2.10458: AVG IPC :2.04463: L2-Pf-HR :-nan: L2-HR :0.64142: (Sim:0h0m9s) 

Warmup complete CPU  0 instructions:    2000002 cycles:     978173 (Simulation time: 0 hr 0 min 9 sec) 

CPU  0 inst:    3000001 cyc:    1738840 now IPC :1.31463: AVG IPC :1.31463: L2-Pf-HR :-nan: L2-HR :0.70653: (Sim:0h0m13s) 
CPU  0 inst:    4000000 cyc:    2476525 now IPC :1.35559: AVG IPC :1.33480: L2-Pf-HR :-nan: L2-HR :0.73218: (Sim:0h0m17s) 
CPU  0 inst:    5000000 cyc:    3296940 now IPC :1.21890: AVG IPC :1.29379: L2-Pf-HR :-nan: L2-HR :0.71560: (Sim:0h0m21s) 
CPU  0 inst:    6000000 cyc:    4076341 now IPC :1.28304: AVG IPC :1.29108: L2-Pf-HR :-nan: L2-HR :0.71430: (Sim:0h0m26s) 
CPU  0 inst:    7000003 cyc:    4854886 now IPC :1.28445: AVG IPC :1.28975: L2-Pf-HR :-nan: L2-HR :0.71287: (Sim:0h0m30s) 
CPU  0 inst:    8000000 cyc:    5657280 now IPC :1.24627: AVG IPC :1.28230: L2-Pf-HR :-nan: L2-HR :0.71847: (Sim:0h0m34s) 
CPU  0 inst:    9000002 cyc:    6540237 now IPC :1.13256: AVG IPC :1.25853: L2-Pf-HR :-nan: L2-HR :0.71448: (Sim:0h0m39s) 
CPU  0 inst:   10000002 cyc:    7355243 now IPC :1.22698: AVG IPC :1.25449: L2-Pf-HR :-nan: L2-HR :0.71397: (Sim:0h0m43s) 
CPU  0 inst:   11000001 cyc:    8170796 now IPC :1.22616: AVG IPC :1.25128: L2-Pf-HR :-nan: L2-HR :0.71329: (Sim:0h0m48s) 
CPU  0 inst:   12000000 cyc:    8983048 now IPC :1.23114: AVG IPC :1.24924: L2-Pf-HR :-nan: L2-HR :0.71582: (Sim:0h0m52s) 
CPU  0 inst:   13000000 cyc:    9861293 now IPC :1.13863: AVG IPC :1.23830: L2-Pf-HR :-nan: L2-HR :0.71383: (Sim:0h0m56s) 
CPU  0 inst:   14000000 cyc:   10679364 now IPC :1.22239: AVG IPC :1.23696: L2-Pf-HR :-nan: L2-HR :0.71342: (Sim:0h1m1s) 
CPU  0 inst:   15000003 cyc:   11494287 now IPC :1.22711: AVG IPC :1.23620: L2-Pf-HR :-nan: L2-HR :0.71289: (Sim:0h1m5s) 
CPU  0 inst:   16000000 cyc:   12319975 now IPC :1.21111: AVG IPC :1.23437: L2-Pf-HR :-nan: L2-HR :0.71433: (Sim:0h1m10s) 
CPU  0 inst:   17000001 cyc:   13196773 now IPC :1.14051: AVG IPC :1.22764: L2-Pf-HR :-nan: L2-HR :0.71363: (Sim:0h1m14s) 
CPU  0 inst:   18000003 cyc:   14007505 now IPC :1.23346: AVG IPC :1.22800: L2-Pf-HR :-nan: L2-HR :0.71334: (Sim:0h1m18s) 
CPU  0 inst:   19000002 cyc:   14822925 now IPC :1.22636: AVG IPC :1.22790: L2-Pf-HR :-nan: L2-HR :0.71309: (Sim:0h1m23s) 
CPU  0 inst:   20000000 cyc:   15644501 now IPC :1.21717: AVG IPC :1.22730: L2-Pf-HR :-nan: L2-HR :0.71394: (Sim:0h1m27s) 
CPU  0 inst:   21000000 cyc:   16520471 now IPC :1.14159: AVG IPC :1.22247: L2-Pf-HR :-nan: L2-HR :0.71359: (Sim:0h1m32s) 
CPU  0 inst:   22000001 cyc:   17326500 now IPC :1.24065: AVG IPC :1.22337: L2-Pf-HR :-nan: L2-HR :0.71349: (Sim:0h1m36s) 
CPU  0 inst:   23000001 cyc:   18129847 now IPC :1.24479: AVG IPC :1.22437: L2-Pf-HR :-nan: L2-HR :0.71327: (Sim:0h1m40s) 
CPU  0 inst:   24000000 cyc:   18948737 now IPC :1.22116: AVG IPC :1.22422: L2-Pf-HR :-nan: L2-HR :0.71366: (Sim:0h1m45s) 
CPU  0 inst:   25000002 cyc:   19817130 now IPC :1.15155: AVG IPC :1.22087: L2-Pf-HR :-nan: L2-HR :0.71370: (Sim:0h1m49s) 
CPU  0 inst:   26000002 cyc:   20624761 now IPC :1.23819: AVG IPC :1.22159: L2-Pf-HR :-nan: L2-HR :0.71353: (Sim:0h1m54s) 
CPU  0 inst:   27000001 cyc:   21432130 now IPC :1.23859: AVG IPC :1.22226: L2-Pf-HR :-nan: L2-HR :0.71333: (Sim:0h1m58s) 
CPU  0 inst:   28000000 cyc:   22259888 now IPC :1.20808: AVG IPC :1.22171: L2-Pf-HR :-nan: L2-HR :0.71339: (Sim:0h2m2s) 
CPU  0 inst:   29000000 cyc:   23127396 now IPC :1.15273: AVG IPC :1.21900: L2-Pf-HR :-nan: L2-HR :0.71347: (Sim:0h2m7s) 
CPU  0 inst:   30000000 cyc:   23943408 now IPC :1.22547: AVG IPC :1.21923: L2-Pf-HR :-nan: L2-HR :0.71340: (Sim:0h2m11s) 
CPU  0 inst:   31000003 cyc:   24754129 now IPC :1.23347: AVG IPC :1.21972: L2-Pf-HR :-nan: L2-HR :0.71321: (Sim:0h2m15s) 
CPU  0 inst:   32000000 cyc:   25579863 now IPC :1.21104: AVG IPC :1.21943: L2-Pf-HR :-nan: L2-HR :0.71313: (Sim:0h2m20s) 
CPU  0 inst:   33000001 cyc:   26398330 now IPC :1.22180: AVG IPC :1.21950: L2-Pf-HR :-nan: L2-HR :0.71425: (Sim:0h2m24s) 
CPU  0 inst:   34000002 cyc:   27249451 now IPC :1.17492: AVG IPC :1.21806: L2-Pf-HR :-nan: L2-HR :0.71335: (Sim:0h2m29s) 
CPU  0 inst:   35000001 cyc:   28057196 now IPC :1.23801: AVG IPC :1.21866: L2-Pf-HR :-nan: L2-HR :0.71321: (Sim:0h2m33s) 
CPU  0 inst:   36000000 cyc:   28872398 now IPC :1.22669: AVG IPC :1.21889: L2-Pf-HR :-nan: L2-HR :0.71305: (Sim:0h2m37s) 
CPU  0 inst:   37000000 cyc:   29673230 now IPC :1.24870: AVG IPC :1.21972: L2-Pf-HR :-nan: L2-HR :0.71466: (Sim:0h2m42s) 
CPU  0 inst:   38000000 cyc:   30565860 now IPC :1.12029: AVG IPC :1.21672: L2-Pf-HR :-nan: L2-HR :0.71347: (Sim:0h2m46s) 
CPU  0 inst:   39000000 cyc:   31381656 now IPC :1.22580: AVG IPC :1.21697: L2-Pf-HR :-nan: L2-HR :0.71332: (Sim:0h2m50s) 
CPU  0 inst:   40000000 cyc:   32196514 now IPC :1.22721: AVG IPC :1.21723: L2-Pf-HR :-nan: L2-HR :0.71317: (Sim:0h2m55s) 
CPU  0 inst:   41000002 cyc:   33004031 now IPC :1.23837: AVG IPC :1.21777: L2-Pf-HR :-nan: L2-HR :0.71442: (Sim:0h2m59s) 
CPU  0 inst:   42000002 cyc:   33890060 now IPC :1.12863: AVG IPC :1.21537: L2-Pf-HR :-nan: L2-HR :0.71358: (Sim:0h3m4s) 
CPU  0 inst:   43000002 cyc:   34702618 now IPC :1.23068: AVG IPC :1.21574: L2-Pf-HR :-nan: L2-HR :0.71354: (Sim:0h3m8s) 
CPU  0 inst:   44000000 cyc:   35511187 now IPC :1.23675: AVG IPC :1.21623: L2-Pf-HR :-nan: L2-HR :0.71340: (Sim:0h3m12s) 
CPU  0 inst:   45000001 cyc:   36324417 now IPC :1.22967: AVG IPC :1.21654: L2-Pf-HR :-nan: L2-HR :0.71415: (Sim:0h3m17s) 
CPU  0 inst:   46000000 cyc:   37206988 now IPC :1.13305: AVG IPC :1.21450: L2-Pf-HR :-nan: L2-HR :0.71358: (Sim:0h3m21s) 
CPU  0 inst:   47000001 cyc:   38021615 now IPC :1.22756: AVG IPC :1.21479: L2-Pf-HR :-nan: L2-HR :0.71352: (Sim:0h3m25s) 
CPU  0 inst:   48000000 cyc:   38832346 now IPC :1.23345: AVG IPC :1.21519: L2-Pf-HR :-nan: L2-HR :0.71337: (Sim:0h3m30s) 
CPU  0 inst:   49000001 cyc:   39645079 now IPC :1.23042: AVG IPC :1.21551: L2-Pf-HR :-nan: L2-HR :0.71392: (Sim:0h3m34s) 
CPU  0 inst:   50000000 cyc:   43494460 now IPC :0.25978: AVG IPC :1.12898: L2-Pf-HR :-nan: L2-HR :0.69532: (Sim:0h3m44s) 
CPU  0 inst:   51000001 cyc:   49929458 now IPC :0.15540: AVG IPC :1.00100: L2-Pf-HR :-nan: L2-HR :0.66866: (Sim:0h3m59s) 
CPU  0 inst:   52000000 cyc:   55479149 now IPC :0.18019: AVG IPC :0.91741: L2-Pf-HR :-nan: L2-HR :0.65961: (Sim:0h4m11s) 
CPU  0 inst:   53000000 cyc:   60869065 now IPC :0.18553: AVG IPC :0.85155: L2-Pf-HR :-nan: L2-HR :0.65498: (Sim:0h4m20s) 
CPU  0 inst:   54000002 cyc:   65960086 now IPC :0.19642: AVG IPC :0.80022: L2-Pf-HR :-nan: L2-HR :0.65047: (Sim:0h4m29s) 
CPU  0 inst:   55000001 cyc:   70918486 now IPC :0.20168: AVG IPC :0.75779: L2-Pf-HR :-nan: L2-HR :0.64609: (Sim:0h4m40s) 
CPU  0 inst:   56000000 cyc:   75963863 now IPC :0.19820: AVG IPC :0.72014: L2-Pf-HR :-nan: L2-HR :0.64182: (Sim:0h4m50s) 
CPU  0 inst:   57000003 cyc:   81002768 now IPC :0.19846: AVG IPC :0.68729: L2-Pf-HR :-nan: L2-HR :0.63768: (Sim:0h5m0s) 
CPU  0 inst:   58000000 cyc:   85941396 now IPC :0.20248: AVG IPC :0.65911: L2-Pf-HR :-nan: L2-HR :0.63364: (Sim:0h5m10s) 
CPU  0 inst:   59000000 cyc:   90862720 now IPC :0.20320: AVG IPC :0.63415: L2-Pf-HR :-nan: L2-HR :0.62971: (Sim:0h5m20s) 
CPU  0 inst:   60000000 cyc:   95870020 now IPC :0.19971: AVG IPC :0.61122: L2-Pf-HR :-nan: L2-HR :0.62588: (Sim:0h5m30s) 
CPU  0 inst:   61000002 cyc:  100757750 now IPC :0.20459: AVG IPC :0.59130: L2-Pf-HR :-nan: L2-HR :0.62215: (Sim:0h5m40s) 
CPU  0 inst:   62000000 cyc:  105760143 now IPC :0.19990: AVG IPC :0.57262: L2-Pf-HR :-nan: L2-HR :0.61851: (Sim:0h5m50s) 
CPU  0 inst:   63000000 cyc:  110502827 now IPC :0.21085: AVG IPC :0.55695: L2-Pf-HR :-nan: L2-HR :0.61496: (Sim:0h5m57s) 
CPU  0 inst:   64000000 cyc:  115474147 now IPC :0.20115: AVG IPC :0.54150: L2-Pf-HR :-nan: L2-HR :0.61150: (Sim:0h6m3s) 
CPU  0 inst:   65000002 cyc:  120512453 now IPC :0.19848: AVG IPC :0.52705: L2-Pf-HR :-nan: L2-HR :0.60812: (Sim:0h6m9s) 
CPU  0 inst:   66000000 cyc:  125604489 now IPC :0.19638: AVG IPC :0.51354: L2-Pf-HR :-nan: L2-HR :0.60483: (Sim:0h6m16s) 
CPU  0 inst:   67000000 cyc:  130706438 now IPC :0.19600: AVG IPC :0.50105: L2-Pf-HR :-nan: L2-HR :0.60161: (Sim:0h6m26s) 
CPU  0 inst:   68000000 cyc:  135577965 now IPC :0.20527: AVG IPC :0.49034: L2-Pf-HR :-nan: L2-HR :0.59847: (Sim:0h6m36s) 
CPU  0 inst:   69000002 cyc:  140502372 now IPC :0.20307: AVG IPC :0.48020: L2-Pf-HR :-nan: L2-HR :0.59540: (Sim:0h6m46s) 
CPU  0 inst:   70000000 cyc:  145616607 now IPC :0.19553: AVG IPC :0.47014: L2-Pf-HR :-nan: L2-HR :0.59240: (Sim:0h6m56s) 
CPU  0 inst:   71000000 cyc:  150702443 now IPC :0.19662: AVG IPC :0.46085: L2-Pf-HR :-nan: L2-HR :0.58947: (Sim:0h7m6s) 
CPU  0 inst:   72000000 cyc:  155771198 now IPC :0.19729: AVG IPC :0.45222: L2-Pf-HR :-nan: L2-HR :0.58661: (Sim:0h7m13s) 
CPU  0 inst:   73000000 cyc:  160840208 now IPC :0.19728: AVG IPC :0.44413: L2-Pf-HR :-nan: L2-HR :0.58380: (Sim:0h7m19s) 
CPU  0 inst:   74000001 cyc:  165811077 now IPC :0.20117: AVG IPC :0.43681: L2-Pf-HR :-nan: L2-HR :0.58106: (Sim:0h7m25s) 
CPU  0 inst:   75000000 cyc:  170989561 now IPC :0.19311: AVG IPC :0.42938: L2-Pf-HR :-nan: L2-HR :0.57838: (Sim:0h7m32s) 
CPU  0 inst:   76000000 cyc:  173646191 now IPC :0.37642: AVG IPC :0.42857: L2-Pf-HR :-nan: L2-HR :0.58281: (Sim:0h7m36s) 
CPU  0 inst:   77000002 cyc:  174615797 now IPC :1.03135: AVG IPC :0.43193: L2-Pf-HR :-nan: L2-HR :0.59247: (Sim:0h7m39s) 
CPU  0 inst:   78000003 cyc:  175622367 now IPC :0.99347: AVG IPC :0.43517: L2-Pf-HR :-nan: L2-HR :0.60153: (Sim:0h7m42s) 
CPU  0 inst:   79000001 cyc:  176498673 now IPC :1.14115: AVG IPC :0.43870: L2-Pf-HR :-nan: L2-HR :0.61021: (Sim:0h7m45s) 
CPU  0 inst:   80000000 cyc:  177558353 now IPC :0.94368: AVG IPC :0.44173: L2-Pf-HR :-nan: L2-HR :0.61802: (Sim:0h7m48s) 
CPU  0 inst:   81000000 cyc:  178478167 now IPC :1.08718: AVG IPC :0.44507: L2-Pf-HR :-nan: L2-HR :0.62588: (Sim:0h7m51s) 
CPU  0 inst:   82000001 cyc:  179422878 now IPC :1.05853: AVG IPC :0.44832: L2-Pf-HR :-nan: L2-HR :0.63318: (Sim:0h7m54s) 
CPU  0 inst:   83000002 cyc:  180266624 now IPC :1.18519: AVG IPC :0.45179: L2-Pf-HR :-nan: L2-HR :0.64028: (Sim:0h7m57s) 
CPU  0 inst:   84000000 cyc:  181178154 now IPC :1.09705: AVG IPC :0.45505: L2-Pf-HR :-nan: L2-HR :0.64662: (Sim:0h7m59s) 
CPU  0 inst:   85000003 cyc:  182061754 now IPC :1.13174: AVG IPC :0.45835: L2-Pf-HR :-nan: L2-HR :0.65308: (Sim:0h8m2s) 
CPU  0 inst:   86000002 cyc:  182982724 now IPC :1.08581: AVG IPC :0.46153: L2-Pf-HR :-nan: L2-HR :0.65909: (Sim:0h8m5s) 
CPU  0 inst:   87000000 cyc:  183795946 now IPC :1.22967: AVG IPC :0.46494: L2-Pf-HR :-nan: L2-HR :0.66500: (Sim:0h8m8s) 
CPU  0 inst:   88000000 cyc:  184666764 now IPC :1.14835: AVG IPC :0.46818: L2-Pf-HR :-nan: L2-HR :0.67036: (Sim:0h8m11s) 
CPU  0 inst:   89000000 cyc:  185579096 now IPC :1.09609: AVG IPC :0.47129: L2-Pf-HR :-nan: L2-HR :0.67567: (Sim:0h8m14s) 
CPU  0 inst:   90000001 cyc:  186441414 now IPC :1.15967: AVG IPC :0.47449: L2-Pf-HR :-nan: L2-HR :0.68099: (Sim:0h8m17s) 
CPU  0 inst:   91000000 cyc:  187327646 now IPC :1.12837: AVG IPC :0.47760: L2-Pf-HR :-nan: L2-HR :0.68559: (Sim:0h8m20s) 
CPU  0 inst:   92000000 cyc:  188143527 now IPC :1.22567: AVG IPC :0.48086: L2-Pf-HR :-nan: L2-HR :0.69038: (Sim:0h8m23s) 
CPU  0 inst:   93000003 cyc:  189076763 now IPC :1.07154: AVG IPC :0.48379: L2-Pf-HR :-nan: L2-HR :0.69470: (Sim:0h8m26s) 
CPU  0 inst:   94000002 cyc:  189944044 now IPC :1.15303: AVG IPC :0.48686: L2-Pf-HR :-nan: L2-HR :0.69918: (Sim:0h8m29s) 
CPU  0 inst:   95000000 cyc:  190874647 now IPC :1.07457: AVG IPC :0.48974: L2-Pf-HR :-nan: L2-HR :0.70310: (Sim:0h8m32s) 
CPU  0 inst:   96000000 cyc:  191669071 now IPC :1.25877: AVG IPC :0.49294: L2-Pf-HR :-nan: L2-HR :0.70723: (Sim:0h8m34s) 
CPU  0 inst:   97000002 cyc:  192571695 now IPC :1.10788: AVG IPC :0.49584: L2-Pf-HR :-nan: L2-HR :0.71101: (Sim:0h8m37s) 
CPU  0 inst:   98000002 cyc:  193462673 now IPC :1.12236: AVG IPC :0.49874: L2-Pf-HR :-nan: L2-HR :0.71482: (Sim:0h8m40s) 
CPU  0 inst:   99000001 cyc:  194394940 now IPC :1.07265: AVG IPC :0.50151: L2-Pf-HR :-nan: L2-HR :0.71820: (Sim:0h8m43s) 
CPU  0 inst:  100000000 cyc:  195199523 now IPC :1.24288: AVG IPC :0.50458: L2-Pf-HR :-nan: L2-HR :0.72175: (Sim:0h8m46s) 
CPU  0 inst:  101000001 cyc:  196084907 now IPC :1.12945: AVG IPC :0.50741: L2-Pf-HR :-nan: L2-HR :0.72508: (Sim:0h8m49s) 
CPU  0 inst:  102000000 cyc:  196984077 now IPC :1.11214: AVG IPC :0.51019: L2-Pf-HR :-nan: L2-HR :0.72841: (Sim:0h8m52s) 
CPU  0 inst:  103000002 cyc:  197920860 now IPC :1.06749: AVG IPC :0.51284: L2-Pf-HR :-nan: L2-HR :0.73133: (Sim:0h8m55s) 
CPU  0 inst:  104000000 cyc:  198738446 now IPC :1.22311: AVG IPC :0.51578: L2-Pf-HR :-nan: L2-HR :0.73445: (Sim:0h8m58s) 
CPU  0 inst:  105000001 cyc:  199600203 now IPC :1.16042: AVG IPC :0.51857: L2-Pf-HR :-nan: L2-HR :0.73737: (Sim:0h9m1s) 
CPU  0 inst:  106000003 cyc:  200504976 now IPC :1.10525: AVG IPC :0.52123: L2-Pf-HR :-nan: L2-HR :0.74028: (Sim:0h9m4s) 
CPU  0 inst:  107000003 cyc:  201442174 now IPC :1.06701: AVG IPC :0.52378: L2-Pf-HR :-nan: L2-HR :0.74285: (Sim:0h9m7s) 
CPU  0 inst:  108000000 cyc:  202251427 now IPC :1.23570: AVG IPC :0.52665: L2-Pf-HR :-nan: L2-HR :0.74562: (Sim:0h9m10s) 
CPU  0 inst:  109000003 cyc:  203109375 now IPC :1.16558: AVG IPC :0.52936: L2-Pf-HR :-nan: L2-HR :0.74820: (Sim:0h9m12s) 
CPU  0 inst:  110000002 cyc:  204021165 now IPC :1.09674: AVG IPC :0.53191: L2-Pf-HR :-nan: L2-HR :0.75071: (Sim:0h9m15s) 
CPU  0 inst:  111000000 cyc:  204925771 now IPC :1.10545: AVG IPC :0.53445: L2-Pf-HR :-nan: L2-HR :0.75307: (Sim:0h9m18s) 
CPU  0 inst:  112000000 cyc:  205752675 now IPC :1.20933: AVG IPC :0.53718: L2-Pf-HR :-nan: L2-HR :0.75551: (Sim:0h9m21s) 
CPU  0 inst:  113000003 cyc:  206555795 now IPC :1.24515: AVG IPC :0.53994: L2-Pf-HR :-nan: L2-HR :0.75788: (Sim:0h9m24s) 
CPU  0 inst:  114000003 cyc:  207503644 now IPC :1.05502: AVG IPC :0.54231: L2-Pf-HR :-nan: L2-HR :0.75998: (Sim:0h9m27s) 
CPU  0 inst:  115000003 cyc:  208368760 now IPC :1.15591: AVG IPC :0.54487: L2-Pf-HR :-nan: L2-HR :0.76229: (Sim:0h9m30s) 
CPU  0 inst:  116000000 cyc:  209256077 now IPC :1.12699: AVG IPC :0.54735: L2-Pf-HR :-nan: L2-HR :0.76432: (Sim:0h9m33s) 
CPU  0 inst:  117000003 cyc:  210050972 now IPC :1.25803: AVG IPC :0.55005: L2-Pf-HR :-nan: L2-HR :0.76651: (Sim:0h9m36s) 
CPU  0 inst:  118000000 cyc:  211004935 now IPC :1.04826: AVG IPC :0.55231: L2-Pf-HR :-nan: L2-HR :0.76830: (Sim:0h9m39s) 
CPU  0 inst:  119000001 cyc:  211880051 now IPC :1.14271: AVG IPC :0.55476: L2-Pf-HR :-nan: L2-HR :0.77037: (Sim:0h9m42s) 
CPU  0 inst:  120000000 cyc:  212765361 now IPC :1.12955: AVG IPC :0.55716: L2-Pf-HR :-nan: L2-HR :0.77223: (Sim:0h9m45s) 
CPU  0 inst:  121000000 cyc:  213567296 now IPC :1.24698: AVG IPC :0.55977: L2-Pf-HR :-nan: L2-HR :0.77417: (Sim:0h9m48s) 
CPU  0 inst:  122000002 cyc:  214526024 now IPC :1.04305: AVG IPC :0.56193: L2-Pf-HR :-nan: L2-HR :0.77581: (Sim:0h9m51s) 
Finished CPU 0 instr: 120000000 cyc: 213547851 AVG IPC: 0.56193 (Sim time: 0h9m51s)

ChampSim completed all CPUs

[ROI Statistics]
Core_0_instructions 120000000
Core_0_cycles 213547851
Core_0_IPC 0.56193

Core_0_branch_prediction_accuracy 99.19469
Core_0_branch_MPKI 0.24154
Core_0_average_ROB_occupancy_at_mispredict 236.28535

Core_0_L1D_total_access 36014154
Core_0_L1D_total_hit 31321424 L1D_total_Hit Ratio: 0.86970
Core_0_L1D_total_miss 4692730
Core_0_L1D_loads 32765755
Core_0_L1D_load_hit 28283231 L1D_load_Hit Ratio: 0.86319
Core_0_L1D_load_miss 4482524
Core_0_L1D_RFOs 3248399
Core_0_L1D_RFO_hit 3038193 L1D_RFO_Hit Ratio: 0.93529
Core_0_L1D_RFO_miss 210206
Core_0_L1D_prefetches 0
Core_0_L1D_prefetch_hit 0 L1D_prefetch_Hit Ratio: -nan
Core_0_L1D_prefetch_miss 0
Core_0_L1D_writebacks 0
Core_0_L1D_writeback_hit 0 L1D_writeback_Hit Ratio: -nan
Core_0_L1D_writeback_miss 0
Core_0_L1D_prefetch_requested 0
Core_0_L1D_prefetch_issued 0
Core_0_L1D_prefetch_useful 0 L1D_Useful Ratio: -nan
Core_0_L1D_prefetch_useless 0
Core_0_L1D_prefetch_late 0
Core_0_L1D_average_miss_latency 82.31145

Core_0_L1I_total_access 30123094
Core_0_L1I_total_hit 30118146 L1I_total_Hit Ratio: 0.99984
Core_0_L1I_total_miss 4948
Core_0_L1I_loads 30123094
Core_0_L1I_load_hit 30118146 L1I_load_Hit Ratio: 0.99984
Core_0_L1I_load_miss 4948
Core_0_L1I_RFOs 0
Core_0_L1I_RFO_hit 0 L1I_RFO_Hit Ratio: -nan
Core_0_L1I_RFO_miss 0
Core_0_L1I_prefetches 0
Core_0_L1I_prefetch_hit 0 L1I_prefetch_Hit Ratio: -nan
Core_0_L1I_prefetch_miss 0
Core_0_L1I_writebacks 0
Core_0_L1I_writeback_hit 0 L1I_writeback_Hit Ratio: -nan
Core_0_L1I_writeback_miss 0
Core_0_L1I_prefetch_requested 0
Core_0_L1I_prefetch_issued 0
Core_0_L1I_prefetch_useful 0 L1I_Useful Ratio: -nan
Core_0_L1I_prefetch_useless 0
Core_0_L1I_prefetch_late 0
Core_0_L1I_average_miss_latency 266.18048

Core_0_L2C_total_access 5444004
Core_0_L2C_total_hit 4223487 L2C_total_Hit Ratio: 0.77581
Core_0_L2C_total_miss 1220517
Core_0_L2C_loads 4487472
Core_0_L2C_load_hit 3465720 L2C_load_Hit Ratio: 0.77231
Core_0_L2C_load_miss 1021752
Core_0_L2C_RFOs 210206
Core_0_L2C_RFO_hit 13003 L2C_RFO_Hit Ratio: 0.06186
Core_0_L2C_RFO_miss 197203
Core_0_L2C_prefetches 0
Core_0_L2C_prefetch_hit 0 L2C_prefetch_Hit Ratio: -nan
Core_0_L2C_prefetch_miss 0
Core_0_L2C_writebacks 746326
Core_0_L2C_writeback_hit 744764 L2C_writeback_Hit Ratio: 0.99791
Core_0_L2C_writeback_miss 1562
Core_0_L2C_prefetch_requested 0
Core_0_L2C_prefetch_issued 0
Core_0_L2C_prefetch_useful 0 L2C_Useful Ratio: -nan
Core_0_L2C_prefetch_useless 0
Core_0_L2C_prefetch_late 0
Core_0_L2C_average_miss_latency 262.18674

Core_0_LLC_total_access 1935021
Core_0_LLC_total_hit 873719 LLC_total_Hit Ratio: 0.45153
Core_0_LLC_total_miss 1061302
Core_0_LLC_loads 1021752
Core_0_LLC_load_hit 157456 LLC_load_Hit Ratio: 0.15410
Core_0_LLC_load_miss 864296
Core_0_LLC_RFOs 197203
Core_0_LLC_RFO_hit 400 LLC_RFO_Hit Ratio: 0.00203
Core_0_LLC_RFO_miss 196803
Core_0_LLC_prefetches 0
Core_0_LLC_prefetch_hit 0 LLC_prefetch_Hit Ratio: -nan
Core_0_LLC_prefetch_miss 0
Core_0_LLC_writebacks 716066
Core_0_LLC_writeback_hit 715863 LLC_writeback_Hit Ratio: 0.99972
Core_0_LLC_writeback_miss 203
Core_0_LLC_prefetch_requested 0
Core_0_LLC_prefetch_issued 0
Core_0_LLC_prefetch_useful 0 LLC_Useful Ratio: -nan
Core_0_LLC_prefetch_useless 0
Core_0_LLC_prefetch_late 0
Core_0_LLC_average_miss_latency 266.61124

Core_0_major_page_fault 0
Core_0_minor_page_fault 8629

Channel_0_RQ_row_buffer_hit 554005
Channel_0_RQ_row_buffer_miss 507094
Channel_0_WQ_row_buffer_hit 262915
Channel_0_WQ_row_buffer_miss 350604
Channel_0_WQ_full 0
Channel_0_dbus_congested 530060

avg_congested_cycle 11

EzSearch AVG IPC :0.56193: L2-Pf-HR :-nan : L2-HR :0.77581 Uful:-nan
     > Finished combination: TraceType=770-tot Sim:120000000 Prefetcher=L2no L1=no
