TRACE: [75000000]_FE_[GPT-Neo_1_3B]_[h16]_[s256]_[d128] Warmup: 2000000 NumTraces: 75000000
L1:bingo_dpc3:L2:bingo_dpc3
*************************************************
   ChampSim Multicore Out-of-Order Simulator
   Last compiled: Oct 26 2024 13:01:10
*************************************************

trace_0 770-tot_memTraces_v3/memTraces[75000000]_FE_[GPT-Neo_1_3B]_[h16]_[s256]_[d128].champsim.xz
Bingo PHT WAYS: 16 and PHT_SIZE: 16384
Bingo2 PHT WAYS: 16 and PHT_SIZE: 16384
MAIN.cc ln 751 stats print skipped
CPU  0 inst:    1000000 cyc:     504108 now IPC :1.98370: AVG IPC :1.98370: L2-Pf-HR :0.67178: L2-HR :0.60629: (Sim:0h0m2s) 
CPU  0 inst:    2000001 cyc:     981473 now IPC :2.09484: AVG IPC :2.03775: L2-Pf-HR :0.75239: L2-HR :0.68602: (Sim:0h0m5s) 

Warmup complete CPU  0 instructions:    2000001 cycles:     981473 (Simulation time: 0 hr 0 min 5 sec) 

CPU  0 inst:    3000001 cyc:    1618838 now IPC :1.56896: AVG IPC :1.56896: L2-Pf-HR :0.63000: L2-HR :0.62991: (Sim:0h0m7s) 
CPU  0 inst:    4000000 cyc:    2179869 now IPC :1.78243: AVG IPC :1.66890: L2-Pf-HR :0.69316: L2-HR :0.67112: (Sim:0h0m9s) 
CPU  0 inst:    5000002 cyc:    2791810 now IPC :1.63415: AVG IPC :1.65715: L2-Pf-HR :0.67138: L2-HR :0.65840: (Sim:0h0m11s) 
CPU  0 inst:    6000001 cyc:    3350515 now IPC :1.78985: AVG IPC :1.68845: L2-Pf-HR :0.69128: L2-HR :0.67040: (Sim:0h0m14s) 
CPU  0 inst:    7000001 cyc:    3966225 now IPC :1.62414: AVG IPC :1.67518: L2-Pf-HR :0.67959: L2-HR :0.66335: (Sim:0h0m16s) 
CPU  0 inst:    8000000 cyc:    4525888 now IPC :1.78679: AVG IPC :1.69280: L2-Pf-HR :0.69130: L2-HR :0.67044: (Sim:0h0m18s) 
CPU  0 inst:    9000002 cyc:    5183511 now IPC :1.52063: AVG IPC :1.66586: L2-Pf-HR :0.68130: L2-HR :0.66412: (Sim:0h0m21s) 
CPU  0 inst:   10000001 cyc:    5756084 now IPC :1.74650: AVG IPC :1.67553: L2-Pf-HR :0.68807: L2-HR :0.66798: (Sim:0h0m23s) 
CPU  0 inst:   11000000 cyc:    6420809 now IPC :1.50438: AVG IPC :1.65461: L2-Pf-HR :0.68313: L2-HR :0.66541: (Sim:0h0m25s) 
CPU  0 inst:   12000000 cyc:    7008880 now IPC :1.70047: AVG IPC :1.65909: L2-Pf-HR :0.68822: L2-HR :0.66820: (Sim:0h0m28s) 
CPU  0 inst:   13000000 cyc:    7671299 now IPC :1.50962: AVG IPC :1.64429: L2-Pf-HR :0.68049: L2-HR :0.66337: (Sim:0h0m30s) 
CPU  0 inst:   14000000 cyc:    8242674 now IPC :1.75016: AVG IPC :1.65262: L2-Pf-HR :0.68586: L2-HR :0.66699: (Sim:0h0m32s) 
CPU  0 inst:   15000000 cyc:    8916652 now IPC :1.48373: AVG IPC :1.63827: L2-Pf-HR :0.67955: L2-HR :0.66290: (Sim:0h0m35s) 
CPU  0 inst:   16000000 cyc:    9482880 now IPC :1.76607: AVG IPC :1.64679: L2-Pf-HR :0.68346: L2-HR :0.66550: (Sim:0h0m37s) 
CPU  0 inst:   17000000 cyc:   10156310 now IPC :1.48494: AVG IPC :1.63491: L2-Pf-HR :0.67923: L2-HR :0.66292: (Sim:0h0m39s) 
CPU  0 inst:   18000000 cyc:   10723809 now IPC :1.76212: AVG IPC :1.64232: L2-Pf-HR :0.68269: L2-HR :0.66527: (Sim:0h0m42s) 
CPU  0 inst:   19000001 cyc:   11391070 now IPC :1.49867: AVG IPC :1.63311: L2-Pf-HR :0.67867: L2-HR :0.66266: (Sim:0h0m44s) 
CPU  0 inst:   20000000 cyc:   11956739 now IPC :1.76782: AVG IPC :1.64005: L2-Pf-HR :0.68152: L2-HR :0.66425: (Sim:0h0m46s) 
CPU  0 inst:   21000002 cyc:   12614450 now IPC :1.52043: AVG IPC :1.63329: L2-Pf-HR :0.67948: L2-HR :0.66312: (Sim:0h0m49s) 
CPU  0 inst:   22000002 cyc:   13199997 now IPC :1.70780: AVG IPC :1.63686: L2-Pf-HR :0.68264: L2-HR :0.66501: (Sim:0h0m51s) 
CPU  0 inst:   23000003 cyc:   13870231 now IPC :1.49202: AVG IPC :1.62933: L2-Pf-HR :0.68078: L2-HR :0.66393: (Sim:0h0m54s) 
CPU  0 inst:   24000000 cyc:   14453507 now IPC :1.71445: AVG IPC :1.63301: L2-Pf-HR :0.68358: L2-HR :0.66561: (Sim:0h0m56s) 
CPU  0 inst:   25000002 cyc:   15104469 now IPC :1.53619: AVG IPC :1.62855: L2-Pf-HR :0.68092: L2-HR :0.66401: (Sim:0h0m58s) 
CPU  0 inst:   26000002 cyc:   15686216 now IPC :1.71896: AVG IPC :1.63213: L2-Pf-HR :0.68234: L2-HR :0.66468: (Sim:0h1m1s) 
CPU  0 inst:   27000001 cyc:   16312914 now IPC :1.59566: AVG IPC :1.63064: L2-Pf-HR :0.68096: L2-HR :0.66405: (Sim:0h1m3s) 
CPU  0 inst:   28000000 cyc:   16906216 now IPC :1.68548: AVG IPC :1.63268: L2-Pf-HR :0.68233: L2-HR :0.66483: (Sim:0h1m5s) 
CPU  0 inst:   29000003 cyc:   17556736 now IPC :1.53724: AVG IPC :1.62893: L2-Pf-HR :0.68213: L2-HR :0.66505: (Sim:0h1m8s) 
CPU  0 inst:   30000003 cyc:   18150176 now IPC :1.68509: AVG IPC :1.63087: L2-Pf-HR :0.68222: L2-HR :0.66488: (Sim:0h1m10s) 
CPU  0 inst:   31000000 cyc:   18745841 now IPC :1.67879: AVG IPC :1.63248: L2-Pf-HR :0.68462: L2-HR :0.66633: (Sim:0h1m13s) 
CPU  0 inst:   32000000 cyc:   19381033 now IPC :1.57433: AVG IPC :1.63047: L2-Pf-HR :0.68193: L2-HR :0.66471: (Sim:0h1m15s) 
CPU  0 inst:   33000002 cyc:   19955102 now IPC :1.74195: AVG IPC :1.63385: L2-Pf-HR :0.68357: L2-HR :0.66557: (Sim:0h1m18s) 
CPU  0 inst:   34000001 cyc:   24587018 now IPC :0.21589: AVG IPC :1.35561: L2-Pf-HR :0.62937: L2-HR :0.64174: (Sim:0h1m24s) 
CPU  0 inst:   35000001 cyc:   28015501 now IPC :0.29167: AVG IPC :1.22068: L2-Pf-HR :0.61857: L2-HR :0.63616: (Sim:0h1m29s) 
CPU  0 inst:   36000000 cyc:   31446228 now IPC :0.29148: AVG IPC :1.11604: L2-Pf-HR :0.60829: L2-HR :0.63084: (Sim:0h1m34s) 
CPU  0 inst:   37000001 cyc:   34880747 now IPC :0.29116: AVG IPC :1.03247: L2-Pf-HR :0.59849: L2-HR :0.62578: (Sim:0h1m39s) 
CPU  0 inst:   38000001 cyc:   38318151 now IPC :0.29092: AVG IPC :0.96420: L2-Pf-HR :0.58913: L2-HR :0.62095: (Sim:0h1m43s) 
CPU  0 inst:   39000001 cyc:   41756780 now IPC :0.29081: AVG IPC :0.90741: L2-Pf-HR :0.58019: L2-HR :0.61635: (Sim:0h1m48s) 
CPU  0 inst:   40000000 cyc:   45195582 now IPC :0.29080: AVG IPC :0.85945: L2-Pf-HR :0.57164: L2-HR :0.61194: (Sim:0h1m53s) 
CPU  0 inst:   41000001 cyc:   48634445 now IPC :0.29079: AVG IPC :0.81842: L2-Pf-HR :0.56345: L2-HR :0.60773: (Sim:0h1m58s) 
CPU  0 inst:   42000003 cyc:   52146734 now IPC :0.28472: AVG IPC :0.78178: L2-Pf-HR :0.55402: L2-HR :0.60235: (Sim:0h2m3s) 
CPU  0 inst:   43000000 cyc:   52945079 now IPC :1.25259: AVG IPC :0.78901: L2-Pf-HR :0.55451: L2-HR :0.60209: (Sim:0h2m6s) 
CPU  0 inst:   44000000 cyc:   53539610 now IPC :1.68200: AVG IPC :0.79912: L2-Pf-HR :0.55816: L2-HR :0.60383: (Sim:0h2m8s) 
CPU  0 inst:   45000003 cyc:   54226830 now IPC :1.45514: AVG IPC :0.80758: L2-Pf-HR :0.55672: L2-HR :0.60256: (Sim:0h2m11s) 
CPU  0 inst:   46000001 cyc:   54807693 now IPC :1.72157: AVG IPC :0.81745: L2-Pf-HR :0.56089: L2-HR :0.60492: (Sim:0h2m13s) 
CPU  0 inst:   47000002 cyc:   55518635 now IPC :1.40659: AVG IPC :0.82513: L2-Pf-HR :0.55824: L2-HR :0.60280: (Sim:0h2m16s) 
CPU  0 inst:   48000000 cyc:   56105447 now IPC :1.70412: AVG IPC :0.83448: L2-Pf-HR :0.56223: L2-HR :0.60520: (Sim:0h2m19s) 
CPU  0 inst:   49000001 cyc:   56758680 now IPC :1.53085: AVG IPC :0.84264: L2-Pf-HR :0.55935: L2-HR :0.60307: (Sim:0h2m21s) 
CPU  0 inst:   50000002 cyc:   57319191 now IPC :1.78409: AVG IPC :0.85200: L2-Pf-HR :0.56320: L2-HR :0.60522: (Sim:0h2m24s) 
CPU  0 inst:   51000002 cyc:   57995638 now IPC :1.47831: AVG IPC :0.85944: L2-Pf-HR :0.56037: L2-HR :0.60313: (Sim:0h2m27s) 
CPU  0 inst:   52000000 cyc:   58554862 now IPC :1.78819: AVG IPC :0.86846: L2-Pf-HR :0.56411: L2-HR :0.60521: (Sim:0h2m29s) 
CPU  0 inst:   53000002 cyc:   59222617 now IPC :1.49756: AVG IPC :0.87567: L2-Pf-HR :0.56141: L2-HR :0.60324: (Sim:0h2m32s) 
CPU  0 inst:   54000000 cyc:   59769167 now IPC :1.82966: AVG IPC :0.88454: L2-Pf-HR :0.56488: L2-HR :0.60534: (Sim:0h2m34s) 
CPU  0 inst:   55000001 cyc:   60438644 now IPC :1.49370: AVG IPC :0.89140: L2-Pf-HR :0.56232: L2-HR :0.60344: (Sim:0h2m37s) 
CPU  0 inst:   56000000 cyc:   61004821 now IPC :1.76623: AVG IPC :0.89965: L2-Pf-HR :0.56548: L2-HR :0.60530: (Sim:0h2m39s) 
CPU  0 inst:   57000000 cyc:   61666556 now IPC :1.51118: AVG IPC :0.90632: L2-Pf-HR :0.56338: L2-HR :0.60373: (Sim:0h2m42s) 
CPU  0 inst:   58000000 cyc:   62242639 now IPC :1.73586: AVG IPC :0.91412: L2-Pf-HR :0.56605: L2-HR :0.60529: (Sim:0h2m45s) 
CPU  0 inst:   59000000 cyc:   62898091 now IPC :1.52566: AVG IPC :0.92059: L2-Pf-HR :0.56434: L2-HR :0.60401: (Sim:0h2m47s) 
CPU  0 inst:   60000000 cyc:   63473379 now IPC :1.73826: AVG IPC :0.92812: L2-Pf-HR :0.56665: L2-HR :0.60532: (Sim:0h2m50s) 
CPU  0 inst:   61000003 cyc:   64121159 now IPC :1.54374: AVG IPC :0.93444: L2-Pf-HR :0.56524: L2-HR :0.60425: (Sim:0h2m53s) 
CPU  0 inst:   62000001 cyc:   64687649 now IPC :1.76525: AVG IPC :0.94182: L2-Pf-HR :0.56718: L2-HR :0.60538: (Sim:0h2m55s) 
CPU  0 inst:   63000003 cyc:   65277960 now IPC :1.69403: AVG IPC :0.94873: L2-Pf-HR :0.56792: L2-HR :0.60566: (Sim:0h2m58s) 
CPU  0 inst:   64000000 cyc:   65932461 now IPC :1.52788: AVG IPC :0.95457: L2-Pf-HR :0.56755: L2-HR :0.60535: (Sim:0h3m0s) 
CPU  0 inst:   65000002 cyc:   66498702 now IPC :1.76604: AVG IPC :0.96158: L2-Pf-HR :0.56951: L2-HR :0.60648: (Sim:0h3m3s) 
CPU  0 inst:   66000003 cyc:   67157633 now IPC :1.51761: AVG IPC :0.96712: L2-Pf-HR :0.56805: L2-HR :0.60539: (Sim:0h3m6s) 
CPU  0 inst:   67000002 cyc:   67708045 now IPC :1.81682: AVG IPC :0.97412: L2-Pf-HR :0.57035: L2-HR :0.60683: (Sim:0h3m8s) 
CPU  0 inst:   68000000 cyc:   68364363 now IPC :1.52365: AVG IPC :0.97948: L2-Pf-HR :0.56852: L2-HR :0.60554: (Sim:0h3m11s) 
CPU  0 inst:   69000002 cyc:   68940752 now IPC :1.73494: AVG IPC :0.98588: L2-Pf-HR :0.57079: L2-HR :0.60692: (Sim:0h3m13s) 
CPU  0 inst:   70000000 cyc:   69598446 now IPC :1.52046: AVG IPC :0.99101: L2-Pf-HR :0.56887: L2-HR :0.60552: (Sim:0h3m16s) 
CPU  0 inst:   71000003 cyc:   70170427 now IPC :1.74832: AVG IPC :0.99727: L2-Pf-HR :0.57106: L2-HR :0.60684: (Sim:0h3m18s) 
CPU  0 inst:   72000000 cyc:   70840358 now IPC :1.49269: AVG IPC :1.00202: L2-Pf-HR :0.56919: L2-HR :0.60549: (Sim:0h3m21s) 
Finished CPU 0 instr: 70000000 cyc: 69858893 AVG IPC: 1.00202 (Sim time: 0h3m21s)

ChampSim completed all CPUs

[ROI Statistics]
Core_0_instructions 70000000
Core_0_cycles 69858893
Core_0_IPC 1.00202

Core_0_branch_prediction_accuracy 97.65568
Core_0_branch_MPKI 0.58861
Core_0_average_ROB_occupancy_at_mispredict 228.55467

Core_0_L1D_total_access 20283894
Core_0_L1D_total_hit 18603077 L1D_total_Hit Ratio: 0.91714
Core_0_L1D_total_miss 1680817
Core_0_L1D_loads 16037279
Core_0_L1D_load_hit 15615531 L1D_load_Hit Ratio: 0.97370
Core_0_L1D_load_miss 421748
Core_0_L1D_RFOs 1597363
Core_0_L1D_RFO_hit 1579234 L1D_RFO_Hit Ratio: 0.98865
Core_0_L1D_RFO_miss 18129
Core_0_L1D_prefetches 2649252
Core_0_L1D_prefetch_hit 1408312 L1D_prefetch_Hit Ratio: 0.53159
Core_0_L1D_prefetch_miss 1240940
Core_0_L1D_writebacks 0
Core_0_L1D_writeback_hit 0 L1D_writeback_Hit Ratio: -nan
Core_0_L1D_writeback_miss 0
Core_0_L1D_prefetch_requested 2930092
Core_0_L1D_prefetch_issued 2930092
Core_0_L1D_prefetch_useful 1258627 L1D_Useful Ratio: 0.42955
Core_0_L1D_prefetch_useless 8125
Core_0_L1D_prefetch_late 134457
Core_0_L1D_average_miss_latency 3146959.97132

Core_0_L1I_total_access 15828408
Core_0_L1I_total_hit 15823567 L1I_total_Hit Ratio: 0.99969
Core_0_L1I_total_miss 4841
Core_0_L1I_loads 15828408
Core_0_L1I_load_hit 15823567 L1I_load_Hit Ratio: 0.99969
Core_0_L1I_load_miss 4841
Core_0_L1I_RFOs 0
Core_0_L1I_RFO_hit 0 L1I_RFO_Hit Ratio: -nan
Core_0_L1I_RFO_miss 0
Core_0_L1I_prefetches 0
Core_0_L1I_prefetch_hit 0 L1I_prefetch_Hit Ratio: -nan
Core_0_L1I_prefetch_miss 0
Core_0_L1I_writebacks 0
Core_0_L1I_writeback_hit 0 L1I_writeback_Hit Ratio: -nan
Core_0_L1I_writeback_miss 0
Core_0_L1I_prefetch_requested 0
Core_0_L1I_prefetch_issued 0
Core_0_L1I_prefetch_useful 0 L1I_Useful Ratio: -nan
Core_0_L1I_prefetch_useless 0
Core_0_L1I_prefetch_late 0
Core_0_L1I_average_miss_latency 231.33320

Core_0_L2C_total_access 2544492
Core_0_L2C_total_hit 1540667 L2C_total_Hit Ratio: 0.60549
Core_0_L2C_total_miss 1003825
Core_0_L2C_loads 292987
Core_0_L2C_load_hit 109905 L2C_load_Hit Ratio: 0.37512
Core_0_L2C_load_miss 183082
Core_0_L2C_RFOs 18125
Core_0_L2C_RFO_hit 7246 L2C_RFO_Hit Ratio: 0.39978
Core_0_L2C_RFO_miss 10879
Core_0_L2C_prefetches 1859743
Core_0_L2C_prefetch_hit 1058540 L2C_prefetch_Hit Ratio: 0.56919
Core_0_L2C_prefetch_miss 801203
Core_0_L2C_writebacks 373637
Core_0_L2C_writeback_hit 364976 L2C_writeback_Hit Ratio: 0.97682
Core_0_L2C_writeback_miss 8661
Core_0_L2C_prefetch_requested 888661
Core_0_L2C_prefetch_issued 888661
Core_0_L2C_prefetch_useful 37231 L2C_Useful Ratio: 0.04190
Core_0_L2C_prefetch_useless 772349
Core_0_L2C_prefetch_late 24136
Core_0_L2C_average_miss_latency 174.42215

Core_0_LLC_total_access 1355114
Core_0_LLC_total_hit 904281 LLC_total_Hit Ratio: 0.66731
Core_0_LLC_total_miss 450833
Core_0_LLC_loads 158998
Core_0_LLC_load_hit 82061 LLC_load_Hit Ratio: 0.51611
Core_0_LLC_load_miss 76937
Core_0_LLC_RFOs 10879
Core_0_LLC_RFO_hit 5984 LLC_RFO_Hit Ratio: 0.55005
Core_0_LLC_RFO_miss 4895
Core_0_LLC_prefetches 825287
Core_0_LLC_prefetch_hit 456666 LLC_prefetch_Hit Ratio: 0.55334
Core_0_LLC_prefetch_miss 368621
Core_0_LLC_writebacks 359950
Core_0_LLC_writeback_hit 359570 LLC_writeback_Hit Ratio: 0.99894
Core_0_LLC_writeback_miss 380
Core_0_LLC_prefetch_requested 0
Core_0_LLC_prefetch_issued 0
Core_0_LLC_prefetch_useful 40592 LLC_Useful Ratio: inf
Core_0_LLC_prefetch_useless 310667
Core_0_LLC_prefetch_late 0
Core_0_LLC_average_miss_latency 325.62079

Core_0_major_page_fault 0
Core_0_minor_page_fault 5060

[Bingo] PHT Access: 163264
[Bingo] PHT Hit PC+Addr: 93395
[Bingo] PHT Hit PC+Offs: 66997
[Bingo] PHT Miss: 2872
[Bingo] Prefetch PC+Addr: 0
[Bingo] Prefetch PC+Offs: 0
[Bingo] Useful PC+Addr: 0
[Bingo] Useful PC+Offs: 0
[Bingo] Useless PC+Addr: 0
[Bingo] Useless PC+Offs: 0
[Bingo] L1 Prefetch per Region: 20.06135
[Bingo] L2 Prefetch per Region: 0.01396
[Bingo] L3 Prefetch per Region: 0.00000
[Bingo] No Prefetch per Region: 11.92469
[Bingo] Number of Voters Mean: 15.79093
[Bingo] Number of Voters SD: 2.94185
PHT read accesses: 1378685
PHT write accesses: 156181
AT read accesses: 15387646
AT write accesses: 15387645
FT read accesses: 1827779
FT write accesses: 163264
PS read accesses: 1230625
PS write accesses: 160392
PHT tag read accesses: 4900725
PHT tag write accesses: 249576
AT tag read accesses: 289345633
AT tag write accesses: 15543826
FT tag read accesses: 48123476
FT tag write accesses: 1158714
PS tag read accesses: 262385932
PS tag write accesses: 1385235
[Bingo2] PHT Access: 70114
[Bingo2] PHT Hit PC+Addr: 5605
[Bingo2] PHT Hit PC+Offs: 60973
[Bingo2] PHT Miss: 3536
[Bingo2] Prefetch PC+Addr: 0
[Bingo2] Prefetch PC+Offs: 0
[Bingo2] Useful PC+Addr: 0
[Bingo2] Useful PC+Offs: 0
[Bingo2] Useless PC+Addr: 0
[Bingo2] Useless PC+Offs: 0
[Bingo2] L1 Prefetch per Region: 0.00000
[Bingo2] L2 Prefetch per Region: 14.21037
[Bingo2] L3 Prefetch per Region: 0.00000
[Bingo2] No Prefetch per Region: 17.78963
[Bingo2] Number of Voters Mean: 11.46806
[Bingo2] Number of Voters SD: 6.24242
PHT read accesses: 827627
PHT write accesses: 40395
AT read accesses: 258735
AT write accesses: 259873
FT read accesses: 146376
FT write accesses: 70114
PS read accesses: 136703
PS write accesses: 66578
PHT tag read accesses: 2271732
PHT tag write accesses: 46000
AT tag read accesses: 22319387
AT tag write accesses: 299107
FT tag read accesses: 20258007
FT tag write accesses: 172746
PS tag read accesses: 6957864
PS tag write accesses: 195462
Channel_0_RQ_row_buffer_hit 306616
Channel_0_RQ_row_buffer_miss 143837
Channel_0_WQ_row_buffer_hit 102031
Channel_0_WQ_row_buffer_miss 120226
Channel_0_WQ_full 0
Channel_0_dbus_congested 470799

avg_congested_cycle 11

EzSearch AVG IPC :1.00202: L2-Pf-HR :0.56919 : L2-HR :0.60549 Uful:0.04190
     > Finished combination: TraceType=770-tot Sim:70000000 Prefetcher=L2bingo_dpc3 L1=bingo_dpc3
