TRACE: [83000000][Pythia-70M]_[h8][s512][d64] Warmup: 2000000 NumTraces: 83000000
L1:bingo_dpc3_PHT1k:L2:bingo_dpc3_PHT1k
*************************************************
   ChampSim Multicore Out-of-Order Simulator
   Last compiled: Oct 26 2024 14:03:19
*************************************************

trace_0 770-tot_memTraces_v3/memTraces[83000000][Pythia-70M]_[h8][s512][d64].champsim.xz
Bingo PHT WAYS: 16 and PHT_SIZE: 1024
Bingo2 PHT WAYS: 16 and PHT_SIZE: 1024
MAIN.cc ln 751 stats print skipped
CPU  0 inst:    1000002 cyc:     502159 now IPC :1.99141: AVG IPC :1.99141: L2-Pf-HR :0.69160: L2-HR :0.61095: (Sim:0h0m5s) 
CPU  0 inst:    2000001 cyc:     976462 now IPC :2.10835: AVG IPC :2.04821: L2-Pf-HR :0.73976: L2-HR :0.66106: (Sim:0h0m9s) 

Warmup complete CPU  0 instructions:    2000001 cycles:     976462 (Simulation time: 0 hr 0 min 9 sec) 

CPU  0 inst:    3000002 cyc:    1662280 now IPC :1.45811: AVG IPC :1.45811: L2-Pf-HR :0.80765: L2-HR :0.70862: (Sim:0h0m14s) 
CPU  0 inst:    4000000 cyc:    2341465 now IPC :1.47235: AVG IPC :1.46520: L2-Pf-HR :0.80256: L2-HR :0.71597: (Sim:0h0m18s) 
CPU  0 inst:    5000000 cyc:    3070301 now IPC :1.37205: AVG IPC :1.43277: L2-Pf-HR :0.75447: L2-HR :0.69539: (Sim:0h0m23s) 
CPU  0 inst:    6000003 cyc:    3748781 now IPC :1.47389: AVG IPC :1.44284: L2-Pf-HR :0.74457: L2-HR :0.68649: (Sim:0h0m28s) 
CPU  0 inst:    7000000 cyc:    4445181 now IPC :1.43595: AVG IPC :1.44145: L2-Pf-HR :0.74922: L2-HR :0.68689: (Sim:0h0m32s) 
CPU  0 inst:    8000000 cyc:    5185591 now IPC :1.35060: AVG IPC :1.42547: L2-Pf-HR :0.75634: L2-HR :0.69252: (Sim:0h0m37s) 
CPU  0 inst:    9000003 cyc:    5988356 now IPC :1.24570: AVG IPC :1.39668: L2-Pf-HR :0.73870: L2-HR :0.68406: (Sim:0h0m42s) 
CPU  0 inst:   10000002 cyc:    6712664 now IPC :1.38063: AVG IPC :1.39465: L2-Pf-HR :0.73511: L2-HR :0.68082: (Sim:0h0m46s) 
CPU  0 inst:   11000002 cyc:    7440007 now IPC :1.37487: AVG IPC :1.39242: L2-Pf-HR :0.73603: L2-HR :0.68013: (Sim:0h0m51s) 
CPU  0 inst:   12000000 cyc:    8193426 now IPC :1.32728: AVG IPC :1.38562: L2-Pf-HR :0.74130: L2-HR :0.68358: (Sim:0h0m56s) 
CPU  0 inst:   13000003 cyc:    8989538 now IPC :1.25611: AVG IPC :1.37276: L2-Pf-HR :0.73472: L2-HR :0.68113: (Sim:0h1m0s) 
CPU  0 inst:   14000000 cyc:    9722570 now IPC :1.36419: AVG IPC :1.37204: L2-Pf-HR :0.73395: L2-HR :0.67979: (Sim:0h1m5s) 
CPU  0 inst:   15000000 cyc:   10458973 now IPC :1.35795: AVG IPC :1.37094: L2-Pf-HR :0.73477: L2-HR :0.67940: (Sim:0h1m10s) 
CPU  0 inst:   16000000 cyc:   11217040 now IPC :1.31914: AVG IPC :1.36711: L2-Pf-HR :0.73956: L2-HR :0.68200: (Sim:0h1m15s) 
CPU  0 inst:   17000003 cyc:   12019746 now IPC :1.24579: AVG IPC :1.35829: L2-Pf-HR :0.73333: L2-HR :0.67934: (Sim:0h1m19s) 
CPU  0 inst:   18000003 cyc:   12747689 now IPC :1.37373: AVG IPC :1.35925: L2-Pf-HR :0.73307: L2-HR :0.67855: (Sim:0h1m24s) 
CPU  0 inst:   19000003 cyc:   13471915 now IPC :1.38078: AVG IPC :1.36050: L2-Pf-HR :0.73395: L2-HR :0.67846: (Sim:0h1m29s) 
CPU  0 inst:   20000000 cyc:   14227943 now IPC :1.32270: AVG IPC :1.35834: L2-Pf-HR :0.73731: L2-HR :0.68011: (Sim:0h1m34s) 
CPU  0 inst:   21000000 cyc:   15028290 now IPC :1.24946: AVG IPC :1.35214: L2-Pf-HR :0.73145: L2-HR :0.67760: (Sim:0h1m39s) 
CPU  0 inst:   22000000 cyc:   15764177 now IPC :1.35890: AVG IPC :1.35247: L2-Pf-HR :0.73270: L2-HR :0.67799: (Sim:0h1m43s) 
CPU  0 inst:   23000003 cyc:   16484913 now IPC :1.38747: AVG IPC :1.35410: L2-Pf-HR :0.73280: L2-HR :0.67766: (Sim:0h1m48s) 
CPU  0 inst:   24000000 cyc:   17246319 now IPC :1.31336: AVG IPC :1.35219: L2-Pf-HR :0.73564: L2-HR :0.67902: (Sim:0h1m53s) 
CPU  0 inst:   25000003 cyc:   18041073 now IPC :1.25825: AVG IPC :1.34782: L2-Pf-HR :0.72891: L2-HR :0.67622: (Sim:0h1m58s) 
CPU  0 inst:   26000002 cyc:   18754666 now IPC :1.40136: AVG IPC :1.34997: L2-Pf-HR :0.72639: L2-HR :0.67464: (Sim:0h2m1s) 
CPU  0 inst:   27000001 cyc:   19470948 now IPC :1.39610: AVG IPC :1.35175: L2-Pf-HR :0.72727: L2-HR :0.67485: (Sim:0h2m4s) 
CPU  0 inst:   28000000 cyc:   20233340 now IPC :1.31166: AVG IPC :1.35017: L2-Pf-HR :0.73001: L2-HR :0.67613: (Sim:0h2m7s) 
CPU  0 inst:   29000003 cyc:   21021999 now IPC :1.26798: AVG IPC :1.34693: L2-Pf-HR :0.72692: L2-HR :0.67529: (Sim:0h2m11s) 
CPU  0 inst:   30000000 cyc:   21757878 now IPC :1.35891: AVG IPC :1.34736: L2-Pf-HR :0.72702: L2-HR :0.67514: (Sim:0h2m14s) 
CPU  0 inst:   31000001 cyc:   22473336 now IPC :1.39771: AVG IPC :1.34903: L2-Pf-HR :0.72682: L2-HR :0.67469: (Sim:0h2m17s) 
CPU  0 inst:   32000000 cyc:   23224692 now IPC :1.33093: AVG IPC :1.34842: L2-Pf-HR :0.72816: L2-HR :0.67515: (Sim:0h2m20s) 
CPU  0 inst:   33000000 cyc:   24033538 now IPC :1.23633: AVG IPC :1.34449: L2-Pf-HR :0.72909: L2-HR :0.67534: (Sim:0h2m25s) 
CPU  0 inst:   34000003 cyc:   30288933 now IPC :0.15986: AVG IPC :1.09169: L2-Pf-HR :0.62272: L2-HR :0.64278: (Sim:0h2m36s) 
CPU  0 inst:   35000001 cyc:   34474890 now IPC :0.23889: AVG IPC :0.98512: L2-Pf-HR :0.59732: L2-HR :0.63308: (Sim:0h2m43s) 
CPU  0 inst:   36000000 cyc:   38017119 now IPC :0.28231: AVG IPC :0.91791: L2-Pf-HR :0.58902: L2-HR :0.62835: (Sim:0h2m48s) 
CPU  0 inst:   37000002 cyc:   41559827 now IPC :0.28227: AVG IPC :0.86242: L2-Pf-HR :0.58060: L2-HR :0.62382: (Sim:0h2m54s) 
CPU  0 inst:   38000000 cyc:   45101943 now IPC :0.28232: AVG IPC :0.81586: L2-Pf-HR :0.57235: L2-HR :0.61948: (Sim:0h3m3s) 
CPU  0 inst:   39000000 cyc:   48644189 now IPC :0.28231: AVG IPC :0.77621: L2-Pf-HR :0.56441: L2-HR :0.61532: (Sim:0h3m12s) 
CPU  0 inst:   40000000 cyc:   52186505 now IPC :0.28230: AVG IPC :0.74204: L2-Pf-HR :0.55732: L2-HR :0.61133: (Sim:0h3m21s) 
CPU  0 inst:   41000001 cyc:   55728025 now IPC :0.28236: AVG IPC :0.71231: L2-Pf-HR :0.55037: L2-HR :0.60750: (Sim:0h3m29s) 
CPU  0 inst:   42000001 cyc:   59269303 now IPC :0.28238: AVG IPC :0.68619: L2-Pf-HR :0.54366: L2-HR :0.60381: (Sim:0h3m38s) 
CPU  0 inst:   43000001 cyc:   62811701 now IPC :0.28229: AVG IPC :0.66305: L2-Pf-HR :0.53704: L2-HR :0.60026: (Sim:0h3m47s) 
CPU  0 inst:   44000000 cyc:   66354141 now IPC :0.28229: AVG IPC :0.64242: L2-Pf-HR :0.53096: L2-HR :0.59685: (Sim:0h3m56s) 
CPU  0 inst:   45000002 cyc:   69896745 now IPC :0.28228: AVG IPC :0.62391: L2-Pf-HR :0.52492: L2-HR :0.59357: (Sim:0h4m4s) 
CPU  0 inst:   46000000 cyc:   73438956 now IPC :0.28231: AVG IPC :0.60721: L2-Pf-HR :0.51910: L2-HR :0.59040: (Sim:0h4m13s) 
CPU  0 inst:   47000000 cyc:   76981249 now IPC :0.28230: AVG IPC :0.59207: L2-Pf-HR :0.51347: L2-HR :0.58735: (Sim:0h4m21s) 
CPU  0 inst:   48000000 cyc:   80523840 now IPC :0.28228: AVG IPC :0.57827: L2-Pf-HR :0.50815: L2-HR :0.58440: (Sim:0h4m29s) 
CPU  0 inst:   49000000 cyc:   84065975 now IPC :0.28232: AVG IPC :0.56565: L2-Pf-HR :0.50277: L2-HR :0.58155: (Sim:0h4m38s) 
CPU  0 inst:   50000003 cyc:   87607954 now IPC :0.28233: AVG IPC :0.55407: L2-Pf-HR :0.49775: L2-HR :0.57881: (Sim:0h4m47s) 
CPU  0 inst:   51000001 cyc:   89380046 now IPC :0.56430: AVG IPC :0.55428: L2-Pf-HR :0.51001: L2-HR :0.58768: (Sim:0h4m53s) 
CPU  0 inst:   52000000 cyc:   90008572 now IPC :1.59102: AVG IPC :0.56160: L2-Pf-HR :0.53064: L2-HR :0.60304: (Sim:0h4m58s) 
CPU  0 inst:   53000003 cyc:   90726012 now IPC :1.39385: AVG IPC :0.56825: L2-Pf-HR :0.54751: L2-HR :0.61622: (Sim:0h5m3s) 
CPU  0 inst:   54000003 cyc:   91320155 now IPC :1.68310: AVG IPC :0.57558: L2-Pf-HR :0.56400: L2-HR :0.62908: (Sim:0h5m9s) 
CPU  0 inst:   55000000 cyc:   91987854 now IPC :1.49768: AVG IPC :0.58234: L2-Pf-HR :0.57816: L2-HR :0.64053: (Sim:0h5m14s) 
CPU  0 inst:   56000000 cyc:   92611689 now IPC :1.60299: AVG IPC :0.58929: L2-Pf-HR :0.59225: L2-HR :0.65153: (Sim:0h5m19s) 
CPU  0 inst:   57000000 cyc:   93247603 now IPC :1.57254: AVG IPC :0.59607: L2-Pf-HR :0.60374: L2-HR :0.66121: (Sim:0h5m24s) 
CPU  0 inst:   58000001 cyc:   93836191 now IPC :1.69898: AVG IPC :0.60306: L2-Pf-HR :0.61528: L2-HR :0.67055: (Sim:0h5m29s) 
CPU  0 inst:   59000000 cyc:   94455638 now IPC :1.61434: AVG IPC :0.60976: L2-Pf-HR :0.62540: L2-HR :0.67916: (Sim:0h5m33s) 
CPU  0 inst:   60000000 cyc:   95076686 now IPC :1.61018: AVG IPC :0.61636: L2-Pf-HR :0.63566: L2-HR :0.68737: (Sim:0h5m38s) 
CPU  0 inst:   61000001 cyc:   95709009 now IPC :1.58147: AVG IPC :0.62281: L2-Pf-HR :0.64403: L2-HR :0.69464: (Sim:0h5m43s) 
CPU  0 inst:   62000001 cyc:   96293697 now IPC :1.71031: AVG IPC :0.62948: L2-Pf-HR :0.65300: L2-HR :0.70204: (Sim:0h5m48s) 
CPU  0 inst:   63000000 cyc:   96902745 now IPC :1.64191: AVG IPC :0.63590: L2-Pf-HR :0.66066: L2-HR :0.70870: (Sim:0h5m53s) 
CPU  0 inst:   64000000 cyc:   97522499 now IPC :1.61354: AVG IPC :0.64218: L2-Pf-HR :0.66857: L2-HR :0.71517: (Sim:0h5m58s) 
CPU  0 inst:   65000001 cyc:   98162066 now IPC :1.56356: AVG IPC :0.64824: L2-Pf-HR :0.67489: L2-HR :0.72073: (Sim:0h6m3s) 
CPU  0 inst:   66000000 cyc:   98746599 now IPC :1.71077: AVG IPC :0.65460: L2-Pf-HR :0.68182: L2-HR :0.72661: (Sim:0h6m8s) 
CPU  0 inst:   67000001 cyc:   99332414 now IPC :1.70703: AVG IPC :0.66086: L2-Pf-HR :0.68818: L2-HR :0.73219: (Sim:0h6m12s) 
CPU  0 inst:   68000000 cyc:   99969718 now IPC :1.56911: AVG IPC :0.66671: L2-Pf-HR :0.69396: L2-HR :0.73711: (Sim:0h6m17s) 
CPU  0 inst:   69000000 cyc:  100598723 now IPC :1.58981: AVG IPC :0.67254: L2-Pf-HR :0.69948: L2-HR :0.74188: (Sim:0h6m22s) 
CPU  0 inst:   70000000 cyc:  101200729 now IPC :1.66111: AVG IPC :0.67848: L2-Pf-HR :0.70450: L2-HR :0.74634: (Sim:0h6m27s) 
CPU  0 inst:   71000002 cyc:  101783361 now IPC :1.71635: AVG IPC :0.68448: L2-Pf-HR :0.70981: L2-HR :0.75090: (Sim:0h6m32s) 
CPU  0 inst:   72000000 cyc:  102415116 now IPC :1.58289: AVG IPC :0.69007: L2-Pf-HR :0.71432: L2-HR :0.75491: (Sim:0h6m37s) 
CPU  0 inst:   73000000 cyc:  103045178 now IPC :1.58715: AVG IPC :0.69561: L2-Pf-HR :0.71905: L2-HR :0.75887: (Sim:0h6m42s) 
CPU  0 inst:   74000002 cyc:  103651016 now IPC :1.65061: AVG IPC :0.70124: L2-Pf-HR :0.72298: L2-HR :0.76255: (Sim:0h6m46s) 
CPU  0 inst:   75000000 cyc:  104232615 now IPC :1.71939: AVG IPC :0.70698: L2-Pf-HR :0.72733: L2-HR :0.76633: (Sim:0h6m51s) 
CPU  0 inst:   76000000 cyc:  104863798 now IPC :1.58433: AVG IPC :0.71231: L2-Pf-HR :0.73091: L2-HR :0.76962: (Sim:0h6m56s) 
CPU  0 inst:   77000001 cyc:  105496210 now IPC :1.58125: AVG IPC :0.71757: L2-Pf-HR :0.73475: L2-HR :0.77293: (Sim:0h7m1s) 
CPU  0 inst:   78000002 cyc:  106104729 now IPC :1.64334: AVG IPC :0.72293: L2-Pf-HR :0.73810: L2-HR :0.77604: (Sim:0h7m6s) 
CPU  0 inst:   79000002 cyc:  106686865 now IPC :1.71781: AVG IPC :0.72841: L2-Pf-HR :0.74176: L2-HR :0.77924: (Sim:0h7m11s) 
CPU  0 inst:   80000000 cyc:  107314472 now IPC :1.59335: AVG IPC :0.73351: L2-Pf-HR :0.74464: L2-HR :0.78194: (Sim:0h7m16s) 
Finished CPU 0 instr: 78000000 cyc: 106338048 AVG IPC: 0.73351 (Sim time: 0h7m16s)

ChampSim completed all CPUs

[ROI Statistics]
Core_0_instructions 78000000
Core_0_cycles 106338048
Core_0_IPC 0.73351

Core_0_branch_prediction_accuracy 99.16542
Core_0_branch_MPKI 0.25491
Core_0_average_ROB_occupancy_at_mispredict 230.99854

Core_0_L1D_total_access 25399970
Core_0_L1D_total_hit 22348563 L1D_total_Hit Ratio: 0.87987
Core_0_L1D_total_miss 3051407
Core_0_L1D_loads 21377583
Core_0_L1D_load_hit 19981048 L1D_load_Hit Ratio: 0.93467
Core_0_L1D_load_miss 1396535
Core_0_L1D_RFOs 2202128
Core_0_L1D_RFO_hit 2141199 L1D_RFO_Hit Ratio: 0.97233
Core_0_L1D_RFO_miss 60929
Core_0_L1D_prefetches 1820259
Core_0_L1D_prefetch_hit 226316 L1D_prefetch_Hit Ratio: 0.12433
Core_0_L1D_prefetch_miss 1593943
Core_0_L1D_writebacks 0
Core_0_L1D_writeback_hit 0 L1D_writeback_Hit Ratio: -nan
Core_0_L1D_writeback_miss 0
Core_0_L1D_prefetch_requested 2540157
Core_0_L1D_prefetch_issued 2540157
Core_0_L1D_prefetch_useful 1573597 L1D_Useful Ratio: 0.61949
Core_0_L1D_prefetch_useless 46576
Core_0_L1D_prefetch_late 261643
Core_0_L1D_average_miss_latency 5343210.00134

Core_0_L1I_total_access 19992350
Core_0_L1I_total_hit 19987437 L1I_total_Hit Ratio: 0.99975
Core_0_L1I_total_miss 4913
Core_0_L1I_loads 19992350
Core_0_L1I_load_hit 19987437 L1I_load_Hit Ratio: 0.99975
Core_0_L1I_load_miss 4913
Core_0_L1I_RFOs 0
Core_0_L1I_RFO_hit 0 L1I_RFO_Hit Ratio: -nan
Core_0_L1I_RFO_miss 0
Core_0_L1I_prefetches 0
Core_0_L1I_prefetch_hit 0 L1I_prefetch_Hit Ratio: -nan
Core_0_L1I_prefetch_miss 0
Core_0_L1I_writebacks 0
Core_0_L1I_writeback_hit 0 L1I_writeback_Hit Ratio: -nan
Core_0_L1I_writeback_miss 0
Core_0_L1I_prefetch_requested 0
Core_0_L1I_prefetch_issued 0
Core_0_L1I_prefetch_useful 0 L1I_Useful Ratio: -nan
Core_0_L1I_prefetch_useless 0
Core_0_L1I_prefetch_late 0
Core_0_L1I_average_miss_latency 258.50987

Core_0_L2C_total_access 4081507
Core_0_L2C_total_hit 3191487 L2C_total_Hit Ratio: 0.78194
Core_0_L2C_total_miss 890020
Core_0_L2C_loads 1140992
Core_0_L2C_load_hit 923464 L2C_load_Hit Ratio: 0.80935
Core_0_L2C_load_miss 217528
Core_0_L2C_RFOs 60929
Core_0_L2C_RFO_hit 129 L2C_RFO_Hit Ratio: 0.00212
Core_0_L2C_RFO_miss 60800
Core_0_L2C_prefetches 2388055
Core_0_L2C_prefetch_hit 1778250 L2C_prefetch_Hit Ratio: 0.74464
Core_0_L2C_prefetch_miss 609805
Core_0_L2C_writebacks 491531
Core_0_L2C_writeback_hit 489644 L2C_writeback_Hit Ratio: 0.99616
Core_0_L2C_writeback_miss 1887
Core_0_L2C_prefetch_requested 547747
Core_0_L2C_prefetch_issued 547747
Core_0_L2C_prefetch_useful 141185 L2C_Useful Ratio: 0.25776
Core_0_L2C_prefetch_useless 476062
Core_0_L2C_prefetch_late 6657
Core_0_L2C_average_miss_latency 297.88447

Core_0_LLC_total_access 1373417
Core_0_LLC_total_hit 673439 LLC_total_Hit Ratio: 0.49034
Core_0_LLC_total_miss 699978
Core_0_LLC_loads 211087
Core_0_LLC_load_hit 71242 LLC_load_Hit Ratio: 0.33750
Core_0_LLC_load_miss 139845
Core_0_LLC_RFOs 60800
Core_0_LLC_RFO_hit 336 LLC_RFO_Hit Ratio: 0.00553
Core_0_LLC_RFO_miss 60464
Core_0_LLC_prefetches 616236
Core_0_LLC_prefetch_hit 116574 LLC_prefetch_Hit Ratio: 0.18917
Core_0_LLC_prefetch_miss 499662
Core_0_LLC_writebacks 485294
Core_0_LLC_writeback_hit 485287 LLC_writeback_Hit Ratio: 0.99999
Core_0_LLC_writeback_miss 7
Core_0_LLC_prefetch_requested 0
Core_0_LLC_prefetch_issued 0
Core_0_LLC_prefetch_useful 32442 LLC_Useful Ratio: inf
Core_0_LLC_prefetch_useless 445368
Core_0_LLC_prefetch_late 0
Core_0_LLC_average_miss_latency 341.60484

Core_0_major_page_fault 0
Core_0_minor_page_fault 6067

[Bingo] PHT Access: 431872
[Bingo] PHT Hit PC+Addr: 51564
[Bingo] PHT Hit PC+Offs: 309324
[Bingo] PHT Miss: 70984
[Bingo] Prefetch PC+Addr: 0
[Bingo] Prefetch PC+Offs: 0
[Bingo] Useful PC+Addr: 0
[Bingo] Useful PC+Offs: 0
[Bingo] Useless PC+Addr: 0
[Bingo] Useless PC+Offs: 0
[Bingo] L1 Prefetch per Region: 7.59276
[Bingo] L2 Prefetch per Region: 0.62888
[Bingo] L3 Prefetch per Region: 0.00000
[Bingo] No Prefetch per Region: 23.77835
[Bingo] Number of Voters Mean: 7.37306
[Bingo] Number of Voters SD: 6.01196
PHT read accesses: 6574696
PHT write accesses: 414350
AT read accesses: 19894501
AT write accesses: 19894501
FT read accesses: 4323137
FT write accesses: 431872
PS read accesses: 1282583
PS write accesses: 360888
PHT tag read accesses: 18996588
PHT tag write accesses: 465914
AT tag read accesses: 406104166
AT tag write accesses: 20308851
FT tag read accesses: 100985575
FT tag write accesses: 2809313
PS tag read accesses: 355026246
PS tag write accesses: 1640959
[Bingo2] PHT Access: 112233
[Bingo2] PHT Hit PC+Addr: 4599
[Bingo2] PHT Hit PC+Offs: 80548
[Bingo2] PHT Miss: 27086
[Bingo2] Prefetch PC+Addr: 0
[Bingo2] Prefetch PC+Offs: 0
[Bingo2] Useful PC+Addr: 0
[Bingo2] Useful PC+Offs: 0
[Bingo2] Useless PC+Addr: 0
[Bingo2] Useless PC+Offs: 0
[Bingo2] L1 Prefetch per Region: 0.00000
[Bingo2] L2 Prefetch per Region: 7.57834
[Bingo2] L3 Prefetch per Region: 0.00000
[Bingo2] No Prefetch per Region: 24.42166
[Bingo2] Number of Voters Mean: 11.95367
[Bingo2] Number of Voters SD: 5.93241
PHT read accesses: 1759584
PHT write accesses: 77290
AT read accesses: 1096072
AT write accesses: 1104123
FT read accesses: 262742
FT write accesses: 112233
PS read accesses: 193382
PS write accesses: 85147
PHT tag read accesses: 4196887
PHT tag write accesses: 81889
AT tag read accesses: 35631914
AT tag write accesses: 1173393
FT tag read accesses: 21124203
FT tag write accesses: 295697
PS tag read accesses: 21526691
PS tag write accesses: 277643
Channel_0_RQ_row_buffer_hit 406199
Channel_0_RQ_row_buffer_miss 293772
Channel_0_WQ_row_buffer_hit 152576
Channel_0_WQ_row_buffer_miss 255467
Channel_0_WQ_full 0
Channel_0_dbus_congested 755716

avg_congested_cycle 11

EzSearch AVG IPC :0.73351: L2-Pf-HR :0.74464 : L2-HR :0.78194 Uful:0.25776
     > Finished combination: TraceType=770-tot Sim:78000000 Prefetcher=L2bingo_dpc3_PHT1k L1=bingo_dpc3_PHT1k
