TRACE: [2366000000][OPT-6_7B]_[h32][s1024][d128] Warmup: 2000000 NumTraces: 2366000000
L1:bingo_dpc3_PHT1k:L2:bingo_dpc3_PHT1k
*************************************************
   ChampSim Multicore Out-of-Order Simulator
   Last compiled: Oct 26 2024 13:05:53
*************************************************

trace_0 770-tot_memTraces_v3/memTraces[2366000000][OPT-6_7B]_[h32][s1024][d128].champsim.xz
Bingo PHT WAYS: 16 and PHT_SIZE: 1024
Bingo2 PHT WAYS: 16 and PHT_SIZE: 1024
MAIN.cc ln 751 stats print skipped
CPU  0 inst:    1000002 cyc:     503295 now IPC :1.98691: AVG IPC :1.98691: L2-Pf-HR :0.40542: L2-HR :0.49695: (Sim:0h0m3s) 
CPU  0 inst:    2000000 cyc:     981283 now IPC :2.09210: AVG IPC :2.03815: L2-Pf-HR :0.43071: L2-HR :0.51944: (Sim:0h0m5s) 

Warmup complete CPU  0 instructions:    2000004 cycles:     981285 (Simulation time: 0 hr 0 min 5 sec) 

CPU  0 inst:    3000000 cyc:    1611029 now IPC :1.58794: AVG IPC :1.58794: L2-Pf-HR :0.44292: L2-HR :0.49799: (Sim:0h0m8s) 
CPU  0 inst:    4000000 cyc:    2240148 now IPC :1.58952: AVG IPC :1.58873: L2-Pf-HR :0.43111: L2-HR :0.49176: (Sim:0h0m10s) 
CPU  0 inst:    5000002 cyc:    2877100 now IPC :1.56998: AVG IPC :1.58243: L2-Pf-HR :0.41612: L2-HR :0.48453: (Sim:0h0m13s) 
CPU  0 inst:    6000002 cyc:    3514865 now IPC :1.56798: AVG IPC :1.57879: L2-Pf-HR :0.41123: L2-HR :0.48509: (Sim:0h0m16s) 
CPU  0 inst:    7000001 cyc:    4156574 now IPC :1.55834: AVG IPC :1.57466: L2-Pf-HR :0.41395: L2-HR :0.48976: (Sim:0h0m18s) 
CPU  0 inst:    8000000 cyc:    4804160 now IPC :1.54419: AVG IPC :1.56950: L2-Pf-HR :0.41584: L2-HR :0.49044: (Sim:0h0m21s) 
CPU  0 inst:    9000000 cyc:    5443804 now IPC :1.56337: AVG IPC :1.56862: L2-Pf-HR :0.41664: L2-HR :0.49010: (Sim:0h0m23s) 
CPU  0 inst:   10000000 cyc:    6095847 now IPC :1.53364: AVG IPC :1.56416: L2-Pf-HR :0.41715: L2-HR :0.49100: (Sim:0h0m26s) 
CPU  0 inst:   11000000 cyc:    6757702 now IPC :1.51090: AVG IPC :1.55806: L2-Pf-HR :0.41407: L2-HR :0.48985: (Sim:0h0m29s) 
CPU  0 inst:   12000000 cyc:    7437085 now IPC :1.47192: AVG IPC :1.54899: L2-Pf-HR :0.41014: L2-HR :0.48787: (Sim:0h0m31s) 
CPU  0 inst:   13000000 cyc:    8268194 now IPC :1.20321: AVG IPC :1.50956: L2-Pf-HR :0.40403: L2-HR :0.48570: (Sim:0h0m34s) 
CPU  0 inst:   14000003 cyc:    8923316 now IPC :1.52644: AVG IPC :1.51095: L2-Pf-HR :0.40710: L2-HR :0.48723: (Sim:0h0m37s) 
CPU  0 inst:   15000000 cyc:    9576950 now IPC :1.52990: AVG IPC :1.51239: L2-Pf-HR :0.41031: L2-HR :0.48867: (Sim:0h0m39s) 
CPU  0 inst:   16000000 cyc:   10229895 now IPC :1.53152: AVG IPC :1.51374: L2-Pf-HR :0.41046: L2-HR :0.48848: (Sim:0h0m42s) 
CPU  0 inst:   17000001 cyc:   10886406 now IPC :1.52321: AVG IPC :1.51437: L2-Pf-HR :0.40839: L2-HR :0.48755: (Sim:0h0m45s) 
CPU  0 inst:   18000001 cyc:   11548418 now IPC :1.51055: AVG IPC :1.51413: L2-Pf-HR :0.40790: L2-HR :0.48817: (Sim:0h0m47s) 
CPU  0 inst:   19000003 cyc:   12207183 now IPC :1.51799: AVG IPC :1.51436: L2-Pf-HR :0.40957: L2-HR :0.48970: (Sim:0h0m50s) 
CPU  0 inst:   20000000 cyc:   12861903 now IPC :1.52737: AVG IPC :1.51507: L2-Pf-HR :0.41042: L2-HR :0.49002: (Sim:0h0m52s) 
CPU  0 inst:   21000003 cyc:   13507749 now IPC :1.54836: AVG IPC :1.51679: L2-Pf-HR :0.41173: L2-HR :0.49025: (Sim:0h0m55s) 
CPU  0 inst:   22000002 cyc:   14151483 now IPC :1.55344: AVG IPC :1.51858: L2-Pf-HR :0.41164: L2-HR :0.49003: (Sim:0h0m58s) 
CPU  0 inst:   23000001 cyc:   14804912 now IPC :1.53039: AVG IPC :1.51914: L2-Pf-HR :0.41069: L2-HR :0.48938: (Sim:0h1m0s) 
CPU  0 inst:   24000000 cyc:   15562327 now IPC :1.32028: AVG IPC :1.50881: L2-Pf-HR :0.40660: L2-HR :0.48724: (Sim:0h1m3s) 
CPU  0 inst:   25000002 cyc:   16219956 now IPC :1.52062: AVG IPC :1.50932: L2-Pf-HR :0.41529: L2-HR :0.49319: (Sim:0h1m6s) 
CPU  0 inst:   26000000 cyc:   16870275 now IPC :1.53770: AVG IPC :1.51048: L2-Pf-HR :0.42136: L2-HR :0.49719: (Sim:0h1m8s) 
CPU  0 inst:   27000001 cyc:   17519992 now IPC :1.53913: AVG IPC :1.51161: L2-Pf-HR :0.42431: L2-HR :0.49926: (Sim:0h1m11s) 
CPU  0 inst:   28000000 cyc:   18174751 now IPC :1.52728: AVG IPC :1.51220: L2-Pf-HR :0.42748: L2-HR :0.50196: (Sim:0h1m14s) 
CPU  0 inst:   29000003 cyc:   18823809 now IPC :1.54070: AVG IPC :1.51324: L2-Pf-HR :0.43115: L2-HR :0.50456: (Sim:0h1m16s) 
CPU  0 inst:   30000000 cyc:   19456429 now IPC :1.58072: AVG IPC :1.51555: L2-Pf-HR :0.43909: L2-HR :0.50989: (Sim:0h1m19s) 
CPU  0 inst:   31000002 cyc:   20093983 now IPC :1.56850: AVG IPC :1.51732: L2-Pf-HR :0.44632: L2-HR :0.51515: (Sim:0h1m21s) 
CPU  0 inst:   32000000 cyc:   20926316 now IPC :1.20144: AVG IPC :1.50413: L2-Pf-HR :0.44780: L2-HR :0.51692: (Sim:0h1m24s) 
CPU  0 inst:   33000003 cyc:   21600050 now IPC :1.48427: AVG IPC :1.50348: L2-Pf-HR :0.44786: L2-HR :0.51657: (Sim:0h1m27s) 
CPU  0 inst:   34000001 cyc:   22265936 now IPC :1.50176: AVG IPC :1.50343: L2-Pf-HR :0.44746: L2-HR :0.51583: (Sim:0h1m29s) 
CPU  0 inst:   35000000 cyc:   22925907 now IPC :1.51522: AVG IPC :1.50379: L2-Pf-HR :0.44730: L2-HR :0.51528: (Sim:0h1m32s) 
CPU  0 inst:   36000000 cyc:   23601424 now IPC :1.48035: AVG IPC :1.50309: L2-Pf-HR :0.44568: L2-HR :0.51391: (Sim:0h1m35s) 
CPU  0 inst:   37000001 cyc:   24268412 now IPC :1.49928: AVG IPC :1.50298: L2-Pf-HR :0.44400: L2-HR :0.51288: (Sim:0h1m37s) 
CPU  0 inst:   38000002 cyc:   24944914 now IPC :1.47819: AVG IPC :1.50228: L2-Pf-HR :0.44297: L2-HR :0.51245: (Sim:0h1m40s) 
CPU  0 inst:   39000002 cyc:   25621303 now IPC :1.47844: AVG IPC :1.50162: L2-Pf-HR :0.44256: L2-HR :0.51201: (Sim:0h1m43s) 
CPU  0 inst:   40000000 cyc:   26286102 now IPC :1.50421: AVG IPC :1.50169: L2-Pf-HR :0.44184: L2-HR :0.51132: (Sim:0h1m45s) 
CPU  0 inst:   41000003 cyc:   26955415 now IPC :1.49407: AVG IPC :1.50149: L2-Pf-HR :0.44180: L2-HR :0.51113: (Sim:0h1m48s) 
CPU  0 inst:   42000001 cyc:   27626333 now IPC :1.49049: AVG IPC :1.50122: L2-Pf-HR :0.44054: L2-HR :0.51040: (Sim:0h1m51s) 
CPU  0 inst:   43000002 cyc:   28307839 now IPC :1.46734: AVG IPC :1.50037: L2-Pf-HR :0.43943: L2-HR :0.50971: (Sim:0h1m53s) 
CPU  0 inst:   44000000 cyc:   29159347 now IPC :1.17438: AVG IPC :1.49052: L2-Pf-HR :0.43601: L2-HR :0.50794: (Sim:0h1m56s) 
CPU  0 inst:   45000002 cyc:   29801536 now IPC :1.55718: AVG IPC :1.49201: L2-Pf-HR :0.43625: L2-HR :0.50797: (Sim:0h1m59s) 
CPU  0 inst:   46000003 cyc:   30441009 now IPC :1.56379: AVG IPC :1.49356: L2-Pf-HR :0.43644: L2-HR :0.50797: (Sim:0h2m1s) 
CPU  0 inst:   47000001 cyc:   31079778 now IPC :1.56551: AVG IPC :1.49509: L2-Pf-HR :0.43663: L2-HR :0.50789: (Sim:0h2m4s) 
CPU  0 inst:   48000000 cyc:   31718625 now IPC :1.56532: AVG IPC :1.49655: L2-Pf-HR :0.43563: L2-HR :0.50725: (Sim:0h2m6s) 
CPU  0 inst:   49000003 cyc:   32358150 now IPC :1.56367: AVG IPC :1.49792: L2-Pf-HR :0.43468: L2-HR :0.50675: (Sim:0h2m9s) 
CPU  0 inst:   50000000 cyc:   33004255 now IPC :1.54773: AVG IPC :1.49892: L2-Pf-HR :0.43421: L2-HR :0.50678: (Sim:0h2m12s) 
CPU  0 inst:   51000000 cyc:   33643604 now IPC :1.56409: AVG IPC :1.50020: L2-Pf-HR :0.43422: L2-HR :0.50674: (Sim:0h2m14s) 
CPU  0 inst:   52000000 cyc:   34280140 now IPC :1.57100: AVG IPC :1.50155: L2-Pf-HR :0.43394: L2-HR :0.50636: (Sim:0h2m17s) 
CPU  0 inst:   53000000 cyc:   34917258 now IPC :1.56957: AVG IPC :1.50283: L2-Pf-HR :0.43414: L2-HR :0.50634: (Sim:0h2m19s) 
CPU  0 inst:   54000000 cyc:   35555295 now IPC :1.56731: AVG IPC :1.50402: L2-Pf-HR :0.43336: L2-HR :0.50584: (Sim:0h2m22s) 
CPU  0 inst:   55000000 cyc:   36189024 now IPC :1.57796: AVG IPC :1.50535: L2-Pf-HR :0.43267: L2-HR :0.50537: (Sim:0h2m25s) 
CPU  0 inst:   56000000 cyc:   36942798 now IPC :1.32666: AVG IPC :1.50161: L2-Pf-HR :0.43259: L2-HR :0.50558: (Sim:0h2m27s) 
CPU  0 inst:   57000003 cyc:   37588805 now IPC :1.54798: AVG IPC :1.50242: L2-Pf-HR :0.43521: L2-HR :0.50732: (Sim:0h2m30s) 
CPU  0 inst:   58000002 cyc:   38233746 now IPC :1.55053: AVG IPC :1.50326: L2-Pf-HR :0.43691: L2-HR :0.50842: (Sim:0h2m33s) 
CPU  0 inst:   59000000 cyc:   38879367 now IPC :1.54889: AVG IPC :1.50403: L2-Pf-HR :0.43791: L2-HR :0.50923: (Sim:0h2m35s) 
CPU  0 inst:   60000000 cyc:   39526445 now IPC :1.54541: AVG IPC :1.50473: L2-Pf-HR :0.43931: L2-HR :0.51034: (Sim:0h2m38s) 
CPU  0 inst:   61000002 cyc:   40165474 now IPC :1.56488: AVG IPC :1.50571: L2-Pf-HR :0.44131: L2-HR :0.51170: (Sim:0h2m40s) 
CPU  0 inst:   62000001 cyc:   40791150 now IPC :1.59827: AVG IPC :1.50716: L2-Pf-HR :0.44534: L2-HR :0.51447: (Sim:0h2m43s) 
CPU  0 inst:   63000002 cyc:   41421505 now IPC :1.58641: AVG IPC :1.50840: L2-Pf-HR :0.44863: L2-HR :0.51683: (Sim:0h2m46s) 
CPU  0 inst:   64000000 cyc:   42268847 now IPC :1.18016: AVG IPC :1.50166: L2-Pf-HR :0.44759: L2-HR :0.51644: (Sim:0h2m48s) 
CPU  0 inst:   65000002 cyc:   42935921 now IPC :1.49909: AVG IPC :1.50162: L2-Pf-HR :0.44757: L2-HR :0.51622: (Sim:0h2m51s) 
CPU  0 inst:   66000001 cyc:   43601299 now IPC :1.50290: AVG IPC :1.50164: L2-Pf-HR :0.44743: L2-HR :0.51588: (Sim:0h2m54s) 
CPU  0 inst:   67000003 cyc:   44267019 now IPC :1.50214: AVG IPC :1.50165: L2-Pf-HR :0.44709: L2-HR :0.51544: (Sim:0h2m56s) 
CPU  0 inst:   68000000 cyc:   44933655 now IPC :1.50006: AVG IPC :1.50163: L2-Pf-HR :0.44611: L2-HR :0.51475: (Sim:0h2m59s) 
CPU  0 inst:   69000002 cyc:   45605479 now IPC :1.48849: AVG IPC :1.50143: L2-Pf-HR :0.44535: L2-HR :0.51428: (Sim:0h3m2s) 
CPU  0 inst:   70000001 cyc:   46285805 now IPC :1.46988: AVG IPC :1.50095: L2-Pf-HR :0.44503: L2-HR :0.51417: (Sim:0h3m4s) 
CPU  0 inst:   71000000 cyc:   46956479 now IPC :1.49104: AVG IPC :1.50081: L2-Pf-HR :0.44467: L2-HR :0.51382: (Sim:0h3m7s) 
CPU  0 inst:   72000000 cyc:   47618469 now IPC :1.51060: AVG IPC :1.50095: L2-Pf-HR :0.44435: L2-HR :0.51344: (Sim:0h3m10s) 
CPU  0 inst:   73000001 cyc:   48289552 now IPC :1.49013: AVG IPC :1.50079: L2-Pf-HR :0.44399: L2-HR :0.51316: (Sim:0h3m12s) 
CPU  0 inst:   74000003 cyc:   48967555 now IPC :1.47492: AVG IPC :1.50043: L2-Pf-HR :0.44329: L2-HR :0.51275: (Sim:0h3m15s) 
CPU  0 inst:   75000000 cyc:   49657673 now IPC :1.44902: AVG IPC :1.49970: L2-Pf-HR :0.44251: L2-HR :0.51224: (Sim:0h3m18s) 
CPU  0 inst:   76000000 cyc:   50492765 now IPC :1.19747: AVG IPC :1.49460: L2-Pf-HR :0.44083: L2-HR :0.51142: (Sim:0h3m20s) 
CPU  0 inst:   77000002 cyc:   51142908 now IPC :1.53813: AVG IPC :1.49517: L2-Pf-HR :0.44097: L2-HR :0.51141: (Sim:0h3m23s) 
CPU  0 inst:   78000002 cyc:   51794492 now IPC :1.53472: AVG IPC :1.49567: L2-Pf-HR :0.44101: L2-HR :0.51132: (Sim:0h3m26s) 
CPU  0 inst:   79000003 cyc:   52445945 now IPC :1.53503: AVG IPC :1.49617: L2-Pf-HR :0.44076: L2-HR :0.51110: (Sim:0h3m28s) 
CPU  0 inst:   80000000 cyc:   53097043 now IPC :1.53586: AVG IPC :1.49667: L2-Pf-HR :0.44004: L2-HR :0.51063: (Sim:0h3m31s) 
CPU  0 inst:   81000001 cyc:   53753048 now IPC :1.52438: AVG IPC :1.49701: L2-Pf-HR :0.43949: L2-HR :0.51039: (Sim:0h3m34s) 
CPU  0 inst:   82000001 cyc:   54405022 now IPC :1.53380: AVG IPC :1.49746: L2-Pf-HR :0.43938: L2-HR :0.51043: (Sim:0h3m36s) 
CPU  0 inst:   83000002 cyc:   55055531 now IPC :1.53726: AVG IPC :1.49794: L2-Pf-HR :0.43924: L2-HR :0.51029: (Sim:0h3m39s) 
CPU  0 inst:   84000000 cyc:   55698123 now IPC :1.55619: AVG IPC :1.49862: L2-Pf-HR :0.43907: L2-HR :0.51005: (Sim:0h3m41s) 
CPU  0 inst:   85000002 cyc:   56343992 now IPC :1.54830: AVG IPC :1.49920: L2-Pf-HR :0.43876: L2-HR :0.50979: (Sim:0h3m44s) 
CPU  0 inst:   86000003 cyc:   56993980 now IPC :1.53849: AVG IPC :1.49966: L2-Pf-HR :0.43830: L2-HR :0.50949: (Sim:0h3m47s) 
CPU  0 inst:   87000002 cyc:   57729671 now IPC :1.35926: AVG IPC :1.49784: L2-Pf-HR :0.43685: L2-HR :0.50861: (Sim:0h3m49s) 
CPU  0 inst:   88000000 cyc:   58402403 now IPC :1.48647: AVG IPC :1.49771: L2-Pf-HR :0.43850: L2-HR :0.50974: (Sim:0h3m52s) 
CPU  0 inst:   89000003 cyc:   59049677 now IPC :1.54495: AVG IPC :1.49823: L2-Pf-HR :0.43999: L2-HR :0.51074: (Sim:0h3m55s) 
CPU  0 inst:   90000001 cyc:   59697993 now IPC :1.54245: AVG IPC :1.49872: L2-Pf-HR :0.44076: L2-HR :0.51126: (Sim:0h3m57s) 
CPU  0 inst:   91000001 cyc:   60348930 now IPC :1.53625: AVG IPC :1.49913: L2-Pf-HR :0.44141: L2-HR :0.51185: (Sim:0h4m0s) 
CPU  0 inst:   92000000 cyc:   60995457 now IPC :1.54672: AVG IPC :1.49965: L2-Pf-HR :0.44247: L2-HR :0.51260: (Sim:0h4m3s) 
CPU  0 inst:   93000002 cyc:   61628126 now IPC :1.58061: AVG IPC :1.50049: L2-Pf-HR :0.44455: L2-HR :0.51400: (Sim:0h4m5s) 
CPU  0 inst:   94000000 cyc:   62262948 now IPC :1.57524: AVG IPC :1.50126: L2-Pf-HR :0.44677: L2-HR :0.51558: (Sim:0h4m8s) 
CPU  0 inst:   95000002 cyc:   63080258 now IPC :1.22353: AVG IPC :1.49761: L2-Pf-HR :0.44745: L2-HR :0.51630: (Sim:0h4m10s) 
CPU  0 inst:   96000000 cyc:   63766610 now IPC :1.45698: AVG IPC :1.49717: L2-Pf-HR :0.44742: L2-HR :0.51618: (Sim:0h4m13s) 
CPU  0 inst:   97000003 cyc:   64428117 now IPC :1.51170: AVG IPC :1.49732: L2-Pf-HR :0.44733: L2-HR :0.51599: (Sim:0h4m16s) 
CPU  0 inst:   98000003 cyc:   65090174 now IPC :1.51044: AVG IPC :1.49745: L2-Pf-HR :0.44730: L2-HR :0.51579: (Sim:0h4m18s) 
CPU  0 inst:   99000000 cyc:   65752703 now IPC :1.50936: AVG IPC :1.49757: L2-Pf-HR :0.44676: L2-HR :0.51535: (Sim:0h4m21s) 
CPU  0 inst:  100000000 cyc:   66423760 now IPC :1.49019: AVG IPC :1.49750: L2-Pf-HR :0.44616: L2-HR :0.51492: (Sim:0h4m24s) 
CPU  0 inst:  101000000 cyc:   67104626 now IPC :1.46872: AVG IPC :1.49720: L2-Pf-HR :0.44566: L2-HR :0.51468: (Sim:0h4m26s) 
CPU  0 inst:  102000001 cyc:   67771278 now IPC :1.50003: AVG IPC :1.49723: L2-Pf-HR :0.44555: L2-HR :0.51455: (Sim:0h4m29s) 
CPU  0 inst:  103000001 cyc:   68439523 now IPC :1.49646: AVG IPC :1.49722: L2-Pf-HR :0.44535: L2-HR :0.51433: (Sim:0h4m32s) 
CPU  0 inst:  104000000 cyc:   69109106 now IPC :1.49347: AVG IPC :1.49719: L2-Pf-HR :0.44521: L2-HR :0.51418: (Sim:0h4m34s) 
CPU  0 inst:  105000003 cyc:   69779855 now IPC :1.49088: AVG IPC :1.49712: L2-Pf-HR :0.44480: L2-HR :0.51391: (Sim:0h4m37s) 
CPU  0 inst:  106000000 cyc:   70458414 now IPC :1.47371: AVG IPC :1.49690: L2-Pf-HR :0.44432: L2-HR :0.51361: (Sim:0h4m40s) 
CPU  0 inst:  107000000 cyc:   71309270 now IPC :1.17529: AVG IPC :1.49300: L2-Pf-HR :0.44284: L2-HR :0.51281: (Sim:0h4m42s) 
CPU  0 inst:  108000000 cyc:   71969539 now IPC :1.51453: AVG IPC :1.49320: L2-Pf-HR :0.44287: L2-HR :0.51278: (Sim:0h4m45s) 
CPU  0 inst:  109000001 cyc:   72620426 now IPC :1.53637: AVG IPC :1.49360: L2-Pf-HR :0.44287: L2-HR :0.51274: (Sim:0h4m48s) 
CPU  0 inst:  110000003 cyc:   73270112 now IPC :1.53921: AVG IPC :1.49401: L2-Pf-HR :0.44293: L2-HR :0.51267: (Sim:0h4m50s) 
CPU  0 inst:  111000001 cyc:   73920957 now IPC :1.53646: AVG IPC :1.49439: L2-Pf-HR :0.44250: L2-HR :0.51237: (Sim:0h4m53s) 
CPU  0 inst:  112000000 cyc:   74572637 now IPC :1.53449: AVG IPC :1.49474: L2-Pf-HR :0.44199: L2-HR :0.51210: (Sim:0h4m56s) 
CPU  0 inst:  113000000 cyc:   75228684 now IPC :1.52428: AVG IPC :1.49500: L2-Pf-HR :0.44170: L2-HR :0.51203: (Sim:0h4m58s) 
CPU  0 inst:  114000001 cyc:   75876543 now IPC :1.54355: AVG IPC :1.49542: L2-Pf-HR :0.44165: L2-HR :0.51197: (Sim:0h5m1s) 
CPU  0 inst:  115000001 cyc:   76523411 now IPC :1.54591: AVG IPC :1.49585: L2-Pf-HR :0.44140: L2-HR :0.51176: (Sim:0h5m3s) 
CPU  0 inst:  116000000 cyc:   77167497 now IPC :1.55259: AVG IPC :1.49633: L2-Pf-HR :0.44144: L2-HR :0.51170: (Sim:0h5m6s) 
CPU  0 inst:  117000003 cyc:   77812591 now IPC :1.55017: AVG IPC :1.49679: L2-Pf-HR :0.44106: L2-HR :0.51143: (Sim:0h5m9s) 
CPU  0 inst:  118000000 cyc:   78461335 now IPC :1.54144: AVG IPC :1.49716: L2-Pf-HR :0.44065: L2-HR :0.51114: (Sim:0h5m11s) 
CPU  0 inst:  119000000 cyc:   79222380 now IPC :1.31398: AVG IPC :1.49538: L2-Pf-HR :0.44032: L2-HR :0.51104: (Sim:0h5m14s) 
CPU  0 inst:  120000000 cyc:   79874728 now IPC :1.53292: AVG IPC :1.49569: L2-Pf-HR :0.44150: L2-HR :0.51182: (Sim:0h5m17s) 
CPU  0 inst:  121000001 cyc:   80528525 now IPC :1.52953: AVG IPC :1.49597: L2-Pf-HR :0.44237: L2-HR :0.51236: (Sim:0h5m19s) 
CPU  0 inst:  122000002 cyc:   81181487 now IPC :1.53148: AVG IPC :1.49626: L2-Pf-HR :0.44271: L2-HR :0.51264: (Sim:0h5m22s) 
CPU  0 inst:  123000000 cyc:   81836753 now IPC :1.52609: AVG IPC :1.49650: L2-Pf-HR :0.44341: L2-HR :0.51320: (Sim:0h5m24s) 
CPU  0 inst:  124000000 cyc:   82481898 now IPC :1.55004: AVG IPC :1.49692: L2-Pf-HR :0.44413: L2-HR :0.51368: (Sim:0h5m27s) 
CPU  0 inst:  125000000 cyc:   83113458 now IPC :1.58338: AVG IPC :1.49759: L2-Pf-HR :0.44598: L2-HR :0.51495: (Sim:0h5m30s) 
CPU  0 inst:  126000001 cyc:   83755116 now IPC :1.55846: AVG IPC :1.49806: L2-Pf-HR :0.44764: L2-HR :0.51614: (Sim:0h5m32s) 
CPU  0 inst:  127000001 cyc:   84603673 now IPC :1.17847: AVG IPC :1.49481: L2-Pf-HR :0.44740: L2-HR :0.51613: (Sim:0h5m35s) 
CPU  0 inst:  128000000 cyc:   85257675 now IPC :1.52905: AVG IPC :1.49508: L2-Pf-HR :0.44740: L2-HR :0.51604: (Sim:0h5m38s) 
CPU  0 inst:  129000002 cyc:   85918698 now IPC :1.51281: AVG IPC :1.49522: L2-Pf-HR :0.44734: L2-HR :0.51586: (Sim:0h5m40s) 
CPU  0 inst:  130000001 cyc:   86572327 now IPC :1.52992: AVG IPC :1.49548: L2-Pf-HR :0.44722: L2-HR :0.51567: (Sim:0h5m43s) 
CPU  0 inst:  131000002 cyc:   87237927 now IPC :1.50241: AVG IPC :1.49554: L2-Pf-HR :0.44673: L2-HR :0.51529: (Sim:0h5m46s) 
CPU  0 inst:  132000000 cyc:   87901011 now IPC :1.50810: AVG IPC :1.49563: L2-Pf-HR :0.44628: L2-HR :0.51500: (Sim:0h5m48s) 
CPU  0 inst:  133000002 cyc:   88565337 now IPC :1.50529: AVG IPC :1.49571: L2-Pf-HR :0.44611: L2-HR :0.51497: (Sim:0h5m51s) 
CPU  0 inst:  134000002 cyc:   89230153 now IPC :1.50418: AVG IPC :1.49577: L2-Pf-HR :0.44595: L2-HR :0.51479: (Sim:0h5m53s) 
CPU  0 inst:  135000003 cyc:   89882494 now IPC :1.53294: AVG IPC :1.49604: L2-Pf-HR :0.44577: L2-HR :0.51460: (Sim:0h5m56s) 
CPU  0 inst:  136000000 cyc:   90547179 now IPC :1.50447: AVG IPC :1.49611: L2-Pf-HR :0.44566: L2-HR :0.51449: (Sim:0h5m59s) 
CPU  0 inst:  137000001 cyc:   91219580 now IPC :1.48721: AVG IPC :1.49604: L2-Pf-HR :0.44527: L2-HR :0.51427: (Sim:0h6m1s) 
CPU  0 inst:  138000003 cyc:   91880840 now IPC :1.51227: AVG IPC :1.49616: L2-Pf-HR :0.44487: L2-HR :0.51401: (Sim:0h6m4s) 
CPU  0 inst:  139000001 cyc:   92727381 now IPC :1.18128: AVG IPC :1.49325: L2-Pf-HR :0.44385: L2-HR :0.51348: (Sim:0h6m7s) 
CPU  0 inst:  140000000 cyc:   93369494 now IPC :1.55736: AVG IPC :1.49370: L2-Pf-HR :0.44384: L2-HR :0.51343: (Sim:0h6m9s) 
CPU  0 inst:  141000002 cyc:   94012693 now IPC :1.55473: AVG IPC :1.49412: L2-Pf-HR :0.44386: L2-HR :0.51337: (Sim:0h6m12s) 
CPU  0 inst:  142000001 cyc:   94657775 now IPC :1.55019: AVG IPC :1.49451: L2-Pf-HR :0.44378: L2-HR :0.51327: (Sim:0h6m15s) 
CPU  0 inst:  143000003 cyc:   95302083 now IPC :1.55206: AVG IPC :1.49490: L2-Pf-HR :0.44333: L2-HR :0.51298: (Sim:0h6m17s) 
CPU  0 inst:  144000000 cyc:   95947854 now IPC :1.54853: AVG IPC :1.49526: L2-Pf-HR :0.44302: L2-HR :0.51283: (Sim:0h6m20s) 
CPU  0 inst:  145000001 cyc:   96596681 now IPC :1.54124: AVG IPC :1.49558: L2-Pf-HR :0.44292: L2-HR :0.51284: (Sim:0h6m22s) 
CPU  0 inst:  146000000 cyc:   97240409 now IPC :1.55345: AVG IPC :1.49596: L2-Pf-HR :0.44279: L2-HR :0.51273: (Sim:0h6m25s) 
CPU  0 inst:  147000000 cyc:   97877945 now IPC :1.56854: AVG IPC :1.49644: L2-Pf-HR :0.44270: L2-HR :0.51259: (Sim:0h6m28s) 
CPU  0 inst:  148000000 cyc:   98520391 now IPC :1.55655: AVG IPC :1.49684: L2-Pf-HR :0.44259: L2-HR :0.51246: (Sim:0h6m30s) 
CPU  0 inst:  149000001 cyc:   99162961 now IPC :1.55625: AVG IPC :1.49722: L2-Pf-HR :0.44224: L2-HR :0.51223: (Sim:0h6m33s) 
CPU  0 inst:  150000002 cyc:   99817752 now IPC :1.52721: AVG IPC :1.49742: L2-Pf-HR :0.44184: L2-HR :0.51196: (Sim:0h6m36s) 
CPU  0 inst:  151000002 cyc:  100553750 now IPC :1.35870: AVG IPC :1.49640: L2-Pf-HR :0.44218: L2-HR :0.51225: (Sim:0h6m38s) 
CPU  0 inst:  152000000 cyc:  101193261 now IPC :1.56369: AVG IPC :1.49683: L2-Pf-HR :0.44308: L2-HR :0.51285: (Sim:0h6m41s) 
CPU  0 inst:  153000003 cyc:  101832872 now IPC :1.56345: AVG IPC :1.49725: L2-Pf-HR :0.44350: L2-HR :0.51313: (Sim:0h6m44s) 
CPU  0 inst:  154000003 cyc:  102476627 now IPC :1.55339: AVG IPC :1.49761: L2-Pf-HR :0.44389: L2-HR :0.51346: (Sim:0h6m46s) 
CPU  0 inst:  155000003 cyc:  103116458 now IPC :1.56291: AVG IPC :1.49801: L2-Pf-HR :0.44440: L2-HR :0.51384: (Sim:0h6m49s) 
CPU  0 inst:  156000000 cyc:  103744719 now IPC :1.59169: AVG IPC :1.49859: L2-Pf-HR :0.44556: L2-HR :0.51464: (Sim:0h6m51s) 
CPU  0 inst:  157000000 cyc:  104371763 now IPC :1.59478: AVG IPC :1.49917: L2-Pf-HR :0.44693: L2-HR :0.51560: (Sim:0h6m54s) 
CPU  0 inst:  158000001 cyc:  105155224 now IPC :1.27639: AVG IPC :1.49750: L2-Pf-HR :0.44753: L2-HR :0.51617: (Sim:0h6m57s) 
CPU  0 inst:  159000003 cyc:  105853556 now IPC :1.43199: AVG IPC :1.49706: L2-Pf-HR :0.44747: L2-HR :0.51610: (Sim:0h6m59s) 
CPU  0 inst:  160000000 cyc:  106523364 now IPC :1.49296: AVG IPC :1.49703: L2-Pf-HR :0.44743: L2-HR :0.51599: (Sim:0h7m2s) 
CPU  0 inst:  161000003 cyc:  107182516 now IPC :1.51711: AVG IPC :1.49716: L2-Pf-HR :0.44739: L2-HR :0.51586: (Sim:0h7m5s) 
CPU  0 inst:  162000002 cyc:  107851391 now IPC :1.49505: AVG IPC :1.49714: L2-Pf-HR :0.44714: L2-HR :0.51563: (Sim:0h7m7s) 
CPU  0 inst:  163000000 cyc:  108521174 now IPC :1.49302: AVG IPC :1.49712: L2-Pf-HR :0.44674: L2-HR :0.51534: (Sim:0h7m10s) 
CPU  0 inst:  164000000 cyc:  109191163 now IPC :1.49256: AVG IPC :1.49709: L2-Pf-HR :0.44645: L2-HR :0.51520: (Sim:0h7m13s) 
CPU  0 inst:  165000001 cyc:  109859983 now IPC :1.49517: AVG IPC :1.49708: L2-Pf-HR :0.44636: L2-HR :0.51512: (Sim:0h7m15s) 
CPU  0 inst:  166000000 cyc:  110523152 now IPC :1.50791: AVG IPC :1.49714: L2-Pf-HR :0.44623: L2-HR :0.51498: (Sim:0h7m18s) 
CPU  0 inst:  167000003 cyc:  111185460 now IPC :1.50988: AVG IPC :1.49722: L2-Pf-HR :0.44609: L2-HR :0.51482: (Sim:0h7m21s) 
CPU  0 inst:  168000000 cyc:  111854963 now IPC :1.49364: AVG IPC :1.49720: L2-Pf-HR :0.44584: L2-HR :0.51466: (Sim:0h7m23s) 
CPU  0 inst:  169000002 cyc:  112528911 now IPC :1.48380: AVG IPC :1.49712: L2-Pf-HR :0.44552: L2-HR :0.51446: (Sim:0h7m26s) 
CPU  0 inst:  170000002 cyc:  113362744 now IPC :1.19928: AVG IPC :1.49491: L2-Pf-HR :0.44457: L2-HR :0.51394: (Sim:0h7m29s) 
CPU  0 inst:  171000001 cyc:  114040413 now IPC :1.47565: AVG IPC :1.49479: L2-Pf-HR :0.44451: L2-HR :0.51388: (Sim:0h7m31s) 
CPU  0 inst:  172000000 cyc:  114688117 now IPC :1.54391: AVG IPC :1.49507: L2-Pf-HR :0.44451: L2-HR :0.51384: (Sim:0h7m34s) 
CPU  0 inst:  173000000 cyc:  115337695 now IPC :1.53946: AVG IPC :1.49532: L2-Pf-HR :0.44452: L2-HR :0.51380: (Sim:0h7m37s) 
CPU  0 inst:  174000001 cyc:  115986880 now IPC :1.54039: AVG IPC :1.49558: L2-Pf-HR :0.44428: L2-HR :0.51361: (Sim:0h7m39s) 
CPU  0 inst:  175000002 cyc:  116635460 now IPC :1.54183: AVG IPC :1.49584: L2-Pf-HR :0.44394: L2-HR :0.51343: (Sim:0h7m42s) 
CPU  0 inst:  176000000 cyc:  117287554 now IPC :1.53352: AVG IPC :1.49605: L2-Pf-HR :0.44371: L2-HR :0.51335: (Sim:0h7m45s) 
CPU  0 inst:  177000003 cyc:  117934904 now IPC :1.54476: AVG IPC :1.49632: L2-Pf-HR :0.44367: L2-HR :0.51333: (Sim:0h7m47s) 
CPU  0 inst:  178000002 cyc:  118576147 now IPC :1.55947: AVG IPC :1.49666: L2-Pf-HR :0.44356: L2-HR :0.51324: (Sim:0h7m50s) 
CPU  0 inst:  179000000 cyc:  119218645 now IPC :1.55642: AVG IPC :1.49699: L2-Pf-HR :0.44356: L2-HR :0.51317: (Sim:0h7m52s) 
CPU  0 inst:  180000000 cyc:  119862698 now IPC :1.55267: AVG IPC :1.49729: L2-Pf-HR :0.44330: L2-HR :0.51299: (Sim:0h7m55s) 
CPU  0 inst:  181000001 cyc:  120506065 now IPC :1.55432: AVG IPC :1.49760: L2-Pf-HR :0.44306: L2-HR :0.51282: (Sim:0h7m58s) 
CPU  0 inst:  182000000 cyc:  121262390 now IPC :1.32218: AVG IPC :1.49649: L2-Pf-HR :0.44260: L2-HR :0.51259: (Sim:0h8m0s) 
CPU  0 inst:  183000003 cyc:  121913528 now IPC :1.53578: AVG IPC :1.49671: L2-Pf-HR :0.44349: L2-HR :0.51318: (Sim:0h8m3s) 
CPU  0 inst:  184000000 cyc:  122566049 now IPC :1.53251: AVG IPC :1.49690: L2-Pf-HR :0.44401: L2-HR :0.51351: (Sim:0h8m6s) 
CPU  0 inst:  185000001 cyc:  123214975 now IPC :1.54101: AVG IPC :1.49713: L2-Pf-HR :0.44428: L2-HR :0.51372: (Sim:0h8m8s) 
CPU  0 inst:  186000001 cyc:  123869891 now IPC :1.52691: AVG IPC :1.49729: L2-Pf-HR :0.44467: L2-HR :0.51405: (Sim:0h8m11s) 
CPU  0 inst:  187000000 cyc:  124518595 now IPC :1.54153: AVG IPC :1.49752: L2-Pf-HR :0.44513: L2-HR :0.51437: (Sim:0h8m14s) 
CPU  0 inst:  188000000 cyc:  125151716 now IPC :1.57948: AVG IPC :1.49794: L2-Pf-HR :0.44633: L2-HR :0.51518: (Sim:0h8m16s) 
CPU  0 inst:  189000002 cyc:  125784250 now IPC :1.58095: AVG IPC :1.49836: L2-Pf-HR :0.44744: L2-HR :0.51598: (Sim:0h8m19s) 
CPU  0 inst:  190000001 cyc:  126624751 now IPC :1.18977: AVG IPC :1.49630: L2-Pf-HR :0.44741: L2-HR :0.51609: (Sim:0h8m22s) 
CPU  0 inst:  191000002 cyc:  127298830 now IPC :1.48351: AVG IPC :1.49623: L2-Pf-HR :0.44742: L2-HR :0.51603: (Sim:0h8m24s) 
CPU  0 inst:  192000000 cyc:  127963371 now IPC :1.50480: AVG IPC :1.49627: L2-Pf-HR :0.44737: L2-HR :0.51593: (Sim:0h8m27s) 
CPU  0 inst:  193000002 cyc:  128625371 now IPC :1.51058: AVG IPC :1.49635: L2-Pf-HR :0.44732: L2-HR :0.51581: (Sim:0h8m30s) 
CPU  0 inst:  194000000 cyc:  129295971 now IPC :1.49120: AVG IPC :1.49632: L2-Pf-HR :0.44699: L2-HR :0.51554: (Sim:0h8m33s) 
CPU  0 inst:  195000003 cyc:  129962070 now IPC :1.50128: AVG IPC :1.49635: L2-Pf-HR :0.44669: L2-HR :0.51536: (Sim:0h8m35s) 
CPU  0 inst:  196000000 cyc:  130640429 now IPC :1.47414: AVG IPC :1.49623: L2-Pf-HR :0.44652: L2-HR :0.51529: (Sim:0h8m38s) 
CPU  0 inst:  197000002 cyc:  131308612 now IPC :1.49660: AVG IPC :1.49623: L2-Pf-HR :0.44640: L2-HR :0.51518: (Sim:0h8m41s) 
CPU  0 inst:  198000001 cyc:  131980566 now IPC :1.48820: AVG IPC :1.49619: L2-Pf-HR :0.44627: L2-HR :0.51504: (Sim:0h8m43s) 
CPU  0 inst:  199000000 cyc:  132653848 now IPC :1.48526: AVG IPC :1.49614: L2-Pf-HR :0.44621: L2-HR :0.51499: (Sim:0h8m46s) 
CPU  0 inst:  200000000 cyc:  133325127 now IPC :1.48969: AVG IPC :1.49610: L2-Pf-HR :0.44595: L2-HR :0.51483: (Sim:0h8m49s) 
CPU  0 inst:  201000001 cyc:  134007717 now IPC :1.46501: AVG IPC :1.49594: L2-Pf-HR :0.44570: L2-HR :0.51467: (Sim:0h8m51s) 
CPU  0 inst:  202000001 cyc:  134856611 now IPC :1.17800: AVG IPC :1.49393: L2-Pf-HR :0.44496: L2-HR :0.51427: (Sim:0h8m54s) 
CPU  0 inst:  203000001 cyc:  135508466 now IPC :1.53408: AVG IPC :1.49412: L2-Pf-HR :0.44499: L2-HR :0.51425: (Sim:0h8m57s) 
CPU  0 inst:  204000000 cyc:  136159195 now IPC :1.53674: AVG IPC :1.49433: L2-Pf-HR :0.44499: L2-HR :0.51421: (Sim:0h9m0s) 
CPU  0 inst:  205000003 cyc:  136809259 now IPC :1.53831: AVG IPC :1.49454: L2-Pf-HR :0.44494: L2-HR :0.51414: (Sim:0h9m2s) 
CPU  0 inst:  206000000 cyc:  137459510 now IPC :1.53786: AVG IPC :1.49474: L2-Pf-HR :0.44466: L2-HR :0.51395: (Sim:0h9m5s) 
CPU  0 inst:  207000001 cyc:  138110452 now IPC :1.53624: AVG IPC :1.49494: L2-Pf-HR :0.44440: L2-HR :0.51382: (Sim:0h9m8s) 
CPU  0 inst:  208000000 cyc:  138764681 now IPC :1.52852: AVG IPC :1.49510: L2-Pf-HR :0.44432: L2-HR :0.51383: (Sim:0h9m10s) 
CPU  0 inst:  209000003 cyc:  139414345 now IPC :1.53926: AVG IPC :1.49531: L2-Pf-HR :0.44424: L2-HR :0.51376: (Sim:0h9m13s) 
CPU  0 inst:  210000003 cyc:  140058445 now IPC :1.55255: AVG IPC :1.49557: L2-Pf-HR :0.44415: L2-HR :0.51366: (Sim:0h9m16s) 
CPU  0 inst:  211000000 cyc:  140704817 now IPC :1.54709: AVG IPC :1.49581: L2-Pf-HR :0.44408: L2-HR :0.51358: (Sim:0h9m18s) 
CPU  0 inst:  212000000 cyc:  141352893 now IPC :1.54303: AVG IPC :1.49603: L2-Pf-HR :0.44386: L2-HR :0.51344: (Sim:0h9m21s) 
CPU  0 inst:  213000000 cyc:  142007252 now IPC :1.52821: AVG IPC :1.49618: L2-Pf-HR :0.44361: L2-HR :0.51326: (Sim:0h9m24s) 
CPU  0 inst:  214000000 cyc:  142769199 now IPC :1.31243: AVG IPC :1.49519: L2-Pf-HR :0.44374: L2-HR :0.51340: (Sim:0h9m26s) 
CPU  0 inst:  215000003 cyc:  143423518 now IPC :1.52831: AVG IPC :1.49534: L2-Pf-HR :0.44434: L2-HR :0.51381: (Sim:0h9m29s) 
CPU  0 inst:  216000000 cyc:  144078106 now IPC :1.52767: AVG IPC :1.49549: L2-Pf-HR :0.44468: L2-HR :0.51403: (Sim:0h9m32s) 
CPU  0 inst:  217000000 cyc:  144733603 now IPC :1.52556: AVG IPC :1.49563: L2-Pf-HR :0.44490: L2-HR :0.51422: (Sim:0h9m34s) 
CPU  0 inst:  218000002 cyc:  145386281 now IPC :1.53215: AVG IPC :1.49579: L2-Pf-HR :0.44528: L2-HR :0.51452: (Sim:0h9m37s) 
CPU  0 inst:  219000002 cyc:  146029065 now IPC :1.55573: AVG IPC :1.49606: L2-Pf-HR :0.44594: L2-HR :0.51497: (Sim:0h9m39s) 
CPU  0 inst:  220000000 cyc:  146667180 now IPC :1.56711: AVG IPC :1.49637: L2-Pf-HR :0.44696: L2-HR :0.51567: (Sim:0h9m42s) 
CPU  0 inst:  221000003 cyc:  147319116 now IPC :1.53390: AVG IPC :1.49654: L2-Pf-HR :0.44787: L2-HR :0.51635: (Sim:0h9m45s) 
CPU  0 inst:  222000001 cyc:  148171025 now IPC :1.17383: AVG IPC :1.49467: L2-Pf-HR :0.44745: L2-HR :0.51612: (Sim:0h9m47s) 
CPU  0 inst:  223000000 cyc:  148835649 now IPC :1.50461: AVG IPC :1.49471: L2-Pf-HR :0.44744: L2-HR :0.51606: (Sim:0h9m50s) 
CPU  0 inst:  224000000 cyc:  149509441 now IPC :1.48414: AVG IPC :1.49467: L2-Pf-HR :0.44741: L2-HR :0.51596: (Sim:0h9m53s) 
CPU  0 inst:  225000000 cyc:  150177163 now IPC :1.49763: AVG IPC :1.49468: L2-Pf-HR :0.44725: L2-HR :0.51580: (Sim:0h9m55s) 
CPU  0 inst:  226000000 cyc:  150843988 now IPC :1.49964: AVG IPC :1.49470: L2-Pf-HR :0.44698: L2-HR :0.51562: (Sim:0h9m58s) 
CPU  0 inst:  227000001 cyc:  151522309 now IPC :1.47423: AVG IPC :1.49461: L2-Pf-HR :0.44675: L2-HR :0.51548: (Sim:0h10m0s) 
CPU  0 inst:  228000000 cyc:  152189061 now IPC :1.49981: AVG IPC :1.49463: L2-Pf-HR :0.44667: L2-HR :0.51544: (Sim:0h10m3s) 
CPU  0 inst:  229000000 cyc:  152867230 now IPC :1.47456: AVG IPC :1.49454: L2-Pf-HR :0.44656: L2-HR :0.51533: (Sim:0h10m6s) 
CPU  0 inst:  230000003 cyc:  153537322 now IPC :1.49234: AVG IPC :1.49453: L2-Pf-HR :0.44648: L2-HR :0.51524: (Sim:0h10m8s) 
CPU  0 inst:  231000002 cyc:  154211441 now IPC :1.48342: AVG IPC :1.49448: L2-Pf-HR :0.44634: L2-HR :0.51514: (Sim:0h10m11s) 
CPU  0 inst:  232000000 cyc:  154894398 now IPC :1.46422: AVG IPC :1.49435: L2-Pf-HR :0.44611: L2-HR :0.51501: (Sim:0h10m13s) 
CPU  0 inst:  233000002 cyc:  155632843 now IPC :1.35420: AVG IPC :1.49368: L2-Pf-HR :0.44569: L2-HR :0.51472: (Sim:0h10m16s) 
CPU  0 inst:  234000000 cyc:  156396151 now IPC :1.31008: AVG IPC :1.49278: L2-Pf-HR :0.44537: L2-HR :0.51459: (Sim:0h10m20s) 
CPU  0 inst:  235000002 cyc:  157036943 now IPC :1.56057: AVG IPC :1.49306: L2-Pf-HR :0.44535: L2-HR :0.51455: (Sim:0h10m25s) 
CPU  0 inst:  236000000 cyc:  157675888 now IPC :1.56508: AVG IPC :1.49335: L2-Pf-HR :0.44536: L2-HR :0.51452: (Sim:0h10m29s) 
CPU  0 inst:  237000001 cyc:  158314345 now IPC :1.56628: AVG IPC :1.49365: L2-Pf-HR :0.44521: L2-HR :0.51441: (Sim:0h10m33s) 
CPU  0 inst:  238000000 cyc:  158955489 now IPC :1.55971: AVG IPC :1.49391: L2-Pf-HR :0.44495: L2-HR :0.51425: (Sim:0h10m38s) 
CPU  0 inst:  239000001 cyc:  159600379 now IPC :1.55065: AVG IPC :1.49415: L2-Pf-HR :0.44477: L2-HR :0.51418: (Sim:0h10m42s) 
CPU  0 inst:  240000000 cyc:  160240007 now IPC :1.56341: AVG IPC :1.49442: L2-Pf-HR :0.44474: L2-HR :0.51417: (Sim:0h10m46s) 
CPU  0 inst:  241000003 cyc:  160880801 now IPC :1.56057: AVG IPC :1.49469: L2-Pf-HR :0.44467: L2-HR :0.51410: (Sim:0h10m51s) 
CPU  0 inst:  242000003 cyc:  161515859 now IPC :1.57466: AVG IPC :1.49501: L2-Pf-HR :0.44463: L2-HR :0.51402: (Sim:0h10m55s) 
CPU  0 inst:  243000002 cyc:  162151822 now IPC :1.57242: AVG IPC :1.49531: L2-Pf-HR :0.44448: L2-HR :0.51392: (Sim:0h10m59s) 
CPU  0 inst:  244000000 cyc:  162786815 now IPC :1.57482: AVG IPC :1.49562: L2-Pf-HR :0.44428: L2-HR :0.51377: (Sim:0h11m4s) 
CPU  0 inst:  245000001 cyc:  163547043 now IPC :1.31540: AVG IPC :1.49478: L2-Pf-HR :0.44384: L2-HR :0.51352: (Sim:0h11m8s) 
CPU  0 inst:  246000002 cyc:  164199075 now IPC :1.53367: AVG IPC :1.49494: L2-Pf-HR :0.44451: L2-HR :0.51398: (Sim:0h11m12s) 
CPU  0 inst:  247000000 cyc:  164851289 now IPC :1.53324: AVG IPC :1.49509: L2-Pf-HR :0.44496: L2-HR :0.51426: (Sim:0h11m17s) 
CPU  0 inst:  248000000 cyc:  165505216 now IPC :1.52922: AVG IPC :1.49522: L2-Pf-HR :0.44517: L2-HR :0.51442: (Sim:0h11m21s) 
CPU  0 inst:  249000002 cyc:  166163812 now IPC :1.51838: AVG IPC :1.49532: L2-Pf-HR :0.44542: L2-HR :0.51464: (Sim:0h11m25s) 
CPU  0 inst:  250000002 cyc:  166813734 now IPC :1.53865: AVG IPC :1.49549: L2-Pf-HR :0.44575: L2-HR :0.51486: (Sim:0h11m28s) 
CPU  0 inst:  251000001 cyc:  167447250 now IPC :1.57849: AVG IPC :1.49580: L2-Pf-HR :0.44661: L2-HR :0.51543: (Sim:0h11m31s) 
CPU  0 inst:  252000000 cyc:  168085840 now IPC :1.56595: AVG IPC :1.49607: L2-Pf-HR :0.44743: L2-HR :0.51602: (Sim:0h11m34s) 
CPU  0 inst:  253000001 cyc:  168925286 now IPC :1.19126: AVG IPC :1.49455: L2-Pf-HR :0.44751: L2-HR :0.51616: (Sim:0h11m36s) 
CPU  0 inst:  254000000 cyc:  169588860 now IPC :1.50699: AVG IPC :1.49459: L2-Pf-HR :0.44750: L2-HR :0.51612: (Sim:0h11m39s) 
CPU  0 inst:  255000001 cyc:  170261735 now IPC :1.48616: AVG IPC :1.49456: L2-Pf-HR :0.44747: L2-HR :0.51605: (Sim:0h11m42s) 
CPU  0 inst:  256000000 cyc:  170923415 now IPC :1.51130: AVG IPC :1.49463: L2-Pf-HR :0.44746: L2-HR :0.51597: (Sim:0h11m44s) 
CPU  0 inst:  257000001 cyc:  171593146 now IPC :1.49314: AVG IPC :1.49462: L2-Pf-HR :0.44722: L2-HR :0.51579: (Sim:0h11m47s) 
CPU  0 inst:  258000002 cyc:  172268063 now IPC :1.48167: AVG IPC :1.49457: L2-Pf-HR :0.44698: L2-HR :0.51563: (Sim:0h11m50s) 
CPU  0 inst:  259000000 cyc:  172943175 now IPC :1.48123: AVG IPC :1.49452: L2-Pf-HR :0.44682: L2-HR :0.51557: (Sim:0h11m53s) 
CPU  0 inst:  260000000 cyc:  173616749 now IPC :1.48462: AVG IPC :1.49448: L2-Pf-HR :0.44676: L2-HR :0.51550: (Sim:0h11m55s) 
CPU  0 inst:  261000003 cyc:  174291224 now IPC :1.48264: AVG IPC :1.49443: L2-Pf-HR :0.44663: L2-HR :0.51538: (Sim:0h11m58s) 
CPU  0 inst:  262000000 cyc:  174956556 now IPC :1.50300: AVG IPC :1.49447: L2-Pf-HR :0.44659: L2-HR :0.51534: (Sim:0h12m1s) 
CPU  0 inst:  263000003 cyc:  175633451 now IPC :1.47734: AVG IPC :1.49440: L2-Pf-HR :0.44640: L2-HR :0.51522: (Sim:0h12m3s) 
CPU  0 inst:  264000000 cyc:  176305104 now IPC :1.48886: AVG IPC :1.49438: L2-Pf-HR :0.44618: L2-HR :0.51508: (Sim:0h12m6s) 
CPU  0 inst:  265000000 cyc:  177160420 now IPC :1.16916: AVG IPC :1.49280: L2-Pf-HR :0.44561: L2-HR :0.51477: (Sim:0h12m10s) 
CPU  0 inst:  266000003 cyc:  177811482 now IPC :1.53596: AVG IPC :1.49296: L2-Pf-HR :0.44561: L2-HR :0.51475: (Sim:0h12m13s) 
CPU  0 inst:  267000002 cyc:  178460890 now IPC :1.53986: AVG IPC :1.49313: L2-Pf-HR :0.44560: L2-HR :0.51472: (Sim:0h12m16s) 
CPU  0 inst:  268000000 cyc:  179110744 now IPC :1.53880: AVG IPC :1.49330: L2-Pf-HR :0.44560: L2-HR :0.51469: (Sim:0h12m18s) 
CPU  0 inst:  269000001 cyc:  179761769 now IPC :1.53604: AVG IPC :1.49345: L2-Pf-HR :0.44537: L2-HR :0.51453: (Sim:0h12m21s) 
CPU  0 inst:  270000001 cyc:  180413050 now IPC :1.53544: AVG IPC :1.49360: L2-Pf-HR :0.44517: L2-HR :0.51442: (Sim:0h12m24s) 
CPU  0 inst:  271000002 cyc:  181070039 now IPC :1.52210: AVG IPC :1.49371: L2-Pf-HR :0.44507: L2-HR :0.51441: (Sim:0h12m26s) 
CPU  0 inst:  272000000 cyc:  181720887 now IPC :1.53645: AVG IPC :1.49386: L2-Pf-HR :0.44501: L2-HR :0.51436: (Sim:0h12m29s) 
CPU  0 inst:  273000000 cyc:  182367545 now IPC :1.54641: AVG IPC :1.49405: L2-Pf-HR :0.44494: L2-HR :0.51427: (Sim:0h12m32s) 
CPU  0 inst:  274000003 cyc:  183014175 now IPC :1.54648: AVG IPC :1.49424: L2-Pf-HR :0.44491: L2-HR :0.51422: (Sim:0h12m35s) 
CPU  0 inst:  275000002 cyc:  183658812 now IPC :1.55126: AVG IPC :1.49444: L2-Pf-HR :0.44473: L2-HR :0.51411: (Sim:0h12m38s) 
CPU  0 inst:  276000000 cyc:  184303736 now IPC :1.55057: AVG IPC :1.49463: L2-Pf-HR :0.44455: L2-HR :0.51398: (Sim:0h12m40s) 
CPU  0 inst:  277000001 cyc:  185056496 now IPC :1.32845: AVG IPC :1.49395: L2-Pf-HR :0.44454: L2-HR :0.51402: (Sim:0h12m43s) 
CPU  0 inst:  278000000 cyc:  185704299 now IPC :1.54368: AVG IPC :1.49413: L2-Pf-HR :0.44499: L2-HR :0.51432: (Sim:0h12m46s) 
CPU  0 inst:  279000000 cyc:  186348436 now IPC :1.55246: AVG IPC :1.49433: L2-Pf-HR :0.44531: L2-HR :0.51452: (Sim:0h12m49s) 
CPU  0 inst:  280000000 cyc:  186993447 now IPC :1.55036: AVG IPC :1.49453: L2-Pf-HR :0.44545: L2-HR :0.51464: (Sim:0h12m52s) 
CPU  0 inst:  281000002 cyc:  187640575 now IPC :1.54529: AVG IPC :1.49470: L2-Pf-HR :0.44577: L2-HR :0.51488: (Sim:0h12m55s) 
CPU  0 inst:  282000002 cyc:  188278661 now IPC :1.56719: AVG IPC :1.49495: L2-Pf-HR :0.44617: L2-HR :0.51515: (Sim:0h12m57s) 
CPU  0 inst:  283000000 cyc:  188899234 now IPC :1.61141: AVG IPC :1.49533: L2-Pf-HR :0.44699: L2-HR :0.51571: (Sim:0h13m0s) 
CPU  0 inst:  284000000 cyc:  189532554 now IPC :1.57898: AVG IPC :1.49561: L2-Pf-HR :0.44769: L2-HR :0.51622: (Sim:0h13m3s) 
CPU  0 inst:  285000003 cyc:  190381755 now IPC :1.17758: AVG IPC :1.49419: L2-Pf-HR :0.44746: L2-HR :0.51613: (Sim:0h13m6s) 
CPU  0 inst:  286000000 cyc:  191050280 now IPC :1.49583: AVG IPC :1.49419: L2-Pf-HR :0.44746: L2-HR :0.51609: (Sim:0h13m9s) 
CPU  0 inst:  287000003 cyc:  191711473 now IPC :1.51242: AVG IPC :1.49426: L2-Pf-HR :0.44744: L2-HR :0.51601: (Sim:0h13m11s) 
CPU  0 inst:  288000000 cyc:  192380753 now IPC :1.49414: AVG IPC :1.49426: L2-Pf-HR :0.44735: L2-HR :0.51591: (Sim:0h13m14s) 
CPU  0 inst:  289000001 cyc:  193058277 now IPC :1.47596: AVG IPC :1.49419: L2-Pf-HR :0.44713: L2-HR :0.51574: (Sim:0h13m17s) 
CPU  0 inst:  290000000 cyc:  193726504 now IPC :1.49650: AVG IPC :1.49420: L2-Pf-HR :0.44696: L2-HR :0.51564: (Sim:0h13m20s) 
CPU  0 inst:  291000000 cyc:  194403814 now IPC :1.47643: AVG IPC :1.49414: L2-Pf-HR :0.44688: L2-HR :0.51561: (Sim:0h13m22s) 
CPU  0 inst:  292000000 cyc:  195074779 now IPC :1.49039: AVG IPC :1.49413: L2-Pf-HR :0.44680: L2-HR :0.51553: (Sim:0h13m25s) 
CPU  0 inst:  293000001 cyc:  195739459 now IPC :1.50448: AVG IPC :1.49416: L2-Pf-HR :0.44673: L2-HR :0.51546: (Sim:0h13m28s) 
CPU  0 inst:  294000002 cyc:  196417290 now IPC :1.47530: AVG IPC :1.49410: L2-Pf-HR :0.44664: L2-HR :0.51539: (Sim:0h13m31s) 
CPU  0 inst:  295000001 cyc:  197090459 now IPC :1.48551: AVG IPC :1.49407: L2-Pf-HR :0.44645: L2-HR :0.51527: (Sim:0h13m33s) 
CPU  0 inst:  296000000 cyc:  197782700 now IPC :1.44458: AVG IPC :1.49389: L2-Pf-HR :0.44624: L2-HR :0.51513: (Sim:0h13m36s) 
CPU  0 inst:  297000003 cyc:  198609255 now IPC :1.20984: AVG IPC :1.49270: L2-Pf-HR :0.44582: L2-HR :0.51492: (Sim:0h13m39s) 
CPU  0 inst:  298000000 cyc:  199248146 now IPC :1.56521: AVG IPC :1.49294: L2-Pf-HR :0.44582: L2-HR :0.51490: (Sim:0h13m42s) 
CPU  0 inst:  299000003 cyc:  199887215 now IPC :1.56478: AVG IPC :1.49317: L2-Pf-HR :0.44582: L2-HR :0.51487: (Sim:0h13m44s) 
CPU  0 inst:  300000000 cyc:  200528012 now IPC :1.56055: AVG IPC :1.49338: L2-Pf-HR :0.44572: L2-HR :0.51479: (Sim:0h13m47s) 
CPU  0 inst:  301000002 cyc:  201168575 now IPC :1.56113: AVG IPC :1.49360: L2-Pf-HR :0.44552: L2-HR :0.51466: (Sim:0h13m50s) 
CPU  0 inst:  302000001 cyc:  201812873 now IPC :1.55208: AVG IPC :1.49379: L2-Pf-HR :0.44537: L2-HR :0.51459: (Sim:0h13m53s) 
CPU  0 inst:  303000001 cyc:  202455852 now IPC :1.55526: AVG IPC :1.49399: L2-Pf-HR :0.44532: L2-HR :0.51458: (Sim:0h13m56s) 
CPU  0 inst:  304000000 cyc:  203095082 now IPC :1.56438: AVG IPC :1.49421: L2-Pf-HR :0.44527: L2-HR :0.51453: (Sim:0h13m59s) 
CPU  0 inst:  305000000 cyc:  203728780 now IPC :1.57804: AVG IPC :1.49447: L2-Pf-HR :0.44522: L2-HR :0.51446: (Sim:0h14m1s) 
CPU  0 inst:  306000000 cyc:  204366115 now IPC :1.56903: AVG IPC :1.49470: L2-Pf-HR :0.44510: L2-HR :0.51437: (Sim:0h14m5s) 
CPU  0 inst:  307000002 cyc:  205002667 now IPC :1.57097: AVG IPC :1.49494: L2-Pf-HR :0.44495: L2-HR :0.51426: (Sim:0h14m9s) 
CPU  0 inst:  308000000 cyc:  205737423 now IPC :1.36099: AVG IPC :1.49446: L2-Pf-HR :0.44453: L2-HR :0.51402: (Sim:0h14m14s) 
CPU  0 inst:  309000000 cyc:  206402861 now IPC :1.50277: AVG IPC :1.49449: L2-Pf-HR :0.44500: L2-HR :0.51434: (Sim:0h14m18s) 
CPU  0 inst:  310000001 cyc:  207052209 now IPC :1.54001: AVG IPC :1.49463: L2-Pf-HR :0.44542: L2-HR :0.51461: (Sim:0h14m22s) 
CPU  0 inst:  311000000 cyc:  207703182 now IPC :1.53616: AVG IPC :1.49476: L2-Pf-HR :0.44557: L2-HR :0.51472: (Sim:0h14m27s) 
CPU  0 inst:  312000000 cyc:  208355022 now IPC :1.53412: AVG IPC :1.49489: L2-Pf-HR :0.44578: L2-HR :0.51491: (Sim:0h14m31s) 
CPU  0 inst:  313000001 cyc:  209003321 now IPC :1.54250: AVG IPC :1.49503: L2-Pf-HR :0.44603: L2-HR :0.51508: (Sim:0h14m35s) 
CPU  0 inst:  314000000 cyc:  209636494 now IPC :1.57935: AVG IPC :1.49529: L2-Pf-HR :0.44667: L2-HR :0.51551: (Sim:0h14m39s) 
CPU  0 inst:  315000000 cyc:  210272400 now IPC :1.57256: AVG IPC :1.49552: L2-Pf-HR :0.44731: L2-HR :0.51596: (Sim:0h14m44s) 
CPU  0 inst:  316000000 cyc:  211098706 now IPC :1.21021: AVG IPC :1.49440: L2-Pf-HR :0.44749: L2-HR :0.51616: (Sim:0h14m48s) 
CPU  0 inst:  317000001 cyc:  211773657 now IPC :1.48159: AVG IPC :1.49436: L2-Pf-HR :0.44749: L2-HR :0.51614: (Sim:0h14m53s) 
CPU  0 inst:  318000001 cyc:  212434446 now IPC :1.51334: AVG IPC :1.49442: L2-Pf-HR :0.44746: L2-HR :0.51607: (Sim:0h14m57s) 
CPU  0 inst:  319000000 cyc:  213098131 now IPC :1.50674: AVG IPC :1.49446: L2-Pf-HR :0.44745: L2-HR :0.51601: (Sim:0h15m1s) 
CPU  0 inst:  320000000 cyc:  213763031 now IPC :1.50399: AVG IPC :1.49449: L2-Pf-HR :0.44728: L2-HR :0.51587: (Sim:0h15m6s) 
CPU  0 inst:  321000002 cyc:  214427312 now IPC :1.50539: AVG IPC :1.49452: L2-Pf-HR :0.44709: L2-HR :0.51574: (Sim:0h15m10s) 
CPU  0 inst:  322000002 cyc:  215101932 now IPC :1.48232: AVG IPC :1.49448: L2-Pf-HR :0.44695: L2-HR :0.51568: (Sim:0h15m14s) 
CPU  0 inst:  323000003 cyc:  215765946 now IPC :1.50599: AVG IPC :1.49452: L2-Pf-HR :0.44691: L2-HR :0.51564: (Sim:0h15m19s) 
CPU  0 inst:  324000000 cyc:  216433193 now IPC :1.49869: AVG IPC :1.49453: L2-Pf-HR :0.44682: L2-HR :0.51554: (Sim:0h15m23s) 
CPU  0 inst:  325000002 cyc:  217104102 now IPC :1.49052: AVG IPC :1.49452: L2-Pf-HR :0.44678: L2-HR :0.51550: (Sim:0h15m27s) 
CPU  0 inst:  326000002 cyc:  217769485 now IPC :1.50289: AVG IPC :1.49455: L2-Pf-HR :0.44662: L2-HR :0.51540: (Sim:0h15m32s) 
CPU  0 inst:  327000000 cyc:  218443117 now IPC :1.48449: AVG IPC :1.49452: L2-Pf-HR :0.44646: L2-HR :0.51530: (Sim:0h15m36s) 
CPU  0 inst:  328000000 cyc:  219294484 now IPC :1.17458: AVG IPC :1.49327: L2-Pf-HR :0.44597: L2-HR :0.51503: (Sim:0h15m41s) 
CPU  0 inst:  329000000 cyc:  219942012 now IPC :1.54433: AVG IPC :1.49342: L2-Pf-HR :0.44596: L2-HR :0.51501: (Sim:0h15m45s) 
CPU  0 inst:  330000003 cyc:  220586781 now IPC :1.55095: AVG IPC :1.49359: L2-Pf-HR :0.44596: L2-HR :0.51499: (Sim:0h15m49s) 
CPU  0 inst:  331000003 cyc:  221233401 now IPC :1.54650: AVG IPC :1.49374: L2-Pf-HR :0.44596: L2-HR :0.51496: (Sim:0h15m54s) 
CPU  0 inst:  332000000 cyc:  221879064 now IPC :1.54879: AVG IPC :1.49390: L2-Pf-HR :0.44579: L2-HR :0.51484: (Sim:0h15m58s) 
CPU  0 inst:  333000003 cyc:  222525626 now IPC :1.54665: AVG IPC :1.49406: L2-Pf-HR :0.44562: L2-HR :0.51475: (Sim:0h16m2s) 
CPU  0 inst:  334000002 cyc:  223177539 now IPC :1.53395: AVG IPC :1.49417: L2-Pf-HR :0.44552: L2-HR :0.51473: (Sim:0h16m7s) 
CPU  0 inst:  335000003 cyc:  223822089 now IPC :1.55147: AVG IPC :1.49434: L2-Pf-HR :0.44549: L2-HR :0.51470: (Sim:0h16m11s) 
CPU  0 inst:  336000000 cyc:  224463509 now IPC :1.55904: AVG IPC :1.49453: L2-Pf-HR :0.44541: L2-HR :0.51462: (Sim:0h16m15s) 
CPU  0 inst:  337000000 cyc:  225104753 now IPC :1.55947: AVG IPC :1.49471: L2-Pf-HR :0.44540: L2-HR :0.51460: (Sim:0h16m19s) 
CPU  0 inst:  338000000 cyc:  225747544 now IPC :1.55572: AVG IPC :1.49489: L2-Pf-HR :0.44526: L2-HR :0.51450: (Sim:0h16m24s) 
CPU  0 inst:  339000001 cyc:  226392363 now IPC :1.55082: AVG IPC :1.49505: L2-Pf-HR :0.44511: L2-HR :0.51441: (Sim:0h16m28s) 
CPU  0 inst:  340000000 cyc:  227150025 now IPC :1.31985: AVG IPC :1.49446: L2-Pf-HR :0.44501: L2-HR :0.51437: (Sim:0h16m33s) 
CPU  0 inst:  341000002 cyc:  227803480 now IPC :1.53033: AVG IPC :1.49456: L2-Pf-HR :0.44542: L2-HR :0.51465: (Sim:0h16m36s) 
CPU  0 inst:  342000000 cyc:  228457030 now IPC :1.53010: AVG IPC :1.49466: L2-Pf-HR :0.44566: L2-HR :0.51480: (Sim:0h16m39s) 
CPU  0 inst:  343000001 cyc:  229110951 now IPC :1.52924: AVG IPC :1.49476: L2-Pf-HR :0.44581: L2-HR :0.51492: (Sim:0h16m42s) 
CPU  0 inst:  344000000 cyc:  229766584 now IPC :1.52524: AVG IPC :1.49485: L2-Pf-HR :0.44602: L2-HR :0.51509: (Sim:0h16m46s) 
CPU  0 inst:  345000003 cyc:  230412037 now IPC :1.54930: AVG IPC :1.49500: L2-Pf-HR :0.44632: L2-HR :0.51528: (Sim:0h16m50s) 
CPU  0 inst:  346000001 cyc:  231043794 now IPC :1.58288: AVG IPC :1.49525: L2-Pf-HR :0.44699: L2-HR :0.51575: (Sim:0h16m52s) 
CPU  0 inst:  347000002 cyc:  231687592 now IPC :1.55328: AVG IPC :1.49541: L2-Pf-HR :0.44759: L2-HR :0.51618: (Sim:0h16m55s) 
CPU  0 inst:  348000000 cyc:  232539115 now IPC :1.17436: AVG IPC :1.49423: L2-Pf-HR :0.44746: L2-HR :0.51615: (Sim:0h16m58s) 
CPU  0 inst:  349000001 cyc:  233205183 now IPC :1.50135: AVG IPC :1.49425: L2-Pf-HR :0.44746: L2-HR :0.51611: (Sim:0h17m1s) 
CPU  0 inst:  350000001 cyc:  233876389 now IPC :1.48986: AVG IPC :1.49423: L2-Pf-HR :0.44743: L2-HR :0.51604: (Sim:0h17m4s) 
CPU  0 inst:  351000002 cyc:  234543327 now IPC :1.49939: AVG IPC :1.49425: L2-Pf-HR :0.44738: L2-HR :0.51597: (Sim:0h17m7s) 
CPU  0 inst:  352000000 cyc:  235210768 now IPC :1.49826: AVG IPC :1.49426: L2-Pf-HR :0.44719: L2-HR :0.51582: (Sim:0h17m10s) 
CPU  0 inst:  353000003 cyc:  235883924 now IPC :1.48554: AVG IPC :1.49424: L2-Pf-HR :0.44704: L2-HR :0.51572: (Sim:0h17m13s) 
CPU  0 inst:  354000003 cyc:  236558271 now IPC :1.48292: AVG IPC :1.49420: L2-Pf-HR :0.44698: L2-HR :0.51571: (Sim:0h17m16s) 
CPU  0 inst:  355000001 cyc:  237235714 now IPC :1.47614: AVG IPC :1.49415: L2-Pf-HR :0.44691: L2-HR :0.51564: (Sim:0h17m19s) 
CPU  0 inst:  356000000 cyc:  237905308 now IPC :1.49344: AVG IPC :1.49415: L2-Pf-HR :0.44683: L2-HR :0.51556: (Sim:0h17m22s) 
CPU  0 inst:  357000002 cyc:  238571264 now IPC :1.50160: AVG IPC :1.49417: L2-Pf-HR :0.44676: L2-HR :0.51549: (Sim:0h17m25s) 
CPU  0 inst:  358000002 cyc:  239249722 now IPC :1.47393: AVG IPC :1.49411: L2-Pf-HR :0.44662: L2-HR :0.51541: (Sim:0h17m28s) 
CPU  0 inst:  359000002 cyc:  239924752 now IPC :1.48142: AVG IPC :1.49408: L2-Pf-HR :0.44646: L2-HR :0.51530: (Sim:0h17m33s) 
CPU  0 inst:  360000000 cyc:  240774986 now IPC :1.17614: AVG IPC :1.49295: L2-Pf-HR :0.44608: L2-HR :0.51510: (Sim:0h17m38s) 
CPU  0 inst:  361000000 cyc:  241424257 now IPC :1.54019: AVG IPC :1.49308: L2-Pf-HR :0.44608: L2-HR :0.51509: (Sim:0h17m43s) 
CPU  0 inst:  362000001 cyc:  242074671 now IPC :1.53748: AVG IPC :1.49320: L2-Pf-HR :0.44608: L2-HR :0.51506: (Sim:0h17m47s) 
CPU  0 inst:  363000003 cyc:  242723937 now IPC :1.54020: AVG IPC :1.49332: L2-Pf-HR :0.44603: L2-HR :0.51501: (Sim:0h17m50s) 
CPU  0 inst:  364000000 cyc:  243375470 now IPC :1.53484: AVG IPC :1.49344: L2-Pf-HR :0.44586: L2-HR :0.51490: (Sim:0h17m53s) 
CPU  0 inst:  365000000 cyc:  244030033 now IPC :1.52774: AVG IPC :1.49353: L2-Pf-HR :0.44573: L2-HR :0.51483: (Sim:0h17m56s) 
CPU  0 inst:  366000001 cyc:  244680785 now IPC :1.53669: AVG IPC :1.49364: L2-Pf-HR :0.44569: L2-HR :0.51483: (Sim:0h17m59s) 
CPU  0 inst:  367000003 cyc:  245329170 now IPC :1.54230: AVG IPC :1.49377: L2-Pf-HR :0.44564: L2-HR :0.51479: (Sim:0h18m2s) 
CPU  0 inst:  368000000 cyc:  245972774 now IPC :1.55375: AVG IPC :1.49393: L2-Pf-HR :0.44559: L2-HR :0.51473: (Sim:0h18m5s) 
CPU  0 inst:  369000000 cyc:  246616357 now IPC :1.55380: AVG IPC :1.49409: L2-Pf-HR :0.44552: L2-HR :0.51466: (Sim:0h18m9s) 
CPU  0 inst:  370000001 cyc:  247266355 now IPC :1.53847: AVG IPC :1.49420: L2-Pf-HR :0.44539: L2-HR :0.51458: (Sim:0h18m13s) 
CPU  0 inst:  371000001 cyc:  247951714 now IPC :1.45909: AVG IPC :1.49411: L2-Pf-HR :0.44520: L2-HR :0.51443: (Sim:0h18m18s) 
CPU  0 inst:  372000000 cyc:  248676715 now IPC :1.37931: AVG IPC :1.49377: L2-Pf-HR :0.44538: L2-HR :0.51460: (Sim:0h18m22s) 
CPU  0 inst:  373000003 cyc:  249329445 now IPC :1.53203: AVG IPC :1.49387: L2-Pf-HR :0.44572: L2-HR :0.51482: (Sim:0h18m27s) 
CPU  0 inst:  374000002 cyc:  249983008 now IPC :1.53007: AVG IPC :1.49397: L2-Pf-HR :0.44589: L2-HR :0.51494: (Sim:0h18m31s) 
CPU  0 inst:  375000001 cyc:  250639904 now IPC :1.52231: AVG IPC :1.49404: L2-Pf-HR :0.44603: L2-HR :0.51507: (Sim:0h18m35s) 
CPU  0 inst:  376000000 cyc:  251293176 now IPC :1.53075: AVG IPC :1.49414: L2-Pf-HR :0.44625: L2-HR :0.51522: (Sim:0h18m40s) 
CPU  0 inst:  377000002 cyc:  251929100 now IPC :1.57252: AVG IPC :1.49433: L2-Pf-HR :0.44674: L2-HR :0.51555: (Sim:0h18m44s) 
CPU  0 inst:  378000002 cyc:  252565511 now IPC :1.57131: AVG IPC :1.49453: L2-Pf-HR :0.44728: L2-HR :0.51594: (Sim:0h18m49s) 
CPU  0 inst:  379000003 cyc:  253376469 now IPC :1.23311: AVG IPC :1.49369: L2-Pf-HR :0.44749: L2-HR :0.51615: (Sim:0h18m53s) 
CPU  0 inst:  380000000 cyc:  254067314 now IPC :1.44750: AVG IPC :1.49356: L2-Pf-HR :0.44747: L2-HR :0.51613: (Sim:0h18m58s) 
CPU  0 inst:  381000000 cyc:  254733142 now IPC :1.50189: AVG IPC :1.49359: L2-Pf-HR :0.44746: L2-HR :0.51609: (Sim:0h19m2s) 
CPU  0 inst:  382000000 cyc:  255398883 now IPC :1.50209: AVG IPC :1.49361: L2-Pf-HR :0.44744: L2-HR :0.51603: (Sim:0h19m7s) 
CPU  0 inst:  383000000 cyc:  256057962 now IPC :1.51727: AVG IPC :1.49367: L2-Pf-HR :0.44733: L2-HR :0.51594: (Sim:0h19m11s) 
CPU  0 inst:  384000000 cyc:  256724332 now IPC :1.50067: AVG IPC :1.49369: L2-Pf-HR :0.44717: L2-HR :0.51583: (Sim:0h19m16s) 
CPU  0 inst:  385000003 cyc:  257394231 now IPC :1.49277: AVG IPC :1.49368: L2-Pf-HR :0.44703: L2-HR :0.51576: (Sim:0h19m20s) 
CPU  0 inst:  386000002 cyc:  258063574 now IPC :1.49400: AVG IPC :1.49369: L2-Pf-HR :0.44701: L2-HR :0.51573: (Sim:0h19m24s) 
CPU  0 inst:  387000000 cyc:  258735632 now IPC :1.48796: AVG IPC :1.49367: L2-Pf-HR :0.44694: L2-HR :0.51566: (Sim:0h19m28s) 
CPU  0 inst:  388000000 cyc:  259397218 now IPC :1.51152: AVG IPC :1.49372: L2-Pf-HR :0.44689: L2-HR :0.51561: (Sim:0h19m32s) 
CPU  0 inst:  389000002 cyc:  260063115 now IPC :1.50174: AVG IPC :1.49374: L2-Pf-HR :0.44679: L2-HR :0.51554: (Sim:0h19m37s) 
CPU  0 inst:  390000002 cyc:  260734614 now IPC :1.48921: AVG IPC :1.49372: L2-Pf-HR :0.44664: L2-HR :0.51544: (Sim:0h19m41s) 
CPU  0 inst:  391000001 cyc:  261577698 now IPC :1.18612: AVG IPC :1.49273: L2-Pf-HR :0.44622: L2-HR :0.51521: (Sim:0h19m46s) 
CPU  0 inst:  392000000 cyc:  262240120 now IPC :1.50961: AVG IPC :1.49277: L2-Pf-HR :0.44621: L2-HR :0.51520: (Sim:0h19m50s) 
CPU  0 inst:  393000003 cyc:  262883926 now IPC :1.55327: AVG IPC :1.49292: L2-Pf-HR :0.44619: L2-HR :0.51517: (Sim:0h19m55s) 
CPU  0 inst:  394000002 cyc:  263526957 now IPC :1.55513: AVG IPC :1.49307: L2-Pf-HR :0.44620: L2-HR :0.51515: (Sim:0h19m59s) 
CPU  0 inst:  395000002 cyc:  264171614 now IPC :1.55121: AVG IPC :1.49322: L2-Pf-HR :0.44608: L2-HR :0.51506: (Sim:0h20m3s) 
CPU  0 inst:  396000000 cyc:  264815953 now IPC :1.55198: AVG IPC :1.49336: L2-Pf-HR :0.44593: L2-HR :0.51498: (Sim:0h20m8s) 
CPU  0 inst:  397000001 cyc:  265465426 now IPC :1.53971: AVG IPC :1.49347: L2-Pf-HR :0.44583: L2-HR :0.51495: (Sim:0h20m12s) 
CPU  0 inst:  398000002 cyc:  266107529 now IPC :1.55738: AVG IPC :1.49363: L2-Pf-HR :0.44580: L2-HR :0.51492: (Sim:0h20m16s) 
CPU  0 inst:  399000000 cyc:  266747257 now IPC :1.56316: AVG IPC :1.49380: L2-Pf-HR :0.44573: L2-HR :0.51486: (Sim:0h20m21s) 
CPU  0 inst:  400000000 cyc:  267387668 now IPC :1.56150: AVG IPC :1.49396: L2-Pf-HR :0.44574: L2-HR :0.51484: (Sim:0h20m25s) 
CPU  0 inst:  401000000 cyc:  268027284 now IPC :1.56344: AVG IPC :1.49412: L2-Pf-HR :0.44562: L2-HR :0.51476: (Sim:0h20m29s) 
CPU  0 inst:  402000000 cyc:  268666789 now IPC :1.56371: AVG IPC :1.49429: L2-Pf-HR :0.44549: L2-HR :0.51466: (Sim:0h20m34s) 
CPU  0 inst:  403000002 cyc:  269418874 now IPC :1.32964: AVG IPC :1.49383: L2-Pf-HR :0.44533: L2-HR :0.51459: (Sim:0h20m38s) 
CPU  0 inst:  404000000 cyc:  270058644 now IPC :1.56306: AVG IPC :1.49399: L2-Pf-HR :0.44570: L2-HR :0.51484: (Sim:0h20m43s) 
CPU  0 inst:  405000003 cyc:  270699662 now IPC :1.56002: AVG IPC :1.49415: L2-Pf-HR :0.44593: L2-HR :0.51498: (Sim:0h20m47s) 
CPU  0 inst:  406000002 cyc:  271339378 now IPC :1.56319: AVG IPC :1.49431: L2-Pf-HR :0.44604: L2-HR :0.51507: (Sim:0h20m51s) 
CPU  0 inst:  407000000 cyc:  271983453 now IPC :1.55261: AVG IPC :1.49445: L2-Pf-HR :0.44623: L2-HR :0.51522: (Sim:0h20m56s) 
CPU  0 inst:  408000000 cyc:  272619185 now IPC :1.57299: AVG IPC :1.49464: L2-Pf-HR :0.44645: L2-HR :0.51537: (Sim:0h21m0s) 
CPU  0 inst:  409000000 cyc:  273246500 now IPC :1.59410: AVG IPC :1.49487: L2-Pf-HR :0.44701: L2-HR :0.51575: (Sim:0h21m4s) 
CPU  0 inst:  410000003 cyc:  273869663 now IPC :1.60472: AVG IPC :1.49512: L2-Pf-HR :0.44751: L2-HR :0.51612: (Sim:0h21m7s) 
CPU  0 inst:  411000002 cyc:  274711725 now IPC :1.18756: AVG IPC :1.49417: L2-Pf-HR :0.44744: L2-HR :0.51612: (Sim:0h21m11s) 
CPU  0 inst:  412000000 cyc:  275390719 now IPC :1.47276: AVG IPC :1.49412: L2-Pf-HR :0.44745: L2-HR :0.51609: (Sim:0h21m15s) 
CPU  0 inst:  413000001 cyc:  276062799 now IPC :1.48792: AVG IPC :1.49410: L2-Pf-HR :0.44743: L2-HR :0.51604: (Sim:0h21m20s) 
CPU  0 inst:  414000001 cyc:  276727297 now IPC :1.50490: AVG IPC :1.49413: L2-Pf-HR :0.44740: L2-HR :0.51599: (Sim:0h21m24s) 
CPU  0 inst:  415000003 cyc:  277400409 now IPC :1.48564: AVG IPC :1.49411: L2-Pf-HR :0.44724: L2-HR :0.51587: (Sim:0h21m28s) 
CPU  0 inst:  416000000 cyc:  278068517 now IPC :1.49676: AVG IPC :1.49411: L2-Pf-HR :0.44710: L2-HR :0.51578: (Sim:0h21m33s) 
CPU  0 inst:  417000003 cyc:  278757316 now IPC :1.45181: AVG IPC :1.49401: L2-Pf-HR :0.44703: L2-HR :0.51575: (Sim:0h21m37s) 
CPU  0 inst:  418000001 cyc:  279432901 now IPC :1.48020: AVG IPC :1.49398: L2-Pf-HR :0.44698: L2-HR :0.51570: (Sim:0h21m42s) 
CPU  0 inst:  419000002 cyc:  280097364 now IPC :1.50498: AVG IPC :1.49400: L2-Pf-HR :0.44691: L2-HR :0.51563: (Sim:0h21m46s) 
CPU  0 inst:  420000000 cyc:  280770943 now IPC :1.48460: AVG IPC :1.49398: L2-Pf-HR :0.44687: L2-HR :0.51559: (Sim:0h21m50s) 
CPU  0 inst:  421000001 cyc:  281445827 now IPC :1.48174: AVG IPC :1.49395: L2-Pf-HR :0.44674: L2-HR :0.51552: (Sim:0h21m54s) 
CPU  0 inst:  422000002 cyc:  282129152 now IPC :1.46343: AVG IPC :1.49388: L2-Pf-HR :0.44662: L2-HR :0.51543: (Sim:0h21m59s) 
CPU  0 inst:  423000001 cyc:  282979482 now IPC :1.17601: AVG IPC :1.49292: L2-Pf-HR :0.44626: L2-HR :0.51525: (Sim:0h22m2s) 
CPU  0 inst:  424000000 cyc:  283629845 now IPC :1.53760: AVG IPC :1.49302: L2-Pf-HR :0.44627: L2-HR :0.51523: (Sim:0h22m6s) 
CPU  0 inst:  425000001 cyc:  284277685 now IPC :1.54359: AVG IPC :1.49314: L2-Pf-HR :0.44627: L2-HR :0.51521: (Sim:0h22m10s) 
CPU  0 inst:  426000003 cyc:  284930251 now IPC :1.53242: AVG IPC :1.49323: L2-Pf-HR :0.44623: L2-HR :0.51517: (Sim:0h22m14s) 
CPU  0 inst:  427000000 cyc:  285581839 now IPC :1.53471: AVG IPC :1.49332: L2-Pf-HR :0.44609: L2-HR :0.51508: (Sim:0h22m19s) 
CPU  0 inst:  428000000 cyc:  286232844 now IPC :1.53609: AVG IPC :1.49342: L2-Pf-HR :0.44596: L2-HR :0.51501: (Sim:0h22m23s) 
CPU  0 inst:  429000000 cyc:  286889790 now IPC :1.52220: AVG IPC :1.49348: L2-Pf-HR :0.44592: L2-HR :0.51502: (Sim:0h22m28s) 
CPU  0 inst:  430000003 cyc:  287540063 now IPC :1.53782: AVG IPC :1.49359: L2-Pf-HR :0.44587: L2-HR :0.51497: (Sim:0h22m32s) 
CPU  0 inst:  431000001 cyc:  288184076 now IPC :1.55276: AVG IPC :1.49372: L2-Pf-HR :0.44583: L2-HR :0.51493: (Sim:0h22m37s) 
CPU  0 inst:  432000000 cyc:  288835618 now IPC :1.53482: AVG IPC :1.49381: L2-Pf-HR :0.44579: L2-HR :0.51488: (Sim:0h22m41s) 
CPU  0 inst:  433000003 cyc:  289484559 now IPC :1.54098: AVG IPC :1.49392: L2-Pf-HR :0.44566: L2-HR :0.51481: (Sim:0h22m45s) 
CPU  0 inst:  434000003 cyc:  290141219 now IPC :1.52286: AVG IPC :1.49398: L2-Pf-HR :0.44553: L2-HR :0.51471: (Sim:0h22m50s) 
CPU  0 inst:  435000000 cyc:  290882855 now IPC :1.34837: AVG IPC :1.49361: L2-Pf-HR :0.44560: L2-HR :0.51479: (Sim:0h22m55s) 
CPU  0 inst:  436000000 cyc:  291524636 now IPC :1.55816: AVG IPC :1.49375: L2-Pf-HR :0.44588: L2-HR :0.51498: (Sim:0h22m59s) 
CPU  0 inst:  437000003 cyc:  292163516 now IPC :1.56524: AVG IPC :1.49391: L2-Pf-HR :0.44605: L2-HR :0.51508: (Sim:0h23m4s) 
CPU  0 inst:  438000001 cyc:  292807341 now IPC :1.55321: AVG IPC :1.49404: L2-Pf-HR :0.44615: L2-HR :0.51517: (Sim:0h23m8s) 
CPU  0 inst:  439000003 cyc:  293446106 now IPC :1.56552: AVG IPC :1.49420: L2-Pf-HR :0.44634: L2-HR :0.51532: (Sim:0h23m13s) 
CPU  0 inst:  440000000 cyc:  294074850 now IPC :1.59047: AVG IPC :1.49440: L2-Pf-HR :0.44670: L2-HR :0.51556: (Sim:0h23m16s) 
CPU  0 inst:  441000000 cyc:  294701982 now IPC :1.59456: AVG IPC :1.49462: L2-Pf-HR :0.44719: L2-HR :0.51590: (Sim:0h23m19s) 
CPU  0 inst:  442000001 cyc:  295398509 now IPC :1.43570: AVG IPC :1.49448: L2-Pf-HR :0.44753: L2-HR :0.51617: (Sim:0h23m22s) 
CPU  0 inst:  443000000 cyc:  296185350 now IPC :1.27090: AVG IPC :1.49388: L2-Pf-HR :0.44740: L2-HR :0.51609: (Sim:0h23m26s) 
CPU  0 inst:  444000000 cyc:  296853312 now IPC :1.49709: AVG IPC :1.49389: L2-Pf-HR :0.44738: L2-HR :0.51605: (Sim:0h23m29s) 
CPU  0 inst:  445000000 cyc:  297517787 now IPC :1.50495: AVG IPC :1.49391: L2-Pf-HR :0.44737: L2-HR :0.51600: (Sim:0h23m32s) 
CPU  0 inst:  446000001 cyc:  298186620 now IPC :1.49514: AVG IPC :1.49392: L2-Pf-HR :0.44729: L2-HR :0.51592: (Sim:0h23m36s) 
CPU  0 inst:  447000002 cyc:  298850785 now IPC :1.50565: AVG IPC :1.49394: L2-Pf-HR :0.44714: L2-HR :0.51582: (Sim:0h23m40s) 
CPU  0 inst:  448000000 cyc:  299530653 now IPC :1.47087: AVG IPC :1.49389: L2-Pf-HR :0.44704: L2-HR :0.51576: (Sim:0h23m45s) 
CPU  0 inst:  449000002 cyc:  300205940 now IPC :1.48085: AVG IPC :1.49386: L2-Pf-HR :0.44699: L2-HR :0.51573: (Sim:0h23m49s) 
CPU  0 inst:  450000001 cyc:  300869737 now IPC :1.50648: AVG IPC :1.49389: L2-Pf-HR :0.44694: L2-HR :0.51568: (Sim:0h23m52s) 
CPU  0 inst:  451000003 cyc:  301540057 now IPC :1.49183: AVG IPC :1.49388: L2-Pf-HR :0.44691: L2-HR :0.51564: (Sim:0h23m55s) 
CPU  0 inst:  452000000 cyc:  302207875 now IPC :1.49741: AVG IPC :1.49389: L2-Pf-HR :0.44681: L2-HR :0.51558: (Sim:0h23m58s) 
CPU  0 inst:  453000002 cyc:  302884883 now IPC :1.47709: AVG IPC :1.49385: L2-Pf-HR :0.44670: L2-HR :0.51551: (Sim:0h24m3s) 
CPU  0 inst:  454000002 cyc:  303709442 now IPC :1.21277: AVG IPC :1.49309: L2-Pf-HR :0.44635: L2-HR :0.51531: (Sim:0h24m6s) 
CPU  0 inst:  455000002 cyc:  304398267 now IPC :1.45175: AVG IPC :1.49299: L2-Pf-HR :0.44632: L2-HR :0.51529: (Sim:0h24m9s) 
CPU  0 inst:  456000000 cyc:  305049199 now IPC :1.53626: AVG IPC :1.49309: L2-Pf-HR :0.44631: L2-HR :0.51527: (Sim:0h24m12s) 
CPU  0 inst:  457000000 cyc:  305700946 now IPC :1.53434: AVG IPC :1.49318: L2-Pf-HR :0.44632: L2-HR :0.51525: (Sim:0h24m15s) 
CPU  0 inst:  458000002 cyc:  306351723 now IPC :1.53663: AVG IPC :1.49327: L2-Pf-HR :0.44623: L2-HR :0.51518: (Sim:0h24m18s) 
CPU  0 inst:  459000003 cyc:  307002124 now IPC :1.53751: AVG IPC :1.49336: L2-Pf-HR :0.44610: L2-HR :0.51511: (Sim:0h24m22s) 
CPU  0 inst:  460000000 cyc:  307659953 now IPC :1.52015: AVG IPC :1.49342: L2-Pf-HR :0.44599: L2-HR :0.51507: (Sim:0h24m25s) 
CPU  0 inst:  461000000 cyc:  308311812 now IPC :1.53407: AVG IPC :1.49351: L2-Pf-HR :0.44598: L2-HR :0.51506: (Sim:0h24m29s) 
CPU  0 inst:  462000000 cyc:  308961231 now IPC :1.53984: AVG IPC :1.49360: L2-Pf-HR :0.44594: L2-HR :0.51502: (Sim:0h24m33s) 
CPU  0 inst:  463000001 cyc:  309608450 now IPC :1.54507: AVG IPC :1.49371: L2-Pf-HR :0.44592: L2-HR :0.51498: (Sim:0h24m37s) 
CPU  0 inst:  464000000 cyc:  310254391 now IPC :1.54813: AVG IPC :1.49383: L2-Pf-HR :0.44583: L2-HR :0.51492: (Sim:0h24m41s) 
CPU  0 inst:  465000001 cyc:  310900596 now IPC :1.54750: AVG IPC :1.49394: L2-Pf-HR :0.44572: L2-HR :0.51484: (Sim:0h24m45s) 
CPU  0 inst:  466000001 cyc:  311663867 now IPC :1.31015: AVG IPC :1.49349: L2-Pf-HR :0.44552: L2-HR :0.51473: (Sim:0h24m50s) 
CPU  0 inst:  467000001 cyc:  312316260 now IPC :1.53282: AVG IPC :1.49357: L2-Pf-HR :0.44585: L2-HR :0.51495: (Sim:0h24m54s) 
CPU  0 inst:  468000000 cyc:  312968308 now IPC :1.53363: AVG IPC :1.49365: L2-Pf-HR :0.44608: L2-HR :0.51510: (Sim:0h24m59s) 
CPU  0 inst:  469000000 cyc:  313620551 now IPC :1.53317: AVG IPC :1.49373: L2-Pf-HR :0.44616: L2-HR :0.51517: (Sim:0h25m3s) 
CPU  0 inst:  470000002 cyc:  314276174 now IPC :1.52527: AVG IPC :1.49380: L2-Pf-HR :0.44632: L2-HR :0.51530: (Sim:0h25m7s) 
CPU  0 inst:  471000001 cyc:  314926850 now IPC :1.53686: AVG IPC :1.49389: L2-Pf-HR :0.44648: L2-HR :0.51541: (Sim:0h25m12s) 
CPU  0 inst:  472000000 cyc:  315558041 now IPC :1.58430: AVG IPC :1.49407: L2-Pf-HR :0.44696: L2-HR :0.51573: (Sim:0h25m16s) 
CPU  0 inst:  473000003 cyc:  316195880 now IPC :1.56780: AVG IPC :1.49422: L2-Pf-HR :0.44739: L2-HR :0.51604: (Sim:0h25m20s) 
CPU  0 inst:  474000003 cyc:  317042241 now IPC :1.18153: AVG IPC :1.49338: L2-Pf-HR :0.44741: L2-HR :0.51609: (Sim:0h25m25s) 
CPU  0 inst:  475000002 cyc:  317716155 now IPC :1.48387: AVG IPC :1.49336: L2-Pf-HR :0.44740: L2-HR :0.51607: (Sim:0h25m29s) 
CPU  0 inst:  476000000 cyc:  318376150 now IPC :1.51516: AVG IPC :1.49341: L2-Pf-HR :0.44739: L2-HR :0.51604: (Sim:0h25m34s) 
CPU  0 inst:  477000001 cyc:  319042707 now IPC :1.50025: AVG IPC :1.49342: L2-Pf-HR :0.44737: L2-HR :0.51598: (Sim:0h25m38s) 
CPU  0 inst:  478000001 cyc:  319712413 now IPC :1.49319: AVG IPC :1.49342: L2-Pf-HR :0.44724: L2-HR :0.51588: (Sim:0h25m43s) 
CPU  0 inst:  479000000 cyc:  320383297 now IPC :1.49057: AVG IPC :1.49342: L2-Pf-HR :0.44713: L2-HR :0.51581: (Sim:0h25m47s) 
CPU  0 inst:  480000000 cyc:  321065419 now IPC :1.46601: AVG IPC :1.49336: L2-Pf-HR :0.44705: L2-HR :0.51577: (Sim:0h25m52s) 
CPU  0 inst:  481000003 cyc:  321735619 now IPC :1.49210: AVG IPC :1.49335: L2-Pf-HR :0.44701: L2-HR :0.51574: (Sim:0h25m56s) 
CPU  0 inst:  482000002 cyc:  322406814 now IPC :1.48988: AVG IPC :1.49335: L2-Pf-HR :0.44694: L2-HR :0.51566: (Sim:0h26m0s) 
CPU  0 inst:  483000001 cyc:  323072222 now IPC :1.50284: AVG IPC :1.49337: L2-Pf-HR :0.44692: L2-HR :0.51564: (Sim:0h26m4s) 
CPU  0 inst:  484000000 cyc:  323755064 now IPC :1.46447: AVG IPC :1.49331: L2-Pf-HR :0.44681: L2-HR :0.51558: (Sim:0h26m8s) 
CPU  0 inst:  485000002 cyc:  324438688 now IPC :1.46280: AVG IPC :1.49324: L2-Pf-HR :0.44670: L2-HR :0.51551: (Sim:0h26m12s) 
CPU  0 inst:  486000001 cyc:  325288551 now IPC :1.17666: AVG IPC :1.49241: L2-Pf-HR :0.44638: L2-HR :0.51534: (Sim:0h26m17s) 
CPU  0 inst:  487000001 cyc:  325941769 now IPC :1.53088: AVG IPC :1.49249: L2-Pf-HR :0.44639: L2-HR :0.51533: (Sim:0h26m21s) 
CPU  0 inst:  488000000 cyc:  326595159 now IPC :1.53048: AVG IPC :1.49257: L2-Pf-HR :0.44638: L2-HR :0.51531: (Sim:0h26m26s) 
CPU  0 inst:  489000002 cyc:  327246263 now IPC :1.53586: AVG IPC :1.49265: L2-Pf-HR :0.44636: L2-HR :0.51528: (Sim:0h26m30s) 
CPU  0 inst:  490000001 cyc:  327897376 now IPC :1.53583: AVG IPC :1.49274: L2-Pf-HR :0.44624: L2-HR :0.51520: (Sim:0h26m34s) 
CPU  0 inst:  491000000 cyc:  328550284 now IPC :1.53161: AVG IPC :1.49282: L2-Pf-HR :0.44613: L2-HR :0.51514: (Sim:0h26m39s) 
CPU  0 inst:  492000000 cyc:  329208562 now IPC :1.51911: AVG IPC :1.49287: L2-Pf-HR :0.44608: L2-HR :0.51514: (Sim:0h26m43s) 
CPU  0 inst:  493000003 cyc:  329859533 now IPC :1.53617: AVG IPC :1.49295: L2-Pf-HR :0.44605: L2-HR :0.51511: (Sim:0h26m47s) 
CPU  0 inst:  494000000 cyc:  330509747 now IPC :1.53795: AVG IPC :1.49304: L2-Pf-HR :0.44600: L2-HR :0.51506: (Sim:0h26m51s) 
CPU  0 inst:  495000002 cyc:  331157183 now IPC :1.54456: AVG IPC :1.49314: L2-Pf-HR :0.44598: L2-HR :0.51502: (Sim:0h26m54s) 
CPU  0 inst:  496000000 cyc:  331804571 now IPC :1.54467: AVG IPC :1.49324: L2-Pf-HR :0.44588: L2-HR :0.51496: (Sim:0h26m58s) 
CPU  0 inst:  497000003 cyc:  332450790 now IPC :1.54747: AVG IPC :1.49335: L2-Pf-HR :0.44577: L2-HR :0.51488: (Sim:0h27m3s) 
CPU  0 inst:  498000003 cyc:  333207398 now IPC :1.32169: AVG IPC :1.49296: L2-Pf-HR :0.44579: L2-HR :0.51492: (Sim:0h27m7s) 
CPU  0 inst:  499000000 cyc:  333848330 now IPC :1.56022: AVG IPC :1.49309: L2-Pf-HR :0.44605: L2-HR :0.51509: (Sim:0h27m11s) 
CPU  0 inst:  500000000 cyc:  334488497 now IPC :1.56209: AVG IPC :1.49322: L2-Pf-HR :0.44618: L2-HR :0.51517: (Sim:0h27m15s) 
CPU  0 inst:  501000001 cyc:  335129612 now IPC :1.55978: AVG IPC :1.49335: L2-Pf-HR :0.44629: L2-HR :0.51526: (Sim:0h27m19s) 
CPU  0 inst:  502000003 cyc:  335769850 now IPC :1.56192: AVG IPC :1.49348: L2-Pf-HR :0.44644: L2-HR :0.51538: (Sim:0h27m23s) 
CPU  0 inst:  503000000 cyc:  336402164 now IPC :1.58149: AVG IPC :1.49365: L2-Pf-HR :0.44672: L2-HR :0.51556: (Sim:0h27m28s) 
CPU  0 inst:  504000000 cyc:  337028082 now IPC :1.59765: AVG IPC :1.49384: L2-Pf-HR :0.44717: L2-HR :0.51588: (Sim:0h27m32s) 
CPU  0 inst:  505000000 cyc:  337662583 now IPC :1.57604: AVG IPC :1.49399: L2-Pf-HR :0.44756: L2-HR :0.51617: (Sim:0h27m36s) 
CPU  0 inst:  506000003 cyc:  338510346 now IPC :1.17958: AVG IPC :1.49320: L2-Pf-HR :0.44742: L2-HR :0.51609: (Sim:0h27m40s) 
CPU  0 inst:  507000003 cyc:  339176501 now IPC :1.50115: AVG IPC :1.49322: L2-Pf-HR :0.44741: L2-HR :0.51606: (Sim:0h27m44s) 
CPU  0 inst:  508000000 cyc:  339842843 now IPC :1.50073: AVG IPC :1.49324: L2-Pf-HR :0.44740: L2-HR :0.51602: (Sim:0h27m49s) 
CPU  0 inst:  509000003 cyc:  340500738 now IPC :1.52000: AVG IPC :1.49329: L2-Pf-HR :0.44734: L2-HR :0.51596: (Sim:0h27m53s) 
CPU  0 inst:  510000000 cyc:  341170677 now IPC :1.49267: AVG IPC :1.49329: L2-Pf-HR :0.44721: L2-HR :0.51586: (Sim:0h27m57s) 
CPU  0 inst:  511000001 cyc:  341843829 now IPC :1.48555: AVG IPC :1.49327: L2-Pf-HR :0.44711: L2-HR :0.51580: (Sim:0h28m0s) 
CPU  0 inst:  512000000 cyc:  342510036 now IPC :1.50103: AVG IPC :1.49329: L2-Pf-HR :0.44706: L2-HR :0.51578: (Sim:0h28m3s) 
CPU  0 inst:  513000002 cyc:  343183379 now IPC :1.48513: AVG IPC :1.49327: L2-Pf-HR :0.44702: L2-HR :0.51573: (Sim:0h28m7s) 
CPU  0 inst:  514000001 cyc:  343845511 now IPC :1.51027: AVG IPC :1.49330: L2-Pf-HR :0.44697: L2-HR :0.51569: (Sim:0h28m10s) 
CPU  0 inst:  515000002 cyc:  344517873 now IPC :1.48730: AVG IPC :1.49329: L2-Pf-HR :0.44691: L2-HR :0.51564: (Sim:0h28m14s) 
CPU  0 inst:  516000000 cyc:  345200115 now IPC :1.46575: AVG IPC :1.49324: L2-Pf-HR :0.44681: L2-HR :0.51558: (Sim:0h28m19s) 
CPU  0 inst:  517000001 cyc:  345888867 now IPC :1.45190: AVG IPC :1.49315: L2-Pf-HR :0.44668: L2-HR :0.51549: (Sim:0h28m24s) 
CPU  0 inst:  518000003 cyc:  346714359 now IPC :1.21140: AVG IPC :1.49248: L2-Pf-HR :0.44647: L2-HR :0.51538: (Sim:0h28m27s) 
CPU  0 inst:  519000002 cyc:  347367305 now IPC :1.53152: AVG IPC :1.49255: L2-Pf-HR :0.44646: L2-HR :0.51537: (Sim:0h28m32s) 
CPU  0 inst:  520000000 cyc:  348018381 now IPC :1.53592: AVG IPC :1.49264: L2-Pf-HR :0.44646: L2-HR :0.51535: (Sim:0h28m36s) 
CPU  0 inst:  521000002 cyc:  348668724 now IPC :1.53765: AVG IPC :1.49272: L2-Pf-HR :0.44640: L2-HR :0.51530: (Sim:0h28m41s) 
CPU  0 inst:  522000001 cyc:  349319413 now IPC :1.53683: AVG IPC :1.49280: L2-Pf-HR :0.44628: L2-HR :0.51523: (Sim:0h28m46s) 
CPU  0 inst:  523000001 cyc:  349976458 now IPC :1.52197: AVG IPC :1.49286: L2-Pf-HR :0.44619: L2-HR :0.51519: (Sim:0h28m50s) 
CPU  0 inst:  524000000 cyc:  350627676 now IPC :1.53558: AVG IPC :1.49294: L2-Pf-HR :0.44617: L2-HR :0.51518: (Sim:0h28m55s) 
CPU  0 inst:  525000002 cyc:  351278940 now IPC :1.53548: AVG IPC :1.49302: L2-Pf-HR :0.44613: L2-HR :0.51515: (Sim:0h28m59s) 
CPU  0 inst:  526000002 cyc:  351915769 now IPC :1.57028: AVG IPC :1.49316: L2-Pf-HR :0.44610: L2-HR :0.51511: (Sim:0h29m4s) 
CPU  0 inst:  527000002 cyc:  352560197 now IPC :1.55176: AVG IPC :1.49326: L2-Pf-HR :0.44604: L2-HR :0.51505: (Sim:0h29m8s) 
CPU  0 inst:  528000000 cyc:  353210166 now IPC :1.53853: AVG IPC :1.49335: L2-Pf-HR :0.44594: L2-HR :0.51498: (Sim:0h29m11s) 
CPU  0 inst:  529000003 cyc:  353965162 now IPC :1.32451: AVG IPC :1.49299: L2-Pf-HR :0.44570: L2-HR :0.51485: (Sim:0h29m15s) 
CPU  0 inst:  530000003 cyc:  354621844 now IPC :1.52281: AVG IPC :1.49304: L2-Pf-HR :0.44602: L2-HR :0.51506: (Sim:0h29m20s) 
CPU  0 inst:  531000003 cyc:  355274281 now IPC :1.53272: AVG IPC :1.49311: L2-Pf-HR :0.44623: L2-HR :0.51520: (Sim:0h29m24s) 
CPU  0 inst:  532000000 cyc:  355926811 now IPC :1.53249: AVG IPC :1.49319: L2-Pf-HR :0.44633: L2-HR :0.51526: (Sim:0h29m27s) 
CPU  0 inst:  533000000 cyc:  356581935 now IPC :1.52643: AVG IPC :1.49325: L2-Pf-HR :0.44644: L2-HR :0.51537: (Sim:0h29m30s) 
CPU  0 inst:  534000000 cyc:  357232544 now IPC :1.53702: AVG IPC :1.49333: L2-Pf-HR :0.44659: L2-HR :0.51547: (Sim:0h29m34s) 
CPU  0 inst:  535000000 cyc:  357860796 now IPC :1.59172: AVG IPC :1.49350: L2-Pf-HR :0.44697: L2-HR :0.51573: (Sim:0h29m38s) 
CPU  0 inst:  536000000 cyc:  358499413 now IPC :1.56588: AVG IPC :1.49363: L2-Pf-HR :0.44736: L2-HR :0.51600: (Sim:0h29m43s) 
CPU  0 inst:  537000002 cyc:  359333545 now IPC :1.19885: AVG IPC :1.49294: L2-Pf-HR :0.44742: L2-HR :0.51609: (Sim:0h29m48s) 
CPU  0 inst:  538000002 cyc:  360003630 now IPC :1.49235: AVG IPC :1.49294: L2-Pf-HR :0.44743: L2-HR :0.51608: (Sim:0h29m51s) 
CPU  0 inst:  539000002 cyc:  360670803 now IPC :1.49886: AVG IPC :1.49295: L2-Pf-HR :0.44742: L2-HR :0.51605: (Sim:0h29m55s) 
CPU  0 inst:  540000000 cyc:  361338291 now IPC :1.49815: AVG IPC :1.49296: L2-Pf-HR :0.44741: L2-HR :0.51601: (Sim:0h29m58s) 
CPU  0 inst:  541000002 cyc:  362011768 now IPC :1.48483: AVG IPC :1.49295: L2-Pf-HR :0.44730: L2-HR :0.51592: (Sim:0h30m3s) 
CPU  0 inst:  542000000 cyc:  362677100 now IPC :1.50301: AVG IPC :1.49297: L2-Pf-HR :0.44719: L2-HR :0.51585: (Sim:0h30m7s) 
CPU  0 inst:  543000003 cyc:  363355983 now IPC :1.47301: AVG IPC :1.49293: L2-Pf-HR :0.44711: L2-HR :0.51581: (Sim:0h30m11s) 
CPU  0 inst:  544000000 cyc:  364027421 now IPC :1.48934: AVG IPC :1.49292: L2-Pf-HR :0.44708: L2-HR :0.51578: (Sim:0h30m15s) 
CPU  0 inst:  545000003 cyc:  364691682 now IPC :1.50544: AVG IPC :1.49295: L2-Pf-HR :0.44702: L2-HR :0.51572: (Sim:0h30m20s) 
CPU  0 inst:  546000003 cyc:  365369496 now IPC :1.47533: AVG IPC :1.49291: L2-Pf-HR :0.44701: L2-HR :0.51570: (Sim:0h30m25s) 
CPU  0 inst:  547000000 cyc:  366046830 now IPC :1.47637: AVG IPC :1.49288: L2-Pf-HR :0.44691: L2-HR :0.51563: (Sim:0h30m30s) 
CPU  0 inst:  548000000 cyc:  366721582 now IPC :1.48203: AVG IPC :1.49286: L2-Pf-HR :0.44681: L2-HR :0.51557: (Sim:0h30m34s) 
CPU  0 inst:  549000000 cyc:  367579528 now IPC :1.16557: AVG IPC :1.49210: L2-Pf-HR :0.44653: L2-HR :0.51542: (Sim:0h30m39s) 
CPU  0 inst:  550000001 cyc:  368234319 now IPC :1.52721: AVG IPC :1.49216: L2-Pf-HR :0.44652: L2-HR :0.51540: (Sim:0h30m43s) 
CPU  0 inst:  551000000 cyc:  368886674 now IPC :1.53291: AVG IPC :1.49223: L2-Pf-HR :0.44652: L2-HR :0.51539: (Sim:0h30m48s) 
CPU  0 inst:  552000000 cyc:  369540566 now IPC :1.52930: AVG IPC :1.49230: L2-Pf-HR :0.44652: L2-HR :0.51537: (Sim:0h30m52s) 
CPU  0 inst:  553000001 cyc:  370194269 now IPC :1.52975: AVG IPC :1.49236: L2-Pf-HR :0.44641: L2-HR :0.51529: (Sim:0h30m57s) 
CPU  0 inst:  554000002 cyc:  370848443 now IPC :1.52865: AVG IPC :1.49243: L2-Pf-HR :0.44631: L2-HR :0.51524: (Sim:0h31m2s) 
CPU  0 inst:  555000000 cyc:  371504869 now IPC :1.52340: AVG IPC :1.49248: L2-Pf-HR :0.44625: L2-HR :0.51522: (Sim:0h31m6s) 
CPU  0 inst:  556000000 cyc:  372157058 now IPC :1.53330: AVG IPC :1.49255: L2-Pf-HR :0.44623: L2-HR :0.51520: (Sim:0h31m10s) 
CPU  0 inst:  557000001 cyc:  372802103 now IPC :1.55028: AVG IPC :1.49265: L2-Pf-HR :0.44618: L2-HR :0.51515: (Sim:0h31m14s) 
CPU  0 inst:  558000003 cyc:  373447211 now IPC :1.55013: AVG IPC :1.49275: L2-Pf-HR :0.44617: L2-HR :0.51513: (Sim:0h31m18s) 
CPU  0 inst:  559000003 cyc:  374096270 now IPC :1.54069: AVG IPC :1.49284: L2-Pf-HR :0.44608: L2-HR :0.51507: (Sim:0h31m23s) 
CPU  0 inst:  560000000 cyc:  374746264 now IPC :1.53847: AVG IPC :1.49292: L2-Pf-HR :0.44599: L2-HR :0.51501: (Sim:0h31m27s) 
CPU  0 inst:  561000001 cyc:  375511959 now IPC :1.30600: AVG IPC :1.49253: L2-Pf-HR :0.44596: L2-HR :0.51501: (Sim:0h31m32s) 
CPU  0 inst:  562000002 cyc:  376164650 now IPC :1.53212: AVG IPC :1.49260: L2-Pf-HR :0.44619: L2-HR :0.51517: (Sim:0h31m36s) 
CPU  0 inst:  563000003 cyc:  376818199 now IPC :1.53011: AVG IPC :1.49267: L2-Pf-HR :0.44635: L2-HR :0.51527: (Sim:0h31m39s) 
CPU  0 inst:  564000000 cyc:  377471501 now IPC :1.53068: AVG IPC :1.49273: L2-Pf-HR :0.44643: L2-HR :0.51533: (Sim:0h31m43s) 
CPU  0 inst:  565000002 cyc:  378127609 now IPC :1.52414: AVG IPC :1.49279: L2-Pf-HR :0.44656: L2-HR :0.51544: (Sim:0h31m47s) 
CPU  0 inst:  566000003 cyc:  378771471 now IPC :1.55313: AVG IPC :1.49289: L2-Pf-HR :0.44676: L2-HR :0.51557: (Sim:0h31m52s) 
CPU  0 inst:  567000002 cyc:  379402907 now IPC :1.58369: AVG IPC :1.49304: L2-Pf-HR :0.44715: L2-HR :0.51584: (Sim:0h31m56s) 
CPU  0 inst:  568000000 cyc:  380044690 now IPC :1.55816: AVG IPC :1.49315: L2-Pf-HR :0.44751: L2-HR :0.51610: (Sim:0h32m0s) 
CPU  0 inst:  569000003 cyc:  380899474 now IPC :1.16989: AVG IPC :1.49243: L2-Pf-HR :0.44741: L2-HR :0.51606: (Sim:0h32m5s) 
CPU  0 inst:  570000001 cyc:  381567744 now IPC :1.49640: AVG IPC :1.49243: L2-Pf-HR :0.44740: L2-HR :0.51603: (Sim:0h32m9s) 
CPU  0 inst:  571000000 cyc:  382227427 now IPC :1.51588: AVG IPC :1.49247: L2-Pf-HR :0.44739: L2-HR :0.51600: (Sim:0h32m14s) 
CPU  0 inst:  572000000 cyc:  382890287 now IPC :1.50861: AVG IPC :1.49250: L2-Pf-HR :0.44735: L2-HR :0.51595: (Sim:0h32m18s) 
CPU  0 inst:  573000000 cyc:  383553626 now IPC :1.50752: AVG IPC :1.49253: L2-Pf-HR :0.44723: L2-HR :0.51586: (Sim:0h32m23s) 
CPU  0 inst:  574000002 cyc:  384219771 now IPC :1.50118: AVG IPC :1.49254: L2-Pf-HR :0.44714: L2-HR :0.51580: (Sim:0h32m27s) 
CPU  0 inst:  575000002 cyc:  384896524 now IPC :1.47764: AVG IPC :1.49252: L2-Pf-HR :0.44710: L2-HR :0.51579: (Sim:0h32m32s) 
CPU  0 inst:  576000000 cyc:  385564790 now IPC :1.49641: AVG IPC :1.49252: L2-Pf-HR :0.44706: L2-HR :0.51575: (Sim:0h32m36s) 
CPU  0 inst:  577000002 cyc:  386229495 now IPC :1.50443: AVG IPC :1.49254: L2-Pf-HR :0.44701: L2-HR :0.51570: (Sim:0h32m41s) 
CPU  0 inst:  578000001 cyc:  386896641 now IPC :1.49892: AVG IPC :1.49256: L2-Pf-HR :0.44696: L2-HR :0.51566: (Sim:0h32m45s) 
CPU  0 inst:  579000000 cyc:  387576838 now IPC :1.47016: AVG IPC :1.49252: L2-Pf-HR :0.44687: L2-HR :0.51561: (Sim:0h32m50s) 
CPU  0 inst:  580000000 cyc:  388261833 now IPC :1.45986: AVG IPC :1.49246: L2-Pf-HR :0.44676: L2-HR :0.51553: (Sim:0h32m55s) 
CPU  0 inst:  581000001 cyc:  389099294 now IPC :1.19409: AVG IPC :1.49181: L2-Pf-HR :0.44654: L2-HR :0.51542: (Sim:0h32m59s) 
CPU  0 inst:  582000001 cyc:  389749477 now IPC :1.53803: AVG IPC :1.49189: L2-Pf-HR :0.44655: L2-HR :0.51541: (Sim:0h33m4s) 
CPU  0 inst:  583000000 cyc:  390401089 now IPC :1.53465: AVG IPC :1.49196: L2-Pf-HR :0.44655: L2-HR :0.51540: (Sim:0h33m8s) 
CPU  0 inst:  584000000 cyc:  391053160 now IPC :1.53358: AVG IPC :1.49203: L2-Pf-HR :0.44651: L2-HR :0.51536: (Sim:0h33m13s) 
CPU  0 inst:  585000003 cyc:  391705228 now IPC :1.53359: AVG IPC :1.49210: L2-Pf-HR :0.44640: L2-HR :0.51529: (Sim:0h33m17s) 
CPU  0 inst:  586000003 cyc:  392362244 now IPC :1.52203: AVG IPC :1.49215: L2-Pf-HR :0.44632: L2-HR :0.51525: (Sim:0h33m21s) 
CPU  0 inst:  587000001 cyc:  393015241 now IPC :1.53140: AVG IPC :1.49222: L2-Pf-HR :0.44629: L2-HR :0.51525: (Sim:0h33m26s) 
CPU  0 inst:  588000000 cyc:  393665896 now IPC :1.53691: AVG IPC :1.49229: L2-Pf-HR :0.44626: L2-HR :0.51522: (Sim:0h33m30s) 
CPU  0 inst:  589000000 cyc:  394309870 now IPC :1.55286: AVG IPC :1.49239: L2-Pf-HR :0.44623: L2-HR :0.51519: (Sim:0h33m34s) 
CPU  0 inst:  590000001 cyc:  394956460 now IPC :1.54658: AVG IPC :1.49248: L2-Pf-HR :0.44617: L2-HR :0.51514: (Sim:0h33m39s) 
CPU  0 inst:  591000003 cyc:  395607438 now IPC :1.53615: AVG IPC :1.49255: L2-Pf-HR :0.44610: L2-HR :0.51509: (Sim:0h33m42s) 
CPU  0 inst:  592000000 cyc:  396345333 now IPC :1.35520: AVG IPC :1.49230: L2-Pf-HR :0.44588: L2-HR :0.51495: (Sim:0h33m46s) 
CPU  0 inst:  593000001 cyc:  397018893 now IPC :1.48465: AVG IPC :1.49228: L2-Pf-HR :0.44610: L2-HR :0.51511: (Sim:0h33m50s) 
CPU  0 inst:  594000003 cyc:  397670670 now IPC :1.53427: AVG IPC :1.49235: L2-Pf-HR :0.44631: L2-HR :0.51525: (Sim:0h33m54s) 
CPU  0 inst:  595000000 cyc:  398320648 now IPC :1.53851: AVG IPC :1.49243: L2-Pf-HR :0.44641: L2-HR :0.51531: (Sim:0h33m57s) 
CPU  0 inst:  596000000 cyc:  398975895 now IPC :1.52614: AVG IPC :1.49248: L2-Pf-HR :0.44650: L2-HR :0.51540: (Sim:0h34m2s) 
CPU  0 inst:  597000003 cyc:  399624937 now IPC :1.54074: AVG IPC :1.49256: L2-Pf-HR :0.44665: L2-HR :0.51549: (Sim:0h34m6s) 
CPU  0 inst:  598000000 cyc:  400263695 now IPC :1.56553: AVG IPC :1.49268: L2-Pf-HR :0.44697: L2-HR :0.51571: (Sim:0h34m10s) 
CPU  0 inst:  599000001 cyc:  400900746 now IPC :1.56973: AVG IPC :1.49280: L2-Pf-HR :0.44729: L2-HR :0.51595: (Sim:0h34m14s) 
CPU  0 inst:  600000000 cyc:  401713241 now IPC :1.23078: AVG IPC :1.49227: L2-Pf-HR :0.44739: L2-HR :0.51606: (Sim:0h34m19s) 
CPU  0 inst:  601000001 cyc:  402400592 now IPC :1.45486: AVG IPC :1.49221: L2-Pf-HR :0.44739: L2-HR :0.51605: (Sim:0h34m23s) 
CPU  0 inst:  602000000 cyc:  403062476 now IPC :1.51084: AVG IPC :1.49224: L2-Pf-HR :0.44738: L2-HR :0.51601: (Sim:0h34m27s) 
CPU  0 inst:  603000002 cyc:  403735262 now IPC :1.48636: AVG IPC :1.49223: L2-Pf-HR :0.44737: L2-HR :0.51598: (Sim:0h34m32s) 
CPU  0 inst:  604000000 cyc:  404397949 now IPC :1.50900: AVG IPC :1.49225: L2-Pf-HR :0.44729: L2-HR :0.51591: (Sim:0h34m36s) 
CPU  0 inst:  605000003 cyc:  405069848 now IPC :1.48832: AVG IPC :1.49225: L2-Pf-HR :0.44719: L2-HR :0.51584: (Sim:0h34m40s) 
CPU  0 inst:  606000001 cyc:  405748319 now IPC :1.47390: AVG IPC :1.49222: L2-Pf-HR :0.44711: L2-HR :0.51581: (Sim:0h34m45s) 
CPU  0 inst:  607000000 cyc:  406412793 now IPC :1.50495: AVG IPC :1.49224: L2-Pf-HR :0.44709: L2-HR :0.51579: (Sim:0h34m49s) 
CPU  0 inst:  608000000 cyc:  407086790 now IPC :1.48369: AVG IPC :1.49222: L2-Pf-HR :0.44705: L2-HR :0.51575: (Sim:0h34m54s) 
CPU  0 inst:  609000003 cyc:  407753354 now IPC :1.50024: AVG IPC :1.49224: L2-Pf-HR :0.44703: L2-HR :0.51572: (Sim:0h34m58s) 
CPU  0 inst:  610000002 cyc:  408427081 now IPC :1.48428: AVG IPC :1.49222: L2-Pf-HR :0.44695: L2-HR :0.51568: (Sim:0h35m3s) 
CPU  0 inst:  611000001 cyc:  409103512 now IPC :1.47835: AVG IPC :1.49220: L2-Pf-HR :0.44686: L2-HR :0.51562: (Sim:0h35m7s) 
CPU  0 inst:  612000000 cyc:  409950094 now IPC :1.18122: AVG IPC :1.49156: L2-Pf-HR :0.44660: L2-HR :0.51548: (Sim:0h35m12s) 
CPU  0 inst:  613000002 cyc:  410611325 now IPC :1.51233: AVG IPC :1.49159: L2-Pf-HR :0.44660: L2-HR :0.51547: (Sim:0h35m17s) 
CPU  0 inst:  614000002 cyc:  411263270 now IPC :1.53387: AVG IPC :1.49166: L2-Pf-HR :0.44659: L2-HR :0.51545: (Sim:0h35m21s) 
CPU  0 inst:  615000000 cyc:  411914305 now IPC :1.53601: AVG IPC :1.49173: L2-Pf-HR :0.44659: L2-HR :0.51543: (Sim:0h35m25s) 
CPU  0 inst:  616000000 cyc:  412566771 now IPC :1.53265: AVG IPC :1.49179: L2-Pf-HR :0.44651: L2-HR :0.51537: (Sim:0h35m30s) 
CPU  0 inst:  617000003 cyc:  413219521 now IPC :1.53198: AVG IPC :1.49186: L2-Pf-HR :0.44641: L2-HR :0.51532: (Sim:0h35m34s) 
CPU  0 inst:  618000001 cyc:  413877578 now IPC :1.51962: AVG IPC :1.49190: L2-Pf-HR :0.44635: L2-HR :0.51530: (Sim:0h35m37s) 
CPU  0 inst:  619000002 cyc:  414527430 now IPC :1.53881: AVG IPC :1.49197: L2-Pf-HR :0.44633: L2-HR :0.51529: (Sim:0h35m42s) 
CPU  0 inst:  620000000 cyc:  415175159 now IPC :1.54385: AVG IPC :1.49205: L2-Pf-HR :0.44628: L2-HR :0.51524: (Sim:0h35m46s) 
CPU  0 inst:  621000002 cyc:  415823166 now IPC :1.54320: AVG IPC :1.49213: L2-Pf-HR :0.44629: L2-HR :0.51523: (Sim:0h35m49s) 
CPU  0 inst:  622000000 cyc:  416470000 now IPC :1.54599: AVG IPC :1.49222: L2-Pf-HR :0.44621: L2-HR :0.51518: (Sim:0h35m54s) 
CPU  0 inst:  623000000 cyc:  417115051 now IPC :1.55027: AVG IPC :1.49231: L2-Pf-HR :0.44612: L2-HR :0.51512: (Sim:0h35m58s) 
CPU  0 inst:  624000000 cyc:  417875743 now IPC :1.31459: AVG IPC :1.49198: L2-Pf-HR :0.44606: L2-HR :0.51509: (Sim:0h36m3s) 
CPU  0 inst:  625000003 cyc:  418529584 now IPC :1.52943: AVG IPC :1.49204: L2-Pf-HR :0.44627: L2-HR :0.51523: (Sim:0h36m6s) 
CPU  0 inst:  626000000 cyc:  419181673 now IPC :1.53353: AVG IPC :1.49211: L2-Pf-HR :0.44642: L2-HR :0.51533: (Sim:0h36m9s) 
CPU  0 inst:  627000000 cyc:  419835055 now IPC :1.53050: AVG IPC :1.49217: L2-Pf-HR :0.44648: L2-HR :0.51538: (Sim:0h36m13s) 
[...]
CPU  0 inst: 2255000002 cyc: 2278209906 now IPC :1.71680: AVG IPC :0.98936: L2-Pf-HR :0.32280: L2-HR :0.44244: (Sim:2h41m31s) 
CPU  0 inst: 2256000000 cyc: 2278709882 now IPC :2.00009: AVG IPC :0.98958: L2-Pf-HR :0.32272: L2-HR :0.44238: (Sim:2h41m34s) 
CPU  0 inst: 2257000000 cyc: 2279419894 now IPC :1.40843: AVG IPC :0.98971: L2-Pf-HR :0.32261: L2-HR :0.44230: (Sim:2h41m39s) 
CPU  0 inst: 2258000000 cyc: 2279944292 now IPC :1.90695: AVG IPC :0.98992: L2-Pf-HR :0.32256: L2-HR :0.44226: (Sim:2h41m43s) 
CPU  0 inst: 2259000003 cyc: 2280567833 now IPC :1.60375: AVG IPC :0.99009: L2-Pf-HR :0.32246: L2-HR :0.44219: (Sim:2h41m48s) 
CPU  0 inst: 2260000000 cyc: 2281075643 now IPC :1.96923: AVG IPC :0.99031: L2-Pf-HR :0.32242: L2-HR :0.44216: (Sim:2h41m52s) 
CPU  0 inst: 2261000002 cyc: 2281602841 now IPC :1.89682: AVG IPC :0.99052: L2-Pf-HR :0.32237: L2-HR :0.44210: (Sim:2h41m56s) 
CPU  0 inst: 2262000003 cyc: 2282159264 now IPC :1.79720: AVG IPC :0.99072: L2-Pf-HR :0.32227: L2-HR :0.44204: (Sim:2h42m1s) 
CPU  0 inst: 2263000000 cyc: 2282791843 now IPC :1.58083: AVG IPC :0.99088: L2-Pf-HR :0.32222: L2-HR :0.44200: (Sim:2h42m6s) 
CPU  0 inst: 2264000000 cyc: 2283392067 now IPC :1.66604: AVG IPC :0.99106: L2-Pf-HR :0.32230: L2-HR :0.44207: (Sim:2h42m10s) 
CPU  0 inst: 2265000002 cyc: 2284153355 now IPC :1.31357: AVG IPC :0.99116: L2-Pf-HR :0.32239: L2-HR :0.44216: (Sim:2h42m15s) 
CPU  0 inst: 2266000000 cyc: 2284713129 now IPC :1.78643: AVG IPC :0.99136: L2-Pf-HR :0.32243: L2-HR :0.44216: (Sim:2h42m20s) 
CPU  0 inst: 2267000000 cyc: 2285263196 now IPC :1.81796: AVG IPC :0.99156: L2-Pf-HR :0.32248: L2-HR :0.44217: (Sim:2h42m24s) 
CPU  0 inst: 2268000000 cyc: 2285938981 now IPC :1.47976: AVG IPC :0.99170: L2-Pf-HR :0.32247: L2-HR :0.44216: (Sim:2h42m29s) 
CPU  0 inst: 2269000002 cyc: 2286450868 now IPC :1.95356: AVG IPC :0.99192: L2-Pf-HR :0.32253: L2-HR :0.44217: (Sim:2h42m33s) 
CPU  0 inst: 2270000001 cyc: 2287084540 now IPC :1.57810: AVG IPC :0.99208: L2-Pf-HR :0.32251: L2-HR :0.44214: (Sim:2h42m38s) 
CPU  0 inst: 2271000002 cyc: 2287609741 now IPC :1.90403: AVG IPC :0.99229: L2-Pf-HR :0.32252: L2-HR :0.44213: (Sim:2h42m42s) 
CPU  0 inst: 2272000000 cyc: 2288328704 now IPC :1.39089: AVG IPC :0.99242: L2-Pf-HR :0.32243: L2-HR :0.44206: (Sim:2h42m47s) 
CPU  0 inst: 2273000001 cyc: 2288864665 now IPC :1.86581: AVG IPC :0.99262: L2-Pf-HR :0.32239: L2-HR :0.44203: (Sim:2h42m51s) 
CPU  0 inst: 2274000003 cyc: 2289492534 now IPC :1.59269: AVG IPC :0.99279: L2-Pf-HR :0.32232: L2-HR :0.44198: (Sim:2h42m56s) 
CPU  0 inst: 2275000000 cyc: 2289995072 now IPC :1.98989: AVG IPC :0.99300: L2-Pf-HR :0.32228: L2-HR :0.44194: (Sim:2h43m0s) 
CPU  0 inst: 2276000000 cyc: 2290576166 now IPC :1.72089: AVG IPC :0.99319: L2-Pf-HR :0.32221: L2-HR :0.44189: (Sim:2h43m5s) 
CPU  0 inst: 2277000003 cyc: 2291080806 now IPC :1.98162: AVG IPC :0.99341: L2-Pf-HR :0.32214: L2-HR :0.44183: (Sim:2h43m9s) 
CPU  0 inst: 2278000003 cyc: 2291822791 now IPC :1.34774: AVG IPC :0.99352: L2-Pf-HR :0.32203: L2-HR :0.44175: (Sim:2h43m13s) 
CPU  0 inst: 2279000000 cyc: 2292352192 now IPC :1.88892: AVG IPC :0.99373: L2-Pf-HR :0.32197: L2-HR :0.44170: (Sim:2h43m18s) 
CPU  0 inst: 2280000000 cyc: 2293014288 now IPC :1.51035: AVG IPC :0.99388: L2-Pf-HR :0.32191: L2-HR :0.44165: (Sim:2h43m23s) 
CPU  0 inst: 2281000001 cyc: 2293525697 now IPC :1.95538: AVG IPC :0.99409: L2-Pf-HR :0.32186: L2-HR :0.44161: (Sim:2h43m27s) 
CPU  0 inst: 2282000000 cyc: 2294037237 now IPC :1.95488: AVG IPC :0.99431: L2-Pf-HR :0.32182: L2-HR :0.44157: (Sim:2h43m31s) 
CPU  0 inst: 2283000001 cyc: 2294637425 now IPC :1.66615: AVG IPC :0.99448: L2-Pf-HR :0.32174: L2-HR :0.44150: (Sim:2h43m35s) 
CPU  0 inst: 2284000000 cyc: 2295339997 now IPC :1.42334: AVG IPC :0.99461: L2-Pf-HR :0.32163: L2-HR :0.44143: (Sim:2h43m40s) 
CPU  0 inst: 2285000001 cyc: 2295875638 now IPC :1.86692: AVG IPC :0.99482: L2-Pf-HR :0.32157: L2-HR :0.44138: (Sim:2h43m44s) 
CPU  0 inst: 2286000002 cyc: 2296412954 now IPC :1.86110: AVG IPC :0.99502: L2-Pf-HR :0.32152: L2-HR :0.44133: (Sim:2h43m48s) 
CPU  0 inst: 2287000003 cyc: 2297025598 now IPC :1.63227: AVG IPC :0.99519: L2-Pf-HR :0.32144: L2-HR :0.44128: (Sim:2h43m52s) 
CPU  0 inst: 2288000000 cyc: 2297528608 now IPC :1.98803: AVG IPC :0.99541: L2-Pf-HR :0.32139: L2-HR :0.44124: (Sim:2h43m56s) 
CPU  0 inst: 2289000000 cyc: 2298111651 now IPC :1.71514: AVG IPC :0.99559: L2-Pf-HR :0.32130: L2-HR :0.44117: (Sim:2h44m1s) 
CPU  0 inst: 2290000000 cyc: 2298618156 now IPC :1.97431: AVG IPC :0.99581: L2-Pf-HR :0.32123: L2-HR :0.44111: (Sim:2h44m5s) 
CPU  0 inst: 2291000003 cyc: 2299325283 now IPC :1.41418: AVG IPC :0.99593: L2-Pf-HR :0.32112: L2-HR :0.44104: (Sim:2h44m10s) 
CPU  0 inst: 2292000000 cyc: 2299860612 now IPC :1.86800: AVG IPC :0.99614: L2-Pf-HR :0.32107: L2-HR :0.44099: (Sim:2h44m14s) 
CPU  0 inst: 2293000003 cyc: 2300486788 now IPC :1.59700: AVG IPC :0.99630: L2-Pf-HR :0.32099: L2-HR :0.44094: (Sim:2h44m18s) 
CPU  0 inst: 2294000002 cyc: 2300992653 now IPC :1.97681: AVG IPC :0.99652: L2-Pf-HR :0.32094: L2-HR :0.44089: (Sim:2h44m23s) 
CPU  0 inst: 2295000000 cyc: 2301572594 now IPC :1.72431: AVG IPC :0.99670: L2-Pf-HR :0.32087: L2-HR :0.44084: (Sim:2h44m27s) 
CPU  0 inst: 2296000000 cyc: 2302077333 now IPC :1.98122: AVG IPC :0.99692: L2-Pf-HR :0.32079: L2-HR :0.44078: (Sim:2h44m31s) 
CPU  0 inst: 2297000003 cyc: 2302720821 now IPC :1.55404: AVG IPC :0.99707: L2-Pf-HR :0.32077: L2-HR :0.44076: (Sim:2h44m36s) 
CPU  0 inst: 2298000000 cyc: 2303320371 now IPC :1.66791: AVG IPC :0.99725: L2-Pf-HR :0.32085: L2-HR :0.44083: (Sim:2h44m39s) 
CPU  0 inst: 2299000000 cyc: 2304090472 now IPC :1.29853: AVG IPC :0.99735: L2-Pf-HR :0.32092: L2-HR :0.44090: (Sim:2h44m43s) 
CPU  0 inst: 2300000000 cyc: 2304652134 now IPC :1.78043: AVG IPC :0.99754: L2-Pf-HR :0.32098: L2-HR :0.44092: (Sim:2h44m47s) 
CPU  0 inst: 2301000001 cyc: 2305218038 now IPC :1.76709: AVG IPC :0.99773: L2-Pf-HR :0.32102: L2-HR :0.44091: (Sim:2h44m50s) 
CPU  0 inst: 2302000001 cyc: 2305863783 now IPC :1.54860: AVG IPC :0.99788: L2-Pf-HR :0.32102: L2-HR :0.44091: (Sim:2h44m53s) 
CPU  0 inst: 2303000002 cyc: 2306380344 now IPC :1.93588: AVG IPC :0.99809: L2-Pf-HR :0.32106: L2-HR :0.44092: (Sim:2h44m56s) 
CPU  0 inst: 2304000000 cyc: 2307015374 now IPC :1.57473: AVG IPC :0.99825: L2-Pf-HR :0.32105: L2-HR :0.44090: (Sim:2h44m59s) 
CPU  0 inst: 2305000003 cyc: 2307634865 now IPC :1.61423: AVG IPC :0.99842: L2-Pf-HR :0.32102: L2-HR :0.44086: (Sim:2h45m4s) 
CPU  0 inst: 2306000001 cyc: 2308272548 now IPC :1.56817: AVG IPC :0.99857: L2-Pf-HR :0.32094: L2-HR :0.44080: (Sim:2h45m8s) 
CPU  0 inst: 2307000001 cyc: 2308798694 now IPC :1.90061: AVG IPC :0.99878: L2-Pf-HR :0.32089: L2-HR :0.44076: (Sim:2h45m12s) 
CPU  0 inst: 2308000000 cyc: 2309422156 now IPC :1.60395: AVG IPC :0.99894: L2-Pf-HR :0.32081: L2-HR :0.44070: (Sim:2h45m16s) 
CPU  0 inst: 2309000003 cyc: 2309923530 now IPC :1.99453: AVG IPC :0.99916: L2-Pf-HR :0.32076: L2-HR :0.44066: (Sim:2h45m20s) 
CPU  0 inst: 2310000001 cyc: 2310506963 now IPC :1.71399: AVG IPC :0.99934: L2-Pf-HR :0.32068: L2-HR :0.44060: (Sim:2h45m25s) 
CPU  0 inst: 2311000000 cyc: 2311008180 now IPC :1.99514: AVG IPC :0.99956: L2-Pf-HR :0.32060: L2-HR :0.44054: (Sim:2h45m29s) 
CPU  0 inst: 2312000000 cyc: 2311751266 now IPC :1.34574: AVG IPC :0.99967: L2-Pf-HR :0.32049: L2-HR :0.44046: (Sim:2h45m33s) 
CPU  0 inst: 2313000002 cyc: 2312280710 now IPC :1.88878: AVG IPC :0.99987: L2-Pf-HR :0.32044: L2-HR :0.44042: (Sim:2h45m37s) 
CPU  0 inst: 2314000002 cyc: 2312947365 now IPC :1.50003: AVG IPC :1.00001: L2-Pf-HR :0.32036: L2-HR :0.44036: (Sim:2h45m42s) 
CPU  0 inst: 2315000001 cyc: 2313457067 now IPC :1.96193: AVG IPC :1.00023: L2-Pf-HR :0.32032: L2-HR :0.44032: (Sim:2h45m46s) 
CPU  0 inst: 2316000000 cyc: 2313984678 now IPC :1.89533: AVG IPC :1.00043: L2-Pf-HR :0.32029: L2-HR :0.44028: (Sim:2h45m50s) 
CPU  0 inst: 2317000003 cyc: 2314567791 now IPC :1.71494: AVG IPC :1.00061: L2-Pf-HR :0.32018: L2-HR :0.44021: (Sim:2h45m54s) 
CPU  0 inst: 2318000000 cyc: 2315277989 now IPC :1.40805: AVG IPC :1.00074: L2-Pf-HR :0.32007: L2-HR :0.44013: (Sim:2h45m59s) 
CPU  0 inst: 2319000002 cyc: 2315820852 now IPC :1.84209: AVG IPC :1.00093: L2-Pf-HR :0.32003: L2-HR :0.44009: (Sim:2h46m4s) 
CPU  0 inst: 2320000000 cyc: 2316381909 now IPC :1.78235: AVG IPC :1.00112: L2-Pf-HR :0.31996: L2-HR :0.44003: (Sim:2h46m8s) 
CPU  0 inst: 2321000002 cyc: 2316960886 now IPC :1.72719: AVG IPC :1.00130: L2-Pf-HR :0.31989: L2-HR :0.43999: (Sim:2h46m12s) 
CPU  0 inst: 2322000001 cyc: 2317462114 now IPC :1.99510: AVG IPC :1.00152: L2-Pf-HR :0.31984: L2-HR :0.43994: (Sim:2h46m16s) 
CPU  0 inst: 2323000003 cyc: 2318045847 now IPC :1.71312: AVG IPC :1.00170: L2-Pf-HR :0.31975: L2-HR :0.43988: (Sim:2h46m21s) 
CPU  0 inst: 2324000000 cyc: 2318644651 now IPC :1.66999: AVG IPC :1.00187: L2-Pf-HR :0.31965: L2-HR :0.43981: (Sim:2h46m25s) 
CPU  0 inst: 2325000001 cyc: 2319269853 now IPC :1.59948: AVG IPC :1.00203: L2-Pf-HR :0.31957: L2-HR :0.43975: (Sim:2h46m30s) 
CPU  0 inst: 2326000000 cyc: 2319794513 now IPC :1.90599: AVG IPC :1.00224: L2-Pf-HR :0.31952: L2-HR :0.43970: (Sim:2h46m34s) 
CPU  0 inst: 2327000001 cyc: 2320419607 now IPC :1.59976: AVG IPC :1.00240: L2-Pf-HR :0.31943: L2-HR :0.43965: (Sim:2h46m38s) 
CPU  0 inst: 2328000000 cyc: 2320922947 now IPC :1.98673: AVG IPC :1.00261: L2-Pf-HR :0.31939: L2-HR :0.43961: (Sim:2h46m43s) 
CPU  0 inst: 2329000003 cyc: 2321507425 now IPC :1.71093: AVG IPC :1.00279: L2-Pf-HR :0.31931: L2-HR :0.43955: (Sim:2h46m47s) 
CPU  0 inst: 2330000002 cyc: 2322010495 now IPC :1.98779: AVG IPC :1.00300: L2-Pf-HR :0.31924: L2-HR :0.43949: (Sim:2h46m50s) 
CPU  0 inst: 2331000001 cyc: 2322661818 now IPC :1.53533: AVG IPC :1.00315: L2-Pf-HR :0.31923: L2-HR :0.43949: (Sim:2h46m53s) 
CPU  0 inst: 2332000000 cyc: 2323305645 now IPC :1.55321: AVG IPC :1.00331: L2-Pf-HR :0.31934: L2-HR :0.43957: (Sim:2h46m57s) 
CPU  0 inst: 2333000003 cyc: 2324040860 now IPC :1.36015: AVG IPC :1.00342: L2-Pf-HR :0.31940: L2-HR :0.43964: (Sim:2h47m0s) 
CPU  0 inst: 2334000001 cyc: 2324589459 now IPC :1.82282: AVG IPC :1.00361: L2-Pf-HR :0.31944: L2-HR :0.43964: (Sim:2h47m3s) 
CPU  0 inst: 2335000001 cyc: 2325264360 now IPC :1.48170: AVG IPC :1.00375: L2-Pf-HR :0.31945: L2-HR :0.43964: (Sim:2h47m7s) 
CPU  0 inst: 2336000000 cyc: 2325793269 now IPC :1.89068: AVG IPC :1.00395: L2-Pf-HR :0.31949: L2-HR :0.43964: (Sim:2h47m10s) 
CPU  0 inst: 2337000000 cyc: 2326312093 now IPC :1.92744: AVG IPC :1.00416: L2-Pf-HR :0.31955: L2-HR :0.43966: (Sim:2h47m13s) 
CPU  0 inst: 2338000003 cyc: 2326949880 now IPC :1.56793: AVG IPC :1.00431: L2-Pf-HR :0.31952: L2-HR :0.43962: (Sim:2h47m16s) 
CPU  0 inst: 2339000000 cyc: 2327663565 now IPC :1.40117: AVG IPC :1.00443: L2-Pf-HR :0.31946: L2-HR :0.43958: (Sim:2h47m21s) 
CPU  0 inst: 2340000000 cyc: 2328197393 now IPC :1.87326: AVG IPC :1.00463: L2-Pf-HR :0.31942: L2-HR :0.43954: (Sim:2h47m25s) 
CPU  0 inst: 2341000002 cyc: 2328730087 now IPC :1.87725: AVG IPC :1.00483: L2-Pf-HR :0.31939: L2-HR :0.43950: (Sim:2h47m30s) 
CPU  0 inst: 2342000001 cyc: 2329344243 now IPC :1.62825: AVG IPC :1.00500: L2-Pf-HR :0.31932: L2-HR :0.43946: (Sim:2h47m34s) 
CPU  0 inst: 2343000002 cyc: 2329846045 now IPC :1.99282: AVG IPC :1.00521: L2-Pf-HR :0.31929: L2-HR :0.43943: (Sim:2h47m38s) 
CPU  0 inst: 2344000000 cyc: 2330431998 now IPC :1.70662: AVG IPC :1.00539: L2-Pf-HR :0.31921: L2-HR :0.43937: (Sim:2h47m43s) 
CPU  0 inst: 2345000000 cyc: 2330936047 now IPC :1.98393: AVG IPC :1.00560: L2-Pf-HR :0.31915: L2-HR :0.43931: (Sim:2h47m47s) 
CPU  0 inst: 2346000002 cyc: 2331679779 now IPC :1.34457: AVG IPC :1.00571: L2-Pf-HR :0.31905: L2-HR :0.43925: (Sim:2h47m50s) 
CPU  0 inst: 2347000000 cyc: 2332220389 now IPC :1.84976: AVG IPC :1.00590: L2-Pf-HR :0.31902: L2-HR :0.43921: (Sim:2h47m53s) 
CPU  0 inst: 2348000000 cyc: 2332877118 now IPC :1.52270: AVG IPC :1.00605: L2-Pf-HR :0.31897: L2-HR :0.43917: (Sim:2h47m56s) 
CPU  0 inst: 2349000003 cyc: 2333383289 now IPC :1.97562: AVG IPC :1.00626: L2-Pf-HR :0.31894: L2-HR :0.43913: (Sim:2h48m0s) 
CPU  0 inst: 2350000002 cyc: 2333987316 now IPC :1.65555: AVG IPC :1.00643: L2-Pf-HR :0.31888: L2-HR :0.43909: (Sim:2h48m5s) 
CPU  0 inst: 2351000003 cyc: 2334493445 now IPC :1.97578: AVG IPC :1.00664: L2-Pf-HR :0.31882: L2-HR :0.43904: (Sim:2h48m9s) 
CPU  0 inst: 2352000000 cyc: 2335213457 now IPC :1.38886: AVG IPC :1.00675: L2-Pf-HR :0.31874: L2-HR :0.43898: (Sim:2h48m14s) 
CPU  0 inst: 2353000003 cyc: 2335741004 now IPC :1.89557: AVG IPC :1.00696: L2-Pf-HR :0.31870: L2-HR :0.43894: (Sim:2h48m18s) 
CPU  0 inst: 2354000000 cyc: 2336369326 now IPC :1.59154: AVG IPC :1.00711: L2-Pf-HR :0.31863: L2-HR :0.43889: (Sim:2h48m23s) 
CPU  0 inst: 2355000001 cyc: 2336876652 now IPC :1.97112: AVG IPC :1.00732: L2-Pf-HR :0.31859: L2-HR :0.43885: (Sim:2h48m27s) 
CPU  0 inst: 2356000000 cyc: 2337381611 now IPC :1.98036: AVG IPC :1.00753: L2-Pf-HR :0.31857: L2-HR :0.43882: (Sim:2h48m31s) 
CPU  0 inst: 2357000003 cyc: 2337967633 now IPC :1.70643: AVG IPC :1.00771: L2-Pf-HR :0.31848: L2-HR :0.43876: (Sim:2h48m35s) 
CPU  0 inst: 2358000000 cyc: 2338656586 now IPC :1.45147: AVG IPC :1.00784: L2-Pf-HR :0.31838: L2-HR :0.43869: (Sim:2h48m40s) 
CPU  0 inst: 2359000002 cyc: 2339191894 now IPC :1.86809: AVG IPC :1.00804: L2-Pf-HR :0.31834: L2-HR :0.43865: (Sim:2h48m44s) 
CPU  0 inst: 2360000000 cyc: 2339721031 now IPC :1.88987: AVG IPC :1.00824: L2-Pf-HR :0.31830: L2-HR :0.43861: (Sim:2h48m48s) 
CPU  0 inst: 2361000000 cyc: 2340340042 now IPC :1.61548: AVG IPC :1.00840: L2-Pf-HR :0.31823: L2-HR :0.43856: (Sim:2h48m53s) 
CPU  0 inst: 2362000003 cyc: 2340843086 now IPC :1.98790: AVG IPC :1.00861: L2-Pf-HR :0.31820: L2-HR :0.43853: (Sim:2h48m57s) 
CPU  0 inst: 2363000003 cyc: 2341430846 now IPC :1.70137: AVG IPC :1.00878: L2-Pf-HR :0.31813: L2-HR :0.43848: (Sim:2h49m1s) 
Finished CPU 0 instr: 2361000003 cyc: 2340449562 AVG IPC: 1.00878 (Sim time: 2h49m1s)

ChampSim completed all CPUs

[ROI Statistics]
Core_0_instructions 2361000003
Core_0_cycles 2340449562
Core_0_IPC 1.00878

Core_0_branch_prediction_accuracy 98.59504
Core_0_branch_MPKI 0.33667
Core_0_average_ROB_occupancy_at_mispredict 251.29951

Core_0_L1D_total_access 649327968
Core_0_L1D_total_hit 602537731 L1D_total_Hit Ratio: 0.92794
Core_0_L1D_total_miss 46790237
Core_0_L1D_loads 537024894
Core_0_L1D_load_hit 523203320 L1D_load_Hit Ratio: 0.97426
Core_0_L1D_load_miss 13821574
Core_0_L1D_RFOs 46169546
Core_0_L1D_RFO_hit 44419617 L1D_RFO_Hit Ratio: 0.96210
Core_0_L1D_RFO_miss 1749929
Core_0_L1D_prefetches 66133528
Core_0_L1D_prefetch_hit 34914794 L1D_prefetch_Hit Ratio: 0.52794
Core_0_L1D_prefetch_miss 31218734
Core_0_L1D_writebacks 0
Core_0_L1D_writeback_hit 0 L1D_writeback_Hit Ratio: -nan
Core_0_L1D_writeback_miss 0
Core_0_L1D_prefetch_requested 76079892
Core_0_L1D_prefetch_issued 76079892
Core_0_L1D_prefetch_useful 31015638 L1D_Useful Ratio: 0.40767
Core_0_L1D_prefetch_useless 227732
Core_0_L1D_prefetch_late 3200188
Core_0_L1D_average_miss_latency 70513373.83534

Core_0_L1I_total_access 547417471
Core_0_L1I_total_hit 547412557 L1I_total_Hit Ratio: 0.99999
Core_0_L1I_total_miss 4914
Core_0_L1I_loads 547417471
Core_0_L1I_load_hit 547412557 L1I_load_Hit Ratio: 0.99999
Core_0_L1I_load_miss 4914
Core_0_L1I_RFOs 0
Core_0_L1I_RFO_hit 0 L1I_RFO_Hit Ratio: -nan
Core_0_L1I_RFO_miss 0
Core_0_L1I_prefetches 0
Core_0_L1I_prefetch_hit 0 L1I_prefetch_Hit Ratio: -nan
Core_0_L1I_prefetch_miss 0
Core_0_L1I_writebacks 0
Core_0_L1I_writeback_hit 0 L1I_writeback_Hit Ratio: -nan
Core_0_L1I_writeback_miss 0
Core_0_L1I_prefetch_requested 0
Core_0_L1I_prefetch_issued 0
Core_0_L1I_prefetch_useful 0 L1I_Useful Ratio: -nan
Core_0_L1I_prefetch_useless 0
Core_0_L1I_prefetch_late 0
Core_0_L1I_average_miss_latency 263.90435

Core_0_L2C_total_access 72114873
Core_0_L2C_total_hit 31620781 L2C_total_Hit Ratio: 0.43848
Core_0_L2C_total_miss 40494092
Core_0_L2C_loads 10627482
Core_0_L2C_load_hit 4383555 L2C_load_Hit Ratio: 0.41247
Core_0_L2C_load_miss 6243927
Core_0_L2C_RFOs 1749816
Core_0_L2C_RFO_hit 286668 L2C_RFO_Hit Ratio: 0.16383
Core_0_L2C_RFO_miss 1463148
Core_0_L2C_prefetches 47701869
Core_0_L2C_prefetch_hit 15175352 L2C_prefetch_Hit Ratio: 0.31813
Core_0_L2C_prefetch_miss 32526517
Core_0_L2C_writebacks 12035706
Core_0_L2C_writeback_hit 11775206 L2C_writeback_Hit Ratio: 0.97836
Core_0_L2C_writeback_miss 260500
Core_0_L2C_prefetch_requested 15628427
Core_0_L2C_prefetch_issued 15628427
Core_0_L2C_prefetch_useful 3652760 L2C_Useful Ratio: 0.23373
Core_0_L2C_prefetch_useless 28899250
Core_0_L2C_prefetch_late 246513
Core_0_L2C_average_miss_latency 136.28513

Core_0_LLC_total_access 52103793
Core_0_LLC_total_hit 39167554 LLC_total_Hit Ratio: 0.75172
Core_0_LLC_total_miss 12936239
Core_0_LLC_loads 5997423
Core_0_LLC_load_hit 2636875 LLC_load_Hit Ratio: 0.43967
Core_0_LLC_load_miss 3360548
Core_0_LLC_RFOs 1463148
Core_0_LLC_RFO_hit 112998 LLC_RFO_Hit Ratio: 0.07723
Core_0_LLC_RFO_miss 1350150
Core_0_LLC_prefetches 32772924
Core_0_LLC_prefetch_hit 24548919 LLC_prefetch_Hit Ratio: 0.74906
Core_0_LLC_prefetch_miss 8224005
Core_0_LLC_writebacks 11870298
Core_0_LLC_writeback_hit 11868762 LLC_writeback_Hit Ratio: 0.99987
Core_0_LLC_writeback_miss 1536
Core_0_LLC_prefetch_requested 0
Core_0_LLC_prefetch_issued 0
Core_0_LLC_prefetch_useful 414526 LLC_Useful Ratio: inf
Core_0_LLC_prefetch_useless 7797655
Core_0_LLC_prefetch_late 0
Core_0_LLC_average_miss_latency 334.75994

Core_0_major_page_fault 0
Core_0_minor_page_fault 83038

[Bingo] PHT Access: 4877772
[Bingo] PHT Hit PC+Addr: 1360714
[Bingo] PHT Hit PC+Offs: 3276738
[Bingo] PHT Miss: 240320
[Bingo] Prefetch PC+Addr: 0
[Bingo] Prefetch PC+Offs: 0
[Bingo] Useful PC+Addr: 0
[Bingo] Useful PC+Offs: 0
[Bingo] Useless PC+Addr: 0
[Bingo] Useless PC+Offs: 0
[Bingo] L1 Prefetch per Region: 16.90386
[Bingo] L2 Prefetch per Region: 0.91625
[Bingo] L3 Prefetch per Region: 0.00000
[Bingo] No Prefetch per Region: 14.17990
[Bingo] Number of Voters Mean: 13.96014
[Bingo] Number of Voters SD: 4.03795
PHT read accesses: 69243888
PHT write accesses: 4731194
AT read accesses: 516453793
AT write accesses: 516453790
FT read accesses: 58272749
FT write accesses: 4877772
PS read accesses: 30435551
PS write accesses: 4637452
PHT tag read accesses: 197659437
PHT tag write accesses: 6091908
AT tag read accesses: 9527662315
AT tag write accesses: 521184984
FT tag read accesses: 1413027713
FT tag write accesses: 36452966
PS tag read accesses: 8770608893
PS tag write accesses: 35046590
[Bingo2] PHT Access: 3014455
[Bingo2] PHT Hit PC+Addr: 117765
[Bingo2] PHT Hit PC+Offs: 2539748
[Bingo2] PHT Miss: 356942
[Bingo2] Prefetch PC+Addr: 0
[Bingo2] Prefetch PC+Offs: 0
[Bingo2] Useful PC+Addr: 0
[Bingo2] Useful PC+Offs: 0
[Bingo2] Useless PC+Addr: 0
[Bingo2] Useless PC+Offs: 0
[Bingo2] L1 Prefetch per Region: 0.00000
[Bingo2] L2 Prefetch per Region: 7.00050
[Bingo2] L3 Prefetch per Region: 0.00000
[Bingo2] No Prefetch per Region: 24.99950
[Bingo2] Number of Voters Mean: 13.95528
[Bingo2] Number of Voters SD: 3.97088
PHT read accesses: 47383007
PHT write accesses: 2105141
AT read accesses: 9634039
AT write accesses: 9694320
FT read accesses: 7039494
FT write accesses: 3014455
PS read accesses: 5452885
PS write accesses: 2657513
PHT tag read accesses: 113906027
PHT tag write accesses: 2222906
AT tag read accesses: 900814838
AT tag write accesses: 11739162
FT tag read accesses: 828992917
FT tag write accesses: 7924996
PS tag read accesses: 265398344
PS tag write accesses: 8040204
Channel_0_RQ_row_buffer_hit 7829985
Channel_0_RQ_row_buffer_miss 5102934
Channel_0_WQ_row_buffer_hit 2203363
Channel_0_WQ_row_buffer_miss 5141962
Channel_0_WQ_full 103
Channel_0_dbus_congested 12272699

avg_congested_cycle 11

EzSearch AVG IPC :1.00878: L2-Pf-HR :0.31813 : L2-HR :0.43848 Uful:0.23373
     > Finished combination: TraceType=770-tot Sim:2361000000 Prefetcher=L2bingo_dpc3_PHT1k L1=bingo_dpc3_PHT1k
