TRACE: [298000000][GPT-Neo_1_3B]_[h16][s512][d128] Warmup: 2000000 NumTraces: 298000000
L1:berti:L2:berti
*************************************************
   ChampSim Multicore Out-of-Order Simulator
   Last compiled: Oct 26 2024 14:11:07
*************************************************

trace_0 770-tot_memTraces_v3/memTraces[298000000][GPT-Neo_1_3B]_[h16][s512][d128].champsim.xz
CPU 0 L1D Berti prefetcher
CPU 0 L2C Berti prefetcher
MAIN.cc ln 751 stats print skipped
CPU  0 inst:    1000003 cyc:     502485 now IPC :1.99012: AVG IPC :1.99012: L2-Pf-HR :0.42103: L2-HR :0.49683: (Sim:0h0m7s) 
CPU  0 inst:    2000001 cyc:     979362 now IPC :2.09697: AVG IPC :2.04215: L2-Pf-HR :0.44089: L2-HR :0.50598: (Sim:0h0m15s) 

Warmup complete CPU  0 instructions:    2000001 cycles:     979362 (Simulation time: 0 hr 0 min 15 sec) 

CPU  0 inst:    3000002 cyc:    1510347 now IPC :1.88329: AVG IPC :1.88329: L2-Pf-HR :0.46619: L2-HR :0.50619: (Sim:0h0m21s) 
CPU  0 inst:    4000000 cyc:    2033649 now IPC :1.91094: AVG IPC :1.89702: L2-Pf-HR :0.46183: L2-HR :0.50369: (Sim:0h0m27s) 
CPU  0 inst:    5000003 cyc:    2561376 now IPC :1.89492: AVG IPC :1.89632: L2-Pf-HR :0.46254: L2-HR :0.50505: (Sim:0h0m34s) 
CPU  0 inst:    6000000 cyc:    3089241 now IPC :1.89442: AVG IPC :1.89584: L2-Pf-HR :0.46530: L2-HR :0.50953: (Sim:0h0m40s) 
CPU  0 inst:    7000000 cyc:    3683493 now IPC :1.68279: AVG IPC :1.84902: L2-Pf-HR :0.51303: L2-HR :0.55030: (Sim:0h0m46s) 
CPU  0 inst:    8000000 cyc:    4209085 now IPC :1.90262: AVG IPC :1.85774: L2-Pf-HR :0.56089: L2-HR :0.59079: (Sim:0h0m52s) 
CPU  0 inst:    9000003 cyc:    4922819 now IPC :1.40109: AVG IPC :1.77509: L2-Pf-HR :0.55340: L2-HR :0.58619: (Sim:0h0m59s) 
CPU  0 inst:   10000000 cyc:    5528691 now IPC :1.65051: AVG IPC :1.75850: L2-Pf-HR :0.54407: L2-HR :0.57784: (Sim:0h1m6s) 
CPU  0 inst:   11000002 cyc:    6094179 now IPC :1.76839: AVG IPC :1.75959: L2-Pf-HR :0.53614: L2-HR :0.57036: (Sim:0h1m12s) 
CPU  0 inst:   12000000 cyc:    6638797 now IPC :1.83615: AVG IPC :1.76696: L2-Pf-HR :0.52896: L2-HR :0.56395: (Sim:0h1m19s) 
CPU  0 inst:   13000003 cyc:    7190983 now IPC :1.81099: AVG IPC :1.77087: L2-Pf-HR :0.52299: L2-HR :0.55855: (Sim:0h1m26s) 
CPU  0 inst:   14000000 cyc:    7731991 now IPC :1.84840: AVG IPC :1.77709: L2-Pf-HR :0.51878: L2-HR :0.55551: (Sim:0h1m30s) 
CPU  0 inst:   15000001 cyc:    8370550 now IPC :1.56603: AVG IPC :1.75885: L2-Pf-HR :0.53088: L2-HR :0.56632: (Sim:0h1m36s) 
CPU  0 inst:   16000000 cyc:    8907540 now IPC :1.86223: AVG IPC :1.76585: L2-Pf-HR :0.55038: L2-HR :0.58333: (Sim:0h1m43s) 
CPU  0 inst:   17000002 cyc:    9653989 now IPC :1.33968: AVG IPC :1.72918: L2-Pf-HR :0.54825: L2-HR :0.58219: (Sim:0h1m49s) 
CPU  0 inst:   18000001 cyc:   10262914 now IPC :1.64224: AVG IPC :1.72348: L2-Pf-HR :0.54390: L2-HR :0.57824: (Sim:0h1m56s) 
CPU  0 inst:   19000000 cyc:   10818832 now IPC :1.79882: AVG IPC :1.72774: L2-Pf-HR :0.53981: L2-HR :0.57456: (Sim:0h2m2s) 
CPU  0 inst:   20000000 cyc:   11369602 now IPC :1.81564: AVG IPC :1.73239: L2-Pf-HR :0.53566: L2-HR :0.57078: (Sim:0h2m9s) 
CPU  0 inst:   21000001 cyc:   11917480 now IPC :1.82523: AVG IPC :1.73704: L2-Pf-HR :0.53205: L2-HR :0.56748: (Sim:0h2m16s) 
CPU  0 inst:   22000000 cyc:   12456518 now IPC :1.85515: AVG IPC :1.74259: L2-Pf-HR :0.52898: L2-HR :0.56515: (Sim:0h2m22s) 
CPU  0 inst:   23000002 cyc:   13093445 now IPC :1.57004: AVG IPC :1.73352: L2-Pf-HR :0.53553: L2-HR :0.57088: (Sim:0h2m29s) 
CPU  0 inst:   24000000 cyc:   13626894 now IPC :1.87459: AVG IPC :1.73947: L2-Pf-HR :0.54739: L2-HR :0.58092: (Sim:0h2m35s) 
CPU  0 inst:   25000002 cyc:   14363994 now IPC :1.35667: AVG IPC :1.71839: L2-Pf-HR :0.54672: L2-HR :0.58081: (Sim:0h2m40s) 
CPU  0 inst:   26000001 cyc:   14971327 now IPC :1.64654: AVG IPC :1.71527: L2-Pf-HR :0.54379: L2-HR :0.57827: (Sim:0h2m44s) 
CPU  0 inst:   27000000 cyc:   15525491 now IPC :1.80452: AVG IPC :1.71867: L2-Pf-HR :0.54100: L2-HR :0.57580: (Sim:0h2m48s) 
CPU  0 inst:   28000000 cyc:   16078242 now IPC :1.80913: AVG IPC :1.72198: L2-Pf-HR :0.53802: L2-HR :0.57307: (Sim:0h2m53s) 
CPU  0 inst:   29000000 cyc:   16636078 now IPC :1.79264: AVG IPC :1.72450: L2-Pf-HR :0.53536: L2-HR :0.57064: (Sim:0h2m58s) 
CPU  0 inst:   30000002 cyc:   17180730 now IPC :1.83604: AVG IPC :1.72825: L2-Pf-HR :0.53322: L2-HR :0.56899: (Sim:0h3m3s) 
CPU  0 inst:   31000002 cyc:   17813972 now IPC :1.57918: AVG IPC :1.72264: L2-Pf-HR :0.53766: L2-HR :0.57277: (Sim:0h3m8s) 
CPU  0 inst:   32000000 cyc:   18346472 now IPC :1.87793: AVG IPC :1.72740: L2-Pf-HR :0.54594: L2-HR :0.57960: (Sim:0h3m12s) 
CPU  0 inst:   33000003 cyc:   19083161 now IPC :1.35743: AVG IPC :1.71235: L2-Pf-HR :0.54578: L2-HR :0.57987: (Sim:0h3m17s) 
CPU  0 inst:   34000001 cyc:   19699602 now IPC :1.62221: AVG IPC :1.70938: L2-Pf-HR :0.54359: L2-HR :0.57793: (Sim:0h3m21s) 
CPU  0 inst:   35000000 cyc:   20258730 now IPC :1.78850: AVG IPC :1.71167: L2-Pf-HR :0.54162: L2-HR :0.57608: (Sim:0h3m27s) 
CPU  0 inst:   36000000 cyc:   20813012 now IPC :1.80414: AVG IPC :1.71426: L2-Pf-HR :0.53939: L2-HR :0.57404: (Sim:0h3m33s) 
CPU  0 inst:   37000003 cyc:   21355578 now IPC :1.84310: AVG IPC :1.71769: L2-Pf-HR :0.53727: L2-HR :0.57220: (Sim:0h3m40s) 
CPU  0 inst:   38000000 cyc:   21902163 now IPC :1.82954: AVG IPC :1.72061: L2-Pf-HR :0.53544: L2-HR :0.57076: (Sim:0h3m45s) 
CPU  0 inst:   39000000 cyc:   22539754 now IPC :1.56840: AVG IPC :1.71611: L2-Pf-HR :0.53838: L2-HR :0.57321: (Sim:0h3m50s) 
CPU  0 inst:   40000000 cyc:   23071704 now IPC :1.87988: AVG IPC :1.72005: L2-Pf-HR :0.54489: L2-HR :0.57864: (Sim:0h3m56s) 
CPU  0 inst:   41000003 cyc:   23809031 now IPC :1.35625: AVG IPC :1.70830: L2-Pf-HR :0.54526: L2-HR :0.57918: (Sim:0h4m2s) 
CPU  0 inst:   42000000 cyc:   24417815 now IPC :1.64261: AVG IPC :1.70660: L2-Pf-HR :0.54356: L2-HR :0.57766: (Sim:0h4m9s) 
CPU  0 inst:   43000002 cyc:   24976806 now IPC :1.78894: AVG IPC :1.70852: L2-Pf-HR :0.54195: L2-HR :0.57613: (Sim:0h4m16s) 
CPU  0 inst:   44000000 cyc:   25527372 now IPC :1.81631: AVG IPC :1.71093: L2-Pf-HR :0.54004: L2-HR :0.57436: (Sim:0h4m22s) 
CPU  0 inst:   45000001 cyc:   26080786 now IPC :1.80697: AVG IPC :1.71305: L2-Pf-HR :0.53830: L2-HR :0.57278: (Sim:0h4m29s) 
CPU  0 inst:   46000003 cyc:   26631431 now IPC :1.81606: AVG IPC :1.71526: L2-Pf-HR :0.53681: L2-HR :0.57163: (Sim:0h4m36s) 
CPU  0 inst:   47000003 cyc:   27266414 now IPC :1.57485: AVG IPC :1.71187: L2-Pf-HR :0.53894: L2-HR :0.57358: (Sim:0h4m43s) 
CPU  0 inst:   48000000 cyc:   27803484 now IPC :1.86195: AVG IPC :1.71487: L2-Pf-HR :0.54476: L2-HR :0.57873: (Sim:0h4m49s) 
CPU  0 inst:   49000003 cyc:   28531715 now IPC :1.37319: AVG IPC :1.70584: L2-Pf-HR :0.54511: L2-HR :0.57919: (Sim:0h4m56s) 
CPU  0 inst:   50000001 cyc:   29139562 now IPC :1.64515: AVG IPC :1.70453: L2-Pf-HR :0.54371: L2-HR :0.57797: (Sim:0h5m3s) 
CPU  0 inst:   51000002 cyc:   29700410 now IPC :1.78302: AVG IPC :1.70607: L2-Pf-HR :0.54225: L2-HR :0.57661: (Sim:0h5m10s) 
CPU  0 inst:   52000000 cyc:   30256570 now IPC :1.79804: AVG IPC :1.70781: L2-Pf-HR :0.54060: L2-HR :0.57511: (Sim:0h5m16s) 
CPU  0 inst:   53000003 cyc:   30804939 now IPC :1.82360: AVG IPC :1.70994: L2-Pf-HR :0.53917: L2-HR :0.57382: (Sim:0h5m23s) 
CPU  0 inst:   54000001 cyc:   31352510 now IPC :1.82624: AVG IPC :1.71204: L2-Pf-HR :0.53781: L2-HR :0.57274: (Sim:0h5m29s) 
CPU  0 inst:   55000003 cyc:   31988725 now IPC :1.57180: AVG IPC :1.70916: L2-Pf-HR :0.53940: L2-HR :0.57413: (Sim:0h5m36s) 
CPU  0 inst:   56000000 cyc:   32527255 now IPC :1.85690: AVG IPC :1.71168: L2-Pf-HR :0.54413: L2-HR :0.57812: (Sim:0h5m42s) 
CPU  0 inst:   57000001 cyc:   33259485 now IPC :1.36569: AVG IPC :1.70383: L2-Pf-HR :0.54460: L2-HR :0.57876: (Sim:0h5m49s) 
CPU  0 inst:   58000001 cyc:   33862336 now IPC :1.65878: AVG IPC :1.70301: L2-Pf-HR :0.54347: L2-HR :0.57780: (Sim:0h5m56s) 
CPU  0 inst:   59000002 cyc:   34426547 now IPC :1.77239: AVG IPC :1.70418: L2-Pf-HR :0.54237: L2-HR :0.57675: (Sim:0h6m3s) 
CPU  0 inst:   60000000 cyc:   34973519 now IPC :1.82824: AVG IPC :1.70618: L2-Pf-HR :0.54096: L2-HR :0.57547: (Sim:0h6m9s) 
CPU  0 inst:   61000003 cyc:   35528954 now IPC :1.80040: AVG IPC :1.70769: L2-Pf-HR :0.53975: L2-HR :0.57434: (Sim:0h6m16s) 
CPU  0 inst:   62000002 cyc:   36079064 now IPC :1.81782: AVG IPC :1.70942: L2-Pf-HR :0.53856: L2-HR :0.57342: (Sim:0h6m22s) 
CPU  0 inst:   63000001 cyc:   36712556 now IPC :1.57855: AVG IPC :1.70710: L2-Pf-HR :0.53982: L2-HR :0.57467: (Sim:0h6m30s) 
CPU  0 inst:   64000000 cyc:   37248459 now IPC :1.86601: AVG IPC :1.70944: L2-Pf-HR :0.54388: L2-HR :0.57802: (Sim:0h6m35s) 
CPU  0 inst:   65000002 cyc:   37971259 now IPC :1.38351: AVG IPC :1.70308: L2-Pf-HR :0.54455: L2-HR :0.57877: (Sim:0h6m42s) 
CPU  0 inst:   66000001 cyc:   38580895 now IPC :1.64032: AVG IPC :1.70206: L2-Pf-HR :0.54355: L2-HR :0.57792: (Sim:0h6m49s) 
CPU  0 inst:   67000003 cyc:   39140654 now IPC :1.78649: AVG IPC :1.70330: L2-Pf-HR :0.54255: L2-HR :0.57698: (Sim:0h6m54s) 
CPU  0 inst:   68000000 cyc:   39684245 now IPC :1.83961: AVG IPC :1.70521: L2-Pf-HR :0.54133: L2-HR :0.57587: (Sim:0h6m59s) 
CPU  0 inst:   69000001 cyc:   40241385 now IPC :1.79488: AVG IPC :1.70648: L2-Pf-HR :0.54021: L2-HR :0.57482: (Sim:0h7m4s) 
CPU  0 inst:   70000000 cyc:   40778998 now IPC :1.86007: AVG IPC :1.70856: L2-Pf-HR :0.53918: L2-HR :0.57403: (Sim:0h7m8s) 
CPU  0 inst:   71000003 cyc:   41406695 now IPC :1.59313: AVG IPC :1.70677: L2-Pf-HR :0.54020: L2-HR :0.57487: (Sim:0h7m12s) 
CPU  0 inst:   72000000 cyc:   41941885 now IPC :1.86849: AVG IPC :1.70888: L2-Pf-HR :0.54370: L2-HR :0.57781: (Sim:0h7m16s) 
CPU  0 inst:   73000002 cyc:   42659984 now IPC :1.39257: AVG IPC :1.70343: L2-Pf-HR :0.54440: L2-HR :0.57860: (Sim:0h7m21s) 
CPU  0 inst:   74000000 cyc:   43278588 now IPC :1.61654: AVG IPC :1.70216: L2-Pf-HR :0.54349: L2-HR :0.57785: (Sim:0h7m25s) 
CPU  0 inst:   75000002 cyc:   43839209 now IPC :1.78374: AVG IPC :1.70323: L2-Pf-HR :0.54263: L2-HR :0.57704: (Sim:0h7m30s) 
CPU  0 inst:   76000000 cyc:   44390211 now IPC :1.81487: AVG IPC :1.70464: L2-Pf-HR :0.54159: L2-HR :0.57609: (Sim:0h7m35s) 
CPU  0 inst:   77000000 cyc:   44954578 now IPC :1.77190: AVG IPC :1.70551: L2-Pf-HR :0.54055: L2-HR :0.57512: (Sim:0h7m42s) 
CPU  0 inst:   78000002 cyc:   45495049 now IPC :1.85024: AVG IPC :1.70726: L2-Pf-HR :0.53962: L2-HR :0.57441: (Sim:0h7m48s) 
CPU  0 inst:   79000002 cyc:   46128629 now IPC :1.57833: AVG IPC :1.70545: L2-Pf-HR :0.54028: L2-HR :0.57497: (Sim:0h7m55s) 
CPU  0 inst:   80000000 cyc:   46659148 now IPC :1.88494: AVG IPC :1.70754: L2-Pf-HR :0.54350: L2-HR :0.57768: (Sim:0h8m1s) 
CPU  0 inst:   81000003 cyc:   47382518 now IPC :1.38242: AVG IPC :1.70247: L2-Pf-HR :0.54424: L2-HR :0.57844: (Sim:0h8m8s) 
CPU  0 inst:   82000000 cyc:   47994410 now IPC :1.63427: AVG IPC :1.70158: L2-Pf-HR :0.54340: L2-HR :0.57771: (Sim:0h8m14s) 
CPU  0 inst:   83000003 cyc:   48545883 now IPC :1.81333: AVG IPC :1.70288: L2-Pf-HR :0.54261: L2-HR :0.57699: (Sim:0h8m21s) 
CPU  0 inst:   84000000 cyc:   49100535 now IPC :1.80293: AVG IPC :1.70403: L2-Pf-HR :0.54164: L2-HR :0.57608: (Sim:0h8m28s) 
CPU  0 inst:   85000000 cyc:   49659999 now IPC :1.78743: AVG IPC :1.70499: L2-Pf-HR :0.54069: L2-HR :0.57519: (Sim:0h8m34s) 
CPU  0 inst:   86000000 cyc:   50199513 now IPC :1.85352: AVG IPC :1.70662: L2-Pf-HR :0.53985: L2-HR :0.57456: (Sim:0h8m41s) 
CPU  0 inst:   87000001 cyc:   50836808 now IPC :1.56913: AVG IPC :1.70486: L2-Pf-HR :0.54032: L2-HR :0.57502: (Sim:0h8m47s) 
CPU  0 inst:   88000000 cyc:   51373361 now IPC :1.86375: AVG IPC :1.70655: L2-Pf-HR :0.54331: L2-HR :0.57754: (Sim:0h8m54s) 
CPU  0 inst:   89000003 cyc:   52086647 now IPC :1.40197: AVG IPC :1.70230: L2-Pf-HR :0.54411: L2-HR :0.57835: (Sim:0h9m0s) 
CPU  0 inst:   90000000 cyc:   52706910 now IPC :1.61221: AVG IPC :1.70122: L2-Pf-HR :0.54334: L2-HR :0.57766: (Sim:0h9m7s) 
CPU  0 inst:   91000002 cyc:   53271883 now IPC :1.77000: AVG IPC :1.70196: L2-Pf-HR :0.54265: L2-HR :0.57704: (Sim:0h9m13s) 
CPU  0 inst:   92000000 cyc:   53826503 now IPC :1.80303: AVG IPC :1.70302: L2-Pf-HR :0.54178: L2-HR :0.57624: (Sim:0h9m20s) 
CPU  0 inst:   93000000 cyc:   54378307 now IPC :1.81224: AVG IPC :1.70415: L2-Pf-HR :0.54094: L2-HR :0.57546: (Sim:0h9m26s) 
CPU  0 inst:   94000003 cyc:   54913434 now IPC :1.86872: AVG IPC :1.70579: L2-Pf-HR :0.54021: L2-HR :0.57489: (Sim:0h9m33s) 
CPU  0 inst:   95000003 cyc:   55546295 now IPC :1.58013: AVG IPC :1.70433: L2-Pf-HR :0.54050: L2-HR :0.57517: (Sim:0h9m40s) 
CPU  0 inst:   96000000 cyc:   56088469 now IPC :1.84442: AVG IPC :1.70571: L2-Pf-HR :0.54316: L2-HR :0.57743: (Sim:0h9m46s) 
CPU  0 inst:   97000003 cyc:   56813141 now IPC :1.37994: AVG IPC :1.70148: L2-Pf-HR :0.54407: L2-HR :0.57844: (Sim:0h9m53s) 
CPU  0 inst:   98000001 cyc:   57433448 now IPC :1.61210: AVG IPC :1.70050: L2-Pf-HR :0.54337: L2-HR :0.57782: (Sim:0h10m0s) 
CPU  0 inst:   99000002 cyc:   57995933 now IPC :1.77783: AVG IPC :1.70126: L2-Pf-HR :0.54275: L2-HR :0.57724: (Sim:0h10m6s) 
CPU  0 inst:  100000000 cyc:   58553021 now IPC :1.79504: AVG IPC :1.70217: L2-Pf-HR :0.54196: L2-HR :0.57651: (Sim:0h10m13s) 
CPU  0 inst:  101000001 cyc:   59104574 now IPC :1.81306: AVG IPC :1.70322: L2-Pf-HR :0.54114: L2-HR :0.57579: (Sim:0h10m20s) 
CPU  0 inst:  102000002 cyc:   59650566 now IPC :1.83153: AVG IPC :1.70441: L2-Pf-HR :0.54044: L2-HR :0.57521: (Sim:0h10m26s) 
CPU  0 inst:  103000002 cyc:   60279499 now IPC :1.58999: AVG IPC :1.70320: L2-Pf-HR :0.54062: L2-HR :0.57536: (Sim:0h10m33s) 
CPU  0 inst:  104000000 cyc:   60827013 now IPC :1.82643: AVG IPC :1.70433: L2-Pf-HR :0.54311: L2-HR :0.57766: (Sim:0h10m40s) 
CPU  0 inst:  105000001 cyc:   61550072 now IPC :1.38301: AVG IPC :1.70049: L2-Pf-HR :0.54401: L2-HR :0.57853: (Sim:0h10m47s) 
CPU  0 inst:  106000001 cyc:   62166004 now IPC :1.62356: AVG IPC :1.69972: L2-Pf-HR :0.54335: L2-HR :0.57797: (Sim:0h10m54s) 
CPU  0 inst:  107000002 cyc:   62731881 now IPC :1.76717: AVG IPC :1.70034: L2-Pf-HR :0.54277: L2-HR :0.57742: (Sim:0h11m0s) 
CPU  0 inst:  108000000 cyc:   63288032 now IPC :1.79807: AVG IPC :1.70121: L2-Pf-HR :0.54202: L2-HR :0.57672: (Sim:0h11m7s) 
CPU  0 inst:  109000000 cyc:   63839255 now IPC :1.81415: AVG IPC :1.70220: L2-Pf-HR :0.54128: L2-HR :0.57605: (Sim:0h11m13s) 
CPU  0 inst:  110000002 cyc:   64385825 now IPC :1.82960: AVG IPC :1.70330: L2-Pf-HR :0.54065: L2-HR :0.57552: (Sim:0h11m20s) 
CPU  0 inst:  111000000 cyc:   65019386 now IPC :1.57838: AVG IPC :1.70206: L2-Pf-HR :0.54072: L2-HR :0.57563: (Sim:0h11m27s) 
CPU  0 inst:  112000000 cyc:   65571609 now IPC :1.81086: AVG IPC :1.70299: L2-Pf-HR :0.54308: L2-HR :0.57764: (Sim:0h11m33s) 
CPU  0 inst:  113000001 cyc:   66288359 now IPC :1.39519: AVG IPC :1.69961: L2-Pf-HR :0.54401: L2-HR :0.57854: (Sim:0h11m40s) 
CPU  0 inst:  114000001 cyc:   66899964 now IPC :1.63504: AVG IPC :1.69901: L2-Pf-HR :0.54339: L2-HR :0.57803: (Sim:0h11m47s) 
CPU  0 inst:  115000000 cyc:   67474014 now IPC :1.74201: AVG IPC :1.69938: L2-Pf-HR :0.54288: L2-HR :0.57754: (Sim:0h11m53s) 
CPU  0 inst:  116000000 cyc:   68031796 now IPC :1.79282: AVG IPC :1.70016: L2-Pf-HR :0.54217: L2-HR :0.57689: (Sim:0h12m0s) 
CPU  0 inst:  117000001 cyc:   68577147 now IPC :1.83368: AVG IPC :1.70124: L2-Pf-HR :0.54149: L2-HR :0.57627: (Sim:0h12m6s) 
CPU  0 inst:  118000000 cyc:   69126982 now IPC :1.81873: AVG IPC :1.70219: L2-Pf-HR :0.54089: L2-HR :0.57578: (Sim:0h12m13s) 
CPU  0 inst:  119000001 cyc:   69742663 now IPC :1.62422: AVG IPC :1.70149: L2-Pf-HR :0.54084: L2-HR :0.57578: (Sim:0h12m19s) 
CPU  0 inst:  120000000 cyc:   70286748 now IPC :1.83795: AVG IPC :1.70256: L2-Pf-HR :0.54295: L2-HR :0.57750: (Sim:0h12m25s) 
CPU  0 inst:  121000001 cyc:   70997095 now IPC :1.40776: AVG IPC :1.69957: L2-Pf-HR :0.54387: L2-HR :0.57837: (Sim:0h12m32s) 
CPU  0 inst:  122000003 cyc:   71606455 now IPC :1.64107: AVG IPC :1.69906: L2-Pf-HR :0.54335: L2-HR :0.57791: (Sim:0h12m38s) 
CPU  0 inst:  123000003 cyc:   72181003 now IPC :1.74050: AVG IPC :1.69940: L2-Pf-HR :0.54284: L2-HR :0.57741: (Sim:0h12m45s) 
CPU  0 inst:  124000000 cyc:   72727556 now IPC :1.82964: AVG IPC :1.70039: L2-Pf-HR :0.54217: L2-HR :0.57680: (Sim:0h12m52s) 
CPU  0 inst:  125000002 cyc:   73277164 now IPC :1.81948: AVG IPC :1.70130: L2-Pf-HR :0.54154: L2-HR :0.57622: (Sim:0h12m58s) 
CPU  0 inst:  126000003 cyc:   73823664 now IPC :1.82983: AVG IPC :1.70226: L2-Pf-HR :0.54095: L2-HR :0.57573: (Sim:0h13m5s) 
CPU  0 inst:  127000002 cyc:   74447972 now IPC :1.60177: AVG IPC :1.70141: L2-Pf-HR :0.54085: L2-HR :0.57567: (Sim:0h13m11s) 
CPU  0 inst:  128000000 cyc:   74994801 now IPC :1.82872: AVG IPC :1.70235: L2-Pf-HR :0.54279: L2-HR :0.57727: (Sim:0h13m17s) 
CPU  0 inst:  129000002 cyc:   77300815 now IPC :0.43365: AVG IPC :1.66401: L2-Pf-HR :0.54008: L2-HR :0.57743: (Sim:0h13m26s) 
CPU  0 inst:  130000002 cyc:   83826603 now IPC :0.15324: AVG IPC :1.54501: L2-Pf-HR :0.52791: L2-HR :0.57556: (Sim:0h13m44s) 
CPU  0 inst:  131000002 cyc:   90350824 now IPC :0.15327: AVG IPC :1.44341: L2-Pf-HR :0.51647: L2-HR :0.57387: (Sim:0h14m2s) 
CPU  0 inst:  132000000 cyc:   94016603 now IPC :0.27279: AVG IPC :1.39729: L2-Pf-HR :0.51540: L2-HR :0.57300: (Sim:0h14m13s) 
CPU  0 inst:  133000000 cyc:   97507994 now IPC :0.28642: AVG IPC :1.35711: L2-Pf-HR :0.51504: L2-HR :0.57236: (Sim:0h14m24s) 
CPU  0 inst:  134000000 cyc:  100999152 now IPC :0.28644: AVG IPC :1.31974: L2-Pf-HR :0.51470: L2-HR :0.57175: (Sim:0h14m35s) 
CPU  0 inst:  135000002 cyc:  104491395 now IPC :0.28635: AVG IPC :1.28487: L2-Pf-HR :0.51434: L2-HR :0.57114: (Sim:0h14m46s) 
CPU  0 inst:  136000000 cyc:  107983144 now IPC :0.28639: AVG IPC :1.25229: L2-Pf-HR :0.51399: L2-HR :0.57052: (Sim:0h14m57s) 
CPU  0 inst:  137000000 cyc:  111475181 now IPC :0.28637: AVG IPC :1.22177: L2-Pf-HR :0.51365: L2-HR :0.56992: (Sim:0h15m8s) 
CPU  0 inst:  138000000 cyc:  114966711 now IPC :0.28641: AVG IPC :1.19311: L2-Pf-HR :0.51330: L2-HR :0.56933: (Sim:0h15m18s) 
CPU  0 inst:  139000000 cyc:  118458429 now IPC :0.28639: AVG IPC :1.16617: L2-Pf-HR :0.51294: L2-HR :0.56872: (Sim:0h15m29s) 
CPU  0 inst:  140000000 cyc:  121950372 now IPC :0.28637: AVG IPC :1.14077: L2-Pf-HR :0.51250: L2-HR :0.56807: (Sim:0h15m40s) 
CPU  0 inst:  141000002 cyc:  125444302 now IPC :0.28621: AVG IPC :1.11678: L2-Pf-HR :0.51207: L2-HR :0.56743: (Sim:0h15m51s) 
CPU  0 inst:  142000002 cyc:  128935624 now IPC :0.28642: AVG IPC :1.09412: L2-Pf-HR :0.51166: L2-HR :0.56681: (Sim:0h16m2s) 
CPU  0 inst:  143000001 cyc:  132426163 now IPC :0.28649: AVG IPC :1.07268: L2-Pf-HR :0.51130: L2-HR :0.56623: (Sim:0h16m13s) 
CPU  0 inst:  144000000 cyc:  135917829 now IPC :0.28640: AVG IPC :1.05233: L2-Pf-HR :0.51094: L2-HR :0.56565: (Sim:0h16m23s) 
CPU  0 inst:  145000000 cyc:  139409654 now IPC :0.28638: AVG IPC :1.03301: L2-Pf-HR :0.51052: L2-HR :0.56504: (Sim:0h16m34s) 
CPU  0 inst:  146000000 cyc:  142901677 now IPC :0.28637: AVG IPC :1.01464: L2-Pf-HR :0.51013: L2-HR :0.56444: (Sim:0h16m45s) 
CPU  0 inst:  147000000 cyc:  146397328 now IPC :0.28607: AVG IPC :0.99713: L2-Pf-HR :0.50974: L2-HR :0.56386: (Sim:0h16m56s) 
CPU  0 inst:  148000000 cyc:  149888896 now IPC :0.28640: AVG IPC :0.98046: L2-Pf-HR :0.50940: L2-HR :0.56331: (Sim:0h17m6s) 
CPU  0 inst:  149000000 cyc:  153380179 now IPC :0.28643: AVG IPC :0.96456: L2-Pf-HR :0.50904: L2-HR :0.56276: (Sim:0h17m17s) 
CPU  0 inst:  150000000 cyc:  156872522 now IPC :0.28634: AVG IPC :0.94937: L2-Pf-HR :0.50863: L2-HR :0.56217: (Sim:0h17m28s) 
CPU  0 inst:  151000002 cyc:  160363983 now IPC :0.28641: AVG IPC :0.93485: L2-Pf-HR :0.50827: L2-HR :0.56162: (Sim:0h17m39s) 
CPU  0 inst:  152000000 cyc:  163855092 now IPC :0.28644: AVG IPC :0.92095: L2-Pf-HR :0.50793: L2-HR :0.56109: (Sim:0h17m50s) 
CPU  0 inst:  153000002 cyc:  167346688 now IPC :0.28640: AVG IPC :0.90763: L2-Pf-HR :0.50760: L2-HR :0.56057: (Sim:0h18m1s) 
CPU  0 inst:  154000000 cyc:  170839850 now IPC :0.28627: AVG IPC :0.89485: L2-Pf-HR :0.50722: L2-HR :0.56001: (Sim:0h18m11s) 
CPU  0 inst:  155000000 cyc:  174332236 now IPC :0.28634: AVG IPC :0.88259: L2-Pf-HR :0.50679: L2-HR :0.55943: (Sim:0h18m22s) 
CPU  0 inst:  156000000 cyc:  177823807 now IPC :0.28640: AVG IPC :0.87082: L2-Pf-HR :0.50639: L2-HR :0.55887: (Sim:0h18m33s) 
CPU  0 inst:  157000000 cyc:  181317184 now IPC :0.28626: AVG IPC :0.85950: L2-Pf-HR :0.50603: L2-HR :0.55835: (Sim:0h18m44s) 
CPU  0 inst:  158000000 cyc:  184809588 now IPC :0.28634: AVG IPC :0.84861: L2-Pf-HR :0.50565: L2-HR :0.55781: (Sim:0h18m54s) 
CPU  0 inst:  159000000 cyc:  188301511 now IPC :0.28638: AVG IPC :0.83813: L2-Pf-HR :0.50530: L2-HR :0.55730: (Sim:0h19m5s) 
CPU  0 inst:  160000000 cyc:  191793536 now IPC :0.28637: AVG IPC :0.82803: L2-Pf-HR :0.50495: L2-HR :0.55679: (Sim:0h19m12s) 
CPU  0 inst:  161000002 cyc:  195284931 now IPC :0.28642: AVG IPC :0.81830: L2-Pf-HR :0.50467: L2-HR :0.55633: (Sim:0h19m23s) 
CPU  0 inst:  162000001 cyc:  198775688 now IPC :0.28647: AVG IPC :0.80891: L2-Pf-HR :0.50431: L2-HR :0.55581: (Sim:0h19m34s) 
CPU  0 inst:  163000000 cyc:  202268065 now IPC :0.28634: AVG IPC :0.79985: L2-Pf-HR :0.50385: L2-HR :0.55524: (Sim:0h19m44s) 
CPU  0 inst:  164000000 cyc:  204076508 now IPC :0.55296: AVG IPC :0.79765: L2-Pf-HR :0.50289: L2-HR :0.55444: (Sim:0h19m53s) 
CPU  0 inst:  165000002 cyc:  204655555 now IPC :1.72698: AVG IPC :0.80029: L2-Pf-HR :0.50300: L2-HR :0.55441: (Sim:0h19m59s) 
CPU  0 inst:  166000000 cyc:  205295369 now IPC :1.56295: AVG IPC :0.80268: L2-Pf-HR :0.50316: L2-HR :0.55448: (Sim:0h20m6s) 
CPU  0 inst:  167000003 cyc:  205965898 now IPC :1.49136: AVG IPC :0.80493: L2-Pf-HR :0.50330: L2-HR :0.55468: (Sim:0h20m13s) 
CPU  0 inst:  168000000 cyc:  206465546 now IPC :2.00140: AVG IPC :0.80784: L2-Pf-HR :0.50332: L2-HR :0.55464: (Sim:0h20m19s) 
CPU  0 inst:  169000001 cyc:  207037287 now IPC :1.74905: AVG IPC :0.81045: L2-Pf-HR :0.50335: L2-HR :0.55461: (Sim:0h20m25s) 
CPU  0 inst:  170000002 cyc:  207620921 now IPC :1.71340: AVG IPC :0.81300: L2-Pf-HR :0.50399: L2-HR :0.55518: (Sim:0h20m33s) 
CPU  0 inst:  171000003 cyc:  208135701 now IPC :1.94258: AVG IPC :0.81581: L2-Pf-HR :0.50381: L2-HR :0.55499: (Sim:0h20m39s) 
CPU  0 inst:  172000000 cyc:  208839548 now IPC :1.42076: AVG IPC :0.81786: L2-Pf-HR :0.50374: L2-HR :0.55513: (Sim:0h20m46s) 
CPU  0 inst:  173000003 cyc:  209378454 now IPC :1.85562: AVG IPC :0.82054: L2-Pf-HR :0.50392: L2-HR :0.55521: (Sim:0h20m52s) 
CPU  0 inst:  174000002 cyc:  209924420 now IPC :1.83161: AVG IPC :0.82318: L2-Pf-HR :0.50391: L2-HR :0.55510: (Sim:0h20m58s) 
CPU  0 inst:  175000000 cyc:  210590302 now IPC :1.50176: AVG IPC :0.82534: L2-Pf-HR :0.50439: L2-HR :0.55562: (Sim:0h21m5s) 
CPU  0 inst:  176000000 cyc:  211096953 now IPC :1.97375: AVG IPC :0.82811: L2-Pf-HR :0.50434: L2-HR :0.55551: (Sim:0h21m12s) 
CPU  0 inst:  177000001 cyc:  211598996 now IPC :1.99186: AVG IPC :0.83088: L2-Pf-HR :0.50445: L2-HR :0.55553: (Sim:0h21m17s) 
CPU  0 inst:  178000001 cyc:  212152973 now IPC :1.80513: AVG IPC :0.83344: L2-Pf-HR :0.50516: L2-HR :0.55605: (Sim:0h21m24s) 
CPU  0 inst:  179000003 cyc:  212727460 now IPC :1.74069: AVG IPC :0.83590: L2-Pf-HR :0.50478: L2-HR :0.55575: (Sim:0h21m31s) 
CPU  0 inst:  180000000 cyc:  213255014 now IPC :1.89553: AVG IPC :0.83853: L2-Pf-HR :0.50476: L2-HR :0.55575: (Sim:0h21m37s) 
CPU  0 inst:  181000000 cyc:  213979048 now IPC :1.38115: AVG IPC :0.84038: L2-Pf-HR :0.50469: L2-HR :0.55585: (Sim:0h21m44s) 
CPU  0 inst:  182000002 cyc:  214515869 now IPC :1.86282: AVG IPC :0.84295: L2-Pf-HR :0.50479: L2-HR :0.55586: (Sim:0h21m50s) 
CPU  0 inst:  183000000 cyc:  215116053 now IPC :1.66615: AVG IPC :0.84525: L2-Pf-HR :0.50510: L2-HR :0.55606: (Sim:0h21m57s) 
CPU  0 inst:  184000000 cyc:  215720737 now IPC :1.65376: AVG IPC :0.84753: L2-Pf-HR :0.50508: L2-HR :0.55612: (Sim:0h22m4s) 
CPU  0 inst:  185000003 cyc:  216219928 now IPC :2.00325: AVG IPC :0.85021: L2-Pf-HR :0.50512: L2-HR :0.55608: (Sim:0h22m10s) 
CPU  0 inst:  186000002 cyc:  216781038 now IPC :1.78218: AVG IPC :0.85263: L2-Pf-HR :0.50516: L2-HR :0.55607: (Sim:0h22m16s) 
CPU  0 inst:  187000000 cyc:  217355604 now IPC :1.74044: AVG IPC :0.85499: L2-Pf-HR :0.50546: L2-HR :0.55632: (Sim:0h22m23s) 
CPU  0 inst:  188000000 cyc:  217867489 now IPC :1.95356: AVG IPC :0.85758: L2-Pf-HR :0.50528: L2-HR :0.55613: (Sim:0h22m29s) 
CPU  0 inst:  189000002 cyc:  218590371 now IPC :1.38335: AVG IPC :0.85933: L2-Pf-HR :0.50528: L2-HR :0.55631: (Sim:0h22m36s) 
CPU  0 inst:  190000002 cyc:  219140005 now IPC :1.81939: AVG IPC :0.86175: L2-Pf-HR :0.50545: L2-HR :0.55638: (Sim:0h22m42s) 
CPU  0 inst:  191000003 cyc:  219700879 now IPC :1.78293: AVG IPC :0.86411: L2-Pf-HR :0.50544: L2-HR :0.55630: (Sim:0h22m48s) 
CPU  0 inst:  192000000 cyc:  220344117 now IPC :1.55463: AVG IPC :0.86614: L2-Pf-HR :0.50582: L2-HR :0.55674: (Sim:0h22m56s) 
CPU  0 inst:  193000002 cyc:  220846325 now IPC :1.99121: AVG IPC :0.86871: L2-Pf-HR :0.50579: L2-HR :0.55665: (Sim:0h23m2s) 
CPU  0 inst:  194000001 cyc:  221363041 now IPC :1.93530: AVG IPC :0.87121: L2-Pf-HR :0.50584: L2-HR :0.55659: (Sim:0h23m7s) 
CPU  0 inst:  195000002 cyc:  221950052 now IPC :1.70355: AVG IPC :0.87342: L2-Pf-HR :0.50646: L2-HR :0.55711: (Sim:0h23m12s) 
CPU  0 inst:  196000000 cyc:  222495747 now IPC :1.83252: AVG IPC :0.87578: L2-Pf-HR :0.50614: L2-HR :0.55684: (Sim:0h23m17s) 
CPU  0 inst:  197000003 cyc:  223030669 now IPC :1.86944: AVG IPC :0.87818: L2-Pf-HR :0.50617: L2-HR :0.55688: (Sim:0h23m22s) 
CPU  0 inst:  198000001 cyc:  223746849 now IPC :1.39629: AVG IPC :0.87984: L2-Pf-HR :0.50611: L2-HR :0.55695: (Sim:0h23m29s) 
CPU  0 inst:  199000003 cyc:  224289832 now IPC :1.84168: AVG IPC :0.88218: L2-Pf-HR :0.50612: L2-HR :0.55689: (Sim:0h23m35s) 
CPU  0 inst:  200000000 cyc:  224884936 now IPC :1.68037: AVG IPC :0.88430: L2-Pf-HR :0.50644: L2-HR :0.55710: (Sim:0h23m42s) 
CPU  0 inst:  201000000 cyc:  225483426 now IPC :1.67087: AVG IPC :0.88640: L2-Pf-HR :0.50633: L2-HR :0.55708: (Sim:0h23m48s) 
CPU  0 inst:  202000000 cyc:  225984439 now IPC :1.99596: AVG IPC :0.88887: L2-Pf-HR :0.50638: L2-HR :0.55705: (Sim:0h23m54s) 
CPU  0 inst:  203000000 cyc:  226546593 now IPC :1.77887: AVG IPC :0.89109: L2-Pf-HR :0.50648: L2-HR :0.55709: (Sim:0h24m1s) 
CPU  0 inst:  204000000 cyc:  227112566 now IPC :1.76687: AVG IPC :0.89328: L2-Pf-HR :0.50668: L2-HR :0.55726: (Sim:0h24m8s) 
CPU  0 inst:  205000003 cyc:  227639244 now IPC :1.89870: AVG IPC :0.89562: L2-Pf-HR :0.50643: L2-HR :0.55701: (Sim:0h24m14s) 
CPU  0 inst:  206000002 cyc:  228362071 now IPC :1.38346: AVG IPC :0.89717: L2-Pf-HR :0.50651: L2-HR :0.55725: (Sim:0h24m21s) 
CPU  0 inst:  207000002 cyc:  228906544 now IPC :1.83664: AVG IPC :0.89941: L2-Pf-HR :0.50661: L2-HR :0.55727: (Sim:0h24m27s) 
CPU  0 inst:  208000000 cyc:  229498558 now IPC :1.68915: AVG IPC :0.90146: L2-Pf-HR :0.50646: L2-HR :0.55713: (Sim:0h24m33s) 
CPU  0 inst:  209000001 cyc:  230099751 now IPC :1.66336: AVG IPC :0.90346: L2-Pf-HR :0.50685: L2-HR :0.55753: (Sim:0h24m41s) 
CPU  0 inst:  210000003 cyc:  230603746 now IPC :1.98415: AVG IPC :0.90583: L2-Pf-HR :0.50686: L2-HR :0.55749: (Sim:0h24m47s) 
CPU  0 inst:  211000003 cyc:  231121533 now IPC :1.93130: AVG IPC :0.90813: L2-Pf-HR :0.50684: L2-HR :0.55740: (Sim:0h24m53s) 
CPU  0 inst:  212000000 cyc:  231721444 now IPC :1.66691: AVG IPC :0.91011: L2-Pf-HR :0.50733: L2-HR :0.55785: (Sim:0h25m0s) 
CPU  0 inst:  213000000 cyc:  232234683 now IPC :1.94841: AVG IPC :0.91241: L2-Pf-HR :0.50715: L2-HR :0.55768: (Sim:0h25m6s) 
CPU  0 inst:  214000000 cyc:  232768123 now IPC :1.87463: AVG IPC :0.91463: L2-Pf-HR :0.50734: L2-HR :0.55783: (Sim:0h25m12s) 
CPU  0 inst:  215000000 cyc:  233500636 now IPC :1.36516: AVG IPC :0.91605: L2-Pf-HR :0.50716: L2-HR :0.55778: (Sim:0h25m19s) 
CPU  0 inst:  216000000 cyc:  234040528 now IPC :1.85222: AVG IPC :0.91821: L2-Pf-HR :0.50716: L2-HR :0.55771: (Sim:0h25m25s) 
CPU  0 inst:  217000000 cyc:  234634163 now IPC :1.68454: AVG IPC :0.92016: L2-Pf-HR :0.50753: L2-HR :0.55798: (Sim:0h25m31s) 
CPU  0 inst:  218000001 cyc:  235232030 now IPC :1.67261: AVG IPC :0.92208: L2-Pf-HR :0.50741: L2-HR :0.55797: (Sim:0h25m36s) 
CPU  0 inst:  219000000 cyc:  235743201 now IPC :1.95629: AVG IPC :0.92433: L2-Pf-HR :0.50751: L2-HR :0.55798: (Sim:0h25m40s) 
CPU  0 inst:  220000000 cyc:  236292510 now IPC :1.82047: AVG IPC :0.92643: L2-Pf-HR :0.50768: L2-HR :0.55811: (Sim:0h25m45s) 
CPU  0 inst:  221000003 cyc:  236866583 now IPC :1.74194: AVG IPC :0.92841: L2-Pf-HR :0.50774: L2-HR :0.55816: (Sim:0h25m50s) 
CPU  0 inst:  222000002 cyc:  237404489 now IPC :1.85906: AVG IPC :0.93053: L2-Pf-HR :0.50741: L2-HR :0.55788: (Sim:0h25m56s) 
CPU  0 inst:  223000000 cyc:  238100587 now IPC :1.43658: AVG IPC :0.93201: L2-Pf-HR :0.50766: L2-HR :0.55820: (Sim:0h26m0s) 
CPU  0 inst:  224000000 cyc:  238635995 now IPC :1.86773: AVG IPC :0.93412: L2-Pf-HR :0.50770: L2-HR :0.55818: (Sim:0h26m5s) 
CPU  0 inst:  225000003 cyc:  239245835 now IPC :1.63978: AVG IPC :0.93593: L2-Pf-HR :0.50763: L2-HR :0.55808: (Sim:0h26m10s) 
CPU  0 inst:  226000003 cyc:  239851618 now IPC :1.65076: AVG IPC :0.93774: L2-Pf-HR :0.50796: L2-HR :0.55842: (Sim:0h26m16s) 
CPU  0 inst:  227000000 cyc:  240365610 now IPC :1.94555: AVG IPC :0.93990: L2-Pf-HR :0.50800: L2-HR :0.55837: (Sim:0h26m20s) 
CPU  0 inst:  228000000 cyc:  240892879 now IPC :1.89657: AVG IPC :0.94201: L2-Pf-HR :0.50795: L2-HR :0.55826: (Sim:0h26m26s) 
CPU  0 inst:  229000000 cyc:  241495320 now IPC :1.65991: AVG IPC :0.94380: L2-Pf-HR :0.50832: L2-HR :0.55862: (Sim:0h26m32s) 
CPU  0 inst:  230000001 cyc:  242018391 now IPC :1.91179: AVG IPC :0.94590: L2-Pf-HR :0.50815: L2-HR :0.55843: (Sim:0h26m36s) 
CPU  0 inst:  231000003 cyc:  242629539 now IPC :1.63627: AVG IPC :0.94765: L2-Pf-HR :0.50822: L2-HR :0.55858: (Sim:0h26m41s) 
CPU  0 inst:  232000000 cyc:  243277392 now IPC :1.54356: AVG IPC :0.94924: L2-Pf-HR :0.50810: L2-HR :0.55851: (Sim:0h26m46s) 
CPU  0 inst:  233000003 cyc:  243810447 now IPC :1.87598: AVG IPC :0.95128: L2-Pf-HR :0.50813: L2-HR :0.55847: (Sim:0h26m51s) 
CPU  0 inst:  234000003 cyc:  244398949 now IPC :1.69923: AVG IPC :0.95309: L2-Pf-HR :0.50849: L2-HR :0.55874: (Sim:0h26m56s) 
CPU  0 inst:  235000001 cyc:  244992982 now IPC :1.68340: AVG IPC :0.95486: L2-Pf-HR :0.50826: L2-HR :0.55861: (Sim:0h27m1s) 
CPU  0 inst:  236000000 cyc:  245510264 now IPC :1.93318: AVG IPC :0.95693: L2-Pf-HR :0.50826: L2-HR :0.55854: (Sim:0h27m5s) 
CPU  0 inst:  237000002 cyc:  246060337 now IPC :1.81794: AVG IPC :0.95887: L2-Pf-HR :0.50845: L2-HR :0.55868: (Sim:0h27m12s) 
CPU  0 inst:  238000002 cyc:  246641900 now IPC :1.71950: AVG IPC :0.96067: L2-Pf-HR :0.50846: L2-HR :0.55868: (Sim:0h27m19s) 
CPU  0 inst:  239000000 cyc:  247182494 now IPC :1.84981: AVG IPC :0.96262: L2-Pf-HR :0.50819: L2-HR :0.55845: (Sim:0h27m25s) 
CPU  0 inst:  240000000 cyc:  247890470 now IPC :1.41248: AVG IPC :0.96391: L2-Pf-HR :0.50839: L2-HR :0.55873: (Sim:0h27m31s) 
CPU  0 inst:  241000000 cyc:  248426120 now IPC :1.86689: AVG IPC :0.96586: L2-Pf-HR :0.50842: L2-HR :0.55872: (Sim:0h27m37s) 
CPU  0 inst:  242000003 cyc:  249031842 now IPC :1.65093: AVG IPC :0.96754: L2-Pf-HR :0.50842: L2-HR :0.55869: (Sim:0h27m43s) 
CPU  0 inst:  243000001 cyc:  249644434 now IPC :1.63240: AVG IPC :0.96918: L2-Pf-HR :0.50868: L2-HR :0.55898: (Sim:0h27m50s) 
CPU  0 inst:  244000000 cyc:  250158224 now IPC :1.94632: AVG IPC :0.97119: L2-Pf-HR :0.50871: L2-HR :0.55894: (Sim:0h27m57s) 
CPU  0 inst:  245000002 cyc:  250716394 now IPC :1.79157: AVG IPC :0.97302: L2-Pf-HR :0.50852: L2-HR :0.55874: (Sim:0h28m3s) 
CPU  0 inst:  246000000 cyc:  251290042 now IPC :1.74323: AVG IPC :0.97479: L2-Pf-HR :0.50900: L2-HR :0.55914: (Sim:0h28m10s) 
CPU  0 inst:  247000003 cyc:  251806352 now IPC :1.93683: AVG IPC :0.97677: L2-Pf-HR :0.50886: L2-HR :0.55900: (Sim:0h28m16s) 
CPU  0 inst:  248000000 cyc:  252507664 now IPC :1.42589: AVG IPC :0.97802: L2-Pf-HR :0.50870: L2-HR :0.55901: (Sim:0h28m23s) 
CPU  0 inst:  249000003 cyc:  253072157 now IPC :1.77151: AVG IPC :0.97980: L2-Pf-HR :0.50887: L2-HR :0.55909: (Sim:0h28m30s) 
CPU  0 inst:  250000003 cyc:  253612971 now IPC :1.84906: AVG IPC :0.98166: L2-Pf-HR :0.50893: L2-HR :0.55908: (Sim:0h28m36s) 
CPU  0 inst:  251000002 cyc:  254219368 now IPC :1.64908: AVG IPC :0.98326: L2-Pf-HR :0.50944: L2-HR :0.55946: (Sim:0h28m43s) 
CPU  0 inst:  252000000 cyc:  254809964 now IPC :1.69320: AVG IPC :0.98491: L2-Pf-HR :0.50916: L2-HR :0.55929: (Sim:0h28m50s) 
CPU  0 inst:  253000000 cyc:  255321311 now IPC :1.95562: AVG IPC :0.98686: L2-Pf-HR :0.50914: L2-HR :0.55922: (Sim:0h28m56s) 
CPU  0 inst:  254000001 cyc:  255867664 now IPC :1.83032: AVG IPC :0.98867: L2-Pf-HR :0.50948: L2-HR :0.55947: (Sim:0h29m2s) 
CPU  0 inst:  255000000 cyc:  256446488 now IPC :1.72764: AVG IPC :0.99034: L2-Pf-HR :0.50945: L2-HR :0.55946: (Sim:0h29m9s) 
CPU  0 inst:  256000000 cyc:  256981945 now IPC :1.86756: AVG IPC :0.99218: L2-Pf-HR :0.50926: L2-HR :0.55929: (Sim:0h29m16s) 
CPU  0 inst:  257000002 cyc:  257685646 now IPC :1.42106: AVG IPC :0.99335: L2-Pf-HR :0.50931: L2-HR :0.55945: (Sim:0h29m23s) 
CPU  0 inst:  258000001 cyc:  258219373 now IPC :1.87362: AVG IPC :0.99518: L2-Pf-HR :0.50937: L2-HR :0.55946: (Sim:0h29m28s) 
CPU  0 inst:  259000003 cyc:  258831731 now IPC :1.63303: AVG IPC :0.99669: L2-Pf-HR :0.50939: L2-HR :0.55944: (Sim:0h29m33s) 
CPU  0 inst:  260000000 cyc:  259424200 now IPC :1.68785: AVG IPC :0.99828: L2-Pf-HR :0.50955: L2-HR :0.55963: (Sim:0h29m38s) 
CPU  0 inst:  261000002 cyc:  259937614 now IPC :1.94775: AVG IPC :1.00016: L2-Pf-HR :0.50957: L2-HR :0.55960: (Sim:0h29m44s) 
CPU  0 inst:  262000003 cyc:  260499825 now IPC :1.77869: AVG IPC :1.00185: L2-Pf-HR :0.50945: L2-HR :0.55947: (Sim:0h29m50s) 
CPU  0 inst:  263000002 cyc:  261063721 now IPC :1.77337: AVG IPC :1.00352: L2-Pf-HR :0.50983: L2-HR :0.55978: (Sim:0h29m57s) 
CPU  0 inst:  264000000 cyc:  261574163 now IPC :1.95908: AVG IPC :1.00539: L2-Pf-HR :0.50972: L2-HR :0.55967: (Sim:0h30m4s) 
CPU  0 inst:  265000002 cyc:  262281274 now IPC :1.41421: AVG IPC :1.00650: L2-Pf-HR :0.50958: L2-HR :0.55968: (Sim:0h30m11s) 
CPU  0 inst:  266000001 cyc:  262827485 now IPC :1.83079: AVG IPC :1.00822: L2-Pf-HR :0.50966: L2-HR :0.55970: (Sim:0h30m18s) 
CPU  0 inst:  267000001 cyc:  263367947 now IPC :1.85027: AVG IPC :1.00995: L2-Pf-HR :0.50971: L2-HR :0.55966: (Sim:0h30m24s) 
CPU  0 inst:  268000000 cyc:  263984929 now IPC :1.62079: AVG IPC :1.01139: L2-Pf-HR :0.51015: L2-HR :0.56003: (Sim:0h30m32s) 
CPU  0 inst:  269000002 cyc:  264553053 now IPC :1.76018: AVG IPC :1.01300: L2-Pf-HR :0.50986: L2-HR :0.55982: (Sim:0h30m39s) 
CPU  0 inst:  270000003 cyc:  265066665 now IPC :1.94700: AVG IPC :1.01482: L2-Pf-HR :0.50984: L2-HR :0.55975: (Sim:0h30m45s) 
CPU  0 inst:  271000002 cyc:  265625717 now IPC :1.78874: AVG IPC :1.01645: L2-Pf-HR :0.51016: L2-HR :0.55997: (Sim:0h30m52s) 
CPU  0 inst:  272000000 cyc:  266200708 now IPC :1.73915: AVG IPC :1.01802: L2-Pf-HR :0.51002: L2-HR :0.55988: (Sim:0h30m59s) 
CPU  0 inst:  273000003 cyc:  266747179 now IPC :1.82993: AVG IPC :1.01969: L2-Pf-HR :0.50992: L2-HR :0.55978: (Sim:0h31m5s) 
CPU  0 inst:  274000001 cyc:  267460617 now IPC :1.40166: AVG IPC :1.02071: L2-Pf-HR :0.50997: L2-HR :0.55991: (Sim:0h31m13s) 
CPU  0 inst:  275000003 cyc:  267992125 now IPC :1.88144: AVG IPC :1.02242: L2-Pf-HR :0.51005: L2-HR :0.55996: (Sim:0h31m19s) 
CPU  0 inst:  276000000 cyc:  268611876 now IPC :1.61355: AVG IPC :1.02379: L2-Pf-HR :0.51011: L2-HR :0.55997: (Sim:0h31m26s) 
CPU  0 inst:  277000003 cyc:  269214484 now IPC :1.65946: AVG IPC :1.02522: L2-Pf-HR :0.51020: L2-HR :0.56009: (Sim:0h31m33s) 
CPU  0 inst:  278000003 cyc:  269722512 now IPC :1.96840: AVG IPC :1.02700: L2-Pf-HR :0.51022: L2-HR :0.56008: (Sim:0h31m39s) 
CPU  0 inst:  279000002 cyc:  270283511 now IPC :1.78253: AVG IPC :1.02858: L2-Pf-HR :0.51017: L2-HR :0.56001: (Sim:0h31m46s) 
CPU  0 inst:  280000000 cyc:  270853788 now IPC :1.75353: AVG IPC :1.03011: L2-Pf-HR :0.51049: L2-HR :0.56027: (Sim:0h31m53s) 
CPU  0 inst:  281000002 cyc:  271360887 now IPC :1.97201: AVG IPC :1.03188: L2-Pf-HR :0.51038: L2-HR :0.56016: (Sim:0h31m59s) 
CPU  0 inst:  282000000 cyc:  272062587 now IPC :1.42511: AVG IPC :1.03289: L2-Pf-HR :0.51028: L2-HR :0.56019: (Sim:0h32m7s) 
CPU  0 inst:  283000001 cyc:  272606686 now IPC :1.83790: AVG IPC :1.03451: L2-Pf-HR :0.51035: L2-HR :0.56022: (Sim:0h32m13s) 
CPU  0 inst:  284000000 cyc:  273153901 now IPC :1.82743: AVG IPC :1.03610: L2-Pf-HR :0.51032: L2-HR :0.56013: (Sim:0h32m19s) 
CPU  0 inst:  285000001 cyc:  273795100 now IPC :1.55958: AVG IPC :1.03733: L2-Pf-HR :0.51063: L2-HR :0.56050: (Sim:0h32m27s) 
CPU  0 inst:  286000003 cyc:  274323611 now IPC :1.89211: AVG IPC :1.03898: L2-Pf-HR :0.51052: L2-HR :0.56035: (Sim:0h32m34s) 
CPU  0 inst:  287000001 cyc:  274835569 now IPC :1.95328: AVG IPC :1.04069: L2-Pf-HR :0.51053: L2-HR :0.56031: (Sim:0h32m40s) 
CPU  0 inst:  288000000 cyc:  275396704 now IPC :1.78210: AVG IPC :1.04221: L2-Pf-HR :0.51092: L2-HR :0.56060: (Sim:0h32m47s) 
CPU  0 inst:  289000001 cyc:  275976916 now IPC :1.72351: AVG IPC :1.04365: L2-Pf-HR :0.51074: L2-HR :0.56046: (Sim:0h32m54s) 
CPU  0 inst:  290000000 cyc:  276513982 now IPC :1.86197: AVG IPC :1.04524: L2-Pf-HR :0.51069: L2-HR :0.56042: (Sim:0h33m0s) 
CPU  0 inst:  291000000 cyc:  277222347 now IPC :1.41170: AVG IPC :1.04618: L2-Pf-HR :0.51064: L2-HR :0.56046: (Sim:0h33m7s) 
CPU  0 inst:  292000000 cyc:  277767049 now IPC :1.83587: AVG IPC :1.04773: L2-Pf-HR :0.51074: L2-HR :0.56049: (Sim:0h33m14s) 
CPU  0 inst:  293000002 cyc:  278365542 now IPC :1.67087: AVG IPC :1.04908: L2-Pf-HR :0.51084: L2-HR :0.56057: (Sim:0h33m20s) 
CPU  0 inst:  294000001 cyc:  278977858 now IPC :1.63314: AVG IPC :1.05037: L2-Pf-HR :0.51084: L2-HR :0.56061: (Sim:0h33m27s) 
CPU  0 inst:  295000000 cyc:  279478070 now IPC :1.99915: AVG IPC :1.05207: L2-Pf-HR :0.51086: L2-HR :0.56059: (Sim:0h33m33s) 
Finished CPU 0 instr: 293000003 cyc: 278498709 AVG IPC: 1.05207 (Sim time: 0h33m33s)

ChampSim completed all CPUs

[ROI Statistics]
Core_0_instructions 293000003
Core_0_cycles 278498709
Core_0_IPC 1.05207

Core_0_branch_prediction_accuracy 98.23789
Core_0_branch_MPKI 0.42863
Core_0_average_ROB_occupancy_at_mispredict 248.05611

Core_0_L1D_total_access 125656821
Core_0_L1D_total_hit 119128675 L1D_total_Hit Ratio: 0.94805
Core_0_L1D_total_miss 6528146
Core_0_L1D_loads 66759617
Core_0_L1D_load_hit 65404418 L1D_load_Hit Ratio: 0.97970
Core_0_L1D_load_miss 1355199
Core_0_L1D_RFOs 5892068
Core_0_L1D_RFO_hit 5562157 L1D_RFO_Hit Ratio: 0.94401
Core_0_L1D_RFO_miss 329911
Core_0_L1D_prefetches 53005136
Core_0_L1D_prefetch_hit 48162100 L1D_prefetch_Hit Ratio: 0.90863
Core_0_L1D_prefetch_miss 4843036
Core_0_L1D_writebacks 0
Core_0_L1D_writeback_hit 0 L1D_writeback_Hit Ratio: -nan
Core_0_L1D_writeback_miss 0
Core_0_L1D_prefetch_requested 56162630
Core_0_L1D_prefetch_issued 56162630
Core_0_L1D_prefetch_useful 4365115 L1D_Useful Ratio: 0.07772
Core_0_L1D_prefetch_useless 512925
Core_0_L1D_prefetch_late 306596
Core_0_L1D_average_miss_latency 5238649.73461

Core_0_L1I_total_access 67023943
Core_0_L1I_total_hit 67019100 L1I_total_Hit Ratio: 0.99993
Core_0_L1I_total_miss 4843
Core_0_L1I_loads 67023943
Core_0_L1I_load_hit 67019100 L1I_load_Hit Ratio: 0.99993
Core_0_L1I_load_miss 4843
Core_0_L1I_RFOs 0
Core_0_L1I_RFO_hit 0 L1I_RFO_Hit Ratio: -nan
Core_0_L1I_RFO_miss 0
Core_0_L1I_prefetches 0
Core_0_L1I_prefetch_hit 0 L1I_prefetch_Hit Ratio: -nan
Core_0_L1I_prefetch_miss 0
Core_0_L1I_writebacks 0
Core_0_L1I_writeback_hit 0 L1I_writeback_Hit Ratio: -nan
Core_0_L1I_writeback_miss 0
Core_0_L1I_prefetch_requested 0
Core_0_L1I_prefetch_issued 0
Core_0_L1I_prefetch_useful 0 L1I_Useful Ratio: -nan
Core_0_L1I_prefetch_useless 0
Core_0_L1I_prefetch_late 0
Core_0_L1I_average_miss_latency 298.15858

Core_0_L2C_total_access 12127255
Core_0_L2C_total_hit 6798459 L2C_total_Hit Ratio: 0.56059
Core_0_L2C_total_miss 5328796
Core_0_L2C_loads 1053493
Core_0_L2C_load_hit 563924 L2C_load_Hit Ratio: 0.53529
Core_0_L2C_load_miss 489569
Core_0_L2C_RFOs 329901
Core_0_L2C_RFO_hit 37530 L2C_RFO_Hit Ratio: 0.11376
Core_0_L2C_RFO_miss 292371
Core_0_L2C_prefetches 9154644
Core_0_L2C_prefetch_hit 4676716 L2C_prefetch_Hit Ratio: 0.51086
Core_0_L2C_prefetch_miss 4477928
Core_0_L2C_writebacks 1589217
Core_0_L2C_writeback_hit 1520289 L2C_writeback_Hit Ratio: 0.95663
Core_0_L2C_writeback_miss 68928
Core_0_L2C_prefetch_requested 4829999
Core_0_L2C_prefetch_issued 4653593
Core_0_L2C_prefetch_useful 445170 L2C_Useful Ratio: 0.09566
Core_0_L2C_prefetch_useless 4067784
Core_0_L2C_prefetch_late 40741
Core_0_L2C_average_miss_latency 130.72926

Core_0_LLC_total_access 6810366
Core_0_LLC_total_hit 5185843 LLC_total_Hit Ratio: 0.76146
Core_0_LLC_total_miss 1624523
Core_0_LLC_loads 448927
Core_0_LLC_load_hit 265358 LLC_load_Hit Ratio: 0.59109
Core_0_LLC_load_miss 183569
Core_0_LLC_RFOs 292359
Core_0_LLC_RFO_hit 29558 LLC_RFO_Hit Ratio: 0.10110
Core_0_LLC_RFO_miss 262801
Core_0_LLC_prefetches 4518542
Core_0_LLC_prefetch_hit 3340395 LLC_prefetch_Hit Ratio: 0.73926
Core_0_LLC_prefetch_miss 1178147
Core_0_LLC_writebacks 1550538
Core_0_LLC_writeback_hit 1550532 LLC_writeback_Hit Ratio: 1.00000
Core_0_LLC_writeback_miss 6
Core_0_LLC_prefetch_requested 0
Core_0_LLC_prefetch_issued 0
Core_0_LLC_prefetch_useful 162189 LLC_Useful Ratio: inf
Core_0_LLC_prefetch_useless 1010832
Core_0_LLC_prefetch_late 0
Core_0_LLC_average_miss_latency 333.27181

Core_0_major_page_fault 0
Core_0_minor_page_fault 13331

CPU 0 L1D berti prefetcher final stats
0-> Hits: 19, Late: 5, Early: 0, Misses: 0
1-> Hits: 2, Late: 1, Early: 0, Misses: 0
3-> Hits: 5, Late: 0, Early: 0, Misses: 0
4-> Hits: 2, Late: 0, Early: 0, Misses: 0
5-> Hits: 3, Late: 1, Early: 0, Misses: 0
6-> Hits: 1, Late: 0, Early: 0, Misses: 0
7-> Hits: 2, Late: 0, Early: 0, Misses: 0
8-> Hits: 0, Late: 1, Early: 0, Misses: 0
9-> Hits: 2, Late: 0, Early: 0, Misses: 0
a-> Hits: 0, Late: 2, Early: 0, Misses: 0
b-> Hits: 5, Late: 0, Early: 0, Misses: 0
e-> Hits: 35, Late: 0, Early: 0, Misses: 0
10-> Hits: 2, Late: 0, Early: 0, Misses: 0
11-> Hits: 0, Late: 1, Early: 0, Misses: 0
13-> Hits: 1, Late: 0, Early: 0, Misses: 0
14-> Hits: 2, Late: 0, Early: 0, Misses: 0
16-> Hits: 12, Late: 0, Early: 0, Misses: 0
17-> Hits: 3, Late: 0, Early: 0, Misses: 0
18-> Hits: 1, Late: 0, Early: 0, Misses: 0
1a-> Hits: 634, Late: 2, Early: 0, Misses: 0
1b-> Hits: 1, Late: 0, Early: 0, Misses: 0
1c-> Hits: 37, Late: 0, Early: 0, Misses: 0
1d-> Hits: 3, Late: 1, Early: 0, Misses: 0
1e-> Hits: 3, Late: 0, Early: 0, Misses: 0
1f-> Hits: 1, Late: 0, Early: 0, Misses: 0
20-> Hits: 2, Late: 1, Early: 0, Misses: 0
21-> Hits: 434, Late: 24, Early: 0, Misses: 0
22-> Hits: 2, Late: 2, Early: 0, Misses: 0
24-> Hits: 19, Late: 0, Early: 0, Misses: 0
25-> Hits: 3, Late: 0, Early: 0, Misses: 0
27-> Hits: 100, Late: 0, Early: 0, Misses: 0
28-> Hits: 10, Late: 0, Early: 0, Misses: 0
2a-> Hits: 510, Late: 2, Early: 0, Misses: 0
2b-> Hits: 6, Late: 0, Early: 0, Misses: 0
2c-> Hits: 1, Late: 0, Early: 0, Misses: 0
2f-> Hits: 5, Late: 0, Early: 0, Misses: 0
30-> Hits: 7, Late: 2, Early: 0, Misses: 0
33-> Hits: 11, Late: 0, Early: 0, Misses: 0
34-> Hits: 12, Late: 0, Early: 0, Misses: 0
35-> Hits: 166, Late: 460, Early: 0, Misses: 0
36-> Hits: 2, Late: 0, Early: 0, Misses: 0
37-> Hits: 1, Late: 0, Early: 0, Misses: 0
38-> Hits: 4, Late: 0, Early: 0, Misses: 0
39-> Hits: 2, Late: 0, Early: 0, Misses: 0
3a-> Hits: 2, Late: 0, Early: 0, Misses: 0
3c-> Hits: 2, Late: 0, Early: 0, Misses: 0
3d-> Hits: 0, Late: 32, Early: 0, Misses: 0
3e-> Hits: 3, Late: 0, Early: 0, Misses: 0
3f-> Hits: 1, Late: 0, Early: 0, Misses: 0
40-> Hits: 2, Late: 2, Early: 0, Misses: 0
43-> Hits: 2, Late: 0, Early: 0, Misses: 0
44-> Hits: 3, Late: 0, Early: 0, Misses: 0
45-> Hits: 2, Late: 0, Early: 0, Misses: 0
46-> Hits: 2, Late: 0, Early: 0, Misses: 0
47-> Hits: 2, Late: 0, Early: 0, Misses: 0
48-> Hits: 37, Late: 0, Early: 0, Misses: 0
49-> Hits: 39, Late: 0, Early: 0, Misses: 0
4a-> Hits: 34, Late: 0, Early: 0, Misses: 0
4b-> Hits: 34, Late: 0, Early: 0, Misses: 0
4d-> Hits: 34, Late: 0, Early: 0, Misses: 0
4e-> Hits: 1, Late: 0, Early: 0, Misses: 0
4f-> Hits: 32, Late: 0, Early: 0, Misses: 0
50-> Hits: 8, Late: 2, Early: 0, Misses: 0
51-> Hits: 32, Late: 0, Early: 0, Misses: 0
52-> Hits: 32, Late: 0, Early: 0, Misses: 0
53-> Hits: 35, Late: 0, Early: 0, Misses: 0
54-> Hits: 3, Late: 0, Early: 0, Misses: 0
56-> Hits: 1, Late: 0, Early: 0, Misses: 0
58-> Hits: 6, Late: 0, Early: 0, Misses: 0
5a-> Hits: 2, Late: 0, Early: 0, Misses: 0
5c-> Hits: 3, Late: 1, Early: 0, Misses: 0
5d-> Hits: 3, Late: 0, Early: 0, Misses: 0
61-> Hits: 3, Late: 0, Early: 0, Misses: 0
62-> Hits: 2, Late: 0, Early: 0, Misses: 0
63-> Hits: 0, Late: 2, Early: 0, Misses: 0
64-> Hits: 633, Late: 2, Early: 0, Misses: 0
69-> Hits: 2, Late: 0, Early: 0, Misses: 0
6a-> Hits: 2, Late: 0, Early: 0, Misses: 0
6b-> Hits: 1, Late: 0, Early: 0, Misses: 0
6f-> Hits: 1, Late: 0, Early: 0, Misses: 0
70-> Hits: 2, Late: 1, Early: 0, Misses: 0
76-> Hits: 3, Late: 1, Early: 0, Misses: 0
77-> Hits: 2, Late: 0, Early: 0, Misses: 0
78-> Hits: 638, Late: 5, Early: 0, Misses: 53
79-> Hits: 1, Late: 0, Early: 0, Misses: 0
7a-> Hits: 3, Late: 0, Early: 0, Misses: 0
7b-> Hits: 3, Late: 2, Early: 0, Misses: 0
7c-> Hits: 1, Late: 0, Early: 0, Misses: 0
7d-> Hits: 1, Late: 0, Early: 0, Misses: 0
7e-> Hits: 3, Late: 0, Early: 0, Misses: 0
7f-> Hits: 5, Late: 0, Early: 0, Misses: 0
80-> Hits: 50222, Late: 2443, Early: 0, Misses: 161
81-> Hits: 1, Late: 0, Early: 0, Misses: 0
82-> Hits: 2, Late: 0, Early: 0, Misses: 0
84-> Hits: 4, Late: 1, Early: 0, Misses: 0
86-> Hits: 1, Late: 0, Early: 0, Misses: 0
88-> Hits: 48494, Late: 815, Early: 0, Misses: 108
89-> Hits: 31, Late: 2, Early: 0, Misses: 0
8a-> Hits: 2, Late: 0, Early: 0, Misses: 0
8f-> Hits: 27, Late: 0, Early: 0, Misses: 7
90-> Hits: 0, Late: 1, Early: 0, Misses: 0
91-> Hits: 2, Late: 0, Early: 0, Misses: 0
92-> Hits: 51740, Late: 48, Early: 0, Misses: 1461
94-> Hits: 436, Late: 46, Early: 0, Misses: 214
95-> Hits: 1, Late: 0, Early: 0, Misses: 0
96-> Hits: 3, Late: 0, Early: 0, Misses: 0
98-> Hits: 3, Late: 0, Early: 0, Misses: 0
99-> Hits: 1, Late: 0, Early: 0, Misses: 0
9a-> Hits: 5, Late: 0, Early: 0, Misses: 0
9b-> Hits: 3, Late: 0, Early: 0, Misses: 0
9c-> Hits: 22140, Late: 0, Early: 0, Misses: 132
9d-> Hits: 2, Late: 0, Early: 0, Misses: 0
9e-> Hits: 2, Late: 0, Early: 0, Misses: 0
9f-> Hits: 4, Late: 0, Early: 0, Misses: 0
a0-> Hits: 3842, Late: 44, Early: 0, Misses: 17
a1-> Hits: 5, Late: 0, Early: 0, Misses: 0
a2-> Hits: 1, Late: 0, Early: 0, Misses: 0
a3-> Hits: 3, Late: 0, Early: 0, Misses: 0
a4-> Hits: 7, Late: 0, Early: 0, Misses: 0
a5-> Hits: 4, Late: 0, Early: 0, Misses: 0
a6-> Hits: 53200, Late: 32, Early: 0, Misses: 18
a7-> Hits: 4, Late: 0, Early: 0, Misses: 0
a8-> Hits: 3, Late: 0, Early: 0, Misses: 0
a9-> Hits: 4, Late: 0, Early: 0, Misses: 0
aa-> Hits: 3, Late: 0, Early: 0, Misses: 0
ab-> Hits: 5, Late: 0, Early: 0, Misses: 0
ac-> Hits: 3373, Late: 49, Early: 0, Misses: 16
ad-> Hits: 4, Late: 0, Early: 0, Misses: 0
ae-> Hits: 7, Late: 0, Early: 0, Misses: 0
af-> Hits: 3, Late: 31, Early: 0, Misses: 0
b0-> Hits: 15, Late: 6, Early: 0, Misses: 0
b1-> Hits: 1, Late: 1, Early: 0, Misses: 0
b3-> Hits: 6, Late: 0, Early: 0, Misses: 0
b4-> Hits: 4, Late: 0, Early: 0, Misses: 0
b6-> Hits: 37977, Late: 14455, Early: 0, Misses: 823
b7-> Hits: 4101, Late: 0, Early: 0, Misses: 0
b8-> Hits: 2, Late: 1, Early: 0, Misses: 0
ba-> Hits: 2, Late: 0, Early: 0, Misses: 0
bb-> Hits: 1497, Late: 50943, Early: 0, Misses: 804
bc-> Hits: 2, Late: 0, Early: 0, Misses: 0
bf-> Hits: 1, Late: 0, Early: 0, Misses: 0
c0-> Hits: 11, Late: 34, Early: 0, Misses: 0
c1-> Hits: 1, Late: 0, Early: 0, Misses: 0
c2-> Hits: 6, Late: 1, Early: 0, Misses: 0
c3-> Hits: 5, Late: 0, Early: 0, Misses: 1
c4-> Hits: 583, Late: 59, Early: 0, Misses: 48
c5-> Hits: 1, Late: 0, Early: 0, Misses: 0
c6-> Hits: 87, Late: 0, Early: 0, Misses: 0
c7-> Hits: 4, Late: 0, Early: 0, Misses: 1
c8-> Hits: 10, Late: 0, Early: 0, Misses: 0
c9-> Hits: 1, Late: 0, Early: 0, Misses: 0
ca-> Hits: 1, Late: 0, Early: 0, Misses: 0
cb-> Hits: 28626, Late: 24497, Early: 0, Misses: 820
cc-> Hits: 1, Late: 0, Early: 0, Misses: 0
cf-> Hits: 1, Late: 0, Early: 0, Misses: 0
d0-> Hits: 2378, Late: 53813, Early: 0, Misses: 1150
d1-> Hits: 3, Late: 0, Early: 0, Misses: 0
d2-> Hits: 6, Late: 0, Early: 0, Misses: 0
d3-> Hits: 259, Late: 435, Early: 0, Misses: 0
d4-> Hits: 1, Late: 0, Early: 0, Misses: 0
d5-> Hits: 2, Late: 0, Early: 0, Misses: 0
d6-> Hits: 2, Late: 0, Early: 0, Misses: 0
d7-> Hits: 1, Late: 0, Early: 0, Misses: 0
d8-> Hits: 1, Late: 0, Early: 0, Misses: 0
d9-> Hits: 26, Late: 25, Early: 0, Misses: 0
da-> Hits: 1823, Late: 1932, Early: 0, Misses: 341
db-> Hits: 2, Late: 0, Early: 0, Misses: 0
dd-> Hits: 2, Late: 0, Early: 0, Misses: 0
df-> Hits: 1, Late: 0, Early: 0, Misses: 0
e0-> Hits: 12, Late: 6, Early: 0, Misses: 0
e1-> Hits: 1, Late: 0, Early: 0, Misses: 0
e5-> Hits: 526, Late: 3229, Early: 0, Misses: 341
ea-> Hits: 2, Late: 0, Early: 0, Misses: 0
ef-> Hits: 2121, Late: 1628, Early: 0, Misses: 347
f3-> Hits: 695, Late: 1, Early: 0, Misses: 0
f4-> Hits: 1, Late: 0, Early: 0, Misses: 0
f6-> Hits: 2, Late: 0, Early: 0, Misses: 0
f7-> Hits: 4, Late: 0, Early: 0, Misses: 0
f8-> Hits: 3, Late: 0, Early: 0, Misses: 0
f9-> Hits: 14, Late: 2, Early: 0, Misses: 0
fa-> Hits: 2, Late: 0, Early: 0, Misses: 0
fb-> Hits: 619, Late: 0, Early: 0, Misses: 76
fc-> Hits: 1, Late: 0, Early: 0, Misses: 0
fd-> Hits: 2, Late: 0, Early: 0, Misses: 0
fe-> Hits: 1, Late: 0, Early: 0, Misses: 0
ff-> Hits: 4, Late: 0, Early: 0, Misses: 0
100-> Hits: 11, Late: 2, Early: 0, Misses: 0
101-> Hits: 1, Late: 0, Early: 0, Misses: 0
103-> Hits: 1, Late: 0, Early: 0, Misses: 0
104-> Hits: 0, Late: 1, Early: 0, Misses: 0
106-> Hits: 1, Late: 0, Early: 0, Misses: 0
10a-> Hits: 1, Late: 0, Early: 0, Misses: 0
10b-> Hits: 3, Late: 0, Early: 0, Misses: 0
10d-> Hits: 3, Late: 0, Early: 0, Misses: 0
10e-> Hits: 1, Late: 0, Early: 0, Misses: 0
10f-> Hits: 1, Late: 0, Early: 0, Misses: 0
110-> Hits: 1, Late: 1, Early: 0, Misses: 0
112-> Hits: 12, Late: 1, Early: 0, Misses: 0
114-> Hits: 0, Late: 1, Early: 0, Misses: 0
115-> Hits: 162785, Late: 879, Early: 0, Misses: 177
116-> Hits: 1, Late: 0, Early: 0, Misses: 0
117-> Hits: 3, Late: 0, Early: 0, Misses: 0
118-> Hits: 1, Late: 0, Early: 0, Misses: 0
11a-> Hits: 3, Late: 0, Early: 0, Misses: 0
11b-> Hits: 3, Late: 0, Early: 0, Misses: 0
11c-> Hits: 27811, Late: 46, Early: 0, Misses: 5
11d-> Hits: 1, Late: 0, Early: 0, Misses: 0
11e-> Hits: 2, Late: 0, Early: 0, Misses: 0
11f-> Hits: 142783, Late: 457, Early: 0, Misses: 121
120-> Hits: 2, Late: 2, Early: 0, Misses: 0
121-> Hits: 1, Late: 0, Early: 0, Misses: 0
122-> Hits: 2, Late: 0, Early: 0, Misses: 0
123-> Hits: 1, Late: 0, Early: 0, Misses: 0
124-> Hits: 3, Late: 0, Early: 0, Misses: 0
125-> Hits: 1, Late: 0, Early: 0, Misses: 0
126-> Hits: 19384, Late: 4, Early: 0, Misses: 0
127-> Hits: 163119, Late: 162, Early: 0, Misses: 560
128-> Hits: 659, Late: 26, Early: 0, Misses: 0
129-> Hits: 2, Late: 0, Early: 0, Misses: 0
12b-> Hits: 16, Late: 0, Early: 0, Misses: 0
12c-> Hits: 141477, Late: 290, Early: 0, Misses: 1608
12d-> Hits: 2, Late: 0, Early: 0, Misses: 0
12e-> Hits: 9152, Late: 4, Early: 0, Misses: 0
12f-> Hits: 1, Late: 0, Early: 0, Misses: 0
130-> Hits: 3, Late: 1, Early: 0, Misses: 0
132-> Hits: 1, Late: 0, Early: 0, Misses: 0
133-> Hits: 1, Late: 0, Early: 0, Misses: 0
134-> Hits: 0, Late: 1, Early: 0, Misses: 0
136-> Hits: 1, Late: 0, Early: 0, Misses: 0
137-> Hits: 1, Late: 0, Early: 0, Misses: 0
138-> Hits: 1, Late: 0, Early: 0, Misses: 0
139-> Hits: 25722, Late: 2, Early: 0, Misses: 0
13a-> Hits: 8, Late: 0, Early: 0, Misses: 0
13b-> Hits: 1, Late: 0, Early: 0, Misses: 0
13c-> Hits: 1, Late: 0, Early: 0, Misses: 0
13e-> Hits: 1, Late: 0, Early: 0, Misses: 0
13f-> Hits: 1, Late: 0, Early: 0, Misses: 0
140-> Hits: 1, Late: 3, Early: 0, Misses: 0
142-> Hits: 14392, Late: 7, Early: 0, Misses: 1
143-> Hits: 1, Late: 0, Early: 0, Misses: 0
144-> Hits: 8047, Late: 9, Early: 0, Misses: 0
145-> Hits: 1, Late: 0, Early: 0, Misses: 0
147-> Hits: 34, Late: 0, Early: 0, Misses: 0
148-> Hits: 2, Late: 0, Early: 0, Misses: 0
149-> Hits: 4, Late: 0, Early: 0, Misses: 0
14a-> Hits: 163845, Late: 0, Early: 0, Misses: 0
14d-> Hits: 0, Late: 1, Early: 0, Misses: 0
14f-> Hits: 33, Late: 0, Early: 0, Misses: 0
154-> Hits: 24722, Late: 11, Early: 0, Misses: 0
155-> Hits: 2, Late: 2, Early: 0, Misses: 0
156-> Hits: 0, Late: 1, Early: 0, Misses: 0
157-> Hits: 10947, Late: 12, Early: 0, Misses: 3
159-> Hits: 36, Late: 0, Early: 0, Misses: 0
15b-> Hits: 2, Late: 0, Early: 0, Misses: 0
15d-> Hits: 139171, Late: 1597, Early: 0, Misses: 2595
15f-> Hits: 55886, Late: 32, Early: 0, Misses: 0
160-> Hits: 1, Late: 0, Early: 0, Misses: 0
163-> Hits: 234, Late: 0, Early: 0, Misses: 47
164-> Hits: 695, Late: 0, Early: 0, Misses: 0
165-> Hits: 2, Late: 0, Early: 0, Misses: 0
168-> Hits: 1, Late: 0, Early: 0, Misses: 0
169-> Hits: 104403, Late: 27, Early: 0, Misses: 72
16a-> Hits: 24160, Late: 12, Early: 0, Misses: 0
16b-> Hits: 34, Late: 0, Early: 0, Misses: 0
16d-> Hits: 64, Late: 0, Early: 0, Misses: 0
16e-> Hits: 308, Late: 389, Early: 0, Misses: 0
16f-> Hits: 34, Late: 0, Early: 0, Misses: 0
171-> Hits: 32, Late: 0, Early: 0, Misses: 0
172-> Hits: 2, Late: 0, Early: 0, Misses: 0
173-> Hits: 140200, Late: 290, Early: 0, Misses: 1442
175-> Hits: 36111, Late: 39, Early: 0, Misses: 7
176-> Hits: 34, Late: 0, Early: 0, Misses: 0
177-> Hits: 33, Late: 0, Early: 0, Misses: 0
178-> Hits: 1, Late: 0, Early: 0, Misses: 0
17a-> Hits: 0, Late: 1, Early: 0, Misses: 0
17b-> Hits: 58630, Late: 0, Early: 0, Misses: 0
17c-> Hits: 4182, Late: 77, Early: 0, Misses: 39
17d-> Hits: 2, Late: 0, Early: 0, Misses: 0
17e-> Hits: 2, Late: 0, Early: 0, Misses: 0
180-> Hits: 13, Late: 6, Early: 0, Misses: 0
181-> Hits: 77500, Late: 76, Early: 0, Misses: 21
184-> Hits: 30, Late: 0, Early: 0, Misses: 0
185-> Hits: 30524, Late: 38, Early: 0, Misses: 9
188-> Hits: 2, Late: 0, Early: 0, Misses: 0
189-> Hits: 3, Late: 0, Early: 0, Misses: 0
18b-> Hits: 162967, Late: 195, Early: 0, Misses: 680
18c-> Hits: 3, Late: 0, Early: 0, Misses: 0
18e-> Hits: 1, Late: 0, Early: 0, Misses: 0
18f-> Hits: 1, Late: 0, Early: 0, Misses: 0
190-> Hits: 10, Late: 1, Early: 0, Misses: 0
192-> Hits: 2, Late: 0, Early: 0, Misses: 0
194-> Hits: 1, Late: 124, Early: 0, Misses: 0
195-> Hits: 2, Late: 0, Early: 0, Misses: 0
196-> Hits: 17550, Late: 3, Early: 0, Misses: 5
197-> Hits: 36396, Late: 11, Early: 0, Misses: 0
198-> Hits: 5, Late: 0, Early: 0, Misses: 0
199-> Hits: 6, Late: 124, Early: 0, Misses: 0
19a-> Hits: 3, Late: 0, Early: 0, Misses: 0
19b-> Hits: 7, Late: 0, Early: 0, Misses: 0
19c-> Hits: 3, Late: 0, Early: 0, Misses: 0
19d-> Hits: 12, Late: 1, Early: 0, Misses: 0
19e-> Hits: 2, Late: 0, Early: 0, Misses: 0
19f-> Hits: 4, Late: 0, Early: 0, Misses: 0
1a0-> Hits: 4, Late: 0, Early: 0, Misses: 0
1a1-> Hits: 5, Late: 0, Early: 0, Misses: 0
1a2-> Hits: 8949, Late: 14, Early: 0, Misses: 0
1a4-> Hits: 7, Late: 1, Early: 0, Misses: 0
1a5-> Hits: 1, Late: 0, Early: 0, Misses: 0
1a6-> Hits: 1, Late: 0, Early: 0, Misses: 0
1a7-> Hits: 4, Late: 0, Early: 0, Misses: 0
1a8-> Hits: 2, Late: 0, Early: 0, Misses: 0
1a9-> Hits: 9, Late: 0, Early: 0, Misses: 0
1ab-> Hits: 21220, Late: 4, Early: 0, Misses: 0
1ad-> Hits: 15535, Late: 65, Early: 0, Misses: 8
1ae-> Hits: 2, Late: 0, Early: 0, Misses: 0
1af-> Hits: 7, Late: 0, Early: 0, Misses: 0
1b0-> Hits: 5, Late: 2, Early: 0, Misses: 0
1b1-> Hits: 141477, Late: 1253, Early: 0, Misses: 635
1b3-> Hits: 163792, Late: 3, Early: 0, Misses: 49
1b5-> Hits: 2, Late: 2, Early: 0, Misses: 0
1b6-> Hits: 2, Late: 1, Early: 0, Misses: 0
1b7-> Hits: 70, Late: 3, Early: 0, Misses: 0
1b8-> Hits: 3, Late: 2, Early: 0, Misses: 0
1ba-> Hits: 1, Late: 0, Early: 0, Misses: 0
1bc-> Hits: 62960, Late: 11, Early: 0, Misses: 0
1bd-> Hits: 4, Late: 0, Early: 0, Misses: 0
1be-> Hits: 5, Late: 0, Early: 0, Misses: 0
1bf-> Hits: 7, Late: 0, Early: 0, Misses: 0
1c0-> Hits: 3, Late: 3, Early: 0, Misses: 0
1c2-> Hits: 0, Late: 56, Early: 0, Misses: 8
1c3-> Hits: 6, Late: 0, Early: 0, Misses: 0
1c4-> Hits: 3, Late: 0, Early: 0, Misses: 0
1c5-> Hits: 1, Late: 0, Early: 0, Misses: 0
1c6-> Hits: 4, Late: 0, Early: 0, Misses: 0
1c7-> Hits: 56677, Late: 72, Early: 0, Misses: 31
1c8-> Hits: 3, Late: 0, Early: 0, Misses: 0
1c9-> Hits: 1, Late: 0, Early: 0, Misses: 0
1ca-> Hits: 2, Late: 0, Early: 0, Misses: 0
1cc-> Hits: 1, Late: 2, Early: 0, Misses: 0
1cd-> Hits: 8, Late: 0, Early: 0, Misses: 0
1ce-> Hits: 3, Late: 0, Early: 0, Misses: 0
1d0-> Hits: 11, Late: 1, Early: 0, Misses: 0
1d2-> Hits: 151770, Late: 52, Early: 0, Misses: 1029
1d4-> Hits: 1, Late: 0, Early: 0, Misses: 0
1d6-> Hits: 6, Late: 0, Early: 0, Misses: 0
1d7-> Hits: 1, Late: 0, Early: 0, Misses: 0
1d8-> Hits: 7, Late: 0, Early: 0, Misses: 0
1da-> Hits: 2, Late: 0, Early: 0, Misses: 0
1db-> Hits: 5, Late: 1, Early: 0, Misses: 0
1dc-> Hits: 3512, Late: 7, Early: 0, Misses: 93
1dd-> Hits: 163684, Late: 150, Early: 0, Misses: 5
1de-> Hits: 9, Late: 1, Early: 0, Misses: 0
1df-> Hits: 13, Late: 0, Early: 0, Misses: 0
1e0-> Hits: 9, Late: 985, Early: 0, Misses: 0
1e1-> Hits: 8, Late: 1, Early: 0, Misses: 0
1e2-> Hits: 1, Late: 1, Early: 0, Misses: 0
1e3-> Hits: 22006, Late: 0, Early: 0, Misses: 6
1e4-> Hits: 1, Late: 0, Early: 0, Misses: 0
1e5-> Hits: 1, Late: 1, Early: 0, Misses: 0
1e6-> Hits: 143000, Late: 55, Early: 0, Misses: 305
1e7-> Hits: 2, Late: 0, Early: 0, Misses: 0
1e8-> Hits: 0, Late: 1, Early: 0, Misses: 0
1ea-> Hits: 0, Late: 1, Early: 0, Misses: 0
1eb-> Hits: 5, Late: 0, Early: 0, Misses: 0
1ec-> Hits: 4, Late: 982, Early: 0, Misses: 0
1ee-> Hits: 61119, Late: 32, Early: 0, Misses: 5
1ef-> Hits: 34, Late: 0, Early: 0, Misses: 0
1f0-> Hits: 14, Late: 482, Early: 0, Misses: 0
1f1-> Hits: 1, Late: 1, Early: 0, Misses: 0
1f2-> Hits: 1, Late: 0, Early: 0, Misses: 0
1f4-> Hits: 5, Late: 2, Early: 0, Misses: 0
1f6-> Hits: 1, Late: 0, Early: 0, Misses: 0
1f7-> Hits: 31, Late: 0, Early: 0, Misses: 0
1f8-> Hits: 5, Late: 0, Early: 0, Misses: 0
1f9-> Hits: 12, Late: 976, Early: 0, Misses: 0
1fa-> Hits: 1, Late: 0, Early: 0, Misses: 0
1fc-> Hits: 32, Late: 0, Early: 0, Misses: 0
1fd-> Hits: 1, Late: 1, Early: 0, Misses: 0
1fe-> Hits: 139683, Late: 1013, Early: 0, Misses: 2671
200-> Hits: 2, Late: 0, Early: 0, Misses: 0
201-> Hits: 5, Late: 0, Early: 0, Misses: 0
202-> Hits: 1, Late: 0, Early: 0, Misses: 0
203-> Hits: 14, Late: 0, Early: 0, Misses: 0
205-> Hits: 3, Late: 0, Early: 0, Misses: 0
206-> Hits: 5, Late: 984, Early: 0, Misses: 0
207-> Hits: 11, Late: 0, Early: 0, Misses: 0
208-> Hits: 10, Late: 476, Early: 0, Misses: 0
20a-> Hits: 38117, Late: 51, Early: 0, Misses: 1
20c-> Hits: 5, Late: 0, Early: 0, Misses: 0
20e-> Hits: 6, Late: 0, Early: 0, Misses: 0
20f-> Hits: 13, Late: 3, Early: 0, Misses: 0
210-> Hits: 4127, Late: 3, Early: 0, Misses: 0
212-> Hits: 5, Late: 0, Early: 0, Misses: 0
213-> Hits: 7, Late: 977, Early: 0, Misses: 0
214-> Hits: 9, Late: 5, Early: 0, Misses: 0
216-> Hits: 3, Late: 0, Early: 0, Misses: 0
217-> Hits: 11, Late: 1, Early: 0, Misses: 0
218-> Hits: 3, Late: 0, Early: 0, Misses: 0
219-> Hits: 0, Late: 1, Early: 0, Misses: 0
21a-> Hits: 8, Late: 1, Early: 0, Misses: 0
21d-> Hits: 2, Late: 0, Early: 0, Misses: 0
21e-> Hits: 1, Late: 983, Early: 0, Misses: 0
21f-> Hits: 26141, Late: 2, Early: 0, Misses: 0
220-> Hits: 5, Late: 4, Early: 0, Misses: 0
221-> Hits: 4, Late: 1, Early: 0, Misses: 0
224-> Hits: 1, Late: 2, Early: 0, Misses: 0
225-> Hits: 6, Late: 2, Early: 0, Misses: 0
226-> Hits: 1, Late: 0, Early: 0, Misses: 0
227-> Hits: 0, Late: 1, Early: 0, Misses: 0
228-> Hits: 1, Late: 0, Early: 0, Misses: 0
22a-> Hits: 4, Late: 0, Early: 0, Misses: 0
22b-> Hits: 13, Late: 979, Early: 0, Misses: 0
22c-> Hits: 5, Late: 0, Early: 0, Misses: 0
22d-> Hits: 3, Late: 0, Early: 0, Misses: 0
22e-> Hits: 1, Late: 0, Early: 0, Misses: 0
22f-> Hits: 3, Late: 0, Early: 0, Misses: 0
230-> Hits: 4, Late: 1, Early: 0, Misses: 0
231-> Hits: 7, Late: 0, Early: 0, Misses: 0
232-> Hits: 4, Late: 0, Early: 0, Misses: 0
233-> Hits: 4, Late: 0, Early: 0, Misses: 0
234-> Hits: 12517, Late: 1, Early: 0, Misses: 1
235-> Hits: 2, Late: 0, Early: 0, Misses: 0
236-> Hits: 1, Late: 0, Early: 0, Misses: 0
238-> Hits: 52, Late: 932, Early: 0, Misses: 0
23a-> Hits: 140653, Late: 792, Early: 0, Misses: 1927
23b-> Hits: 3, Late: 0, Early: 0, Misses: 0
23c-> Hits: 3, Late: 0, Early: 0, Misses: 0
23d-> Hits: 71, Late: 40, Early: 0, Misses: 0
23e-> Hits: 6, Late: 0, Early: 0, Misses: 0
23f-> Hits: 6, Late: 0, Early: 0, Misses: 0
240-> Hits: 10, Late: 5, Early: 0, Misses: 0
241-> Hits: 1, Late: 0, Early: 0, Misses: 0
245-> Hits: 7, Late: 0, Early: 0, Misses: 1
246-> Hits: 51777, Late: 15, Early: 0, Misses: 53
247-> Hits: 1, Late: 0, Early: 0, Misses: 0
248-> Hits: 4, Late: 0, Early: 0, Misses: 0
249-> Hits: 2, Late: 0, Early: 0, Misses: 0
24a-> Hits: 1, Late: 1, Early: 0, Misses: 0
24b-> Hits: 0, Late: 0, Early: 0, Misses: 1
24d-> Hits: 2, Late: 0, Early: 0, Misses: 0
24e-> Hits: 1, Late: 0, Early: 0, Misses: 0
24f-> Hits: 5, Late: 0, Early: 0, Misses: 0
250-> Hits: 4, Late: 1, Early: 0, Misses: 0
251-> Hits: 4, Late: 0, Early: 0, Misses: 0
252-> Hits: 4, Late: 1, Early: 0, Misses: 0
253-> Hits: 143236, Late: 16, Early: 0, Misses: 16
254-> Hits: 4, Late: 0, Early: 0, Misses: 0
255-> Hits: 2, Late: 1, Early: 0, Misses: 0
256-> Hits: 3, Late: 0, Early: 0, Misses: 0
258-> Hits: 4, Late: 0, Early: 0, Misses: 0
25a-> Hits: 3, Late: 0, Early: 0, Misses: 0
25c-> Hits: 1, Late: 0, Early: 0, Misses: 0
25d-> Hits: 1, Late: 0, Early: 0, Misses: 0
25e-> Hits: 1, Late: 0, Early: 0, Misses: 0
25f-> Hits: 8, Late: 2, Early: 0, Misses: 0
260-> Hits: 8590, Late: 8, Early: 0, Misses: 5
261-> Hits: 1, Late: 0, Early: 0, Misses: 0
262-> Hits: 11, Late: 4, Early: 0, Misses: 0
263-> Hits: 10, Late: 0, Early: 0, Misses: 0
264-> Hits: 2, Late: 0, Early: 0, Misses: 0
265-> Hits: 3, Late: 0, Early: 0, Misses: 0
266-> Hits: 4, Late: 0, Early: 0, Misses: 0
267-> Hits: 6, Late: 0, Early: 0, Misses: 0
268-> Hits: 66155, Late: 70, Early: 0, Misses: 44
269-> Hits: 1, Late: 0, Early: 0, Misses: 0
26a-> Hits: 2, Late: 0, Early: 0, Misses: 0
26b-> Hits: 1, Late: 0, Early: 0, Misses: 0
26d-> Hits: 32, Late: 0, Early: 0, Misses: 0
26e-> Hits: 125, Late: 0, Early: 0, Misses: 0
270-> Hits: 17, Late: 1, Early: 0, Misses: 0
271-> Hits: 1, Late: 0, Early: 0, Misses: 0
274-> Hits: 1, Late: 0, Early: 0, Misses: 0
275-> Hits: 32, Late: 0, Early: 0, Misses: 0
276-> Hits: 3937, Late: 146, Early: 0, Misses: 14
277-> Hits: 1, Late: 0, Early: 0, Misses: 0
278-> Hits: 1, Late: 0, Early: 0, Misses: 0
27a-> Hits: 32, Late: 0, Early: 0, Misses: 0
27b-> Hits: 5, Late: 0, Early: 0, Misses: 0
27c-> Hits: 2, Late: 0, Early: 0, Misses: 0
27d-> Hits: 26024, Late: 9, Early: 0, Misses: 0
27e-> Hits: 6, Late: 0, Early: 0, Misses: 0
27f-> Hits: 32, Late: 0, Early: 0, Misses: 0
280-> Hits: 0, Late: 2, Early: 0, Misses: 0
281-> Hits: 1, Late: 0, Early: 0, Misses: 0
282-> Hits: 3837, Late: 246, Early: 0, Misses: 18
283-> Hits: 140138, Late: 1501, Early: 0, Misses: 1721
284-> Hits: 4, Late: 0, Early: 0, Misses: 0
285-> Hits: 9, Late: 1, Early: 0, Misses: 0
289-> Hits: 0, Late: 1, Early: 0, Misses: 0
28a-> Hits: 2, Late: 0, Early: 0, Misses: 0
28f-> Hits: 10, Late: 0, Early: 0, Misses: 0
290-> Hits: 1, Late: 0, Early: 0, Misses: 0
291-> Hits: 1, Late: 0, Early: 0, Misses: 0
293-> Hits: 1, Late: 0, Early: 0, Misses: 0
297-> Hits: 1, Late: 0, Early: 0, Misses: 0
298-> Hits: 1, Late: 0, Early: 0, Misses: 0
299-> Hits: 29139, Late: 12, Early: 0, Misses: 0
29a-> Hits: 1, Late: 0, Early: 0, Misses: 0
29d-> Hits: 11, Late: 2, Early: 0, Misses: 0
29e-> Hits: 2, Late: 0, Early: 0, Misses: 0
29f-> Hits: 14, Late: 0, Early: 0, Misses: 0
2a0-> Hits: 2, Late: 1, Early: 0, Misses: 0
2a1-> Hits: 2, Late: 0, Early: 0, Misses: 0
2a2-> Hits: 31, Late: 0, Early: 0, Misses: 0
2a4-> Hits: 4, Late: 0, Early: 0, Misses: 0
2a5-> Hits: 1, Late: 0, Early: 0, Misses: 0
2a6-> Hits: 5, Late: 0, Early: 0, Misses: 0
2a7-> Hits: 5, Late: 0, Early: 0, Misses: 0
2a8-> Hits: 1, Late: 0, Early: 0, Misses: 0
2a9-> Hits: 7, Late: 0, Early: 0, Misses: 0
2aa-> Hits: 5, Late: 0, Early: 0, Misses: 0
2ad-> Hits: 1, Late: 1, Early: 0, Misses: 0
2ae-> Hits: 28660, Late: 2, Early: 0, Misses: 0
2af-> Hits: 1, Late: 1, Early: 0, Misses: 0
2b1-> Hits: 1, Late: 1, Early: 0, Misses: 0
2b3-> Hits: 1, Late: 1, Early: 0, Misses: 0
2b6-> Hits: 1, Late: 1, Early: 0, Misses: 0
2b7-> Hits: 0, Late: 1, Early: 0, Misses: 0
2bd-> Hits: 143404, Late: 6, Early: 0, Misses: 247
2c0-> Hits: 395, Late: 108, Early: 0, Misses: 0
2c1-> Hits: 1, Late: 1, Early: 0, Misses: 0
2c3-> Hits: 1, Late: 0, Early: 0, Misses: 0
2c5-> Hits: 487, Late: 27, Early: 0, Misses: 0
2c6-> Hits: 3, Late: 0, Early: 0, Misses: 0
2c7-> Hits: 1, Late: 0, Early: 0, Misses: 0
2c8-> Hits: 2, Late: 0, Early: 0, Misses: 0
2c9-> Hits: 4, Late: 1, Early: 0, Misses: 0
2ca-> Hits: 9504, Late: 206, Early: 0, Misses: 0
2cc-> Hits: 2, Late: 1, Early: 0, Misses: 0
2cd-> Hits: 1, Late: 2, Early: 0, Misses: 0
2d0-> Hits: 474, Late: 25, Early: 0, Misses: 0
2d1-> Hits: 1, Late: 1, Early: 0, Misses: 0
2d3-> Hits: 0, Late: 1, Early: 0, Misses: 0
2d6-> Hits: 2, Late: 1, Early: 0, Misses: 0
2d7-> Hits: 143092, Late: 95, Early: 0, Misses: 173
2d8-> Hits: 1, Late: 0, Early: 0, Misses: 0
2da-> Hits: 2, Late: 0, Early: 0, Misses: 0
2db-> Hits: 3, Late: 0, Early: 0, Misses: 0
2dc-> Hits: 4, Late: 0, Early: 0, Misses: 0
2de-> Hits: 2, Late: 0, Early: 0, Misses: 0
2df-> Hits: 10, Late: 2, Early: 0, Misses: 0
2e0-> Hits: 325, Late: 192, Early: 0, Misses: 0
2e2-> Hits: 33, Late: 0, Early: 0, Misses: 0
2e4-> Hits: 2, Late: 0, Early: 0, Misses: 0
2e5-> Hits: 480, Late: 34, Early: 0, Misses: 0
2e6-> Hits: 5, Late: 1, Early: 0, Misses: 0
2e9-> Hits: 2, Late: 0, Early: 0, Misses: 0
2ea-> Hits: 143455, Late: 398, Early: 0, Misses: 20
2ed-> Hits: 1, Late: 0, Early: 0, Misses: 0
2ee-> Hits: 281, Late: 0, Early: 0, Misses: 0
2ef-> Hits: 1, Late: 0, Early: 0, Misses: 0
2f0-> Hits: 480, Late: 34, Early: 0, Misses: 0
2f1-> Hits: 2, Late: 0, Early: 0, Misses: 0
2f2-> Hits: 1, Late: 0, Early: 0, Misses: 0
2f3-> Hits: 132, Late: 54, Early: 0, Misses: 1
2f4-> Hits: 10, Late: 0, Early: 0, Misses: 0
2f5-> Hits: 13, Late: 0, Early: 0, Misses: 0
2f6-> Hits: 10, Late: 0, Early: 0, Misses: 0
2f7-> Hits: 142, Late: 1, Early: 0, Misses: 2
2f8-> Hits: 10, Late: 0, Early: 0, Misses: 0
2fa-> Hits: 10, Late: 0, Early: 0, Misses: 0
2fb-> Hits: 57, Late: 59, Early: 0, Misses: 0
2ff-> Hits: 321, Late: 190, Early: 0, Misses: 0
300-> Hits: 50848, Late: 1356, Early: 0, Misses: 104
301-> Hits: 1, Late: 0, Early: 0, Misses: 0
302-> Hits: 2, Late: 0, Early: 0, Misses: 0
304-> Hits: 14139, Late: 115, Early: 0, Misses: 0
305-> Hits: 10, Late: 0, Early: 0, Misses: 0
306-> Hits: 1, Late: 0, Early: 0, Misses: 0
308-> Hits: 1, Late: 1, Early: 0, Misses: 0
309-> Hits: 13863, Late: 407, Early: 0, Misses: 0
30a-> Hits: 2, Late: 0, Early: 0, Misses: 0
30b-> Hits: 2, Late: 0, Early: 0, Misses: 0
30c-> Hits: 1, Late: 0, Early: 0, Misses: 0
30f-> Hits: 13743, Late: 149, Early: 0, Misses: 0
310-> Hits: 1, Late: 1, Early: 0, Misses: 0
312-> Hits: 2, Late: 0, Early: 0, Misses: 0
313-> Hits: 1, Late: 0, Early: 0, Misses: 0
314-> Hits: 13856, Late: 226, Early: 0, Misses: 0
315-> Hits: 1326, Late: 0, Early: 0, Misses: 0
316-> Hits: 3, Late: 0, Early: 0, Misses: 0
317-> Hits: 8, Late: 3, Early: 0, Misses: 0
318-> Hits: 13, Late: 1, Early: 0, Misses: 0
319-> Hits: 7, Late: 0, Early: 0, Misses: 0
31a-> Hits: 3163, Late: 51411, Early: 0, Misses: 0
31b-> Hits: 5, Late: 0, Early: 0, Misses: 0
31d-> Hits: 5, Late: 0, Early: 0, Misses: 0
31e-> Hits: 295, Late: 179, Early: 0, Misses: 0
31f-> Hits: 1489, Late: 51769, Early: 0, Misses: 0
320-> Hits: 1117, Late: 0, Early: 0, Misses: 0
323-> Hits: 452, Late: 26, Early: 0, Misses: 0
324-> Hits: 1, Late: 0, Early: 0, Misses: 0
325-> Hits: 989, Late: 52260, Early: 0, Misses: 0
326-> Hits: 2, Late: 0, Early: 0, Misses: 0
328-> Hits: 221, Late: 248, Early: 0, Misses: 0
32a-> Hits: 3799, Late: 49450, Early: 0, Misses: 0
32c-> Hits: 1, Late: 0, Early: 0, Misses: 0
32e-> Hits: 449, Late: 27, Early: 0, Misses: 0
32f-> Hits: 1, Late: 0, Early: 0, Misses: 0
330-> Hits: 4, Late: 1, Early: 0, Misses: 0
332-> Hits: 5, Late: 0, Early: 0, Misses: 0
333-> Hits: 2, Late: 0, Early: 0, Misses: 0
334-> Hits: 49873, Late: 1658, Early: 0, Misses: 165
335-> Hits: 15, Late: 0, Early: 0, Misses: 0
336-> Hits: 215, Late: 0, Early: 0, Misses: 0
338-> Hits: 4, Late: 0, Early: 0, Misses: 0
339-> Hits: 1, Late: 0, Early: 0, Misses: 0
33a-> Hits: 6, Late: 0, Early: 0, Misses: 0
33c-> Hits: 1, Late: 0, Early: 0, Misses: 0
33d-> Hits: 216, Late: 0, Early: 0, Misses: 0
33f-> Hits: 1, Late: 0, Early: 0, Misses: 0
340-> Hits: 216, Late: 2, Early: 0, Misses: 0
341-> Hits: 3, Late: 0, Early: 0, Misses: 0
343-> Hits: 2, Late: 212, Early: 0, Misses: 0
344-> Hits: 3, Late: 2, Early: 0, Misses: 0
347-> Hits: 3, Late: 3, Early: 0, Misses: 0
34a-> Hits: 4, Late: 0, Early: 0, Misses: 0
34b-> Hits: 2, Late: 0, Early: 0, Misses: 0
34c-> Hits: 3, Late: 1, Early: 0, Misses: 0
34d-> Hits: 3, Late: 2, Early: 0, Misses: 0
34e-> Hits: 1, Late: 0, Early: 0, Misses: 0
34f-> Hits: 1717981, Late: 6450, Early: 0, Misses: 683
350-> Hits: 497, Late: 3, Early: 0, Misses: 0
351-> Hits: 1, Late: 0, Early: 0, Misses: 0
352-> Hits: 0, Late: 1, Early: 0, Misses: 0
353-> Hits: 3, Late: 0, Early: 0, Misses: 0
355-> Hits: 0, Late: 1, Early: 0, Misses: 0
356-> Hits: 119548, Late: 18, Early: 0, Misses: 7
357-> Hits: 480, Late: 0, Early: 0, Misses: 0
358-> Hits: 3, Late: 1, Early: 0, Misses: 0
359-> Hits: 5, Late: 1, Early: 0, Misses: 0
35a-> Hits: 480, Late: 0, Early: 0, Misses: 0
35c-> Hits: 1706326, Late: 10269, Early: 0, Misses: 7826
35d-> Hits: 1, Late: 473, Early: 0, Misses: 6
360-> Hits: 15, Late: 0, Early: 0, Misses: 0
361-> Hits: 462, Late: 42, Early: 0, Misses: 12
362-> Hits: 4, Late: 0, Early: 0, Misses: 0
363-> Hits: 9, Late: 0, Early: 0, Misses: 0
364-> Hits: 4, Late: 0, Early: 0, Misses: 0
366-> Hits: 4, Late: 1, Early: 0, Misses: 0
367-> Hits: 1, Late: 0, Early: 0, Misses: 0
368-> Hits: 6, Late: 0, Early: 0, Misses: 0
36a-> Hits: 4, Late: 0, Early: 0, Misses: 0
36c-> Hits: 9, Late: 0, Early: 0, Misses: 0
36d-> Hits: 0, Late: 1, Early: 0, Misses: 0
36e-> Hits: 0, Late: 1, Early: 0, Misses: 0
36f-> Hits: 1, Late: 0, Early: 0, Misses: 0
370-> Hits: 3, Late: 0, Early: 0, Misses: 0
372-> Hits: 186147, Late: 10, Early: 0, Misses: 17
374-> Hits: 2, Late: 0, Early: 0, Misses: 0
375-> Hits: 463, Late: 40, Early: 0, Misses: 12
376-> Hits: 4, Late: 0, Early: 0, Misses: 0
377-> Hits: 2, Late: 0, Early: 0, Misses: 0
379-> Hits: 2, Late: 1, Early: 0, Misses: 0
37a-> Hits: 10, Late: 1, Early: 0, Misses: 0
37b-> Hits: 3, Late: 0, Early: 0, Misses: 0
37d-> Hits: 3, Late: 1, Early: 0, Misses: 0
37f-> Hits: 2, Late: 2, Early: 0, Misses: 0
380-> Hits: 2, Late: 0, Early: 0, Misses: 0
382-> Hits: 1, Late: 0, Early: 0, Misses: 0
383-> Hits: 0, Late: 2, Early: 0, Misses: 0
385-> Hits: 2, Late: 0, Early: 0, Misses: 0
387-> Hits: 162372, Late: 38, Early: 0, Misses: 21
388-> Hits: 1, Late: 0, Early: 0, Misses: 0
389-> Hits: 4, Late: 0, Early: 0, Misses: 0
38a-> Hits: 0, Late: 1, Early: 0, Misses: 0
38b-> Hits: 3, Late: 0, Early: 0, Misses: 0
38d-> Hits: 1703702, Late: 10750, Early: 0, Misses: 9964
38e-> Hits: 1, Late: 0, Early: 0, Misses: 0
391-> Hits: 5, Late: 0, Early: 0, Misses: 0
392-> Hits: 1, Late: 0, Early: 0, Misses: 0
393-> Hits: 2, Late: 0, Early: 0, Misses: 0
394-> Hits: 4, Late: 0, Early: 0, Misses: 0
395-> Hits: 1, Late: 0, Early: 0, Misses: 0
396-> Hits: 3, Late: 1, Early: 0, Misses: 0
398-> Hits: 1, Late: 0, Early: 0, Misses: 0
399-> Hits: 1304456, Late: 9, Early: 0, Misses: 122
39a-> Hits: 2, Late: 1, Early: 0, Misses: 0
39b-> Hits: 1, Late: 0, Early: 0, Misses: 0
39c-> Hits: 1, Late: 0, Early: 0, Misses: 0
39d-> Hits: 1, Late: 0, Early: 0, Misses: 0
3a0-> Hits: 1, Late: 2, Early: 0, Misses: 0
3a2-> Hits: 1, Late: 0, Early: 0, Misses: 0
3a3-> Hits: 1704219, Late: 156, Early: 0, Misses: 989
3a7-> Hits: 3, Late: 0, Early: 0, Misses: 0
3aa-> Hits: 3, Late: 0, Early: 0, Misses: 0
3ab-> Hits: 1, Late: 0, Early: 0, Misses: 0
3ac-> Hits: 57667, Late: 1, Early: 0, Misses: 17
3af-> Hits: 1, Late: 0, Early: 0, Misses: 0
3b0-> Hits: 3, Late: 0, Early: 0, Misses: 0
3b1-> Hits: 896879, Late: 149, Early: 0, Misses: 184
3b2-> Hits: 2, Late: 0, Early: 0, Misses: 0
3b3-> Hits: 1, Late: 0, Early: 0, Misses: 0
3b5-> Hits: 1, Late: 0, Early: 0, Misses: 0
3b7-> Hits: 1, Late: 0, Early: 0, Misses: 0
3b9-> Hits: 3, Late: 0, Early: 0, Misses: 0
3c0-> Hits: 10, Late: 0, Early: 0, Misses: 0
3c6-> Hits: 179287, Late: 19, Early: 0, Misses: 18
3c8-> Hits: 1, Late: 0, Early: 0, Misses: 0
3ca-> Hits: 5, Late: 0, Early: 0, Misses: 0
3cb-> Hits: 1, Late: 0, Early: 0, Misses: 0
3cd-> Hits: 6, Late: 0, Early: 0, Misses: 0
3ce-> Hits: 2, Late: 0, Early: 0, Misses: 0
3cf-> Hits: 1, Late: 1, Early: 0, Misses: 0
3d0-> Hits: 4, Late: 0, Early: 0, Misses: 0
3d5-> Hits: 1, Late: 0, Early: 0, Misses: 0
3d6-> Hits: 2, Late: 0, Early: 0, Misses: 0
3db-> Hits: 190172, Late: 100, Early: 0, Misses: 21
3dc-> Hits: 1, Late: 0, Early: 0, Misses: 0
3dd-> Hits: 4, Late: 0, Early: 0, Misses: 0
3e0-> Hits: 524296, Late: 1, Early: 0, Misses: 0
3e1-> Hits: 1704311, Late: 11106, Early: 0, Misses: 9000
3e4-> Hits: 2, Late: 0, Early: 0, Misses: 0
3e5-> Hits: 2, Late: 0, Early: 0, Misses: 0
3e6-> Hits: 2, Late: 0, Early: 0, Misses: 0
3e8-> Hits: 3, Late: 0, Early: 0, Misses: 0
3ea-> Hits: 2, Late: 0, Early: 0, Misses: 0
3eb-> Hits: 1, Late: 0, Early: 0, Misses: 0
3ec-> Hits: 2, Late: 0, Early: 0, Misses: 0
3ee-> Hits: 2, Late: 0, Early: 0, Misses: 0
3ef-> Hits: 8, Late: 0, Early: 0, Misses: 0
3f0-> Hits: 10, Late: 4, Early: 0, Misses: 0
3f5-> Hits: 1, Late: 0, Early: 0, Misses: 0
3f7-> Hits: 445528, Late: 44, Early: 0, Misses: 27
3fe-> Hits: 2, Late: 0, Early: 0, Misses: 0
400-> Hits: 4, Late: 0, Early: 0, Misses: 0
401-> Hits: 4, Late: 0, Early: 0, Misses: 0
402-> Hits: 1722990, Late: 100, Early: 0, Misses: 1096
403-> Hits: 1, Late: 0, Early: 0, Misses: 0
404-> Hits: 4, Late: 0, Early: 0, Misses: 0
405-> Hits: 1, Late: 1, Early: 0, Misses: 0
406-> Hits: 4, Late: 0, Early: 0, Misses: 0
408-> Hits: 5, Late: 0, Early: 0, Misses: 0
40a-> Hits: 4, Late: 0, Early: 0, Misses: 0
40b-> Hits: 3, Late: 1, Early: 0, Misses: 0
40c-> Hits: 54997, Late: 5, Early: 0, Misses: 15
40d-> Hits: 1, Late: 0, Early: 0, Misses: 0
40e-> Hits: 2, Late: 0, Early: 0, Misses: 0
410-> Hits: 6, Late: 0, Early: 0, Misses: 0
413-> Hits: 1, Late: 0, Early: 0, Misses: 0
416-> Hits: 1723712, Late: 79, Early: 0, Misses: 626
419-> Hits: 3, Late: 0, Early: 0, Misses: 0
41c-> Hits: 3, Late: 0, Early: 0, Misses: 0
41e-> Hits: 864096, Late: 277, Early: 0, Misses: 90
420-> Hits: 8, Late: 0, Early: 0, Misses: 0
422-> Hits: 2, Late: 0, Early: 0, Misses: 0
424-> Hits: 9, Late: 0, Early: 0, Misses: 0
426-> Hits: 2, Late: 0, Early: 0, Misses: 0
427-> Hits: 2, Late: 0, Early: 0, Misses: 0
428-> Hits: 5, Late: 2, Early: 0, Misses: 0
42a-> Hits: 2, Late: 0, Early: 0, Misses: 0
42b-> Hits: 3, Late: 0, Early: 0, Misses: 0
42c-> Hits: 2, Late: 0, Early: 0, Misses: 0
42d-> Hits: 1, Late: 0, Early: 0, Misses: 0
42e-> Hits: 1698935, Late: 11056, Early: 0, Misses: 14427
437-> Hits: 1, Late: 0, Early: 0, Misses: 0
438-> Hits: 5, Late: 0, Early: 0, Misses: 0
43a-> Hits: 438176, Late: 113, Early: 0, Misses: 36
43b-> Hits: 3, Late: 1, Early: 0, Misses: 0
43f-> Hits: 1, Late: 0, Early: 0, Misses: 0
440-> Hits: 9, Late: 4, Early: 0, Misses: 0
441-> Hits: 1, Late: 0, Early: 0, Misses: 0
443-> Hits: 7, Late: 1, Early: 0, Misses: 0
444-> Hits: 1, Late: 0, Early: 0, Misses: 0
447-> Hits: 4, Late: 0, Early: 0, Misses: 0
448-> Hits: 7, Late: 0, Early: 0, Misses: 0
44a-> Hits: 3, Late: 0, Early: 0, Misses: 0
44b-> Hits: 3, Late: 0, Early: 0, Misses: 0
44c-> Hits: 4, Late: 1, Early: 0, Misses: 0
44f-> Hits: 301634, Late: 16, Early: 0, Misses: 16
450-> Hits: 9, Late: 0, Early: 0, Misses: 0
451-> Hits: 2, Late: 0, Early: 0, Misses: 0
453-> Hits: 4, Late: 0, Early: 0, Misses: 0
454-> Hits: 33, Late: 31, Early: 0, Misses: 0
457-> Hits: 4, Late: 0, Early: 0, Misses: 0
458-> Hits: 2, Late: 0, Early: 0, Misses: 0
459-> Hits: 10, Late: 1, Early: 0, Misses: 0
45a-> Hits: 9, Late: 0, Early: 0, Misses: 0
45b-> Hits: 42, Late: 0, Early: 0, Misses: 0
45d-> Hits: 39, Late: 0, Early: 0, Misses: 0
45f-> Hits: 3, Late: 0, Early: 0, Misses: 0
460-> Hits: 1, Late: 0, Early: 0, Misses: 0
461-> Hits: 1, Late: 0, Early: 0, Misses: 0
463-> Hits: 3, Late: 0, Early: 0, Misses: 0
464-> Hits: 174890, Late: 140, Early: 0, Misses: 1
465-> Hits: 1, Late: 0, Early: 0, Misses: 0
466-> Hits: 5, Late: 1, Early: 0, Misses: 0
468-> Hits: 7, Late: 0, Early: 0, Misses: 0
46a-> Hits: 1703350, Late: 11149, Early: 0, Misses: 9928
46d-> Hits: 4, Late: 0, Early: 0, Misses: 0
470-> Hits: 525053, Late: 86, Early: 0, Misses: 0
471-> Hits: 37, Late: 0, Early: 0, Misses: 0
472-> Hits: 1, Late: 0, Early: 0, Misses: 0
473-> Hits: 3, Late: 0, Early: 0, Misses: 0
475-> Hits: 1, Late: 0, Early: 0, Misses: 0
476-> Hits: 676832, Late: 16, Early: 0, Misses: 116
477-> Hits: 3, Late: 0, Early: 0, Misses: 0
478-> Hits: 1098, Late: 4, Early: 0, Misses: 0
47a-> Hits: 1, Late: 0, Early: 0, Misses: 0
47b-> Hits: 1, Late: 0, Early: 0, Misses: 0
47c-> Hits: 3, Late: 0, Early: 0, Misses: 0
47d-> Hits: 1104, Late: 0, Early: 0, Misses: 0
47e-> Hits: 6, Late: 0, Early: 0, Misses: 0
47f-> Hits: 10, Late: 0, Early: 0, Misses: 0
480-> Hits: 6, Late: 3, Early: 0, Misses: 0
481-> Hits: 1, Late: 0, Early: 0, Misses: 0
482-> Hits: 5, Late: 0, Early: 0, Misses: 0
483-> Hits: 1723246, Late: 95, Early: 0, Misses: 765
484-> Hits: 2, Late: 0, Early: 0, Misses: 0
486-> Hits: 66, Late: 0, Early: 0, Misses: 0
487-> Hits: 6, Late: 0, Early: 0, Misses: 0
488-> Hits: 19, Late: 0, Early: 0, Misses: 0
489-> Hits: 9, Late: 0, Early: 0, Misses: 0
48a-> Hits: 1, Late: 0, Early: 0, Misses: 0
48b-> Hits: 5, Late: 0, Early: 0, Misses: 0
48d-> Hits: 9, Late: 2, Early: 0, Misses: 0
48e-> Hits: 4, Late: 0, Early: 0, Misses: 0
48f-> Hits: 5, Late: 0, Early: 0, Misses: 0
490-> Hits: 68992, Late: 6, Early: 0, Misses: 0
491-> Hits: 5, Late: 0, Early: 0, Misses: 0
493-> Hits: 36, Late: 2, Early: 0, Misses: 0
494-> Hits: 40, Late: 0, Early: 0, Misses: 0
495-> Hits: 38, Late: 0, Early: 0, Misses: 0
496-> Hits: 4, Late: 0, Early: 0, Misses: 0
497-> Hits: 41, Late: 0, Early: 0, Misses: 0
498-> Hits: 787806, Late: 6, Early: 0, Misses: 1
499-> Hits: 38, Late: 0, Early: 0, Misses: 0
49b-> Hits: 41, Late: 0, Early: 0, Misses: 0
49d-> Hits: 410, Late: 0, Early: 0, Misses: 0
4a0-> Hits: 2, Late: 1, Early: 0, Misses: 0
4a2-> Hits: 3, Late: 0, Early: 0, Misses: 0
4a3-> Hits: 248, Late: 0, Early: 0, Misses: 0
4a5-> Hits: 32, Late: 0, Early: 0, Misses: 0
4a6-> Hits: 2, Late: 0, Early: 0, Misses: 0
4ab-> Hits: 4, Late: 0, Early: 0, Misses: 0
4ac-> Hits: 3, Late: 1, Early: 0, Misses: 0
4ad-> Hits: 274125, Late: 5, Early: 0, Misses: 1
4ae-> Hits: 5, Late: 0, Early: 0, Misses: 0
4b0-> Hits: 41, Late: 0, Early: 0, Misses: 0
4b1-> Hits: 3, Late: 0, Early: 0, Misses: 0
4b2-> Hits: 12, Late: 0, Early: 0, Misses: 0
4b3-> Hits: 1701994, Late: 12677, Early: 0, Misses: 9748
4b4-> Hits: 4, Late: 1, Early: 0, Misses: 0
4b7-> Hits: 16, Late: 0, Early: 0, Misses: 0
4b8-> Hits: 32, Late: 0, Early: 0, Misses: 0
4b9-> Hits: 4, Late: 0, Early: 0, Misses: 0
4bb-> Hits: 22, Late: 0, Early: 0, Misses: 0
4bc-> Hits: 3, Late: 0, Early: 0, Misses: 0
4be-> Hits: 1, Late: 1, Early: 0, Misses: 0
4c0-> Hits: 2, Late: 1, Early: 0, Misses: 0
4c1-> Hits: 1, Late: 0, Early: 0, Misses: 0
4c2-> Hits: 2, Late: 0, Early: 0, Misses: 0
4c4-> Hits: 2, Late: 0, Early: 0, Misses: 0
4c5-> Hits: 18, Late: 0, Early: 0, Misses: 0
[...]
d99-> Hits: 5, Late: 0, Early: 0, Misses: 0
d9f-> Hits: 1, Late: 0, Early: 0, Misses: 0
da0-> Hits: 7, Late: 1, Early: 0, Misses: 0
da1-> Hits: 60, Late: 2966, Early: 0, Misses: 0
da2-> Hits: 7, Late: 0, Early: 0, Misses: 0
da3-> Hits: 2, Late: 0, Early: 0, Misses: 0
da5-> Hits: 5, Late: 0, Early: 0, Misses: 0
da6-> Hits: 8, Late: 34, Early: 0, Misses: 0
da7-> Hits: 3, Late: 0, Early: 0, Misses: 0
da8-> Hits: 2, Late: 0, Early: 0, Misses: 0
da9-> Hits: 1, Late: 0, Early: 0, Misses: 0
daa-> Hits: 1, Late: 0, Early: 0, Misses: 0
dab-> Hits: 3, Late: 0, Early: 0, Misses: 0
dac-> Hits: 10, Late: 0, Early: 0, Misses: 0
dad-> Hits: 13, Late: 0, Early: 0, Misses: 0
dae-> Hits: 1, Late: 0, Early: 0, Misses: 0
daf-> Hits: 3, Late: 0, Early: 0, Misses: 0
db0-> Hits: 7, Late: 4, Early: 0, Misses: 0
db1-> Hits: 136, Late: 4880, Early: 0, Misses: 0
db3-> Hits: 2, Late: 0, Early: 0, Misses: 0
db5-> Hits: 3, Late: 0, Early: 0, Misses: 0
db6-> Hits: 8, Late: 21, Early: 0, Misses: 0
db7-> Hits: 2, Late: 0, Early: 0, Misses: 1
db8-> Hits: 3, Late: 0, Early: 0, Misses: 0
db9-> Hits: 2, Late: 0, Early: 0, Misses: 0
dba-> Hits: 4, Late: 28, Early: 0, Misses: 0
dbb-> Hits: 2, Late: 0, Early: 0, Misses: 0
dbc-> Hits: 1, Late: 0, Early: 0, Misses: 0
dbd-> Hits: 1, Late: 0, Early: 0, Misses: 0
dbe-> Hits: 5, Late: 0, Early: 0, Misses: 0
dbf-> Hits: 7, Late: 1, Early: 0, Misses: 0
dc0-> Hits: 14, Late: 7, Early: 0, Misses: 0
dc1-> Hits: 71, Late: 2007, Early: 0, Misses: 0
dc2-> Hits: 3, Late: 2, Early: 0, Misses: 0
dc3-> Hits: 5, Late: 0, Early: 0, Misses: 0
dc7-> Hits: 11, Late: 1, Early: 0, Misses: 0
dc8-> Hits: 3, Late: 1, Early: 0, Misses: 0
dca-> Hits: 3, Late: 0, Early: 0, Misses: 0
dcb-> Hits: 6, Late: 0, Early: 0, Misses: 0
dcc-> Hits: 37, Late: 2, Early: 0, Misses: 0
dcd-> Hits: 38, Late: 0, Early: 0, Misses: 0
dcf-> Hits: 31, Late: 0, Early: 0, Misses: 0
dd1-> Hits: 131, Late: 2969, Early: 0, Misses: 0
dd3-> Hits: 35, Late: 0, Early: 0, Misses: 0
dd5-> Hits: 2, Late: 0, Early: 0, Misses: 0
dd6-> Hits: 4, Late: 0, Early: 0, Misses: 0
dd8-> Hits: 38, Late: 0, Early: 0, Misses: 0
dd9-> Hits: 31, Late: 0, Early: 0, Misses: 0
dda-> Hits: 35, Late: 0, Early: 0, Misses: 0
ddc-> Hits: 5, Late: 0, Early: 0, Misses: 0
dde-> Hits: 4, Late: 0, Early: 0, Misses: 0
ddf-> Hits: 4, Late: 0, Early: 0, Misses: 0
de0-> Hits: 3, Late: 0, Early: 0, Misses: 0
de2-> Hits: 2, Late: 0, Early: 0, Misses: 0
de3-> Hits: 4, Late: 2, Early: 0, Misses: 0
de4-> Hits: 2, Late: 0, Early: 0, Misses: 0
de7-> Hits: 1, Late: 0, Early: 0, Misses: 0
de8-> Hits: 2, Late: 0, Early: 0, Misses: 0
de9-> Hits: 1, Late: 0, Early: 0, Misses: 0
deb-> Hits: 1, Late: 0, Early: 0, Misses: 0
dec-> Hits: 1, Late: 0, Early: 0, Misses: 0
ded-> Hits: 5, Late: 0, Early: 0, Misses: 0
dee-> Hits: 5, Late: 0, Early: 0, Misses: 0
def-> Hits: 5, Late: 0, Early: 0, Misses: 0
df0-> Hits: 1, Late: 0, Early: 0, Misses: 0
df1-> Hits: 17, Late: 0, Early: 0, Misses: 0
df2-> Hits: 3, Late: 0, Early: 0, Misses: 0
df3-> Hits: 6, Late: 0, Early: 0, Misses: 0
df4-> Hits: 1, Late: 0, Early: 0, Misses: 0
df5-> Hits: 6, Late: 0, Early: 0, Misses: 0
df7-> Hits: 7, Late: 0, Early: 0, Misses: 0
df8-> Hits: 1, Late: 0, Early: 0, Misses: 0
df9-> Hits: 2, Late: 0, Early: 0, Misses: 0
dfb-> Hits: 1, Late: 0, Early: 0, Misses: 0
dfd-> Hits: 3, Late: 0, Early: 0, Misses: 0
e00-> Hits: 19, Late: 0, Early: 0, Misses: 0
e01-> Hits: 2, Late: 0, Early: 0, Misses: 0
e02-> Hits: 5, Late: 0, Early: 0, Misses: 0
e03-> Hits: 1, Late: 1, Early: 0, Misses: 0
e05-> Hits: 5, Late: 1, Early: 0, Misses: 0
e06-> Hits: 36, Late: 0, Early: 0, Misses: 0
e07-> Hits: 0, Late: 31, Early: 0, Misses: 0
e0f-> Hits: 11, Late: 22, Early: 0, Misses: 0
e10-> Hits: 4, Late: 0, Early: 0, Misses: 0
e12-> Hits: 6, Late: 0, Early: 0, Misses: 0
e13-> Hits: 7, Late: 0, Early: 0, Misses: 0
e14-> Hits: 4, Late: 0, Early: 0, Misses: 0
e15-> Hits: 2, Late: 0, Early: 0, Misses: 0
e16-> Hits: 2, Late: 0, Early: 0, Misses: 0
e17-> Hits: 1, Late: 0, Early: 0, Misses: 0
e18-> Hits: 4, Late: 0, Early: 0, Misses: 0
e19-> Hits: 127, Late: 0, Early: 0, Misses: 0
e1a-> Hits: 2, Late: 0, Early: 0, Misses: 0
e1b-> Hits: 35, Late: 90, Early: 0, Misses: 0
e1c-> Hits: 6, Late: 0, Early: 0, Misses: 0
e1d-> Hits: 0, Late: 3, Early: 0, Misses: 0
e1e-> Hits: 0, Late: 94, Early: 0, Misses: 31
e20-> Hits: 14, Late: 2, Early: 0, Misses: 0
e22-> Hits: 3, Late: 0, Early: 0, Misses: 0
e23-> Hits: 5, Late: 113, Early: 0, Misses: 12
e25-> Hits: 1, Late: 0, Early: 0, Misses: 0
e26-> Hits: 2, Late: 0, Early: 0, Misses: 0
e28-> Hits: 8, Late: 125, Early: 0, Misses: 0
e29-> Hits: 63, Late: 62, Early: 0, Misses: 0
e2a-> Hits: 3, Late: 0, Early: 0, Misses: 0
e2c-> Hits: 1, Late: 125, Early: 0, Misses: 0
e2d-> Hits: 2, Late: 0, Early: 0, Misses: 0
e2f-> Hits: 1, Late: 0, Early: 0, Misses: 0
e30-> Hits: 17, Late: 0, Early: 0, Misses: 0
e31-> Hits: 0, Late: 125, Early: 0, Misses: 0
e33-> Hits: 2, Late: 1, Early: 0, Misses: 0
e34-> Hits: 1, Late: 0, Early: 0, Misses: 0
e35-> Hits: 15, Late: 0, Early: 0, Misses: 0
e36-> Hits: 2, Late: 0, Early: 0, Misses: 0
e38-> Hits: 1, Late: 0, Early: 0, Misses: 0
e39-> Hits: 7, Late: 124, Early: 0, Misses: 0
e3a-> Hits: 1, Late: 0, Early: 0, Misses: 0
e3b-> Hits: 0, Late: 1, Early: 0, Misses: 0
e3c-> Hits: 3, Late: 1, Early: 0, Misses: 0
e3d-> Hits: 12, Late: 6, Early: 0, Misses: 1
e3e-> Hits: 1, Late: 0, Early: 0, Misses: 0
e3f-> Hits: 1, Late: 0, Early: 0, Misses: 0
e40-> Hits: 6, Late: 1, Early: 0, Misses: 0
e41-> Hits: 9, Late: 180, Early: 0, Misses: 0
e42-> Hits: 2, Late: 0, Early: 0, Misses: 0
e44-> Hits: 3, Late: 0, Early: 0, Misses: 0
e45-> Hits: 1, Late: 1, Early: 0, Misses: 0
e47-> Hits: 2, Late: 0, Early: 0, Misses: 0
e48-> Hits: 3, Late: 0, Early: 0, Misses: 0
e49-> Hits: 0, Late: 125, Early: 0, Misses: 0
e4a-> Hits: 1, Late: 0, Early: 0, Misses: 0
e4c-> Hits: 1, Late: 1, Early: 0, Misses: 0
e4d-> Hits: 3, Late: 0, Early: 0, Misses: 0
e4f-> Hits: 2, Late: 0, Early: 0, Misses: 0
e50-> Hits: 0, Late: 3, Early: 0, Misses: 0
e51-> Hits: 2, Late: 0, Early: 0, Misses: 0
e54-> Hits: 1, Late: 0, Early: 0, Misses: 0
e55-> Hits: 2, Late: 0, Early: 0, Misses: 0
e57-> Hits: 8, Late: 0, Early: 0, Misses: 0
e58-> Hits: 2, Late: 0, Early: 0, Misses: 0
e59-> Hits: 20, Late: 0, Early: 0, Misses: 0
e5a-> Hits: 22, Late: 0, Early: 0, Misses: 0
e5b-> Hits: 22, Late: 0, Early: 0, Misses: 0
e5c-> Hits: 2, Late: 0, Early: 0, Misses: 0
e5d-> Hits: 20, Late: 0, Early: 0, Misses: 0
e5e-> Hits: 7, Late: 0, Early: 0, Misses: 0
e5f-> Hits: 21, Late: 0, Early: 0, Misses: 0
e60-> Hits: 6, Late: 2, Early: 0, Misses: 0
e61-> Hits: 22, Late: 0, Early: 0, Misses: 0
e62-> Hits: 2, Late: 0, Early: 0, Misses: 0
e63-> Hits: 26, Late: 0, Early: 0, Misses: 0
e64-> Hits: 0, Late: 1, Early: 0, Misses: 0
e65-> Hits: 6, Late: 0, Early: 0, Misses: 0
e68-> Hits: 2, Late: 0, Early: 0, Misses: 0
e6b-> Hits: 1, Late: 0, Early: 0, Misses: 0
e6c-> Hits: 1, Late: 0, Early: 0, Misses: 0
e6f-> Hits: 2, Late: 0, Early: 0, Misses: 0
e70-> Hits: 5, Late: 1, Early: 0, Misses: 0
e71-> Hits: 6, Late: 0, Early: 0, Misses: 0
e72-> Hits: 24, Late: 0, Early: 0, Misses: 0
e73-> Hits: 2, Late: 0, Early: 0, Misses: 0
e74-> Hits: 5, Late: 0, Early: 0, Misses: 0
e75-> Hits: 6, Late: 0, Early: 0, Misses: 0
e76-> Hits: 5, Late: 0, Early: 0, Misses: 0
e77-> Hits: 1, Late: 0, Early: 0, Misses: 0
e79-> Hits: 1, Late: 0, Early: 0, Misses: 1
e7a-> Hits: 2, Late: 0, Early: 0, Misses: 0
e7b-> Hits: 1, Late: 0, Early: 0, Misses: 0
e7d-> Hits: 0, Late: 31, Early: 0, Misses: 0
e7e-> Hits: 31, Late: 0, Early: 0, Misses: 0
e7f-> Hits: 34, Late: 0, Early: 0, Misses: 0
e80-> Hits: 1, Late: 0, Early: 0, Misses: 0
e81-> Hits: 37, Late: 0, Early: 0, Misses: 0
e82-> Hits: 3, Late: 0, Early: 0, Misses: 0
e83-> Hits: 33, Late: 0, Early: 0, Misses: 0
e84-> Hits: 61, Late: 49, Early: 0, Misses: 0
e85-> Hits: 31, Late: 0, Early: 0, Misses: 0
e86-> Hits: 2, Late: 0, Early: 0, Misses: 0
e87-> Hits: 31, Late: 0, Early: 0, Misses: 0
e88-> Hits: 96, Late: 31, Early: 0, Misses: 0
e8a-> Hits: 3, Late: 0, Early: 0, Misses: 0
e8b-> Hits: 2, Late: 0, Early: 0, Misses: 0
e8d-> Hits: 1, Late: 0, Early: 0, Misses: 0
e90-> Hits: 2, Late: 0, Early: 0, Misses: 0
e91-> Hits: 2, Late: 0, Early: 0, Misses: 0
e92-> Hits: 4, Late: 0, Early: 0, Misses: 0
e94-> Hits: 4, Late: 0, Early: 0, Misses: 0
e95-> Hits: 2, Late: 0, Early: 0, Misses: 0
e96-> Hits: 1, Late: 0, Early: 0, Misses: 0
e97-> Hits: 2, Late: 0, Early: 0, Misses: 0
e98-> Hits: 2, Late: 0, Early: 0, Misses: 0
e99-> Hits: 2, Late: 0, Early: 0, Misses: 0
e9a-> Hits: 2, Late: 0, Early: 0, Misses: 0
e9b-> Hits: 1, Late: 0, Early: 0, Misses: 0
e9d-> Hits: 1, Late: 0, Early: 0, Misses: 0
e9f-> Hits: 1, Late: 0, Early: 0, Misses: 0
ea0-> Hits: 2, Late: 1, Early: 0, Misses: 0
ea1-> Hits: 128, Late: 0, Early: 0, Misses: 0
ea2-> Hits: 2, Late: 0, Early: 0, Misses: 0
ea5-> Hits: 1, Late: 0, Early: 0, Misses: 0
ea6-> Hits: 0, Late: 1, Early: 0, Misses: 0
ea7-> Hits: 1, Late: 0, Early: 0, Misses: 0
ea8-> Hits: 1, Late: 0, Early: 0, Misses: 0
ea9-> Hits: 3, Late: 0, Early: 0, Misses: 0
eaa-> Hits: 1, Late: 0, Early: 0, Misses: 0
eab-> Hits: 4, Late: 0, Early: 0, Misses: 0
eac-> Hits: 1, Late: 0, Early: 0, Misses: 0
eae-> Hits: 1, Late: 0, Early: 0, Misses: 0
eaf-> Hits: 0, Late: 1, Early: 0, Misses: 0
eb0-> Hits: 238205, Late: 37904, Early: 0, Misses: 0
eb3-> Hits: 1, Late: 0, Early: 0, Misses: 0
eb4-> Hits: 1, Late: 0, Early: 0, Misses: 0
eb5-> Hits: 243240, Late: 18731, Early: 0, Misses: 0
eb6-> Hits: 9, Late: 1, Early: 0, Misses: 0
eb8-> Hits: 1, Late: 0, Early: 0, Misses: 0
eba-> Hits: 205793, Late: 70931, Early: 0, Misses: 0
ebc-> Hits: 4, Late: 0, Early: 0, Misses: 0
ebd-> Hits: 1, Late: 0, Early: 0, Misses: 0
ebe-> Hits: 2, Late: 0, Early: 0, Misses: 0
ebf-> Hits: 2, Late: 1, Early: 0, Misses: 0
ec0-> Hits: 233643, Late: 24904, Early: 0, Misses: 0
ec1-> Hits: 13, Late: 0, Early: 0, Misses: 0
ec2-> Hits: 2, Late: 0, Early: 0, Misses: 0
ec3-> Hits: 2, Late: 0, Early: 0, Misses: 0
ec4-> Hits: 1, Late: 1, Early: 0, Misses: 0
ec5-> Hits: 7, Late: 0, Early: 0, Misses: 0
ec6-> Hits: 203540, Late: 67906, Early: 0, Misses: 0
ec7-> Hits: 1, Late: 1, Early: 0, Misses: 0
ec8-> Hits: 1, Late: 0, Early: 0, Misses: 0
eca-> Hits: 1, Late: 0, Early: 0, Misses: 0
ecb-> Hits: 0, Late: 1, Early: 0, Misses: 0
ecc-> Hits: 225480, Late: 23541, Early: 0, Misses: 0
ecd-> Hits: 1, Late: 0, Early: 0, Misses: 0
ece-> Hits: 0, Late: 1, Early: 0, Misses: 0
ecf-> Hits: 4, Late: 0, Early: 0, Misses: 0
ed0-> Hits: 3, Late: 0, Early: 0, Misses: 0
ed1-> Hits: 99, Late: 29, Early: 0, Misses: 0
ed2-> Hits: 190317, Late: 78162, Early: 0, Misses: 0
ed3-> Hits: 2, Late: 0, Early: 0, Misses: 0
ed5-> Hits: 7, Late: 1, Early: 0, Misses: 0
ed6-> Hits: 1, Late: 0, Early: 0, Misses: 0
ed7-> Hits: 3, Late: 0, Early: 0, Misses: 0
ed8-> Hits: 229656, Late: 25731, Early: 0, Misses: 16
ed9-> Hits: 5, Late: 0, Early: 0, Misses: 0
edb-> Hits: 2, Late: 0, Early: 0, Misses: 0
edc-> Hits: 3, Late: 0, Early: 0, Misses: 0
edf-> Hits: 0, Late: 1, Early: 0, Misses: 0
ee0-> Hits: 8, Late: 126, Early: 0, Misses: 0
ee1-> Hits: 6, Late: 32, Early: 0, Misses: 0
ee2-> Hits: 4, Late: 0, Early: 0, Misses: 0
ee3-> Hits: 5, Late: 0, Early: 0, Misses: 0
ee4-> Hits: 8, Late: 0, Early: 0, Misses: 0
ee5-> Hits: 5, Late: 0, Early: 0, Misses: 0
ee7-> Hits: 5, Late: 0, Early: 0, Misses: 0
ee8-> Hits: 2, Late: 0, Early: 0, Misses: 0
ee9-> Hits: 6, Late: 0, Early: 0, Misses: 0
eea-> Hits: 5, Late: 0, Early: 0, Misses: 0
eeb-> Hits: 2, Late: 0, Early: 0, Misses: 0
eec-> Hits: 2, Late: 0, Early: 0, Misses: 0
eed-> Hits: 2, Late: 0, Early: 0, Misses: 0
eee-> Hits: 2, Late: 0, Early: 0, Misses: 0
eef-> Hits: 16, Late: 0, Early: 0, Misses: 0
ef0-> Hits: 5, Late: 0, Early: 0, Misses: 0
ef1-> Hits: 2, Late: 0, Early: 0, Misses: 0
ef2-> Hits: 3, Late: 0, Early: 0, Misses: 0
ef3-> Hits: 1, Late: 0, Early: 0, Misses: 0
ef4-> Hits: 36, Late: 0, Early: 0, Misses: 0
ef5-> Hits: 1, Late: 0, Early: 0, Misses: 0
ef6-> Hits: 2, Late: 0, Early: 0, Misses: 0
ef7-> Hits: 2, Late: 0, Early: 0, Misses: 0
ef8-> Hits: 3, Late: 2, Early: 0, Misses: 0
ef9-> Hits: 1, Late: 0, Early: 0, Misses: 0
efa-> Hits: 8, Late: 0, Early: 0, Misses: 0
efb-> Hits: 5, Late: 0, Early: 0, Misses: 0
efc-> Hits: 4, Late: 0, Early: 0, Misses: 0
efd-> Hits: 2, Late: 0, Early: 0, Misses: 0
efe-> Hits: 232245, Late: 89095, Early: 0, Misses: 497
eff-> Hits: 6, Late: 0, Early: 0, Misses: 0
f00-> Hits: 4, Late: 0, Early: 0, Misses: 0
f01-> Hits: 4, Late: 0, Early: 0, Misses: 0
f02-> Hits: 4, Late: 0, Early: 0, Misses: 0
f03-> Hits: 2, Late: 0, Early: 0, Misses: 0
f04-> Hits: 6, Late: 0, Early: 0, Misses: 0
f05-> Hits: 4, Late: 0, Early: 0, Misses: 0
f06-> Hits: 8, Late: 0, Early: 0, Misses: 0
f07-> Hits: 2, Late: 0, Early: 0, Misses: 0
f08-> Hits: 4, Late: 0, Early: 0, Misses: 0
f09-> Hits: 10, Late: 0, Early: 0, Misses: 0
f0b-> Hits: 2, Late: 0, Early: 0, Misses: 0
f0c-> Hits: 4, Late: 4, Early: 0, Misses: 0
f0d-> Hits: 2, Late: 0, Early: 0, Misses: 0
f0e-> Hits: 1, Late: 0, Early: 0, Misses: 0
f10-> Hits: 40, Late: 3, Early: 0, Misses: 0
f13-> Hits: 34, Late: 0, Early: 0, Misses: 0
f15-> Hits: 1, Late: 0, Early: 0, Misses: 0
f16-> Hits: 3, Late: 0, Early: 0, Misses: 0
f17-> Hits: 8, Late: 109, Early: 0, Misses: 16
f18-> Hits: 1, Late: 0, Early: 0, Misses: 0
f19-> Hits: 6, Late: 1, Early: 0, Misses: 0
f1c-> Hits: 1, Late: 0, Early: 0, Misses: 0
f1e-> Hits: 3, Late: 0, Early: 0, Misses: 0
f20-> Hits: 1, Late: 0, Early: 0, Misses: 0
f21-> Hits: 21, Late: 64, Early: 0, Misses: 0
f22-> Hits: 8, Late: 0, Early: 0, Misses: 1
f23-> Hits: 12, Late: 0, Early: 0, Misses: 0
f24-> Hits: 38, Late: 0, Early: 0, Misses: 0
f25-> Hits: 1, Late: 0, Early: 0, Misses: 0
f26-> Hits: 1, Late: 0, Early: 0, Misses: 0
f27-> Hits: 8, Late: 0, Early: 0, Misses: 0
f28-> Hits: 2, Late: 0, Early: 0, Misses: 0
f29-> Hits: 168, Late: 525, Early: 0, Misses: 0
f2a-> Hits: 6, Late: 0, Early: 0, Misses: 0
f2b-> Hits: 32, Late: 1, Early: 0, Misses: 0
f2f-> Hits: 5, Late: 0, Early: 0, Misses: 0
f30-> Hits: 11, Late: 2, Early: 0, Misses: 0
f31-> Hits: 380, Late: 179, Early: 0, Misses: 0
f32-> Hits: 35, Late: 0, Early: 0, Misses: 0
f33-> Hits: 9, Late: 0, Early: 0, Misses: 0
f34-> Hits: 1, Late: 2, Early: 0, Misses: 0
f37-> Hits: 7, Late: 0, Early: 0, Misses: 0
f39-> Hits: 3, Late: 0, Early: 0, Misses: 0
f3b-> Hits: 8, Late: 0, Early: 0, Misses: 0
f3c-> Hits: 8, Late: 0, Early: 0, Misses: 0
f3d-> Hits: 97, Late: 34, Early: 0, Misses: 16
f3e-> Hits: 2, Late: 0, Early: 0, Misses: 0
f3f-> Hits: 15, Late: 0, Early: 0, Misses: 0
f41-> Hits: 8, Late: 0, Early: 0, Misses: 0
f43-> Hits: 10, Late: 0, Early: 0, Misses: 0
f44-> Hits: 4, Late: 0, Early: 0, Misses: 0
f45-> Hits: 8, Late: 0, Early: 0, Misses: 0
f47-> Hits: 62, Late: 0, Early: 0, Misses: 0
f49-> Hits: 2, Late: 0, Early: 0, Misses: 0
f4c-> Hits: 0, Late: 1, Early: 0, Misses: 0
f50-> Hits: 0, Late: 1, Early: 0, Misses: 0
f53-> Hits: 8, Late: 0, Early: 0, Misses: 0
f54-> Hits: 2, Late: 0, Early: 0, Misses: 0
f59-> Hits: 1, Late: 632, Early: 0, Misses: 0
f5a-> Hits: 35, Late: 0, Early: 0, Misses: 1
f5b-> Hits: 1, Late: 0, Early: 0, Misses: 0
f5d-> Hits: 1, Late: 0, Early: 0, Misses: 0
f5e-> Hits: 1, Late: 0, Early: 0, Misses: 0
f5f-> Hits: 3, Late: 0, Early: 0, Misses: 0
f60-> Hits: 13, Late: 2, Early: 0, Misses: 0
f61-> Hits: 1, Late: 0, Early: 0, Misses: 0
f63-> Hits: 2, Late: 0, Early: 0, Misses: 0
f64-> Hits: 0, Late: 632, Early: 0, Misses: 0
f65-> Hits: 4, Late: 1, Early: 0, Misses: 0
f66-> Hits: 21, Late: 0, Early: 0, Misses: 0
f68-> Hits: 2, Late: 0, Early: 0, Misses: 0
f6c-> Hits: 27, Late: 1, Early: 0, Misses: 0
f6d-> Hits: 11, Late: 0, Early: 0, Misses: 0
f6f-> Hits: 11, Late: 2, Early: 0, Misses: 0
f70-> Hits: 0, Late: 34, Early: 0, Misses: 0
f73-> Hits: 1, Late: 1, Early: 0, Misses: 0
f74-> Hits: 198, Late: 436, Early: 0, Misses: 0
f78-> Hits: 4, Late: 1, Early: 0, Misses: 0
f7a-> Hits: 4, Late: 0, Early: 0, Misses: 0
f7d-> Hits: 24, Late: 608, Early: 0, Misses: 0
f7f-> Hits: 3, Late: 1, Early: 0, Misses: 0
f80-> Hits: 4, Late: 1, Early: 0, Misses: 0
f85-> Hits: 3, Late: 0, Early: 0, Misses: 0
f86-> Hits: 3, Late: 1, Early: 0, Misses: 0
f87-> Hits: 14, Late: 0, Early: 0, Misses: 0
f89-> Hits: 1, Late: 0, Early: 0, Misses: 0
f8b-> Hits: 36, Late: 33, Early: 0, Misses: 0
f8c-> Hits: 6, Late: 0, Early: 0, Misses: 0
f8d-> Hits: 4, Late: 0, Early: 0, Misses: 0
f8f-> Hits: 1, Late: 0, Early: 0, Misses: 0
f90-> Hits: 6, Late: 0, Early: 0, Misses: 0
f91-> Hits: 1, Late: 0, Early: 0, Misses: 0
f92-> Hits: 2, Late: 0, Early: 0, Misses: 0
f93-> Hits: 6, Late: 0, Early: 0, Misses: 0
f94-> Hits: 1, Late: 0, Early: 0, Misses: 0
f95-> Hits: 0, Late: 2, Early: 0, Misses: 0
f96-> Hits: 1, Late: 0, Early: 0, Misses: 0
f98-> Hits: 1, Late: 0, Early: 0, Misses: 0
f9a-> Hits: 16, Late: 0, Early: 0, Misses: 0
f9c-> Hits: 3, Late: 0, Early: 0, Misses: 0
f9d-> Hits: 16, Late: 3, Early: 0, Misses: 0
f9e-> Hits: 1, Late: 0, Early: 0, Misses: 0
f9f-> Hits: 6, Late: 0, Early: 0, Misses: 0
fa0-> Hits: 5, Late: 1, Early: 0, Misses: 0
fa1-> Hits: 1, Late: 0, Early: 0, Misses: 0
fa4-> Hits: 1, Late: 0, Early: 0, Misses: 0
faa-> Hits: 3, Late: 0, Early: 0, Misses: 0
fb0-> Hits: 166, Late: 489, Early: 0, Misses: 0
fb1-> Hits: 3, Late: 3, Early: 0, Misses: 0
fb3-> Hits: 10, Late: 0, Early: 0, Misses: 0
fb6-> Hits: 1, Late: 0, Early: 0, Misses: 0
fb8-> Hits: 4, Late: 0, Early: 0, Misses: 0
fba-> Hits: 38, Late: 2, Early: 0, Misses: 0
fbb-> Hits: 30, Late: 2, Early: 0, Misses: 0
fbd-> Hits: 1, Late: 0, Early: 0, Misses: 0
fbe-> Hits: 1, Late: 0, Early: 0, Misses: 0
fbf-> Hits: 2, Late: 0, Early: 0, Misses: 0
fc0-> Hits: 3, Late: 0, Early: 0, Misses: 0
fc4-> Hits: 9, Late: 0, Early: 0, Misses: 0
fc5-> Hits: 2, Late: 0, Early: 0, Misses: 0
fc6-> Hits: 2, Late: 0, Early: 0, Misses: 0
fc7-> Hits: 2, Late: 0, Early: 0, Misses: 0
fc8-> Hits: 8, Late: 0, Early: 0, Misses: 0
fca-> Hits: 2, Late: 0, Early: 0, Misses: 0
fcb-> Hits: 1, Late: 0, Early: 0, Misses: 0
fcd-> Hits: 1, Late: 1, Early: 0, Misses: 0
fce-> Hits: 1, Late: 0, Early: 0, Misses: 0
fd0-> Hits: 4, Late: 0, Early: 0, Misses: 0
fd2-> Hits: 1, Late: 0, Early: 0, Misses: 0
fd6-> Hits: 6, Late: 0, Early: 0, Misses: 0
fd7-> Hits: 6, Late: 0, Early: 0, Misses: 0
fd8-> Hits: 10, Late: 0, Early: 0, Misses: 0
fda-> Hits: 6, Late: 0, Early: 0, Misses: 0
fdc-> Hits: 7, Late: 1, Early: 0, Misses: 0
fde-> Hits: 8, Late: 0, Early: 0, Misses: 0
fdf-> Hits: 95, Late: 37, Early: 0, Misses: 0
fe0-> Hits: 9, Late: 0, Early: 0, Misses: 0
fe1-> Hits: 4, Late: 0, Early: 0, Misses: 0
fe2-> Hits: 2, Late: 0, Early: 0, Misses: 0
fe3-> Hits: 4, Late: 0, Early: 0, Misses: 0
fe4-> Hits: 30, Late: 2, Early: 0, Misses: 0
fe5-> Hits: 6, Late: 8, Early: 0, Misses: 0
fe6-> Hits: 2, Late: 0, Early: 0, Misses: 0
fe7-> Hits: 1, Late: 1, Early: 0, Misses: 0
feb-> Hits: 1, Late: 2, Early: 0, Misses: 0
fec-> Hits: 5, Late: 0, Early: 0, Misses: 0
fed-> Hits: 6, Late: 0, Early: 0, Misses: 0
fee-> Hits: 1, Late: 0, Early: 0, Misses: 0
fef-> Hits: 0, Late: 1, Early: 0, Misses: 0
ff0-> Hits: 7, Late: 0, Early: 0, Misses: 0
ff2-> Hits: 19, Late: 32, Early: 0, Misses: 0
ff3-> Hits: 14, Late: 0, Early: 0, Misses: 0
ff5-> Hits: 2, Late: 0, Early: 0, Misses: 0
ff7-> Hits: 4, Late: 0, Early: 0, Misses: 0
ff9-> Hits: 24, Late: 8, Early: 0, Misses: 0
ffc-> Hits: 0, Late: 1, Early: 0, Misses: 0
ffd-> Hits: 2, Late: 0, Early: 0, Misses: 0
ffe-> Hits: 632, Late: 0, Early: 0, Misses: 0
fff-> Hits: 12, Late: 0, Early: 0, Misses: 0
Total misses (from ip) 1584574
Total accesses (misses) 67660912 1584574
Pref: Addr 0 IP 0 Current 0
CPU 0 L2C berti prefetcher final stats
Channel_0_RQ_row_buffer_hit 849286
Channel_0_RQ_row_buffer_miss 774926
Channel_0_WQ_row_buffer_hit 299424
Channel_0_WQ_row_buffer_miss 570937
Channel_0_WQ_full 0
Channel_0_dbus_congested 1124845

avg_congested_cycle 10

EzSearch AVG IPC :1.05207: L2-Pf-HR :0.51086 : L2-HR :0.56059 Uful:0.09566
     > Finished combination: TraceType=770-tot Sim:293000000 Prefetcher=L2berti L1=berti
