TRACE: [597000000][OPT-6_7B]_[h32][s512][d128] Warmup: 2000000 NumTraces: 597000000
L1:bingo_dpc3:L2:bingo_dpc3
*************************************************
   ChampSim Multicore Out-of-Order Simulator
   Last compiled: Oct 26 2024 13:08:57
*************************************************

trace_0 770-tot_memTraces_v3/memTraces[597000000][OPT-6_7B]_[h32][s512][d128].champsim.xz
Bingo PHT WAYS: 16 and PHT_SIZE: 16384
Bingo2 PHT WAYS: 16 and PHT_SIZE: 16384
MAIN.cc ln 751 stats print skipped
CPU  0 inst:    1000000 cyc:     502627 now IPC :1.98955: AVG IPC :1.98955: L2-Pf-HR :0.36437: L2-HR :0.43996: (Sim:0h0m2s) 
CPU  0 inst:    2000000 cyc:     979480 now IPC :2.09708: AVG IPC :2.04190: L2-Pf-HR :0.38788: L2-HR :0.44818: (Sim:0h0m5s) 

Warmup complete CPU  0 instructions:    2000001 cycles:     979481 (Simulation time: 0 hr 0 min 5 sec) 

CPU  0 inst:    3000002 cyc:    1589944 now IPC :1.63810: AVG IPC :1.63810: L2-Pf-HR :0.37412: L2-HR :0.42144: (Sim:0h0m7s) 
CPU  0 inst:    4000000 cyc:    2196966 now IPC :1.64738: AVG IPC :1.64273: L2-Pf-HR :0.37206: L2-HR :0.42095: (Sim:0h0m10s) 
CPU  0 inst:    5000003 cyc:    2806044 now IPC :1.64183: AVG IPC :1.64243: L2-Pf-HR :0.39410: L2-HR :0.44009: (Sim:0h0m13s) 
CPU  0 inst:    6000002 cyc:    3418778 now IPC :1.63203: AVG IPC :1.63982: L2-Pf-HR :0.40570: L2-HR :0.45410: (Sim:0h0m15s) 
CPU  0 inst:    7000002 cyc:    4037159 now IPC :1.61713: AVG IPC :1.63523: L2-Pf-HR :0.47575: L2-HR :0.50432: (Sim:0h0m18s) 
CPU  0 inst:    8000000 cyc:    4623863 now IPC :1.70443: AVG IPC :1.64637: L2-Pf-HR :0.53414: L2-HR :0.54629: (Sim:0h0m20s) 
CPU  0 inst:    9000001 cyc:    5320659 now IPC :1.43514: AVG IPC :1.61247: L2-Pf-HR :0.50636: L2-HR :0.53408: (Sim:0h0m23s) 
CPU  0 inst:   10000002 cyc:    5937251 now IPC :1.62182: AVG IPC :1.61363: L2-Pf-HR :0.49308: L2-HR :0.52257: (Sim:0h0m26s) 
CPU  0 inst:   11000001 cyc:    6554159 now IPC :1.62099: AVG IPC :1.61444: L2-Pf-HR :0.47587: L2-HR :0.50894: (Sim:0h0m28s) 
CPU  0 inst:   12000000 cyc:    7163111 now IPC :1.64216: AVG IPC :1.61717: L2-Pf-HR :0.46531: L2-HR :0.50042: (Sim:0h0m31s) 
CPU  0 inst:   13000002 cyc:    7781050 now IPC :1.61829: AVG IPC :1.61727: L2-Pf-HR :0.45957: L2-HR :0.49609: (Sim:0h0m33s) 
CPU  0 inst:   14000000 cyc:    8402528 now IPC :1.60906: AVG IPC :1.61659: L2-Pf-HR :0.45783: L2-HR :0.49572: (Sim:0h0m36s) 
CPU  0 inst:   15000002 cyc:    9061395 now IPC :1.51776: AVG IPC :1.60853: L2-Pf-HR :0.47613: L2-HR :0.50907: (Sim:0h0m39s) 
CPU  0 inst:   16000000 cyc:    9683282 now IPC :1.60801: AVG IPC :1.60849: L2-Pf-HR :0.50039: L2-HR :0.52626: (Sim:0h0m41s) 
CPU  0 inst:   17000001 cyc:   10402632 now IPC :1.39015: AVG IPC :1.59182: L2-Pf-HR :0.48972: L2-HR :0.52197: (Sim:0h0m44s) 
CPU  0 inst:   18000000 cyc:   11018501 now IPC :1.62372: AVG IPC :1.59378: L2-Pf-HR :0.48408: L2-HR :0.51687: (Sim:0h0m47s) 
CPU  0 inst:   19000002 cyc:   11641365 now IPC :1.60549: AVG IPC :1.59447: L2-Pf-HR :0.47496: L2-HR :0.50974: (Sim:0h0m49s) 
CPU  0 inst:   20000000 cyc:   12259198 now IPC :1.61856: AVG IPC :1.59578: L2-Pf-HR :0.46988: L2-HR :0.50541: (Sim:0h0m52s) 
CPU  0 inst:   21000003 cyc:   12876191 now IPC :1.62077: AVG IPC :1.59708: L2-Pf-HR :0.46502: L2-HR :0.50171: (Sim:0h0m55s) 
CPU  0 inst:   22000003 cyc:   13502192 now IPC :1.59744: AVG IPC :1.59710: L2-Pf-HR :0.46480: L2-HR :0.50184: (Sim:0h0m57s) 
CPU  0 inst:   23000001 cyc:   14156389 now IPC :1.52859: AVG IPC :1.59370: L2-Pf-HR :0.47482: L2-HR :0.50920: (Sim:0h1m0s) 
CPU  0 inst:   24000000 cyc:   14770887 now IPC :1.62734: AVG IPC :1.59520: L2-Pf-HR :0.49001: L2-HR :0.51975: (Sim:0h1m2s) 
CPU  0 inst:   25000000 cyc:   15500557 now IPC :1.37048: AVG IPC :1.58390: L2-Pf-HR :0.48525: L2-HR :0.51833: (Sim:0h1m5s) 
CPU  0 inst:   26000001 cyc:   16118895 now IPC :1.61724: AVG IPC :1.58527: L2-Pf-HR :0.48058: L2-HR :0.51442: (Sim:0h1m8s) 
CPU  0 inst:   27000002 cyc:   16742277 now IPC :1.60415: AVG IPC :1.58601: L2-Pf-HR :0.47534: L2-HR :0.51023: (Sim:0h1m10s) 
CPU  0 inst:   28000000 cyc:   17361449 now IPC :1.61506: AVG IPC :1.58711: L2-Pf-HR :0.47173: L2-HR :0.50715: (Sim:0h1m13s) 
CPU  0 inst:   29000003 cyc:   17984078 now IPC :1.60610: AVG IPC :1.58781: L2-Pf-HR :0.46734: L2-HR :0.50386: (Sim:0h1m16s) 
CPU  0 inst:   30000001 cyc:   18612417 now IPC :1.59149: AVG IPC :1.58794: L2-Pf-HR :0.46785: L2-HR :0.50433: (Sim:0h1m18s) 
CPU  0 inst:   31000001 cyc:   19267213 now IPC :1.52719: AVG IPC :1.58576: L2-Pf-HR :0.47430: L2-HR :0.50914: (Sim:0h1m21s) 
CPU  0 inst:   32000000 cyc:   19876183 now IPC :1.64212: AVG IPC :1.58758: L2-Pf-HR :0.48540: L2-HR :0.51685: (Sim:0h1m24s) 
CPU  0 inst:   33000002 cyc:   20591366 now IPC :1.39825: AVG IPC :1.58067: L2-Pf-HR :0.48244: L2-HR :0.51627: (Sim:0h1m26s) 
CPU  0 inst:   34000001 cyc:   21214169 now IPC :1.60564: AVG IPC :1.58144: L2-Pf-HR :0.47848: L2-HR :0.51298: (Sim:0h1m29s) 
CPU  0 inst:   35000002 cyc:   21830437 now IPC :1.62267: AVG IPC :1.58266: L2-Pf-HR :0.47518: L2-HR :0.51024: (Sim:0h1m32s) 
CPU  0 inst:   36000000 cyc:   22449773 now IPC :1.61463: AVG IPC :1.58358: L2-Pf-HR :0.47232: L2-HR :0.50778: (Sim:0h1m34s) 
CPU  0 inst:   37000002 cyc:   23061582 now IPC :1.63450: AVG IPC :1.58499: L2-Pf-HR :0.46888: L2-HR :0.50514: (Sim:0h1m37s) 
CPU  0 inst:   38000001 cyc:   23693879 now IPC :1.58153: AVG IPC :1.58490: L2-Pf-HR :0.46914: L2-HR :0.50546: (Sim:0h1m39s) 
CPU  0 inst:   39000001 cyc:   24344918 now IPC :1.53601: AVG IPC :1.58354: L2-Pf-HR :0.47359: L2-HR :0.50882: (Sim:0h1m42s) 
CPU  0 inst:   40000000 cyc:   24956909 now IPC :1.63401: AVG IPC :1.58482: L2-Pf-HR :0.48227: L2-HR :0.51479: (Sim:0h1m45s) 
CPU  0 inst:   41000003 cyc:   25668217 now IPC :1.40586: AVG IPC :1.57967: L2-Pf-HR :0.48090: L2-HR :0.51506: (Sim:0h1m47s) 
CPU  0 inst:   42000000 cyc:   26285126 now IPC :1.62098: AVG IPC :1.58067: L2-Pf-HR :0.47749: L2-HR :0.51227: (Sim:0h1m50s) 
CPU  0 inst:   43000001 cyc:   26899956 now IPC :1.62647: AVG IPC :1.58176: L2-Pf-HR :0.47523: L2-HR :0.51032: (Sim:0h1m53s) 
CPU  0 inst:   44000000 cyc:   27520839 now IPC :1.61061: AVG IPC :1.58244: L2-Pf-HR :0.47252: L2-HR :0.50808: (Sim:0h1m55s) 
CPU  0 inst:   45000002 cyc:   28135141 now IPC :1.62787: AVG IPC :1.58346: L2-Pf-HR :0.47013: L2-HR :0.50619: (Sim:0h1m58s) 
CPU  0 inst:   46000001 cyc:   28764446 now IPC :1.58905: AVG IPC :1.58359: L2-Pf-HR :0.47040: L2-HR :0.50646: (Sim:0h2m1s) 
CPU  0 inst:   47000001 cyc:   29423151 now IPC :1.51813: AVG IPC :1.58207: L2-Pf-HR :0.47365: L2-HR :0.50895: (Sim:0h2m3s) 
CPU  0 inst:   48000000 cyc:   30038656 now IPC :1.62468: AVG IPC :1.58298: L2-Pf-HR :0.48064: L2-HR :0.51386: (Sim:0h2m6s) 
CPU  0 inst:   49000000 cyc:   30751520 now IPC :1.40279: AVG IPC :1.57866: L2-Pf-HR :0.47945: L2-HR :0.51404: (Sim:0h2m9s) 
CPU  0 inst:   50000000 cyc:   31363092 now IPC :1.63513: AVG IPC :1.57980: L2-Pf-HR :0.47687: L2-HR :0.51186: (Sim:0h2m11s) 
CPU  0 inst:   51000002 cyc:   31974152 now IPC :1.63650: AVG IPC :1.58092: L2-Pf-HR :0.47494: L2-HR :0.51019: (Sim:0h2m14s) 
CPU  0 inst:   52000000 cyc:   32593919 now IPC :1.61351: AVG IPC :1.58156: L2-Pf-HR :0.47229: L2-HR :0.50802: (Sim:0h2m16s) 
CPU  0 inst:   53000003 cyc:   33201234 now IPC :1.64660: AVG IPC :1.58278: L2-Pf-HR :0.47049: L2-HR :0.50657: (Sim:0h2m19s) 
CPU  0 inst:   54000001 cyc:   33829256 now IPC :1.59230: AVG IPC :1.58296: L2-Pf-HR :0.47051: L2-HR :0.50670: (Sim:0h2m22s) 
CPU  0 inst:   55000000 cyc:   34486184 now IPC :1.52224: AVG IPC :1.58177: L2-Pf-HR :0.47314: L2-HR :0.50874: (Sim:0h2m24s) 
CPU  0 inst:   56000000 cyc:   35102545 now IPC :1.62243: AVG IPC :1.58251: L2-Pf-HR :0.47915: L2-HR :0.51292: (Sim:0h2m27s) 
CPU  0 inst:   57000002 cyc:   35828034 now IPC :1.37838: AVG IPC :1.57826: L2-Pf-HR :0.47835: L2-HR :0.51326: (Sim:0h2m30s) 
CPU  0 inst:   58000002 cyc:   36436831 now IPC :1.64258: AVG IPC :1.57936: L2-Pf-HR :0.47640: L2-HR :0.51159: (Sim:0h2m32s) 
CPU  0 inst:   59000003 cyc:   37048486 now IPC :1.63491: AVG IPC :1.58030: L2-Pf-HR :0.47474: L2-HR :0.51014: (Sim:0h2m35s) 
CPU  0 inst:   60000000 cyc:   37661311 now IPC :1.63178: AVG IPC :1.58116: L2-Pf-HR :0.47231: L2-HR :0.50822: (Sim:0h2m37s) 
CPU  0 inst:   61000002 cyc:   38283118 now IPC :1.60822: AVG IPC :1.58162: L2-Pf-HR :0.47090: L2-HR :0.50705: (Sim:0h2m40s) 
CPU  0 inst:   62000001 cyc:   38919075 now IPC :1.57243: AVG IPC :1.58146: L2-Pf-HR :0.47050: L2-HR :0.50684: (Sim:0h2m43s) 
CPU  0 inst:   63000002 cyc:   39560589 now IPC :1.55881: AVG IPC :1.58108: L2-Pf-HR :0.47277: L2-HR :0.50861: (Sim:0h2m45s) 
CPU  0 inst:   64000000 cyc:   40167281 now IPC :1.64828: AVG IPC :1.58213: L2-Pf-HR :0.47789: L2-HR :0.51210: (Sim:0h2m48s) 
CPU  0 inst:   65000002 cyc:   40899257 now IPC :1.36617: AVG IPC :1.57817: L2-Pf-HR :0.47737: L2-HR :0.51255: (Sim:0h2m51s) 
CPU  0 inst:   66000000 cyc:   41518315 now IPC :1.61535: AVG IPC :1.57873: L2-Pf-HR :0.47606: L2-HR :0.51141: (Sim:0h2m53s) 
CPU  0 inst:   67000002 cyc:   42132407 now IPC :1.62842: AVG IPC :1.57947: L2-Pf-HR :0.47441: L2-HR :0.51003: (Sim:0h2m56s) 
CPU  0 inst:   68000000 cyc:   42747141 now IPC :1.62672: AVG IPC :1.58017: L2-Pf-HR :0.47259: L2-HR :0.50855: (Sim:0h2m59s) 
CPU  0 inst:   69000003 cyc:   43367207 now IPC :1.61274: AVG IPC :1.58065: L2-Pf-HR :0.47129: L2-HR :0.50745: (Sim:0h3m1s) 
CPU  0 inst:   70000003 cyc:   44003989 now IPC :1.57040: AVG IPC :1.58049: L2-Pf-HR :0.47064: L2-HR :0.50706: (Sim:0h3m4s) 
CPU  0 inst:   71000002 cyc:   44663365 now IPC :1.51658: AVG IPC :1.57953: L2-Pf-HR :0.47274: L2-HR :0.50866: (Sim:0h3m6s) 
CPU  0 inst:   72000000 cyc:   45283080 now IPC :1.61364: AVG IPC :1.58001: L2-Pf-HR :0.47727: L2-HR :0.51179: (Sim:0h3m9s) 
CPU  0 inst:   73000003 cyc:   46004661 now IPC :1.38585: AVG IPC :1.57690: L2-Pf-HR :0.47716: L2-HR :0.51243: (Sim:0h3m12s) 
CPU  0 inst:   74000001 cyc:   46607963 now IPC :1.65754: AVG IPC :1.57796: L2-Pf-HR :0.47599: L2-HR :0.51138: (Sim:0h3m14s) 
CPU  0 inst:   75000003 cyc:   47226367 now IPC :1.61707: AVG IPC :1.57848: L2-Pf-HR :0.47421: L2-HR :0.50993: (Sim:0h3m17s) 
CPU  0 inst:   76000000 cyc:   47831596 now IPC :1.65226: AVG IPC :1.57944: L2-Pf-HR :0.47283: L2-HR :0.50880: (Sim:0h3m20s) 
CPU  0 inst:   77000001 cyc:   48445484 now IPC :1.62896: AVG IPC :1.58008: L2-Pf-HR :0.47159: L2-HR :0.50774: (Sim:0h3m22s) 
CPU  0 inst:   78000001 cyc:   49074948 now IPC :1.58865: AVG IPC :1.58019: L2-Pf-HR :0.47105: L2-HR :0.50744: (Sim:0h3m25s) 
CPU  0 inst:   79000002 cyc:   49727999 now IPC :1.53128: AVG IPC :1.57954: L2-Pf-HR :0.47267: L2-HR :0.50872: (Sim:0h3m27s) 
CPU  0 inst:   80000000 cyc:   50343435 now IPC :1.62486: AVG IPC :1.58010: L2-Pf-HR :0.47671: L2-HR :0.51148: (Sim:0h3m30s) 
CPU  0 inst:   81000000 cyc:   51063487 now IPC :1.38879: AVG IPC :1.57735: L2-Pf-HR :0.47680: L2-HR :0.51221: (Sim:0h3m33s) 
CPU  0 inst:   82000001 cyc:   51674642 now IPC :1.63625: AVG IPC :1.57806: L2-Pf-HR :0.47589: L2-HR :0.51136: (Sim:0h3m35s) 
CPU  0 inst:   83000002 cyc:   52285180 now IPC :1.63790: AVG IPC :1.57877: L2-Pf-HR :0.47418: L2-HR :0.50999: (Sim:0h3m38s) 
CPU  0 inst:   84000000 cyc:   52896595 now IPC :1.63555: AVG IPC :1.57944: L2-Pf-HR :0.47301: L2-HR :0.50897: (Sim:0h3m40s) 
CPU  0 inst:   85000003 cyc:   53515859 now IPC :1.61483: AVG IPC :1.57986: L2-Pf-HR :0.47163: L2-HR :0.50782: (Sim:0h3m43s) 
CPU  0 inst:   86000000 cyc:   54136895 now IPC :1.61021: AVG IPC :1.58021: L2-Pf-HR :0.47137: L2-HR :0.50772: (Sim:0h3m46s) 
CPU  0 inst:   87000002 cyc:   54786270 now IPC :1.53995: AVG IPC :1.57973: L2-Pf-HR :0.47263: L2-HR :0.50872: (Sim:0h3m48s) 
CPU  0 inst:   88000000 cyc:   55397154 now IPC :1.63697: AVG IPC :1.58037: L2-Pf-HR :0.47630: L2-HR :0.51122: (Sim:0h3m51s) 
CPU  0 inst:   89000002 cyc:   56118046 now IPC :1.38717: AVG IPC :1.57784: L2-Pf-HR :0.47660: L2-HR :0.51203: (Sim:0h3m54s) 
CPU  0 inst:   90000003 cyc:   56729738 now IPC :1.63481: AVG IPC :1.57847: L2-Pf-HR :0.47562: L2-HR :0.51115: (Sim:0h3m56s) 
CPU  0 inst:   91000001 cyc:   57337869 now IPC :1.64438: AVG IPC :1.57918: L2-Pf-HR :0.47412: L2-HR :0.50994: (Sim:0h3m59s) 
CPU  0 inst:   92000000 cyc:   57948561 now IPC :1.63749: AVG IPC :1.57980: L2-Pf-HR :0.47303: L2-HR :0.50900: (Sim:0h4m1s) 
CPU  0 inst:   93000001 cyc:   58574024 now IPC :1.59882: AVG IPC :1.58001: L2-Pf-HR :0.47149: L2-HR :0.50776: (Sim:0h4m4s) 
CPU  0 inst:   94000002 cyc:   59196529 now IPC :1.60641: AVG IPC :1.58029: L2-Pf-HR :0.47146: L2-HR :0.50780: (Sim:0h4m7s) 
CPU  0 inst:   95000000 cyc:   59844297 now IPC :1.54376: AVG IPC :1.57989: L2-Pf-HR :0.47239: L2-HR :0.50857: (Sim:0h4m9s) 
CPU  0 inst:   96000000 cyc:   60453379 now IPC :1.64182: AVG IPC :1.58053: L2-Pf-HR :0.47572: L2-HR :0.51083: (Sim:0h4m12s) 
CPU  0 inst:   97000000 cyc:   61178768 now IPC :1.37857: AVG IPC :1.57809: L2-Pf-HR :0.47630: L2-HR :0.51179: (Sim:0h4m15s) 
CPU  0 inst:   98000001 cyc:   61790485 now IPC :1.63474: AVG IPC :1.57866: L2-Pf-HR :0.47523: L2-HR :0.51088: (Sim:0h4m17s) 
CPU  0 inst:   99000003 cyc:   62405724 now IPC :1.62539: AVG IPC :1.57913: L2-Pf-HR :0.47417: L2-HR :0.50999: (Sim:0h4m20s) 
CPU  0 inst:  100000000 cyc:   63030470 now IPC :1.60065: AVG IPC :1.57935: L2-Pf-HR :0.47321: L2-HR :0.50918: (Sim:0h4m22s) 
CPU  0 inst:  101000003 cyc:   63651725 now IPC :1.60965: AVG IPC :1.57965: L2-Pf-HR :0.47182: L2-HR :0.50807: (Sim:0h4m25s) 
CPU  0 inst:  102000001 cyc:   64280283 now IPC :1.59094: AVG IPC :1.57976: L2-Pf-HR :0.47181: L2-HR :0.50810: (Sim:0h4m28s) 
CPU  0 inst:  103000001 cyc:   64928182 now IPC :1.54345: AVG IPC :1.57939: L2-Pf-HR :0.47251: L2-HR :0.50871: (Sim:0h4m30s) 
CPU  0 inst:  104000000 cyc:   65536480 now IPC :1.64393: AVG IPC :1.58000: L2-Pf-HR :0.47562: L2-HR :0.51081: (Sim:0h4m33s) 
CPU  0 inst:  105000000 cyc:   66257234 now IPC :1.38744: AVG IPC :1.57787: L2-Pf-HR :0.47623: L2-HR :0.51176: (Sim:0h4m36s) 
CPU  0 inst:  106000002 cyc:   66868809 now IPC :1.63513: AVG IPC :1.57840: L2-Pf-HR :0.47512: L2-HR :0.51083: (Sim:0h4m38s) 
CPU  0 inst:  107000002 cyc:   67485516 now IPC :1.62152: AVG IPC :1.57880: L2-Pf-HR :0.47425: L2-HR :0.51009: (Sim:0h4m41s) 
CPU  0 inst:  108000000 cyc:   68109254 now IPC :1.60323: AVG IPC :1.57903: L2-Pf-HR :0.47312: L2-HR :0.50916: (Sim:0h4m43s) 
CPU  0 inst:  109000002 cyc:   68728890 now IPC :1.61385: AVG IPC :1.57935: L2-Pf-HR :0.47204: L2-HR :0.50827: (Sim:0h4m46s) 
CPU  0 inst:  110000002 cyc:   69355446 now IPC :1.59603: AVG IPC :1.57950: L2-Pf-HR :0.47196: L2-HR :0.50824: (Sim:0h4m49s) 
CPU  0 inst:  111000002 cyc:   70012494 now IPC :1.52196: AVG IPC :1.57895: L2-Pf-HR :0.47248: L2-HR :0.50871: (Sim:0h4m51s) 
CPU  0 inst:  112000000 cyc:   70619065 now IPC :1.64861: AVG IPC :1.57956: L2-Pf-HR :0.47532: L2-HR :0.51064: (Sim:0h4m54s) 
CPU  0 inst:  113000002 cyc:   71343343 now IPC :1.38069: AVG IPC :1.57751: L2-Pf-HR :0.47602: L2-HR :0.51159: (Sim:0h4m56s) 
CPU  0 inst:  114000000 cyc:   71953594 now IPC :1.63867: AVG IPC :1.57804: L2-Pf-HR :0.47505: L2-HR :0.51077: (Sim:0h4m59s) 
CPU  0 inst:  115000003 cyc:   72567689 now IPC :1.62842: AVG IPC :1.57847: L2-Pf-HR :0.47426: L2-HR :0.51009: (Sim:0h5m2s) 
CPU  0 inst:  116000000 cyc:   73191092 now IPC :1.60409: AVG IPC :1.57869: L2-Pf-HR :0.47305: L2-HR :0.50912: (Sim:0h5m4s) 
CPU  0 inst:  117000003 cyc:   73803986 now IPC :1.63161: AVG IPC :1.57914: L2-Pf-HR :0.47221: L2-HR :0.50840: (Sim:0h5m7s) 
CPU  0 inst:  118000000 cyc:   74431735 now IPC :1.59299: AVG IPC :1.57926: L2-Pf-HR :0.47205: L2-HR :0.50831: (Sim:0h5m9s) 
CPU  0 inst:  119000000 cyc:   75089919 now IPC :1.51933: AVG IPC :1.57872: L2-Pf-HR :0.47242: L2-HR :0.50866: (Sim:0h5m12s) 
CPU  0 inst:  120000000 cyc:   75704710 now IPC :1.62657: AVG IPC :1.57912: L2-Pf-HR :0.47511: L2-HR :0.51047: (Sim:0h5m15s) 
CPU  0 inst:  121000003 cyc:   76431865 now IPC :1.37523: AVG IPC :1.57715: L2-Pf-HR :0.47581: L2-HR :0.51138: (Sim:0h5m17s) 
CPU  0 inst:  122000001 cyc:   77040397 now IPC :1.64330: AVG IPC :1.57768: L2-Pf-HR :0.47511: L2-HR :0.51076: (Sim:0h5m21s) 
CPU  0 inst:  123000002 cyc:   77651316 now IPC :1.63688: AVG IPC :1.57815: L2-Pf-HR :0.47435: L2-HR :0.51010: (Sim:0h5m25s) 
CPU  0 inst:  124000000 cyc:   78269227 now IPC :1.61835: AVG IPC :1.57848: L2-Pf-HR :0.47318: L2-HR :0.50917: (Sim:0h5m29s) 
CPU  0 inst:  125000001 cyc:   78885157 now IPC :1.62356: AVG IPC :1.57883: L2-Pf-HR :0.47247: L2-HR :0.50855: (Sim:0h5m32s) 
CPU  0 inst:  126000003 cyc:   79508416 now IPC :1.60447: AVG IPC :1.57904: L2-Pf-HR :0.47215: L2-HR :0.50835: (Sim:0h5m34s) 
CPU  0 inst:  127000000 cyc:   80165980 now IPC :1.52076: AVG IPC :1.57855: L2-Pf-HR :0.47250: L2-HR :0.50869: (Sim:0h5m37s) 
CPU  0 inst:  128000000 cyc:   80778902 now IPC :1.63153: AVG IPC :1.57896: L2-Pf-HR :0.47501: L2-HR :0.51040: (Sim:0h5m39s) 
CPU  0 inst:  129000000 cyc:   81500707 now IPC :1.38542: AVG IPC :1.57722: L2-Pf-HR :0.47565: L2-HR :0.51128: (Sim:0h5m42s) 
CPU  0 inst:  130000001 cyc:   82110208 now IPC :1.64069: AVG IPC :1.57770: L2-Pf-HR :0.47510: L2-HR :0.51079: (Sim:0h5m45s) 
CPU  0 inst:  131000002 cyc:   82733216 now IPC :1.60512: AVG IPC :1.57791: L2-Pf-HR :0.47427: L2-HR :0.51009: (Sim:0h5m47s) 
CPU  0 inst:  132000000 cyc:   83347983 now IPC :1.62663: AVG IPC :1.57827: L2-Pf-HR :0.47329: L2-HR :0.50930: (Sim:0h5m50s) 
CPU  0 inst:  133000003 cyc:   83959119 now IPC :1.63630: AVG IPC :1.57870: L2-Pf-HR :0.47258: L2-HR :0.50869: (Sim:0h5m53s) 
CPU  0 inst:  134000002 cyc:   84586514 now IPC :1.59389: AVG IPC :1.57881: L2-Pf-HR :0.47210: L2-HR :0.50837: (Sim:0h5m56s) 
CPU  0 inst:  135000002 cyc:   85241694 now IPC :1.52630: AVG IPC :1.57841: L2-Pf-HR :0.47244: L2-HR :0.50869: (Sim:0h5m58s) 
CPU  0 inst:  136000000 cyc:   85856599 now IPC :1.62626: AVG IPC :1.57875: L2-Pf-HR :0.47476: L2-HR :0.51027: (Sim:0h6m1s) 
CPU  0 inst:  137000001 cyc:   86584501 now IPC :1.37381: AVG IPC :1.57701: L2-Pf-HR :0.47551: L2-HR :0.51118: (Sim:0h6m3s) 
CPU  0 inst:  138000002 cyc:   87201052 now IPC :1.62193: AVG IPC :1.57733: L2-Pf-HR :0.47505: L2-HR :0.51074: (Sim:0h6m6s) 
CPU  0 inst:  139000000 cyc:   87826716 now IPC :1.59830: AVG IPC :1.57748: L2-Pf-HR :0.47413: L2-HR :0.50999: (Sim:0h6m9s) 
CPU  0 inst:  140000000 cyc:   88446785 now IPC :1.61272: AVG IPC :1.57773: L2-Pf-HR :0.47335: L2-HR :0.50935: (Sim:0h6m11s) 
CPU  0 inst:  141000001 cyc:   89060600 now IPC :1.62916: AVG IPC :1.57809: L2-Pf-HR :0.47269: L2-HR :0.50878: (Sim:0h6m14s) 
CPU  0 inst:  142000001 cyc:   89684871 now IPC :1.60187: AVG IPC :1.57826: L2-Pf-HR :0.47223: L2-HR :0.50847: (Sim:0h6m16s) 
CPU  0 inst:  143000002 cyc:   90350552 now IPC :1.50222: AVG IPC :1.57769: L2-Pf-HR :0.47245: L2-HR :0.50871: (Sim:0h6m19s) 
CPU  0 inst:  144000000 cyc:   90951843 now IPC :1.66308: AVG IPC :1.57826: L2-Pf-HR :0.47468: L2-HR :0.51023: (Sim:0h6m21s) 
CPU  0 inst:  145000000 cyc:   91665242 now IPC :1.40174: AVG IPC :1.57687: L2-Pf-HR :0.47551: L2-HR :0.51116: (Sim:0h6m24s) 
CPU  0 inst:  146000001 cyc:   92283430 now IPC :1.61763: AVG IPC :1.57715: L2-Pf-HR :0.47505: L2-HR :0.51074: (Sim:0h6m27s) 
CPU  0 inst:  147000003 cyc:   92913822 now IPC :1.58632: AVG IPC :1.57721: L2-Pf-HR :0.47408: L2-HR :0.50997: (Sim:0h6m29s) 
CPU  0 inst:  148000000 cyc:   93527195 now IPC :1.63032: AVG IPC :1.57756: L2-Pf-HR :0.47344: L2-HR :0.50941: (Sim:0h6m32s) 
CPU  0 inst:  149000002 cyc:   94147814 now IPC :1.61130: AVG IPC :1.57779: L2-Pf-HR :0.47268: L2-HR :0.50878: (Sim:0h6m35s) 
CPU  0 inst:  150000001 cyc:   94771410 now IPC :1.60360: AVG IPC :1.57796: L2-Pf-HR :0.47235: L2-HR :0.50856: (Sim:0h6m37s) 
CPU  0 inst:  151000002 cyc:   95435600 now IPC :1.50559: AVG IPC :1.57745: L2-Pf-HR :0.47242: L2-HR :0.50869: (Sim:0h6m40s) 
CPU  0 inst:  152000000 cyc:   96049915 now IPC :1.62783: AVG IPC :1.57778: L2-Pf-HR :0.47456: L2-HR :0.51013: (Sim:0h6m42s) 
CPU  0 inst:  153000000 cyc:   96763516 now IPC :1.40134: AVG IPC :1.57646: L2-Pf-HR :0.47549: L2-HR :0.51112: (Sim:0h6m45s) 
CPU  0 inst:  154000000 cyc:   97391399 now IPC :1.59265: AVG IPC :1.57657: L2-Pf-HR :0.47499: L2-HR :0.51068: (Sim:0h6m48s) 
CPU  0 inst:  155000002 cyc:   98010726 now IPC :1.61466: AVG IPC :1.57681: L2-Pf-HR :0.47414: L2-HR :0.51000: (Sim:0h6m50s) 
CPU  0 inst:  156000000 cyc:   98623882 now IPC :1.63090: AVG IPC :1.57715: L2-Pf-HR :0.47353: L2-HR :0.50947: (Sim:0h6m53s) 
CPU  0 inst:  157000001 cyc:   99241750 now IPC :1.61847: AVG IPC :1.57741: L2-Pf-HR :0.47270: L2-HR :0.50880: (Sim:0h6m55s) 
CPU  0 inst:  158000001 cyc:   99865161 now IPC :1.60408: AVG IPC :1.57758: L2-Pf-HR :0.47246: L2-HR :0.50864: (Sim:0h6m58s) 
CPU  0 inst:  159000003 cyc:  100523108 now IPC :1.51988: AVG IPC :1.57720: L2-Pf-HR :0.47242: L2-HR :0.50870: (Sim:0h7m1s) 
CPU  0 inst:  160000000 cyc:  101131593 now IPC :1.64342: AVG IPC :1.57760: L2-Pf-HR :0.47446: L2-HR :0.51006: (Sim:0h7m3s) 
CPU  0 inst:  161000002 cyc:  101833105 now IPC :1.42550: AVG IPC :1.57654: L2-Pf-HR :0.47546: L2-HR :0.51106: (Sim:0h7m6s) 
CPU  0 inst:  162000003 cyc:  102465993 now IPC :1.58006: AVG IPC :1.57656: L2-Pf-HR :0.47484: L2-HR :0.51056: (Sim:0h7m9s) 
CPU  0 inst:  163000000 cyc:  103082298 now IPC :1.62257: AVG IPC :1.57684: L2-Pf-HR :0.47417: L2-HR :0.50999: (Sim:0h7m11s) 
CPU  0 inst:  164000000 cyc:  103698058 now IPC :1.62401: AVG IPC :1.57712: L2-Pf-HR :0.47359: L2-HR :0.50949: (Sim:0h7m14s) 
CPU  0 inst:  165000003 cyc:  104310667 now IPC :1.63237: AVG IPC :1.57745: L2-Pf-HR :0.47275: L2-HR :0.50882: (Sim:0h7m16s) 
CPU  0 inst:  166000000 cyc:  104942975 now IPC :1.58150: AVG IPC :1.57748: L2-Pf-HR :0.47257: L2-HR :0.50869: (Sim:0h7m19s) 
CPU  0 inst:  167000002 cyc:  105601902 now IPC :1.51762: AVG IPC :1.57710: L2-Pf-HR :0.47243: L2-HR :0.50868: (Sim:0h7m22s) 
CPU  0 inst:  168000000 cyc:  106212079 now IPC :1.63887: AVG IPC :1.57746: L2-Pf-HR :0.47436: L2-HR :0.50999: (Sim:0h7m24s) 
CPU  0 inst:  169000000 cyc:  106918221 now IPC :1.41615: AVG IPC :1.57638: L2-Pf-HR :0.47541: L2-HR :0.51104: (Sim:0h7m27s) 
CPU  0 inst:  170000003 cyc:  107549966 now IPC :1.58292: AVG IPC :1.57642: L2-Pf-HR :0.47476: L2-HR :0.51052: (Sim:0h7m29s) 
CPU  0 inst:  171000002 cyc:  108165191 now IPC :1.62542: AVG IPC :1.57670: L2-Pf-HR :0.47420: L2-HR :0.51002: (Sim:0h7m32s) 
CPU  0 inst:  172000000 cyc:  108778740 now IPC :1.62986: AVG IPC :1.57701: L2-Pf-HR :0.47355: L2-HR :0.50949: (Sim:0h7m35s) 
CPU  0 inst:  173000001 cyc:  109388326 now IPC :1.64046: AVG IPC :1.57736: L2-Pf-HR :0.47286: L2-HR :0.50892: (Sim:0h7m37s) 
CPU  0 inst:  174000001 cyc:  110014022 now IPC :1.59822: AVG IPC :1.57748: L2-Pf-HR :0.47264: L2-HR :0.50876: (Sim:0h7m40s) 
CPU  0 inst:  175000002 cyc:  110674900 now IPC :1.51314: AVG IPC :1.57709: L2-Pf-HR :0.47238: L2-HR :0.50867: (Sim:0h7m42s) 
CPU  0 inst:  176000000 cyc:  111290369 now IPC :1.62477: AVG IPC :1.57736: L2-Pf-HR :0.47423: L2-HR :0.50992: (Sim:0h7m45s) 
CPU  0 inst:  177000003 cyc:  111992533 now IPC :1.42417: AVG IPC :1.57639: L2-Pf-HR :0.47538: L2-HR :0.51101: (Sim:0h7m48s) 
CPU  0 inst:  178000001 cyc:  112626205 now IPC :1.57810: AVG IPC :1.57640: L2-Pf-HR :0.47475: L2-HR :0.51050: (Sim:0h7m50s) 
CPU  0 inst:  179000002 cyc:  113234932 now IPC :1.64277: AVG IPC :1.57676: L2-Pf-HR :0.47420: L2-HR :0.51002: (Sim:0h7m53s) 
CPU  0 inst:  180000000 cyc:  113845864 now IPC :1.63684: AVG IPC :1.57709: L2-Pf-HR :0.47349: L2-HR :0.50944: (Sim:0h7m56s) 
CPU  0 inst:  181000003 cyc:  114452180 now IPC :1.64931: AVG IPC :1.57747: L2-Pf-HR :0.47290: L2-HR :0.50895: (Sim:0h7m58s) 
CPU  0 inst:  182000002 cyc:  115071847 now IPC :1.61377: AVG IPC :1.57767: L2-Pf-HR :0.47264: L2-HR :0.50876: (Sim:0h8m1s) 
CPU  0 inst:  183000003 cyc:  115736059 now IPC :1.50554: AVG IPC :1.57725: L2-Pf-HR :0.47233: L2-HR :0.50862: (Sim:0h8m3s) 
CPU  0 inst:  184000000 cyc:  116356231 now IPC :1.61245: AVG IPC :1.57744: L2-Pf-HR :0.47412: L2-HR :0.50983: (Sim:0h8m6s) 
CPU  0 inst:  185000003 cyc:  117061670 now IPC :1.41756: AVG IPC :1.57647: L2-Pf-HR :0.47529: L2-HR :0.51093: (Sim:0h8m9s) 
CPU  0 inst:  186000000 cyc:  117706220 now IPC :1.55147: AVG IPC :1.57633: L2-Pf-HR :0.47476: L2-HR :0.51051: (Sim:0h8m11s) 
CPU  0 inst:  187000000 cyc:  118327624 now IPC :1.60926: AVG IPC :1.57651: L2-Pf-HR :0.47429: L2-HR :0.51008: (Sim:0h8m14s) 
CPU  0 inst:  188000000 cyc:  118942361 now IPC :1.62671: AVG IPC :1.57677: L2-Pf-HR :0.47353: L2-HR :0.50947: (Sim:0h8m17s) 
CPU  0 inst:  189000001 cyc:  119557622 now IPC :1.62533: AVG IPC :1.57702: L2-Pf-HR :0.47303: L2-HR :0.50904: (Sim:0h8m20s) 
CPU  0 inst:  190000000 cyc:  120192354 now IPC :1.57547: AVG IPC :1.57701: L2-Pf-HR :0.47268: L2-HR :0.50878: (Sim:0h8m23s) 
CPU  0 inst:  191000000 cyc:  120851846 now IPC :1.51632: AVG IPC :1.57668: L2-Pf-HR :0.47241: L2-HR :0.50867: (Sim:0h8m27s) 
CPU  0 inst:  192000000 cyc:  121466603 now IPC :1.62666: AVG IPC :1.57693: L2-Pf-HR :0.47412: L2-HR :0.50985: (Sim:0h8m32s) 
CPU  0 inst:  193000000 cyc:  122154594 now IPC :1.45351: AVG IPC :1.57623: L2-Pf-HR :0.47533: L2-HR :0.51097: (Sim:0h8m36s) 
CPU  0 inst:  194000003 cyc:  122798120 now IPC :1.55394: AVG IPC :1.57611: L2-Pf-HR :0.47480: L2-HR :0.51056: (Sim:0h8m40s) 
CPU  0 inst:  195000000 cyc:  123413324 now IPC :1.62547: AVG IPC :1.57636: L2-Pf-HR :0.47428: L2-HR :0.51011: (Sim:0h8m45s) 
CPU  0 inst:  196000000 cyc:  124018617 now IPC :1.65209: AVG IPC :1.57673: L2-Pf-HR :0.47362: L2-HR :0.50958: (Sim:0h8m49s) 
CPU  0 inst:  197000002 cyc:  124627794 now IPC :1.64156: AVG IPC :1.57705: L2-Pf-HR :0.47313: L2-HR :0.50917: (Sim:0h8m53s) 
CPU  0 inst:  198000000 cyc:  125255405 now IPC :1.59334: AVG IPC :1.57714: L2-Pf-HR :0.47267: L2-HR :0.50882: (Sim:0h8m57s) 
CPU  0 inst:  199000000 cyc:  125907883 now IPC :1.53262: AVG IPC :1.57690: L2-Pf-HR :0.47242: L2-HR :0.50871: (Sim:0h9m2s) 
CPU  0 inst:  200000000 cyc:  126517883 now IPC :1.63934: AVG IPC :1.57721: L2-Pf-HR :0.47403: L2-HR :0.50981: (Sim:0h9m6s) 
CPU  0 inst:  201000003 cyc:  127167492 now IPC :1.53939: AVG IPC :1.57701: L2-Pf-HR :0.47554: L2-HR :0.51100: (Sim:0h9m10s) 
CPU  0 inst:  202000000 cyc:  127852420 now IPC :1.46000: AVG IPC :1.57638: L2-Pf-HR :0.47470: L2-HR :0.51048: (Sim:0h9m15s) 
CPU  0 inst:  203000002 cyc:  128477974 now IPC :1.59859: AVG IPC :1.57649: L2-Pf-HR :0.47414: L2-HR :0.51001: (Sim:0h9m19s) 
CPU  0 inst:  204000000 cyc:  129092973 now IPC :1.62602: AVG IPC :1.57673: L2-Pf-HR :0.47361: L2-HR :0.50957: (Sim:0h9m23s) 
CPU  0 inst:  205000001 cyc:  129719044 now IPC :1.59726: AVG IPC :1.57683: L2-Pf-HR :0.47317: L2-HR :0.50919: (Sim:0h9m28s) 
CPU  0 inst:  206000003 cyc:  130347958 now IPC :1.59005: AVG IPC :1.57689: L2-Pf-HR :0.47270: L2-HR :0.50885: (Sim:0h9m32s) 
CPU  0 inst:  207000003 cyc:  130991557 now IPC :1.55376: AVG IPC :1.57678: L2-Pf-HR :0.47244: L2-HR :0.50866: (Sim:0h9m36s) 
CPU  0 inst:  208000000 cyc:  131630927 now IPC :1.56403: AVG IPC :1.57671: L2-Pf-HR :0.47397: L2-HR :0.50978: (Sim:0h9m41s) 
CPU  0 inst:  209000002 cyc:  132262858 now IPC :1.58245: AVG IPC :1.57674: L2-Pf-HR :0.47566: L2-HR :0.51101: (Sim:0h9m45s) 
CPU  0 inst:  210000000 cyc:  132965379 now IPC :1.42344: AVG IPC :1.57593: L2-Pf-HR :0.47472: L2-HR :0.51052: (Sim:0h9m49s) 
CPU  0 inst:  211000003 cyc:  133577473 now IPC :1.63374: AVG IPC :1.57619: L2-Pf-HR :0.47410: L2-HR :0.51001: (Sim:0h9m54s) 
CPU  0 inst:  212000000 cyc:  134186303 now IPC :1.64249: AVG IPC :1.57650: L2-Pf-HR :0.47366: L2-HR :0.50963: (Sim:0h9m58s) 
CPU  0 inst:  213000001 cyc:  134805203 now IPC :1.61577: AVG IPC :1.57668: L2-Pf-HR :0.47314: L2-HR :0.50918: (Sim:0h10m2s) 
CPU  0 inst:  214000000 cyc:  135427004 now IPC :1.60823: AVG IPC :1.57682: L2-Pf-HR :0.47277: L2-HR :0.50891: (Sim:0h10m7s) 
CPU  0 inst:  215000001 cyc:  136055735 now IPC :1.59051: AVG IPC :1.57689: L2-Pf-HR :0.47259: L2-HR :0.50878: (Sim:0h10m11s) 
CPU  0 inst:  216000000 cyc:  136698301 now IPC :1.55626: AVG IPC :1.57679: L2-Pf-HR :0.47390: L2-HR :0.50974: (Sim:0h10m15s) 
CPU  0 inst:  217000000 cyc:  137317906 now IPC :1.61393: AVG IPC :1.57696: L2-Pf-HR :0.47553: L2-HR :0.51089: (Sim:0h10m20s) 
CPU  0 inst:  218000002 cyc:  138041500 now IPC :1.38199: AVG IPC :1.57593: L2-Pf-HR :0.47474: L2-HR :0.51050: (Sim:0h10m25s) 
CPU  0 inst:  219000002 cyc:  138652987 now IPC :1.63536: AVG IPC :1.57619: L2-Pf-HR :0.47418: L2-HR :0.51004: (Sim:0h10m29s) 
CPU  0 inst:  220000000 cyc:  139264898 now IPC :1.63422: AVG IPC :1.57645: L2-Pf-HR :0.47374: L2-HR :0.50966: (Sim:0h10m33s) 
CPU  0 inst:  221000002 cyc:  139889412 now IPC :1.60125: AVG IPC :1.57656: L2-Pf-HR :0.47313: L2-HR :0.50917: (Sim:0h10m38s) 
CPU  0 inst:  222000001 cyc:  140501196 now IPC :1.63456: AVG IPC :1.57682: L2-Pf-HR :0.47285: L2-HR :0.50895: (Sim:0h10m42s) 
CPU  0 inst:  223000000 cyc:  141130496 now IPC :1.58907: AVG IPC :1.57687: L2-Pf-HR :0.47274: L2-HR :0.50888: (Sim:0h10m46s) 
CPU  0 inst:  224000000 cyc:  141779407 now IPC :1.54104: AVG IPC :1.57671: L2-Pf-HR :0.47385: L2-HR :0.50971: (Sim:0h10m51s) 
CPU  0 inst:  225000001 cyc:  142396535 now IPC :1.62041: AVG IPC :1.57690: L2-Pf-HR :0.47539: L2-HR :0.51080: (Sim:0h10m55s) 
CPU  0 inst:  226000002 cyc:  143110289 now IPC :1.40104: AVG IPC :1.57601: L2-Pf-HR :0.47464: L2-HR :0.51045: (Sim:0h11m0s) 
CPU  0 inst:  227000002 cyc:  143714212 now IPC :1.65584: AVG IPC :1.57635: L2-Pf-HR :0.47417: L2-HR :0.51005: (Sim:0h11m4s) 
CPU  0 inst:  228000000 cyc:  144329556 now IPC :1.62510: AVG IPC :1.57656: L2-Pf-HR :0.47376: L2-HR :0.50970: (Sim:0h11m8s) 
CPU  0 inst:  229000002 cyc:  144950710 now IPC :1.60991: AVG IPC :1.57670: L2-Pf-HR :0.47314: L2-HR :0.50920: (Sim:0h11m13s) 
CPU  0 inst:  230000002 cyc:  145569170 now IPC :1.61692: AVG IPC :1.57688: L2-Pf-HR :0.47290: L2-HR :0.50900: (Sim:0h11m17s) 
CPU  0 inst:  231000002 cyc:  146194760 now IPC :1.59849: AVG IPC :1.57697: L2-Pf-HR :0.47283: L2-HR :0.50896: (Sim:0h11m21s) 
CPU  0 inst:  232000000 cyc:  146841555 now IPC :1.54608: AVG IPC :1.57683: L2-Pf-HR :0.47381: L2-HR :0.50969: (Sim:0h11m26s) 
CPU  0 inst:  233000002 cyc:  147459480 now IPC :1.61832: AVG IPC :1.57701: L2-Pf-HR :0.47528: L2-HR :0.51074: (Sim:0h11m30s) 
CPU  0 inst:  234000003 cyc:  148175265 now IPC :1.39707: AVG IPC :1.57613: L2-Pf-HR :0.47459: L2-HR :0.51043: (Sim:0h11m35s) 
CPU  0 inst:  235000000 cyc:  148789143 now IPC :1.62898: AVG IPC :1.57635: L2-Pf-HR :0.47421: L2-HR :0.51010: (Sim:0h11m39s) 
CPU  0 inst:  236000000 cyc:  149406750 now IPC :1.61915: AVG IPC :1.57653: L2-Pf-HR :0.47372: L2-HR :0.50969: (Sim:0h11m43s) 
CPU  0 inst:  237000001 cyc:  150023179 now IPC :1.62225: AVG IPC :1.57672: L2-Pf-HR :0.47319: L2-HR :0.50926: (Sim:0h11m48s) 
CPU  0 inst:  238000000 cyc:  150639901 now IPC :1.62147: AVG IPC :1.57690: L2-Pf-HR :0.47294: L2-HR :0.50905: (Sim:0h11m52s) 
CPU  0 inst:  239000002 cyc:  151263977 now IPC :1.60237: AVG IPC :1.57701: L2-Pf-HR :0.47275: L2-HR :0.50894: (Sim:0h11m56s) 
CPU  0 inst:  240000000 cyc:  151914894 now IPC :1.53629: AVG IPC :1.57683: L2-Pf-HR :0.47370: L2-HR :0.50962: (Sim:0h12m1s) 
CPU  0 inst:  241000002 cyc:  152533268 now IPC :1.61715: AVG IPC :1.57700: L2-Pf-HR :0.47511: L2-HR :0.51061: (Sim:0h12m5s) 
CPU  0 inst:  242000003 cyc:  153257238 now IPC :1.38127: AVG IPC :1.57607: L2-Pf-HR :0.47451: L2-HR :0.51036: (Sim:0h12m10s) 
CPU  0 inst:  243000000 cyc:  153874024 now IPC :1.62130: AVG IPC :1.57625: L2-Pf-HR :0.47415: L2-HR :0.51004: (Sim:0h12m14s) 
CPU  0 inst:  244000000 cyc:  154496701 now IPC :1.60597: AVG IPC :1.57637: L2-Pf-HR :0.47362: L2-HR :0.50961: (Sim:0h12m18s) 
CPU  0 inst:  245000001 cyc:  155108742 now IPC :1.63388: AVG IPC :1.57660: L2-Pf-HR :0.47318: L2-HR :0.50924: (Sim:0h12m23s) 
CPU  0 inst:  246000000 cyc:  155725114 now IPC :1.62240: AVG IPC :1.57678: L2-Pf-HR :0.47288: L2-HR :0.50901: (Sim:0h12m27s) 
CPU  0 inst:  247000003 cyc:  156354455 now IPC :1.58897: AVG IPC :1.57683: L2-Pf-HR :0.47274: L2-HR :0.50893: (Sim:0h12m31s) 
CPU  0 inst:  248000000 cyc:  157011091 now IPC :1.52291: AVG IPC :1.57660: L2-Pf-HR :0.47363: L2-HR :0.50957: (Sim:0h12m36s) 
CPU  0 inst:  249000002 cyc:  157628757 now IPC :1.61900: AVG IPC :1.57677: L2-Pf-HR :0.47499: L2-HR :0.51053: (Sim:0h12m40s) 
CPU  0 inst:  250000000 cyc:  158344709 now IPC :1.39674: AVG IPC :1.57595: L2-Pf-HR :0.47451: L2-HR :0.51037: (Sim:0h12m45s) 
CPU  0 inst:  251000000 cyc:  158961203 now IPC :1.62208: AVG IPC :1.57613: L2-Pf-HR :0.47415: L2-HR :0.51005: (Sim:0h12m49s) 
CPU  0 inst:  252000000 cyc:  159578375 now IPC :1.62029: AVG IPC :1.57630: L2-Pf-HR :0.47356: L2-HR :0.50958: (Sim:0h12m53s) 
CPU  0 inst:  253000002 cyc:  160191367 now IPC :1.63135: AVG IPC :1.57652: L2-Pf-HR :0.47320: L2-HR :0.50927: (Sim:0h12m57s) 
CPU  0 inst:  254000003 cyc:  160809131 now IPC :1.61874: AVG IPC :1.57668: L2-Pf-HR :0.47283: L2-HR :0.50898: (Sim:0h13m1s) 
CPU  0 inst:  255000001 cyc:  161428790 now IPC :1.61379: AVG IPC :1.57682: L2-Pf-HR :0.47276: L2-HR :0.50894: (Sim:0h13m6s) 
CPU  0 inst:  256000000 cyc:  162081907 now IPC :1.53112: AVG IPC :1.57664: L2-Pf-HR :0.47355: L2-HR :0.50952: (Sim:0h13m10s) 
CPU  0 inst:  257000002 cyc:  162694190 now IPC :1.63323: AVG IPC :1.57685: L2-Pf-HR :0.47484: L2-HR :0.51042: (Sim:0h13m14s) 
CPU  0 inst:  258000003 cyc:  167749719 now IPC :0.19780: AVG IPC :1.53505: L2-Pf-HR :0.46752: L2-HR :0.51029: (Sim:0h13m27s) 
CPU  0 inst:  259000000 cyc:  174290075 now IPC :0.15290: AVG IPC :1.48289: L2-Pf-HR :0.45770: L2-HR :0.50998: (Sim:0h13m42s) 
CPU  0 inst:  260000000 cyc:  180839216 now IPC :0.15269: AVG IPC :1.43445: L2-Pf-HR :0.44829: L2-HR :0.50970: (Sim:0h13m58s) 
CPU  0 inst:  261000001 cyc:  187388365 now IPC :0.15269: AVG IPC :1.38942: L2-Pf-HR :0.43926: L2-HR :0.50944: (Sim:0h14m14s) 
CPU  0 inst:  262000001 cyc:  193793391 now IPC :0.15613: AVG IPC :1.34845: L2-Pf-HR :0.43090: L2-HR :0.50914: (Sim:0h14m29s) 
CPU  0 inst:  263000000 cyc:  197380629 now IPC :0.27877: AVG IPC :1.32891: L2-Pf-HR :0.43021: L2-HR :0.50876: (Sim:0h14m38s) 
CPU  0 inst:  264000000 cyc:  200908490 now IPC :0.28346: AVG IPC :1.31047: L2-Pf-HR :0.42958: L2-HR :0.50843: (Sim:0h14m46s) 
CPU  0 inst:  265000002 cyc:  204436539 now IPC :0.28344: AVG IPC :1.29266: L2-Pf-HR :0.42892: L2-HR :0.50810: (Sim:0h14m55s) 
CPU  0 inst:  266000002 cyc:  207964205 now IPC :0.28347: AVG IPC :1.27546: L2-Pf-HR :0.42826: L2-HR :0.50777: (Sim:0h15m4s) 
CPU  0 inst:  267000002 cyc:  211492005 now IPC :0.28346: AVG IPC :1.25883: L2-Pf-HR :0.42759: L2-HR :0.50745: (Sim:0h15m13s) 
CPU  0 inst:  268000000 cyc:  215020082 now IPC :0.28344: AVG IPC :1.24275: L2-Pf-HR :0.42692: L2-HR :0.50712: (Sim:0h15m22s) 
CPU  0 inst:  269000001 cyc:  218547703 now IPC :0.28348: AVG IPC :1.22720: L2-Pf-HR :0.42626: L2-HR :0.50680: (Sim:0h15m31s) 
CPU  0 inst:  270000000 cyc:  222075392 now IPC :0.28347: AVG IPC :1.21214: L2-Pf-HR :0.42562: L2-HR :0.50649: (Sim:0h15m40s) 
CPU  0 inst:  271000001 cyc:  225602798 now IPC :0.28349: AVG IPC :1.19756: L2-Pf-HR :0.42497: L2-HR :0.50617: (Sim:0h15m49s) 
CPU  0 inst:  272000000 cyc:  229129346 now IPC :0.28356: AVG IPC :1.18343: L2-Pf-HR :0.42434: L2-HR :0.50586: (Sim:0h15m58s) 
CPU  0 inst:  273000002 cyc:  232656820 now IPC :0.28349: AVG IPC :1.16973: L2-Pf-HR :0.42369: L2-HR :0.50555: (Sim:0h16m7s) 
CPU  0 inst:  274000002 cyc:  236184573 now IPC :0.28347: AVG IPC :1.15644: L2-Pf-HR :0.42305: L2-HR :0.50524: (Sim:0h16m16s) 
CPU  0 inst:  275000002 cyc:  239712697 now IPC :0.28344: AVG IPC :1.14354: L2-Pf-HR :0.42243: L2-HR :0.50493: (Sim:0h16m25s) 
CPU  0 inst:  276000000 cyc:  243240293 now IPC :0.28348: AVG IPC :1.13101: L2-Pf-HR :0.42181: L2-HR :0.50463: (Sim:0h16m34s) 
CPU  0 inst:  277000001 cyc:  246767985 now IPC :0.28347: AVG IPC :1.11885: L2-Pf-HR :0.42121: L2-HR :0.50433: (Sim:0h16m42s) 
CPU  0 inst:  278000000 cyc:  250296108 now IPC :0.28344: AVG IPC :1.10703: L2-Pf-HR :0.42059: L2-HR :0.50403: (Sim:0h16m51s) 
CPU  0 inst:  279000000 cyc:  253823938 now IPC :0.28346: AVG IPC :1.09554: L2-Pf-HR :0.41999: L2-HR :0.50373: (Sim:0h16m59s) 
CPU  0 inst:  280000000 cyc:  257351506 now IPC :0.28348: AVG IPC :1.08436: L2-Pf-HR :0.41939: L2-HR :0.50344: (Sim:0h17m6s) 
CPU  0 inst:  281000001 cyc:  260878472 now IPC :0.28353: AVG IPC :1.07349: L2-Pf-HR :0.41880: L2-HR :0.50314: (Sim:0h17m14s) 
CPU  0 inst:  282000001 cyc:  264405630 now IPC :0.28351: AVG IPC :1.06292: L2-Pf-HR :0.41822: L2-HR :0.50285: (Sim:0h17m20s) 
CPU  0 inst:  283000002 cyc:  267933308 now IPC :0.28347: AVG IPC :1.05262: L2-Pf-HR :0.41763: L2-HR :0.50256: (Sim:0h17m26s) 
CPU  0 inst:  284000000 cyc:  271460983 now IPC :0.28347: AVG IPC :1.04259: L2-Pf-HR :0.41703: L2-HR :0.50227: (Sim:0h17m35s) 
CPU  0 inst:  285000001 cyc:  274988802 now IPC :0.28346: AVG IPC :1.03281: L2-Pf-HR :0.41644: L2-HR :0.50199: (Sim:0h17m43s) 
CPU  0 inst:  286000000 cyc:  278516847 now IPC :0.28344: AVG IPC :1.02329: L2-Pf-HR :0.41584: L2-HR :0.50170: (Sim:0h17m50s) 
CPU  0 inst:  287000000 cyc:  282044419 now IPC :0.28348: AVG IPC :1.01400: L2-Pf-HR :0.41525: L2-HR :0.50142: (Sim:0h17m56s) 
CPU  0 inst:  288000000 cyc:  285572105 now IPC :0.28347: AVG IPC :1.00495: L2-Pf-HR :0.41466: L2-HR :0.50114: (Sim:0h18m4s) 
CPU  0 inst:  289000001 cyc:  289100243 now IPC :0.28344: AVG IPC :0.99611: L2-Pf-HR :0.41411: L2-HR :0.50086: (Sim:0h18m13s) 
CPU  0 inst:  290000003 cyc:  292627667 now IPC :0.28349: AVG IPC :0.98749: L2-Pf-HR :0.41356: L2-HR :0.50059: (Sim:0h18m22s) 
CPU  0 inst:  291000001 cyc:  296154319 now IPC :0.28355: AVG IPC :0.97908: L2-Pf-HR :0.41301: L2-HR :0.50031: (Sim:0h18m31s) 
CPU  0 inst:  292000000 cyc:  299681585 now IPC :0.28351: AVG IPC :0.97087: L2-Pf-HR :0.41248: L2-HR :0.50004: (Sim:0h18m39s) 
CPU  0 inst:  293000001 cyc:  303209508 now IPC :0.28345: AVG IPC :0.96284: L2-Pf-HR :0.41192: L2-HR :0.49977: (Sim:0h18m47s) 
CPU  0 inst:  294000000 cyc:  306737073 now IPC :0.28348: AVG IPC :0.95500: L2-Pf-HR :0.41136: L2-HR :0.49950: (Sim:0h18m54s) 
CPU  0 inst:  295000000 cyc:  310264714 now IPC :0.28348: AVG IPC :0.94735: L2-Pf-HR :0.41080: L2-HR :0.49923: (Sim:0h19m0s) 
CPU  0 inst:  296000000 cyc:  313792833 now IPC :0.28344: AVG IPC :0.93986: L2-Pf-HR :0.41023: L2-HR :0.49897: (Sim:0h19m7s) 
CPU  0 inst:  297000001 cyc:  317320720 now IPC :0.28346: AVG IPC :0.93254: L2-Pf-HR :0.40968: L2-HR :0.49870: (Sim:0h19m13s) 
CPU  0 inst:  298000002 cyc:  320848401 now IPC :0.28347: AVG IPC :0.92538: L2-Pf-HR :0.40913: L2-HR :0.49844: (Sim:0h19m22s) 
CPU  0 inst:  299000002 cyc:  324376275 now IPC :0.28346: AVG IPC :0.91838: L2-Pf-HR :0.40859: L2-HR :0.49818: (Sim:0h19m31s) 
CPU  0 inst:  300000000 cyc:  327904052 now IPC :0.28346: AVG IPC :0.91153: L2-Pf-HR :0.40804: L2-HR :0.49792: (Sim:0h19m40s) 
CPU  0 inst:  301000001 cyc:  331430426 now IPC :0.28358: AVG IPC :0.90482: L2-Pf-HR :0.40750: L2-HR :0.49767: (Sim:0h19m49s) 
CPU  0 inst:  302000000 cyc:  334957821 now IPC :0.28350: AVG IPC :0.89826: L2-Pf-HR :0.40697: L2-HR :0.49741: (Sim:0h19m57s) 
CPU  0 inst:  303000000 cyc:  338485505 now IPC :0.28347: AVG IPC :0.89184: L2-Pf-HR :0.40645: L2-HR :0.49716: (Sim:0h20m6s) 
CPU  0 inst:  304000000 cyc:  342013555 now IPC :0.28344: AVG IPC :0.88554: L2-Pf-HR :0.40593: L2-HR :0.49690: (Sim:0h20m15s) 
CPU  0 inst:  305000001 cyc:  345541184 now IPC :0.28348: AVG IPC :0.87938: L2-Pf-HR :0.40541: L2-HR :0.49665: (Sim:0h20m24s) 
CPU  0 inst:  306000002 cyc:  349068892 now IPC :0.28347: AVG IPC :0.87334: L2-Pf-HR :0.40490: L2-HR :0.49640: (Sim:0h20m33s) 
CPU  0 inst:  307000002 cyc:  352597020 now IPC :0.28344: AVG IPC :0.86742: L2-Pf-HR :0.40438: L2-HR :0.49616: (Sim:0h20m41s) 
CPU  0 inst:  308000000 cyc:  356124595 now IPC :0.28348: AVG IPC :0.86162: L2-Pf-HR :0.40386: L2-HR :0.49591: (Sim:0h20m50s) 
CPU  0 inst:  309000000 cyc:  359652339 now IPC :0.28347: AVG IPC :0.85593: L2-Pf-HR :0.40334: L2-HR :0.49567: (Sim:0h20m59s) 
CPU  0 inst:  310000003 cyc:  363179967 now IPC :0.28348: AVG IPC :0.85036: L2-Pf-HR :0.40280: L2-HR :0.49543: (Sim:0h21m7s) 
CPU  0 inst:  311000002 cyc:  366706511 now IPC :0.28356: AVG IPC :0.84489: L2-Pf-HR :0.40229: L2-HR :0.49518: (Sim:0h21m13s) 
CPU  0 inst:  312000000 cyc:  370233754 now IPC :0.28351: AVG IPC :0.83953: L2-Pf-HR :0.40177: L2-HR :0.49494: (Sim:0h21m18s) 
CPU  0 inst:  313000001 cyc:  373761451 now IPC :0.28347: AVG IPC :0.83427: L2-Pf-HR :0.40127: L2-HR :0.49471: (Sim:0h21m24s) 
CPU  0 inst:  314000002 cyc:  377289584 now IPC :0.28344: AVG IPC :0.82910: L2-Pf-HR :0.40076: L2-HR :0.49447: (Sim:0h21m30s) 
CPU  0 inst:  315000002 cyc:  380817473 now IPC :0.28346: AVG IPC :0.82404: L2-Pf-HR :0.40025: L2-HR :0.49423: (Sim:0h21m36s) 
CPU  0 inst:  316000000 cyc:  384345154 now IPC :0.28347: AVG IPC :0.81906: L2-Pf-HR :0.39976: L2-HR :0.49400: (Sim:0h21m42s) 
CPU  0 inst:  317000000 cyc:  387873028 now IPC :0.28346: AVG IPC :0.81418: L2-Pf-HR :0.39928: L2-HR :0.49377: (Sim:0h21m49s) 
CPU  0 inst:  318000001 cyc:  391401079 now IPC :0.28344: AVG IPC :0.80938: L2-Pf-HR :0.39880: L2-HR :0.49354: (Sim:0h21m57s) 
CPU  0 inst:  319000000 cyc:  394928706 now IPC :0.28348: AVG IPC :0.80467: L2-Pf-HR :0.39832: L2-HR :0.49331: (Sim:0h22m4s) 
CPU  0 inst:  320000000 cyc:  398455811 now IPC :0.28352: AVG IPC :0.80005: L2-Pf-HR :0.39782: L2-HR :0.49308: (Sim:0h22m13s) 
CPU  0 inst:  321000000 cyc:  401982690 now IPC :0.28354: AVG IPC :0.79550: L2-Pf-HR :0.39736: L2-HR :0.49285: (Sim:0h22m22s) 
CPU  0 inst:  322000002 cyc:  405510327 now IPC :0.28348: AVG IPC :0.79104: L2-Pf-HR :0.39690: L2-HR :0.49263: (Sim:0h22m31s) 
CPU  0 inst:  323000002 cyc:  409037944 now IPC :0.28348: AVG IPC :0.78665: L2-Pf-HR :0.39642: L2-HR :0.49240: (Sim:0h22m40s) 
CPU  0 inst:  324000000 cyc:  412565640 now IPC :0.28347: AVG IPC :0.78234: L2-Pf-HR :0.39594: L2-HR :0.49218: (Sim:0h22m46s) 
CPU  0 inst:  325000000 cyc:  416093773 now IPC :0.28344: AVG IPC :0.77810: L2-Pf-HR :0.39547: L2-HR :0.49196: (Sim:0h22m54s) 
CPU  0 inst:  326000001 cyc:  419621364 now IPC :0.28348: AVG IPC :0.77393: L2-Pf-HR :0.39501: L2-HR :0.49174: (Sim:0h23m0s) 
CPU  0 inst:  327000002 cyc:  421395387 now IPC :0.56369: AVG IPC :0.77304: L2-Pf-HR :0.39419: L2-HR :0.49121: (Sim:0h23m4s) 
CPU  0 inst:  328000000 cyc:  421974883 now IPC :1.72563: AVG IPC :0.77436: L2-Pf-HR :0.39394: L2-HR :0.49094: (Sim:0h23m7s) 
CPU  0 inst:  329000000 cyc:  422598050 now IPC :1.60471: AVG IPC :0.77558: L2-Pf-HR :0.39396: L2-HR :0.49087: (Sim:0h23m10s) 
CPU  0 inst:  330000002 cyc:  423268043 now IPC :1.49256: AVG IPC :0.77672: L2-Pf-HR :0.39419: L2-HR :0.49102: (Sim:0h23m14s) 
CPU  0 inst:  331000001 cyc:  423795014 now IPC :1.89764: AVG IPC :0.77812: L2-Pf-HR :0.39441: L2-HR :0.49100: (Sim:0h23m18s) 
CPU  0 inst:  332000000 cyc:  424373144 now IPC :1.72971: AVG IPC :0.77942: L2-Pf-HR :0.39469: L2-HR :0.49107: (Sim:0h23m22s) 
CPU  0 inst:  333000003 cyc:  424983456 now IPC :1.63851: AVG IPC :0.78065: L2-Pf-HR :0.39534: L2-HR :0.49144: (Sim:0h23m27s) 
CPU  0 inst:  334000001 cyc:  425508596 now IPC :1.90425: AVG IPC :0.78204: L2-Pf-HR :0.39556: L2-HR :0.49143: (Sim:0h23m31s) 
CPU  0 inst:  335000002 cyc:  426189789 now IPC :1.46801: AVG IPC :0.78314: L2-Pf-HR :0.39566: L2-HR :0.49155: (Sim:0h23m35s) 
CPU  0 inst:  336000000 cyc:  426733842 now IPC :1.83805: AVG IPC :0.78449: L2-Pf-HR :0.39521: L2-HR :0.49116: (Sim:0h23m39s) 
CPU  0 inst:  337000000 cyc:  427275914 now IPC :1.84477: AVG IPC :0.78584: L2-Pf-HR :0.39493: L2-HR :0.49088: (Sim:0h23m43s) 
CPU  0 inst:  338000003 cyc:  427933400 now IPC :1.52095: AVG IPC :0.78697: L2-Pf-HR :0.39533: L2-HR :0.49122: (Sim:0h23m48s) 
CPU  0 inst:  339000000 cyc:  428454204 now IPC :1.92010: AVG IPC :0.78835: L2-Pf-HR :0.39493: L2-HR :0.49082: (Sim:0h23m52s) 
CPU  0 inst:  340000000 cyc:  428971222 now IPC :1.93417: AVG IPC :0.78973: L2-Pf-HR :0.39477: L2-HR :0.49061: (Sim:0h23m56s) 
CPU  0 inst:  341000000 cyc:  429529510 now IPC :1.79119: AVG IPC :0.79104: L2-Pf-HR :0.39534: L2-HR :0.49093: (Sim:0h24m0s) 
CPU  0 inst:  342000001 cyc:  430133671 now IPC :1.65519: AVG IPC :0.79226: L2-Pf-HR :0.39517: L2-HR :0.49073: (Sim:0h24m4s) 
CPU  0 inst:  343000001 cyc:  430693000 now IPC :1.78786: AVG IPC :0.79355: L2-Pf-HR :0.39527: L2-HR :0.49073: (Sim:0h24m8s) 
CPU  0 inst:  344000000 cyc:  431365347 now IPC :1.48733: AVG IPC :0.79464: L2-Pf-HR :0.39474: L2-HR :0.49043: (Sim:0h24m12s) 
CPU  0 inst:  345000001 cyc:  431912071 now IPC :1.82908: AVG IPC :0.79595: L2-Pf-HR :0.39441: L2-HR :0.49012: (Sim:0h24m17s) 
CPU  0 inst:  346000000 cyc:  432498449 now IPC :1.70538: AVG IPC :0.79718: L2-Pf-HR :0.39443: L2-HR :0.49009: (Sim:0h24m21s) 
CPU  0 inst:  347000001 cyc:  433097921 now IPC :1.66814: AVG IPC :0.79839: L2-Pf-HR :0.39436: L2-HR :0.49006: (Sim:0h24m25s) 
CPU  0 inst:  348000000 cyc:  433616973 now IPC :1.92659: AVG IPC :0.79975: L2-Pf-HR :0.39419: L2-HR :0.48982: (Sim:0h24m29s) 
CPU  0 inst:  349000003 cyc:  434183605 now IPC :1.76482: AVG IPC :0.80101: L2-Pf-HR :0.39425: L2-HR :0.48978: (Sim:0h24m32s) 
CPU  0 inst:  350000000 cyc:  434768061 now IPC :1.71099: AVG IPC :0.80223: L2-Pf-HR :0.39460: L2-HR :0.48998: (Sim:0h24m35s) 
CPU  0 inst:  351000002 cyc:  435306424 now IPC :1.85749: AVG IPC :0.80354: L2-Pf-HR :0.39430: L2-HR :0.48968: (Sim:0h24m39s) 
CPU  0 inst:  352000000 cyc:  435993022 now IPC :1.45645: AVG IPC :0.80457: L2-Pf-HR :0.39427: L2-HR :0.48973: (Sim:0h24m43s) 
CPU  0 inst:  353000000 cyc:  436548950 now IPC :1.79879: AVG IPC :0.80584: L2-Pf-HR :0.39388: L2-HR :0.48937: (Sim:0h24m47s) 
CPU  0 inst:  354000003 cyc:  437089563 now IPC :1.84976: AVG IPC :0.80714: L2-Pf-HR :0.39360: L2-HR :0.48909: (Sim:0h24m51s) 
CPU  0 inst:  355000001 cyc:  437736539 now IPC :1.54565: AVG IPC :0.80823: L2-Pf-HR :0.39401: L2-HR :0.48945: (Sim:0h24m55s) 
CPU  0 inst:  356000000 cyc:  438256993 now IPC :1.92140: AVG IPC :0.80955: L2-Pf-HR :0.39358: L2-HR :0.48904: (Sim:0h24m58s) 
CPU  0 inst:  357000001 cyc:  438778076 now IPC :1.91908: AVG IPC :0.81088: L2-Pf-HR :0.39348: L2-HR :0.48886: (Sim:0h25m1s) 
CPU  0 inst:  358000003 cyc:  439350194 now IPC :1.74789: AVG IPC :0.81210: L2-Pf-HR :0.39409: L2-HR :0.48924: (Sim:0h25m3s) 
CPU  0 inst:  359000001 cyc:  439936083 now IPC :1.70680: AVG IPC :0.81329: L2-Pf-HR :0.39368: L2-HR :0.48891: (Sim:0h25m6s) 
CPU  0 inst:  360000000 cyc:  440495014 now IPC :1.78913: AVG IPC :0.81453: L2-Pf-HR :0.39376: L2-HR :0.48892: (Sim:0h25m11s) 
CPU  0 inst:  361000003 cyc:  441163355 now IPC :1.49625: AVG IPC :0.81557: L2-Pf-HR :0.39325: L2-HR :0.48861: (Sim:0h25m15s) 
CPU  0 inst:  362000002 cyc:  441707757 now IPC :1.83688: AVG IPC :0.81683: L2-Pf-HR :0.39311: L2-HR :0.48841: (Sim:0h25m19s) 
CPU  0 inst:  363000001 cyc:  442294810 now IPC :1.70342: AVG IPC :0.81801: L2-Pf-HR :0.39330: L2-HR :0.48849: (Sim:0h25m23s) 
CPU  0 inst:  364000000 cyc:  442894350 now IPC :1.66794: AVG IPC :0.81916: L2-Pf-HR :0.39297: L2-HR :0.48830: (Sim:0h25m27s) 
CPU  0 inst:  365000001 cyc:  443413663 now IPC :1.92562: AVG IPC :0.82046: L2-Pf-HR :0.39259: L2-HR :0.48797: (Sim:0h25m31s) 
CPU  0 inst:  366000001 cyc:  443981976 now IPC :1.75959: AVG IPC :0.82167: L2-Pf-HR :0.39258: L2-HR :0.48789: (Sim:0h25m35s) 
CPU  0 inst:  367000001 cyc:  444569498 now IPC :1.70206: AVG IPC :0.82283: L2-Pf-HR :0.39278: L2-HR :0.48801: (Sim:0h25m40s) 
CPU  0 inst:  368000000 cyc:  445116209 now IPC :1.82912: AVG IPC :0.82407: L2-Pf-HR :0.39246: L2-HR :0.48770: (Sim:0h25m43s) 
CPU  0 inst:  369000003 cyc:  445799128 now IPC :1.46431: AVG IPC :0.82505: L2-Pf-HR :0.39247: L2-HR :0.48777: (Sim:0h25m48s) 
CPU  0 inst:  370000003 cyc:  446350481 now IPC :1.81372: AVG IPC :0.82628: L2-Pf-HR :0.39224: L2-HR :0.48752: (Sim:0h25m52s) 
CPU  0 inst:  371000002 cyc:  446927632 now IPC :1.73265: AVG IPC :0.82745: L2-Pf-HR :0.39193: L2-HR :0.48725: (Sim:0h25m57s) 
CPU  0 inst:  372000000 cyc:  447536344 now IPC :1.64281: AVG IPC :0.82856: L2-Pf-HR :0.39230: L2-HR :0.48756: (Sim:0h26m1s) 
CPU  0 inst:  373000003 cyc:  448056579 now IPC :1.92221: AVG IPC :0.82983: L2-Pf-HR :0.39174: L2-HR :0.48710: (Sim:0h26m5s) 
CPU  0 inst:  374000000 cyc:  448587811 now IPC :1.88241: AVG IPC :0.83108: L2-Pf-HR :0.39144: L2-HR :0.48681: (Sim:0h26m9s) 
CPU  0 inst:  375000002 cyc:  449204466 now IPC :1.62166: AVG IPC :0.83217: L2-Pf-HR :0.39193: L2-HR :0.48715: (Sim:0h26m14s) 
CPU  0 inst:  376000000 cyc:  449734559 now IPC :1.88646: AVG IPC :0.83342: L2-Pf-HR :0.39163: L2-HR :0.48686: (Sim:0h26m18s) 
CPU  0 inst:  377000001 cyc:  450295314 now IPC :1.78331: AVG IPC :0.83460: L2-Pf-HR :0.39183: L2-HR :0.48696: (Sim:0h26m23s) 
CPU  0 inst:  378000001 cyc:  450975074 now IPC :1.47111: AVG IPC :0.83556: L2-Pf-HR :0.39134: L2-HR :0.48663: (Sim:0h26m27s) 
CPU  0 inst:  379000003 cyc:  451510805 now IPC :1.86661: AVG IPC :0.83679: L2-Pf-HR :0.39115: L2-HR :0.48643: (Sim:0h26m31s) 
CPU  0 inst:  380000000 cyc:  452095449 now IPC :1.71044: AVG IPC :0.83792: L2-Pf-HR :0.39142: L2-HR :0.48657: (Sim:0h26m36s) 
CPU  0 inst:  381000002 cyc:  452689209 now IPC :1.68419: AVG IPC :0.83903: L2-Pf-HR :0.39107: L2-HR :0.48635: (Sim:0h26m40s) 
CPU  0 inst:  382000000 cyc:  453220029 now IPC :1.88387: AVG IPC :0.84026: L2-Pf-HR :0.39084: L2-HR :0.48609: (Sim:0h26m45s) 
CPU  0 inst:  383000000 cyc:  453769804 now IPC :1.81893: AVG IPC :0.84145: L2-Pf-HR :0.39088: L2-HR :0.48608: (Sim:0h26m49s) 
CPU  0 inst:  384000000 cyc:  454368142 now IPC :1.67130: AVG IPC :0.84254: L2-Pf-HR :0.39097: L2-HR :0.48611: (Sim:0h26m53s) 
CPU  0 inst:  385000003 cyc:  454938623 now IPC :1.75291: AVG IPC :0.84369: L2-Pf-HR :0.39065: L2-HR :0.48583: (Sim:0h26m58s) 
CPU  0 inst:  386000000 cyc:  455588803 now IPC :1.53803: AVG IPC :0.84468: L2-Pf-HR :0.39069: L2-HR :0.48591: (Sim:0h27m2s) 
CPU  0 inst:  387000000 cyc:  456132687 now IPC :1.83863: AVG IPC :0.84587: L2-Pf-HR :0.39050: L2-HR :0.48569: (Sim:0h27m6s) 
CPU  0 inst:  388000000 cyc:  456716451 now IPC :1.71302: AVG IPC :0.84698: L2-Pf-HR :0.39029: L2-HR :0.48549: (Sim:0h27m11s) 
CPU  0 inst:  389000003 cyc:  457317592 now IPC :1.66351: AVG IPC :0.84806: L2-Pf-HR :0.39057: L2-HR :0.48573: (Sim:0h27m15s) 
CPU  0 inst:  390000001 cyc:  457837439 now IPC :1.92364: AVG IPC :0.84928: L2-Pf-HR :0.39016: L2-HR :0.48537: (Sim:0h27m19s) 
CPU  0 inst:  391000003 cyc:  458377810 now IPC :1.85058: AVG IPC :0.85046: L2-Pf-HR :0.38989: L2-HR :0.48509: (Sim:0h27m23s) 
CPU  0 inst:  392000000 cyc:  458986526 now IPC :1.64280: AVG IPC :0.85152: L2-Pf-HR :0.39041: L2-HR :0.48547: (Sim:0h27m28s) 
CPU  0 inst:  393000002 cyc:  459514125 now IPC :1.89538: AVG IPC :0.85272: L2-Pf-HR :0.39006: L2-HR :0.48514: (Sim:0h27m32s) 
CPU  0 inst:  394000001 cyc:  460112566 now IPC :1.67101: AVG IPC :0.85378: L2-Pf-HR :0.39037: L2-HR :0.48534: (Sim:0h27m36s) 
CPU  0 inst:  395000003 cyc:  460750386 now IPC :1.56784: AVG IPC :0.85477: L2-Pf-HR :0.38978: L2-HR :0.48493: (Sim:0h27m41s) 
CPU  0 inst:  396000000 cyc:  461288695 now IPC :1.85766: AVG IPC :0.85595: L2-Pf-HR :0.38956: L2-HR :0.48470: (Sim:0h27m44s) 
CPU  0 inst:  397000002 cyc:  461876775 now IPC :1.70045: AVG IPC :0.85702: L2-Pf-HR :0.38992: L2-HR :0.48491: (Sim:0h27m47s) 
CPU  0 inst:  398000000 cyc:  462473456 now IPC :1.67593: AVG IPC :0.85808: L2-Pf-HR :0.38947: L2-HR :0.48463: (Sim:0h27m50s) 
CPU  0 inst:  399000002 cyc:  463006983 now IPC :1.87432: AVG IPC :0.85926: L2-Pf-HR :0.38927: L2-HR :0.48439: (Sim:0h27m53s) 
CPU  0 inst:  400000000 cyc:  463559346 now IPC :1.81040: AVG IPC :0.86039: L2-Pf-HR :0.38939: L2-HR :0.48443: (Sim:0h27m57s) 
CPU  0 inst:  401000000 cyc:  464155065 now IPC :1.67864: AVG IPC :0.86144: L2-Pf-HR :0.38948: L2-HR :0.48447: (Sim:0h28m0s) 
CPU  0 inst:  402000003 cyc:  464724361 now IPC :1.75656: AVG IPC :0.86254: L2-Pf-HR :0.38920: L2-HR :0.48421: (Sim:0h28m3s) 
CPU  0 inst:  403000002 cyc:  465391202 now IPC :1.49961: AVG IPC :0.86346: L2-Pf-HR :0.38917: L2-HR :0.48424: (Sim:0h28m6s) 
CPU  0 inst:  404000000 cyc:  465923235 now IPC :1.87958: AVG IPC :0.86462: L2-Pf-HR :0.38891: L2-HR :0.48399: (Sim:0h28m10s) 
CPU  0 inst:  405000000 cyc:  466514356 now IPC :1.69170: AVG IPC :0.86567: L2-Pf-HR :0.38877: L2-HR :0.48384: (Sim:0h28m15s) 
CPU  0 inst:  406000002 cyc:  467112229 now IPC :1.67260: AVG IPC :0.86671: L2-Pf-HR :0.38893: L2-HR :0.48399: (Sim:0h28m20s) 
CPU  0 inst:  407000002 cyc:  467642977 now IPC :1.88413: AVG IPC :0.86786: L2-Pf-HR :0.38853: L2-HR :0.48364: (Sim:0h28m24s) 
CPU  0 inst:  408000000 cyc:  468206055 now IPC :1.77595: AVG IPC :0.86896: L2-Pf-HR :0.38818: L2-HR :0.48333: (Sim:0h28m28s) 
CPU  0 inst:  409000002 cyc:  468784774 now IPC :1.72796: AVG IPC :0.87002: L2-Pf-HR :0.38867: L2-HR :0.48368: (Sim:0h28m33s) 
CPU  0 inst:  410000002 cyc:  469319400 now IPC :1.87047: AVG IPC :0.87116: L2-Pf-HR :0.38840: L2-HR :0.48340: (Sim:0h28m37s) 
CPU  0 inst:  411000000 cyc:  469966949 now IPC :1.54428: AVG IPC :0.87209: L2-Pf-HR :0.38845: L2-HR :0.48350: (Sim:0h28m42s) 
CPU  0 inst:  412000000 cyc:  470547490 now IPC :1.72253: AVG IPC :0.87314: L2-Pf-HR :0.38811: L2-HR :0.48319: (Sim:0h28m46s) 
CPU  0 inst:  413000002 cyc:  471083369 now IPC :1.86610: AVG IPC :0.87427: L2-Pf-HR :0.38795: L2-HR :0.48302: (Sim:0h28m49s) 
CPU  0 inst:  414000000 cyc:  471672753 now IPC :1.69668: AVG IPC :0.87530: L2-Pf-HR :0.38840: L2-HR :0.48328: (Sim:0h28m52s) 
CPU  0 inst:  415000000 cyc:  472277582 now IPC :1.65336: AVG IPC :0.87630: L2-Pf-HR :0.38785: L2-HR :0.48292: (Sim:0h28m57s) 
CPU  0 inst:  416000000 cyc:  472794837 now IPC :1.93328: AVG IPC :0.87746: L2-Pf-HR :0.38755: L2-HR :0.48266: (Sim:0h29m0s) 
CPU  0 inst:  417000002 cyc:  473349261 now IPC :1.80368: AVG IPC :0.87855: L2-Pf-HR :0.38775: L2-HR :0.48276: (Sim:0h29m4s) 
CPU  0 inst:  418000002 cyc:  473949719 now IPC :1.66540: AVG IPC :0.87955: L2-Pf-HR :0.38771: L2-HR :0.48270: (Sim:0h29m7s) 
CPU  0 inst:  419000000 cyc:  474519313 now IPC :1.75563: AVG IPC :0.88060: L2-Pf-HR :0.38752: L2-HR :0.48252: (Sim:0h29m11s) 
CPU  0 inst:  420000000 cyc:  475185332 now IPC :1.50146: AVG IPC :0.88147: L2-Pf-HR :0.38741: L2-HR :0.48249: (Sim:0h29m16s) 
CPU  0 inst:  421000001 cyc:  475715988 now IPC :1.88446: AVG IPC :0.88259: L2-Pf-HR :0.38720: L2-HR :0.48227: (Sim:0h29m20s) 
CPU  0 inst:  422000002 cyc:  476304739 now IPC :1.69851: AVG IPC :0.88361: L2-Pf-HR :0.38721: L2-HR :0.48222: (Sim:0h29m24s) 
CPU  0 inst:  423000001 cyc:  476900640 now IPC :1.67813: AVG IPC :0.88460: L2-Pf-HR :0.38727: L2-HR :0.48230: (Sim:0h29m29s) 
CPU  0 inst:  424000000 cyc:  477430267 now IPC :1.88812: AVG IPC :0.88572: L2-Pf-HR :0.38693: L2-HR :0.48199: (Sim:0h29m33s) 
CPU  0 inst:  425000002 cyc:  477998756 now IPC :1.75905: AVG IPC :0.88676: L2-Pf-HR :0.38663: L2-HR :0.48173: (Sim:0h29m38s) 
CPU  0 inst:  426000001 cyc:  478572811 now IPC :1.74199: AVG IPC :0.88778: L2-Pf-HR :0.38707: L2-HR :0.48203: (Sim:0h29m42s) 
CPU  0 inst:  427000002 cyc:  479114979 now IPC :1.84445: AVG IPC :0.88887: L2-Pf-HR :0.38683: L2-HR :0.48178: (Sim:0h29m46s) 
CPU  0 inst:  428000000 cyc:  479789167 now IPC :1.48326: AVG IPC :0.88971: L2-Pf-HR :0.38686: L2-HR :0.48186: (Sim:0h29m50s) 
CPU  0 inst:  429000003 cyc:  480340341 now IPC :1.81431: AVG IPC :0.89077: L2-Pf-HR :0.38664: L2-HR :0.48163: (Sim:0h29m55s) 
CPU  0 inst:  430000001 cyc:  480882159 now IPC :1.84563: AVG IPC :0.89185: L2-Pf-HR :0.38662: L2-HR :0.48152: (Sim:0h29m58s) 
CPU  0 inst:  431000000 cyc:  481486464 now IPC :1.65479: AVG IPC :0.89281: L2-Pf-HR :0.38713: L2-HR :0.48185: (Sim:0h30m1s) 
CPU  0 inst:  432000000 cyc:  482073621 now IPC :1.70312: AVG IPC :0.89380: L2-Pf-HR :0.38655: L2-HR :0.48145: (Sim:0h30m5s) 
CPU  0 inst:  433000003 cyc:  482591875 now IPC :1.92956: AVG IPC :0.89491: L2-Pf-HR :0.38632: L2-HR :0.48122: (Sim:0h30m9s) 
CPU  0 inst:  434000000 cyc:  483140013 now IPC :1.82435: AVG IPC :0.89597: L2-Pf-HR :0.38664: L2-HR :0.48141: (Sim:0h30m12s) 
CPU  0 inst:  435000000 cyc:  483739882 now IPC :1.66703: AVG IPC :0.89693: L2-Pf-HR :0.38652: L2-HR :0.48129: (Sim:0h30m16s) 
CPU  0 inst:  436000000 cyc:  484310103 now IPC :1.75371: AVG IPC :0.89794: L2-Pf-HR :0.38644: L2-HR :0.48119: (Sim:0h30m20s) 
CPU  0 inst:  437000000 cyc:  484980689 now IPC :1.49123: AVG IPC :0.89876: L2-Pf-HR :0.38622: L2-HR :0.48109: (Sim:0h30m25s) 
CPU  0 inst:  438000000 cyc:  485512445 now IPC :1.88056: AVG IPC :0.89984: L2-Pf-HR :0.38595: L2-HR :0.48085: (Sim:0h30m29s) 
CPU  0 inst:  439000001 cyc:  486104044 now IPC :1.69034: AVG IPC :0.90080: L2-Pf-HR :0.38594: L2-HR :0.48080: (Sim:0h30m34s) 
CPU  0 inst:  440000000 cyc:  486707747 now IPC :1.65644: AVG IPC :0.90174: L2-Pf-HR :0.38598: L2-HR :0.48085: (Sim:0h30m38s) 
CPU  0 inst:  441000003 cyc:  487226804 now IPC :1.92658: AVG IPC :0.90283: L2-Pf-HR :0.38576: L2-HR :0.48062: (Sim:0h30m43s) 
CPU  0 inst:  442000000 cyc:  487792681 now IPC :1.76716: AVG IPC :0.90384: L2-Pf-HR :0.38565: L2-HR :0.48048: (Sim:0h30m47s) 
CPU  0 inst:  443000003 cyc:  488373211 now IPC :1.72257: AVG IPC :0.90481: L2-Pf-HR :0.38602: L2-HR :0.48073: (Sim:0h30m51s) 
CPU  0 inst:  444000000 cyc:  488905106 now IPC :1.88006: AVG IPC :0.90588: L2-Pf-HR :0.38579: L2-HR :0.48051: (Sim:0h30m54s) 
CPU  0 inst:  445000003 cyc:  489592727 now IPC :1.45429: AVG IPC :0.90665: L2-Pf-HR :0.38585: L2-HR :0.48061: (Sim:0h30m58s) 
CPU  0 inst:  446000002 cyc:  490142193 now IPC :1.81995: AVG IPC :0.90767: L2-Pf-HR :0.38558: L2-HR :0.48035: (Sim:0h31m1s) 
CPU  0 inst:  447000001 cyc:  490691160 now IPC :1.82160: AVG IPC :0.90870: L2-Pf-HR :0.38551: L2-HR :0.48022: (Sim:0h31m6s) 
CPU  0 inst:  448000000 cyc:  491320262 now IPC :1.58957: AVG IPC :0.90957: L2-Pf-HR :0.38588: L2-HR :0.48053: (Sim:0h31m11s) 
CPU  0 inst:  449000000 cyc:  491869049 now IPC :1.82220: AVG IPC :0.91059: L2-Pf-HR :0.38537: L2-HR :0.48013: (Sim:0h31m14s) 
CPU  0 inst:  450000001 cyc:  492385862 now IPC :1.93494: AVG IPC :0.91167: L2-Pf-HR :0.38506: L2-HR :0.47987: (Sim:0h31m16s) 
CPU  0 inst:  451000003 cyc:  492937615 now IPC :1.81241: AVG IPC :0.91268: L2-Pf-HR :0.38543: L2-HR :0.48008: (Sim:0h31m21s) 
CPU  0 inst:  452000000 cyc:  493550163 now IPC :1.63252: AVG IPC :0.91357: L2-Pf-HR :0.38525: L2-HR :0.47993: (Sim:0h31m25s) 
CPU  0 inst:  453000000 cyc:  494109551 now IPC :1.78767: AVG IPC :0.91457: L2-Pf-HR :0.38527: L2-HR :0.47990: (Sim:0h31m29s) 
CPU  0 inst:  454000001 cyc:  494778489 now IPC :1.49491: AVG IPC :0.91535: L2-Pf-HR :0.38507: L2-HR :0.47979: (Sim:0h31m34s) 
CPU  0 inst:  455000001 cyc:  495328081 now IPC :1.81953: AVG IPC :0.91636: L2-Pf-HR :0.38503: L2-HR :0.47967: (Sim:0h31m38s) 
CPU  0 inst:  456000000 cyc:  495909878 now IPC :1.71881: AVG IPC :0.91730: L2-Pf-HR :0.38514: L2-HR :0.47971: (Sim:0h31m43s) 
CPU  0 inst:  457000002 cyc:  496513467 now IPC :1.65676: AVG IPC :0.91820: L2-Pf-HR :0.38507: L2-HR :0.47970: (Sim:0h31m47s) 
CPU  0 inst:  458000002 cyc:  497033173 now IPC :1.92416: AVG IPC :0.91926: L2-Pf-HR :0.38476: L2-HR :0.47942: (Sim:0h31m52s) 
CPU  0 inst:  459000000 cyc:  497601991 now IPC :1.75803: AVG IPC :0.92022: L2-Pf-HR :0.38469: L2-HR :0.47932: (Sim:0h31m56s) 
CPU  0 inst:  460000000 cyc:  498189342 now IPC :1.70256: AVG IPC :0.92114: L2-Pf-HR :0.38501: L2-HR :0.47953: (Sim:0h32m0s) 
CPU  0 inst:  461000001 cyc:  498722667 now IPC :1.87503: AVG IPC :0.92216: L2-Pf-HR :0.38472: L2-HR :0.47927: (Sim:0h32m4s) 
CPU  0 inst:  462000002 cyc:  499405929 now IPC :1.46357: AVG IPC :0.92290: L2-Pf-HR :0.38478: L2-HR :0.47937: (Sim:0h32m8s) 
CPU  0 inst:  463000001 cyc:  499956540 now IPC :1.81616: AVG IPC :0.92389: L2-Pf-HR :0.38448: L2-HR :0.47911: (Sim:0h32m11s) 
CPU  0 inst:  464000000 cyc:  500504865 now IPC :1.82373: AVG IPC :0.92488: L2-Pf-HR :0.38428: L2-HR :0.47890: (Sim:0h32m14s) 
CPU  0 inst:  465000003 cyc:  501153872 now IPC :1.54082: AVG IPC :0.92568: L2-Pf-HR :0.38460: L2-HR :0.47919: (Sim:0h32m17s) 
CPU  0 inst:  466000001 cyc:  501674184 now IPC :1.92192: AVG IPC :0.92671: L2-Pf-HR :0.38424: L2-HR :0.47887: (Sim:0h32m20s) 
CPU  0 inst:  467000003 cyc:  502191869 now IPC :1.93168: AVG IPC :0.92775: L2-Pf-HR :0.38408: L2-HR :0.47869: (Sim:0h32m23s) 
CPU  0 inst:  468000000 cyc:  502749220 now IPC :1.79420: AVG IPC :0.92871: L2-Pf-HR :0.38455: L2-HR :0.47898: (Sim:0h32m26s) 
CPU  0 inst:  469000001 cyc:  503351910 now IPC :1.65923: AVG IPC :0.92959: L2-Pf-HR :0.38430: L2-HR :0.47878: (Sim:0h32m30s) 
CPU  0 inst:  470000002 cyc:  503911987 now IPC :1.78547: AVG IPC :0.93054: L2-Pf-HR :0.38434: L2-HR :0.47877: (Sim:0h32m33s) 
CPU  0 inst:  471000002 cyc:  504581930 now IPC :1.49266: AVG IPC :0.93129: L2-Pf-HR :0.38396: L2-HR :0.47856: (Sim:0h32m38s) 
CPU  0 inst:  472000000 cyc:  505127262 now IPC :1.83374: AVG IPC :0.93227: L2-Pf-HR :0.38381: L2-HR :0.47839: (Sim:0h32m41s) 
CPU  0 inst:  473000000 cyc:  505716190 now IPC :1.69800: AVG IPC :0.93316: L2-Pf-HR :0.38392: L2-HR :0.47844: (Sim:0h32m46s) 
CPU  0 inst:  474000003 cyc:  506316624 now IPC :1.66547: AVG IPC :0.93403: L2-Pf-HR :0.38376: L2-HR :0.47836: (Sim:0h32m49s) 
CPU  0 inst:  475000002 cyc:  506834893 now IPC :1.92950: AVG IPC :0.93505: L2-Pf-HR :0.38351: L2-HR :0.47812: (Sim:0h32m53s) 
CPU  0 inst:  476000000 cyc:  507400151 now IPC :1.76910: AVG IPC :0.93598: L2-Pf-HR :0.38349: L2-HR :0.47806: (Sim:0h32m57s) 
CPU  0 inst:  477000002 cyc:  507987982 now IPC :1.70117: AVG IPC :0.93687: L2-Pf-HR :0.38372: L2-HR :0.47820: (Sim:0h33m2s) 
CPU  0 inst:  478000002 cyc:  508532976 now IPC :1.83488: AVG IPC :0.93783: L2-Pf-HR :0.38350: L2-HR :0.47799: (Sim:0h33m6s) 
CPU  0 inst:  479000003 cyc:  509216785 now IPC :1.46240: AVG IPC :0.93854: L2-Pf-HR :0.38350: L2-HR :0.47805: (Sim:0h33m11s) 
CPU  0 inst:  480000000 cyc:  509770207 now IPC :1.80693: AVG IPC :0.93948: L2-Pf-HR :0.38324: L2-HR :0.47782: (Sim:0h33m15s) 
CPU  0 inst:  481000002 cyc:  510334440 now IPC :1.77232: AVG IPC :0.94041: L2-Pf-HR :0.38302: L2-HR :0.47760: (Sim:0h33m19s) 
CPU  0 inst:  482000003 cyc:  510962778 now IPC :1.59150: AVG IPC :0.94121: L2-Pf-HR :0.38333: L2-HR :0.47788: (Sim:0h33m22s) 
CPU  0 inst:  483000000 cyc:  511485778 now IPC :1.91204: AVG IPC :0.94220: L2-Pf-HR :0.38301: L2-HR :0.47759: (Sim:0h33m25s) 
CPU  0 inst:  484000000 cyc:  512013217 now IPC :1.89595: AVG IPC :0.94319: L2-Pf-HR :0.38286: L2-HR :0.47741: (Sim:0h33m29s) 
CPU  0 inst:  485000001 cyc:  512613134 now IPC :1.66690: AVG IPC :0.94403: L2-Pf-HR :0.38327: L2-HR :0.47770: (Sim:0h33m33s) 
CPU  0 inst:  486000002 cyc:  513163340 now IPC :1.81750: AVG IPC :0.94497: L2-Pf-HR :0.38303: L2-HR :0.47748: (Sim:0h33m36s) 
CPU  0 inst:  487000002 cyc:  513718830 now IPC :1.80021: AVG IPC :0.94590: L2-Pf-HR :0.38315: L2-HR :0.47754: (Sim:0h33m41s) 
CPU  0 inst:  488000000 cyc:  514386133 now IPC :1.49857: AVG IPC :0.94662: L2-Pf-HR :0.38275: L2-HR :0.47729: (Sim:0h33m45s) 
CPU  0 inst:  489000002 cyc:  514933103 now IPC :1.82826: AVG IPC :0.94756: L2-Pf-HR :0.38260: L2-HR :0.47712: (Sim:0h33m49s) 
CPU  0 inst:  490000001 cyc:  515522172 now IPC :1.69759: AVG IPC :0.94841: L2-Pf-HR :0.38279: L2-HR :0.47723: (Sim:0h33m54s) 
CPU  0 inst:  491000003 cyc:  516124111 now IPC :1.66130: AVG IPC :0.94925: L2-Pf-HR :0.38258: L2-HR :0.47710: (Sim:0h33m58s) 
CPU  0 inst:  492000000 cyc:  516656372 now IPC :1.87877: AVG IPC :0.95021: L2-Pf-HR :0.38242: L2-HR :0.47691: (Sim:0h34m2s) 
CPU  0 inst:  493000002 cyc:  517210450 now IPC :1.80480: AVG IPC :0.95112: L2-Pf-HR :0.38248: L2-HR :0.47692: (Sim:0h34m7s) 
CPU  0 inst:  494000001 cyc:  517795723 now IPC :1.70860: AVG IPC :0.95198: L2-Pf-HR :0.38260: L2-HR :0.47699: (Sim:0h34m11s) 
CPU  0 inst:  495000000 cyc:  518343755 now IPC :1.82471: AVG IPC :0.95291: L2-Pf-HR :0.38235: L2-HR :0.47676: (Sim:0h34m15s) 
CPU  0 inst:  496000000 cyc:  519024620 now IPC :1.46872: AVG IPC :0.95358: L2-Pf-HR :0.38241: L2-HR :0.47686: (Sim:0h34m20s) 
CPU  0 inst:  497000000 cyc:  519570574 now IPC :1.83166: AVG IPC :0.95451: L2-Pf-HR :0.38230: L2-HR :0.47671: (Sim:0h34m24s) 
CPU  0 inst:  498000000 cyc:  520153334 now IPC :1.71597: AVG IPC :0.95536: L2-Pf-HR :0.38214: L2-HR :0.47655: (Sim:0h34m29s) 
CPU  0 inst:  499000003 cyc:  520762997 now IPC :1.64026: AVG IPC :0.95617: L2-Pf-HR :0.38242: L2-HR :0.47678: (Sim:0h34m33s) 
CPU  0 inst:  500000000 cyc:  521285831 now IPC :1.91265: AVG IPC :0.95713: L2-Pf-HR :0.38206: L2-HR :0.47648: (Sim:0h34m37s) 
CPU  0 inst:  501000001 cyc:  521823104 now IPC :1.86125: AVG IPC :0.95806: L2-Pf-HR :0.38185: L2-HR :0.47626: (Sim:0h34m41s) 
CPU  0 inst:  502000000 cyc:  522434324 now IPC :1.63607: AVG IPC :0.95886: L2-Pf-HR :0.38227: L2-HR :0.47657: (Sim:0h34m44s) 
CPU  0 inst:  503000000 cyc:  522967732 now IPC :1.87474: AVG IPC :0.95979: L2-Pf-HR :0.38206: L2-HR :0.47637: (Sim:0h34m48s) 
CPU  0 inst:  504000000 cyc:  523534116 now IPC :1.76559: AVG IPC :0.96067: L2-Pf-HR :0.38230: L2-HR :0.47651: (Sim:0h34m52s) 
CPU  0 inst:  505000003 cyc:  524205189 now IPC :1.49016: AVG IPC :0.96134: L2-Pf-HR :0.38182: L2-HR :0.47620: (Sim:0h34m56s) 
CPU  0 inst:  506000000 cyc:  524739643 now IPC :1.87106: AVG IPC :0.96227: L2-Pf-HR :0.38160: L2-HR :0.47600: (Sim:0h35m0s) 
CPU  0 inst:  507000001 cyc:  525331174 now IPC :1.69053: AVG IPC :0.96309: L2-Pf-HR :0.38185: L2-HR :0.47615: (Sim:0h35m4s) 
CPU  0 inst:  508000000 cyc:  525926775 now IPC :1.67897: AVG IPC :0.96391: L2-Pf-HR :0.38151: L2-HR :0.47595: (Sim:0h35m7s) 
CPU  0 inst:  509000002 cyc:  526456810 now IPC :1.88667: AVG IPC :0.96484: L2-Pf-HR :0.38131: L2-HR :0.47575: (Sim:0h35m10s) 
CPU  0 inst:  510000001 cyc:  527007235 now IPC :1.81678: AVG IPC :0.96573: L2-Pf-HR :0.38136: L2-HR :0.47576: (Sim:0h35m15s) 
CPU  0 inst:  511000003 cyc:  527600607 now IPC :1.68529: AVG IPC :0.96654: L2-Pf-HR :0.38146: L2-HR :0.47581: (Sim:0h35m19s) 
CPU  0 inst:  512000000 cyc:  528168501 now IPC :1.76089: AVG IPC :0.96739: L2-Pf-HR :0.38124: L2-HR :0.47562: (Sim:0h35m24s) 
CPU  0 inst:  513000002 cyc:  528834875 now IPC :1.50066: AVG IPC :0.96807: L2-Pf-HR :0.38127: L2-HR :0.47568: (Sim:0h35m28s) 
CPU  0 inst:  514000003 cyc:  529368585 now IPC :1.87368: AVG IPC :0.96898: L2-Pf-HR :0.38112: L2-HR :0.47552: (Sim:0h35m32s) 
CPU  0 inst:  515000002 cyc:  529958894 now IPC :1.69403: AVG IPC :0.96979: L2-Pf-HR :0.38103: L2-HR :0.47541: (Sim:0h35m37s) 
CPU  0 inst:  516000000 cyc:  530558985 now IPC :1.66641: AVG IPC :0.97058: L2-Pf-HR :0.38123: L2-HR :0.47559: (Sim:0h35m41s) 
CPU  0 inst:  517000002 cyc:  531091728 now IPC :1.87708: AVG IPC :0.97149: L2-Pf-HR :0.38100: L2-HR :0.47536: (Sim:0h35m45s) 
CPU  0 inst:  518000003 cyc:  531627893 now IPC :1.86510: AVG IPC :0.97240: L2-Pf-HR :0.38084: L2-HR :0.47517: (Sim:0h35m50s) 
CPU  0 inst:  519000002 cyc:  532232153 now IPC :1.65492: AVG IPC :0.97317: L2-Pf-HR :0.38124: L2-HR :0.47548: (Sim:0h35m54s) 
CPU  0 inst:  520000000 cyc:  532771554 now IPC :1.85390: AVG IPC :0.97406: L2-Pf-HR :0.38103: L2-HR :0.47526: (Sim:0h35m58s) 
CPU  0 inst:  521000001 cyc:  533385823 now IPC :1.62795: AVG IPC :0.97482: L2-Pf-HR :0.38118: L2-HR :0.47540: (Sim:0h36m3s) 
CPU  0 inst:  522000002 cyc:  534002149 now IPC :1.62252: AVG IPC :0.97557: L2-Pf-HR :0.38084: L2-HR :0.47513: (Sim:0h36m7s) 
CPU  0 inst:  523000003 cyc:  534538018 now IPC :1.86613: AVG IPC :0.97646: L2-Pf-HR :0.38074: L2-HR :0.47500: (Sim:0h36m11s) 
CPU  0 inst:  524000000 cyc:  535121511 now IPC :1.71381: AVG IPC :0.97727: L2-Pf-HR :0.38106: L2-HR :0.47520: (Sim:0h36m15s) 
CPU  0 inst:  525000001 cyc:  535713584 now IPC :1.68898: AVG IPC :0.97806: L2-Pf-HR :0.38067: L2-HR :0.47497: (Sim:0h36m20s) 
CPU  0 inst:  526000003 cyc:  536245569 now IPC :1.87976: AVG IPC :0.97895: L2-Pf-HR :0.38046: L2-HR :0.47476: (Sim:0h36m24s) 
CPU  0 inst:  527000003 cyc:  536799694 now IPC :1.80465: AVG IPC :0.97981: L2-Pf-HR :0.38058: L2-HR :0.47482: (Sim:0h36m28s) 
CPU  0 inst:  528000000 cyc:  537398973 now IPC :1.66867: AVG IPC :0.98058: L2-Pf-HR :0.38063: L2-HR :0.47484: (Sim:0h36m33s) 
CPU  0 inst:  529000003 cyc:  537971365 now IPC :1.74706: AVG IPC :0.98139: L2-Pf-HR :0.38046: L2-HR :0.47468: (Sim:0h36m37s) 
CPU  0 inst:  530000000 cyc:  538639453 now IPC :1.49680: AVG IPC :0.98203: L2-Pf-HR :0.38043: L2-HR :0.47470: (Sim:0h36m42s) 
CPU  0 inst:  531000002 cyc:  539169699 now IPC :1.88592: AVG IPC :0.98292: L2-Pf-HR :0.38028: L2-HR :0.47454: (Sim:0h36m46s) 
CPU  0 inst:  532000000 cyc:  539759250 now IPC :1.69620: AVG IPC :0.98370: L2-Pf-HR :0.38027: L2-HR :0.47449: (Sim:0h36m50s) 
CPU  0 inst:  533000000 cyc:  540360747 now IPC :1.66252: AVG IPC :0.98446: L2-Pf-HR :0.38042: L2-HR :0.47463: (Sim:0h36m54s) 
CPU  0 inst:  534000003 cyc:  540893027 now IPC :1.87872: AVG IPC :0.98534: L2-Pf-HR :0.38024: L2-HR :0.47443: (Sim:0h36m59s) 
CPU  0 inst:  535000003 cyc:  541463331 now IPC :1.75345: AVG IPC :0.98615: L2-Pf-HR :0.38004: L2-HR :0.47425: (Sim:0h37m3s) 
CPU  0 inst:  536000000 cyc:  542033952 now IPC :1.75247: AVG IPC :0.98696: L2-Pf-HR :0.38043: L2-HR :0.47452: (Sim:0h37m8s) 
CPU  0 inst:  537000003 cyc:  542572521 now IPC :1.85678: AVG IPC :0.98783: L2-Pf-HR :0.38029: L2-HR :0.47437: (Sim:0h37m12s) 
CPU  0 inst:  538000000 cyc:  543243968 now IPC :1.48932: AVG IPC :0.98845: L2-Pf-HR :0.38033: L2-HR :0.47445: (Sim:0h37m17s) 
CPU  0 inst:  539000003 cyc:  543796542 now IPC :1.80972: AVG IPC :0.98928: L2-Pf-HR :0.38001: L2-HR :0.47419: (Sim:0h37m21s) 
CPU  0 inst:  540000000 cyc:  544340018 now IPC :1.84000: AVG IPC :0.99013: L2-Pf-HR :0.37981: L2-HR :0.47401: (Sim:0h37m26s) 
CPU  0 inst:  541000001 cyc:  544931017 now IPC :1.69205: AVG IPC :0.99090: L2-Pf-HR :0.38020: L2-HR :0.47426: (Sim:0h37m30s) 
CPU  0 inst:  542000001 cyc:  545536604 now IPC :1.65129: AVG IPC :0.99163: L2-Pf-HR :0.37982: L2-HR :0.47400: (Sim:0h37m35s) 
CPU  0 inst:  543000001 cyc:  546054328 now IPC :1.93153: AVG IPC :0.99252: L2-Pf-HR :0.37969: L2-HR :0.47385: (Sim:0h37m39s) 
CPU  0 inst:  544000000 cyc:  546603235 now IPC :1.82180: AVG IPC :0.99336: L2-Pf-HR :0.37992: L2-HR :0.47399: (Sim:0h37m43s) 
CPU  0 inst:  545000002 cyc:  547201422 now IPC :1.67172: AVG IPC :0.99410: L2-Pf-HR :0.37992: L2-HR :0.47397: (Sim:0h37m47s) 
CPU  0 inst:  546000003 cyc:  547767769 now IPC :1.76570: AVG IPC :0.99490: L2-Pf-HR :0.37988: L2-HR :0.47390: (Sim:0h37m52s) 
CPU  0 inst:  547000003 cyc:  548440951 now IPC :1.48548: AVG IPC :0.99550: L2-Pf-HR :0.37979: L2-HR :0.47387: (Sim:0h37m56s) 
CPU  0 inst:  548000000 cyc:  548977555 now IPC :1.86357: AVG IPC :0.99635: L2-Pf-HR :0.37968: L2-HR :0.47373: (Sim:0h38m0s) 
CPU  0 inst:  549000000 cyc:  549567726 now IPC :1.69442: AVG IPC :0.99710: L2-Pf-HR :0.37973: L2-HR :0.47372: (Sim:0h38m3s) 
CPU  0 inst:  550000003 cyc:  550169160 now IPC :1.66270: AVG IPC :0.99783: L2-Pf-HR :0.37980: L2-HR :0.47381: (Sim:0h38m7s) 
CPU  0 inst:  551000001 cyc:  550700914 now IPC :1.88057: AVG IPC :0.99869: L2-Pf-HR :0.37962: L2-HR :0.47362: (Sim:0h38m11s) 
CPU  0 inst:  552000000 cyc:  551269498 now IPC :1.75875: AVG IPC :0.99947: L2-Pf-HR :0.37951: L2-HR :0.47350: (Sim:0h38m16s) 
CPU  0 inst:  553000000 cyc:  551840929 now IPC :1.74999: AVG IPC :1.00025: L2-Pf-HR :0.37983: L2-HR :0.47372: (Sim:0h38m20s) 
CPU  0 inst:  554000003 cyc:  552380795 now IPC :1.85232: AVG IPC :1.00109: L2-Pf-HR :0.37967: L2-HR :0.47355: (Sim:0h38m24s) 
CPU  0 inst:  555000001 cyc:  553057085 now IPC :1.47865: AVG IPC :1.00167: L2-Pf-HR :0.37974: L2-HR :0.47365: (Sim:0h38m28s) 
CPU  0 inst:  556000000 cyc:  553608238 now IPC :1.81438: AVG IPC :1.00248: L2-Pf-HR :0.37948: L2-HR :0.47343: (Sim:0h38m33s) 
CPU  0 inst:  557000003 cyc:  554151517 now IPC :1.84068: AVG IPC :1.00330: L2-Pf-HR :0.37942: L2-HR :0.47333: (Sim:0h38m37s) 
CPU  0 inst:  558000000 cyc:  554762816 now IPC :1.63586: AVG IPC :1.00400: L2-Pf-HR :0.37978: L2-HR :0.47360: (Sim:0h38m41s) 
CPU  0 inst:  559000002 cyc:  555331596 now IPC :1.75815: AVG IPC :1.00478: L2-Pf-HR :0.37939: L2-HR :0.47331: (Sim:0h38m45s) 
CPU  0 inst:  560000000 cyc:  555849703 now IPC :1.93010: AVG IPC :1.00564: L2-Pf-HR :0.37923: L2-HR :0.47314: (Sim:0h38m49s) 
CPU  0 inst:  561000002 cyc:  556399750 now IPC :1.81803: AVG IPC :1.00645: L2-Pf-HR :0.37953: L2-HR :0.47332: (Sim:0h38m54s) 
CPU  0 inst:  562000003 cyc:  557002392 now IPC :1.65936: AVG IPC :1.00715: L2-Pf-HR :0.37941: L2-HR :0.47322: (Sim:0h38m58s) 
CPU  0 inst:  563000002 cyc:  557569990 now IPC :1.76181: AVG IPC :1.00792: L2-Pf-HR :0.37940: L2-HR :0.47319: (Sim:0h39m2s) 
CPU  0 inst:  564000000 cyc:  558234763 now IPC :1.50427: AVG IPC :1.00851: L2-Pf-HR :0.37923: L2-HR :0.47311: (Sim:0h39m7s) 
CPU  0 inst:  565000001 cyc:  558765407 now IPC :1.88450: AVG IPC :1.00935: L2-Pf-HR :0.37912: L2-HR :0.47298: (Sim:0h39m11s) 
CPU  0 inst:  566000000 cyc:  559362812 now IPC :1.67390: AVG IPC :1.01006: L2-Pf-HR :0.37918: L2-HR :0.47298: (Sim:0h39m14s) 
CPU  0 inst:  567000003 cyc:  559967952 now IPC :1.65252: AVG IPC :1.01075: L2-Pf-HR :0.37916: L2-HR :0.47301: (Sim:0h39m18s) 
CPU  0 inst:  568000000 cyc:  560488190 now IPC :1.92219: AVG IPC :1.01160: L2-Pf-HR :0.37892: L2-HR :0.47279: (Sim:0h39m22s) 
CPU  0 inst:  569000002 cyc:  561055467 now IPC :1.76281: AVG IPC :1.01236: L2-Pf-HR :0.37884: L2-HR :0.47270: (Sim:0h39m26s) 
CPU  0 inst:  570000003 cyc:  561636886 now IPC :1.71993: AVG IPC :1.01310: L2-Pf-HR :0.37914: L2-HR :0.47290: (Sim:0h39m31s) 
CPU  0 inst:  571000001 cyc:  562170182 now IPC :1.87513: AVG IPC :1.01392: L2-Pf-HR :0.37893: L2-HR :0.47271: (Sim:0h39m35s) 
CPU  0 inst:  572000000 cyc:  562858780 now IPC :1.45222: AVG IPC :1.01445: L2-Pf-HR :0.37899: L2-HR :0.47280: (Sim:0h39m39s) 
CPU  0 inst:  573000002 cyc:  563408579 now IPC :1.81885: AVG IPC :1.01524: L2-Pf-HR :0.37882: L2-HR :0.47262: (Sim:0h39m44s) 
CPU  0 inst:  574000001 cyc:  563955296 now IPC :1.82910: AVG IPC :1.01603: L2-Pf-HR :0.37876: L2-HR :0.47252: (Sim:0h39m48s) 
CPU  0 inst:  575000003 cyc:  564614624 now IPC :1.51670: AVG IPC :1.01662: L2-Pf-HR :0.37904: L2-HR :0.47278: (Sim:0h39m53s) 
CPU  0 inst:  576000000 cyc:  565137013 now IPC :1.91428: AVG IPC :1.01745: L2-Pf-HR :0.37873: L2-HR :0.47250: (Sim:0h39m57s) 
CPU  0 inst:  577000002 cyc:  565655571 now IPC :1.92843: AVG IPC :1.01828: L2-Pf-HR :0.37856: L2-HR :0.47234: (Sim:0h40m0s) 
CPU  0 inst:  578000000 cyc:  566210899 now IPC :1.80073: AVG IPC :1.01905: L2-Pf-HR :0.37890: L2-HR :0.47256: (Sim:0h40m5s) 
CPU  0 inst:  579000002 cyc:  566816510 now IPC :1.65123: AVG IPC :1.01973: L2-Pf-HR :0.37877: L2-HR :0.47244: (Sim:0h40m9s) 
CPU  0 inst:  580000000 cyc:  567377087 now IPC :1.78387: AVG IPC :1.02048: L2-Pf-HR :0.37879: L2-HR :0.47244: (Sim:0h40m13s) 
CPU  0 inst:  581000002 cyc:  568048946 now IPC :1.48841: AVG IPC :1.02104: L2-Pf-HR :0.37860: L2-HR :0.47233: (Sim:0h40m18s) 
CPU  0 inst:  582000000 cyc:  568595229 now IPC :1.83055: AVG IPC :1.02182: L2-Pf-HR :0.37855: L2-HR :0.47223: (Sim:0h40m22s) 
CPU  0 inst:  583000003 cyc:  569178672 now IPC :1.71397: AVG IPC :1.02253: L2-Pf-HR :0.37865: L2-HR :0.47228: (Sim:0h40m26s) 
CPU  0 inst:  584000000 cyc:  569778359 now IPC :1.66753: AVG IPC :1.02321: L2-Pf-HR :0.37858: L2-HR :0.47226: (Sim:0h40m31s) 
CPU  0 inst:  585000000 cyc:  570298572 now IPC :1.92229: AVG IPC :1.02403: L2-Pf-HR :0.37838: L2-HR :0.47207: (Sim:0h40m35s) 
CPU  0 inst:  586000002 cyc:  570865495 now IPC :1.76391: AVG IPC :1.02477: L2-Pf-HR :0.37838: L2-HR :0.47203: (Sim:0h40m39s) 
CPU  0 inst:  587000000 cyc:  571451358 now IPC :1.70688: AVG IPC :1.02547: L2-Pf-HR :0.37861: L2-HR :0.47219: (Sim:0h40m43s) 
CPU  0 inst:  588000000 cyc:  571987793 now IPC :1.86416: AVG IPC :1.02625: L2-Pf-HR :0.37843: L2-HR :0.47202: (Sim:0h40m48s) 
CPU  0 inst:  589000000 cyc:  572675331 now IPC :1.45447: AVG IPC :1.02677: L2-Pf-HR :0.37845: L2-HR :0.47208: (Sim:0h40m52s) 
CPU  0 inst:  590000002 cyc:  573229905 now IPC :1.80319: AVG IPC :1.02752: L2-Pf-HR :0.37834: L2-HR :0.47195: (Sim:0h40m56s) 
CPU  0 inst:  591000003 cyc:  573770476 now IPC :1.84990: AVG IPC :1.02830: L2-Pf-HR :0.37827: L2-HR :0.47184: (Sim:0h41m1s) 
CPU  0 inst:  592000000 cyc:  574413619 now IPC :1.55486: AVG IPC :1.02889: L2-Pf-HR :0.37855: L2-HR :0.47209: (Sim:0h41m5s) 
CPU  0 inst:  593000001 cyc:  574931715 now IPC :1.93015: AVG IPC :1.02970: L2-Pf-HR :0.37825: L2-HR :0.47183: (Sim:0h41m10s) 
CPU  0 inst:  594000000 cyc:  575452876 now IPC :1.91879: AVG IPC :1.03051: L2-Pf-HR :0.37817: L2-HR :0.47172: (Sim:0h41m14s) 
Finished CPU 0 instr: 592000003 cyc: 574473397 AVG IPC: 1.03051 (Sim time: 0h41m14s)

ChampSim completed all CPUs

[ROI Statistics]
Core_0_instructions 592000003
Core_0_cycles 574473397
Core_0_IPC 1.03051

Core_0_branch_prediction_accuracy 98.24511
Core_0_branch_MPKI 0.42508
Core_0_average_ROB_occupancy_at_mispredict 249.47076

Core_0_L1D_total_access 159678374
Core_0_L1D_total_hit 147914659 L1D_total_Hit Ratio: 0.92633
Core_0_L1D_total_miss 11763715
Core_0_L1D_loads 134987515
Core_0_L1D_load_hit 132019746 L1D_load_Hit Ratio: 0.97801
Core_0_L1D_load_miss 2967769
Core_0_L1D_RFOs 12032821
Core_0_L1D_RFO_hit 11667596 L1D_RFO_Hit Ratio: 0.96965
Core_0_L1D_RFO_miss 365225
Core_0_L1D_prefetches 12658038
Core_0_L1D_prefetch_hit 4227317 L1D_prefetch_Hit Ratio: 0.33396
Core_0_L1D_prefetch_miss 8430721
Core_0_L1D_writebacks 0
Core_0_L1D_writeback_hit 0 L1D_writeback_Hit Ratio: -nan
Core_0_L1D_writeback_miss 0
Core_0_L1D_prefetch_requested 14367110
Core_0_L1D_prefetch_issued 14367110
Core_0_L1D_prefetch_useful 8380211 L1D_Useful Ratio: 0.58329
Core_0_L1D_prefetch_useless 79487
Core_0_L1D_prefetch_late 794156
Core_0_L1D_average_miss_latency 16427459.37074

Core_0_L1I_total_access 135472866
Core_0_L1I_total_hit 135467986 L1I_total_Hit Ratio: 0.99996
Core_0_L1I_total_miss 4880
Core_0_L1I_loads 135472866
Core_0_L1I_load_hit 135467986 L1I_load_Hit Ratio: 0.99996
Core_0_L1I_load_miss 4880
Core_0_L1I_RFOs 0
Core_0_L1I_RFO_hit 0 L1I_RFO_Hit Ratio: -nan
Core_0_L1I_RFO_miss 0
Core_0_L1I_prefetches 0
Core_0_L1I_prefetch_hit 0 L1I_prefetch_Hit Ratio: -nan
Core_0_L1I_prefetch_miss 0
Core_0_L1I_writebacks 0
Core_0_L1I_writeback_hit 0 L1I_writeback_Hit Ratio: -nan
Core_0_L1I_writeback_miss 0
Core_0_L1I_prefetch_requested 0
Core_0_L1I_prefetch_issued 0
Core_0_L1I_prefetch_useful 0 L1I_Useful Ratio: -nan
Core_0_L1I_prefetch_useless 0
Core_0_L1I_prefetch_late 0
Core_0_L1I_average_miss_latency 224.97602

Core_0_L2C_total_access 16662052
Core_0_L2C_total_hit 7859817 L2C_total_Hit Ratio: 0.47172
Core_0_L2C_total_miss 8802235
Core_0_L2C_loads 2179499
Core_0_L2C_load_hit 623825 L2C_load_Hit Ratio: 0.28622
Core_0_L2C_load_miss 1555674
Core_0_L2C_RFOs 365098
Core_0_L2C_RFO_hit 61184 L2C_RFO_Hit Ratio: 0.16758
Core_0_L2C_RFO_miss 303914
Core_0_L2C_prefetches 10912559
Core_0_L2C_prefetch_hit 4126809 L2C_prefetch_Hit Ratio: 0.37817
Core_0_L2C_prefetch_miss 6785750
Core_0_L2C_writebacks 3204896
Core_0_L2C_writeback_hit 3047999 L2C_writeback_Hit Ratio: 0.95104
Core_0_L2C_writeback_miss 156897
Core_0_L2C_prefetch_requested 3058032
Core_0_L2C_prefetch_issued 3058032
Core_0_L2C_prefetch_useful 440028 L2C_Useful Ratio: 0.14389
Core_0_L2C_prefetch_useless 6365986
Core_0_L2C_prefetch_late 114490
Core_0_L2C_average_miss_latency 149.71690

Core_0_LLC_total_access 11708947
Core_0_LLC_total_hit 8549500 LLC_total_Hit Ratio: 0.73017
Core_0_LLC_total_miss 3159447
Core_0_LLC_loads 1441266
Core_0_LLC_load_hit 773390 LLC_load_Hit Ratio: 0.53660
Core_0_LLC_load_miss 667876
Core_0_LLC_RFOs 303914
Core_0_LLC_RFO_hit 66485 LLC_RFO_Hit Ratio: 0.21876
Core_0_LLC_RFO_miss 237429
Core_0_LLC_prefetches 6900124
Core_0_LLC_prefetch_hit 4645988 LLC_prefetch_Hit Ratio: 0.67332
Core_0_LLC_prefetch_miss 2254136
Core_0_LLC_writebacks 3063643
Core_0_LLC_writeback_hit 3063637 LLC_writeback_Hit Ratio: 1.00000
Core_0_LLC_writeback_miss 6
Core_0_LLC_prefetch_requested 0
Core_0_LLC_prefetch_issued 0
Core_0_LLC_prefetch_useful 218999 LLC_Useful Ratio: inf
Core_0_LLC_prefetch_useless 2023407
Core_0_LLC_prefetch_late 0
Core_0_LLC_average_miss_latency 338.14791

Core_0_major_page_fault 0
Core_0_minor_page_fault 25625

[Bingo] PHT Access: 1042371
[Bingo] PHT Hit PC+Addr: 221515
[Bingo] PHT Hit PC+Offs: 793651
[Bingo] PHT Miss: 27205
[Bingo] Prefetch PC+Addr: 0
[Bingo] Prefetch PC+Offs: 0
[Bingo] Useful PC+Addr: 0
[Bingo] Useful PC+Offs: 0
[Bingo] Useless PC+Addr: 0
[Bingo] Useless PC+Offs: 0
[Bingo] L1 Prefetch per Region: 15.40728
[Bingo] L2 Prefetch per Region: 0.19318
[Bingo] L3 Prefetch per Region: 0.00000
[Bingo] No Prefetch per Region: 16.39954
[Bingo] Number of Voters Mean: 15.69894
[Bingo] Number of Voters SD: 1.92693
PHT read accesses: 14634642
PHT write accesses: 1015705
AT read accesses: 129868048
AT write accesses: 129868044
FT read accesses: 13912720
FT write accesses: 1042371
PS read accesses: 6193978
PS write accesses: 1015166
PHT tag read accesses: 43744814
PHT tag write accesses: 1237220
AT tag read accesses: 2388041705
AT tag write accesses: 130883749
FT tag read accesses: 341981121
FT tag write accesses: 8519848
PS tag read accesses: 2198693453
PS tag write accesses: 7205135
[Bingo2] PHT Access: 729781
[Bingo2] PHT Hit PC+Addr: 51932
[Bingo2] PHT Hit PC+Offs: 655092
[Bingo2] PHT Miss: 22757
[Bingo2] Prefetch PC+Addr: 0
[Bingo2] Prefetch PC+Offs: 0
[Bingo2] Useful PC+Addr: 0
[Bingo2] Useful PC+Offs: 0
[Bingo2] Useless PC+Addr: 0
[Bingo2] Useless PC+Offs: 0
[Bingo2] L1 Prefetch per Region: 0.00000
[Bingo2] L2 Prefetch per Region: 5.39367
[Bingo2] L3 Prefetch per Region: 0.00000
[Bingo2] No Prefetch per Region: 26.60633
[Bingo2] Number of Voters Mean: 15.52078
[Bingo2] Number of Voters SD: 2.22360
PHT read accesses: 10765906
PHT write accesses: 491679
AT read accesses: 1881427
AT write accesses: 1916503
FT read accesses: 1697752
FT write accesses: 729781
PS read accesses: 1458172
PS write accesses: 707024
PHT tag read accesses: 26600176
PHT tag write accesses: 543611
AT tag read accesses: 195374425
AT tag write accesses: 2373104
FT tag read accesses: 185423568
FT tag write accesses: 1910964
PS tag read accesses: 61236515
PS tag write accesses: 2160889
Channel_0_RQ_row_buffer_hit 1941497
Channel_0_RQ_row_buffer_miss 1217935
Channel_0_WQ_row_buffer_hit 657638
Channel_0_WQ_row_buffer_miss 1051036
Channel_0_WQ_full 0
Channel_0_dbus_congested 3099160

avg_congested_cycle 11

EzSearch AVG IPC :1.03051: L2-Pf-HR :0.37817 : L2-HR :0.47172 Uful:0.14389
     > Finished combination: TraceType=770-tot Sim:592000000 Prefetcher=L2bingo_dpc3 L1=bingo_dpc3
