TRACE: [409000000][GPT-Neo_2_7B]_[h32][s512][d80] Warmup: 2000000 NumTraces: 409000000
L1:bingo_dpc3:L2:bingo_dpc3
*************************************************
   ChampSim Multicore Out-of-Order Simulator
   Last compiled: Oct 26 2024 15:29:02
*************************************************

trace_0 770-tot_memTraces_v3/memTraces[409000000][GPT-Neo_2_7B]_[h32][s512][d80].champsim.xz
Bingo PHT WAYS: 16 and PHT_SIZE: 16384
Bingo2 PHT WAYS: 16 and PHT_SIZE: 16384
MAIN.cc ln 751 stats print skipped
CPU  0 inst:    1000003 cyc:     501611 now IPC :1.99358: AVG IPC :1.99358: L2-Pf-HR :0.67993: L2-HR :0.61379: (Sim:0h0m5s) 
CPU  0 inst:    2000002 cyc:     976564 now IPC :2.10547: AVG IPC :2.04800: L2-Pf-HR :0.67257: L2-HR :0.62553: (Sim:0h0m10s) 

Warmup complete CPU  0 instructions:    2000002 cycles:     976564 (Simulation time: 0 hr 0 min 10 sec) 

CPU  0 inst:    3000003 cyc:    1626684 now IPC :1.53818: AVG IPC :1.53818: L2-Pf-HR :0.77874: L2-HR :0.70501: (Sim:0h0m14s) 
CPU  0 inst:    4000000 cyc:    2292026 now IPC :1.50298: AVG IPC :1.52038: L2-Pf-HR :0.73127: L2-HR :0.67718: (Sim:0h0m19s) 
CPU  0 inst:    5000002 cyc:    2909887 now IPC :1.61849: AVG IPC :1.55173: L2-Pf-HR :0.74436: L2-HR :0.68822: (Sim:0h0m23s) 
CPU  0 inst:    6000002 cyc:    3588590 now IPC :1.47340: AVG IPC :1.53138: L2-Pf-HR :0.67611: L2-HR :0.64829: (Sim:0h0m28s) 
CPU  0 inst:    7000003 cyc:    4256825 now IPC :1.49648: AVG IPC :1.52427: L2-Pf-HR :0.65654: L2-HR :0.63296: (Sim:0h0m33s) 
CPU  0 inst:    8000000 cyc:    4907502 now IPC :1.53686: AVG IPC :1.52635: L2-Pf-HR :0.66725: L2-HR :0.63851: (Sim:0h0m38s) 
CPU  0 inst:    9000003 cyc:    5568062 now IPC :1.51387: AVG IPC :1.52456: L2-Pf-HR :0.66355: L2-HR :0.63522: (Sim:0h0m42s) 
CPU  0 inst:   10000001 cyc:    6271583 now IPC :1.42142: AVG IPC :1.51085: L2-Pf-HR :0.67379: L2-HR :0.64438: (Sim:0h0m47s) 
CPU  0 inst:   11000002 cyc:    7017169 now IPC :1.34123: AVG IPC :1.48992: L2-Pf-HR :0.65356: L2-HR :0.63358: (Sim:0h0m52s) 
CPU  0 inst:   12000000 cyc:    7675843 now IPC :1.51820: AVG IPC :1.49270: L2-Pf-HR :0.64221: L2-HR :0.62506: (Sim:0h0m57s) 
CPU  0 inst:   13000001 cyc:    8328418 now IPC :1.53239: AVG IPC :1.49622: L2-Pf-HR :0.64602: L2-HR :0.62689: (Sim:0h1m2s) 
CPU  0 inst:   14000002 cyc:    8977645 now IPC :1.54029: AVG IPC :1.49980: L2-Pf-HR :0.64404: L2-HR :0.62518: (Sim:0h1m7s) 
CPU  0 inst:   15000000 cyc:    9673355 now IPC :1.43738: AVG IPC :1.49480: L2-Pf-HR :0.64978: L2-HR :0.62910: (Sim:0h1m11s) 
CPU  0 inst:   16000000 cyc:   10449529 now IPC :1.28837: AVG IPC :1.47789: L2-Pf-HR :0.63889: L2-HR :0.62334: (Sim:0h1m16s) 
CPU  0 inst:   17000001 cyc:   11130118 now IPC :1.46932: AVG IPC :1.47732: L2-Pf-HR :0.63444: L2-HR :0.61959: (Sim:0h1m21s) 
CPU  0 inst:   18000000 cyc:   11802333 now IPC :1.48762: AVG IPC :1.47795: L2-Pf-HR :0.63674: L2-HR :0.62062: (Sim:0h1m26s) 
CPU  0 inst:   19000002 cyc:   12476455 now IPC :1.48341: AVG IPC :1.47827: L2-Pf-HR :0.63802: L2-HR :0.62123: (Sim:0h1m31s) 
CPU  0 inst:   20000000 cyc:   13192438 now IPC :1.39668: AVG IPC :1.47349: L2-Pf-HR :0.64275: L2-HR :0.62455: (Sim:0h1m36s) 
CPU  0 inst:   21000001 cyc:   13954515 now IPC :1.31220: AVG IPC :1.46402: L2-Pf-HR :0.63602: L2-HR :0.62132: (Sim:0h1m40s) 
CPU  0 inst:   22000001 cyc:   14611195 now IPC :1.52281: AVG IPC :1.46685: L2-Pf-HR :0.63266: L2-HR :0.61845: (Sim:0h1m45s) 
CPU  0 inst:   23000002 cyc:   15270326 now IPC :1.51715: AVG IPC :1.46917: L2-Pf-HR :0.63295: L2-HR :0.61831: (Sim:0h1m50s) 
CPU  0 inst:   24000000 cyc:   15930561 now IPC :1.51461: AVG IPC :1.47118: L2-Pf-HR :0.63412: L2-HR :0.61862: (Sim:0h1m55s) 
CPU  0 inst:   25000000 cyc:   16628827 now IPC :1.43212: AVG IPC :1.46944: L2-Pf-HR :0.63711: L2-HR :0.62046: (Sim:0h1m59s) 
CPU  0 inst:   26000000 cyc:   17390102 now IPC :1.31359: AVG IPC :1.46221: L2-Pf-HR :0.63215: L2-HR :0.61830: (Sim:0h2m4s) 
CPU  0 inst:   27000002 cyc:   18061895 now IPC :1.48856: AVG IPC :1.46324: L2-Pf-HR :0.62982: L2-HR :0.61631: (Sim:0h2m9s) 
CPU  0 inst:   28000000 cyc:   18734803 now IPC :1.48608: AVG IPC :1.46411: L2-Pf-HR :0.62966: L2-HR :0.61599: (Sim:0h2m13s) 
CPU  0 inst:   29000001 cyc:   19412653 now IPC :1.47525: AVG IPC :1.46452: L2-Pf-HR :0.63133: L2-HR :0.61685: (Sim:0h2m18s) 
CPU  0 inst:   30000000 cyc:   20111857 now IPC :1.43020: AVG IPC :1.46326: L2-Pf-HR :0.63259: L2-HR :0.61760: (Sim:0h2m23s) 
CPU  0 inst:   31000003 cyc:   20875458 now IPC :1.30959: AVG IPC :1.45737: L2-Pf-HR :0.62976: L2-HR :0.61660: (Sim:0h2m28s) 
CPU  0 inst:   32000000 cyc:   21561676 now IPC :1.45726: AVG IPC :1.45736: L2-Pf-HR :0.62947: L2-HR :0.61599: (Sim:0h2m33s) 
CPU  0 inst:   33000000 cyc:   22237903 now IPC :1.47879: AVG IPC :1.45805: L2-Pf-HR :0.62945: L2-HR :0.61578: (Sim:0h2m37s) 
CPU  0 inst:   34000002 cyc:   22908191 now IPC :1.49190: AVG IPC :1.45908: L2-Pf-HR :0.63140: L2-HR :0.61684: (Sim:0h2m42s) 
CPU  0 inst:   35000003 cyc:   23619137 now IPC :1.40658: AVG IPC :1.45743: L2-Pf-HR :0.63233: L2-HR :0.61741: (Sim:0h2m47s) 
CPU  0 inst:   36000000 cyc:   24385108 now IPC :1.30553: AVG IPC :1.45246: L2-Pf-HR :0.63104: L2-HR :0.61730: (Sim:0h2m52s) 
CPU  0 inst:   37000000 cyc:   25054950 now IPC :1.49289: AVG IPC :1.45359: L2-Pf-HR :0.62977: L2-HR :0.61612: (Sim:0h2m56s) 
CPU  0 inst:   38000000 cyc:   25725045 now IPC :1.49233: AVG IPC :1.45463: L2-Pf-HR :0.62917: L2-HR :0.61557: (Sim:0h3m1s) 
CPU  0 inst:   39000001 cyc:   26393158 now IPC :1.49675: AVG IPC :1.45574: L2-Pf-HR :0.63084: L2-HR :0.61652: (Sim:0h3m6s) 
CPU  0 inst:   40000000 cyc:   27097708 now IPC :1.41934: AVG IPC :1.45476: L2-Pf-HR :0.63167: L2-HR :0.61697: (Sim:0h3m11s) 
CPU  0 inst:   41000000 cyc:   27855575 now IPC :1.31949: AVG IPC :1.45095: L2-Pf-HR :0.63170: L2-HR :0.61776: (Sim:0h3m15s) 
CPU  0 inst:   42000002 cyc:   28525554 now IPC :1.49259: AVG IPC :1.45196: L2-Pf-HR :0.63086: L2-HR :0.61690: (Sim:0h3m20s) 
CPU  0 inst:   43000002 cyc:   29201729 now IPC :1.47891: AVG IPC :1.45260: L2-Pf-HR :0.63012: L2-HR :0.61628: (Sim:0h3m25s) 
CPU  0 inst:   44000000 cyc:   29865196 now IPC :1.50723: AVG IPC :1.45386: L2-Pf-HR :0.63139: L2-HR :0.61697: (Sim:0h3m30s) 
CPU  0 inst:   45000003 cyc:   30555843 now IPC :1.44792: AVG IPC :1.45372: L2-Pf-HR :0.63175: L2-HR :0.61721: (Sim:0h3m34s) 
CPU  0 inst:   46000000 cyc:   31299949 now IPC :1.34389: AVG IPC :1.45103: L2-Pf-HR :0.63232: L2-HR :0.61830: (Sim:0h3m39s) 
CPU  0 inst:   47000001 cyc:   32000444 now IPC :1.42756: AVG IPC :1.45050: L2-Pf-HR :0.63015: L2-HR :0.61664: (Sim:0h3m44s) 
CPU  0 inst:   48000000 cyc:   32663877 now IPC :1.50731: AVG IPC :1.45169: L2-Pf-HR :0.62984: L2-HR :0.61624: (Sim:0h3m49s) 
CPU  0 inst:   49000002 cyc:   33335158 now IPC :1.48969: AVG IPC :1.45247: L2-Pf-HR :0.63127: L2-HR :0.61704: (Sim:0h3m54s) 
CPU  0 inst:   50000000 cyc:   34046826 now IPC :1.40515: AVG IPC :1.45145: L2-Pf-HR :0.63181: L2-HR :0.61730: (Sim:0h3m58s) 
CPU  0 inst:   51000000 cyc:   34733056 now IPC :1.45724: AVG IPC :1.45157: L2-Pf-HR :0.63503: L2-HR :0.61939: (Sim:0h4m3s) 
CPU  0 inst:   52000000 cyc:   35484141 now IPC :1.33141: AVG IPC :1.44896: L2-Pf-HR :0.63118: L2-HR :0.61719: (Sim:0h4m8s) 
CPU  0 inst:   53000002 cyc:   36155129 now IPC :1.49034: AVG IPC :1.44975: L2-Pf-HR :0.62988: L2-HR :0.61620: (Sim:0h4m13s) 
CPU  0 inst:   54000003 cyc:   36802337 now IPC :1.54510: AVG IPC :1.45147: L2-Pf-HR :0.63110: L2-HR :0.61690: (Sim:0h4m17s) 
CPU  0 inst:   55000001 cyc:   37509391 now IPC :1.41432: AVG IPC :1.45075: L2-Pf-HR :0.63092: L2-HR :0.61672: (Sim:0h4m22s) 
CPU  0 inst:   56000000 cyc:   38177626 now IPC :1.49648: AVG IPC :1.45157: L2-Pf-HR :0.63316: L2-HR :0.61824: (Sim:0h4m27s) 
CPU  0 inst:   57000001 cyc:   38935786 now IPC :1.31898: AVG IPC :1.44892: L2-Pf-HR :0.62926: L2-HR :0.61602: (Sim:0h4m32s) 
CPU  0 inst:   58000001 cyc:   39608077 now IPC :1.48745: AVG IPC :1.44959: L2-Pf-HR :0.62769: L2-HR :0.61485: (Sim:0h4m37s) 
CPU  0 inst:   59000001 cyc:   40279460 now IPC :1.48946: AVG IPC :1.45027: L2-Pf-HR :0.62885: L2-HR :0.61553: (Sim:0h4m41s) 
CPU  0 inst:   60000000 cyc:   40989893 now IPC :1.40759: AVG IPC :1.44952: L2-Pf-HR :0.62875: L2-HR :0.61536: (Sim:0h4m46s) 
CPU  0 inst:   61000003 cyc:   41655832 now IPC :1.50164: AVG IPC :1.45037: L2-Pf-HR :0.63082: L2-HR :0.61675: (Sim:0h4m51s) 
CPU  0 inst:   62000002 cyc:   42415574 now IPC :1.31623: AVG IPC :1.44791: L2-Pf-HR :0.62745: L2-HR :0.61486: (Sim:0h4m56s) 
CPU  0 inst:   63000000 cyc:   43095002 now IPC :1.47182: AVG IPC :1.44830: L2-Pf-HR :0.62631: L2-HR :0.61395: (Sim:0h5m1s) 
CPU  0 inst:   64000000 cyc:   43766770 now IPC :1.48861: AVG IPC :1.44893: L2-Pf-HR :0.62765: L2-HR :0.61473: (Sim:0h5m5s) 
CPU  0 inst:   65000000 cyc:   44438458 now IPC :1.48879: AVG IPC :1.44955: L2-Pf-HR :0.62784: L2-HR :0.61468: (Sim:0h5m10s) 
CPU  0 inst:   66000000 cyc:   45139455 now IPC :1.42654: AVG IPC :1.44918: L2-Pf-HR :0.62931: L2-HR :0.61576: (Sim:0h5m15s) 
CPU  0 inst:   67000002 cyc:   45897348 now IPC :1.31945: AVG IPC :1.44699: L2-Pf-HR :0.62722: L2-HR :0.61471: (Sim:0h5m20s) 
CPU  0 inst:   68000000 cyc:   46582261 now IPC :1.46004: AVG IPC :1.44719: L2-Pf-HR :0.62652: L2-HR :0.61408: (Sim:0h5m25s) 
CPU  0 inst:   69000003 cyc:   47264457 now IPC :1.46586: AVG IPC :1.44746: L2-Pf-HR :0.62783: L2-HR :0.61486: (Sim:0h5m29s) 
CPU  0 inst:   70000002 cyc:   47937542 now IPC :1.48570: AVG IPC :1.44801: L2-Pf-HR :0.62815: L2-HR :0.61495: (Sim:0h5m34s) 
CPU  0 inst:   71000000 cyc:   48648599 now IPC :1.40635: AVG IPC :1.44739: L2-Pf-HR :0.62979: L2-HR :0.61606: (Sim:0h5m39s) 
CPU  0 inst:   72000000 cyc:   49401361 now IPC :1.32844: AVG IPC :1.44554: L2-Pf-HR :0.62791: L2-HR :0.61516: (Sim:0h5m44s) 
CPU  0 inst:   73000001 cyc:   50055520 now IPC :1.52868: AVG IPC :1.44665: L2-Pf-HR :0.62717: L2-HR :0.61452: (Sim:0h5m48s) 
CPU  0 inst:   74000000 cyc:   50710524 now IPC :1.52671: AVG IPC :1.44770: L2-Pf-HR :0.62746: L2-HR :0.61461: (Sim:0h5m53s) 
CPU  0 inst:   75000001 cyc:   51377848 now IPC :1.49852: AVG IPC :1.44838: L2-Pf-HR :0.62759: L2-HR :0.61460: (Sim:0h5m58s) 
CPU  0 inst:   76000000 cyc:   52075009 now IPC :1.43439: AVG IPC :1.44818: L2-Pf-HR :0.62865: L2-HR :0.61535: (Sim:0h6m3s) 
CPU  0 inst:   77000001 cyc:   52835617 now IPC :1.31474: AVG IPC :1.44623: L2-Pf-HR :0.62717: L2-HR :0.61469: (Sim:0h6m8s) 
CPU  0 inst:   78000000 cyc:   53507085 now IPC :1.48927: AVG IPC :1.44678: L2-Pf-HR :0.62656: L2-HR :0.61414: (Sim:0h6m13s) 
CPU  0 inst:   79000003 cyc:   54192271 now IPC :1.45946: AVG IPC :1.44694: L2-Pf-HR :0.62746: L2-HR :0.61463: (Sim:0h6m18s) 
CPU  0 inst:   80000000 cyc:   54871880 now IPC :1.47143: AVG IPC :1.44725: L2-Pf-HR :0.62819: L2-HR :0.61502: (Sim:0h6m22s) 
CPU  0 inst:   81000003 cyc:   55576660 now IPC :1.41889: AVG IPC :1.44688: L2-Pf-HR :0.62891: L2-HR :0.61546: (Sim:0h6m27s) 
CPU  0 inst:   82000001 cyc:   56335936 now IPC :1.31704: AVG IPC :1.44510: L2-Pf-HR :0.62739: L2-HR :0.61478: (Sim:0h6m32s) 
CPU  0 inst:   83000002 cyc:   57013856 now IPC :1.47510: AVG IPC :1.44547: L2-Pf-HR :0.62713: L2-HR :0.61449: (Sim:0h6m37s) 
CPU  0 inst:   84000000 cyc:   57687541 now IPC :1.48437: AVG IPC :1.44593: L2-Pf-HR :0.62755: L2-HR :0.61475: (Sim:0h6m42s) 
CPU  0 inst:   85000000 cyc:   58370130 now IPC :1.46501: AVG IPC :1.44616: L2-Pf-HR :0.62818: L2-HR :0.61513: (Sim:0h6m46s) 
CPU  0 inst:   86000003 cyc:   59064383 now IPC :1.44040: AVG IPC :1.44609: L2-Pf-HR :0.62886: L2-HR :0.61555: (Sim:0h6m51s) 
CPU  0 inst:   87000001 cyc:   59830266 now IPC :1.30568: AVG IPC :1.44426: L2-Pf-HR :0.62784: L2-HR :0.61519: (Sim:0h6m56s) 
CPU  0 inst:   88000000 cyc:   60485432 now IPC :1.52633: AVG IPC :1.44516: L2-Pf-HR :0.62726: L2-HR :0.61465: (Sim:0h7m1s) 
CPU  0 inst:   89000001 cyc:   61155751 now IPC :1.49183: AVG IPC :1.44568: L2-Pf-HR :0.62717: L2-HR :0.61453: (Sim:0h7m5s) 
CPU  0 inst:   90000001 cyc:   61813041 now IPC :1.52140: AVG IPC :1.44650: L2-Pf-HR :0.62753: L2-HR :0.61467: (Sim:0h7m10s) 
CPU  0 inst:   91000002 cyc:   62516302 now IPC :1.42195: AVG IPC :1.44622: L2-Pf-HR :0.62807: L2-HR :0.61506: (Sim:0h7m15s) 
CPU  0 inst:   92000000 cyc:   63286597 now IPC :1.29820: AVG IPC :1.44439: L2-Pf-HR :0.62727: L2-HR :0.61489: (Sim:0h7m20s) 
CPU  0 inst:   93000000 cyc:   63941961 now IPC :1.52587: AVG IPC :1.44524: L2-Pf-HR :0.62694: L2-HR :0.61456: (Sim:0h7m24s) 
CPU  0 inst:   94000002 cyc:   64599573 now IPC :1.52066: AVG IPC :1.44602: L2-Pf-HR :0.62715: L2-HR :0.61463: (Sim:0h7m29s) 
CPU  0 inst:   95000002 cyc:   65271895 now IPC :1.48738: AVG IPC :1.44645: L2-Pf-HR :0.62755: L2-HR :0.61482: (Sim:0h7m34s) 
CPU  0 inst:   96000000 cyc:   65964383 now IPC :1.44407: AVG IPC :1.44642: L2-Pf-HR :0.62790: L2-HR :0.61500: (Sim:0h7m38s) 
CPU  0 inst:   97000002 cyc:   66722542 now IPC :1.31899: AVG IPC :1.44496: L2-Pf-HR :0.62734: L2-HR :0.61497: (Sim:0h7m41s) 
CPU  0 inst:   98000001 cyc:   67410976 now IPC :1.45257: AVG IPC :1.44503: L2-Pf-HR :0.62682: L2-HR :0.61451: (Sim:0h7m44s) 
CPU  0 inst:   99000003 cyc:   68096387 now IPC :1.45898: AVG IPC :1.44518: L2-Pf-HR :0.62640: L2-HR :0.61417: (Sim:0h7m47s) 
CPU  0 inst:  100000000 cyc:   68757336 now IPC :1.51297: AVG IPC :1.44584: L2-Pf-HR :0.62691: L2-HR :0.61444: (Sim:0h7m50s) 
CPU  0 inst:  101000003 cyc:   69465031 now IPC :1.41304: AVG IPC :1.44550: L2-Pf-HR :0.62728: L2-HR :0.61466: (Sim:0h7m53s) 
CPU  0 inst:  102000002 cyc:   70210408 now IPC :1.34160: AVG IPC :1.44438: L2-Pf-HR :0.62757: L2-HR :0.61507: (Sim:0h7m57s) 
CPU  0 inst:  103000000 cyc:   70901063 now IPC :1.44790: AVG IPC :1.44442: L2-Pf-HR :0.62680: L2-HR :0.61445: (Sim:0h8m0s) 
CPU  0 inst:  104000000 cyc:   71579804 now IPC :1.47332: AVG IPC :1.44469: L2-Pf-HR :0.62680: L2-HR :0.61435: (Sim:0h8m4s) 
CPU  0 inst:  105000003 cyc:   72263690 now IPC :1.46224: AVG IPC :1.44486: L2-Pf-HR :0.62732: L2-HR :0.61463: (Sim:0h8m7s) 
CPU  0 inst:  106000000 cyc:   72957637 now IPC :1.44103: AVG IPC :1.44482: L2-Pf-HR :0.62730: L2-HR :0.61456: (Sim:0h8m11s) 
CPU  0 inst:  107000002 cyc:   73630627 now IPC :1.48591: AVG IPC :1.44520: L2-Pf-HR :0.62867: L2-HR :0.61545: (Sim:0h8m16s) 
CPU  0 inst:  108000000 cyc:   74398217 now IPC :1.30278: AVG IPC :1.44372: L2-Pf-HR :0.62699: L2-HR :0.61450: (Sim:0h8m19s) 
CPU  0 inst:  109000003 cyc:   75091358 now IPC :1.44271: AVG IPC :1.44371: L2-Pf-HR :0.62646: L2-HR :0.61408: (Sim:0h8m22s) 
CPU  0 inst:  110000001 cyc:   75765445 now IPC :1.48349: AVG IPC :1.44406: L2-Pf-HR :0.62699: L2-HR :0.61436: (Sim:0h8m25s) 
CPU  0 inst:  111000002 cyc:   76474274 now IPC :1.41078: AVG IPC :1.44375: L2-Pf-HR :0.62707: L2-HR :0.61438: (Sim:0h8m28s) 
CPU  0 inst:  112000000 cyc:   77147701 now IPC :1.48494: AVG IPC :1.44412: L2-Pf-HR :0.62831: L2-HR :0.61520: (Sim:0h8m31s) 
CPU  0 inst:  113000003 cyc:   77906868 now IPC :1.31724: AVG IPC :1.44286: L2-Pf-HR :0.62680: L2-HR :0.61438: (Sim:0h8m35s) 
CPU  0 inst:  114000001 cyc:   78566760 now IPC :1.51540: AVG IPC :1.44348: L2-Pf-HR :0.62631: L2-HR :0.61398: (Sim:0h8m39s) 
CPU  0 inst:  115000002 cyc:   79252809 now IPC :1.45762: AVG IPC :1.44361: L2-Pf-HR :0.62680: L2-HR :0.61422: (Sim:0h8m43s) 
CPU  0 inst:  116000000 cyc:   79955133 now IPC :1.42384: AVG IPC :1.44343: L2-Pf-HR :0.62674: L2-HR :0.61413: (Sim:0h8m46s) 
CPU  0 inst:  117000002 cyc:   80617171 now IPC :1.51049: AVG IPC :1.44399: L2-Pf-HR :0.62773: L2-HR :0.61482: (Sim:0h8m49s) 
CPU  0 inst:  118000001 cyc:   81374422 now IPC :1.32056: AVG IPC :1.44282: L2-Pf-HR :0.62652: L2-HR :0.61420: (Sim:0h8m53s) 
CPU  0 inst:  119000001 cyc:   82061020 now IPC :1.45646: AVG IPC :1.44294: L2-Pf-HR :0.62564: L2-HR :0.61355: (Sim:0h8m57s) 
CPU  0 inst:  120000000 cyc:   82726017 now IPC :1.50376: AVG IPC :1.44343: L2-Pf-HR :0.62633: L2-HR :0.61393: (Sim:0h9m2s) 
CPU  0 inst:  121000002 cyc:   83407485 now IPC :1.46742: AVG IPC :1.44363: L2-Pf-HR :0.62654: L2-HR :0.61397: (Sim:0h9m7s) 
CPU  0 inst:  122000000 cyc:   84111242 now IPC :1.42094: AVG IPC :1.44344: L2-Pf-HR :0.62751: L2-HR :0.61468: (Sim:0h9m12s) 
CPU  0 inst:  123000001 cyc:   84874382 now IPC :1.31038: AVG IPC :1.44223: L2-Pf-HR :0.62664: L2-HR :0.61431: (Sim:0h9m17s) 
CPU  0 inst:  124000000 cyc:   85548672 now IPC :1.48304: AVG IPC :1.44256: L2-Pf-HR :0.62600: L2-HR :0.61382: (Sim:0h9m21s) 
CPU  0 inst:  125000001 cyc:   86197135 now IPC :1.54211: AVG IPC :1.44331: L2-Pf-HR :0.62646: L2-HR :0.61408: (Sim:0h9m26s) 
CPU  0 inst:  126000002 cyc:   86850276 now IPC :1.53106: AVG IPC :1.44398: L2-Pf-HR :0.62646: L2-HR :0.61402: (Sim:0h9m31s) 
CPU  0 inst:  127000003 cyc:   87546822 now IPC :1.43566: AVG IPC :1.44391: L2-Pf-HR :0.62719: L2-HR :0.61455: (Sim:0h9m36s) 
CPU  0 inst:  128000000 cyc:   88309632 now IPC :1.31094: AVG IPC :1.44275: L2-Pf-HR :0.62605: L2-HR :0.61397: (Sim:0h9m41s) 
CPU  0 inst:  129000000 cyc:   88976519 now IPC :1.49950: AVG IPC :1.44318: L2-Pf-HR :0.62563: L2-HR :0.61360: (Sim:0h9m44s) 
CPU  0 inst:  130000001 cyc:   89653764 now IPC :1.47657: AVG IPC :1.44344: L2-Pf-HR :0.62616: L2-HR :0.61389: (Sim:0h9m47s) 
CPU  0 inst:  131000002 cyc:   90337772 now IPC :1.46197: AVG IPC :1.44358: L2-Pf-HR :0.62639: L2-HR :0.61397: (Sim:0h9m50s) 
CPU  0 inst:  132000000 cyc:   91039212 now IPC :1.42564: AVG IPC :1.44344: L2-Pf-HR :0.62719: L2-HR :0.61447: (Sim:0h9m53s) 
CPU  0 inst:  133000002 cyc:   91801721 now IPC :1.31146: AVG IPC :1.44233: L2-Pf-HR :0.62642: L2-HR :0.61415: (Sim:0h9m57s) 
CPU  0 inst:  134000000 cyc:   92469367 now IPC :1.49780: AVG IPC :1.44274: L2-Pf-HR :0.62608: L2-HR :0.61383: (Sim:0h10m0s) 
CPU  0 inst:  135000000 cyc:   93142773 now IPC :1.48499: AVG IPC :1.44305: L2-Pf-HR :0.62615: L2-HR :0.61383: (Sim:0h10m3s) 
CPU  0 inst:  136000000 cyc:   93811206 now IPC :1.49604: AVG IPC :1.44343: L2-Pf-HR :0.62632: L2-HR :0.61390: (Sim:0h10m6s) 
CPU  0 inst:  137000001 cyc:   94501942 now IPC :1.44773: AVG IPC :1.44346: L2-Pf-HR :0.62680: L2-HR :0.61421: (Sim:0h10m9s) 
CPU  0 inst:  138000002 cyc:   95274628 now IPC :1.29419: AVG IPC :1.44224: L2-Pf-HR :0.62629: L2-HR :0.61405: (Sim:0h10m12s) 
CPU  0 inst:  139000000 cyc:   95964102 now IPC :1.45038: AVG IPC :1.44229: L2-Pf-HR :0.62583: L2-HR :0.61367: (Sim:0h10m15s) 
CPU  0 inst:  140000000 cyc:   96640838 now IPC :1.47768: AVG IPC :1.44254: L2-Pf-HR :0.62577: L2-HR :0.61357: (Sim:0h10m18s) 
CPU  0 inst:  141000001 cyc:   97303897 now IPC :1.50816: AVG IPC :1.44300: L2-Pf-HR :0.62602: L2-HR :0.61369: (Sim:0h10m21s) 
CPU  0 inst:  142000001 cyc:   98019645 now IPC :1.39714: AVG IPC :1.44266: L2-Pf-HR :0.62649: L2-HR :0.61395: (Sim:0h10m25s) 
CPU  0 inst:  143000003 cyc:   98789292 now IPC :1.29930: AVG IPC :1.44153: L2-Pf-HR :0.62603: L2-HR :0.61380: (Sim:0h10m28s) 
CPU  0 inst:  144000000 cyc:   99457305 now IPC :1.49697: AVG IPC :1.44191: L2-Pf-HR :0.62581: L2-HR :0.61357: (Sim:0h10m31s) 
CPU  0 inst:  145000002 cyc:  100137117 now IPC :1.47100: AVG IPC :1.44211: L2-Pf-HR :0.62603: L2-HR :0.61368: (Sim:0h10m35s) 
CPU  0 inst:  146000001 cyc:  100800198 now IPC :1.50811: AVG IPC :1.44254: L2-Pf-HR :0.62635: L2-HR :0.61386: (Sim:0h10m38s) 
CPU  0 inst:  147000003 cyc:  101518442 now IPC :1.39229: AVG IPC :1.44219: L2-Pf-HR :0.62663: L2-HR :0.61404: (Sim:0h10m41s) 
CPU  0 inst:  148000000 cyc:  102293258 now IPC :1.29063: AVG IPC :1.44103: L2-Pf-HR :0.62610: L2-HR :0.61392: (Sim:0h10m44s) 
CPU  0 inst:  149000001 cyc:  102945319 now IPC :1.53360: AVG IPC :1.44162: L2-Pf-HR :0.62585: L2-HR :0.61368: (Sim:0h10m47s) 
CPU  0 inst:  150000003 cyc:  103606904 now IPC :1.51152: AVG IPC :1.44207: L2-Pf-HR :0.62587: L2-HR :0.61365: (Sim:0h10m51s) 
CPU  0 inst:  151000002 cyc:  104277617 now IPC :1.49095: AVG IPC :1.44239: L2-Pf-HR :0.62611: L2-HR :0.61377: (Sim:0h10m54s) 
CPU  0 inst:  152000000 cyc:  104971286 now IPC :1.44161: AVG IPC :1.44238: L2-Pf-HR :0.62641: L2-HR :0.61394: (Sim:0h10m57s) 
CPU  0 inst:  153000000 cyc:  105736370 now IPC :1.30705: AVG IPC :1.44139: L2-Pf-HR :0.62628: L2-HR :0.61401: (Sim:0h11m0s) 
CPU  0 inst:  154000002 cyc:  106410914 now IPC :1.48249: AVG IPC :1.44166: L2-Pf-HR :0.62579: L2-HR :0.61361: (Sim:0h11m3s) 
CPU  0 inst:  155000001 cyc:  107086171 now IPC :1.48092: AVG IPC :1.44191: L2-Pf-HR :0.62563: L2-HR :0.61346: (Sim:0h11m6s) 
CPU  0 inst:  156000000 cyc:  107768410 now IPC :1.46576: AVG IPC :1.44206: L2-Pf-HR :0.62595: L2-HR :0.61361: (Sim:0h11m9s) 
CPU  0 inst:  157000003 cyc:  108461892 now IPC :1.44200: AVG IPC :1.44206: L2-Pf-HR :0.62614: L2-HR :0.61371: (Sim:0h11m12s) 
CPU  0 inst:  158000002 cyc:  109202906 now IPC :1.34950: AVG IPC :1.44142: L2-Pf-HR :0.62633: L2-HR :0.61402: (Sim:0h11m15s) 
CPU  0 inst:  159000000 cyc:  109906991 now IPC :1.42028: AVG IPC :1.44129: L2-Pf-HR :0.62588: L2-HR :0.61365: (Sim:0h11m18s) 
CPU  0 inst:  160000000 cyc:  110588418 now IPC :1.46751: AVG IPC :1.44145: L2-Pf-HR :0.62554: L2-HR :0.61338: (Sim:0h11m22s) 
CPU  0 inst:  161000001 cyc:  111252929 now IPC :1.50487: AVG IPC :1.44183: L2-Pf-HR :0.62589: L2-HR :0.61357: (Sim:0h11m25s) 
CPU  0 inst:  162000001 cyc:  111959064 now IPC :1.41616: AVG IPC :1.44167: L2-Pf-HR :0.62586: L2-HR :0.61352: (Sim:0h11m29s) 
CPU  0 inst:  163000002 cyc:  112621204 now IPC :1.51026: AVG IPC :1.44208: L2-Pf-HR :0.62677: L2-HR :0.61412: (Sim:0h11m33s) 
CPU  0 inst:  164000000 cyc:  118775341 now IPC :0.16249: AVG IPC :1.37523: L2-Pf-HR :0.60763: L2-HR :0.60899: (Sim:0h11m49s) 
CPU  0 inst:  165000002 cyc:  125321329 now IPC :0.15277: AVG IPC :1.31087: L2-Pf-HR :0.58851: L2-HR :0.60424: (Sim:0h12m6s) 
CPU  0 inst:  166000001 cyc:  131864837 now IPC :0.15282: AVG IPC :1.25298: L2-Pf-HR :0.57057: L2-HR :0.59990: (Sim:0h12m23s) 
CPU  0 inst:  167000000 cyc:  138407754 now IPC :0.15284: AVG IPC :1.20060: L2-Pf-HR :0.55372: L2-HR :0.59593: (Sim:0h12m41s) 
CPU  0 inst:  168000000 cyc:  144312862 now IPC :0.16934: AVG IPC :1.15812: L2-Pf-HR :0.54097: L2-HR :0.59275: (Sim:0h12m56s) 
CPU  0 inst:  169000000 cyc:  147840236 now IPC :0.28350: AVG IPC :1.13711: L2-Pf-HR :0.53950: L2-HR :0.59187: (Sim:0h13m6s) 
CPU  0 inst:  170000000 cyc:  151367118 now IPC :0.28354: AVG IPC :1.11709: L2-Pf-HR :0.53801: L2-HR :0.59101: (Sim:0h13m15s) 
CPU  0 inst:  171000000 cyc:  154894136 now IPC :0.28353: AVG IPC :1.09799: L2-Pf-HR :0.53648: L2-HR :0.59017: (Sim:0h13m25s) 
CPU  0 inst:  172000000 cyc:  158421548 now IPC :0.28349: AVG IPC :1.07974: L2-Pf-HR :0.53499: L2-HR :0.58933: (Sim:0h13m35s) 
CPU  0 inst:  173000002 cyc:  161948419 now IPC :0.28354: AVG IPC :1.06230: L2-Pf-HR :0.53348: L2-HR :0.58850: (Sim:0h13m44s) 
CPU  0 inst:  174000002 cyc:  165475167 now IPC :0.28355: AVG IPC :1.04560: L2-Pf-HR :0.53202: L2-HR :0.58768: (Sim:0h13m53s) 
CPU  0 inst:  175000001 cyc:  169001265 now IPC :0.28360: AVG IPC :1.02961: L2-Pf-HR :0.53056: L2-HR :0.58687: (Sim:0h14m3s) 
CPU  0 inst:  176000000 cyc:  172527968 now IPC :0.28355: AVG IPC :1.01427: L2-Pf-HR :0.52910: L2-HR :0.58606: (Sim:0h14m13s) 
CPU  0 inst:  177000000 cyc:  176054831 now IPC :0.28354: AVG IPC :0.99955: L2-Pf-HR :0.52764: L2-HR :0.58526: (Sim:0h14m23s) 
CPU  0 inst:  178000000 cyc:  179581778 now IPC :0.28353: AVG IPC :0.98541: L2-Pf-HR :0.52622: L2-HR :0.58447: (Sim:0h14m33s) 
CPU  0 inst:  179000000 cyc:  183109233 now IPC :0.28349: AVG IPC :0.97182: L2-Pf-HR :0.52479: L2-HR :0.58369: (Sim:0h14m43s) 
CPU  0 inst:  180000000 cyc:  186636375 now IPC :0.28352: AVG IPC :0.95874: L2-Pf-HR :0.52339: L2-HR :0.58291: (Sim:0h14m53s) 
CPU  0 inst:  181000002 cyc:  190163406 now IPC :0.28353: AVG IPC :0.94615: L2-Pf-HR :0.52199: L2-HR :0.58214: (Sim:0h15m2s) 
CPU  0 inst:  182000002 cyc:  193690614 now IPC :0.28351: AVG IPC :0.93403: L2-Pf-HR :0.52061: L2-HR :0.58138: (Sim:0h15m11s) 
CPU  0 inst:  183000002 cyc:  197217939 now IPC :0.28350: AVG IPC :0.92233: L2-Pf-HR :0.51927: L2-HR :0.58063: (Sim:0h15m17s) 
CPU  0 inst:  184000000 cyc:  200744431 now IPC :0.28357: AVG IPC :0.91106: L2-Pf-HR :0.51793: L2-HR :0.57988: (Sim:0h15m23s) 
CPU  0 inst:  185000000 cyc:  204270409 now IPC :0.28361: AVG IPC :0.90017: L2-Pf-HR :0.51661: L2-HR :0.57914: (Sim:0h15m29s) 
CPU  0 inst:  186000002 cyc:  207797229 now IPC :0.28354: AVG IPC :0.88966: L2-Pf-HR :0.51525: L2-HR :0.57841: (Sim:0h15m35s) 
CPU  0 inst:  187000000 cyc:  211324502 now IPC :0.28350: AVG IPC :0.87950: L2-Pf-HR :0.51392: L2-HR :0.57768: (Sim:0h15m41s) 
CPU  0 inst:  188000000 cyc:  214851422 now IPC :0.28353: AVG IPC :0.86967: L2-Pf-HR :0.51262: L2-HR :0.57696: (Sim:0h15m47s) 
CPU  0 inst:  189000002 cyc:  218378460 now IPC :0.28352: AVG IPC :0.86016: L2-Pf-HR :0.51132: L2-HR :0.57624: (Sim:0h15m53s) 
CPU  0 inst:  190000002 cyc:  221905902 now IPC :0.28349: AVG IPC :0.85095: L2-Pf-HR :0.51005: L2-HR :0.57554: (Sim:0h15m59s) 
CPU  0 inst:  191000002 cyc:  225432762 now IPC :0.28354: AVG IPC :0.84204: L2-Pf-HR :0.50877: L2-HR :0.57483: (Sim:0h16m5s) 
CPU  0 inst:  192000000 cyc:  228959817 now IPC :0.28352: AVG IPC :0.83339: L2-Pf-HR :0.50754: L2-HR :0.57414: (Sim:0h16m11s) 
CPU  0 inst:  193000001 cyc:  232487248 now IPC :0.28349: AVG IPC :0.82502: L2-Pf-HR :0.50633: L2-HR :0.57345: (Sim:0h16m18s) 
CPU  0 inst:  194000000 cyc:  236013534 now IPC :0.28358: AVG IPC :0.81689: L2-Pf-HR :0.50513: L2-HR :0.57277: (Sim:0h16m24s) 
CPU  0 inst:  195000001 cyc:  239539206 now IPC :0.28363: AVG IPC :0.80901: L2-Pf-HR :0.50386: L2-HR :0.57209: (Sim:0h16m32s) 
CPU  0 inst:  196000000 cyc:  243066096 now IPC :0.28354: AVG IPC :0.80136: L2-Pf-HR :0.50264: L2-HR :0.57142: (Sim:0h16m41s) 
CPU  0 inst:  197000002 cyc:  246593567 now IPC :0.28349: AVG IPC :0.79392: L2-Pf-HR :0.50147: L2-HR :0.57075: (Sim:0h16m50s) 
CPU  0 inst:  198000002 cyc:  250120728 now IPC :0.28351: AVG IPC :0.78669: L2-Pf-HR :0.50026: L2-HR :0.57009: (Sim:0h16m59s) 
CPU  0 inst:  199000002 cyc:  253647734 now IPC :0.28353: AVG IPC :0.77967: L2-Pf-HR :0.49907: L2-HR :0.56944: (Sim:0h17m8s) 
CPU  0 inst:  200000000 cyc:  257174939 now IPC :0.28351: AVG IPC :0.77284: L2-Pf-HR :0.49790: L2-HR :0.56879: (Sim:0h17m17s) 
CPU  0 inst:  201000001 cyc:  260702272 now IPC :0.28350: AVG IPC :0.76619: L2-Pf-HR :0.49676: L2-HR :0.56815: (Sim:0h17m26s) 
CPU  0 inst:  202000000 cyc:  264229201 now IPC :0.28353: AVG IPC :0.75973: L2-Pf-HR :0.49562: L2-HR :0.56751: (Sim:0h17m35s) 
CPU  0 inst:  203000002 cyc:  267756269 now IPC :0.28352: AVG IPC :0.75343: L2-Pf-HR :0.49450: L2-HR :0.56688: (Sim:0h17m44s) 
CPU  0 inst:  204000000 cyc:  271282657 now IPC :0.28358: AVG IPC :0.74730: L2-Pf-HR :0.49338: L2-HR :0.56626: (Sim:0h17m53s) 
CPU  0 inst:  205000002 cyc:  274808898 now IPC :0.28359: AVG IPC :0.74133: L2-Pf-HR :0.49225: L2-HR :0.56563: (Sim:0h18m3s) 
CPU  0 inst:  206000002 cyc:  278335780 now IPC :0.28354: AVG IPC :0.73551: L2-Pf-HR :0.49113: L2-HR :0.56502: (Sim:0h18m12s) 
CPU  0 inst:  207000002 cyc:  281862802 now IPC :0.28353: AVG IPC :0.72983: L2-Pf-HR :0.49004: L2-HR :0.56441: (Sim:0h18m18s) 
CPU  0 inst:  208000000 cyc:  285390244 now IPC :0.28349: AVG IPC :0.72430: L2-Pf-HR :0.48896: L2-HR :0.56380: (Sim:0h18m24s) 
CPU  0 inst:  209000001 cyc:  288917125 now IPC :0.28354: AVG IPC :0.71890: L2-Pf-HR :0.48789: L2-HR :0.56320: (Sim:0h18m30s) 
CPU  0 inst:  210000000 cyc:  292444152 now IPC :0.28352: AVG IPC :0.71363: L2-Pf-HR :0.48684: L2-HR :0.56260: (Sim:0h18m36s) 
CPU  0 inst:  211000000 cyc:  295971532 now IPC :0.28350: AVG IPC :0.70849: L2-Pf-HR :0.48579: L2-HR :0.56201: (Sim:0h18m42s) 
CPU  0 inst:  212000000 cyc:  299498372 now IPC :0.28354: AVG IPC :0.70347: L2-Pf-HR :0.48474: L2-HR :0.56143: (Sim:0h18m48s) 
CPU  0 inst:  213000002 cyc:  303025098 now IPC :0.28355: AVG IPC :0.69856: L2-Pf-HR :0.48369: L2-HR :0.56085: (Sim:0h18m54s) 
CPU  0 inst:  214000000 cyc:  306551574 now IPC :0.28357: AVG IPC :0.69377: L2-Pf-HR :0.48265: L2-HR :0.56027: (Sim:0h19m4s) 
CPU  0 inst:  215000000 cyc:  310077987 now IPC :0.28357: AVG IPC :0.68909: L2-Pf-HR :0.48161: L2-HR :0.55970: (Sim:0h19m13s) 
CPU  0 inst:  216000000 cyc:  313605090 now IPC :0.28352: AVG IPC :0.68452: L2-Pf-HR :0.48060: L2-HR :0.55913: (Sim:0h19m22s) 
CPU  0 inst:  217000001 cyc:  317132114 now IPC :0.28353: AVG IPC :0.68005: L2-Pf-HR :0.47957: L2-HR :0.55856: (Sim:0h19m31s) 
CPU  0 inst:  218000000 cyc:  320659287 now IPC :0.28351: AVG IPC :0.67567: L2-Pf-HR :0.47853: L2-HR :0.55801: (Sim:0h19m40s) 
CPU  0 inst:  219000000 cyc:  324186570 now IPC :0.28350: AVG IPC :0.67139: L2-Pf-HR :0.47755: L2-HR :0.55745: (Sim:0h19m50s) 
CPU  0 inst:  220000000 cyc:  327713496 now IPC :0.28353: AVG IPC :0.66720: L2-Pf-HR :0.47655: L2-HR :0.55690: (Sim:0h19m59s) 
CPU  0 inst:  221000001 cyc:  331240728 now IPC :0.28351: AVG IPC :0.66311: L2-Pf-HR :0.47555: L2-HR :0.55636: (Sim:0h20m8s) 
CPU  0 inst:  222000002 cyc:  334768106 now IPC :0.28350: AVG IPC :0.65909: L2-Pf-HR :0.47457: L2-HR :0.55582: (Sim:0h20m17s) 
CPU  0 inst:  223000002 cyc:  338294875 now IPC :0.28355: AVG IPC :0.65517: L2-Pf-HR :0.47362: L2-HR :0.55528: (Sim:0h20m27s) 
CPU  0 inst:  224000000 cyc:  341820460 now IPC :0.28364: AVG IPC :0.65132: L2-Pf-HR :0.47266: L2-HR :0.55475: (Sim:0h20m36s) 
CPU  0 inst:  225000002 cyc:  345347535 now IPC :0.28352: AVG IPC :0.64756: L2-Pf-HR :0.47172: L2-HR :0.55422: (Sim:0h20m45s) 
CPU  0 inst:  226000000 cyc:  348874584 now IPC :0.28352: AVG IPC :0.64387: L2-Pf-HR :0.47076: L2-HR :0.55369: (Sim:0h20m55s) 
CPU  0 inst:  227000000 cyc:  352401404 now IPC :0.28354: AVG IPC :0.64025: L2-Pf-HR :0.46981: L2-HR :0.55317: (Sim:0h21m4s) 
CPU  0 inst:  228000000 cyc:  355928427 now IPC :0.28353: AVG IPC :0.63671: L2-Pf-HR :0.46886: L2-HR :0.55266: (Sim:0h21m13s) 
CPU  0 inst:  229000001 cyc:  359455868 now IPC :0.28349: AVG IPC :0.63323: L2-Pf-HR :0.46792: L2-HR :0.55214: (Sim:0h21m22s) 
CPU  0 inst:  230000002 cyc:  362982718 now IPC :0.28354: AVG IPC :0.62982: L2-Pf-HR :0.46702: L2-HR :0.55164: (Sim:0h21m32s) 
CPU  0 inst:  231000002 cyc:  366509725 now IPC :0.28353: AVG IPC :0.62648: L2-Pf-HR :0.46614: L2-HR :0.55113: (Sim:0h21m41s) 
CPU  0 inst:  232000000 cyc:  370037181 now IPC :0.28349: AVG IPC :0.62320: L2-Pf-HR :0.46523: L2-HR :0.55063: (Sim:0h21m50s) 
CPU  0 inst:  233000003 cyc:  371213655 now IPC :0.85000: AVG IPC :0.62392: L2-Pf-HR :0.46354: L2-HR :0.54956: (Sim:0h21m56s) 
CPU  0 inst:  234000001 cyc:  371812567 now IPC :1.66969: AVG IPC :0.62561: L2-Pf-HR :0.46291: L2-HR :0.54906: (Sim:0h22m0s) 
CPU  0 inst:  235000001 cyc:  372463225 now IPC :1.53691: AVG IPC :0.62721: L2-Pf-HR :0.46233: L2-HR :0.54864: (Sim:0h22m5s) 
CPU  0 inst:  236000000 cyc:  373037941 now IPC :1.73999: AVG IPC :0.62893: L2-Pf-HR :0.46220: L2-HR :0.54836: (Sim:0h22m9s) 
CPU  0 inst:  237000001 cyc:  373648269 now IPC :1.63846: AVG IPC :0.63058: L2-Pf-HR :0.46220: L2-HR :0.54827: (Sim:0h22m14s) 
CPU  0 inst:  238000002 cyc:  374316292 now IPC :1.49696: AVG IPC :0.63213: L2-Pf-HR :0.46167: L2-HR :0.54799: (Sim:0h22m18s) 
CPU  0 inst:  239000001 cyc:  374838054 now IPC :1.91658: AVG IPC :0.63392: L2-Pf-HR :0.46064: L2-HR :0.54724: (Sim:0h22m22s) 
CPU  0 inst:  240000000 cyc:  375470201 now IPC :1.58191: AVG IPC :0.63552: L2-Pf-HR :0.45998: L2-HR :0.54689: (Sim:0h22m27s) 
CPU  0 inst:  241000003 cyc:  375975416 now IPC :1.97936: AVG IPC :0.63734: L2-Pf-HR :0.45926: L2-HR :0.54632: (Sim:0h22m31s) 
CPU  0 inst:  242000001 cyc:  376588456 now IPC :1.63121: AVG IPC :0.63896: L2-Pf-HR :0.45885: L2-HR :0.54602: (Sim:0h22m36s) 
CPU  0 inst:  243000001 cyc:  377135421 now IPC :1.82827: AVG IPC :0.64069: L2-Pf-HR :0.45862: L2-HR :0.54580: (Sim:0h22m40s) 
CPU  0 inst:  244000000 cyc:  377761960 now IPC :1.59607: AVG IPC :0.64228: L2-Pf-HR :0.45759: L2-HR :0.54523: (Sim:0h22m45s) 
CPU  0 inst:  245000000 cyc:  378327071 now IPC :1.76956: AVG IPC :0.64396: L2-Pf-HR :0.45669: L2-HR :0.54459: (Sim:0h22m49s) 
CPU  0 inst:  246000002 cyc:  378914443 now IPC :1.70250: AVG IPC :0.64561: L2-Pf-HR :0.45591: L2-HR :0.54413: (Sim:0h22m54s) 
CPU  0 inst:  247000003 cyc:  379463939 now IPC :1.81985: AVG IPC :0.64731: L2-Pf-HR :0.45502: L2-HR :0.54347: (Sim:0h22m58s) 
CPU  0 inst:  248000000 cyc:  380028259 now IPC :1.77204: AVG IPC :0.64899: L2-Pf-HR :0.45488: L2-HR :0.54335: (Sim:0h23m3s) 
CPU  0 inst:  249000003 cyc:  380688557 now IPC :1.51447: AVG IPC :0.65049: L2-Pf-HR :0.45428: L2-HR :0.54304: (Sim:0h23m7s) 
CPU  0 inst:  250000002 cyc:  381202388 now IPC :1.94616: AVG IPC :0.65224: L2-Pf-HR :0.45334: L2-HR :0.54238: (Sim:0h23m11s) 
CPU  0 inst:  251000002 cyc:  381845962 now IPC :1.55382: AVG IPC :0.65377: L2-Pf-HR :0.45264: L2-HR :0.54198: (Sim:0h23m16s) 
CPU  0 inst:  252000000 cyc:  382350374 now IPC :1.98250: AVG IPC :0.65552: L2-Pf-HR :0.45179: L2-HR :0.54135: (Sim:0h23m20s) 
CPU  0 inst:  253000000 cyc:  382957685 now IPC :1.64660: AVG IPC :0.65710: L2-Pf-HR :0.45137: L2-HR :0.54105: (Sim:0h23m24s) 
CPU  0 inst:  254000001 cyc:  383504631 now IPC :1.82834: AVG IPC :0.65878: L2-Pf-HR :0.45089: L2-HR :0.54069: (Sim:0h23m27s) 
CPU  0 inst:  255000002 cyc:  384128426 now IPC :1.60309: AVG IPC :0.66031: L2-Pf-HR :0.45015: L2-HR :0.54027: (Sim:0h23m30s) 
CPU  0 inst:  256000000 cyc:  384693093 now IPC :1.77095: AVG IPC :0.66195: L2-Pf-HR :0.44922: L2-HR :0.53960: (Sim:0h23m33s) 
CPU  0 inst:  257000002 cyc:  385273747 now IPC :1.72220: AVG IPC :0.66355: L2-Pf-HR :0.44856: L2-HR :0.53923: (Sim:0h23m38s) 
CPU  0 inst:  258000000 cyc:  385824292 now IPC :1.81638: AVG IPC :0.66520: L2-Pf-HR :0.44753: L2-HR :0.53849: (Sim:0h23m42s) 
CPU  0 inst:  259000003 cyc:  386385618 now IPC :1.78150: AVG IPC :0.66682: L2-Pf-HR :0.44745: L2-HR :0.53843: (Sim:0h23m47s) 
CPU  0 inst:  260000000 cyc:  387045679 now IPC :1.51501: AVG IPC :0.66827: L2-Pf-HR :0.44693: L2-HR :0.53815: (Sim:0h23m51s) 
CPU  0 inst:  261000003 cyc:  387560699 now IPC :1.94168: AVG IPC :0.66997: L2-Pf-HR :0.44606: L2-HR :0.53753: (Sim:0h23m55s) 
CPU  0 inst:  262000001 cyc:  388202346 now IPC :1.55849: AVG IPC :0.67144: L2-Pf-HR :0.44550: L2-HR :0.53721: (Sim:0h24m0s) 
CPU  0 inst:  263000003 cyc:  388705927 now IPC :1.98578: AVG IPC :0.67315: L2-Pf-HR :0.44470: L2-HR :0.53661: (Sim:0h24m4s) 
CPU  0 inst:  264000000 cyc:  389303949 now IPC :1.67217: AVG IPC :0.67469: L2-Pf-HR :0.44435: L2-HR :0.53635: (Sim:0h24m9s) 
CPU  0 inst:  265000002 cyc:  389859460 now IPC :1.80015: AVG IPC :0.67630: L2-Pf-HR :0.44372: L2-HR :0.53589: (Sim:0h24m13s) 
CPU  0 inst:  266000000 cyc:  390485902 now IPC :1.59631: AVG IPC :0.67778: L2-Pf-HR :0.44312: L2-HR :0.53558: (Sim:0h24m18s) 
CPU  0 inst:  267000002 cyc:  391050995 now IPC :1.76962: AVG IPC :0.67936: L2-Pf-HR :0.44208: L2-HR :0.53485: (Sim:0h24m22s) 
CPU  0 inst:  268000000 cyc:  391634968 now IPC :1.71240: AVG IPC :0.68090: L2-Pf-HR :0.44170: L2-HR :0.53463: (Sim:0h24m27s) 
CPU  0 inst:  269000000 cyc:  392186472 now IPC :1.81322: AVG IPC :0.68250: L2-Pf-HR :0.44067: L2-HR :0.53390: (Sim:0h24m31s) 
CPU  0 inst:  270000002 cyc:  392747504 now IPC :1.78243: AVG IPC :0.68407: L2-Pf-HR :0.44065: L2-HR :0.53386: (Sim:0h24m36s) 
CPU  0 inst:  271000001 cyc:  393411784 now IPC :1.50539: AVG IPC :0.68546: L2-Pf-HR :0.44025: L2-HR :0.53367: (Sim:0h24m41s) 
CPU  0 inst:  272000000 cyc:  393926619 now IPC :1.94237: AVG IPC :0.68711: L2-Pf-HR :0.43947: L2-HR :0.53309: (Sim:0h24m45s) 
CPU  0 inst:  273000003 cyc:  394541725 now IPC :1.62574: AVG IPC :0.68858: L2-Pf-HR :0.43917: L2-HR :0.53290: (Sim:0h24m49s) 
CPU  0 inst:  274000002 cyc:  395078916 now IPC :1.86153: AVG IPC :0.69018: L2-Pf-HR :0.43810: L2-HR :0.53218: (Sim:0h24m54s) 
CPU  0 inst:  275000001 cyc:  395624120 now IPC :1.83417: AVG IPC :0.69176: L2-Pf-HR :0.43788: L2-HR :0.53196: (Sim:0h24m58s) 
CPU  0 inst:  276000000 cyc:  396200324 now IPC :1.73549: AVG IPC :0.69328: L2-Pf-HR :0.43719: L2-HR :0.53150: (Sim:0h25m3s) 
CPU  0 inst:  277000002 cyc:  396858246 now IPC :1.51994: AVG IPC :0.69465: L2-Pf-HR :0.43670: L2-HR :0.53125: (Sim:0h25m7s) 
CPU  0 inst:  278000001 cyc:  397421372 now IPC :1.77580: AVG IPC :0.69619: L2-Pf-HR :0.43571: L2-HR :0.53054: (Sim:0h25m12s) 
CPU  0 inst:  279000000 cyc:  398009494 now IPC :1.70033: AVG IPC :0.69768: L2-Pf-HR :0.43542: L2-HR :0.53038: (Sim:0h25m16s) 
CPU  0 inst:  280000000 cyc:  398536412 now IPC :1.89783: AVG IPC :0.69927: L2-Pf-HR :0.43451: L2-HR :0.52970: (Sim:0h25m20s) 
CPU  0 inst:  281000002 cyc:  399125319 now IPC :1.69806: AVG IPC :0.70074: L2-Pf-HR :0.43432: L2-HR :0.52958: (Sim:0h25m25s) 
CPU  0 inst:  282000001 cyc:  399716103 now IPC :1.69266: AVG IPC :0.70221: L2-Pf-HR :0.43422: L2-HR :0.52952: (Sim:0h25m29s) 
CPU  0 inst:  283000001 cyc:  400296372 now IPC :1.72334: AVG IPC :0.70370: L2-Pf-HR :0.43331: L2-HR :0.52890: (Sim:0h25m34s) 
CPU  0 inst:  284000000 cyc:  400858566 now IPC :1.77874: AVG IPC :0.70521: L2-Pf-HR :0.43318: L2-HR :0.52874: (Sim:0h25m38s) 
CPU  0 inst:  285000001 cyc:  401444774 now IPC :1.70588: AVG IPC :0.70667: L2-Pf-HR :0.43209: L2-HR :0.52806: (Sim:0h25m43s) 
CPU  0 inst:  286000002 cyc:  401986049 now IPC :1.84749: AVG IPC :0.70821: L2-Pf-HR :0.43164: L2-HR :0.52772: (Sim:0h25m47s) 
CPU  0 inst:  287000000 cyc:  402557143 now IPC :1.75102: AVG IPC :0.70970: L2-Pf-HR :0.43121: L2-HR :0.52743: (Sim:0h25m51s) 
CPU  0 inst:  288000000 cyc:  403220056 now IPC :1.50849: AVG IPC :0.71101: L2-Pf-HR :0.43072: L2-HR :0.52717: (Sim:0h25m56s) 
CPU  0 inst:  289000000 cyc:  403748319 now IPC :1.89300: AVG IPC :0.71256: L2-Pf-HR :0.42983: L2-HR :0.52651: (Sim:0h26m0s) 
CPU  0 inst:  290000000 cyc:  404372639 now IPC :1.60174: AVG IPC :0.71394: L2-Pf-HR :0.42942: L2-HR :0.52630: (Sim:0h26m4s) 
CPU  0 inst:  291000001 cyc:  404888375 now IPC :1.93898: AVG IPC :0.71550: L2-Pf-HR :0.42852: L2-HR :0.52563: (Sim:0h26m8s) 
CPU  0 inst:  292000000 cyc:  405487609 now IPC :1.66880: AVG IPC :0.71691: L2-Pf-HR :0.42837: L2-HR :0.52552: (Sim:0h26m11s) 
CPU  0 inst:  293000003 cyc:  406031681 now IPC :1.83800: AVG IPC :0.71842: L2-Pf-HR :0.42826: L2-HR :0.52542: (Sim:0h26m14s) 
CPU  0 inst:  294000003 cyc:  406660247 now IPC :1.59092: AVG IPC :0.71977: L2-Pf-HR :0.42736: L2-HR :0.52485: (Sim:0h26m17s) 
CPU  0 inst:  295000000 cyc:  407218112 now IPC :1.79254: AVG IPC :0.72125: L2-Pf-HR :0.42694: L2-HR :0.52453: (Sim:0h26m20s) 
CPU  0 inst:  296000000 cyc:  407808805 now IPC :1.69293: AVG IPC :0.72266: L2-Pf-HR :0.42614: L2-HR :0.52406: (Sim:0h26m25s) 
CPU  0 inst:  297000001 cyc:  408357272 now IPC :1.82327: AVG IPC :0.72414: L2-Pf-HR :0.42560: L2-HR :0.52364: (Sim:0h26m29s) 
CPU  0 inst:  298000000 cyc:  408925954 now IPC :1.75845: AVG IPC :0.72558: L2-Pf-HR :0.42532: L2-HR :0.52344: (Sim:0h26m33s) 
CPU  0 inst:  299000003 cyc:  409589675 now IPC :1.50666: AVG IPC :0.72685: L2-Pf-HR :0.42493: L2-HR :0.52324: (Sim:0h26m38s) 
CPU  0 inst:  300000000 cyc:  410111632 now IPC :1.91586: AVG IPC :0.72837: L2-Pf-HR :0.42414: L2-HR :0.52265: (Sim:0h26m42s) 
CPU  0 inst:  301000003 cyc:  410741810 now IPC :1.58686: AVG IPC :0.72969: L2-Pf-HR :0.42381: L2-HR :0.52248: (Sim:0h26m47s) 
CPU  0 inst:  302000000 cyc:  411245782 now IPC :1.98423: AVG IPC :0.73123: L2-Pf-HR :0.42308: L2-HR :0.52193: (Sim:0h26m51s) 
CPU  0 inst:  303000000 cyc:  411850740 now IPC :1.65301: AVG IPC :0.73258: L2-Pf-HR :0.42285: L2-HR :0.52176: (Sim:0h26m55s) 
CPU  0 inst:  304000000 cyc:  412397203 now IPC :1.82995: AVG IPC :0.73404: L2-Pf-HR :0.42263: L2-HR :0.52158: (Sim:0h27m0s) 
CPU  0 inst:  305000002 cyc:  413021710 now IPC :1.60127: AVG IPC :0.73536: L2-Pf-HR :0.42188: L2-HR :0.52114: (Sim:0h27m4s) 
CPU  0 inst:  306000003 cyc:  413585785 now IPC :1.77282: AVG IPC :0.73677: L2-Pf-HR :0.42135: L2-HR :0.52073: (Sim:0h27m9s) 
CPU  0 inst:  307000002 cyc:  414164241 now IPC :1.72874: AVG IPC :0.73816: L2-Pf-HR :0.42084: L2-HR :0.52042: (Sim:0h27m13s) 
CPU  0 inst:  308000000 cyc:  414711830 now IPC :1.82618: AVG IPC :0.73960: L2-Pf-HR :0.42026: L2-HR :0.51997: (Sim:0h27m17s) 
CPU  0 inst:  309000001 cyc:  415280615 now IPC :1.75814: AVG IPC :0.74100: L2-Pf-HR :0.42015: L2-HR :0.51986: (Sim:0h27m22s) 
CPU  0 inst:  310000003 cyc:  415938275 now IPC :1.52055: AVG IPC :0.74224: L2-Pf-HR :0.41981: L2-HR :0.51969: (Sim:0h27m26s) 
CPU  0 inst:  311000000 cyc:  416451375 now IPC :1.94893: AVG IPC :0.74373: L2-Pf-HR :0.41914: L2-HR :0.51920: (Sim:0h27m30s) 
CPU  0 inst:  312000000 cyc:  417093906 now IPC :1.55635: AVG IPC :0.74498: L2-Pf-HR :0.41875: L2-HR :0.51897: (Sim:0h27m35s) 
CPU  0 inst:  313000000 cyc:  417598330 now IPC :1.98246: AVG IPC :0.74648: L2-Pf-HR :0.41813: L2-HR :0.51848: (Sim:0h27m39s) 
CPU  0 inst:  314000001 cyc:  418207266 now IPC :1.64221: AVG IPC :0.74779: L2-Pf-HR :0.41792: L2-HR :0.51830: (Sim:0h27m43s) 
CPU  0 inst:  315000001 cyc:  418757442 now IPC :1.81760: AVG IPC :0.74920: L2-Pf-HR :0.41759: L2-HR :0.51805: (Sim:0h27m46s) 
CPU  0 inst:  316000000 cyc:  419379908 now IPC :1.60651: AVG IPC :0.75047: L2-Pf-HR :0.41699: L2-HR :0.51771: (Sim:0h27m49s) 
CPU  0 inst:  317000000 cyc:  419945159 now IPC :1.76913: AVG IPC :0.75185: L2-Pf-HR :0.41631: L2-HR :0.51721: (Sim:0h27m53s) 
CPU  0 inst:  318000003 cyc:  420529233 now IPC :1.71212: AVG IPC :0.75318: L2-Pf-HR :0.41587: L2-HR :0.51694: (Sim:0h27m57s) 
CPU  0 inst:  319000000 cyc:  421078255 now IPC :1.82142: AVG IPC :0.75458: L2-Pf-HR :0.41516: L2-HR :0.51640: (Sim:0h28m2s) 
CPU  0 inst:  320000000 cyc:  421645319 now IPC :1.76347: AVG IPC :0.75594: L2-Pf-HR :0.41513: L2-HR :0.51637: (Sim:0h28m5s) 
CPU  0 inst:  321000003 cyc:  422303828 now IPC :1.51859: AVG IPC :0.75713: L2-Pf-HR :0.41486: L2-HR :0.51624: (Sim:0h28m9s) 
CPU  0 inst:  322000000 cyc:  422818744 now IPC :1.94206: AVG IPC :0.75858: L2-Pf-HR :0.41421: L2-HR :0.51576: (Sim:0h28m13s) 
CPU  0 inst:  323000002 cyc:  423465137 now IPC :1.54705: AVG IPC :0.75978: L2-Pf-HR :0.41390: L2-HR :0.51557: (Sim:0h28m17s) 
CPU  0 inst:  324000000 cyc:  423969506 now IPC :1.98267: AVG IPC :0.76124: L2-Pf-HR :0.41321: L2-HR :0.51505: (Sim:0h28m22s) 
CPU  0 inst:  325000000 cyc:  424572903 now IPC :1.65728: AVG IPC :0.76252: L2-Pf-HR :0.41303: L2-HR :0.51490: (Sim:0h28m26s) 
CPU  0 inst:  326000000 cyc:  425121198 now IPC :1.82384: AVG IPC :0.76389: L2-Pf-HR :0.41260: L2-HR :0.51458: (Sim:0h28m30s) 
CPU  0 inst:  327000003 cyc:  425745973 now IPC :1.60058: AVG IPC :0.76512: L2-Pf-HR :0.41226: L2-HR :0.51440: (Sim:0h28m35s) 
CPU  0 inst:  328000000 cyc:  426314972 now IPC :1.75747: AVG IPC :0.76645: L2-Pf-HR :0.41159: L2-HR :0.51389: (Sim:0h28m39s) 
CPU  0 inst:  329000003 cyc:  426903045 now IPC :1.70047: AVG IPC :0.76774: L2-Pf-HR :0.41140: L2-HR :0.51377: (Sim:0h28m43s) 
CPU  0 inst:  330000000 cyc:  427452612 now IPC :1.81961: AVG IPC :0.76909: L2-Pf-HR :0.41075: L2-HR :0.51325: (Sim:0h28m48s) 
CPU  0 inst:  331000001 cyc:  428014012 now IPC :1.78126: AVG IPC :0.77042: L2-Pf-HR :0.41091: L2-HR :0.51332: (Sim:0h28m52s) 
CPU  0 inst:  332000000 cyc:  428677535 now IPC :1.50711: AVG IPC :0.77157: L2-Pf-HR :0.41074: L2-HR :0.51324: (Sim:0h28m57s) 
CPU  0 inst:  333000002 cyc:  429193819 now IPC :1.93692: AVG IPC :0.77297: L2-Pf-HR :0.41006: L2-HR :0.51274: (Sim:0h29m1s) 
CPU  0 inst:  334000001 cyc:  429820838 now IPC :1.59485: AVG IPC :0.77417: L2-Pf-HR :0.40980: L2-HR :0.51258: (Sim:0h29m5s) 
CPU  0 inst:  335000000 cyc:  430343582 now IPC :1.91298: AVG IPC :0.77556: L2-Pf-HR :0.40909: L2-HR :0.51206: (Sim:0h29m10s) 
CPU  0 inst:  336000000 cyc:  430906994 now IPC :1.77490: AVG IPC :0.77687: L2-Pf-HR :0.40906: L2-HR :0.51197: (Sim:0h29m14s) 
CPU  0 inst:  337000002 cyc:  431468485 now IPC :1.78098: AVG IPC :0.77818: L2-Pf-HR :0.40853: L2-HR :0.51161: (Sim:0h29m19s) 
CPU  0 inst:  338000000 cyc:  432119034 now IPC :1.53716: AVG IPC :0.77932: L2-Pf-HR :0.40822: L2-HR :0.51144: (Sim:0h29m23s) 
CPU  0 inst:  339000002 cyc:  432682455 now IPC :1.77488: AVG IPC :0.78062: L2-Pf-HR :0.40753: L2-HR :0.51092: (Sim:0h29m28s) 
CPU  0 inst:  340000000 cyc:  433265167 now IPC :1.71611: AVG IPC :0.78189: L2-Pf-HR :0.40740: L2-HR :0.51085: (Sim:0h29m32s) 
CPU  0 inst:  341000000 cyc:  433791902 now IPC :1.89849: AVG IPC :0.78324: L2-Pf-HR :0.40670: L2-HR :0.51030: (Sim:0h29m36s) 
CPU  0 inst:  342000001 cyc:  434377558 now IPC :1.70749: AVG IPC :0.78449: L2-Pf-HR :0.40666: L2-HR :0.51028: (Sim:0h29m41s) 
CPU  0 inst:  343000002 cyc:  434996386 now IPC :1.61596: AVG IPC :0.78568: L2-Pf-HR :0.40658: L2-HR :0.51024: (Sim:0h29m46s) 
CPU  0 inst:  344000000 cyc:  435553390 now IPC :1.79532: AVG IPC :0.78697: L2-Pf-HR :0.40589: L2-HR :0.50975: (Sim:0h29m50s) 
CPU  0 inst:  345000002 cyc:  436129524 now IPC :1.73571: AVG IPC :0.78823: L2-Pf-HR :0.40588: L2-HR :0.50967: (Sim:0h29m54s) 
CPU  0 inst:  346000002 cyc:  436698977 now IPC :1.75607: AVG IPC :0.78949: L2-Pf-HR :0.40509: L2-HR :0.50916: (Sim:0h29m59s) 
CPU  0 inst:  347000002 cyc:  437239641 now IPC :1.84958: AVG IPC :0.79081: L2-Pf-HR :0.40486: L2-HR :0.50896: (Sim:0h30m3s) 
CPU  0 inst:  348000000 cyc:  437810156 now IPC :1.75280: AVG IPC :0.79206: L2-Pf-HR :0.40458: L2-HR :0.50876: (Sim:0h30m8s) 
CPU  0 inst:  349000000 cyc:  438476038 now IPC :1.50177: AVG IPC :0.79314: L2-Pf-HR :0.40424: L2-HR :0.50858: (Sim:0h30m12s) 
CPU  0 inst:  350000002 cyc:  439005843 now IPC :1.88749: AVG IPC :0.79447: L2-Pf-HR :0.40359: L2-HR :0.50807: (Sim:0h30m16s) 
CPU  0 inst:  351000000 cyc:  439627575 now IPC :1.60841: AVG IPC :0.79562: L2-Pf-HR :0.40333: L2-HR :0.50794: (Sim:0h30m21s) 
CPU  0 inst:  352000000 cyc:  440147648 now IPC :1.92281: AVG IPC :0.79696: L2-Pf-HR :0.40266: L2-HR :0.50742: (Sim:0h30m25s) 
CPU  0 inst:  353000002 cyc:  440740090 now IPC :1.68793: AVG IPC :0.79816: L2-Pf-HR :0.40264: L2-HR :0.50740: (Sim:0h30m30s) 
CPU  0 inst:  354000001 cyc:  441288306 now IPC :1.82410: AVG IPC :0.79943: L2-Pf-HR :0.40272: L2-HR :0.50741: (Sim:0h30m34s) 
CPU  0 inst:  355000003 cyc:  441918453 now IPC :1.58693: AVG IPC :0.80056: L2-Pf-HR :0.40189: L2-HR :0.50690: (Sim:0h30m38s) 
CPU  0 inst:  356000000 cyc:  442478301 now IPC :1.78619: AVG IPC :0.80181: L2-Pf-HR :0.40165: L2-HR :0.50669: (Sim:0h30m43s) 
CPU  0 inst:  357000000 cyc:  443060970 now IPC :1.71624: AVG IPC :0.80301: L2-Pf-HR :0.40102: L2-HR :0.50630: (Sim:0h30m47s) 
CPU  0 inst:  358000001 cyc:  443609384 now IPC :1.82344: AVG IPC :0.80428: L2-Pf-HR :0.40069: L2-HR :0.50602: (Sim:0h30m50s) 
CPU  0 inst:  359000002 cyc:  444180328 now IPC :1.75149: AVG IPC :0.80550: L2-Pf-HR :0.40053: L2-HR :0.50590: (Sim:0h30m55s) 
CPU  0 inst:  360000000 cyc:  444847662 now IPC :1.49850: AVG IPC :0.80654: L2-Pf-HR :0.40028: L2-HR :0.50577: (Sim:0h30m59s) 
CPU  0 inst:  361000003 cyc:  445372968 now IPC :1.90366: AVG IPC :0.80784: L2-Pf-HR :0.39970: L2-HR :0.50531: (Sim:0h31m3s) 
CPU  0 inst:  362000001 cyc:  446003827 now IPC :1.58514: AVG IPC :0.80894: L2-Pf-HR :0.39953: L2-HR :0.50523: (Sim:0h31m8s) 
CPU  0 inst:  363000001 cyc:  446513080 now IPC :1.96366: AVG IPC :0.81026: L2-Pf-HR :0.39901: L2-HR :0.50480: (Sim:0h31m12s) 
CPU  0 inst:  364000000 cyc:  447120159 now IPC :1.64723: AVG IPC :0.81140: L2-Pf-HR :0.39899: L2-HR :0.50476: (Sim:0h31m17s) 
CPU  0 inst:  365000002 cyc:  447666904 now IPC :1.82901: AVG IPC :0.81264: L2-Pf-HR :0.39899: L2-HR :0.50471: (Sim:0h31m21s) 
CPU  0 inst:  366000002 cyc:  448290848 now IPC :1.60271: AVG IPC :0.81375: L2-Pf-HR :0.39837: L2-HR :0.50434: (Sim:0h31m25s) 
CPU  0 inst:  367000000 cyc:  448854271 now IPC :1.77486: AVG IPC :0.81495: L2-Pf-HR :0.39804: L2-HR :0.50406: (Sim:0h31m29s) 
CPU  0 inst:  368000000 cyc:  449442490 now IPC :1.70005: AVG IPC :0.81612: L2-Pf-HR :0.39760: L2-HR :0.50379: (Sim:0h31m34s) 
CPU  0 inst:  369000000 cyc:  449991559 now IPC :1.82126: AVG IPC :0.81734: L2-Pf-HR :0.39715: L2-HR :0.50343: (Sim:0h31m38s) 
CPU  0 inst:  370000003 cyc:  450559229 now IPC :1.76159: AVG IPC :0.81854: L2-Pf-HR :0.39711: L2-HR :0.50338: (Sim:0h31m43s) 
CPU  0 inst:  371000003 cyc:  451218591 now IPC :1.51662: AVG IPC :0.81956: L2-Pf-HR :0.39689: L2-HR :0.50328: (Sim:0h31m47s) 
CPU  0 inst:  372000000 cyc:  451735140 now IPC :1.93592: AVG IPC :0.82084: L2-Pf-HR :0.39632: L2-HR :0.50284: (Sim:0h31m51s) 
CPU  0 inst:  373000003 cyc:  452373664 now IPC :1.56612: AVG IPC :0.82189: L2-Pf-HR :0.39611: L2-HR :0.50273: (Sim:0h31m56s) 
CPU  0 inst:  374000000 cyc:  452878528 now IPC :1.98073: AVG IPC :0.82319: L2-Pf-HR :0.39553: L2-HR :0.50229: (Sim:0h32m0s) 
CPU  0 inst:  375000002 cyc:  453487546 now IPC :1.64199: AVG IPC :0.82429: L2-Pf-HR :0.39546: L2-HR :0.50221: (Sim:0h32m5s) 
CPU  0 inst:  376000000 cyc:  454035137 now IPC :1.82618: AVG IPC :0.82550: L2-Pf-HR :0.39531: L2-HR :0.50207: (Sim:0h32m9s) 
CPU  0 inst:  377000001 cyc:  454654532 now IPC :1.61448: AVG IPC :0.82658: L2-Pf-HR :0.39486: L2-HR :0.50181: (Sim:0h32m13s) 
CPU  0 inst:  378000003 cyc:  455219447 now IPC :1.77018: AVG IPC :0.82775: L2-Pf-HR :0.39443: L2-HR :0.50147: (Sim:0h32m18s) 
CPU  0 inst:  379000001 cyc:  455802025 now IPC :1.71650: AVG IPC :0.82889: L2-Pf-HR :0.39411: L2-HR :0.50127: (Sim:0h32m22s) 
CPU  0 inst:  380000000 cyc:  456350050 now IPC :1.82473: AVG IPC :0.83009: L2-Pf-HR :0.39359: L2-HR :0.50086: (Sim:0h32m27s) 
CPU  0 inst:  381000003 cyc:  456915006 now IPC :1.77005: AVG IPC :0.83125: L2-Pf-HR :0.39360: L2-HR :0.50084: (Sim:0h32m31s) 
CPU  0 inst:  382000000 cyc:  457568582 now IPC :1.53004: AVG IPC :0.83225: L2-Pf-HR :0.39339: L2-HR :0.50075: (Sim:0h32m35s) 
CPU  0 inst:  383000001 cyc:  458082294 now IPC :1.94662: AVG IPC :0.83351: L2-Pf-HR :0.39285: L2-HR :0.50034: (Sim:0h32m40s) 
CPU  0 inst:  384000000 cyc:  458724098 now IPC :1.55811: AVG IPC :0.83452: L2-Pf-HR :0.39264: L2-HR :0.50023: (Sim:0h32m44s) 
CPU  0 inst:  385000003 cyc:  459229218 now IPC :1.97973: AVG IPC :0.83578: L2-Pf-HR :0.39217: L2-HR :0.49984: (Sim:0h32m48s) 
CPU  0 inst:  386000001 cyc:  459839600 now IPC :1.63832: AVG IPC :0.83685: L2-Pf-HR :0.39211: L2-HR :0.49977: (Sim:0h32m53s) 
CPU  0 inst:  387000001 cyc:  460387199 now IPC :1.82615: AVG IPC :0.83803: L2-Pf-HR :0.39182: L2-HR :0.49954: (Sim:0h32m57s) 
CPU  0 inst:  388000000 cyc:  461007997 now IPC :1.61083: AVG IPC :0.83907: L2-Pf-HR :0.39155: L2-HR :0.49939: (Sim:0h33m0s) 
CPU  0 inst:  389000002 cyc:  461575915 now IPC :1.76082: AVG IPC :0.84021: L2-Pf-HR :0.39105: L2-HR :0.49900: (Sim:0h33m3s) 
CPU  0 inst:  390000002 cyc:  462156882 now IPC :1.72127: AVG IPC :0.84132: L2-Pf-HR :0.39090: L2-HR :0.49890: (Sim:0h33m6s) 
CPU  0 inst:  391000003 cyc:  462709490 now IPC :1.80960: AVG IPC :0.84248: L2-Pf-HR :0.39039: L2-HR :0.49849: (Sim:0h33m9s) 
CPU  0 inst:  392000000 cyc:  463274040 now IPC :1.77132: AVG IPC :0.84361: L2-Pf-HR :0.39053: L2-HR :0.49856: (Sim:0h33m12s) 
CPU  0 inst:  393000003 cyc:  463932253 now IPC :1.51927: AVG IPC :0.84457: L2-Pf-HR :0.39039: L2-HR :0.49850: (Sim:0h33m15s) 
CPU  0 inst:  394000002 cyc:  464446938 now IPC :1.94293: AVG IPC :0.84579: L2-Pf-HR :0.38988: L2-HR :0.49811: (Sim:0h33m19s) 
CPU  0 inst:  395000002 cyc:  465085869 now IPC :1.56511: AVG IPC :0.84678: L2-Pf-HR :0.38972: L2-HR :0.49803: (Sim:0h33m22s) 
CPU  0 inst:  396000000 cyc:  465589720 now IPC :1.98471: AVG IPC :0.84802: L2-Pf-HR :0.38928: L2-HR :0.49766: (Sim:0h33m25s) 
CPU  0 inst:  397000002 cyc:  466172839 now IPC :1.71492: AVG IPC :0.84910: L2-Pf-HR :0.38929: L2-HR :0.49762: (Sim:0h33m28s) 
CPU  0 inst:  398000003 cyc:  466720896 now IPC :1.82463: AVG IPC :0.85025: L2-Pf-HR :0.38894: L2-HR :0.49735: (Sim:0h33m31s) 
CPU  0 inst:  399000000 cyc:  467365820 now IPC :1.55057: AVG IPC :0.85122: L2-Pf-HR :0.38874: L2-HR :0.49726: (Sim:0h33m34s) 
CPU  0 inst:  400000000 cyc:  467931619 now IPC :1.76741: AVG IPC :0.85233: L2-Pf-HR :0.38816: L2-HR :0.49681: (Sim:0h33m37s) 
CPU  0 inst:  401000002 cyc:  468517325 now IPC :1.70734: AVG IPC :0.85340: L2-Pf-HR :0.38804: L2-HR :0.49675: (Sim:0h33m40s) 
CPU  0 inst:  402000002 cyc:  469064218 now IPC :1.82851: AVG IPC :0.85454: L2-Pf-HR :0.38746: L2-HR :0.49629: (Sim:0h33m43s) 
CPU  0 inst:  403000000 cyc:  469632856 now IPC :1.75858: AVG IPC :0.85564: L2-Pf-HR :0.38755: L2-HR :0.49635: (Sim:0h33m48s) 
CPU  0 inst:  404000000 cyc:  470276919 now IPC :1.55264: AVG IPC :0.85659: L2-Pf-HR :0.38746: L2-HR :0.49633: (Sim:0h33m52s) 
CPU  0 inst:  405000002 cyc:  470809230 now IPC :1.87860: AVG IPC :0.85775: L2-Pf-HR :0.38694: L2-HR :0.49593: (Sim:0h33m57s) 
CPU  0 inst:  406000003 cyc:  471405848 now IPC :1.67612: AVG IPC :0.85879: L2-Pf-HR :0.38693: L2-HR :0.49590: (Sim:0h34m1s) 
Finished CPU 0 instr: 404000001 cyc: 470429284 AVG IPC: 0.85879 (Sim time: 0h34m1s)

ChampSim completed all CPUs

[ROI Statistics]
Core_0_instructions 404000001
Core_0_cycles 470429284
Core_0_IPC 0.85879

Core_0_branch_prediction_accuracy 98.90148
Core_0_branch_MPKI 0.32729
Core_0_average_ROB_occupancy_at_mispredict 248.22392

Core_0_L1D_total_access 112650459
Core_0_L1D_total_hit 103928389 L1D_total_Hit Ratio: 0.92257
Core_0_L1D_total_miss 8722070
Core_0_L1D_loads 94386196
Core_0_L1D_load_hit 92088649 L1D_load_Hit Ratio: 0.97566
Core_0_L1D_load_miss 2297547
Core_0_L1D_RFOs 11355058
Core_0_L1D_RFO_hit 11038481 L1D_RFO_Hit Ratio: 0.97212
Core_0_L1D_RFO_miss 316577
Core_0_L1D_prefetches 6909205
Core_0_L1D_prefetch_hit 801259 L1D_prefetch_Hit Ratio: 0.11597
Core_0_L1D_prefetch_miss 6107946
Core_0_L1D_writebacks 0
Core_0_L1D_writeback_hit 0 L1D_writeback_Hit Ratio: -nan
Core_0_L1D_writeback_miss 0
Core_0_L1D_prefetch_requested 8174553
Core_0_L1D_prefetch_issued 8174553
Core_0_L1D_prefetch_useful 6063533 L1D_Useful Ratio: 0.74176
Core_0_L1D_prefetch_useless 71336
Core_0_L1D_prefetch_late 722542
Core_0_L1D_average_miss_latency 15722644.13641

Core_0_L1I_total_access 98778934
Core_0_L1I_total_hit 98774064 L1I_total_Hit Ratio: 0.99995
Core_0_L1I_total_miss 4870
Core_0_L1I_loads 98778934
Core_0_L1I_load_hit 98774064 L1I_load_Hit Ratio: 0.99995
Core_0_L1I_load_miss 4870
Core_0_L1I_RFOs 0
Core_0_L1I_RFO_hit 0 L1I_RFO_Hit Ratio: -nan
Core_0_L1I_RFO_miss 0
Core_0_L1I_prefetches 0
Core_0_L1I_prefetch_hit 0 L1I_prefetch_Hit Ratio: -nan
Core_0_L1I_prefetch_miss 0
Core_0_L1I_writebacks 0
Core_0_L1I_writeback_hit 0 L1I_writeback_Hit Ratio: -nan
Core_0_L1I_writeback_miss 0
Core_0_L1I_prefetch_requested 0
Core_0_L1I_prefetch_issued 0
Core_0_L1I_prefetch_useful 0 L1I_Useful Ratio: -nan
Core_0_L1I_prefetch_useless 0
Core_0_L1I_prefetch_late 0
Core_0_L1I_average_miss_latency 239.94066

Core_0_L2C_total_access 12678652
Core_0_L2C_total_hit 6287296 L2C_total_Hit Ratio: 0.49590
Core_0_L2C_total_miss 6391356
Core_0_L2C_loads 1580769
Core_0_L2C_load_hit 402861 L2C_load_Hit Ratio: 0.25485
Core_0_L2C_load_miss 1177908
Core_0_L2C_RFOs 316522
Core_0_L2C_RFO_hit 36512 L2C_RFO_Hit Ratio: 0.11535
Core_0_L2C_RFO_miss 280010
Core_0_L2C_prefetches 7927470
Core_0_L2C_prefetch_hit 3067341 L2C_prefetch_Hit Ratio: 0.38693
Core_0_L2C_prefetch_miss 4860129
Core_0_L2C_writebacks 2853891
Core_0_L2C_writeback_hit 2780582 L2C_writeback_Hit Ratio: 0.97431
Core_0_L2C_writeback_miss 73309
Core_0_L2C_prefetch_requested 2161910
Core_0_L2C_prefetch_issued 2161910
Core_0_L2C_prefetch_useful 265695 L2C_Useful Ratio: 0.12290
Core_0_L2C_prefetch_useless 4605285
Core_0_L2C_prefetch_late 83011
Core_0_L2C_average_miss_latency 180.44133

Core_0_LLC_total_access 9031596
Core_0_LLC_total_hit 6086729 LLC_total_Hit Ratio: 0.67394
Core_0_LLC_total_miss 2944867
Core_0_LLC_loads 1095045
Core_0_LLC_load_hit 528108 LLC_load_Hit Ratio: 0.48227
Core_0_LLC_load_miss 566937
Core_0_LLC_RFOs 280010
Core_0_LLC_RFO_hit 43479 LLC_RFO_Hit Ratio: 0.15528
Core_0_LLC_RFO_miss 236531
Core_0_LLC_prefetches 4942941
Core_0_LLC_prefetch_hit 2801548 LLC_prefetch_Hit Ratio: 0.56678
Core_0_LLC_prefetch_miss 2141393
Core_0_LLC_writebacks 2713600
Core_0_LLC_writeback_hit 2713594 LLC_writeback_Hit Ratio: 1.00000
Core_0_LLC_writeback_miss 6
Core_0_LLC_prefetch_requested 0
Core_0_LLC_prefetch_issued 0
Core_0_LLC_prefetch_useful 202272 LLC_Useful Ratio: inf
Core_0_LLC_prefetch_useless 1922222
Core_0_LLC_prefetch_late 0
Core_0_LLC_average_miss_latency 328.69138

Core_0_major_page_fault 0
Core_0_minor_page_fault 22520

[Bingo] PHT Access: 744977
[Bingo] PHT Hit PC+Addr: 90414
[Bingo] PHT Hit PC+Offs: 629617
[Bingo] PHT Miss: 24946
[Bingo] Prefetch PC+Addr: 0
[Bingo] Prefetch PC+Offs: 0
[Bingo] Useful PC+Addr: 0
[Bingo] Useful PC+Offs: 0
[Bingo] Useless PC+Addr: 0
[Bingo] Useless PC+Offs: 0
[Bingo] L1 Prefetch per Region: 12.68188
[Bingo] L2 Prefetch per Region: 0.12968
[Bingo] L3 Prefetch per Region: 0.00000
[Bingo] No Prefetch per Region: 19.18843
[Bingo] Number of Voters Mean: 15.70119
[Bingo] Number of Voters SD: 2.10387
PHT read accesses: 10814621
PHT write accesses: 719695
AT read accesses: 89279132
AT write accesses: 89279129
FT read accesses: 13054736
FT write accesses: 744977
PS read accesses: 4116546
PS write accesses: 720031
PHT tag read accesses: 32593200
PHT tag write accesses: 810109
AT tag read accesses: 1680054178
AT tag write accesses: 89998824
FT tag read accesses: 274258725
FT tag write accesses: 7644769
PS tag read accesses: 1539717338
PS tag write accesses: 4833083
[Bingo2] PHT Access: 595494
[Bingo2] PHT Hit PC+Addr: 43707
[Bingo2] PHT Hit PC+Offs: 528757
[Bingo2] PHT Miss: 23030
[Bingo2] Prefetch PC+Addr: 0
[Bingo2] Prefetch PC+Offs: 0
[Bingo2] Useful PC+Addr: 0
[Bingo2] Useful PC+Offs: 0
[Bingo2] Useless PC+Addr: 0
[Bingo2] Useless PC+Offs: 0
[Bingo2] L1 Prefetch per Region: 0.00000
[Bingo2] L2 Prefetch per Region: 4.86085
[Bingo2] L3 Prefetch per Region: 0.00000
[Bingo2] No Prefetch per Region: 27.13915
[Bingo2] Number of Voters Mean: 15.50788
[Bingo2] Number of Voters SD: 2.29136
PHT read accesses: 8727286
PHT write accesses: 374541
AT read accesses: 1320358
AT write accesses: 1346318
FT read accesses: 1304393
FT write accesses: 595494
PS read accesses: 1168178
PS write accesses: 572464
PHT tag read accesses: 20730375
PHT tag write accesses: 418248
AT tag read accesses: 142514585
AT tag write accesses: 1694919
FT tag read accesses: 138196208
FT tag write accesses: 1511808
PS tag read accesses: 45184011
PS tag write accesses: 1734972
Channel_0_RQ_row_buffer_hit 1727394
Channel_0_RQ_row_buffer_miss 1217453
Channel_0_WQ_row_buffer_hit 621055
Channel_0_WQ_row_buffer_miss 1034736
Channel_0_WQ_full 0
Channel_0_dbus_congested 3171524

avg_congested_cycle 11

EzSearch AVG IPC :0.85879: L2-Pf-HR :0.38693 : L2-HR :0.49590 Uful:0.12290
     > Finished combination: TraceType=770-tot Sim:404000000 Prefetcher=L2bingo_dpc3 L1=bingo_dpc3
