TRACE: [1183000000][GPT-Neo-1_3B]_[h16][s1024][d128] Warmup: 2000000 NumTraces: 1183000000
L1:bingo_dpc3:L2:bingo_dpc3
*************************************************
   ChampSim Multicore Out-of-Order Simulator
   Last compiled: Oct 26 2024 14:45:51
*************************************************

trace_0 770-tot_memTraces_v3/memTraces[1183000000][GPT-Neo-1_3B]_[h16][s1024][d128].champsim.xz
Bingo PHT WAYS: 16 and PHT_SIZE: 16384
Bingo2 PHT WAYS: 16 and PHT_SIZE: 16384
MAIN.cc ln 751 stats print skipped
CPU  0 inst:    1000000 cyc:     503387 now IPC :1.98654: AVG IPC :1.98654: L2-Pf-HR :0.39986: L2-HR :0.49508: (Sim:0h0m4s) 
CPU  0 inst:    2000003 cyc:     981301 now IPC :2.09243: AVG IPC :2.03811: L2-Pf-HR :0.42609: L2-HR :0.51591: (Sim:0h0m10s) 

Warmup complete CPU  0 instructions:    2000003 cycles:     981301 (Simulation time: 0 hr 0 min 10 sec) 

CPU  0 inst:    3000001 cyc:    1612383 now IPC :1.58458: AVG IPC :1.58458: L2-Pf-HR :0.44006: L2-HR :0.49523: (Sim:0h0m14s) 
CPU  0 inst:    4000000 cyc:    2240560 now IPC :1.59191: AVG IPC :1.58823: L2-Pf-HR :0.43194: L2-HR :0.49609: (Sim:0h0m19s) 
CPU  0 inst:    5000002 cyc:    2872655 now IPC :1.58204: AVG IPC :1.58616: L2-Pf-HR :0.41717: L2-HR :0.49090: (Sim:0h0m23s) 
CPU  0 inst:    6000001 cyc:    3509938 now IPC :1.56916: AVG IPC :1.58188: L2-Pf-HR :0.41258: L2-HR :0.49153: (Sim:0h0m27s) 
CPU  0 inst:    7000002 cyc:    4145585 now IPC :1.57320: AVG IPC :1.58014: L2-Pf-HR :0.41737: L2-HR :0.49687: (Sim:0h0m32s) 
CPU  0 inst:    8000000 cyc:    4782267 now IPC :1.57064: AVG IPC :1.57855: L2-Pf-HR :0.41876: L2-HR :0.49756: (Sim:0h0m36s) 
CPU  0 inst:    9000000 cyc:    5415237 now IPC :1.57985: AVG IPC :1.57873: L2-Pf-HR :0.41928: L2-HR :0.49692: (Sim:0h0m41s) 
CPU  0 inst:   10000000 cyc:    6060752 now IPC :1.54915: AVG IPC :1.57497: L2-Pf-HR :0.41843: L2-HR :0.49604: (Sim:0h0m45s) 
CPU  0 inst:   11000001 cyc:    6720120 now IPC :1.51661: AVG IPC :1.56827: L2-Pf-HR :0.41432: L2-HR :0.49313: (Sim:0h0m50s) 
CPU  0 inst:   12000000 cyc:    7392067 now IPC :1.48821: AVG IPC :1.55988: L2-Pf-HR :0.41006: L2-HR :0.49088: (Sim:0h0m55s) 
CPU  0 inst:   13000002 cyc:    8216969 now IPC :1.21227: AVG IPC :1.52025: L2-Pf-HR :0.40098: L2-HR :0.48715: (Sim:0h0m59s) 
CPU  0 inst:   14000002 cyc:    8859488 now IPC :1.55637: AVG IPC :1.52319: L2-Pf-HR :0.40439: L2-HR :0.48832: (Sim:0h1m4s) 
CPU  0 inst:   15000000 cyc:    9501297 now IPC :1.55809: AVG IPC :1.52582: L2-Pf-HR :0.40778: L2-HR :0.48947: (Sim:0h1m9s) 
CPU  0 inst:   16000000 cyc:   10144612 now IPC :1.55445: AVG IPC :1.52783: L2-Pf-HR :0.40916: L2-HR :0.48995: (Sim:0h1m13s) 
CPU  0 inst:   17000001 cyc:   10788866 now IPC :1.55218: AVG IPC :1.52943: L2-Pf-HR :0.40796: L2-HR :0.48925: (Sim:0h1m18s) 
CPU  0 inst:   18000001 cyc:   11435241 now IPC :1.54709: AVG IPC :1.53052: L2-Pf-HR :0.40806: L2-HR :0.48987: (Sim:0h1m22s) 
CPU  0 inst:   19000001 cyc:   12067566 now IPC :1.58147: AVG IPC :1.53343: L2-Pf-HR :0.41015: L2-HR :0.49123: (Sim:0h1m27s) 
CPU  0 inst:   20000000 cyc:   12698720 now IPC :1.58440: AVG IPC :1.53617: L2-Pf-HR :0.41130: L2-HR :0.49172: (Sim:0h1m31s) 
CPU  0 inst:   21000002 cyc:   13330790 now IPC :1.58211: AVG IPC :1.53853: L2-Pf-HR :0.41238: L2-HR :0.49162: (Sim:0h1m36s) 
CPU  0 inst:   22000000 cyc:   13960980 now IPC :1.58682: AVG IPC :1.54087: L2-Pf-HR :0.41186: L2-HR :0.49093: (Sim:0h1m40s) 
CPU  0 inst:   23000003 cyc:   14593669 now IPC :1.58056: AVG IPC :1.54271: L2-Pf-HR :0.41075: L2-HR :0.49018: (Sim:0h1m45s) 
CPU  0 inst:   24000000 cyc:   15332761 now IPC :1.35301: AVG IPC :1.53294: L2-Pf-HR :0.40617: L2-HR :0.48806: (Sim:0h1m49s) 
CPU  0 inst:   25000001 cyc:   15988568 now IPC :1.52484: AVG IPC :1.53259: L2-Pf-HR :0.41392: L2-HR :0.49312: (Sim:0h1m54s) 
CPU  0 inst:   26000003 cyc:   16635535 now IPC :1.54568: AVG IPC :1.53313: L2-Pf-HR :0.42233: L2-HR :0.49871: (Sim:0h1m58s) 
CPU  0 inst:   27000000 cyc:   17281192 now IPC :1.54881: AVG IPC :1.53375: L2-Pf-HR :0.43110: L2-HR :0.50503: (Sim:0h2m3s) 
CPU  0 inst:   28000000 cyc:   17926701 now IPC :1.54917: AVG IPC :1.53434: L2-Pf-HR :0.43987: L2-HR :0.51155: (Sim:0h2m7s) 
CPU  0 inst:   29000003 cyc:   18551094 now IPC :1.60156: AVG IPC :1.53673: L2-Pf-HR :0.44810: L2-HR :0.51728: (Sim:0h2m12s) 
CPU  0 inst:   30000000 cyc:   19173715 now IPC :1.60611: AVG IPC :1.53910: L2-Pf-HR :0.45547: L2-HR :0.52220: (Sim:0h2m16s) 
CPU  0 inst:   31000002 cyc:   19802455 now IPC :1.59049: AVG IPC :1.54082: L2-Pf-HR :0.45957: L2-HR :0.52510: (Sim:0h2m21s) 
CPU  0 inst:   32000000 cyc:   20621839 now IPC :1.22043: AVG IPC :1.52745: L2-Pf-HR :0.45910: L2-HR :0.52583: (Sim:0h2m25s) 
CPU  0 inst:   33000003 cyc:   21285467 now IPC :1.50687: AVG IPC :1.52678: L2-Pf-HR :0.45835: L2-HR :0.52479: (Sim:0h2m30s) 
CPU  0 inst:   34000001 cyc:   21939516 now IPC :1.52893: AVG IPC :1.52685: L2-Pf-HR :0.45767: L2-HR :0.52379: (Sim:0h2m34s) 
CPU  0 inst:   35000002 cyc:   22594061 now IPC :1.52778: AVG IPC :1.52688: L2-Pf-HR :0.45733: L2-HR :0.52314: (Sim:0h2m39s) 
CPU  0 inst:   36000000 cyc:   23258759 now IPC :1.50444: AVG IPC :1.52621: L2-Pf-HR :0.45554: L2-HR :0.52199: (Sim:0h2m43s) 
CPU  0 inst:   37000000 cyc:   23919395 now IPC :1.51369: AVG IPC :1.52585: L2-Pf-HR :0.45369: L2-HR :0.52091: (Sim:0h2m48s) 
CPU  0 inst:   38000000 cyc:   24587693 now IPC :1.49634: AVG IPC :1.52501: L2-Pf-HR :0.45247: L2-HR :0.52049: (Sim:0h2m52s) 
CPU  0 inst:   39000003 cyc:   25249905 now IPC :1.51010: AVG IPC :1.52460: L2-Pf-HR :0.45182: L2-HR :0.52000: (Sim:0h2m57s) 
CPU  0 inst:   40000000 cyc:   25905683 now IPC :1.52490: AVG IPC :1.52461: L2-Pf-HR :0.45064: L2-HR :0.51904: (Sim:0h3m1s) 
CPU  0 inst:   41000000 cyc:   26571223 now IPC :1.50254: AVG IPC :1.52404: L2-Pf-HR :0.45025: L2-HR :0.51852: (Sim:0h3m6s) 
CPU  0 inst:   42000000 cyc:   27239687 now IPC :1.49597: AVG IPC :1.52332: L2-Pf-HR :0.44854: L2-HR :0.51733: (Sim:0h3m10s) 
CPU  0 inst:   43000001 cyc:   27907201 now IPC :1.49810: AVG IPC :1.52270: L2-Pf-HR :0.44695: L2-HR :0.51628: (Sim:0h3m15s) 
CPU  0 inst:   44000000 cyc:   28752153 now IPC :1.18350: AVG IPC :1.51238: L2-Pf-HR :0.44276: L2-HR :0.51421: (Sim:0h3m20s) 
CPU  0 inst:   45000003 cyc:   29396246 now IPC :1.55258: AVG IPC :1.51329: L2-Pf-HR :0.44265: L2-HR :0.51386: (Sim:0h3m24s) 
CPU  0 inst:   46000003 cyc:   30038102 now IPC :1.55798: AVG IPC :1.51428: L2-Pf-HR :0.44266: L2-HR :0.51362: (Sim:0h3m28s) 
CPU  0 inst:   47000000 cyc:   30680323 now IPC :1.55709: AVG IPC :1.51520: L2-Pf-HR :0.44295: L2-HR :0.51354: (Sim:0h3m33s) 
CPU  0 inst:   48000000 cyc:   31321928 now IPC :1.55859: AVG IPC :1.51612: L2-Pf-HR :0.44201: L2-HR :0.51285: (Sim:0h3m37s) 
CPU  0 inst:   49000000 cyc:   31963804 now IPC :1.55793: AVG IPC :1.51699: L2-Pf-HR :0.44123: L2-HR :0.51240: (Sim:0h3m42s) 
CPU  0 inst:   50000002 cyc:   32607855 now IPC :1.55268: AVG IPC :1.51771: L2-Pf-HR :0.44086: L2-HR :0.51236: (Sim:0h3m46s) 
CPU  0 inst:   51000002 cyc:   33237930 now IPC :1.58711: AVG IPC :1.51907: L2-Pf-HR :0.44071: L2-HR :0.51211: (Sim:0h3m51s) 
CPU  0 inst:   52000000 cyc:   33868157 now IPC :1.58673: AVG IPC :1.52036: L2-Pf-HR :0.44036: L2-HR :0.51166: (Sim:0h3m55s) 
CPU  0 inst:   53000001 cyc:   34496575 now IPC :1.59130: AVG IPC :1.52169: L2-Pf-HR :0.44031: L2-HR :0.51133: (Sim:0h4m0s) 
CPU  0 inst:   54000002 cyc:   35127875 now IPC :1.58403: AVG IPC :1.52285: L2-Pf-HR :0.43924: L2-HR :0.51060: (Sim:0h4m3s) 
CPU  0 inst:   55000000 cyc:   35755132 now IPC :1.59424: AVG IPC :1.52413: L2-Pf-HR :0.43842: L2-HR :0.51001: (Sim:0h4m7s) 
CPU  0 inst:   56000000 cyc:   36509984 now IPC :1.32476: AVG IPC :1.51990: L2-Pf-HR :0.43783: L2-HR :0.51002: (Sim:0h4m10s) 
CPU  0 inst:   57000001 cyc:   37161390 now IPC :1.53514: AVG IPC :1.52017: L2-Pf-HR :0.43987: L2-HR :0.51133: (Sim:0h4m14s) 
CPU  0 inst:   58000000 cyc:   37807776 now IPC :1.54706: AVG IPC :1.52065: L2-Pf-HR :0.44378: L2-HR :0.51401: (Sim:0h4m18s) 
CPU  0 inst:   59000003 cyc:   38453153 now IPC :1.54949: AVG IPC :1.52114: L2-Pf-HR :0.44717: L2-HR :0.51652: (Sim:0h4m23s) 
CPU  0 inst:   60000000 cyc:   39091102 now IPC :1.56752: AVG IPC :1.52192: L2-Pf-HR :0.45102: L2-HR :0.51930: (Sim:0h4m28s) 
CPU  0 inst:   61000001 cyc:   39712682 now IPC :1.60880: AVG IPC :1.52331: L2-Pf-HR :0.45447: L2-HR :0.52164: (Sim:0h4m32s) 
CPU  0 inst:   62000000 cyc:   40340377 now IPC :1.59313: AVG IPC :1.52443: L2-Pf-HR :0.45723: L2-HR :0.52344: (Sim:0h4m37s) 
CPU  0 inst:   63000000 cyc:   40968561 now IPC :1.59189: AVG IPC :1.52549: L2-Pf-HR :0.45963: L2-HR :0.52519: (Sim:0h4m41s) 
CPU  0 inst:   64000000 cyc:   41796153 now IPC :1.20832: AVG IPC :1.51905: L2-Pf-HR :0.45792: L2-HR :0.52446: (Sim:0h4m46s) 
CPU  0 inst:   65000001 cyc:   42441977 now IPC :1.54841: AVG IPC :1.51951: L2-Pf-HR :0.45756: L2-HR :0.52389: (Sim:0h4m51s) 
CPU  0 inst:   66000001 cyc:   43088787 now IPC :1.54605: AVG IPC :1.51992: L2-Pf-HR :0.45729: L2-HR :0.52348: (Sim:0h4m55s) 
CPU  0 inst:   67000001 cyc:   43737882 now IPC :1.54061: AVG IPC :1.52023: L2-Pf-HR :0.45692: L2-HR :0.52314: (Sim:0h5m0s) 
CPU  0 inst:   68000000 cyc:   44389695 now IPC :1.53418: AVG IPC :1.52044: L2-Pf-HR :0.45585: L2-HR :0.52245: (Sim:0h5m4s) 
CPU  0 inst:   69000002 cyc:   45049867 now IPC :1.51476: AVG IPC :1.52036: L2-Pf-HR :0.45504: L2-HR :0.52202: (Sim:0h5m9s) 
CPU  0 inst:   70000002 cyc:   45708167 now IPC :1.51906: AVG IPC :1.52034: L2-Pf-HR :0.45456: L2-HR :0.52182: (Sim:0h5m13s) 
CPU  0 inst:   71000003 cyc:   46353302 now IPC :1.55006: AVG IPC :1.52076: L2-Pf-HR :0.45406: L2-HR :0.52143: (Sim:0h5m16s) 
CPU  0 inst:   72000000 cyc:   47007473 now IPC :1.52865: AVG IPC :1.52087: L2-Pf-HR :0.45350: L2-HR :0.52097: (Sim:0h5m19s) 
CPU  0 inst:   73000001 cyc:   47657258 now IPC :1.53897: AVG IPC :1.52113: L2-Pf-HR :0.45290: L2-HR :0.52041: (Sim:0h5m22s) 
CPU  0 inst:   74000002 cyc:   48321538 now IPC :1.50539: AVG IPC :1.52090: L2-Pf-HR :0.45193: L2-HR :0.51973: (Sim:0h5m25s) 
CPU  0 inst:   75000002 cyc:   48987857 now IPC :1.50078: AVG IPC :1.52063: L2-Pf-HR :0.45103: L2-HR :0.51914: (Sim:0h5m28s) 
CPU  0 inst:   76000000 cyc:   49819758 now IPC :1.20206: AVG IPC :1.51520: L2-Pf-HR :0.44885: L2-HR :0.51800: (Sim:0h5m32s) 
CPU  0 inst:   77000002 cyc:   50468454 now IPC :1.54156: AVG IPC :1.51554: L2-Pf-HR :0.44878: L2-HR :0.51779: (Sim:0h5m35s) 
CPU  0 inst:   78000001 cyc:   51117099 now IPC :1.54167: AVG IPC :1.51588: L2-Pf-HR :0.44874: L2-HR :0.51761: (Sim:0h5m38s) 
CPU  0 inst:   79000002 cyc:   51766401 now IPC :1.54012: AVG IPC :1.51619: L2-Pf-HR :0.44853: L2-HR :0.51736: (Sim:0h5m41s) 
CPU  0 inst:   80000000 cyc:   52418886 now IPC :1.53260: AVG IPC :1.51640: L2-Pf-HR :0.44789: L2-HR :0.51695: (Sim:0h5m44s) 
CPU  0 inst:   81000003 cyc:   53073283 now IPC :1.52813: AVG IPC :1.51655: L2-Pf-HR :0.44743: L2-HR :0.51669: (Sim:0h5m47s) 
CPU  0 inst:   82000000 cyc:   53714953 now IPC :1.55843: AVG IPC :1.51706: L2-Pf-HR :0.44726: L2-HR :0.51663: (Sim:0h5m50s) 
CPU  0 inst:   83000003 cyc:   54352553 now IPC :1.56839: AVG IPC :1.51767: L2-Pf-HR :0.44705: L2-HR :0.51640: (Sim:0h5m54s) 
CPU  0 inst:   84000000 cyc:   54988465 now IPC :1.57254: AVG IPC :1.51832: L2-Pf-HR :0.44671: L2-HR :0.51602: (Sim:0h5m57s) 
CPU  0 inst:   85000003 cyc:   55624709 now IPC :1.57173: AVG IPC :1.51894: L2-Pf-HR :0.44624: L2-HR :0.51561: (Sim:0h6m1s) 
CPU  0 inst:   86000001 cyc:   56265866 now IPC :1.55968: AVG IPC :1.51941: L2-Pf-HR :0.44559: L2-HR :0.51514: (Sim:0h6m5s) 
CPU  0 inst:   87000001 cyc:   56990410 now IPC :1.38018: AVG IPC :1.51761: L2-Pf-HR :0.44388: L2-HR :0.51420: (Sim:0h6m9s) 
CPU  0 inst:   88000000 cyc:   57665655 now IPC :1.48094: AVG IPC :1.51717: L2-Pf-HR :0.44532: L2-HR :0.51515: (Sim:0h6m13s) 
CPU  0 inst:   89000002 cyc:   58315574 now IPC :1.53866: AVG IPC :1.51742: L2-Pf-HR :0.44710: L2-HR :0.51631: (Sim:0h6m17s) 
CPU  0 inst:   90000003 cyc:   58960706 now IPC :1.55007: AVG IPC :1.51778: L2-Pf-HR :0.44935: L2-HR :0.51792: (Sim:0h6m20s) 
CPU  0 inst:   91000002 cyc:   59608325 now IPC :1.54412: AVG IPC :1.51807: L2-Pf-HR :0.45162: L2-HR :0.51964: (Sim:0h6m23s) 
CPU  0 inst:   92000000 cyc:   60233295 now IPC :1.60007: AVG IPC :1.51894: L2-Pf-HR :0.45405: L2-HR :0.52135: (Sim:0h6m27s) 
CPU  0 inst:   93000000 cyc:   60855458 now IPC :1.60730: AVG IPC :1.51985: L2-Pf-HR :0.45641: L2-HR :0.52291: (Sim:0h6m31s) 
CPU  0 inst:   94000000 cyc:   61477357 now IPC :1.60798: AVG IPC :1.52076: L2-Pf-HR :0.45769: L2-HR :0.52380: (Sim:0h6m34s) 
CPU  0 inst:   95000002 cyc:   62285732 now IPC :1.23705: AVG IPC :1.51702: L2-Pf-HR :0.45785: L2-HR :0.52426: (Sim:0h6m38s) 
CPU  0 inst:   96000000 cyc:   62963206 now IPC :1.47607: AVG IPC :1.51657: L2-Pf-HR :0.45756: L2-HR :0.52393: (Sim:0h6m41s) 
CPU  0 inst:   97000002 cyc:   63614781 now IPC :1.53475: AVG IPC :1.51676: L2-Pf-HR :0.45734: L2-HR :0.52363: (Sim:0h6m44s) 
CPU  0 inst:   98000001 cyc:   64272635 now IPC :1.52009: AVG IPC :1.51680: L2-Pf-HR :0.45722: L2-HR :0.52341: (Sim:0h6m47s) 
CPU  0 inst:   99000001 cyc:   64927993 now IPC :1.52588: AVG IPC :1.51689: L2-Pf-HR :0.45665: L2-HR :0.52300: (Sim:0h6m51s) 
CPU  0 inst:  100000000 cyc:   65584375 now IPC :1.52350: AVG IPC :1.51696: L2-Pf-HR :0.45600: L2-HR :0.52262: (Sim:0h6m55s) 
CPU  0 inst:  101000003 cyc:   66253021 now IPC :1.49556: AVG IPC :1.51674: L2-Pf-HR :0.45547: L2-HR :0.52241: (Sim:0h6m59s) 
CPU  0 inst:  102000003 cyc:   66903633 now IPC :1.53701: AVG IPC :1.51694: L2-Pf-HR :0.45525: L2-HR :0.52223: (Sim:0h7m3s) 
CPU  0 inst:  103000001 cyc:   67558473 now IPC :1.52709: AVG IPC :1.51704: L2-Pf-HR :0.45487: L2-HR :0.52196: (Sim:0h7m8s) 
CPU  0 inst:  104000000 cyc:   68216460 now IPC :1.51979: AVG IPC :1.51706: L2-Pf-HR :0.45465: L2-HR :0.52169: (Sim:0h7m13s) 
CPU  0 inst:  105000002 cyc:   68879134 now IPC :1.50904: AVG IPC :1.51699: L2-Pf-HR :0.45398: L2-HR :0.52121: (Sim:0h7m17s) 
CPU  0 inst:  106000003 cyc:   69544872 now IPC :1.50209: AVG IPC :1.51684: L2-Pf-HR :0.45332: L2-HR :0.52077: (Sim:0h7m20s) 
CPU  0 inst:  107000002 cyc:   70383793 now IPC :1.19201: AVG IPC :1.51291: L2-Pf-HR :0.45148: L2-HR :0.51980: (Sim:0h7m24s) 
CPU  0 inst:  108000000 cyc:   71044505 now IPC :1.51352: AVG IPC :1.51292: L2-Pf-HR :0.45137: L2-HR :0.51963: (Sim:0h7m29s) 
CPU  0 inst:  109000002 cyc:   71696878 now IPC :1.53287: AVG IPC :1.51310: L2-Pf-HR :0.45124: L2-HR :0.51945: (Sim:0h7m33s) 
CPU  0 inst:  110000003 cyc:   72347233 now IPC :1.53762: AVG IPC :1.51333: L2-Pf-HR :0.45127: L2-HR :0.51935: (Sim:0h7m37s) 
CPU  0 inst:  111000001 cyc:   72998828 now IPC :1.53469: AVG IPC :1.51352: L2-Pf-HR :0.45087: L2-HR :0.51905: (Sim:0h7m42s) 
CPU  0 inst:  112000000 cyc:   73650029 now IPC :1.53562: AVG IPC :1.51372: L2-Pf-HR :0.45039: L2-HR :0.51876: (Sim:0h7m47s) 
CPU  0 inst:  113000001 cyc:   74300583 now IPC :1.53715: AVG IPC :1.51393: L2-Pf-HR :0.45012: L2-HR :0.51865: (Sim:0h7m52s) 
CPU  0 inst:  114000000 cyc:   74936640 now IPC :1.57218: AVG IPC :1.51443: L2-Pf-HR :0.45001: L2-HR :0.51852: (Sim:0h7m57s) 
CPU  0 inst:  115000002 cyc:   75574695 now IPC :1.56727: AVG IPC :1.51488: L2-Pf-HR :0.44970: L2-HR :0.51823: (Sim:0h8m1s) 
CPU  0 inst:  116000000 cyc:   76211216 now IPC :1.57104: AVG IPC :1.51535: L2-Pf-HR :0.44968: L2-HR :0.51810: (Sim:0h8m6s) 
CPU  0 inst:  117000002 cyc:   76846252 now IPC :1.57472: AVG IPC :1.51585: L2-Pf-HR :0.44914: L2-HR :0.51769: (Sim:0h8m10s) 
CPU  0 inst:  118000000 cyc:   77485955 now IPC :1.56322: AVG IPC :1.51625: L2-Pf-HR :0.44864: L2-HR :0.51734: (Sim:0h8m15s) 
CPU  0 inst:  119000000 cyc:   78230793 now IPC :1.34257: AVG IPC :1.51457: L2-Pf-HR :0.44814: L2-HR :0.51719: (Sim:0h8m19s) 
CPU  0 inst:  120000000 cyc:   78882987 now IPC :1.53329: AVG IPC :1.51473: L2-Pf-HR :0.44892: L2-HR :0.51767: (Sim:0h8m24s) 
CPU  0 inst:  121000003 cyc:   79530619 now IPC :1.54409: AVG IPC :1.51497: L2-Pf-HR :0.45068: L2-HR :0.51886: (Sim:0h8m29s) 
CPU  0 inst:  122000001 cyc:   80176100 now IPC :1.54923: AVG IPC :1.51525: L2-Pf-HR :0.45223: L2-HR :0.52002: (Sim:0h8m33s) 
CPU  0 inst:  123000000 cyc:   80816297 now IPC :1.56202: AVG IPC :1.51563: L2-Pf-HR :0.45403: L2-HR :0.52133: (Sim:0h8m38s) 
CPU  0 inst:  124000000 cyc:   81442024 now IPC :1.59814: AVG IPC :1.51627: L2-Pf-HR :0.45562: L2-HR :0.52242: (Sim:0h8m42s) 
CPU  0 inst:  125000000 cyc:   82066748 now IPC :1.60071: AVG IPC :1.51692: L2-Pf-HR :0.45722: L2-HR :0.52347: (Sim:0h8m47s) 
CPU  0 inst:  126000000 cyc:   82696756 now IPC :1.58728: AVG IPC :1.51746: L2-Pf-HR :0.45820: L2-HR :0.52420: (Sim:0h8m51s) 
CPU  0 inst:  127000000 cyc:   83514853 now IPC :1.22235: AVG IPC :1.51454: L2-Pf-HR :0.45760: L2-HR :0.52401: (Sim:0h8m56s) 
CPU  0 inst:  128000000 cyc:   84160919 now IPC :1.54783: AVG IPC :1.51479: L2-Pf-HR :0.45744: L2-HR :0.52375: (Sim:0h9m1s) 
CPU  0 inst:  129000003 cyc:   84812350 now IPC :1.53509: AVG IPC :1.51495: L2-Pf-HR :0.45728: L2-HR :0.52352: (Sim:0h9m5s) 
CPU  0 inst:  130000003 cyc:   85458541 now IPC :1.54753: AVG IPC :1.51520: L2-Pf-HR :0.45713: L2-HR :0.52335: (Sim:0h9m10s) 
CPU  0 inst:  131000000 cyc:   86116784 now IPC :1.51919: AVG IPC :1.51523: L2-Pf-HR :0.45661: L2-HR :0.52301: (Sim:0h9m14s) 
CPU  0 inst:  132000000 cyc:   86773985 now IPC :1.52160: AVG IPC :1.51528: L2-Pf-HR :0.45615: L2-HR :0.52276: (Sim:0h9m19s) 
CPU  0 inst:  133000003 cyc:   87424187 now IPC :1.53799: AVG IPC :1.51545: L2-Pf-HR :0.45590: L2-HR :0.52266: (Sim:0h9m24s) 
CPU  0 inst:  134000002 cyc:   88077731 now IPC :1.53012: AVG IPC :1.51556: L2-Pf-HR :0.45566: L2-HR :0.52248: (Sim:0h9m28s) 
CPU  0 inst:  135000003 cyc:   88729153 now IPC :1.53510: AVG IPC :1.51571: L2-Pf-HR :0.45531: L2-HR :0.52218: (Sim:0h9m32s) 
CPU  0 inst:  136000000 cyc:   89386903 now IPC :1.52033: AVG IPC :1.51574: L2-Pf-HR :0.45506: L2-HR :0.52194: (Sim:0h9m36s) 
CPU  0 inst:  137000002 cyc:   90045065 now IPC :1.51939: AVG IPC :1.51577: L2-Pf-HR :0.45452: L2-HR :0.52157: (Sim:0h9m41s) 
CPU  0 inst:  138000002 cyc:   90698597 now IPC :1.53015: AVG IPC :1.51587: L2-Pf-HR :0.45403: L2-HR :0.52124: (Sim:0h9m45s) 
CPU  0 inst:  139000003 cyc:   91540157 now IPC :1.18827: AVG IPC :1.51283: L2-Pf-HR :0.45278: L2-HR :0.52060: (Sim:0h9m49s) 
CPU  0 inst:  140000000 cyc:   92192002 now IPC :1.53410: AVG IPC :1.51298: L2-Pf-HR :0.45268: L2-HR :0.52044: (Sim:0h9m53s) 
CPU  0 inst:  141000003 cyc:   92840202 now IPC :1.54274: AVG IPC :1.51319: L2-Pf-HR :0.45261: L2-HR :0.52032: (Sim:0h9m57s) 
CPU  0 inst:  142000002 cyc:   93490618 now IPC :1.53748: AVG IPC :1.51336: L2-Pf-HR :0.45254: L2-HR :0.52022: (Sim:0h10m1s) 
CPU  0 inst:  143000001 cyc:   94144095 now IPC :1.53027: AVG IPC :1.51348: L2-Pf-HR :0.45214: L2-HR :0.51994: (Sim:0h10m4s) 
CPU  0 inst:  144000000 cyc:   94796105 now IPC :1.53372: AVG IPC :1.51362: L2-Pf-HR :0.45184: L2-HR :0.51977: (Sim:0h10m7s) 
CPU  0 inst:  145000002 cyc:   95439780 now IPC :1.55358: AVG IPC :1.51389: L2-Pf-HR :0.45171: L2-HR :0.51972: (Sim:0h10m10s) 
CPU  0 inst:  146000002 cyc:   96083512 now IPC :1.55344: AVG IPC :1.51416: L2-Pf-HR :0.45154: L2-HR :0.51957: (Sim:0h10m14s) 
CPU  0 inst:  147000003 cyc:   96720129 now IPC :1.57080: AVG IPC :1.51454: L2-Pf-HR :0.45138: L2-HR :0.51939: (Sim:0h10m18s) 
CPU  0 inst:  148000000 cyc:   97357487 now IPC :1.56897: AVG IPC :1.51490: L2-Pf-HR :0.45113: L2-HR :0.51917: (Sim:0h10m23s) 
CPU  0 inst:  149000001 cyc:   98000125 now IPC :1.55609: AVG IPC :1.51517: L2-Pf-HR :0.45070: L2-HR :0.51888: (Sim:0h10m27s) 
CPU  0 inst:  150000001 cyc:   98654573 now IPC :1.52801: AVG IPC :1.51526: L2-Pf-HR :0.45030: L2-HR :0.51861: (Sim:0h10m32s) 
CPU  0 inst:  151000000 cyc:   99396931 now IPC :1.34706: AVG IPC :1.51399: L2-Pf-HR :0.45037: L2-HR :0.51877: (Sim:0h10m37s) 
CPU  0 inst:  152000000 cyc:  100047770 now IPC :1.53648: AVG IPC :1.51413: L2-Pf-HR :0.45121: L2-HR :0.51930: (Sim:0h10m41s) 
CPU  0 inst:  153000003 cyc:  100693676 now IPC :1.54822: AVG IPC :1.51436: L2-Pf-HR :0.45258: L2-HR :0.52027: (Sim:0h10m46s) 
CPU  0 inst:  154000002 cyc:  101342886 now IPC :1.54033: AVG IPC :1.51452: L2-Pf-HR :0.45387: L2-HR :0.52124: (Sim:0h10m50s) 
CPU  0 inst:  155000000 cyc:  101973493 now IPC :1.58577: AVG IPC :1.51497: L2-Pf-HR :0.45530: L2-HR :0.52225: (Sim:0h10m54s) 
CPU  0 inst:  156000000 cyc:  102598680 now IPC :1.59952: AVG IPC :1.51549: L2-Pf-HR :0.45664: L2-HR :0.52314: (Sim:0h10m59s) 
CPU  0 inst:  157000000 cyc:  103228778 now IPC :1.58705: AVG IPC :1.51593: L2-Pf-HR :0.45750: L2-HR :0.52373: (Sim:0h11m3s) 
CPU  0 inst:  158000003 cyc:  104000618 now IPC :1.29561: AVG IPC :1.51428: L2-Pf-HR :0.45774: L2-HR :0.52410: (Sim:0h11m8s) 
CPU  0 inst:  159000001 cyc:  104689149 now IPC :1.45236: AVG IPC :1.51387: L2-Pf-HR :0.45752: L2-HR :0.52390: (Sim:0h11m13s) 
CPU  0 inst:  160000000 cyc:  105345278 now IPC :1.52409: AVG IPC :1.51393: L2-Pf-HR :0.45739: L2-HR :0.52371: (Sim:0h11m17s) 
CPU  0 inst:  161000003 cyc:  105999162 now IPC :1.52933: AVG IPC :1.51403: L2-Pf-HR :0.45729: L2-HR :0.52355: (Sim:0h11m21s) 
CPU  0 inst:  162000001 cyc:  106657200 now IPC :1.51967: AVG IPC :1.51406: L2-Pf-HR :0.45703: L2-HR :0.52336: (Sim:0h11m26s) 
CPU  0 inst:  163000000 cyc:  107323510 now IPC :1.50080: AVG IPC :1.51398: L2-Pf-HR :0.45661: L2-HR :0.52311: (Sim:0h11m30s) 
CPU  0 inst:  164000000 cyc:  107989760 now IPC :1.50094: AVG IPC :1.51390: L2-Pf-HR :0.45630: L2-HR :0.52297: (Sim:0h11m35s) 
CPU  0 inst:  165000003 cyc:  108645422 now IPC :1.52518: AVG IPC :1.51397: L2-Pf-HR :0.45612: L2-HR :0.52286: (Sim:0h11m39s) 
CPU  0 inst:  166000000 cyc:  109302214 now IPC :1.52255: AVG IPC :1.51402: L2-Pf-HR :0.45590: L2-HR :0.52269: (Sim:0h11m44s) 
CPU  0 inst:  167000000 cyc:  109967475 now IPC :1.50317: AVG IPC :1.51395: L2-Pf-HR :0.45575: L2-HR :0.52253: (Sim:0h11m49s) 
CPU  0 inst:  168000000 cyc:  110637628 now IPC :1.49220: AVG IPC :1.51382: L2-Pf-HR :0.45537: L2-HR :0.52225: (Sim:0h11m53s) 
CPU  0 inst:  169000000 cyc:  111299942 now IPC :1.50986: AVG IPC :1.51380: L2-Pf-HR :0.45494: L2-HR :0.52194: (Sim:0h11m56s) 
CPU  0 inst:  170000002 cyc:  112119917 now IPC :1.21955: AVG IPC :1.51163: L2-Pf-HR :0.45375: L2-HR :0.52132: (Sim:0h12m0s) 
CPU  0 inst:  171000001 cyc:  112795598 now IPC :1.47999: AVG IPC :1.51143: L2-Pf-HR :0.45363: L2-HR :0.52120: (Sim:0h12m3s) 
CPU  0 inst:  172000000 cyc:  113442403 now IPC :1.54606: AVG IPC :1.51163: L2-Pf-HR :0.45356: L2-HR :0.52108: (Sim:0h12m6s) 
CPU  0 inst:  173000003 cyc:  114088295 now IPC :1.54825: AVG IPC :1.51184: L2-Pf-HR :0.45356: L2-HR :0.52101: (Sim:0h12m11s) 
CPU  0 inst:  174000003 cyc:  114735402 now IPC :1.54534: AVG IPC :1.51203: L2-Pf-HR :0.45332: L2-HR :0.52082: (Sim:0h12m15s) 
CPU  0 inst:  175000001 cyc:  115381677 now IPC :1.54733: AVG IPC :1.51223: L2-Pf-HR :0.45301: L2-HR :0.52063: (Sim:0h12m20s) 
CPU  0 inst:  176000000 cyc:  116030691 now IPC :1.54080: AVG IPC :1.51239: L2-Pf-HR :0.45279: L2-HR :0.52053: (Sim:0h12m25s) 
CPU  0 inst:  177000003 cyc:  116664883 now IPC :1.57681: AVG IPC :1.51275: L2-Pf-HR :0.45270: L2-HR :0.52043: (Sim:0h12m28s) 
CPU  0 inst:  178000001 cyc:  117296723 now IPC :1.58268: AVG IPC :1.51313: L2-Pf-HR :0.45257: L2-HR :0.52030: (Sim:0h12m31s) 
CPU  0 inst:  179000003 cyc:  117928379 now IPC :1.58314: AVG IPC :1.51351: L2-Pf-HR :0.45249: L2-HR :0.52016: (Sim:0h12m34s) 
CPU  0 inst:  180000000 cyc:  118560954 now IPC :1.58084: AVG IPC :1.51387: L2-Pf-HR :0.45213: L2-HR :0.51990: (Sim:0h12m37s) 
CPU  0 inst:  181000001 cyc:  119197285 now IPC :1.57151: AVG IPC :1.51418: L2-Pf-HR :0.45182: L2-HR :0.51968: (Sim:0h12m41s) 
CPU  0 inst:  182000003 cyc:  119943666 now IPC :1.33980: AVG IPC :1.51308: L2-Pf-HR :0.45125: L2-HR :0.51940: (Sim:0h12m44s) 
CPU  0 inst:  183000000 cyc:  120591802 now IPC :1.54288: AVG IPC :1.51324: L2-Pf-HR :0.45190: L2-HR :0.51981: (Sim:0h12m47s) 
CPU  0 inst:  184000000 cyc:  121236101 now IPC :1.55207: AVG IPC :1.51345: L2-Pf-HR :0.45293: L2-HR :0.52050: (Sim:0h12m50s) 
CPU  0 inst:  185000003 cyc:  121877927 now IPC :1.55806: AVG IPC :1.51369: L2-Pf-HR :0.45393: L2-HR :0.52124: (Sim:0h12m53s) 
CPU  0 inst:  186000002 cyc:  122518128 now IPC :1.56201: AVG IPC :1.51394: L2-Pf-HR :0.45508: L2-HR :0.52209: (Sim:0h12m56s) 
CPU  0 inst:  187000000 cyc:  123140592 now IPC :1.60652: AVG IPC :1.51442: L2-Pf-HR :0.45621: L2-HR :0.52287: (Sim:0h13m0s) 
CPU  0 inst:  188000000 cyc:  123760440 now IPC :1.61330: AVG IPC :1.51492: L2-Pf-HR :0.45727: L2-HR :0.52356: (Sim:0h13m3s) 
CPU  0 inst:  189000001 cyc:  124388238 now IPC :1.59287: AVG IPC :1.51531: L2-Pf-HR :0.45789: L2-HR :0.52401: (Sim:0h13m8s) 
CPU  0 inst:  190000000 cyc:  125207936 now IPC :1.21996: AVG IPC :1.51336: L2-Pf-HR :0.45760: L2-HR :0.52397: (Sim:0h13m13s) 
CPU  0 inst:  191000000 cyc:  125864579 now IPC :1.52290: AVG IPC :1.51341: L2-Pf-HR :0.45748: L2-HR :0.52380: (Sim:0h13m17s) 
CPU  0 inst:  192000000 cyc:  126516787 now IPC :1.53325: AVG IPC :1.51352: L2-Pf-HR :0.45739: L2-HR :0.52366: (Sim:0h13m22s) 
CPU  0 inst:  193000000 cyc:  127174259 now IPC :1.52098: AVG IPC :1.51356: L2-Pf-HR :0.45730: L2-HR :0.52355: (Sim:0h13m26s) 
CPU  0 inst:  194000003 cyc:  127833899 now IPC :1.51598: AVG IPC :1.51357: L2-Pf-HR :0.45695: L2-HR :0.52332: (Sim:0h13m31s) 
CPU  0 inst:  195000002 cyc:  128496248 now IPC :1.50978: AVG IPC :1.51355: L2-Pf-HR :0.45663: L2-HR :0.52314: (Sim:0h13m35s) 
CPU  0 inst:  196000000 cyc:  129163002 now IPC :1.49980: AVG IPC :1.51348: L2-Pf-HR :0.45643: L2-HR :0.52307: (Sim:0h13m40s) 
CPU  0 inst:  197000002 cyc:  129817525 now IPC :1.52783: AVG IPC :1.51355: L2-Pf-HR :0.45628: L2-HR :0.52295: (Sim:0h13m44s) 
CPU  0 inst:  198000001 cyc:  130474376 now IPC :1.52241: AVG IPC :1.51359: L2-Pf-HR :0.45605: L2-HR :0.52275: (Sim:0h13m49s) 
CPU  0 inst:  199000003 cyc:  131146562 now IPC :1.48769: AVG IPC :1.51346: L2-Pf-HR :0.45593: L2-HR :0.52262: (Sim:0h13m53s) 
CPU  0 inst:  200000000 cyc:  131807261 now IPC :1.51354: AVG IPC :1.51346: L2-Pf-HR :0.45555: L2-HR :0.52235: (Sim:0h13m58s) 
CPU  0 inst:  201000002 cyc:  132481374 now IPC :1.48343: AVG IPC :1.51331: L2-Pf-HR :0.45522: L2-HR :0.52213: (Sim:0h14m2s) 
CPU  0 inst:  202000002 cyc:  133323798 now IPC :1.18705: AVG IPC :1.51123: L2-Pf-HR :0.45430: L2-HR :0.52166: (Sim:0h14m7s) 
CPU  0 inst:  203000003 cyc:  133975151 now IPC :1.53527: AVG IPC :1.51135: L2-Pf-HR :0.45424: L2-HR :0.52155: (Sim:0h14m12s) 
CPU  0 inst:  204000000 cyc:  134626245 now IPC :1.53587: AVG IPC :1.51147: L2-Pf-HR :0.45418: L2-HR :0.52146: (Sim:0h14m16s) 
CPU  0 inst:  205000000 cyc:  135276107 now IPC :1.53879: AVG IPC :1.51160: L2-Pf-HR :0.45414: L2-HR :0.52138: (Sim:0h14m21s) 
CPU  0 inst:  206000003 cyc:  135925990 now IPC :1.53874: AVG IPC :1.51173: L2-Pf-HR :0.45388: L2-HR :0.52120: (Sim:0h14m25s) 
CPU  0 inst:  207000002 cyc:  136575816 now IPC :1.53887: AVG IPC :1.51186: L2-Pf-HR :0.45365: L2-HR :0.52106: (Sim:0h14m30s) 
CPU  0 inst:  208000000 cyc:  137222461 now IPC :1.54644: AVG IPC :1.51202: L2-Pf-HR :0.45352: L2-HR :0.52102: (Sim:0h14m34s) 
CPU  0 inst:  209000003 cyc:  137856343 now IPC :1.57759: AVG IPC :1.51233: L2-Pf-HR :0.45342: L2-HR :0.52091: (Sim:0h14m39s) 
CPU  0 inst:  210000002 cyc:  138493080 now IPC :1.57051: AVG IPC :1.51260: L2-Pf-HR :0.45328: L2-HR :0.52077: (Sim:0h14m43s) 
CPU  0 inst:  211000000 cyc:  139129962 now IPC :1.57015: AVG IPC :1.51286: L2-Pf-HR :0.45315: L2-HR :0.52062: (Sim:0h14m48s) 
CPU  0 inst:  212000000 cyc:  139765194 now IPC :1.57423: AVG IPC :1.51314: L2-Pf-HR :0.45284: L2-HR :0.52040: (Sim:0h14m52s) 
CPU  0 inst:  213000000 cyc:  140405020 now IPC :1.56292: AVG IPC :1.51337: L2-Pf-HR :0.45255: L2-HR :0.52020: (Sim:0h14m57s) 
CPU  0 inst:  214000001 cyc:  141158165 now IPC :1.32777: AVG IPC :1.51238: L2-Pf-HR :0.45249: L2-HR :0.52024: (Sim:0h15m1s) 
CPU  0 inst:  215000002 cyc:  141809796 now IPC :1.53461: AVG IPC :1.51248: L2-Pf-HR :0.45300: L2-HR :0.52057: (Sim:0h15m6s) 
CPU  0 inst:  216000000 cyc:  142456635 now IPC :1.54598: AVG IPC :1.51263: L2-Pf-HR :0.45402: L2-HR :0.52128: (Sim:0h15m10s) 
CPU  0 inst:  217000003 cyc:  143103718 now IPC :1.54540: AVG IPC :1.51278: L2-Pf-HR :0.45489: L2-HR :0.52193: (Sim:0h15m15s) 
CPU  0 inst:  218000003 cyc:  143735706 now IPC :1.58231: AVG IPC :1.51309: L2-Pf-HR :0.45585: L2-HR :0.52262: (Sim:0h15m19s) 
CPU  0 inst:  219000000 cyc:  144359876 now IPC :1.60212: AVG IPC :1.51348: L2-Pf-HR :0.45678: L2-HR :0.52324: (Sim:0h15m24s) 
CPU  0 inst:  220000000 cyc:  144989250 now IPC :1.58888: AVG IPC :1.51381: L2-Pf-HR :0.45742: L2-HR :0.52367: (Sim:0h15m28s) 
CPU  0 inst:  221000002 cyc:  145629370 now IPC :1.56221: AVG IPC :1.51402: L2-Pf-HR :0.45820: L2-HR :0.52425: (Sim:0h15m33s) 
CPU  0 inst:  222000000 cyc:  146457562 now IPC :1.20745: AVG IPC :1.51227: L2-Pf-HR :0.45752: L2-HR :0.52387: (Sim:0h15m37s) 
CPU  0 inst:  223000000 cyc:  147102138 now IPC :1.55141: AVG IPC :1.51245: L2-Pf-HR :0.45741: L2-HR :0.52372: (Sim:0h15m42s) 
CPU  0 inst:  224000000 cyc:  147754629 now IPC :1.53259: AVG IPC :1.51254: L2-Pf-HR :0.45735: L2-HR :0.52361: (Sim:0h15m46s) 
CPU  0 inst:  225000001 cyc:  148404205 now IPC :1.53947: AVG IPC :1.51266: L2-Pf-HR :0.45717: L2-HR :0.52347: (Sim:0h15m51s) 
CPU  0 inst:  226000001 cyc:  149056886 now IPC :1.53214: AVG IPC :1.51274: L2-Pf-HR :0.45687: L2-HR :0.52328: (Sim:0h15m55s) 
CPU  0 inst:  227000000 cyc:  149717317 now IPC :1.51416: AVG IPC :1.51275: L2-Pf-HR :0.45664: L2-HR :0.52317: (Sim:0h16m0s) 
CPU  0 inst:  228000000 cyc:  150361699 now IPC :1.55187: AVG IPC :1.51292: L2-Pf-HR :0.45650: L2-HR :0.52309: (Sim:0h16m3s) 
CPU  0 inst:  229000003 cyc:  151012565 now IPC :1.53642: AVG IPC :1.51302: L2-Pf-HR :0.45635: L2-HR :0.52298: (Sim:0h16m6s) 
CPU  0 inst:  230000002 cyc:  151670026 now IPC :1.52100: AVG IPC :1.51305: L2-Pf-HR :0.45621: L2-HR :0.52285: (Sim:0h16m9s) 
CPU  0 inst:  231000001 cyc:  152323729 now IPC :1.52975: AVG IPC :1.51312: L2-Pf-HR :0.45597: L2-HR :0.52266: (Sim:0h16m12s) 
CPU  0 inst:  232000000 cyc:  152985322 now IPC :1.51150: AVG IPC :1.51312: L2-Pf-HR :0.45566: L2-HR :0.52243: (Sim:0h16m16s) 
CPU  0 inst:  233000001 cyc:  153704148 now IPC :1.39116: AVG IPC :1.51254: L2-Pf-HR :0.45516: L2-HR :0.52212: (Sim:0h16m19s) 
CPU  0 inst:  234000001 cyc:  154487115 now IPC :1.27719: AVG IPC :1.51134: L2-Pf-HR :0.45468: L2-HR :0.52187: (Sim:0h16m22s) 
CPU  0 inst:  235000003 cyc:  155139426 now IPC :1.53301: AVG IPC :1.51144: L2-Pf-HR :0.45462: L2-HR :0.52179: (Sim:0h16m25s) 
CPU  0 inst:  236000000 cyc:  155787962 now IPC :1.54193: AVG IPC :1.51156: L2-Pf-HR :0.45460: L2-HR :0.52172: (Sim:0h16m28s) 
CPU  0 inst:  237000000 cyc:  156436641 now IPC :1.54159: AVG IPC :1.51169: L2-Pf-HR :0.45448: L2-HR :0.52161: (Sim:0h16m31s) 
CPU  0 inst:  238000003 cyc:  157085860 now IPC :1.54032: AVG IPC :1.51181: L2-Pf-HR :0.45424: L2-HR :0.52146: (Sim:0h16m35s) 
CPU  0 inst:  239000003 cyc:  157739839 now IPC :1.52910: AVG IPC :1.51188: L2-Pf-HR :0.45405: L2-HR :0.52136: (Sim:0h16m38s) 
CPU  0 inst:  240000000 cyc:  158375856 now IPC :1.57228: AVG IPC :1.51212: L2-Pf-HR :0.45400: L2-HR :0.52131: (Sim:0h16m41s) 
CPU  0 inst:  241000001 cyc:  159014608 now IPC :1.56555: AVG IPC :1.51234: L2-Pf-HR :0.45389: L2-HR :0.52122: (Sim:0h16m44s) 
CPU  0 inst:  242000002 cyc:  159651054 now IPC :1.57123: AVG IPC :1.51258: L2-Pf-HR :0.45375: L2-HR :0.52106: (Sim:0h16m47s) 
CPU  0 inst:  243000000 cyc:  160283337 now IPC :1.58157: AVG IPC :1.51285: L2-Pf-HR :0.45351: L2-HR :0.52087: (Sim:0h16m50s) 
CPU  0 inst:  244000000 cyc:  160920582 now IPC :1.56926: AVG IPC :1.51307: L2-Pf-HR :0.45327: L2-HR :0.52069: (Sim:0h16m53s) 
CPU  0 inst:  245000001 cyc:  161668569 now IPC :1.33692: AVG IPC :1.51225: L2-Pf-HR :0.45270: L2-HR :0.52040: (Sim:0h16m56s) 
CPU  0 inst:  246000000 cyc:  162319493 now IPC :1.53628: AVG IPC :1.51235: L2-Pf-HR :0.45323: L2-HR :0.52074: (Sim:0h16m59s) 
CPU  0 inst:  247000003 cyc:  162968497 now IPC :1.54083: AVG IPC :1.51247: L2-Pf-HR :0.45391: L2-HR :0.52119: (Sim:0h17m3s) 
CPU  0 inst:  248000000 cyc:  163615864 now IPC :1.54471: AVG IPC :1.51259: L2-Pf-HR :0.45464: L2-HR :0.52172: (Sim:0h17m6s) 
CPU  0 inst:  249000001 cyc:  164261352 now IPC :1.54922: AVG IPC :1.51274: L2-Pf-HR :0.45551: L2-HR :0.52237: (Sim:0h17m9s) 
CPU  0 inst:  250000000 cyc:  164885866 now IPC :1.60124: AVG IPC :1.51308: L2-Pf-HR :0.45635: L2-HR :0.52297: (Sim:0h17m14s) 
CPU  0 inst:  251000003 cyc:  165511592 now IPC :1.59815: AVG IPC :1.51340: L2-Pf-HR :0.45716: L2-HR :0.52349: (Sim:0h17m18s) 
CPU  0 inst:  252000000 cyc:  166141120 now IPC :1.58849: AVG IPC :1.51369: L2-Pf-HR :0.45763: L2-HR :0.52383: (Sim:0h17m22s) 
CPU  0 inst:  253000000 cyc:  166961222 now IPC :1.21936: AVG IPC :1.51223: L2-Pf-HR :0.45752: L2-HR :0.52388: (Sim:0h17m25s) 
CPU  0 inst:  254000002 cyc:  167609893 now IPC :1.54162: AVG IPC :1.51235: L2-Pf-HR :0.45743: L2-HR :0.52376: (Sim:0h17m28s) 
CPU  0 inst:  255000003 cyc:  168258860 now IPC :1.54091: AVG IPC :1.51246: L2-Pf-HR :0.45735: L2-HR :0.52364: (Sim:0h17m32s) 
CPU  0 inst:  256000000 cyc:  168903495 now IPC :1.55126: AVG IPC :1.51261: L2-Pf-HR :0.45730: L2-HR :0.52356: (Sim:0h17m35s) 
CPU  0 inst:  257000000 cyc:  169554996 now IPC :1.53492: AVG IPC :1.51269: L2-Pf-HR :0.45705: L2-HR :0.52340: (Sim:0h17m38s) 
CPU  0 inst:  258000000 cyc:  170214110 now IPC :1.51719: AVG IPC :1.51271: L2-Pf-HR :0.45681: L2-HR :0.52326: (Sim:0h17m41s) 
CPU  0 inst:  259000001 cyc:  170870254 now IPC :1.52406: AVG IPC :1.51275: L2-Pf-HR :0.45664: L2-HR :0.52319: (Sim:0h17m44s) 
CPU  0 inst:  260000000 cyc:  171519550 now IPC :1.54013: AVG IPC :1.51286: L2-Pf-HR :0.45652: L2-HR :0.52310: (Sim:0h17m47s) 
CPU  0 inst:  261000002 cyc:  172178513 now IPC :1.51754: AVG IPC :1.51288: L2-Pf-HR :0.45634: L2-HR :0.52297: (Sim:0h17m52s) 
CPU  0 inst:  262000003 cyc:  172835757 now IPC :1.52151: AVG IPC :1.51291: L2-Pf-HR :0.45627: L2-HR :0.52288: (Sim:0h17m57s) 
CPU  0 inst:  263000003 cyc:  173502317 now IPC :1.50024: AVG IPC :1.51286: L2-Pf-HR :0.45600: L2-HR :0.52270: (Sim:0h18m1s) 
CPU  0 inst:  264000000 cyc:  174161724 now IPC :1.51651: AVG IPC :1.51287: L2-Pf-HR :0.45574: L2-HR :0.52253: (Sim:0h18m6s) 
CPU  0 inst:  265000000 cyc:  175006094 now IPC :1.18431: AVG IPC :1.51128: L2-Pf-HR :0.45503: L2-HR :0.52216: (Sim:0h18m11s) 
CPU  0 inst:  266000000 cyc:  175656298 now IPC :1.53798: AVG IPC :1.51138: L2-Pf-HR :0.45497: L2-HR :0.52208: (Sim:0h18m15s) 
CPU  0 inst:  267000000 cyc:  176305706 now IPC :1.53986: AVG IPC :1.51148: L2-Pf-HR :0.45491: L2-HR :0.52200: (Sim:0h18m20s) 
CPU  0 inst:  268000000 cyc:  176953679 now IPC :1.54327: AVG IPC :1.51160: L2-Pf-HR :0.45491: L2-HR :0.52196: (Sim:0h18m24s) 
CPU  0 inst:  269000001 cyc:  177602626 now IPC :1.54096: AVG IPC :1.51171: L2-Pf-HR :0.45470: L2-HR :0.52180: (Sim:0h18m29s) 
CPU  0 inst:  270000002 cyc:  178253675 now IPC :1.53598: AVG IPC :1.51180: L2-Pf-HR :0.45451: L2-HR :0.52169: (Sim:0h18m33s) 
CPU  0 inst:  271000002 cyc:  178898906 now IPC :1.54983: AVG IPC :1.51194: L2-Pf-HR :0.45441: L2-HR :0.52165: (Sim:0h18m38s) 
CPU  0 inst:  272000000 cyc:  179537657 now IPC :1.56555: AVG IPC :1.51213: L2-Pf-HR :0.45434: L2-HR :0.52158: (Sim:0h18m42s) 
CPU  0 inst:  273000003 cyc:  180172792 now IPC :1.57447: AVG IPC :1.51235: L2-Pf-HR :0.45418: L2-HR :0.52143: (Sim:0h18m47s) 
CPU  0 inst:  274000001 cyc:  180804906 now IPC :1.58199: AVG IPC :1.51259: L2-Pf-HR :0.45411: L2-HR :0.52132: (Sim:0h18m51s) 
CPU  0 inst:  275000000 cyc:  181443754 now IPC :1.56532: AVG IPC :1.51278: L2-Pf-HR :0.45385: L2-HR :0.52114: (Sim:0h18m56s) 
CPU  0 inst:  276000000 cyc:  182077414 now IPC :1.57813: AVG IPC :1.51301: L2-Pf-HR :0.45364: L2-HR :0.52100: (Sim:0h19m1s) 
CPU  0 inst:  277000000 cyc:  182829150 now IPC :1.33025: AVG IPC :1.51225: L2-Pf-HR :0.45352: L2-HR :0.52099: (Sim:0h19m6s) 
CPU  0 inst:  278000001 cyc:  183482376 now IPC :1.53087: AVG IPC :1.51232: L2-Pf-HR :0.45387: L2-HR :0.52121: (Sim:0h19m10s) 
CPU  0 inst:  279000003 cyc:  184130811 now IPC :1.54218: AVG IPC :1.51243: L2-Pf-HR :0.45462: L2-HR :0.52173: (Sim:0h19m15s) 
CPU  0 inst:  280000000 cyc:  184776920 now IPC :1.54772: AVG IPC :1.51255: L2-Pf-HR :0.45527: L2-HR :0.52221: (Sim:0h19m20s) 
CPU  0 inst:  281000000 cyc:  185415963 now IPC :1.56484: AVG IPC :1.51273: L2-Pf-HR :0.45603: L2-HR :0.52277: (Sim:0h19m24s) 
CPU  0 inst:  282000001 cyc:  186043149 now IPC :1.59442: AVG IPC :1.51301: L2-Pf-HR :0.45675: L2-HR :0.52326: (Sim:0h19m29s) 
CPU  0 inst:  283000001 cyc:  186667739 now IPC :1.60105: AVG IPC :1.51330: L2-Pf-HR :0.45728: L2-HR :0.52362: (Sim:0h19m33s) 
CPU  0 inst:  284000000 cyc:  187298732 now IPC :1.58480: AVG IPC :1.51355: L2-Pf-HR :0.45782: L2-HR :0.52402: (Sim:0h19m38s) 
CPU  0 inst:  285000001 cyc:  188127248 now IPC :1.20698: AVG IPC :1.51219: L2-Pf-HR :0.45742: L2-HR :0.52383: (Sim:0h19m42s) 
CPU  0 inst:  286000002 cyc:  188785278 now IPC :1.51969: AVG IPC :1.51222: L2-Pf-HR :0.45735: L2-HR :0.52372: (Sim:0h19m47s) 
CPU  0 inst:  287000002 cyc:  189436539 now IPC :1.53548: AVG IPC :1.51230: L2-Pf-HR :0.45730: L2-HR :0.52363: (Sim:0h19m51s) 
CPU  0 inst:  288000000 cyc:  190096623 now IPC :1.51496: AVG IPC :1.51230: L2-Pf-HR :0.45719: L2-HR :0.52354: (Sim:0h19m56s) 
CPU  0 inst:  289000003 cyc:  190761571 now IPC :1.50388: AVG IPC :1.51228: L2-Pf-HR :0.45696: L2-HR :0.52339: (Sim:0h20m1s) 
CPU  0 inst:  290000002 cyc:  191424540 now IPC :1.50836: AVG IPC :1.51226: L2-Pf-HR :0.45676: L2-HR :0.52328: (Sim:0h20m5s) 
CPU  0 inst:  291000003 cyc:  192084941 now IPC :1.51423: AVG IPC :1.51227: L2-Pf-HR :0.45666: L2-HR :0.52324: (Sim:0h20m8s) 
CPU  0 inst:  292000000 cyc:  192740640 now IPC :1.52509: AVG IPC :1.51231: L2-Pf-HR :0.45653: L2-HR :0.52314: (Sim:0h20m12s) 
CPU  0 inst:  293000003 cyc:  193403711 now IPC :1.50814: AVG IPC :1.51230: L2-Pf-HR :0.45639: L2-HR :0.52301: (Sim:0h20m17s) 
CPU  0 inst:  294000002 cyc:  194071695 now IPC :1.49704: AVG IPC :1.51225: L2-Pf-HR :0.45623: L2-HR :0.52288: (Sim:0h20m21s) 
CPU  0 inst:  295000001 cyc:  194734857 now IPC :1.50793: AVG IPC :1.51223: L2-Pf-HR :0.45597: L2-HR :0.52269: (Sim:0h20m26s) 
CPU  0 inst:  296000000 cyc:  195417208 now IPC :1.46552: AVG IPC :1.51207: L2-Pf-HR :0.45572: L2-HR :0.52253: (Sim:0h20m29s) 
CPU  0 inst:  297000002 cyc:  196246435 now IPC :1.20594: AVG IPC :1.51077: L2-Pf-HR :0.45517: L2-HR :0.52223: (Sim:0h20m33s) 
CPU  0 inst:  298000000 cyc:  196895836 now IPC :1.53988: AVG IPC :1.51086: L2-Pf-HR :0.45513: L2-HR :0.52217: (Sim:0h20m38s) 
CPU  0 inst:  299000001 cyc:  197546122 now IPC :1.53779: AVG IPC :1.51095: L2-Pf-HR :0.45512: L2-HR :0.52212: (Sim:0h20m42s) 
CPU  0 inst:  300000000 cyc:  198197288 now IPC :1.53571: AVG IPC :1.51103: L2-Pf-HR :0.45502: L2-HR :0.52203: (Sim:0h20m46s) 
CPU  0 inst:  301000001 cyc:  198850729 now IPC :1.53036: AVG IPC :1.51110: L2-Pf-HR :0.45484: L2-HR :0.52191: (Sim:0h20m50s) 
CPU  0 inst:  302000000 cyc:  199505070 now IPC :1.52825: AVG IPC :1.51115: L2-Pf-HR :0.45469: L2-HR :0.52183: (Sim:0h20m53s) 
CPU  0 inst:  303000000 cyc:  200148639 now IPC :1.55383: AVG IPC :1.51129: L2-Pf-HR :0.45462: L2-HR :0.52179: (Sim:0h20m58s) 
CPU  0 inst:  304000000 cyc:  200786585 now IPC :1.56753: AVG IPC :1.51147: L2-Pf-HR :0.45453: L2-HR :0.52171: (Sim:0h21m2s) 
CPU  0 inst:  305000002 cyc:  201423253 now IPC :1.57068: AVG IPC :1.51166: L2-Pf-HR :0.45446: L2-HR :0.52161: (Sim:0h21m7s) 
CPU  0 inst:  306000000 cyc:  202062756 now IPC :1.56371: AVG IPC :1.51183: L2-Pf-HR :0.45428: L2-HR :0.52146: (Sim:0h21m12s) 
CPU  0 inst:  307000001 cyc:  202705384 now IPC :1.55611: AVG IPC :1.51197: L2-Pf-HR :0.45407: L2-HR :0.52131: (Sim:0h21m16s) 
CPU  0 inst:  308000000 cyc:  203437496 now IPC :1.36591: AVG IPC :1.51144: L2-Pf-HR :0.45356: L2-HR :0.52104: (Sim:0h21m21s) 
CPU  0 inst:  309000003 cyc:  204103932 now IPC :1.50052: AVG IPC :1.51140: L2-Pf-HR :0.45396: L2-HR :0.52129: (Sim:0h21m26s) 
CPU  0 inst:  310000002 cyc:  204753642 now IPC :1.53915: AVG IPC :1.51149: L2-Pf-HR :0.45447: L2-HR :0.52163: (Sim:0h21m30s) 
CPU  0 inst:  311000001 cyc:  205398407 now IPC :1.55095: AVG IPC :1.51162: L2-Pf-HR :0.45508: L2-HR :0.52207: (Sim:0h21m35s) 
CPU  0 inst:  312000000 cyc:  206044509 now IPC :1.54774: AVG IPC :1.51173: L2-Pf-HR :0.45572: L2-HR :0.52256: (Sim:0h21m40s) 
CPU  0 inst:  313000000 cyc:  206672351 now IPC :1.59276: AVG IPC :1.51198: L2-Pf-HR :0.45639: L2-HR :0.52302: (Sim:0h21m44s) 
CPU  0 inst:  314000000 cyc:  207297623 now IPC :1.59930: AVG IPC :1.51224: L2-Pf-HR :0.45705: L2-HR :0.52346: (Sim:0h21m49s) 
CPU  0 inst:  315000000 cyc:  207930302 now IPC :1.58058: AVG IPC :1.51245: L2-Pf-HR :0.45742: L2-HR :0.52372: (Sim:0h21m53s) 
CPU  0 inst:  316000000 cyc:  208741298 now IPC :1.23305: AVG IPC :1.51136: L2-Pf-HR :0.45742: L2-HR :0.52383: (Sim:0h21m58s) 
CPU  0 inst:  317000002 cyc:  209402793 now IPC :1.51173: AVG IPC :1.51136: L2-Pf-HR :0.45734: L2-HR :0.52374: (Sim:0h22m2s) 
CPU  0 inst:  318000002 cyc:  210053425 now IPC :1.53697: AVG IPC :1.51144: L2-Pf-HR :0.45727: L2-HR :0.52364: (Sim:0h22m7s) 
CPU  0 inst:  319000000 cyc:  210707597 now IPC :1.52865: AVG IPC :1.51149: L2-Pf-HR :0.45725: L2-HR :0.52358: (Sim:0h22m11s) 
CPU  0 inst:  320000000 cyc:  211364801 now IPC :1.52160: AVG IPC :1.51153: L2-Pf-HR :0.45708: L2-HR :0.52346: (Sim:0h22m16s) 
CPU  0 inst:  321000000 cyc:  212019954 now IPC :1.52636: AVG IPC :1.51157: L2-Pf-HR :0.45687: L2-HR :0.52334: (Sim:0h22m21s) 
CPU  0 inst:  322000000 cyc:  212682295 now IPC :1.50980: AVG IPC :1.51157: L2-Pf-HR :0.45673: L2-HR :0.52328: (Sim:0h22m26s) 
CPU  0 inst:  323000002 cyc:  213328969 now IPC :1.54638: AVG IPC :1.51167: L2-Pf-HR :0.45663: L2-HR :0.52320: (Sim:0h22m30s) 
CPU  0 inst:  324000000 cyc:  213984866 now IPC :1.52463: AVG IPC :1.51171: L2-Pf-HR :0.45651: L2-HR :0.52311: (Sim:0h22m34s) 
CPU  0 inst:  325000002 cyc:  214647254 now IPC :1.50969: AVG IPC :1.51171: L2-Pf-HR :0.45643: L2-HR :0.52302: (Sim:0h22m38s) 
CPU  0 inst:  326000000 cyc:  215305743 now IPC :1.51863: AVG IPC :1.51173: L2-Pf-HR :0.45620: L2-HR :0.52286: (Sim:0h22m43s) 
CPU  0 inst:  327000000 cyc:  215972316 now IPC :1.50021: AVG IPC :1.51169: L2-Pf-HR :0.45599: L2-HR :0.52271: (Sim:0h22m48s) 
CPU  0 inst:  328000000 cyc:  216813523 now IPC :1.18877: AVG IPC :1.51043: L2-Pf-HR :0.45538: L2-HR :0.52240: (Sim:0h22m53s) 
CPU  0 inst:  329000000 cyc:  217464807 now IPC :1.53543: AVG IPC :1.51051: L2-Pf-HR :0.45533: L2-HR :0.52233: (Sim:0h22m57s) 
CPU  0 inst:  330000000 cyc:  218113763 now IPC :1.54094: AVG IPC :1.51060: L2-Pf-HR :0.45529: L2-HR :0.52227: (Sim:0h23m2s) 
CPU  0 inst:  331000003 cyc:  218763518 now IPC :1.53905: AVG IPC :1.51068: L2-Pf-HR :0.45528: L2-HR :0.52222: (Sim:0h23m7s) 
CPU  0 inst:  332000000 cyc:  219416316 now IPC :1.53186: AVG IPC :1.51075: L2-Pf-HR :0.45513: L2-HR :0.52211: (Sim:0h23m11s) 
CPU  0 inst:  333000003 cyc:  220066969 now IPC :1.53692: AVG IPC :1.51082: L2-Pf-HR :0.45497: L2-HR :0.52202: (Sim:0h23m16s) 
CPU  0 inst:  334000000 cyc:  220719598 now IPC :1.53226: AVG IPC :1.51089: L2-Pf-HR :0.45486: L2-HR :0.52196: (Sim:0h23m20s) 
CPU  0 inst:  335000002 cyc:  221350551 now IPC :1.58491: AVG IPC :1.51110: L2-Pf-HR :0.45481: L2-HR :0.52191: (Sim:0h23m25s) 
CPU  0 inst:  336000000 cyc:  221992452 now IPC :1.55787: AVG IPC :1.51124: L2-Pf-HR :0.45472: L2-HR :0.52181: (Sim:0h23m29s) 
CPU  0 inst:  337000000 cyc:  222637007 now IPC :1.55146: AVG IPC :1.51135: L2-Pf-HR :0.45468: L2-HR :0.52175: (Sim:0h23m34s) 
CPU  0 inst:  338000002 cyc:  223275909 now IPC :1.56519: AVG IPC :1.51151: L2-Pf-HR :0.45450: L2-HR :0.52162: (Sim:0h23m38s) 
CPU  0 inst:  339000003 cyc:  223916795 now IPC :1.56034: AVG IPC :1.51165: L2-Pf-HR :0.45433: L2-HR :0.52150: (Sim:0h23m43s) 
CPU  0 inst:  340000000 cyc:  224670365 now IPC :1.32701: AVG IPC :1.51103: L2-Pf-HR :0.45416: L2-HR :0.52145: (Sim:0h23m48s) 
CPU  0 inst:  341000001 cyc:  225321854 now IPC :1.53495: AVG IPC :1.51110: L2-Pf-HR :0.45444: L2-HR :0.52162: (Sim:0h23m53s) 
CPU  0 inst:  342000001 cyc:  225968803 now IPC :1.54572: AVG IPC :1.51120: L2-Pf-HR :0.45502: L2-HR :0.52201: (Sim:0h23m57s) 
CPU  0 inst:  343000000 cyc:  226614065 now IPC :1.54976: AVG IPC :1.51131: L2-Pf-HR :0.45557: L2-HR :0.52241: (Sim:0h24m1s) 
CPU  0 inst:  344000000 cyc:  227252493 now IPC :1.56635: AVG IPC :1.51146: L2-Pf-HR :0.45619: L2-HR :0.52287: (Sim:0h24m4s) 
CPU  0 inst:  345000000 cyc:  227878509 now IPC :1.59740: AVG IPC :1.51170: L2-Pf-HR :0.45677: L2-HR :0.52327: (Sim:0h24m8s) 
CPU  0 inst:  346000000 cyc:  228506818 now IPC :1.59157: AVG IPC :1.51192: L2-Pf-HR :0.45728: L2-HR :0.52360: (Sim:0h24m12s) 
CPU  0 inst:  347000000 cyc:  229140423 now IPC :1.57827: AVG IPC :1.51210: L2-Pf-HR :0.45769: L2-HR :0.52390: (Sim:0h24m15s) 
CPU  0 inst:  348000000 cyc:  229957662 now IPC :1.22363: AVG IPC :1.51107: L2-Pf-HR :0.45742: L2-HR :0.52379: (Sim:0h24m19s) 
CPU  0 inst:  349000002 cyc:  230608939 now IPC :1.53545: AVG IPC :1.51114: L2-Pf-HR :0.45737: L2-HR :0.52371: (Sim:0h24m24s) 
CPU  0 inst:  350000000 cyc:  231265001 now IPC :1.52424: AVG IPC :1.51118: L2-Pf-HR :0.45732: L2-HR :0.52363: (Sim:0h24m29s) 
CPU  0 inst:  351000001 cyc:  231920759 now IPC :1.52495: AVG IPC :1.51122: L2-Pf-HR :0.45725: L2-HR :0.52356: (Sim:0h24m33s) 
CPU  0 inst:  352000000 cyc:  232573731 now IPC :1.53146: AVG IPC :1.51128: L2-Pf-HR :0.45706: L2-HR :0.52344: (Sim:0h24m38s) 
CPU  0 inst:  353000003 cyc:  233236020 now IPC :1.50992: AVG IPC :1.51127: L2-Pf-HR :0.45689: L2-HR :0.52335: (Sim:0h24m43s) 
CPU  0 inst:  354000001 cyc:  233889327 now IPC :1.53067: AVG IPC :1.51133: L2-Pf-HR :0.45680: L2-HR :0.52331: (Sim:0h24m47s) 
CPU  0 inst:  355000000 cyc:  234548778 now IPC :1.51641: AVG IPC :1.51134: L2-Pf-HR :0.45669: L2-HR :0.52323: (Sim:0h24m52s) 
CPU  0 inst:  356000000 cyc:  235211163 now IPC :1.50970: AVG IPC :1.51134: L2-Pf-HR :0.45658: L2-HR :0.52313: (Sim:0h24m57s) 
CPU  0 inst:  357000003 cyc:  235867401 now IPC :1.52384: AVG IPC :1.51137: L2-Pf-HR :0.45648: L2-HR :0.52304: (Sim:0h25m1s) 
CPU  0 inst:  358000000 cyc:  236537022 now IPC :1.49338: AVG IPC :1.51132: L2-Pf-HR :0.45627: L2-HR :0.52289: (Sim:0h25m6s) 
CPU  0 inst:  359000002 cyc:  237205041 now IPC :1.49697: AVG IPC :1.51128: L2-Pf-HR :0.45608: L2-HR :0.52277: (Sim:0h25m10s) 
CPU  0 inst:  360000000 cyc:  238041712 now IPC :1.19521: AVG IPC :1.51016: L2-Pf-HR :0.45560: L2-HR :0.52252: (Sim:0h25m13s) 
CPU  0 inst:  361000003 cyc:  238682063 now IPC :1.56165: AVG IPC :1.51030: L2-Pf-HR :0.45556: L2-HR :0.52246: (Sim:0h25m16s) 
CPU  0 inst:  362000002 cyc:  239320536 now IPC :1.56624: AVG IPC :1.51045: L2-Pf-HR :0.45553: L2-HR :0.52240: (Sim:0h25m20s) 
CPU  0 inst:  363000002 cyc:  239960117 now IPC :1.56352: AVG IPC :1.51059: L2-Pf-HR :0.45548: L2-HR :0.52235: (Sim:0h25m24s) 
CPU  0 inst:  364000000 cyc:  240601720 now IPC :1.55859: AVG IPC :1.51072: L2-Pf-HR :0.45533: L2-HR :0.52224: (Sim:0h25m27s) 
CPU  0 inst:  365000003 cyc:  241244789 now IPC :1.55505: AVG IPC :1.51084: L2-Pf-HR :0.45520: L2-HR :0.52217: (Sim:0h25m32s) 
CPU  0 inst:  366000000 cyc:  241878483 now IPC :1.57804: AVG IPC :1.51102: L2-Pf-HR :0.45514: L2-HR :0.52215: (Sim:0h25m37s) 
CPU  0 inst:  367000000 cyc:  242509108 now IPC :1.58573: AVG IPC :1.51121: L2-Pf-HR :0.45507: L2-HR :0.52208: (Sim:0h25m41s) 
CPU  0 inst:  368000000 cyc:  243139052 now IPC :1.58744: AVG IPC :1.51141: L2-Pf-HR :0.45501: L2-HR :0.52201: (Sim:0h25m44s) 
CPU  0 inst:  369000000 cyc:  243766312 now IPC :1.59424: AVG IPC :1.51163: L2-Pf-HR :0.45491: L2-HR :0.52191: (Sim:0h25m49s) 
CPU  0 inst:  370000002 cyc:  244399001 now IPC :1.58056: AVG IPC :1.51180: L2-Pf-HR :0.45474: L2-HR :0.52179: (Sim:0h25m53s) 
CPU  0 inst:  371000001 cyc:  245061192 now IPC :1.51014: AVG IPC :1.51180: L2-Pf-HR :0.45450: L2-HR :0.52163: (Sim:0h25m58s) 
CPU  0 inst:  372000000 cyc:  245784966 now IPC :1.38165: AVG IPC :1.51142: L2-Pf-HR :0.45461: L2-HR :0.52176: (Sim:0h26m3s) 
CPU  0 inst:  373000000 cyc:  246434239 now IPC :1.54018: AVG IPC :1.51149: L2-Pf-HR :0.45497: L2-HR :0.52199: (Sim:0h26m7s) 
CPU  0 inst:  374000002 cyc:  247078027 now IPC :1.55331: AVG IPC :1.51160: L2-Pf-HR :0.45550: L2-HR :0.52237: (Sim:0h26m12s) 
CPU  0 inst:  375000000 cyc:  247725345 now IPC :1.54483: AVG IPC :1.51169: L2-Pf-HR :0.45600: L2-HR :0.52275: (Sim:0h26m16s) 
CPU  0 inst:  376000000 cyc:  248350541 now IPC :1.59950: AVG IPC :1.51191: L2-Pf-HR :0.45657: L2-HR :0.52315: (Sim:0h26m21s) 
CPU  0 inst:  377000003 cyc:  248973273 now IPC :1.60583: AVG IPC :1.51215: L2-Pf-HR :0.45711: L2-HR :0.52351: (Sim:0h26m25s) 
CPU  0 inst:  378000002 cyc:  249601210 now IPC :1.59251: AVG IPC :1.51235: L2-Pf-HR :0.45742: L2-HR :0.52372: (Sim:0h26m30s) 
CPU  0 inst:  379000002 cyc:  250389863 now IPC :1.26798: AVG IPC :1.51158: L2-Pf-HR :0.45749: L2-HR :0.52385: (Sim:0h26m35s) 
CPU  0 inst:  380000000 cyc:  251069270 now IPC :1.47187: AVG IPC :1.51147: L2-Pf-HR :0.45740: L2-HR :0.52376: (Sim:0h26m39s) 
CPU  0 inst:  381000000 cyc:  251733584 now IPC :1.50531: AVG IPC :1.51145: L2-Pf-HR :0.45734: L2-HR :0.52368: (Sim:0h26m44s) 
CPU  0 inst:  382000003 cyc:  252391798 now IPC :1.51927: AVG IPC :1.51147: L2-Pf-HR :0.45731: L2-HR :0.52362: (Sim:0h26m49s) 
CPU  0 inst:  383000000 cyc:  253052085 now IPC :1.51449: AVG IPC :1.51148: L2-Pf-HR :0.45718: L2-HR :0.52352: (Sim:0h26m53s) 
CPU  0 inst:  384000000 cyc:  253720415 now IPC :1.49627: AVG IPC :1.51144: L2-Pf-HR :0.45701: L2-HR :0.52342: (Sim:0h26m58s) 
CPU  0 inst:  385000003 cyc:  254384243 now IPC :1.50642: AVG IPC :1.51143: L2-Pf-HR :0.45687: L2-HR :0.52336: (Sim:0h27m3s) 
CPU  0 inst:  386000000 cyc:  255043891 now IPC :1.51596: AVG IPC :1.51144: L2-Pf-HR :0.45680: L2-HR :0.52331: (Sim:0h27m7s) 
CPU  0 inst:  387000001 cyc:  255706514 now IPC :1.50916: AVG IPC :1.51143: L2-Pf-HR :0.45670: L2-HR :0.52325: (Sim:0h27m11s) 
CPU  0 inst:  388000000 cyc:  256365393 now IPC :1.51773: AVG IPC :1.51145: L2-Pf-HR :0.45664: L2-HR :0.52317: (Sim:0h27m14s) 
CPU  0 inst:  389000000 cyc:  257033415 now IPC :1.49696: AVG IPC :1.51141: L2-Pf-HR :0.45646: L2-HR :0.52304: (Sim:0h27m19s) 
CPU  0 inst:  390000001 cyc:  257704668 now IPC :1.48975: AVG IPC :1.51135: L2-Pf-HR :0.45628: L2-HR :0.52291: (Sim:0h27m24s) 
CPU  0 inst:  391000003 cyc:  258534342 now IPC :1.20530: AVG IPC :1.51037: L2-Pf-HR :0.45578: L2-HR :0.52265: (Sim:0h27m29s) 
CPU  0 inst:  392000000 cyc:  259204185 now IPC :1.49288: AVG IPC :1.51032: L2-Pf-HR :0.45572: L2-HR :0.52259: (Sim:0h27m33s) 
CPU  0 inst:  393000002 cyc:  259857153 now IPC :1.53147: AVG IPC :1.51038: L2-Pf-HR :0.45568: L2-HR :0.52254: (Sim:0h27m38s) 
CPU  0 inst:  394000003 cyc:  260508781 now IPC :1.53462: AVG IPC :1.51044: L2-Pf-HR :0.45568: L2-HR :0.52250: (Sim:0h27m42s) 
CPU  0 inst:  395000000 cyc:  261159908 now IPC :1.53579: AVG IPC :1.51050: L2-Pf-HR :0.45557: L2-HR :0.52242: (Sim:0h27m45s) 
CPU  0 inst:  396000000 cyc:  261811368 now IPC :1.53501: AVG IPC :1.51056: L2-Pf-HR :0.45543: L2-HR :0.52233: (Sim:0h27m48s) 
CPU  0 inst:  397000001 cyc:  262463761 now IPC :1.53282: AVG IPC :1.51062: L2-Pf-HR :0.45534: L2-HR :0.52229: (Sim:0h27m51s) 
CPU  0 inst:  398000001 cyc:  263104179 now IPC :1.56148: AVG IPC :1.51074: L2-Pf-HR :0.45530: L2-HR :0.52225: (Sim:0h27m56s) 
CPU  0 inst:  399000000 cyc:  263746474 now IPC :1.55692: AVG IPC :1.51085: L2-Pf-HR :0.45522: L2-HR :0.52217: (Sim:0h28m0s) 
CPU  0 inst:  400000000 cyc:  264387670 now IPC :1.55959: AVG IPC :1.51097: L2-Pf-HR :0.45518: L2-HR :0.52211: (Sim:0h28m5s) 
CPU  0 inst:  401000000 cyc:  265032305 now IPC :1.55127: AVG IPC :1.51107: L2-Pf-HR :0.45502: L2-HR :0.52200: (Sim:0h28m9s) 
CPU  0 inst:  402000003 cyc:  265677671 now IPC :1.54951: AVG IPC :1.51117: L2-Pf-HR :0.45487: L2-HR :0.52189: (Sim:0h28m13s) 
CPU  0 inst:  403000003 cyc:  266425313 now IPC :1.33754: AVG IPC :1.51068: L2-Pf-HR :0.45466: L2-HR :0.52180: (Sim:0h28m18s) 
CPU  0 inst:  404000000 cyc:  267077167 now IPC :1.53408: AVG IPC :1.51073: L2-Pf-HR :0.45491: L2-HR :0.52195: (Sim:0h28m23s) 
CPU  0 inst:  405000000 cyc:  267723996 now IPC :1.54600: AVG IPC :1.51082: L2-Pf-HR :0.45538: L2-HR :0.52227: (Sim:0h28m27s) 
CPU  0 inst:  406000003 cyc:  268369668 now IPC :1.54878: AVG IPC :1.51091: L2-Pf-HR :0.45583: L2-HR :0.52260: (Sim:0h28m32s) 
CPU  0 inst:  407000002 cyc:  269009434 now IPC :1.56307: AVG IPC :1.51104: L2-Pf-HR :0.45635: L2-HR :0.52299: (Sim:0h28m36s) 
CPU  0 inst:  408000000 cyc:  269630589 now IPC :1.60990: AVG IPC :1.51126: L2-Pf-HR :0.45682: L2-HR :0.52331: (Sim:0h28m41s) 
CPU  0 inst:  409000001 cyc:  270250228 now IPC :1.61384: AVG IPC :1.51150: L2-Pf-HR :0.45728: L2-HR :0.52361: (Sim:0h28m45s) 
CPU  0 inst:  410000003 cyc:  270879050 now IPC :1.59028: AVG IPC :1.51168: L2-Pf-HR :0.45756: L2-HR :0.52382: (Sim:0h28m50s) 
CPU  0 inst:  411000001 cyc:  271687797 now IPC :1.23648: AVG IPC :1.51086: L2-Pf-HR :0.45742: L2-HR :0.52379: (Sim:0h28m55s) 
CPU  0 inst:  412000000 cyc:  272339985 now IPC :1.53330: AVG IPC :1.51092: L2-Pf-HR :0.45737: L2-HR :0.52372: (Sim:0h28m59s) 
CPU  0 inst:  413000000 cyc:  272996125 now IPC :1.52407: AVG IPC :1.51095: L2-Pf-HR :0.45732: L2-HR :0.52364: (Sim:0h29m4s) 
CPU  0 inst:  414000003 cyc:  273650062 now IPC :1.52920: AVG IPC :1.51099: L2-Pf-HR :0.45728: L2-HR :0.52359: (Sim:0h29m8s) 
CPU  0 inst:  415000003 cyc:  274312194 now IPC :1.51027: AVG IPC :1.51099: L2-Pf-HR :0.45712: L2-HR :0.52349: (Sim:0h29m13s) 
CPU  0 inst:  416000000 cyc:  274969421 now IPC :1.52154: AVG IPC :1.51101: L2-Pf-HR :0.45696: L2-HR :0.52340: (Sim:0h29m16s) 
CPU  0 inst:  417000003 cyc:  275633971 now IPC :1.50478: AVG IPC :1.51100: L2-Pf-HR :0.45687: L2-HR :0.52337: (Sim:0h29m20s) 
CPU  0 inst:  418000001 cyc:  276293392 now IPC :1.51648: AVG IPC :1.51101: L2-Pf-HR :0.45678: L2-HR :0.52330: (Sim:0h29m25s) 
CPU  0 inst:  419000002 cyc:  276945419 now IPC :1.53368: AVG IPC :1.51107: L2-Pf-HR :0.45668: L2-HR :0.52321: (Sim:0h29m30s) 
CPU  0 inst:  420000000 cyc:  277608528 now IPC :1.50804: AVG IPC :1.51106: L2-Pf-HR :0.45662: L2-HR :0.52315: (Sim:0h29m34s) 
CPU  0 inst:  421000003 cyc:  278271943 now IPC :1.50736: AVG IPC :1.51105: L2-Pf-HR :0.45643: L2-HR :0.52302: (Sim:0h29m39s) 
CPU  0 inst:  422000000 cyc:  278944098 now IPC :1.48775: AVG IPC :1.51099: L2-Pf-HR :0.45627: L2-HR :0.52291: (Sim:0h29m44s) 
CPU  0 inst:  423000000 cyc:  279781640 now IPC :1.19397: AVG IPC :1.51004: L2-Pf-HR :0.45584: L2-HR :0.52270: (Sim:0h29m49s) 
CPU  0 inst:  424000000 cyc:  280426769 now IPC :1.55008: AVG IPC :1.51013: L2-Pf-HR :0.45581: L2-HR :0.52264: (Sim:0h29m53s) 
CPU  0 inst:  425000002 cyc:  281071211 now IPC :1.55173: AVG IPC :1.51023: L2-Pf-HR :0.45578: L2-HR :0.52260: (Sim:0h29m58s) 
CPU  0 inst:  426000003 cyc:  281718050 now IPC :1.54598: AVG IPC :1.51031: L2-Pf-HR :0.45576: L2-HR :0.52256: (Sim:0h30m2s) 
CPU  0 inst:  427000003 cyc:  282362431 now IPC :1.55188: AVG IPC :1.51041: L2-Pf-HR :0.45562: L2-HR :0.52246: (Sim:0h30m6s) 
CPU  0 inst:  428000000 cyc:  283006027 now IPC :1.55377: AVG IPC :1.51051: L2-Pf-HR :0.45551: L2-HR :0.52240: (Sim:0h30m11s) 
CPU  0 inst:  429000003 cyc:  283648145 now IPC :1.55735: AVG IPC :1.51061: L2-Pf-HR :0.45545: L2-HR :0.52237: (Sim:0h30m15s) 
CPU  0 inst:  430000002 cyc:  284272854 now IPC :1.60074: AVG IPC :1.51081: L2-Pf-HR :0.45538: L2-HR :0.52230: (Sim:0h30m19s) 
CPU  0 inst:  431000003 cyc:  284907041 now IPC :1.57682: AVG IPC :1.51096: L2-Pf-HR :0.45530: L2-HR :0.52223: (Sim:0h30m23s) 
CPU  0 inst:  432000000 cyc:  285543645 now IPC :1.57083: AVG IPC :1.51109: L2-Pf-HR :0.45523: L2-HR :0.52215: (Sim:0h30m28s) 
CPU  0 inst:  433000002 cyc:  286181644 now IPC :1.56740: AVG IPC :1.51122: L2-Pf-HR :0.45507: L2-HR :0.52204: (Sim:0h30m32s) 
CPU  0 inst:  434000001 cyc:  286826961 now IPC :1.54962: AVG IPC :1.51131: L2-Pf-HR :0.45493: L2-HR :0.52194: (Sim:0h30m35s) 
CPU  0 inst:  435000001 cyc:  287568169 now IPC :1.34915: AVG IPC :1.51089: L2-Pf-HR :0.45494: L2-HR :0.52199: (Sim:0h30m40s) 
CPU  0 inst:  436000000 cyc:  288209695 now IPC :1.55878: AVG IPC :1.51099: L2-Pf-HR :0.45518: L2-HR :0.52215: (Sim:0h30m44s) 
CPU  0 inst:  437000003 cyc:  288847671 now IPC :1.56746: AVG IPC :1.51112: L2-Pf-HR :0.45566: L2-HR :0.52248: (Sim:0h30m49s) 
CPU  0 inst:  438000002 cyc:  289487653 now IPC :1.56254: AVG IPC :1.51123: L2-Pf-HR :0.45610: L2-HR :0.52281: (Sim:0h30m53s) 
CPU  0 inst:  439000001 cyc:  290105410 now IPC :1.61876: AVG IPC :1.51146: L2-Pf-HR :0.45654: L2-HR :0.52313: (Sim:0h30m57s) 
CPU  0 inst:  440000000 cyc:  290725057 now IPC :1.61382: AVG IPC :1.51168: L2-Pf-HR :0.45701: L2-HR :0.52344: (Sim:0h31m1s) 
CPU  0 inst:  441000001 cyc:  291345597 now IPC :1.61150: AVG IPC :1.51189: L2-Pf-HR :0.45732: L2-HR :0.52365: (Sim:0h31m6s) 
CPU  0 inst:  442000003 cyc:  292041353 now IPC :1.43729: AVG IPC :1.51172: L2-Pf-HR :0.45759: L2-HR :0.52388: (Sim:0h31m10s) 
CPU  0 inst:  443000003 cyc:  292812177 now IPC :1.29731: AVG IPC :1.51115: L2-Pf-HR :0.45736: L2-HR :0.52374: (Sim:0h31m15s) 
CPU  0 inst:  444000000 cyc:  293471230 now IPC :1.51732: AVG IPC :1.51116: L2-Pf-HR :0.45731: L2-HR :0.52367: (Sim:0h31m19s) 
CPU  0 inst:  445000000 cyc:  294124979 now IPC :1.52964: AVG IPC :1.51120: L2-Pf-HR :0.45729: L2-HR :0.52362: (Sim:0h31m24s) 
CPU  0 inst:  446000003 cyc:  294787997 now IPC :1.50826: AVG IPC :1.51120: L2-Pf-HR :0.45719: L2-HR :0.52355: (Sim:0h31m29s) 
CPU  0 inst:  447000000 cyc:  295445020 now IPC :1.52201: AVG IPC :1.51122: L2-Pf-HR :0.45704: L2-HR :0.52345: (Sim:0h31m33s) 
CPU  0 inst:  448000000 cyc:  296121014 now IPC :1.47930: AVG IPC :1.51115: L2-Pf-HR :0.45691: L2-HR :0.52339: (Sim:0h31m38s) 
CPU  0 inst:  449000001 cyc:  296777752 now IPC :1.52268: AVG IPC :1.51117: L2-Pf-HR :0.45685: L2-HR :0.52336: (Sim:0h31m43s) 
CPU  0 inst:  450000001 cyc:  297424522 now IPC :1.54614: AVG IPC :1.51125: L2-Pf-HR :0.45678: L2-HR :0.52331: (Sim:0h31m47s) 
CPU  0 inst:  451000001 cyc:  298088186 now IPC :1.50679: AVG IPC :1.51124: L2-Pf-HR :0.45670: L2-HR :0.52323: (Sim:0h31m52s) 
CPU  0 inst:  452000000 cyc:  298748468 now IPC :1.51450: AVG IPC :1.51125: L2-Pf-HR :0.45657: L2-HR :0.52313: (Sim:0h31m56s) 
CPU  0 inst:  453000003 cyc:  299425166 now IPC :1.47777: AVG IPC :1.51117: L2-Pf-HR :0.45641: L2-HR :0.52302: (Sim:0h32m1s) 
CPU  0 inst:  454000001 cyc:  300233653 now IPC :1.23688: AVG IPC :1.51043: L2-Pf-HR :0.45597: L2-HR :0.52279: (Sim:0h32m6s) 
CPU  0 inst:  455000002 cyc:  300919833 now IPC :1.45735: AVG IPC :1.51031: L2-Pf-HR :0.45592: L2-HR :0.52274: (Sim:0h32m10s) 
CPU  0 inst:  456000000 cyc:  301568997 now IPC :1.54044: AVG IPC :1.51037: L2-Pf-HR :0.45589: L2-HR :0.52269: (Sim:0h32m15s) 
CPU  0 inst:  457000001 cyc:  302218392 now IPC :1.53990: AVG IPC :1.51044: L2-Pf-HR :0.45588: L2-HR :0.52266: (Sim:0h32m19s) 
CPU  0 inst:  458000000 cyc:  302865366 now IPC :1.54566: AVG IPC :1.51051: L2-Pf-HR :0.45580: L2-HR :0.52260: (Sim:0h32m24s) 
CPU  0 inst:  459000002 cyc:  303513407 now IPC :1.54312: AVG IPC :1.51058: L2-Pf-HR :0.45568: L2-HR :0.52252: (Sim:0h32m28s) 
CPU  0 inst:  460000000 cyc:  304167277 now IPC :1.52935: AVG IPC :1.51062: L2-Pf-HR :0.45557: L2-HR :0.52247: (Sim:0h32m33s) 
CPU  0 inst:  461000000 cyc:  304800037 now IPC :1.58038: AVG IPC :1.51077: L2-Pf-HR :0.45554: L2-HR :0.52243: (Sim:0h32m37s) 
CPU  0 inst:  462000001 cyc:  305441238 now IPC :1.55957: AVG IPC :1.51087: L2-Pf-HR :0.45549: L2-HR :0.52239: (Sim:0h32m42s) 
CPU  0 inst:  463000002 cyc:  306083807 now IPC :1.55625: AVG IPC :1.51097: L2-Pf-HR :0.45545: L2-HR :0.52233: (Sim:0h32m47s) 
CPU  0 inst:  464000000 cyc:  306727255 now IPC :1.55412: AVG IPC :1.51106: L2-Pf-HR :0.45532: L2-HR :0.52222: (Sim:0h32m51s) 
CPU  0 inst:  465000002 cyc:  307370578 now IPC :1.55443: AVG IPC :1.51115: L2-Pf-HR :0.45520: L2-HR :0.52214: (Sim:0h32m56s) 
CPU  0 inst:  466000000 cyc:  308126451 now IPC :1.32297: AVG IPC :1.51069: L2-Pf-HR :0.45494: L2-HR :0.52200: (Sim:0h33m0s) 
CPU  0 inst:  467000000 cyc:  308774918 now IPC :1.54210: AVG IPC :1.51075: L2-Pf-HR :0.45518: L2-HR :0.52216: (Sim:0h33m5s) 
CPU  0 inst:  468000000 cyc:  309417975 now IPC :1.55507: AVG IPC :1.51084: L2-Pf-HR :0.45557: L2-HR :0.52242: (Sim:0h33m9s) 
CPU  0 inst:  469000001 cyc:  310058856 now IPC :1.56035: AVG IPC :1.51095: L2-Pf-HR :0.45594: L2-HR :0.52270: (Sim:0h33m14s) 
CPU  0 inst:  470000001 cyc:  310697840 now IPC :1.56498: AVG IPC :1.51106: L2-Pf-HR :0.45640: L2-HR :0.52303: (Sim:0h33m19s) 
CPU  0 inst:  471000001 cyc:  311319160 now IPC :1.60948: AVG IPC :1.51126: L2-Pf-HR :0.45683: L2-HR :0.52333: (Sim:0h33m23s) 
CPU  0 inst:  472000000 cyc:  311936632 now IPC :1.61951: AVG IPC :1.51147: L2-Pf-HR :0.45724: L2-HR :0.52360: (Sim:0h33m28s) 
CPU  0 inst:  473000000 cyc:  312570265 now IPC :1.57820: AVG IPC :1.51161: L2-Pf-HR :0.45749: L2-HR :0.52378: (Sim:0h33m33s) 
CPU  0 inst:  474000002 cyc:  313386747 now IPC :1.22477: AVG IPC :1.51086: L2-Pf-HR :0.45741: L2-HR :0.52379: (Sim:0h33m37s) 
CPU  0 inst:  475000003 cyc:  314037709 now IPC :1.53619: AVG IPC :1.51091: L2-Pf-HR :0.45736: L2-HR :0.52372: (Sim:0h33m42s) 
CPU  0 inst:  476000000 cyc:  314693499 now IPC :1.52487: AVG IPC :1.51094: L2-Pf-HR :0.45731: L2-HR :0.52366: (Sim:0h33m46s) 
CPU  0 inst:  477000000 cyc:  315351013 now IPC :1.52088: AVG IPC :1.51096: L2-Pf-HR :0.45729: L2-HR :0.52362: (Sim:0h33m49s) 
CPU  0 inst:  478000000 cyc:  316015425 now IPC :1.50509: AVG IPC :1.51095: L2-Pf-HR :0.45715: L2-HR :0.52353: (Sim:0h33m54s) 
CPU  0 inst:  479000000 cyc:  316683745 now IPC :1.49629: AVG IPC :1.51092: L2-Pf-HR :0.45703: L2-HR :0.52346: (Sim:0h33m58s) 
CPU  0 inst:  480000000 cyc:  317354773 now IPC :1.49025: AVG IPC :1.51087: L2-Pf-HR :0.45694: L2-HR :0.52342: (Sim:0h34m1s) 
CPU  0 inst:  481000002 cyc:  318007586 now IPC :1.53184: AVG IPC :1.51092: L2-Pf-HR :0.45686: L2-HR :0.52337: (Sim:0h34m5s) 
CPU  0 inst:  482000001 cyc:  318666668 now IPC :1.51726: AVG IPC :1.51093: L2-Pf-HR :0.45678: L2-HR :0.52330: (Sim:0h34m9s) 
CPU  0 inst:  483000001 cyc:  319332162 now IPC :1.50264: AVG IPC :1.51091: L2-Pf-HR :0.45672: L2-HR :0.52323: (Sim:0h34m12s) 
CPU  0 inst:  484000000 cyc:  320002041 now IPC :1.49281: AVG IPC :1.51087: L2-Pf-HR :0.45656: L2-HR :0.52312: (Sim:0h34m17s) 
CPU  0 inst:  485000003 cyc:  320675321 now IPC :1.48527: AVG IPC :1.51082: L2-Pf-HR :0.45641: L2-HR :0.52303: (Sim:0h34m21s) 
CPU  0 inst:  486000000 cyc:  321513736 now IPC :1.19272: AVG IPC :1.50999: L2-Pf-HR :0.45603: L2-HR :0.52283: (Sim:0h34m26s) 
CPU  0 inst:  487000001 cyc:  322166081 now IPC :1.53293: AVG IPC :1.51003: L2-Pf-HR :0.45601: L2-HR :0.52279: (Sim:0h34m31s) 
CPU  0 inst:  488000000 cyc:  322817199 now IPC :1.53582: AVG IPC :1.51009: L2-Pf-HR :0.45598: L2-HR :0.52274: (Sim:0h34m35s) 
CPU  0 inst:  489000002 cyc:  323469656 now IPC :1.53267: AVG IPC :1.51013: L2-Pf-HR :0.45597: L2-HR :0.52272: (Sim:0h34m40s) 
CPU  0 inst:  490000000 cyc:  324121562 now IPC :1.53396: AVG IPC :1.51018: L2-Pf-HR :0.45585: L2-HR :0.52264: (Sim:0h34m44s) 
CPU  0 inst:  491000003 cyc:  324773151 now IPC :1.53471: AVG IPC :1.51023: L2-Pf-HR :0.45574: L2-HR :0.52257: (Sim:0h34m49s) 
CPU  0 inst:  492000000 cyc:  325425111 now IPC :1.53383: AVG IPC :1.51028: L2-Pf-HR :0.45570: L2-HR :0.52255: (Sim:0h34m53s) 
CPU  0 inst:  493000000 cyc:  326065205 now IPC :1.56227: AVG IPC :1.51038: L2-Pf-HR :0.45565: L2-HR :0.52251: (Sim:0h34m58s) 
CPU  0 inst:  494000003 cyc:  326707127 now IPC :1.55783: AVG IPC :1.51047: L2-Pf-HR :0.45558: L2-HR :0.52244: (Sim:0h35m2s) 
CPU  0 inst:  495000000 cyc:  327346213 now IPC :1.56473: AVG IPC :1.51058: L2-Pf-HR :0.45553: L2-HR :0.52238: (Sim:0h35m7s) 
CPU  0 inst:  496000000 cyc:  327986132 now IPC :1.56270: AVG IPC :1.51068: L2-Pf-HR :0.45540: L2-HR :0.52229: (Sim:0h35m11s) 
CPU  0 inst:  497000001 cyc:  328628754 now IPC :1.55613: AVG IPC :1.51077: L2-Pf-HR :0.45528: L2-HR :0.52220: (Sim:0h35m16s) 
CPU  0 inst:  498000000 cyc:  329383803 now IPC :1.32442: AVG IPC :1.51034: L2-Pf-HR :0.45521: L2-HR :0.52219: (Sim:0h35m20s) 
CPU  0 inst:  499000000 cyc:  330035743 now IPC :1.53388: AVG IPC :1.51039: L2-Pf-HR :0.45542: L2-HR :0.52232: (Sim:0h35m25s) 
CPU  0 inst:  500000000 cyc:  330683703 now IPC :1.54331: AVG IPC :1.51045: L2-Pf-HR :0.45584: L2-HR :0.52261: (Sim:0h35m30s) 
CPU  0 inst:  501000001 cyc:  331329557 now IPC :1.54834: AVG IPC :1.51053: L2-Pf-HR :0.45621: L2-HR :0.52288: (Sim:0h35m34s) 
CPU  0 inst:  502000000 cyc:  331965397 now IPC :1.57272: AVG IPC :1.51065: L2-Pf-HR :0.45663: L2-HR :0.52319: (Sim:0h35m39s) 
CPU  0 inst:  503000003 cyc:  332591668 now IPC :1.59676: AVG IPC :1.51081: L2-Pf-HR :0.45705: L2-HR :0.52347: (Sim:0h35m43s) 
CPU  0 inst:  504000000 cyc:  333222078 now IPC :1.58626: AVG IPC :1.51095: L2-Pf-HR :0.45734: L2-HR :0.52366: (Sim:0h35m46s) 
CPU  0 inst:  505000002 cyc:  333856958 now IPC :1.57510: AVG IPC :1.51107: L2-Pf-HR :0.45767: L2-HR :0.52391: (Sim:0h35m51s) 
CPU  0 inst:  506000000 cyc:  339390262 now IPC :0.18072: AVG IPC :1.48932: L2-Pf-HR :0.45432: L2-HR :0.52363: (Sim:0h36m5s) 
CPU  0 inst:  507000001 cyc:  345884274 now IPC :0.15399: AVG IPC :1.46418: L2-Pf-HR :0.45045: L2-HR :0.52335: (Sim:0h36m21s) 
CPU  0 inst:  508000000 cyc:  352384262 now IPC :0.15385: AVG IPC :1.43994: L2-Pf-HR :0.44664: L2-HR :0.52309: (Sim:0h36m37s) 
CPU  0 inst:  509000001 cyc:  358882021 now IPC :0.15390: AVG IPC :1.41659: L2-Pf-HR :0.44291: L2-HR :0.52283: (Sim:0h36m53s) 
CPU  0 inst:  510000000 cyc:  365381759 now IPC :0.15385: AVG IPC :1.39407: L2-Pf-HR :0.43924: L2-HR :0.52258: (Sim:0h37m9s) 
CPU  0 inst:  511000000 cyc:  371886424 now IPC :0.15374: AVG IPC :1.37232: L2-Pf-HR :0.43563: L2-HR :0.52235: (Sim:0h37m26s) 
CPU  0 inst:  512000000 cyc:  378394863 now IPC :0.15365: AVG IPC :1.35130: L2-Pf-HR :0.43208: L2-HR :0.52211: (Sim:0h37m42s) 
CPU  0 inst:  513000001 cyc:  384894937 now IPC :0.15384: AVG IPC :1.33103: L2-Pf-HR :0.42859: L2-HR :0.52188: (Sim:0h37m53s) 
CPU  0 inst:  514000000 cyc:  391398965 now IPC :0.15375: AVG IPC :1.31142: L2-Pf-HR :0.42516: L2-HR :0.52166: (Sim:0h38m4s) 
CPU  0 inst:  515000003 cyc:  396706954 now IPC :0.18840: AVG IPC :1.29635: L2-Pf-HR :0.42308: L2-HR :0.52141: (Sim:0h38m16s) 
CPU  0 inst:  516000000 cyc:  400286638 now IPC :0.27935: AVG IPC :1.28724: L2-Pf-HR :0.42277: L2-HR :0.52120: (Sim:0h38m26s) 
CPU  0 inst:  517000003 cyc:  403864373 now IPC :0.27951: AVG IPC :1.27829: L2-Pf-HR :0.42246: L2-HR :0.52099: (Sim:0h38m35s) 
CPU  0 inst:  518000000 cyc:  407440687 now IPC :0.27962: AVG IPC :1.26950: L2-Pf-HR :0.42215: L2-HR :0.52078: (Sim:0h38m45s) 
CPU  0 inst:  519000001 cyc:  411016355 now IPC :0.27967: AVG IPC :1.26087: L2-Pf-HR :0.42184: L2-HR :0.52056: (Sim:0h38m54s) 
CPU  0 inst:  520000000 cyc:  414592120 now IPC :0.27966: AVG IPC :1.25239: L2-Pf-HR :0.42154: L2-HR :0.52035: (Sim:0h39m3s) 
CPU  0 inst:  521000000 cyc:  418166411 now IPC :0.27978: AVG IPC :1.24405: L2-Pf-HR :0.42123: L2-HR :0.52014: (Sim:0h39m13s) 
CPU  0 inst:  522000003 cyc:  421741960 now IPC :0.27968: AVG IPC :1.23586: L2-Pf-HR :0.42093: L2-HR :0.51993: (Sim:0h39m22s) 
CPU  0 inst:  523000001 cyc:  425319013 now IPC :0.27956: AVG IPC :1.22780: L2-Pf-HR :0.42062: L2-HR :0.51973: (Sim:0h39m32s) 
CPU  0 inst:  524000000 cyc:  428892865 now IPC :0.27981: AVG IPC :1.21988: L2-Pf-HR :0.42032: L2-HR :0.51952: (Sim:0h39m41s) 
CPU  0 inst:  525000000 cyc:  432467057 now IPC :0.27978: AVG IPC :1.21209: L2-Pf-HR :0.42001: L2-HR :0.51931: (Sim:0h39m51s) 
CPU  0 inst:  526000000 cyc:  436041737 now IPC :0.27975: AVG IPC :1.20443: L2-Pf-HR :0.41971: L2-HR :0.51910: (Sim:0h40m0s) 
CPU  0 inst:  527000000 cyc:  439616453 now IPC :0.27974: AVG IPC :1.19689: L2-Pf-HR :0.41941: L2-HR :0.51890: (Sim:0h40m10s) 
CPU  0 inst:  528000000 cyc:  443188486 now IPC :0.27995: AVG IPC :1.18949: L2-Pf-HR :0.41910: L2-HR :0.51869: (Sim:0h40m18s) 
CPU  0 inst:  529000000 cyc:  446762597 now IPC :0.27979: AVG IPC :1.18219: L2-Pf-HR :0.41881: L2-HR :0.51849: (Sim:0h40m28s) 
CPU  0 inst:  530000001 cyc:  450342265 now IPC :0.27936: AVG IPC :1.17500: L2-Pf-HR :0.41850: L2-HR :0.51828: (Sim:0h40m37s) 
CPU  0 inst:  531000000 cyc:  453917802 now IPC :0.27968: AVG IPC :1.16793: L2-Pf-HR :0.41820: L2-HR :0.51808: (Sim:0h40m46s) 
CPU  0 inst:  532000000 cyc:  457491172 now IPC :0.27985: AVG IPC :1.16098: L2-Pf-HR :0.41790: L2-HR :0.51787: (Sim:0h40m55s) 
CPU  0 inst:  533000003 cyc:  461068494 now IPC :0.27954: AVG IPC :1.15413: L2-Pf-HR :0.41760: L2-HR :0.51767: (Sim:0h41m5s) 
CPU  0 inst:  534000003 cyc:  464644536 now IPC :0.27964: AVG IPC :1.14738: L2-Pf-HR :0.41730: L2-HR :0.51747: (Sim:0h41m13s) 
CPU  0 inst:  535000000 cyc:  468218671 now IPC :0.27979: AVG IPC :1.14075: L2-Pf-HR :0.41701: L2-HR :0.51727: (Sim:0h41m20s) 
CPU  0 inst:  536000000 cyc:  471794864 now IPC :0.27963: AVG IPC :1.13421: L2-Pf-HR :0.41671: L2-HR :0.51706: (Sim:0h41m28s) 
CPU  0 inst:  537000003 cyc:  475370499 now IPC :0.27967: AVG IPC :1.12777: L2-Pf-HR :0.41641: L2-HR :0.51686: (Sim:0h41m35s) 
CPU  0 inst:  538000003 cyc:  478944262 now IPC :0.27982: AVG IPC :1.12143: L2-Pf-HR :0.41612: L2-HR :0.51666: (Sim:0h41m41s) 
CPU  0 inst:  539000000 cyc:  482517387 now IPC :0.27987: AVG IPC :1.11518: L2-Pf-HR :0.41582: L2-HR :0.51646: (Sim:0h41m47s) 
CPU  0 inst:  540000000 cyc:  486094037 now IPC :0.27959: AVG IPC :1.10902: L2-Pf-HR :0.41553: L2-HR :0.51627: (Sim:0h41m53s) 
CPU  0 inst:  541000002 cyc:  489667680 now IPC :0.27983: AVG IPC :1.10296: L2-Pf-HR :0.41523: L2-HR :0.51607: (Sim:0h41m59s) 
CPU  0 inst:  542000000 cyc:  493242208 now IPC :0.27976: AVG IPC :1.09698: L2-Pf-HR :0.41494: L2-HR :0.51587: (Sim:0h42m5s) 
CPU  0 inst:  543000000 cyc:  496816573 now IPC :0.27977: AVG IPC :1.09109: L2-Pf-HR :0.41465: L2-HR :0.51567: (Sim:0h42m11s) 
CPU  0 inst:  544000000 cyc:  500391638 now IPC :0.27972: AVG IPC :1.08528: L2-Pf-HR :0.41436: L2-HR :0.51548: (Sim:0h42m18s) 
CPU  0 inst:  545000001 cyc:  503970814 now IPC :0.27939: AVG IPC :1.07955: L2-Pf-HR :0.41407: L2-HR :0.51528: (Sim:0h42m24s) 
CPU  0 inst:  546000000 cyc:  507544904 now IPC :0.27979: AVG IPC :1.07390: L2-Pf-HR :0.41378: L2-HR :0.51509: (Sim:0h42m30s) 
CPU  0 inst:  547000000 cyc:  511119627 now IPC :0.27974: AVG IPC :1.06834: L2-Pf-HR :0.41349: L2-HR :0.51489: (Sim:0h42m36s) 
CPU  0 inst:  548000000 cyc:  514694375 now IPC :0.27974: AVG IPC :1.06285: L2-Pf-HR :0.41320: L2-HR :0.51470: (Sim:0h42m42s) 
CPU  0 inst:  549000002 cyc:  518269848 now IPC :0.27968: AVG IPC :1.05744: L2-Pf-HR :0.41291: L2-HR :0.51450: (Sim:0h42m49s) 
CPU  0 inst:  550000003 cyc:  521845336 now IPC :0.27968: AVG IPC :1.05210: L2-Pf-HR :0.41262: L2-HR :0.51431: (Sim:0h42m58s) 
CPU  0 inst:  551000002 cyc:  525419706 now IPC :0.27977: AVG IPC :1.04683: L2-Pf-HR :0.41233: L2-HR :0.51412: (Sim:0h43m4s) 
CPU  0 inst:  552000000 cyc:  528996490 now IPC :0.27958: AVG IPC :1.04164: L2-Pf-HR :0.41205: L2-HR :0.51393: (Sim:0h43m10s) 
CPU  0 inst:  553000002 cyc:  532572233 now IPC :0.27966: AVG IPC :1.03651: L2-Pf-HR :0.41176: L2-HR :0.51373: (Sim:0h43m17s) 
CPU  0 inst:  554000003 cyc:  536145925 now IPC :0.27982: AVG IPC :1.03146: L2-Pf-HR :0.41147: L2-HR :0.51354: (Sim:0h43m26s) 
CPU  0 inst:  555000003 cyc:  539720211 now IPC :0.27978: AVG IPC :1.02647: L2-Pf-HR :0.41119: L2-HR :0.51335: (Sim:0h43m35s) 
CPU  0 inst:  556000000 cyc:  543294042 now IPC :0.27981: AVG IPC :1.02155: L2-Pf-HR :0.41091: L2-HR :0.51316: (Sim:0h43m45s) 
CPU  0 inst:  557000001 cyc:  546867750 now IPC :0.27982: AVG IPC :1.01669: L2-Pf-HR :0.41062: L2-HR :0.51297: (Sim:0h43m54s) 
CPU  0 inst:  558000002 cyc:  550441344 now IPC :0.27983: AVG IPC :1.01190: L2-Pf-HR :0.41034: L2-HR :0.51278: (Sim:0h44m3s) 
CPU  0 inst:  559000001 cyc:  554014456 now IPC :0.27987: AVG IPC :1.00717: L2-Pf-HR :0.41006: L2-HR :0.51260: (Sim:0h44m13s) 
CPU  0 inst:  560000000 cyc:  557588300 now IPC :0.27981: AVG IPC :1.00250: L2-Pf-HR :0.40978: L2-HR :0.51241: (Sim:0h44m20s) 
CPU  0 inst:  561000001 cyc:  561160973 now IPC :0.27990: AVG IPC :0.99789: L2-Pf-HR :0.40950: L2-HR :0.51222: (Sim:0h44m26s) 
CPU  0 inst:  562000002 cyc:  564737650 now IPC :0.27959: AVG IPC :0.99334: L2-Pf-HR :0.40921: L2-HR :0.51203: (Sim:0h44m32s) 
CPU  0 inst:  563000000 cyc:  568312951 now IPC :0.27970: AVG IPC :0.98884: L2-Pf-HR :0.40893: L2-HR :0.51185: (Sim:0h44m40s) 
CPU  0 inst:  564000000 cyc:  571887322 now IPC :0.27977: AVG IPC :0.98440: L2-Pf-HR :0.40865: L2-HR :0.51166: (Sim:0h44m47s) 
CPU  0 inst:  565000000 cyc:  575462873 now IPC :0.27968: AVG IPC :0.98001: L2-Pf-HR :0.40838: L2-HR :0.51148: (Sim:0h44m53s) 
CPU  0 inst:  566000001 cyc:  579037726 now IPC :0.27973: AVG IPC :0.97568: L2-Pf-HR :0.40810: L2-HR :0.51129: (Sim:0h45m2s) 
CPU  0 inst:  567000003 cyc:  582615170 now IPC :0.27953: AVG IPC :0.97140: L2-Pf-HR :0.40782: L2-HR :0.51111: (Sim:0h45m12s) 
CPU  0 inst:  568000000 cyc:  586190610 now IPC :0.27969: AVG IPC :0.96718: L2-Pf-HR :0.40754: L2-HR :0.51092: (Sim:0h45m21s) 
CPU  0 inst:  569000000 cyc:  589764268 now IPC :0.27983: AVG IPC :0.96300: L2-Pf-HR :0.40727: L2-HR :0.51074: (Sim:0h45m31s) 
CPU  0 inst:  570000002 cyc:  593339477 now IPC :0.27970: AVG IPC :0.95888: L2-Pf-HR :0.40699: L2-HR :0.51056: (Sim:0h45m40s) 
CPU  0 inst:  571000003 cyc:  596914546 now IPC :0.27972: AVG IPC :0.95480: L2-Pf-HR :0.40671: L2-HR :0.51038: (Sim:0h45m49s) 
CPU  0 inst:  572000000 cyc:  600488919 now IPC :0.27977: AVG IPC :0.95078: L2-Pf-HR :0.40644: L2-HR :0.51019: (Sim:0h45m59s) 
CPU  0 inst:  573000000 cyc:  604063529 now IPC :0.27975: AVG IPC :0.94680: L2-Pf-HR :0.40616: L2-HR :0.51001: (Sim:0h46m8s) 
CPU  0 inst:  574000000 cyc:  607639639 now IPC :0.27963: AVG IPC :0.94287: L2-Pf-HR :0.40589: L2-HR :0.50983: (Sim:0h46m17s) 
CPU  0 inst:  575000001 cyc:  611215172 now IPC :0.27968: AVG IPC :0.93898: L2-Pf-HR :0.40562: L2-HR :0.50965: (Sim:0h46m27s) 
CPU  0 inst:  576000000 cyc:  614788974 now IPC :0.27981: AVG IPC :0.93515: L2-Pf-HR :0.40535: L2-HR :0.50947: (Sim:0h46m36s) 
CPU  0 inst:  577000000 cyc:  618364110 now IPC :0.27971: AVG IPC :0.93135: L2-Pf-HR :0.40507: L2-HR :0.50929: (Sim:0h46m45s) 
CPU  0 inst:  578000001 cyc:  621938212 now IPC :0.27979: AVG IPC :0.92760: L2-Pf-HR :0.40480: L2-HR :0.50912: (Sim:0h46m55s) 
CPU  0 inst:  579000002 cyc:  625513053 now IPC :0.27973: AVG IPC :0.92389: L2-Pf-HR :0.40453: L2-HR :0.50894: (Sim:0h47m4s) 
CPU  0 inst:  580000000 cyc:  629089188 now IPC :0.27963: AVG IPC :0.92022: L2-Pf-HR :0.40426: L2-HR :0.50876: (Sim:0h47m14s) 
CPU  0 inst:  581000000 cyc:  632661659 now IPC :0.27992: AVG IPC :0.91660: L2-Pf-HR :0.40399: L2-HR :0.50858: (Sim:0h47m23s) 
CPU  0 inst:  582000003 cyc:  636240526 now IPC :0.27942: AVG IPC :0.91301: L2-Pf-HR :0.40372: L2-HR :0.50841: (Sim:0h47m32s) 
CPU  0 inst:  583000002 cyc:  639817359 now IPC :0.27958: AVG IPC :0.90947: L2-Pf-HR :0.40345: L2-HR :0.50823: (Sim:0h47m41s) 
CPU  0 inst:  584000000 cyc:  643392717 now IPC :0.27969: AVG IPC :0.90596: L2-Pf-HR :0.40318: L2-HR :0.50805: (Sim:0h47m50s) 
CPU  0 inst:  585000000 cyc:  646967124 now IPC :0.27977: AVG IPC :0.90250: L2-Pf-HR :0.40291: L2-HR :0.50788: (Sim:0h48m0s) 
CPU  0 inst:  586000000 cyc:  650541761 now IPC :0.27975: AVG IPC :0.89907: L2-Pf-HR :0.40265: L2-HR :0.50770: (Sim:0h48m9s) 
CPU  0 inst:  587000002 cyc:  654117055 now IPC :0.27970: AVG IPC :0.89568: L2-Pf-HR :0.40238: L2-HR :0.50753: (Sim:0h48m19s) 
CPU  0 inst:  588000000 cyc:  657692520 now IPC :0.27968: AVG IPC :0.89233: L2-Pf-HR :0.40211: L2-HR :0.50736: (Sim:0h48m28s) 
CPU  0 inst:  589000002 cyc:  661264350 now IPC :0.27997: AVG IPC :0.88901: L2-Pf-HR :0.40185: L2-HR :0.50718: (Sim:0h48m37s) 
CPU  0 inst:  590000001 cyc:  664841603 now IPC :0.27954: AVG IPC :0.88573: L2-Pf-HR :0.40159: L2-HR :0.50701: (Sim:0h48m45s) 
CPU  0 inst:  591000002 cyc:  668417409 now IPC :0.27966: AVG IPC :0.88248: L2-Pf-HR :0.40132: L2-HR :0.50684: (Sim:0h48m51s) 
CPU  0 inst:  592000000 cyc:  671991220 now IPC :0.27981: AVG IPC :0.87927: L2-Pf-HR :0.40106: L2-HR :0.50666: (Sim:0h48m57s) 
CPU  0 inst:  593000003 cyc:  675566375 now IPC :0.27971: AVG IPC :0.87609: L2-Pf-HR :0.40079: L2-HR :0.50649: (Sim:0h49m4s) 
CPU  0 inst:  594000000 cyc:  679142042 now IPC :0.27967: AVG IPC :0.87295: L2-Pf-HR :0.40053: L2-HR :0.50632: (Sim:0h49m10s) 
CPU  0 inst:  595000001 cyc:  682717456 now IPC :0.27969: AVG IPC :0.86984: L2-Pf-HR :0.40027: L2-HR :0.50615: (Sim:0h49m16s) 
CPU  0 inst:  596000000 cyc:  686291535 now IPC :0.27979: AVG IPC :0.86676: L2-Pf-HR :0.40000: L2-HR :0.50598: (Sim:0h49m22s) 
CPU  0 inst:  597000003 cyc:  689867359 now IPC :0.27966: AVG IPC :0.86371: L2-Pf-HR :0.39974: L2-HR :0.50581: (Sim:0h49m28s) 
CPU  0 inst:  598000000 cyc:  693441491 now IPC :0.27979: AVG IPC :0.86070: L2-Pf-HR :0.39948: L2-HR :0.50564: (Sim:0h49m34s) 
CPU  0 inst:  599000001 cyc:  697015449 now IPC :0.27980: AVG IPC :0.85772: L2-Pf-HR :0.39922: L2-HR :0.50547: (Sim:0h49m41s) 
CPU  0 inst:  600000000 cyc:  700590799 now IPC :0.27969: AVG IPC :0.85476: L2-Pf-HR :0.39896: L2-HR :0.50531: (Sim:0h49m48s) 
CPU  0 inst:  601000000 cyc:  704165223 now IPC :0.27977: AVG IPC :0.85184: L2-Pf-HR :0.39870: L2-HR :0.50514: (Sim:0h49m57s) 
CPU  0 inst:  602000000 cyc:  707738279 now IPC :0.27987: AVG IPC :0.84895: L2-Pf-HR :0.39844: L2-HR :0.50497: (Sim:0h50m6s) 
CPU  0 inst:  603000000 cyc:  711311985 now IPC :0.27982: AVG IPC :0.84608: L2-Pf-HR :0.39819: L2-HR :0.50480: (Sim:0h50m16s) 
CPU  0 inst:  604000000 cyc:  714885843 now IPC :0.27981: AVG IPC :0.84325: L2-Pf-HR :0.39793: L2-HR :0.50464: (Sim:0h50m25s) 
CPU  0 inst:  605000001 cyc:  718459768 now IPC :0.27980: AVG IPC :0.84044: L2-Pf-HR :0.39767: L2-HR :0.50447: (Sim:0h50m34s) 
CPU  0 inst:  606000000 cyc:  722035914 now IPC :0.27963: AVG IPC :0.83766: L2-Pf-HR :0.39742: L2-HR :0.50430: (Sim:0h50m43s) 
CPU  0 inst:  607000000 cyc:  725611180 now IPC :0.27970: AVG IPC :0.83491: L2-Pf-HR :0.39716: L2-HR :0.50414: (Sim:0h50m52s) 
CPU  0 inst:  608000000 cyc:  729182873 now IPC :0.27998: AVG IPC :0.83219: L2-Pf-HR :0.39691: L2-HR :0.50397: (Sim:0h51m2s) 
CPU  0 inst:  609000003 cyc:  732757704 now IPC :0.27973: AVG IPC :0.82949: L2-Pf-HR :0.39665: L2-HR :0.50381: (Sim:0h51m11s) 
CPU  0 inst:  610000003 cyc:  736331403 now IPC :0.27982: AVG IPC :0.82682: L2-Pf-HR :0.39640: L2-HR :0.50365: (Sim:0h51m20s) 
CPU  0 inst:  611000001 cyc:  739905989 now IPC :0.27975: AVG IPC :0.82417: L2-Pf-HR :0.39614: L2-HR :0.50348: (Sim:0h51m29s) 
CPU  0 inst:  612000000 cyc:  743483433 now IPC :0.27953: AVG IPC :0.82155: L2-Pf-HR :0.39589: L2-HR :0.50332: (Sim:0h51m39s) 
CPU  0 inst:  613000003 cyc:  747057856 now IPC :0.27977: AVG IPC :0.81895: L2-Pf-HR :0.39564: L2-HR :0.50316: (Sim:0h51m48s) 
CPU  0 inst:  614000003 cyc:  750633121 now IPC :0.27970: AVG IPC :0.81638: L2-Pf-HR :0.39538: L2-HR :0.50299: (Sim:0h51m58s) 
CPU  0 inst:  615000000 cyc:  754207444 now IPC :0.27977: AVG IPC :0.81383: L2-Pf-HR :0.39513: L2-HR :0.50283: (Sim:0h52m7s) 
CPU  0 inst:  616000000 cyc:  757781869 now IPC :0.27977: AVG IPC :0.81131: L2-Pf-HR :0.39488: L2-HR :0.50267: (Sim:0h52m17s) 
CPU  0 inst:  617000002 cyc:  761355940 now IPC :0.27979: AVG IPC :0.80881: L2-Pf-HR :0.39463: L2-HR :0.50251: (Sim:0h52m26s) 
CPU  0 inst:  618000000 cyc:  764931895 now IPC :0.27965: AVG IPC :0.80633: L2-Pf-HR :0.39438: L2-HR :0.50235: (Sim:0h52m35s) 
CPU  0 inst:  619000003 cyc:  768508318 now IPC :0.27961: AVG IPC :0.80388: L2-Pf-HR :0.39413: L2-HR :0.50219: (Sim:0h52m44s) 
CPU  0 inst:  620000000 cyc:  772085572 now IPC :0.27954: AVG IPC :0.80145: L2-Pf-HR :0.39388: L2-HR :0.50203: (Sim:0h52m54s) 
CPU  0 inst:  621000002 cyc:  775660780 now IPC :0.27970: AVG IPC :0.79904: L2-Pf-HR :0.39363: L2-HR :0.50187: (Sim:0h53m3s) 
CPU  0 inst:  622000000 cyc:  779235432 now IPC :0.27975: AVG IPC :0.79665: L2-Pf-HR :0.39338: L2-HR :0.50171: (Sim:0h53m12s) 
CPU  0 inst:  623000000 cyc:  782810415 now IPC :0.27972: AVG IPC :0.79429: L2-Pf-HR :0.39313: L2-HR :0.50155: (Sim:0h53m22s) 
CPU  0 inst:  624000000 cyc:  786384747 now IPC :0.27977: AVG IPC :0.79195: L2-Pf-HR :0.39288: L2-HR :0.50139: (Sim:0h53m31s) 
CPU  0 inst:  625000002 cyc:  789960079 now IPC :0.27969: AVG IPC :0.78963: L2-Pf-HR :0.39264: L2-HR :0.50124: (Sim:0h53m40s) 
CPU  0 inst:  626000000 cyc:  793535291 now IPC :0.27970: AVG IPC :0.78733: L2-Pf-HR :0.39239: L2-HR :0.50108: (Sim:0h53m48s) 
[...]
CPU  0 inst: 1071000002 cyc: 1100595577 now IPC :1.99286: AVG IPC :0.97216: L2-Pf-HR :0.34571: L2-HR :0.45643: (Sim:1h25m37s) 
CPU  0 inst: 1072000000 cyc: 1101177995 now IPC :1.71698: AVG IPC :0.97255: L2-Pf-HR :0.34552: L2-HR :0.45629: (Sim:1h25m41s) 
CPU  0 inst: 1073000001 cyc: 1101676604 now IPC :2.00558: AVG IPC :0.97302: L2-Pf-HR :0.34536: L2-HR :0.45617: (Sim:1h25m43s) 
CPU  0 inst: 1074000002 cyc: 1102375104 now IPC :1.43164: AVG IPC :0.97331: L2-Pf-HR :0.34512: L2-HR :0.45600: (Sim:1h25m46s) 
CPU  0 inst: 1075000000 cyc: 1102912051 now IPC :1.86238: AVG IPC :0.97375: L2-Pf-HR :0.34504: L2-HR :0.45591: (Sim:1h25m49s) 
CPU  0 inst: 1076000000 cyc: 1103525526 now IPC :1.63006: AVG IPC :0.97411: L2-Pf-HR :0.34483: L2-HR :0.45578: (Sim:1h25m52s) 
CPU  0 inst: 1077000002 cyc: 1104031800 now IPC :1.97522: AVG IPC :0.97457: L2-Pf-HR :0.34476: L2-HR :0.45570: (Sim:1h25m54s) 
CPU  0 inst: 1078000001 cyc: 1104590997 now IPC :1.78828: AVG IPC :0.97498: L2-Pf-HR :0.34461: L2-HR :0.45558: (Sim:1h25m57s) 
CPU  0 inst: 1079000000 cyc: 1105117248 now IPC :1.90023: AVG IPC :0.97542: L2-Pf-HR :0.34443: L2-HR :0.45545: (Sim:1h26m0s) 
CPU  0 inst: 1080000000 cyc: 1105747914 now IPC :1.58563: AVG IPC :0.97577: L2-Pf-HR :0.34434: L2-HR :0.45538: (Sim:1h26m4s) 
CPU  0 inst: 1081000003 cyc: 1106357418 now IPC :1.64068: AVG IPC :0.97614: L2-Pf-HR :0.34450: L2-HR :0.45551: (Sim:1h26m7s) 
CPU  0 inst: 1082000000 cyc: 1107112089 now IPC :1.32508: AVG IPC :0.97638: L2-Pf-HR :0.34465: L2-HR :0.45566: (Sim:1h26m10s) 
CPU  0 inst: 1083000000 cyc: 1107647878 now IPC :1.86641: AVG IPC :0.97681: L2-Pf-HR :0.34463: L2-HR :0.45561: (Sim:1h26m13s) 
CPU  0 inst: 1084000000 cyc: 1108192755 now IPC :1.83528: AVG IPC :0.97723: L2-Pf-HR :0.34459: L2-HR :0.45555: (Sim:1h26m15s) 
CPU  0 inst: 1085000000 cyc: 1108855124 now IPC :1.50973: AVG IPC :0.97755: L2-Pf-HR :0.34448: L2-HR :0.45547: (Sim:1h26m18s) 
CPU  0 inst: 1086000003 cyc: 1109372277 now IPC :1.93367: AVG IPC :0.97799: L2-Pf-HR :0.34448: L2-HR :0.45544: (Sim:1h26m20s) 
CPU  0 inst: 1087000001 cyc: 1109998595 now IPC :1.59663: AVG IPC :0.97834: L2-Pf-HR :0.34434: L2-HR :0.45534: (Sim:1h26m23s) 
CPU  0 inst: 1088000000 cyc: 1110527897 now IPC :1.88928: AVG IPC :0.97878: L2-Pf-HR :0.34425: L2-HR :0.45524: (Sim:1h26m26s) 
CPU  0 inst: 1089000001 cyc: 1111250527 now IPC :1.38384: AVG IPC :0.97904: L2-Pf-HR :0.34404: L2-HR :0.45510: (Sim:1h26m29s) 
CPU  0 inst: 1090000002 cyc: 1111774888 now IPC :1.90709: AVG IPC :0.97948: L2-Pf-HR :0.34394: L2-HR :0.45500: (Sim:1h26m31s) 
CPU  0 inst: 1091000002 cyc: 1112399281 now IPC :1.60156: AVG IPC :0.97983: L2-Pf-HR :0.34376: L2-HR :0.45488: (Sim:1h26m34s) 
CPU  0 inst: 1092000000 cyc: 1112900637 now IPC :1.99459: AVG IPC :0.98029: L2-Pf-HR :0.34367: L2-HR :0.45479: (Sim:1h26m36s) 
CPU  0 inst: 1093000001 cyc: 1113480687 now IPC :1.72399: AVG IPC :0.98067: L2-Pf-HR :0.34351: L2-HR :0.45468: (Sim:1h26m39s) 
CPU  0 inst: 1094000000 cyc: 1113984018 now IPC :1.98676: AVG IPC :0.98113: L2-Pf-HR :0.34336: L2-HR :0.45456: (Sim:1h26m42s) 
CPU  0 inst: 1095000001 cyc: 1114724316 now IPC :1.35081: AVG IPC :0.98138: L2-Pf-HR :0.34312: L2-HR :0.45439: (Sim:1h26m44s) 
CPU  0 inst: 1096000000 cyc: 1115252493 now IPC :1.89330: AVG IPC :0.98181: L2-Pf-HR :0.34301: L2-HR :0.45428: (Sim:1h26m47s) 
CPU  0 inst: 1097000003 cyc: 1115912418 now IPC :1.51533: AVG IPC :0.98212: L2-Pf-HR :0.34282: L2-HR :0.45415: (Sim:1h26m50s) 
CPU  0 inst: 1098000003 cyc: 1116422137 now IPC :1.96187: AVG IPC :0.98257: L2-Pf-HR :0.34273: L2-HR :0.45406: (Sim:1h26m52s) 
CPU  0 inst: 1099000002 cyc: 1116936048 now IPC :1.94586: AVG IPC :0.98301: L2-Pf-HR :0.34264: L2-HR :0.45397: (Sim:1h26m55s) 
CPU  0 inst: 1100000000 cyc: 1117530894 now IPC :1.68110: AVG IPC :0.98339: L2-Pf-HR :0.34243: L2-HR :0.45382: (Sim:1h26m57s) 
CPU  0 inst: 1101000000 cyc: 1118230193 now IPC :1.43000: AVG IPC :0.98367: L2-Pf-HR :0.34217: L2-HR :0.45365: (Sim:1h27m0s) 
CPU  0 inst: 1102000003 cyc: 1118765109 now IPC :1.86946: AVG IPC :0.98409: L2-Pf-HR :0.34208: L2-HR :0.45355: (Sim:1h27m3s) 
CPU  0 inst: 1103000001 cyc: 1119305426 now IPC :1.85076: AVG IPC :0.98451: L2-Pf-HR :0.34196: L2-HR :0.45344: (Sim:1h27m5s) 
CPU  0 inst: 1104000000 cyc: 1119918274 now IPC :1.63172: AVG IPC :0.98486: L2-Pf-HR :0.34180: L2-HR :0.45334: (Sim:1h27m8s) 
CPU  0 inst: 1105000003 cyc: 1120420537 now IPC :1.99099: AVG IPC :0.98531: L2-Pf-HR :0.34172: L2-HR :0.45326: (Sim:1h27m10s) 
CPU  0 inst: 1106000002 cyc: 1121003566 now IPC :1.71518: AVG IPC :0.98569: L2-Pf-HR :0.34152: L2-HR :0.45312: (Sim:1h27m13s) 
CPU  0 inst: 1107000001 cyc: 1121515012 now IPC :1.95524: AVG IPC :0.98614: L2-Pf-HR :0.34136: L2-HR :0.45299: (Sim:1h27m15s) 
CPU  0 inst: 1108000000 cyc: 1122221155 now IPC :1.41614: AVG IPC :0.98641: L2-Pf-HR :0.34116: L2-HR :0.45285: (Sim:1h27m18s) 
CPU  0 inst: 1109000003 cyc: 1122745140 now IPC :1.90846: AVG IPC :0.98684: L2-Pf-HR :0.34106: L2-HR :0.45275: (Sim:1h27m21s) 
CPU  0 inst: 1110000003 cyc: 1123371562 now IPC :1.59637: AVG IPC :0.98718: L2-Pf-HR :0.34089: L2-HR :0.45264: (Sim:1h27m23s) 
CPU  0 inst: 1111000000 cyc: 1123874764 now IPC :1.98727: AVG IPC :0.98763: L2-Pf-HR :0.34079: L2-HR :0.45255: (Sim:1h27m26s) 
CPU  0 inst: 1112000000 cyc: 1124455028 now IPC :1.72335: AVG IPC :0.98801: L2-Pf-HR :0.34063: L2-HR :0.45243: (Sim:1h27m28s) 
CPU  0 inst: 1113000003 cyc: 1124958565 now IPC :1.98596: AVG IPC :0.98845: L2-Pf-HR :0.34049: L2-HR :0.45232: (Sim:1h27m31s) 
CPU  0 inst: 1114000001 cyc: 1125611011 now IPC :1.53269: AVG IPC :0.98877: L2-Pf-HR :0.34045: L2-HR :0.45229: (Sim:1h27m34s) 
CPU  0 inst: 1115000001 cyc: 1126209803 now IPC :1.67003: AVG IPC :0.98913: L2-Pf-HR :0.34063: L2-HR :0.45243: (Sim:1h27m36s) 
CPU  0 inst: 1116000000 cyc: 1126969819 now IPC :1.31576: AVG IPC :0.98935: L2-Pf-HR :0.34073: L2-HR :0.45254: (Sim:1h27m39s) 
CPU  0 inst: 1117000001 cyc: 1127511526 now IPC :1.84602: AVG IPC :0.98976: L2-Pf-HR :0.34072: L2-HR :0.45250: (Sim:1h27m42s) 
CPU  0 inst: 1118000002 cyc: 1128110207 now IPC :1.67034: AVG IPC :0.99013: L2-Pf-HR :0.34064: L2-HR :0.45241: (Sim:1h27m44s) 
CPU  0 inst: 1119000001 cyc: 1128707397 now IPC :1.67451: AVG IPC :0.99049: L2-Pf-HR :0.34060: L2-HR :0.45238: (Sim:1h27m47s) 
CPU  0 inst: 1120000000 cyc: 1129221111 now IPC :1.94661: AVG IPC :0.99092: L2-Pf-HR :0.34060: L2-HR :0.45235: (Sim:1h27m49s) 
CPU  0 inst: 1121000003 cyc: 1129849409 now IPC :1.59161: AVG IPC :0.99126: L2-Pf-HR :0.34046: L2-HR :0.45224: (Sim:1h27m52s) 
CPU  0 inst: 1122000001 cyc: 1130560709 now IPC :1.40587: AVG IPC :0.99152: L2-Pf-HR :0.34027: L2-HR :0.45211: (Sim:1h27m55s) 
CPU  0 inst: 1123000000 cyc: 1131095121 now IPC :1.87121: AVG IPC :0.99194: L2-Pf-HR :0.34016: L2-HR :0.45201: (Sim:1h27m57s) 
CPU  0 inst: 1124000000 cyc: 1131620600 now IPC :1.90303: AVG IPC :0.99236: L2-Pf-HR :0.34008: L2-HR :0.45193: (Sim:1h28m0s) 
CPU  0 inst: 1125000003 cyc: 1132244811 now IPC :1.60203: AVG IPC :0.99270: L2-Pf-HR :0.33989: L2-HR :0.45179: (Sim:1h28m2s) 
CPU  0 inst: 1126000000 cyc: 1132746071 now IPC :1.99497: AVG IPC :0.99314: L2-Pf-HR :0.33982: L2-HR :0.45172: (Sim:1h28m5s) 
CPU  0 inst: 1127000001 cyc: 1133327017 now IPC :1.72133: AVG IPC :0.99351: L2-Pf-HR :0.33964: L2-HR :0.45159: (Sim:1h28m7s) 
CPU  0 inst: 1128000000 cyc: 1133826989 now IPC :2.00011: AVG IPC :0.99396: L2-Pf-HR :0.33950: L2-HR :0.45148: (Sim:1h28m10s) 
CPU  0 inst: 1129000003 cyc: 1134563649 now IPC :1.35748: AVG IPC :0.99419: L2-Pf-HR :0.33926: L2-HR :0.45131: (Sim:1h28m13s) 
CPU  0 inst: 1130000000 cyc: 1135101839 now IPC :1.85807: AVG IPC :0.99460: L2-Pf-HR :0.33919: L2-HR :0.45123: (Sim:1h28m15s) 
CPU  0 inst: 1131000001 cyc: 1135752367 now IPC :1.53721: AVG IPC :0.99491: L2-Pf-HR :0.33899: L2-HR :0.45109: (Sim:1h28m18s) 
CPU  0 inst: 1132000000 cyc: 1136261056 now IPC :1.96584: AVG IPC :0.99535: L2-Pf-HR :0.33892: L2-HR :0.45101: (Sim:1h28m20s) 
CPU  0 inst: 1133000001 cyc: 1136821831 now IPC :1.78325: AVG IPC :0.99574: L2-Pf-HR :0.33878: L2-HR :0.45090: (Sim:1h28m23s) 
CPU  0 inst: 1134000000 cyc: 1137364936 now IPC :1.84126: AVG IPC :0.99614: L2-Pf-HR :0.33860: L2-HR :0.45077: (Sim:1h28m26s) 
CPU  0 inst: 1135000003 cyc: 1138066888 now IPC :1.42460: AVG IPC :0.99641: L2-Pf-HR :0.33836: L2-HR :0.45061: (Sim:1h28m28s) 
CPU  0 inst: 1136000000 cyc: 1138605171 now IPC :1.85775: AVG IPC :0.99681: L2-Pf-HR :0.33828: L2-HR :0.45052: (Sim:1h28m31s) 
CPU  0 inst: 1137000000 cyc: 1139192487 now IPC :1.70266: AVG IPC :0.99718: L2-Pf-HR :0.33812: L2-HR :0.45040: (Sim:1h28m33s) 
CPU  0 inst: 1138000000 cyc: 1139742140 now IPC :1.81933: AVG IPC :0.99758: L2-Pf-HR :0.33801: L2-HR :0.45032: (Sim:1h28m36s) 
CPU  0 inst: 1139000003 cyc: 1140242866 now IPC :1.99711: AVG IPC :0.99801: L2-Pf-HR :0.33793: L2-HR :0.45024: (Sim:1h28m39s) 
CPU  0 inst: 1140000000 cyc: 1140824851 now IPC :1.71825: AVG IPC :0.99838: L2-Pf-HR :0.33774: L2-HR :0.45010: (Sim:1h28m41s) 
CPU  0 inst: 1141000002 cyc: 1141486444 now IPC :1.51151: AVG IPC :0.99868: L2-Pf-HR :0.33750: L2-HR :0.44994: (Sim:1h28m44s) 
CPU  0 inst: 1142000003 cyc: 1142037025 now IPC :1.81626: AVG IPC :0.99907: L2-Pf-HR :0.33739: L2-HR :0.44984: (Sim:1h28m46s) 
CPU  0 inst: 1143000001 cyc: 1142561244 now IPC :1.90760: AVG IPC :0.99949: L2-Pf-HR :0.33731: L2-HR :0.44976: (Sim:1h28m49s) 
CPU  0 inst: 1144000000 cyc: 1143187230 now IPC :1.59748: AVG IPC :0.99982: L2-Pf-HR :0.33712: L2-HR :0.44963: (Sim:1h28m52s) 
CPU  0 inst: 1145000002 cyc: 1143690231 now IPC :1.98807: AVG IPC :1.00025: L2-Pf-HR :0.33705: L2-HR :0.44956: (Sim:1h28m54s) 
CPU  0 inst: 1146000002 cyc: 1144270770 now IPC :1.72254: AVG IPC :1.00062: L2-Pf-HR :0.33688: L2-HR :0.44943: (Sim:1h28m57s) 
CPU  0 inst: 1147000002 cyc: 1144771281 now IPC :1.99796: AVG IPC :1.00106: L2-Pf-HR :0.33674: L2-HR :0.44932: (Sim:1h28m59s) 
CPU  0 inst: 1148000000 cyc: 1145432029 now IPC :1.51343: AVG IPC :1.00135: L2-Pf-HR :0.33675: L2-HR :0.44933: (Sim:1h29m2s) 
CPU  0 inst: 1149000002 cyc: 1146071992 now IPC :1.56259: AVG IPC :1.00167: L2-Pf-HR :0.33695: L2-HR :0.44948: (Sim:1h29m5s) 
CPU  0 inst: 1150000003 cyc: 1146790120 now IPC :1.39251: AVG IPC :1.00191: L2-Pf-HR :0.33700: L2-HR :0.44956: (Sim:1h29m7s) 
CPU  0 inst: 1151000000 cyc: 1147320375 now IPC :1.88588: AVG IPC :1.00232: L2-Pf-HR :0.33699: L2-HR :0.44952: (Sim:1h29m10s) 
CPU  0 inst: 1152000000 cyc: 1147988201 now IPC :1.49740: AVG IPC :1.00261: L2-Pf-HR :0.33687: L2-HR :0.44943: (Sim:1h29m13s) 
CPU  0 inst: 1153000001 cyc: 1148516640 now IPC :1.89237: AVG IPC :1.00302: L2-Pf-HR :0.33686: L2-HR :0.44939: (Sim:1h29m15s) 
CPU  0 inst: 1154000002 cyc: 1149034947 now IPC :1.92936: AVG IPC :1.00344: L2-Pf-HR :0.33687: L2-HR :0.44937: (Sim:1h29m18s) 
CPU  0 inst: 1155000002 cyc: 1149660020 now IPC :1.59981: AVG IPC :1.00376: L2-Pf-HR :0.33674: L2-HR :0.44927: (Sim:1h29m21s) 
CPU  0 inst: 1156000000 cyc: 1150368018 now IPC :1.41243: AVG IPC :1.00401: L2-Pf-HR :0.33654: L2-HR :0.44913: (Sim:1h29m23s) 
CPU  0 inst: 1157000002 cyc: 1150900421 now IPC :1.87828: AVG IPC :1.00442: L2-Pf-HR :0.33645: L2-HR :0.44904: (Sim:1h29m26s) 
CPU  0 inst: 1158000000 cyc: 1151436138 now IPC :1.86665: AVG IPC :1.00482: L2-Pf-HR :0.33635: L2-HR :0.44894: (Sim:1h29m28s) 
CPU  0 inst: 1159000000 cyc: 1152045457 now IPC :1.64118: AVG IPC :1.00516: L2-Pf-HR :0.33620: L2-HR :0.44885: (Sim:1h29m31s) 
CPU  0 inst: 1160000000 cyc: 1152546731 now IPC :1.99492: AVG IPC :1.00559: L2-Pf-HR :0.33613: L2-HR :0.44877: (Sim:1h29m34s) 
CPU  0 inst: 1161000001 cyc: 1153129338 now IPC :1.71642: AVG IPC :1.00595: L2-Pf-HR :0.33595: L2-HR :0.44865: (Sim:1h29m38s) 
CPU  0 inst: 1162000003 cyc: 1153639291 now IPC :1.96097: AVG IPC :1.00637: L2-Pf-HR :0.33580: L2-HR :0.44852: (Sim:1h29m40s) 
CPU  0 inst: 1163000001 cyc: 1154382222 now IPC :1.34602: AVG IPC :1.00659: L2-Pf-HR :0.33561: L2-HR :0.44838: (Sim:1h29m43s) 
CPU  0 inst: 1164000000 cyc: 1154910319 now IPC :1.89359: AVG IPC :1.00699: L2-Pf-HR :0.33551: L2-HR :0.44829: (Sim:1h29m46s) 
CPU  0 inst: 1165000002 cyc: 1155568162 now IPC :1.52012: AVG IPC :1.00729: L2-Pf-HR :0.33534: L2-HR :0.44817: (Sim:1h29m48s) 
CPU  0 inst: 1166000001 cyc: 1156073966 now IPC :1.97705: AVG IPC :1.00771: L2-Pf-HR :0.33525: L2-HR :0.44809: (Sim:1h29m51s) 
CPU  0 inst: 1167000002 cyc: 1156669954 now IPC :1.67789: AVG IPC :1.00806: L2-Pf-HR :0.33509: L2-HR :0.44797: (Sim:1h29m53s) 
CPU  0 inst: 1168000000 cyc: 1157175178 now IPC :1.97932: AVG IPC :1.00848: L2-Pf-HR :0.33496: L2-HR :0.44786: (Sim:1h29m56s) 
CPU  0 inst: 1169000001 cyc: 1157895681 now IPC :1.38792: AVG IPC :1.00872: L2-Pf-HR :0.33473: L2-HR :0.44770: (Sim:1h29m59s) 
CPU  0 inst: 1170000000 cyc: 1158421433 now IPC :1.90204: AVG IPC :1.00912: L2-Pf-HR :0.33464: L2-HR :0.44761: (Sim:1h30m1s) 
CPU  0 inst: 1171000003 cyc: 1159050767 now IPC :1.58899: AVG IPC :1.00944: L2-Pf-HR :0.33448: L2-HR :0.44750: (Sim:1h30m4s) 
CPU  0 inst: 1172000000 cyc: 1159559733 now IPC :1.96476: AVG IPC :1.00986: L2-Pf-HR :0.33439: L2-HR :0.44742: (Sim:1h30m6s) 
CPU  0 inst: 1173000000 cyc: 1160068846 now IPC :1.96420: AVG IPC :1.01028: L2-Pf-HR :0.33432: L2-HR :0.44735: (Sim:1h30m9s) 
CPU  0 inst: 1174000003 cyc: 1160643892 now IPC :1.73900: AVG IPC :1.01064: L2-Pf-HR :0.33413: L2-HR :0.44721: (Sim:1h30m12s) 
CPU  0 inst: 1175000000 cyc: 1161324672 now IPC :1.46890: AVG IPC :1.01091: L2-Pf-HR :0.33390: L2-HR :0.44706: (Sim:1h30m14s) 
CPU  0 inst: 1176000000 cyc: 1161857294 now IPC :1.87750: AVG IPC :1.01131: L2-Pf-HR :0.33381: L2-HR :0.44697: (Sim:1h30m17s) 
CPU  0 inst: 1177000001 cyc: 1162391831 now IPC :1.87078: AVG IPC :1.01170: L2-Pf-HR :0.33371: L2-HR :0.44687: (Sim:1h30m19s) 
CPU  0 inst: 1178000001 cyc: 1163001695 now IPC :1.63971: AVG IPC :1.01203: L2-Pf-HR :0.33356: L2-HR :0.44678: (Sim:1h30m22s) 
CPU  0 inst: 1179000002 cyc: 1163504982 now IPC :1.98694: AVG IPC :1.01245: L2-Pf-HR :0.33349: L2-HR :0.44671: (Sim:1h30m25s) 
CPU  0 inst: 1180000000 cyc: 1164084723 now IPC :1.72490: AVG IPC :1.01281: L2-Pf-HR :0.33332: L2-HR :0.44658: (Sim:1h30m27s) 
Finished CPU 0 instr: 1178000000 cyc: 1163103459 AVG IPC: 1.01281 (Sim time: 1h30m27s)

ChampSim completed all CPUs

[ROI Statistics]
Core_0_instructions 1178000000
Core_0_cycles 1163103459
Core_0_IPC 1.01281

Core_0_branch_prediction_accuracy 98.59145
Core_0_branch_MPKI 0.33782
Core_0_average_ROB_occupancy_at_mispredict 250.81990

Core_0_L1D_total_access 324575509
Core_0_L1D_total_hit 301233157 L1D_total_Hit Ratio: 0.92808
Core_0_L1D_total_miss 23342352
Core_0_L1D_loads 267996978
Core_0_L1D_load_hit 261318759 L1D_load_Hit Ratio: 0.97508
Core_0_L1D_load_miss 6678219
Core_0_L1D_RFOs 23071534
Core_0_L1D_RFO_hit 22204811 L1D_RFO_Hit Ratio: 0.96243
Core_0_L1D_RFO_miss 866723
Core_0_L1D_prefetches 33506997
Core_0_L1D_prefetch_hit 17709587 L1D_prefetch_Hit Ratio: 0.52853
Core_0_L1D_prefetch_miss 15797410
Core_0_L1D_writebacks 0
Core_0_L1D_writeback_hit 0 L1D_writeback_Hit Ratio: -nan
Core_0_L1D_writeback_miss 0
Core_0_L1D_prefetch_requested 38489391
Core_0_L1D_prefetch_issued 38489391
Core_0_L1D_prefetch_useful 15703479 L1D_Useful Ratio: 0.40799
Core_0_L1D_prefetch_useless 118689
Core_0_L1D_prefetch_late 1619907
Core_0_L1D_average_miss_latency 35941173.66442

Core_0_L1I_total_access 273175221
Core_0_L1I_total_hit 273170344 L1I_total_Hit Ratio: 0.99998
Core_0_L1I_total_miss 4877
Core_0_L1I_loads 273175221
Core_0_L1I_load_hit 273170344 L1I_load_Hit Ratio: 0.99998
Core_0_L1I_load_miss 4877
Core_0_L1I_RFOs 0
Core_0_L1I_RFO_hit 0 L1I_RFO_Hit Ratio: -nan
Core_0_L1I_RFO_miss 0
Core_0_L1I_prefetches 0
Core_0_L1I_prefetch_hit 0 L1I_prefetch_Hit Ratio: -nan
Core_0_L1I_prefetch_miss 0
Core_0_L1I_writebacks 0
Core_0_L1I_writeback_hit 0 L1I_writeback_Hit Ratio: -nan
Core_0_L1I_writeback_miss 0
Core_0_L1I_prefetch_requested 0
Core_0_L1I_prefetch_issued 0
Core_0_L1I_prefetch_useful 0 L1I_Useful Ratio: -nan
Core_0_L1I_prefetch_useless 0
Core_0_L1I_prefetch_late 0
Core_0_L1I_average_miss_latency 236.74964

Core_0_L2C_total_access 36393519
Core_0_L2C_total_hit 16252715 L2C_total_Hit Ratio: 0.44658
Core_0_L2C_total_miss 20140804
Core_0_L2C_loads 5064413
Core_0_L2C_load_hit 2080673 L2C_load_Hit Ratio: 0.41084
Core_0_L2C_load_miss 2983740
Core_0_L2C_RFOs 866574
Core_0_L2C_RFO_hit 130785 L2C_RFO_Hit Ratio: 0.15092
Core_0_L2C_RFO_miss 735789
Core_0_L2C_prefetches 24458252
Core_0_L2C_prefetch_hit 8152329 L2C_prefetch_Hit Ratio: 0.33332
Core_0_L2C_prefetch_miss 16305923
Core_0_L2C_writebacks 6004280
Core_0_L2C_writeback_hit 5888928 L2C_writeback_Hit Ratio: 0.98079
Core_0_L2C_writeback_miss 115352
Core_0_L2C_prefetch_requested 8448094
Core_0_L2C_prefetch_issued 8448094
Core_0_L2C_prefetch_useful 1730999 L2C_Useful Ratio: 0.20490
Core_0_L2C_prefetch_useless 14600587
Core_0_L2C_prefetch_late 143834
Core_0_L2C_average_miss_latency 135.67388

Core_0_LLC_total_access 25959699
Core_0_LLC_total_hit 19517276 LLC_total_Hit Ratio: 0.75183
Core_0_LLC_total_miss 6442423
Core_0_LLC_loads 2839915
Core_0_LLC_load_hit 1295187 LLC_load_Hit Ratio: 0.45607
Core_0_LLC_load_miss 1544728
Core_0_LLC_RFOs 735789
Core_0_LLC_RFO_hit 61325 LLC_RFO_Hit Ratio: 0.08335
Core_0_LLC_RFO_miss 674464
Core_0_LLC_prefetches 16449681
Core_0_LLC_prefetch_hit 12227100 LLC_prefetch_Hit Ratio: 0.74330
Core_0_LLC_prefetch_miss 4222581
Core_0_LLC_writebacks 5934314
Core_0_LLC_writeback_hit 5933664 LLC_writeback_Hit Ratio: 0.99989
Core_0_LLC_writeback_miss 650
Core_0_LLC_prefetch_requested 0
Core_0_LLC_prefetch_issued 0
Core_0_LLC_prefetch_useful 258755 LLC_Useful Ratio: inf
Core_0_LLC_prefetch_useless 3951606
Core_0_LLC_prefetch_late 0
Core_0_LLC_average_miss_latency 332.66769

Core_0_major_page_fault 0
Core_0_minor_page_fault 42073

[Bingo] PHT Access: 2434662
[Bingo] PHT Hit PC+Addr: 760822
[Bingo] PHT Hit PC+Offs: 1611420
[Bingo] PHT Miss: 62420
[Bingo] Prefetch PC+Addr: 0
[Bingo] Prefetch PC+Offs: 0
[Bingo] Useful PC+Addr: 0
[Bingo] Useful PC+Offs: 0
[Bingo] Useless PC+Addr: 0
[Bingo] Useless PC+Offs: 0
[Bingo] L1 Prefetch per Region: 16.81951
[Bingo] L2 Prefetch per Region: 0.84221
[Bingo] L3 Prefetch per Region: 0.00000
[Bingo] No Prefetch per Region: 14.33828
[Bingo] Number of Voters Mean: 15.78246
[Bingo] Number of Voters SD: 1.61094
PHT read accesses: 32737834
PHT write accesses: 2362193
AT read accesses: 257637959
AT write accesses: 257637954
FT read accesses: 29126080
FT write accesses: 2434662
PS read accesses: 15654686
PS write accesses: 2372242
PHT tag read accesses: 96273008
PHT tag write accesses: 3123015
AT tag read accesses: 4753446343
AT tag write accesses: 260000147
FT tag read accesses: 705420147
FT tag write accesses: 18214965
PS tag read accesses: 4377848393
PS tag write accesses: 18009962
[Bingo2] PHT Access: 1504537
[Bingo2] PHT Hit PC+Addr: 74580
[Bingo2] PHT Hit PC+Offs: 1370731
[Bingo2] PHT Miss: 59226
[Bingo2] Prefetch PC+Addr: 0
[Bingo2] Prefetch PC+Offs: 0
[Bingo2] Useful PC+Addr: 0
[Bingo2] Useful PC+Offs: 0
[Bingo2] Useless PC+Addr: 0
[Bingo2] Useless PC+Offs: 0
[Bingo2] L1 Prefetch per Region: 0.00000
[Bingo2] L2 Prefetch per Region: 6.93327
[Bingo2] L3 Prefetch per Region: 0.00000
[Bingo2] No Prefetch per Region: 25.06673
[Bingo2] Number of Voters Mean: 15.63463
[Bingo2] Number of Voters SD: 1.69874
PHT read accesses: 22345767
PHT write accesses: 1036789
AT read accesses: 4556559
AT write accesses: 4584867
FT read accesses: 3486970
FT write accesses: 1504537
PS read accesses: 2946723
PS write accesses: 1445311
PHT tag read accesses: 55983260
PHT tag write accesses: 1111369
AT tag read accesses: 444115273
AT tag write accesses: 5593343
FT tag read accesses: 412246666
FT tag write accesses: 3942930
PS tag read accesses: 134378250
PS tag write accesses: 4356578
Channel_0_RQ_row_buffer_hit 3884900
Channel_0_RQ_row_buffer_miss 2555905
Channel_0_WQ_row_buffer_hit 1155873
Channel_0_WQ_row_buffer_miss 2502373
Channel_0_WQ_full 51
Channel_0_dbus_congested 6196094

avg_congested_cycle 11

EzSearch AVG IPC :1.01281: L2-Pf-HR :0.33332 : L2-HR :0.44658 Uful:0.20490
     > Finished combination: TraceType=770-tot Sim:1178000000 Prefetcher=L2bingo_dpc3 L1=bingo_dpc3
