TRACE: [496000000][OPT-125M]_[h12][s1024][d64] Warmup: 2000000 NumTraces: 496000000
L1:next_line:L2:no
*************************************************
   ChampSim Multicore Out-of-Order Simulator
   Last compiled: Oct 22 2024 11:25:28
*************************************************

trace_0 770-tot_memTraces_v3/memTraces[496000000][OPT-125M]_[h12][s1024][d64].champsim.xz
CPU 0 L1D next line prefetcher
MAIN.cc ln 751 stats print skipped
CPU  0 inst:    1000002 cyc:     507011 now IPC :1.97235: AVG IPC :1.97235: L2-Pf-HR :0.50936: L2-HR :0.60305: (Sim:0h0m8s) 
CPU  0 inst:    2000000 cyc:     996805 now IPC :2.04167: AVG IPC :2.00641: L2-Pf-HR :0.57240: L2-HR :0.66216: (Sim:0h0m16s) 

Warmup complete CPU  0 instructions:    2000002 cycles:     996806 (Simulation time: 0 hr 0 min 16 sec) 

CPU  0 inst:    3000000 cyc:    1578350 now IPC :1.71956: AVG IPC :1.71956: L2-Pf-HR :0.60821: L2-HR :0.68179: (Sim:0h0m23s) 
CPU  0 inst:    4000003 cyc:    2155264 now IPC :1.73337: AVG IPC :1.72643: L2-Pf-HR :0.61042: L2-HR :0.68366: (Sim:0h0m30s) 
CPU  0 inst:    5000000 cyc:    2726374 now IPC :1.75097: AVG IPC :1.73454: L2-Pf-HR :0.61086: L2-HR :0.68370: (Sim:0h0m37s) 
CPU  0 inst:    6000002 cyc:    3303861 now IPC :1.73164: AVG IPC :1.73381: L2-Pf-HR :0.61686: L2-HR :0.68619: (Sim:0h0m45s) 
CPU  0 inst:    7000005 cyc:    3963507 now IPC :1.51597: AVG IPC :1.68537: L2-Pf-HR :0.61304: L2-HR :0.68338: (Sim:0h0m52s) 
CPU  0 inst:    8000000 cyc:    4525874 now IPC :1.77819: AVG IPC :1.70017: L2-Pf-HR :0.61367: L2-HR :0.68418: (Sim:0h0m59s) 
CPU  0 inst:    9000001 cyc:    5085792 now IPC :1.78598: AVG IPC :1.71192: L2-Pf-HR :0.61480: L2-HR :0.68466: (Sim:0h1m6s) 
CPU  0 inst:   10000001 cyc:    5648855 now IPC :1.77600: AVG IPC :1.71967: L2-Pf-HR :0.61559: L2-HR :0.68542: (Sim:0h1m13s) 
CPU  0 inst:   11000003 cyc:    6204122 now IPC :1.80094: AVG IPC :1.72834: L2-Pf-HR :0.61581: L2-HR :0.68525: (Sim:0h1m21s) 
CPU  0 inst:   12000000 cyc:    6767792 now IPC :1.77408: AVG IPC :1.73281: L2-Pf-HR :0.61901: L2-HR :0.68691: (Sim:0h1m28s) 
CPU  0 inst:   13000005 cyc:    7415675 now IPC :1.54350: AVG IPC :1.71370: L2-Pf-HR :0.62176: L2-HR :0.69505: (Sim:0h1m35s) 
CPU  0 inst:   14000005 cyc:    7972956 now IPC :1.79443: AVG IPC :1.72015: L2-Pf-HR :0.62536: L2-HR :0.70669: (Sim:0h1m42s) 
CPU  0 inst:   15000003 cyc:    8530723 now IPC :1.79286: AVG IPC :1.72553: L2-Pf-HR :0.62894: L2-HR :0.71695: (Sim:0h1m50s) 
CPU  0 inst:   16000000 cyc:    9091747 now IPC :1.78245: AVG IPC :1.72948: L2-Pf-HR :0.63231: L2-HR :0.72575: (Sim:0h1m57s) 
CPU  0 inst:   17000000 cyc:    9815188 now IPC :1.38228: AVG IPC :1.70099: L2-Pf-HR :0.63120: L2-HR :0.72268: (Sim:0h2m4s) 
CPU  0 inst:   18000000 cyc:   10404961 now IPC :1.69557: AVG IPC :1.70065: L2-Pf-HR :0.62995: L2-HR :0.71963: (Sim:0h2m12s) 
CPU  0 inst:   19000000 cyc:   11004036 now IPC :1.66924: AVG IPC :1.69877: L2-Pf-HR :0.62909: L2-HR :0.71747: (Sim:0h2m19s) 
CPU  0 inst:   20000005 cyc:   11596800 now IPC :1.68702: AVG IPC :1.69811: L2-Pf-HR :0.62806: L2-HR :0.71538: (Sim:0h2m27s) 
CPU  0 inst:   21000002 cyc:   12192150 now IPC :1.67968: AVG IPC :1.69713: L2-Pf-HR :0.62740: L2-HR :0.71344: (Sim:0h2m34s) 
CPU  0 inst:   22000001 cyc:   12781987 now IPC :1.69538: AVG IPC :1.69705: L2-Pf-HR :0.62716: L2-HR :0.71200: (Sim:0h2m41s) 
CPU  0 inst:   23000002 cyc:   13495298 now IPC :1.40191: AVG IPC :1.68020: L2-Pf-HR :0.62616: L2-HR :0.71026: (Sim:0h2m49s) 
CPU  0 inst:   24000000 cyc:   14061724 now IPC :1.76545: AVG IPC :1.68390: L2-Pf-HR :0.62580: L2-HR :0.70917: (Sim:0h2m56s) 
CPU  0 inst:   25000003 cyc:   14631083 now IPC :1.75637: AVG IPC :1.68692: L2-Pf-HR :0.62530: L2-HR :0.70836: (Sim:0h3m3s) 
CPU  0 inst:   26000004 cyc:   15189416 now IPC :1.79105: AVG IPC :1.69102: L2-Pf-HR :0.62514: L2-HR :0.70749: (Sim:0h3m11s) 
CPU  0 inst:   27000002 cyc:   15759736 now IPC :1.75340: AVG IPC :1.69343: L2-Pf-HR :0.62511: L2-HR :0.70689: (Sim:0h3m18s) 
CPU  0 inst:   28000000 cyc:   16320977 now IPC :1.78176: AVG IPC :1.69667: L2-Pf-HR :0.62536: L2-HR :0.70639: (Sim:0h3m25s) 
CPU  0 inst:   29000002 cyc:   16976528 now IPC :1.52544: AVG IPC :1.68964: L2-Pf-HR :0.62681: L2-HR :0.70851: (Sim:0h3m33s) 
CPU  0 inst:   30000004 cyc:   17535081 now IPC :1.79034: AVG IPC :1.69304: L2-Pf-HR :0.62813: L2-HR :0.71303: (Sim:0h3m40s) 
CPU  0 inst:   31000001 cyc:   18087667 now IPC :1.80967: AVG IPC :1.69681: L2-Pf-HR :0.62956: L2-HR :0.71742: (Sim:0h3m47s) 
CPU  0 inst:   32000000 cyc:   18647465 now IPC :1.78636: AVG IPC :1.69965: L2-Pf-HR :0.63099: L2-HR :0.72141: (Sim:0h3m54s) 
CPU  0 inst:   33000003 cyc:   19362941 now IPC :1.39768: AVG IPC :1.68789: L2-Pf-HR :0.63095: L2-HR :0.72092: (Sim:0h4m2s) 
CPU  0 inst:   34000000 cyc:   19966103 now IPC :1.65792: AVG IPC :1.68694: L2-Pf-HR :0.63033: L2-HR :0.71972: (Sim:0h4m9s) 
CPU  0 inst:   35000005 cyc:   20553662 now IPC :1.70197: AVG IPC :1.68739: L2-Pf-HR :0.62971: L2-HR :0.71854: (Sim:0h4m17s) 
CPU  0 inst:   36000000 cyc:   21154020 now IPC :1.66566: AVG IPC :1.68674: L2-Pf-HR :0.62914: L2-HR :0.71754: (Sim:0h4m24s) 
CPU  0 inst:   37000004 cyc:   21748507 now IPC :1.68213: AVG IPC :1.68661: L2-Pf-HR :0.62866: L2-HR :0.71653: (Sim:0h4m32s) 
CPU  0 inst:   38000002 cyc:   22344767 now IPC :1.67712: AVG IPC :1.68634: L2-Pf-HR :0.62826: L2-HR :0.71562: (Sim:0h4m39s) 
CPU  0 inst:   39000001 cyc:   23050872 now IPC :1.41622: AVG IPC :1.67770: L2-Pf-HR :0.62809: L2-HR :0.71467: (Sim:0h4m47s) 
CPU  0 inst:   40000000 cyc:   23621556 now IPC :1.75228: AVG IPC :1.67958: L2-Pf-HR :0.62790: L2-HR :0.71407: (Sim:0h4m54s) 
CPU  0 inst:   41000001 cyc:   24182728 now IPC :1.78199: AVG IPC :1.68206: L2-Pf-HR :0.62757: L2-HR :0.71337: (Sim:0h5m1s) 
CPU  0 inst:   42000000 cyc:   24753942 now IPC :1.75066: AVG IPC :1.68370: L2-Pf-HR :0.62728: L2-HR :0.71279: (Sim:0h5m8s) 
CPU  0 inst:   43000005 cyc:   25314640 now IPC :1.78350: AVG IPC :1.68601: L2-Pf-HR :0.62708: L2-HR :0.71222: (Sim:0h5m16s) 
CPU  0 inst:   44000000 cyc:   25880473 now IPC :1.76730: AVG IPC :1.68785: L2-Pf-HR :0.62712: L2-HR :0.71169: (Sim:0h5m23s) 
CPU  0 inst:   45000000 cyc:   26540049 now IPC :1.51613: AVG IPC :1.68342: L2-Pf-HR :0.62804: L2-HR :0.71248: (Sim:0h5m30s) 
CPU  0 inst:   46000000 cyc:   27098424 now IPC :1.79091: AVG IPC :1.68572: L2-Pf-HR :0.62879: L2-HR :0.71523: (Sim:0h5m38s) 
CPU  0 inst:   47000001 cyc:   27660610 now IPC :1.77877: AVG IPC :1.68768: L2-Pf-HR :0.62960: L2-HR :0.71795: (Sim:0h5m45s) 
CPU  0 inst:   48000000 cyc:   28222620 now IPC :1.77933: AVG IPC :1.68957: L2-Pf-HR :0.63061: L2-HR :0.72057: (Sim:0h5m52s) 
CPU  0 inst:   49000000 cyc:   28937725 now IPC :1.39840: AVG IPC :1.68212: L2-Pf-HR :0.63080: L2-HR :0.72078: (Sim:0h6m0s) 
CPU  0 inst:   50000000 cyc:   29528588 now IPC :1.69244: AVG IPC :1.68233: L2-Pf-HR :0.63038: L2-HR :0.71994: (Sim:0h6m7s) 
CPU  0 inst:   51000000 cyc:   30117947 now IPC :1.69676: AVG IPC :1.68263: L2-Pf-HR :0.63018: L2-HR :0.71915: (Sim:0h6m15s) 
CPU  0 inst:   52000000 cyc:   30706685 now IPC :1.69855: AVG IPC :1.68294: L2-Pf-HR :0.62980: L2-HR :0.71839: (Sim:0h6m22s) 
CPU  0 inst:   53000000 cyc:   31302266 now IPC :1.67903: AVG IPC :1.68287: L2-Pf-HR :0.62949: L2-HR :0.71760: (Sim:0h6m30s) 
CPU  0 inst:   54000005 cyc:   31893106 now IPC :1.69251: AVG IPC :1.68305: L2-Pf-HR :0.62909: L2-HR :0.71691: (Sim:0h6m37s) 
CPU  0 inst:   55000005 cyc:   32616189 now IPC :1.38297: AVG IPC :1.67619: L2-Pf-HR :0.62897: L2-HR :0.71616: (Sim:0h6m45s) 
CPU  0 inst:   56000000 cyc:   33181032 now IPC :1.77039: AVG IPC :1.67784: L2-Pf-HR :0.62872: L2-HR :0.71558: (Sim:0h6m52s) 
CPU  0 inst:   57000000 cyc:   33746522 now IPC :1.76838: AVG IPC :1.67940: L2-Pf-HR :0.62856: L2-HR :0.71509: (Sim:0h6m59s) 
CPU  0 inst:   58000001 cyc:   34307426 now IPC :1.78284: AVG IPC :1.68115: L2-Pf-HR :0.62838: L2-HR :0.71456: (Sim:0h7m6s) 
CPU  0 inst:   59000003 cyc:   34877213 now IPC :1.75505: AVG IPC :1.68239: L2-Pf-HR :0.62819: L2-HR :0.71415: (Sim:0h7m14s) 
CPU  0 inst:   60000003 cyc:   35436504 now IPC :1.78798: AVG IPC :1.68410: L2-Pf-HR :0.62793: L2-HR :0.71366: (Sim:0h7m21s) 
CPU  0 inst:   61000001 cyc:   36095120 now IPC :1.51833: AVG IPC :1.68099: L2-Pf-HR :0.62855: L2-HR :0.71388: (Sim:0h7m28s) 
CPU  0 inst:   62000001 cyc:   36648486 now IPC :1.80712: AVG IPC :1.68295: L2-Pf-HR :0.62906: L2-HR :0.71588: (Sim:0h7m35s) 
CPU  0 inst:   63000005 cyc:   37203679 now IPC :1.80118: AVG IPC :1.68476: L2-Pf-HR :0.62969: L2-HR :0.71788: (Sim:0h7m43s) 
CPU  0 inst:   64000000 cyc:   37760361 now IPC :1.79635: AVG IPC :1.68645: L2-Pf-HR :0.63034: L2-HR :0.71982: (Sim:0h7m50s) 
CPU  0 inst:   65000000 cyc:   38452395 now IPC :1.44502: AVG IPC :1.68199: L2-Pf-HR :0.63053: L2-HR :0.72026: (Sim:0h7m57s) 
CPU  0 inst:   66000001 cyc:   39052416 now IPC :1.66661: AVG IPC :1.68175: L2-Pf-HR :0.63040: L2-HR :0.71972: (Sim:0h8m5s) 
CPU  0 inst:   67000000 cyc:   39644491 now IPC :1.68897: AVG IPC :1.68186: L2-Pf-HR :0.63020: L2-HR :0.71916: (Sim:0h8m12s) 
CPU  0 inst:   68000003 cyc:   40238915 now IPC :1.68231: AVG IPC :1.68187: L2-Pf-HR :0.63005: L2-HR :0.71857: (Sim:0h8m20s) 
CPU  0 inst:   69000003 cyc:   40831896 now IPC :1.68639: AVG IPC :1.68193: L2-Pf-HR :0.62979: L2-HR :0.71801: (Sim:0h8m27s) 
CPU  0 inst:   70000000 cyc:   41427595 now IPC :1.67870: AVG IPC :1.68189: L2-Pf-HR :0.62958: L2-HR :0.71746: (Sim:0h8m35s) 
CPU  0 inst:   71000003 cyc:   42148839 now IPC :1.38650: AVG IPC :1.67671: L2-Pf-HR :0.62950: L2-HR :0.71687: (Sim:0h8m42s) 
CPU  0 inst:   72000000 cyc:   42721280 now IPC :1.74690: AVG IPC :1.67767: L2-Pf-HR :0.62932: L2-HR :0.71651: (Sim:0h8m50s) 
CPU  0 inst:   73000000 cyc:   43285226 now IPC :1.77322: AVG IPC :1.67895: L2-Pf-HR :0.62914: L2-HR :0.71602: (Sim:0h8m57s) 
CPU  0 inst:   74000005 cyc:   43859162 now IPC :1.74236: AVG IPC :1.67980: L2-Pf-HR :0.62898: L2-HR :0.71564: (Sim:0h9m4s) 
CPU  0 inst:   75000000 cyc:   44420834 now IPC :1.78039: AVG IPC :1.68110: L2-Pf-HR :0.62889: L2-HR :0.71527: (Sim:0h9m11s) 
CPU  0 inst:   76000001 cyc:   44988916 now IPC :1.76031: AVG IPC :1.68212: L2-Pf-HR :0.62877: L2-HR :0.71490: (Sim:0h9m19s) 
CPU  0 inst:   77000000 cyc:   45649750 now IPC :1.51324: AVG IPC :1.67962: L2-Pf-HR :0.62911: L2-HR :0.71480: (Sim:0h9m26s) 
CPU  0 inst:   78000005 cyc:   46212869 now IPC :1.77583: AVG IPC :1.68082: L2-Pf-HR :0.62952: L2-HR :0.71631: (Sim:0h9m33s) 
CPU  0 inst:   79000002 cyc:   46768143 now IPC :1.80091: AVG IPC :1.68228: L2-Pf-HR :0.62995: L2-HR :0.71788: (Sim:0h9m40s) 
CPU  0 inst:   80000000 cyc:   47329352 now IPC :1.78186: AVG IPC :1.68348: L2-Pf-HR :0.63044: L2-HR :0.71942: (Sim:0h9m48s) 
CPU  0 inst:   81000003 cyc:   48027747 now IPC :1.43186: AVG IPC :1.67975: L2-Pf-HR :0.63066: L2-HR :0.72005: (Sim:0h9m55s) 
CPU  0 inst:   82000001 cyc:   48618037 now IPC :1.69408: AVG IPC :1.67992: L2-Pf-HR :0.63039: L2-HR :0.71953: (Sim:0h10m3s) 
CPU  0 inst:   83000004 cyc:   49211517 now IPC :1.68498: AVG IPC :1.67999: L2-Pf-HR :0.63025: L2-HR :0.71904: (Sim:0h10m10s) 
CPU  0 inst:   84000000 cyc:   49804341 now IPC :1.68683: AVG IPC :1.68007: L2-Pf-HR :0.63011: L2-HR :0.71860: (Sim:0h10m17s) 
CPU  0 inst:   85000001 cyc:   50400288 now IPC :1.67800: AVG IPC :1.68004: L2-Pf-HR :0.62983: L2-HR :0.71809: (Sim:0h10m25s) 
CPU  0 inst:   86000005 cyc:   50991117 now IPC :1.69254: AVG IPC :1.68019: L2-Pf-HR :0.62962: L2-HR :0.71765: (Sim:0h10m32s) 
CPU  0 inst:   87000001 cyc:   51693855 now IPC :1.42300: AVG IPC :1.67663: L2-Pf-HR :0.62962: L2-HR :0.71719: (Sim:0h10m40s) 
CPU  0 inst:   88000000 cyc:   52285077 now IPC :1.69141: AVG IPC :1.67680: L2-Pf-HR :0.62932: L2-HR :0.71677: (Sim:0h10m47s) 
CPU  0 inst:   89000004 cyc:   52850678 now IPC :1.76804: AVG IPC :1.67779: L2-Pf-HR :0.62915: L2-HR :0.71637: (Sim:0h10m54s) 
CPU  0 inst:   90000002 cyc:   53412352 now IPC :1.78039: AVG IPC :1.67889: L2-Pf-HR :0.62903: L2-HR :0.71602: (Sim:0h11m2s) 
CPU  0 inst:   91000001 cyc:   53978771 now IPC :1.76548: AVG IPC :1.67982: L2-Pf-HR :0.62890: L2-HR :0.71570: (Sim:0h11m9s) 
CPU  0 inst:   92000001 cyc:   54537321 now IPC :1.79035: AVG IPC :1.68097: L2-Pf-HR :0.62877: L2-HR :0.71536: (Sim:0h11m16s) 
CPU  0 inst:   93000001 cyc:   55187243 now IPC :1.53865: AVG IPC :1.67926: L2-Pf-HR :0.62905: L2-HR :0.71505: (Sim:0h11m24s) 
CPU  0 inst:   94000002 cyc:   55754548 now IPC :1.76272: AVG IPC :1.68013: L2-Pf-HR :0.62933: L2-HR :0.71628: (Sim:0h11m31s) 
CPU  0 inst:   95000002 cyc:   56315720 now IPC :1.78198: AVG IPC :1.68116: L2-Pf-HR :0.62971: L2-HR :0.71756: (Sim:0h11m38s) 
CPU  0 inst:   96000000 cyc:   56880676 now IPC :1.77005: AVG IPC :1.68206: L2-Pf-HR :0.63011: L2-HR :0.71880: (Sim:0h11m45s) 
CPU  0 inst:   97000001 cyc:   57535078 now IPC :1.52811: AVG IPC :1.68028: L2-Pf-HR :0.63059: L2-HR :0.71963: (Sim:0h11m53s) 
CPU  0 inst:   98000001 cyc:   58167798 now IPC :1.58048: AVG IPC :1.67917: L2-Pf-HR :0.63023: L2-HR :0.71915: (Sim:0h12m0s) 
CPU  0 inst:   99000001 cyc:   58760790 now IPC :1.68636: AVG IPC :1.67925: L2-Pf-HR :0.63017: L2-HR :0.71880: (Sim:0h12m8s) 
CPU  0 inst:  100000003 cyc:   59353816 now IPC :1.68627: AVG IPC :1.67932: L2-Pf-HR :0.63008: L2-HR :0.71843: (Sim:0h12m15s) 
CPU  0 inst:  101000004 cyc:   59944945 now IPC :1.69168: AVG IPC :1.67944: L2-Pf-HR :0.62997: L2-HR :0.71806: (Sim:0h12m23s) 
CPU  0 inst:  102000002 cyc:   60534927 now IPC :1.69496: AVG IPC :1.67960: L2-Pf-HR :0.62982: L2-HR :0.71765: (Sim:0h12m30s) 
CPU  0 inst:  103000001 cyc:   61147830 now IPC :1.63158: AVG IPC :1.67911: L2-Pf-HR :0.63024: L2-HR :0.71749: (Sim:0h12m38s) 
CPU  0 inst:  104000000 cyc:   61835430 now IPC :1.45433: AVG IPC :1.67657: L2-Pf-HR :0.62963: L2-HR :0.71698: (Sim:0h12m46s) 
CPU  0 inst:  105000000 cyc:   62399074 now IPC :1.77417: AVG IPC :1.67746: L2-Pf-HR :0.62952: L2-HR :0.71665: (Sim:0h12m53s) 
CPU  0 inst:  106000002 cyc:   62969458 now IPC :1.75321: AVG IPC :1.67816: L2-Pf-HR :0.62944: L2-HR :0.71642: (Sim:0h13m1s) 
CPU  0 inst:  107000004 cyc:   63529437 now IPC :1.78578: AVG IPC :1.67912: L2-Pf-HR :0.62939: L2-HR :0.71617: (Sim:0h13m8s) 
CPU  0 inst:  108000003 cyc:   64098119 now IPC :1.75845: AVG IPC :1.67984: L2-Pf-HR :0.62939: L2-HR :0.71595: (Sim:0h13m16s) 
CPU  0 inst:  109000001 cyc:   64674722 now IPC :1.73429: AVG IPC :1.68033: L2-Pf-HR :0.62987: L2-HR :0.71585: (Sim:0h13m23s) 
CPU  0 inst:  110000003 cyc:   65318119 now IPC :1.55425: AVG IPC :1.67907: L2-Pf-HR :0.62988: L2-HR :0.71656: (Sim:0h13m31s) 
CPU  0 inst:  111000000 cyc:   65877141 now IPC :1.78883: AVG IPC :1.68002: L2-Pf-HR :0.63008: L2-HR :0.71763: (Sim:0h13m39s) 
CPU  0 inst:  112000000 cyc:   66432602 now IPC :1.80031: AVG IPC :1.68104: L2-Pf-HR :0.63048: L2-HR :0.71874: (Sim:0h13m46s) 
CPU  0 inst:  113000001 cyc:   66999483 now IPC :1.76404: AVG IPC :1.68175: L2-Pf-HR :0.63112: L2-HR :0.71988: (Sim:0h13m54s) 
CPU  0 inst:  114000001 cyc:   67713599 now IPC :1.40033: AVG IPC :1.67874: L2-Pf-HR :0.63057: L2-HR :0.71922: (Sim:0h14m2s) 
CPU  0 inst:  115000003 cyc:   68309664 now IPC :1.67767: AVG IPC :1.67873: L2-Pf-HR :0.63043: L2-HR :0.71887: (Sim:0h14m10s) 
CPU  0 inst:  116000001 cyc:   68907699 now IPC :1.67214: AVG IPC :1.67867: L2-Pf-HR :0.63032: L2-HR :0.71856: (Sim:0h14m17s) 
CPU  0 inst:  117000001 cyc:   69503734 now IPC :1.67775: AVG IPC :1.67866: L2-Pf-HR :0.63024: L2-HR :0.71822: (Sim:0h14m25s) 
CPU  0 inst:  118000001 cyc:   70099189 now IPC :1.67939: AVG IPC :1.67867: L2-Pf-HR :0.63013: L2-HR :0.71789: (Sim:0h14m33s) 
CPU  0 inst:  119000003 cyc:   70688778 now IPC :1.69610: AVG IPC :1.67882: L2-Pf-HR :0.63025: L2-HR :0.71768: (Sim:0h14m40s) 
CPU  0 inst:  120000000 cyc:   71393109 now IPC :1.41978: AVG IPC :1.67622: L2-Pf-HR :0.62982: L2-HR :0.71719: (Sim:0h14m48s) 
CPU  0 inst:  121000000 cyc:   71962730 now IPC :1.75555: AVG IPC :1.67686: L2-Pf-HR :0.62963: L2-HR :0.71690: (Sim:0h14m56s) 
CPU  0 inst:  122000001 cyc:   72524111 now IPC :1.78132: AVG IPC :1.67768: L2-Pf-HR :0.62950: L2-HR :0.71662: (Sim:0h15m4s) 
CPU  0 inst:  123000001 cyc:   73086923 now IPC :1.77679: AVG IPC :1.67845: L2-Pf-HR :0.62942: L2-HR :0.71640: (Sim:0h15m11s) 
CPU  0 inst:  124000001 cyc:   73648444 now IPC :1.78088: AVG IPC :1.67925: L2-Pf-HR :0.62934: L2-HR :0.71616: (Sim:0h15m19s) 
CPU  0 inst:  125000001 cyc:   74208472 now IPC :1.78562: AVG IPC :1.68006: L2-Pf-HR :0.62954: L2-HR :0.71602: (Sim:0h15m26s) 
CPU  0 inst:  126000000 cyc:   74868868 now IPC :1.51424: AVG IPC :1.67858: L2-Pf-HR :0.62963: L2-HR :0.71649: (Sim:0h15m34s) 
CPU  0 inst:  127000002 cyc:   75426013 now IPC :1.79487: AVG IPC :1.67945: L2-Pf-HR :0.62986: L2-HR :0.71742: (Sim:0h15m42s) 
CPU  0 inst:  128000000 cyc:   75985985 now IPC :1.78580: AVG IPC :1.68024: L2-Pf-HR :0.63016: L2-HR :0.71837: (Sim:0h15m49s) 
CPU  0 inst:  129000003 cyc:   76548281 now IPC :1.77843: AVG IPC :1.68097: L2-Pf-HR :0.63053: L2-HR :0.71932: (Sim:0h15m57s) 
CPU  0 inst:  130000004 cyc:   77267340 now IPC :1.39071: AVG IPC :1.67824: L2-Pf-HR :0.63038: L2-HR :0.71898: (Sim:0h16m5s) 
CPU  0 inst:  131000005 cyc:   77858824 now IPC :1.69066: AVG IPC :1.67833: L2-Pf-HR :0.63026: L2-HR :0.71872: (Sim:0h16m13s) 
CPU  0 inst:  132000000 cyc:   78450029 now IPC :1.69145: AVG IPC :1.67843: L2-Pf-HR :0.63013: L2-HR :0.71842: (Sim:0h16m20s) 
CPU  0 inst:  133000004 cyc:   79047134 now IPC :1.67475: AVG IPC :1.67840: L2-Pf-HR :0.63008: L2-HR :0.71816: (Sim:0h16m28s) 
CPU  0 inst:  134000005 cyc:   79642907 now IPC :1.67849: AVG IPC :1.67840: L2-Pf-HR :0.63000: L2-HR :0.71787: (Sim:0h16m36s) 
CPU  0 inst:  135000003 cyc:   80239038 now IPC :1.67748: AVG IPC :1.67840: L2-Pf-HR :0.63002: L2-HR :0.71765: (Sim:0h16m44s) 
CPU  0 inst:  136000000 cyc:   80939942 now IPC :1.42672: AVG IPC :1.67619: L2-Pf-HR :0.62978: L2-HR :0.71728: (Sim:0h16m52s) 
CPU  0 inst:  137000004 cyc:   81504971 now IPC :1.76983: AVG IPC :1.67685: L2-Pf-HR :0.62967: L2-HR :0.71703: (Sim:0h16m59s) 
CPU  0 inst:  138000002 cyc:   82077421 now IPC :1.74687: AVG IPC :1.67734: L2-Pf-HR :0.62957: L2-HR :0.71685: (Sim:0h17m7s) 
CPU  0 inst:  139000003 cyc:   82637000 now IPC :1.78706: AVG IPC :1.67809: L2-Pf-HR :0.62951: L2-HR :0.71666: (Sim:0h17m14s) 
CPU  0 inst:  140000001 cyc:   83202176 now IPC :1.76936: AVG IPC :1.67872: L2-Pf-HR :0.62943: L2-HR :0.71646: (Sim:0h17m22s) 
CPU  0 inst:  141000004 cyc:   83763824 now IPC :1.78048: AVG IPC :1.67941: L2-Pf-HR :0.62947: L2-HR :0.71629: (Sim:0h17m29s) 
CPU  0 inst:  142000001 cyc:   84422343 now IPC :1.51855: AVG IPC :1.67814: L2-Pf-HR :0.62963: L2-HR :0.71661: (Sim:0h17m37s) 
CPU  0 inst:  143000004 cyc:   84973648 now IPC :1.81388: AVG IPC :1.67903: L2-Pf-HR :0.62982: L2-HR :0.71739: (Sim:0h17m45s) 
CPU  0 inst:  144000000 cyc:   85543637 now IPC :1.75441: AVG IPC :1.67954: L2-Pf-HR :0.63010: L2-HR :0.71820: (Sim:0h17m52s) 
CPU  0 inst:  145000000 cyc:   86108303 now IPC :1.77096: AVG IPC :1.68015: L2-Pf-HR :0.63037: L2-HR :0.71898: (Sim:0h18m0s) 
CPU  0 inst:  146000004 cyc:   86821364 now IPC :1.40241: AVG IPC :1.67784: L2-Pf-HR :0.63037: L2-HR :0.71886: (Sim:0h18m6s) 
CPU  0 inst:  147000001 cyc:   87414068 now IPC :1.68718: AVG IPC :1.67791: L2-Pf-HR :0.63023: L2-HR :0.71857: (Sim:0h18m10s) 
CPU  0 inst:  148000000 cyc:   88010915 now IPC :1.67547: AVG IPC :1.67789: L2-Pf-HR :0.63015: L2-HR :0.71835: (Sim:0h18m15s) 
CPU  0 inst:  149000004 cyc:   88602264 now IPC :1.69106: AVG IPC :1.67798: L2-Pf-HR :0.63010: L2-HR :0.71811: (Sim:0h18m20s) 
CPU  0 inst:  150000005 cyc:   89201516 now IPC :1.66875: AVG IPC :1.67791: L2-Pf-HR :0.63006: L2-HR :0.71788: (Sim:0h18m25s) 
CPU  0 inst:  151000003 cyc:   89789110 now IPC :1.70185: AVG IPC :1.67807: L2-Pf-HR :0.62998: L2-HR :0.71762: (Sim:0h18m29s) 
CPU  0 inst:  152000000 cyc:   90501574 now IPC :1.40358: AVG IPC :1.67589: L2-Pf-HR :0.62990: L2-HR :0.71734: (Sim:0h18m34s) 
CPU  0 inst:  153000002 cyc:   91074850 now IPC :1.74436: AVG IPC :1.67632: L2-Pf-HR :0.62980: L2-HR :0.71714: (Sim:0h18m39s) 
CPU  0 inst:  154000000 cyc:   91633209 now IPC :1.79096: AVG IPC :1.67703: L2-Pf-HR :0.62976: L2-HR :0.71693: (Sim:0h18m43s) 
CPU  0 inst:  155000003 cyc:   92203300 now IPC :1.75411: AVG IPC :1.67751: L2-Pf-HR :0.62974: L2-HR :0.71675: (Sim:0h18m48s) 
CPU  0 inst:  156000003 cyc:   92764884 now IPC :1.78068: AVG IPC :1.67814: L2-Pf-HR :0.62966: L2-HR :0.71657: (Sim:0h18m53s) 
CPU  0 inst:  157000003 cyc:   93327249 now IPC :1.77820: AVG IPC :1.67875: L2-Pf-HR :0.62961: L2-HR :0.71639: (Sim:0h18m57s) 
CPU  0 inst:  158000004 cyc:   93981559 now IPC :1.52833: AVG IPC :1.67769: L2-Pf-HR :0.62982: L2-HR :0.71663: (Sim:0h19m2s) 
CPU  0 inst:  159000002 cyc:   94535793 now IPC :1.80429: AVG IPC :1.67844: L2-Pf-HR :0.63002: L2-HR :0.71738: (Sim:0h19m7s) 
CPU  0 inst:  160000000 cyc:   95095960 now IPC :1.78518: AVG IPC :1.67908: L2-Pf-HR :0.63022: L2-HR :0.71814: (Sim:0h19m12s) 
CPU  0 inst:  161000003 cyc:   95651020 now IPC :1.80161: AVG IPC :1.67980: L2-Pf-HR :0.63045: L2-HR :0.71889: (Sim:0h19m16s) 
CPU  0 inst:  162000004 cyc:   96363067 now IPC :1.40440: AVG IPC :1.67774: L2-Pf-HR :0.63052: L2-HR :0.71892: (Sim:0h19m23s) 
CPU  0 inst:  163000001 cyc:   96956470 now IPC :1.68519: AVG IPC :1.67779: L2-Pf-HR :0.63039: L2-HR :0.71871: (Sim:0h19m28s) 
CPU  0 inst:  164000001 cyc:   97544525 now IPC :1.70052: AVG IPC :1.67793: L2-Pf-HR :0.63031: L2-HR :0.71849: (Sim:0h19m34s) 
CPU  0 inst:  165000003 cyc:   98139066 now IPC :1.68197: AVG IPC :1.67795: L2-Pf-HR :0.63022: L2-HR :0.71830: (Sim:0h19m39s) 
CPU  0 inst:  166000000 cyc:   98729407 now IPC :1.69393: AVG IPC :1.67805: L2-Pf-HR :0.63017: L2-HR :0.71806: (Sim:0h19m43s) 
CPU  0 inst:  167000000 cyc:   99325882 now IPC :1.67652: AVG IPC :1.67804: L2-Pf-HR :0.63007: L2-HR :0.71785: (Sim:0h19m48s) 
CPU  0 inst:  168000000 cyc:  100044579 now IPC :1.39141: AVG IPC :1.67596: L2-Pf-HR :0.63002: L2-HR :0.71759: (Sim:0h19m53s) 
CPU  0 inst:  169000000 cyc:  100607995 now IPC :1.77489: AVG IPC :1.67652: L2-Pf-HR :0.62993: L2-HR :0.71740: (Sim:0h19m58s) 
CPU  0 inst:  170000004 cyc:  101179144 now IPC :1.75086: AVG IPC :1.67694: L2-Pf-HR :0.62988: L2-HR :0.71723: (Sim:0h20m2s) 
CPU  0 inst:  171000000 cyc:  101739257 now IPC :1.78535: AVG IPC :1.67755: L2-Pf-HR :0.62979: L2-HR :0.71705: (Sim:0h20m7s) 
CPU  0 inst:  172000001 cyc:  102305588 now IPC :1.76575: AVG IPC :1.67804: L2-Pf-HR :0.62975: L2-HR :0.71686: (Sim:0h20m12s) 
CPU  0 inst:  173000004 cyc:  102870059 now IPC :1.77158: AVG IPC :1.67856: L2-Pf-HR :0.62967: L2-HR :0.71669: (Sim:0h20m16s) 
CPU  0 inst:  174000001 cyc:  103519911 now IPC :1.53881: AVG IPC :1.67767: L2-Pf-HR :0.62985: L2-HR :0.71678: (Sim:0h20m21s) 
CPU  0 inst:  175000002 cyc:  104082709 now IPC :1.77684: AVG IPC :1.67821: L2-Pf-HR :0.63005: L2-HR :0.71744: (Sim:0h20m26s) 
CPU  0 inst:  176000000 cyc:  104635688 now IPC :1.80838: AVG IPC :1.67891: L2-Pf-HR :0.63022: L2-HR :0.71814: (Sim:0h20m31s) 
CPU  0 inst:  177000001 cyc:  105198049 now IPC :1.77822: AVG IPC :1.67944: L2-Pf-HR :0.63047: L2-HR :0.71882: (Sim:0h20m35s) 
CPU  0 inst:  178000003 cyc:  105903141 now IPC :1.41826: AVG IPC :1.67769: L2-Pf-HR :0.63054: L2-HR :0.71896: (Sim:0h20m40s) 
CPU  0 inst:  179000005 cyc:  106497218 now IPC :1.68329: AVG IPC :1.67772: L2-Pf-HR :0.63045: L2-HR :0.71875: (Sim:0h20m45s) 
CPU  0 inst:  180000000 cyc:  107088887 now IPC :1.69013: AVG IPC :1.67779: L2-Pf-HR :0.63035: L2-HR :0.71855: (Sim:0h20m50s) 
CPU  0 inst:  181000004 cyc:  107683722 now IPC :1.68115: AVG IPC :1.67781: L2-Pf-HR :0.63027: L2-HR :0.71833: (Sim:0h20m54s) 
CPU  0 inst:  182000002 cyc:  108280867 now IPC :1.67463: AVG IPC :1.67779: L2-Pf-HR :0.63015: L2-HR :0.71811: (Sim:0h20m59s) 
CPU  0 inst:  183000000 cyc:  108875790 now IPC :1.68089: AVG IPC :1.67781: L2-Pf-HR :0.63006: L2-HR :0.71787: (Sim:0h21m3s) 
CPU  0 inst:  184000000 cyc:  109598450 now IPC :1.38378: AVG IPC :1.67585: L2-Pf-HR :0.63005: L2-HR :0.71764: (Sim:0h21m8s) 
CPU  0 inst:  185000001 cyc:  110171308 now IPC :1.74564: AVG IPC :1.67622: L2-Pf-HR :0.62998: L2-HR :0.71750: (Sim:0h21m13s) 
CPU  0 inst:  186000004 cyc:  110732296 now IPC :1.78257: AVG IPC :1.67676: L2-Pf-HR :0.62995: L2-HR :0.71734: (Sim:0h21m19s) 
CPU  0 inst:  187000003 cyc:  111302404 now IPC :1.75405: AVG IPC :1.67716: L2-Pf-HR :0.62989: L2-HR :0.71720: (Sim:0h21m26s) 
CPU  0 inst:  188000002 cyc:  111866633 now IPC :1.77233: AVG IPC :1.67764: L2-Pf-HR :0.62984: L2-HR :0.71704: (Sim:0h21m34s) 
CPU  0 inst:  189000002 cyc:  112428074 now IPC :1.78113: AVG IPC :1.67816: L2-Pf-HR :0.62976: L2-HR :0.71686: (Sim:0h21m41s) 
CPU  0 inst:  190000005 cyc:  113090754 now IPC :1.50903: AVG IPC :1.67716: L2-Pf-HR :0.62991: L2-HR :0.71685: (Sim:0h21m49s) 
CPU  0 inst:  191000002 cyc:  113650191 now IPC :1.78751: AVG IPC :1.67771: L2-Pf-HR :0.63010: L2-HR :0.71747: (Sim:0h21m56s) 
CPU  0 inst:  192000000 cyc:  114211607 now IPC :1.78121: AVG IPC :1.67823: L2-Pf-HR :0.63026: L2-HR :0.71808: (Sim:0h22m3s) 
CPU  0 inst:  193000005 cyc:  114771557 now IPC :1.78588: AVG IPC :1.67876: L2-Pf-HR :0.63046: L2-HR :0.71869: (Sim:0h22m10s) 
CPU  0 inst:  194000001 cyc:  116693056 now IPC :0.52042: AVG IPC :1.65952: L2-Pf-HR :0.62841: L2-HR :0.71702: (Sim:0h22m22s) 
CPU  0 inst:  195000003 cyc:  122073267 now IPC :0.18587: AVG IPC :1.59403: L2-Pf-HR :0.61861: L2-HR :0.70937: (Sim:0h22m47s) 
CPU  0 inst:  196000005 cyc:  127529751 now IPC :0.18327: AVG IPC :1.53320: L2-Pf-HR :0.60910: L2-HR :0.70224: (Sim:0h23m12s) 
CPU  0 inst:  197000001 cyc:  132987845 now IPC :0.18321: AVG IPC :1.47737: L2-Pf-HR :0.59987: L2-HR :0.69558: (Sim:0h23m37s) 
CPU  0 inst:  198000002 cyc:  138448639 now IPC :0.18312: AVG IPC :1.42595: L2-Pf-HR :0.59091: L2-HR :0.68935: (Sim:0h24m2s) 
CPU  0 inst:  199000002 cyc:  143909097 now IPC :0.18313: AVG IPC :1.37847: L2-Pf-HR :0.58221: L2-HR :0.68350: (Sim:0h24m28s) 
CPU  0 inst:  200000000 cyc:  149367104 now IPC :0.18322: AVG IPC :1.33450: L2-Pf-HR :0.57377: L2-HR :0.67800: (Sim:0h24m53s) 
CPU  0 inst:  201000000 cyc:  154559025 now IPC :0.19261: AVG IPC :1.29589: L2-Pf-HR :0.56648: L2-HR :0.67334: (Sim:0h25m16s) 
CPU  0 inst:  202000000 cyc:  158515174 now IPC :0.25277: AVG IPC :1.26969: L2-Pf-HR :0.56452: L2-HR :0.67224: (Sim:0h25m34s) 
CPU  0 inst:  203000002 cyc:  162469869 now IPC :0.25286: AVG IPC :1.24479: L2-Pf-HR :0.56259: L2-HR :0.67115: (Sim:0h25m51s) 
CPU  0 inst:  204000005 cyc:  166390704 now IPC :0.25505: AVG IPC :1.22133: L2-Pf-HR :0.56066: L2-HR :0.67006: (Sim:0h26m9s) 
CPU  0 inst:  205000000 cyc:  170261643 now IPC :0.25833: AVG IPC :1.19930: L2-Pf-HR :0.55874: L2-HR :0.66898: (Sim:0h26m26s) 
CPU  0 inst:  206000000 cyc:  174155996 now IPC :0.25678: AVG IPC :1.17811: L2-Pf-HR :0.55684: L2-HR :0.66791: (Sim:0h26m43s) 
CPU  0 inst:  207000000 cyc:  178036277 now IPC :0.25771: AVG IPC :1.15793: L2-Pf-HR :0.55494: L2-HR :0.66684: (Sim:0h27m0s) 
CPU  0 inst:  208000000 cyc:  181911610 now IPC :0.25804: AVG IPC :1.13866: L2-Pf-HR :0.55306: L2-HR :0.66578: (Sim:0h27m18s) 
CPU  0 inst:  209000000 cyc:  185795057 now IPC :0.25750: AVG IPC :1.12014: L2-Pf-HR :0.55120: L2-HR :0.66472: (Sim:0h27m35s) 
CPU  0 inst:  210000001 cyc:  189686603 now IPC :0.25697: AVG IPC :1.10234: L2-Pf-HR :0.54934: L2-HR :0.66368: (Sim:0h27m52s) 
CPU  0 inst:  211000001 cyc:  193552947 now IPC :0.25864: AVG IPC :1.08540: L2-Pf-HR :0.54751: L2-HR :0.66264: (Sim:0h28m9s) 
CPU  0 inst:  212000004 cyc:  197420863 now IPC :0.25854: AVG IPC :1.06912: L2-Pf-HR :0.54568: L2-HR :0.66160: (Sim:0h28m27s) 
CPU  0 inst:  213000000 cyc:  201316121 now IPC :0.25672: AVG IPC :1.05332: L2-Pf-HR :0.54386: L2-HR :0.66058: (Sim:0h28m44s) 
CPU  0 inst:  214000000 cyc:  205200952 now IPC :0.25741: AVG IPC :1.03818: L2-Pf-HR :0.54206: L2-HR :0.65955: (Sim:0h29m1s) 
CPU  0 inst:  215000000 cyc:  209086701 now IPC :0.25735: AVG IPC :1.02360: L2-Pf-HR :0.54026: L2-HR :0.65854: (Sim:0h29m18s) 
CPU  0 inst:  216000000 cyc:  212962574 now IPC :0.25801: AVG IPC :1.00960: L2-Pf-HR :0.53848: L2-HR :0.65753: (Sim:0h29m35s) 
CPU  0 inst:  217000000 cyc:  216840089 now IPC :0.25790: AVG IPC :0.99609: L2-Pf-HR :0.53671: L2-HR :0.65653: (Sim:0h29m52s) 
CPU  0 inst:  218000001 cyc:  220707509 now IPC :0.25857: AVG IPC :0.98311: L2-Pf-HR :0.53496: L2-HR :0.65553: (Sim:0h30m10s) 
CPU  0 inst:  219000003 cyc:  224597741 now IPC :0.25705: AVG IPC :0.97048: L2-Pf-HR :0.53322: L2-HR :0.65454: (Sim:0h30m27s) 
CPU  0 inst:  220000000 cyc:  228477023 now IPC :0.25778: AVG IPC :0.95833: L2-Pf-HR :0.53148: L2-HR :0.65356: (Sim:0h30m44s) 
CPU  0 inst:  221000000 cyc:  232355524 now IPC :0.25783: AVG IPC :0.94658: L2-Pf-HR :0.52976: L2-HR :0.65258: (Sim:0h31m1s) 
CPU  0 inst:  222000000 cyc:  236204640 now IPC :0.25980: AVG IPC :0.93534: L2-Pf-HR :0.52805: L2-HR :0.65161: (Sim:0h31m18s) 
CPU  0 inst:  223000000 cyc:  240091283 now IPC :0.25729: AVG IPC :0.92432: L2-Pf-HR :0.52634: L2-HR :0.65064: (Sim:0h31m35s) 
CPU  0 inst:  224000000 cyc:  243996014 now IPC :0.25610: AVG IPC :0.91358: L2-Pf-HR :0.52465: L2-HR :0.64968: (Sim:0h31m52s) 
CPU  0 inst:  225000001 cyc:  247831683 now IPC :0.26071: AVG IPC :0.90344: L2-Pf-HR :0.52297: L2-HR :0.64873: (Sim:0h32m9s) 
CPU  0 inst:  226000001 cyc:  251724524 now IPC :0.25688: AVG IPC :0.89340: L2-Pf-HR :0.52131: L2-HR :0.64778: (Sim:0h32m26s) 
CPU  0 inst:  227000000 cyc:  255610401 now IPC :0.25734: AVG IPC :0.88369: L2-Pf-HR :0.51965: L2-HR :0.64684: (Sim:0h32m43s) 
CPU  0 inst:  228000000 cyc:  259484410 now IPC :0.25813: AVG IPC :0.87432: L2-Pf-HR :0.51800: L2-HR :0.64590: (Sim:0h33m0s) 
CPU  0 inst:  229000004 cyc:  263364302 now IPC :0.25774: AVG IPC :0.86520: L2-Pf-HR :0.51637: L2-HR :0.64497: (Sim:0h33m17s) 
CPU  0 inst:  230000000 cyc:  267222097 now IPC :0.25921: AVG IPC :0.85642: L2-Pf-HR :0.51474: L2-HR :0.64404: (Sim:0h33m34s) 
CPU  0 inst:  231000000 cyc:  271099795 now IPC :0.25788: AVG IPC :0.84782: L2-Pf-HR :0.51312: L2-HR :0.64312: (Sim:0h33m51s) 
CPU  0 inst:  232000000 cyc:  274998483 now IPC :0.25650: AVG IPC :0.83941: L2-Pf-HR :0.51151: L2-HR :0.64221: (Sim:0h34m8s) 
CPU  0 inst:  233000000 cyc:  278845712 now IPC :0.25993: AVG IPC :0.83139: L2-Pf-HR :0.50992: L2-HR :0.64130: (Sim:0h34m25s) 
CPU  0 inst:  234000003 cyc:  282682472 now IPC :0.26064: AVG IPC :0.82361: L2-Pf-HR :0.50834: L2-HR :0.64040: (Sim:0h34m42s) 
CPU  0 inst:  235000000 cyc:  286563173 now IPC :0.25768: AVG IPC :0.81592: L2-Pf-HR :0.50676: L2-HR :0.63950: (Sim:0h34m59s) 
CPU  0 inst:  236000000 cyc:  290451067 now IPC :0.25721: AVG IPC :0.80842: L2-Pf-HR :0.50519: L2-HR :0.63860: (Sim:0h35m16s) 
CPU  0 inst:  237000000 cyc:  294335953 now IPC :0.25741: AVG IPC :0.80112: L2-Pf-HR :0.50363: L2-HR :0.63771: (Sim:0h35m33s) 
CPU  0 inst:  238000000 cyc:  298209151 now IPC :0.25818: AVG IPC :0.79405: L2-Pf-HR :0.50208: L2-HR :0.63683: (Sim:0h35m50s) 
CPU  0 inst:  239000000 cyc:  302104244 now IPC :0.25673: AVG IPC :0.78709: L2-Pf-HR :0.50055: L2-HR :0.63595: (Sim:0h36m7s) 
CPU  0 inst:  240000000 cyc:  305993991 now IPC :0.25709: AVG IPC :0.78034: L2-Pf-HR :0.49902: L2-HR :0.63508: (Sim:0h36m24s) 
CPU  0 inst:  241000001 cyc:  309845516 now IPC :0.25964: AVG IPC :0.77384: L2-Pf-HR :0.49751: L2-HR :0.63421: (Sim:0h36m41s) 
CPU  0 inst:  242000000 cyc:  313743242 now IPC :0.25656: AVG IPC :0.76739: L2-Pf-HR :0.49599: L2-HR :0.63335: (Sim:0h36m59s) 
CPU  0 inst:  243000000 cyc:  317631186 now IPC :0.25721: AVG IPC :0.76113: L2-Pf-HR :0.49449: L2-HR :0.63249: (Sim:0h37m16s) 
CPU  0 inst:  244000000 cyc:  321498926 now IPC :0.25855: AVG IPC :0.75507: L2-Pf-HR :0.49300: L2-HR :0.63163: (Sim:0h37m33s) 
CPU  0 inst:  245000000 cyc:  325373578 now IPC :0.25809: AVG IPC :0.74913: L2-Pf-HR :0.49151: L2-HR :0.63079: (Sim:0h37m50s) 
CPU  0 inst:  246000004 cyc:  329245161 now IPC :0.25829: AVG IPC :0.74334: L2-Pf-HR :0.49004: L2-HR :0.62994: (Sim:0h38m7s) 
CPU  0 inst:  247000000 cyc:  333130413 now IPC :0.25738: AVG IPC :0.73765: L2-Pf-HR :0.48857: L2-HR :0.62910: (Sim:0h38m24s) 
CPU  0 inst:  248000000 cyc:  337015870 now IPC :0.25737: AVG IPC :0.73210: L2-Pf-HR :0.48712: L2-HR :0.62827: (Sim:0h38m41s) 
CPU  0 inst:  249000003 cyc:  340888372 now IPC :0.25823: AVG IPC :0.72670: L2-Pf-HR :0.48568: L2-HR :0.62744: (Sim:0h38m58s) 
CPU  0 inst:  250000004 cyc:  344755546 now IPC :0.25859: AVG IPC :0.72144: L2-Pf-HR :0.48424: L2-HR :0.62661: (Sim:0h39m16s) 
CPU  0 inst:  251000000 cyc:  348663581 now IPC :0.25588: AVG IPC :0.71620: L2-Pf-HR :0.48280: L2-HR :0.62579: (Sim:0h39m33s) 
CPU  0 inst:  252000000 cyc:  352543501 now IPC :0.25774: AVG IPC :0.71114: L2-Pf-HR :0.48138: L2-HR :0.62498: (Sim:0h39m51s) 
CPU  0 inst:  253000000 cyc:  356430531 now IPC :0.25727: AVG IPC :0.70618: L2-Pf-HR :0.47996: L2-HR :0.62417: (Sim:0h40m8s) 
CPU  0 inst:  254000000 cyc:  360335438 now IPC :0.25609: AVG IPC :0.70129: L2-Pf-HR :0.47856: L2-HR :0.62336: (Sim:0h40m26s) 
CPU  0 inst:  255000002 cyc:  364197342 now IPC :0.25894: AVG IPC :0.69658: L2-Pf-HR :0.47716: L2-HR :0.62256: (Sim:0h40m43s) 
CPU  0 inst:  256000000 cyc:  368098396 now IPC :0.25634: AVG IPC :0.69191: L2-Pf-HR :0.47578: L2-HR :0.62176: (Sim:0h41m1s) 
CPU  0 inst:  257000000 cyc:  371969848 now IPC :0.25830: AVG IPC :0.68738: L2-Pf-HR :0.47440: L2-HR :0.62097: (Sim:0h41m18s) 
CPU  0 inst:  258000000 cyc:  375836759 now IPC :0.25860: AVG IPC :0.68296: L2-Pf-HR :0.47302: L2-HR :0.62018: (Sim:0h41m36s) 
CPU  0 inst:  259000000 cyc:  379698666 now IPC :0.25894: AVG IPC :0.67863: L2-Pf-HR :0.47165: L2-HR :0.61939: (Sim:0h41m53s) 
CPU  0 inst:  260000000 cyc:  383559549 now IPC :0.25901: AVG IPC :0.67440: L2-Pf-HR :0.47030: L2-HR :0.61861: (Sim:0h42m11s) 
CPU  0 inst:  261000000 cyc:  387406887 now IPC :0.25992: AVG IPC :0.67027: L2-Pf-HR :0.46894: L2-HR :0.61784: (Sim:0h42m28s) 
CPU  0 inst:  262000000 cyc:  391290276 now IPC :0.25751: AVG IPC :0.66617: L2-Pf-HR :0.46760: L2-HR :0.61706: (Sim:0h42m46s) 
CPU  0 inst:  263000001 cyc:  395157873 now IPC :0.25856: AVG IPC :0.66217: L2-Pf-HR :0.46628: L2-HR :0.61630: (Sim:0h43m3s) 
CPU  0 inst:  264000000 cyc:  399037757 now IPC :0.25774: AVG IPC :0.65822: L2-Pf-HR :0.46495: L2-HR :0.61553: (Sim:0h43m21s) 
CPU  0 inst:  265000000 cyc:  402906813 now IPC :0.25846: AVG IPC :0.65438: L2-Pf-HR :0.46363: L2-HR :0.61477: (Sim:0h43m38s) 
CPU  0 inst:  266000000 cyc:  406797060 now IPC :0.25705: AVG IPC :0.65057: L2-Pf-HR :0.46231: L2-HR :0.61402: (Sim:0h43m56s) 
CPU  0 inst:  267000004 cyc:  410658984 now IPC :0.25894: AVG IPC :0.64687: L2-Pf-HR :0.46101: L2-HR :0.61327: (Sim:0h44m13s) 
CPU  0 inst:  268000000 cyc:  414538496 now IPC :0.25776: AVG IPC :0.64322: L2-Pf-HR :0.45971: L2-HR :0.61252: (Sim:0h44m30s) 
CPU  0 inst:  269000000 cyc:  418458239 now IPC :0.25512: AVG IPC :0.63958: L2-Pf-HR :0.45842: L2-HR :0.61177: (Sim:0h44m47s) 
CPU  0 inst:  270000001 cyc:  422318841 now IPC :0.25903: AVG IPC :0.63609: L2-Pf-HR :0.45714: L2-HR :0.61104: (Sim:0h45m4s) 
CPU  0 inst:  271000001 cyc:  426168055 now IPC :0.25979: AVG IPC :0.63269: L2-Pf-HR :0.45587: L2-HR :0.61030: (Sim:0h45m21s) 
CPU  0 inst:  272000000 cyc:  430065304 now IPC :0.25659: AVG IPC :0.62927: L2-Pf-HR :0.45460: L2-HR :0.60957: (Sim:0h45m38s) 
CPU  0 inst:  273000000 cyc:  433939049 now IPC :0.25815: AVG IPC :0.62595: L2-Pf-HR :0.45334: L2-HR :0.60884: (Sim:0h45m55s) 
CPU  0 inst:  274000000 cyc:  437808836 now IPC :0.25841: AVG IPC :0.62269: L2-Pf-HR :0.45208: L2-HR :0.60812: (Sim:0h46m13s) 
CPU  0 inst:  275000000 cyc:  441693230 now IPC :0.25744: AVG IPC :0.61947: L2-Pf-HR :0.45083: L2-HR :0.60740: (Sim:0h46m30s) 
CPU  0 inst:  276000000 cyc:  445528440 now IPC :0.26074: AVG IPC :0.61638: L2-Pf-HR :0.44959: L2-HR :0.60668: (Sim:0h46m47s) 
CPU  0 inst:  277000000 cyc:  449401458 now IPC :0.25820: AVG IPC :0.61329: L2-Pf-HR :0.44836: L2-HR :0.60597: (Sim:0h47m4s) 
CPU  0 inst:  278000001 cyc:  453283767 now IPC :0.25758: AVG IPC :0.61023: L2-Pf-HR :0.44714: L2-HR :0.60526: (Sim:0h47m21s) 
CPU  0 inst:  279000003 cyc:  457154149 now IPC :0.25837: AVG IPC :0.60725: L2-Pf-HR :0.44592: L2-HR :0.60455: (Sim:0h47m38s) 
CPU  0 inst:  280000000 cyc:  461013389 now IPC :0.25912: AVG IPC :0.60433: L2-Pf-HR :0.44470: L2-HR :0.60385: (Sim:0h47m55s) 
CPU  0 inst:  281000000 cyc:  464885361 now IPC :0.25827: AVG IPC :0.60144: L2-Pf-HR :0.44349: L2-HR :0.60315: (Sim:0h48m12s) 
CPU  0 inst:  282000000 cyc:  468749823 now IPC :0.25877: AVG IPC :0.59861: L2-Pf-HR :0.44229: L2-HR :0.60246: (Sim:0h48m29s) 
CPU  0 inst:  283000000 cyc:  472595929 now IPC :0.26000: AVG IPC :0.59585: L2-Pf-HR :0.44110: L2-HR :0.60177: (Sim:0h48m46s) 
CPU  0 inst:  284000004 cyc:  476496959 now IPC :0.25634: AVG IPC :0.59306: L2-Pf-HR :0.43991: L2-HR :0.60108: (Sim:0h49m3s) 
CPU  0 inst:  285000000 cyc:  480366471 now IPC :0.25843: AVG IPC :0.59036: L2-Pf-HR :0.43873: L2-HR :0.60040: (Sim:0h49m17s) 
CPU  0 inst:  286000003 cyc:  484243604 now IPC :0.25792: AVG IPC :0.58769: L2-Pf-HR :0.43756: L2-HR :0.59972: (Sim:0h49m28s) 
CPU  0 inst:  287000000 cyc:  488108899 now IPC :0.25871: AVG IPC :0.58508: L2-Pf-HR :0.43639: L2-HR :0.59904: (Sim:0h49m39s) 
CPU  0 inst:  288000000 cyc:  491960557 now IPC :0.25963: AVG IPC :0.58253: L2-Pf-HR :0.43523: L2-HR :0.59837: (Sim:0h49m50s) 
CPU  0 inst:  289000000 cyc:  495851284 now IPC :0.25702: AVG IPC :0.57997: L2-Pf-HR :0.43407: L2-HR :0.59770: (Sim:0h50m5s) 
CPU  0 inst:  290000000 cyc:  499727480 now IPC :0.25798: AVG IPC :0.57747: L2-Pf-HR :0.43292: L2-HR :0.59703: (Sim:0h50m22s) 
CPU  0 inst:  291000000 cyc:  503606228 now IPC :0.25782: AVG IPC :0.57500: L2-Pf-HR :0.43177: L2-HR :0.59636: (Sim:0h50m39s) 
CPU  0 inst:  292000005 cyc:  507491538 now IPC :0.25738: AVG IPC :0.57256: L2-Pf-HR :0.43063: L2-HR :0.59570: (Sim:0h50m56s) 
CPU  0 inst:  293000001 cyc:  511352476 now IPC :0.25900: AVG IPC :0.57019: L2-Pf-HR :0.42951: L2-HR :0.59505: (Sim:0h51m13s) 
CPU  0 inst:  294000001 cyc:  515214088 now IPC :0.25896: AVG IPC :0.56785: L2-Pf-HR :0.42838: L2-HR :0.59440: (Sim:0h51m29s) 
CPU  0 inst:  295000000 cyc:  519080781 now IPC :0.25862: AVG IPC :0.56555: L2-Pf-HR :0.42726: L2-HR :0.59374: (Sim:0h51m46s) 
CPU  0 inst:  296000000 cyc:  522938158 now IPC :0.25924: AVG IPC :0.56328: L2-Pf-HR :0.42615: L2-HR :0.59310: (Sim:0h52m3s) 
CPU  0 inst:  297000000 cyc:  524574656 now IPC :0.61106: AVG IPC :0.56343: L2-Pf-HR :0.43003: L2-HR :0.59498: (Sim:0h52m14s) 
CPU  0 inst:  298000001 cyc:  525222986 now IPC :1.54243: AVG IPC :0.56464: L2-Pf-HR :0.43620: L2-HR :0.59805: (Sim:0h52m23s) 
CPU  0 inst:  299000005 cyc:  525868472 now IPC :1.54923: AVG IPC :0.56585: L2-Pf-HR :0.44215: L2-HR :0.60106: (Sim:0h52m32s) 
CPU  0 inst:  300000003 cyc:  526497217 now IPC :1.59047: AVG IPC :0.56708: L2-Pf-HR :0.44781: L2-HR :0.60397: (Sim:0h52m41s) 
CPU  0 inst:  301000002 cyc:  527142855 now IPC :1.54885: AVG IPC :0.56828: L2-Pf-HR :0.45358: L2-HR :0.60691: (Sim:0h52m51s) 
CPU  0 inst:  302000002 cyc:  527741704 now IPC :1.66987: AVG IPC :0.56954: L2-Pf-HR :0.45927: L2-HR :0.60984: (Sim:0h53m0s) 
CPU  0 inst:  303000003 cyc:  528335938 now IPC :1.68284: AVG IPC :0.57079: L2-Pf-HR :0.46467: L2-HR :0.61268: (Sim:0h53m9s) 
CPU  0 inst:  304000000 cyc:  528919937 now IPC :1.71233: AVG IPC :0.57205: L2-Pf-HR :0.46999: L2-HR :0.61549: (Sim:0h53m18s) 
CPU  0 inst:  305000000 cyc:  529537213 now IPC :1.62002: AVG IPC :0.57328: L2-Pf-HR :0.47543: L2-HR :0.61831: (Sim:0h53m27s) 
CPU  0 inst:  306000002 cyc:  530140603 now IPC :1.65731: AVG IPC :0.57451: L2-Pf-HR :0.48052: L2-HR :0.62103: (Sim:0h53m36s) 
CPU  0 inst:  307000005 cyc:  530735448 now IPC :1.68112: AVG IPC :0.57576: L2-Pf-HR :0.48548: L2-HR :0.62370: (Sim:0h53m45s) 
CPU  0 inst:  308000001 cyc:  531319735 now IPC :1.71148: AVG IPC :0.57701: L2-Pf-HR :0.49041: L2-HR :0.62635: (Sim:0h53m54s) 
CPU  0 inst:  309000003 cyc:  531925092 now IPC :1.65192: AVG IPC :0.57823: L2-Pf-HR :0.49540: L2-HR :0.62900: (Sim:0h54m3s) 
CPU  0 inst:  310000002 cyc:  532527669 now IPC :1.65954: AVG IPC :0.57946: L2-Pf-HR :0.50011: L2-HR :0.63156: (Sim:0h54m12s) 
CPU  0 inst:  311000000 cyc:  533119653 now IPC :1.68923: AVG IPC :0.58069: L2-Pf-HR :0.50472: L2-HR :0.63407: (Sim:0h54m21s) 
CPU  0 inst:  312000000 cyc:  533709337 now IPC :1.69582: AVG IPC :0.58193: L2-Pf-HR :0.50931: L2-HR :0.63659: (Sim:0h54m30s) 
CPU  0 inst:  313000003 cyc:  534324253 now IPC :1.62624: AVG IPC :0.58313: L2-Pf-HR :0.51382: L2-HR :0.63905: (Sim:0h54m39s) 
CPU  0 inst:  314000004 cyc:  534945597 now IPC :1.60942: AVG IPC :0.58433: L2-Pf-HR :0.51778: L2-HR :0.64132: (Sim:0h54m48s) 
CPU  0 inst:  315000001 cyc:  535555695 now IPC :1.63908: AVG IPC :0.58553: L2-Pf-HR :0.52186: L2-HR :0.64363: (Sim:0h54m57s) 
CPU  0 inst:  316000003 cyc:  536169220 now IPC :1.62993: AVG IPC :0.58673: L2-Pf-HR :0.52582: L2-HR :0.64589: (Sim:0h55m6s) 
CPU  0 inst:  317000004 cyc:  536792667 now IPC :1.60399: AVG IPC :0.58791: L2-Pf-HR :0.52961: L2-HR :0.64808: (Sim:0h55m16s) 
CPU  0 inst:  318000000 cyc:  537384449 now IPC :1.68980: AVG IPC :0.58913: L2-Pf-HR :0.53346: L2-HR :0.65030: (Sim:0h55m25s) 
CPU  0 inst:  319000002 cyc:  537956401 now IPC :1.74840: AVG IPC :0.59036: L2-Pf-HR :0.53735: L2-HR :0.65254: (Sim:0h55m34s) 
CPU  0 inst:  320000000 cyc:  538534848 now IPC :1.72876: AVG IPC :0.59159: L2-Pf-HR :0.54113: L2-HR :0.65474: (Sim:0h55m42s) 
CPU  0 inst:  321000005 cyc:  539104330 now IPC :1.75599: AVG IPC :0.59282: L2-Pf-HR :0.54486: L2-HR :0.65692: (Sim:0h55m51s) 
CPU  0 inst:  322000002 cyc:  539709387 now IPC :1.65273: AVG IPC :0.59401: L2-Pf-HR :0.54835: L2-HR :0.65898: (Sim:0h56m0s) 
CPU  0 inst:  323000005 cyc:  540280363 now IPC :1.75139: AVG IPC :0.59523: L2-Pf-HR :0.55196: L2-HR :0.66110: (Sim:0h56m9s) 
CPU  0 inst:  324000003 cyc:  540856570 now IPC :1.73548: AVG IPC :0.59645: L2-Pf-HR :0.55552: L2-HR :0.66319: (Sim:0h56m18s) 
CPU  0 inst:  325000003 cyc:  541429334 now IPC :1.74592: AVG IPC :0.59767: L2-Pf-HR :0.55900: L2-HR :0.66526: (Sim:0h56m27s) 
CPU  0 inst:  326000003 cyc:  542040391 now IPC :1.63651: AVG IPC :0.59884: L2-Pf-HR :0.56224: L2-HR :0.66721: (Sim:0h56m37s) 
CPU  0 inst:  327000000 cyc:  542625058 now IPC :1.71037: AVG IPC :0.60004: L2-Pf-HR :0.56561: L2-HR :0.66922: (Sim:0h56m46s) 
CPU  0 inst:  328000000 cyc:  543206606 now IPC :1.71955: AVG IPC :0.60124: L2-Pf-HR :0.56892: L2-HR :0.67119: (Sim:0h56m55s) 
CPU  0 inst:  329000002 cyc:  543793633 now IPC :1.70350: AVG IPC :0.60244: L2-Pf-HR :0.57216: L2-HR :0.67314: (Sim:0h57m3s) 
CPU  0 inst:  330000000 cyc:  544424759 now IPC :1.58447: AVG IPC :0.60358: L2-Pf-HR :0.57507: L2-HR :0.67494: (Sim:0h57m13s) 
CPU  0 inst:  331000004 cyc:  545037505 now IPC :1.63200: AVG IPC :0.60473: L2-Pf-HR :0.57799: L2-HR :0.67674: (Sim:0h57m22s) 
CPU  0 inst:  332000001 cyc:  545652256 now IPC :1.62667: AVG IPC :0.60589: L2-Pf-HR :0.58086: L2-HR :0.67853: (Sim:0h57m31s) 
CPU  0 inst:  333000002 cyc:  546266188 now IPC :1.62885: AVG IPC :0.60704: L2-Pf-HR :0.58365: L2-HR :0.68028: (Sim:0h57m40s) 
CPU  0 inst:  334000001 cyc:  546898318 now IPC :1.58195: AVG IPC :0.60817: L2-Pf-HR :0.58625: L2-HR :0.68195: (Sim:0h57m49s) 
CPU  0 inst:  335000002 cyc:  547470444 now IPC :1.74787: AVG IPC :0.60936: L2-Pf-HR :0.58911: L2-HR :0.68374: (Sim:0h57m58s) 
CPU  0 inst:  336000000 cyc:  548041580 now IPC :1.75089: AVG IPC :0.61055: L2-Pf-HR :0.59188: L2-HR :0.68548: (Sim:0h58m6s) 
CPU  0 inst:  337000002 cyc:  548625753 now IPC :1.71183: AVG IPC :0.61173: L2-Pf-HR :0.59449: L2-HR :0.68716: (Sim:0h58m15s) 
CPU  0 inst:  338000000 cyc:  549207182 now IPC :1.71990: AVG IPC :0.61290: L2-Pf-HR :0.59718: L2-HR :0.68888: (Sim:0h58m24s) 
CPU  0 inst:  339000005 cyc:  549798787 now IPC :1.69033: AVG IPC :0.61406: L2-Pf-HR :0.59978: L2-HR :0.69053: (Sim:0h58m33s) 
CPU  0 inst:  340000005 cyc:  550373816 now IPC :1.73904: AVG IPC :0.61524: L2-Pf-HR :0.60234: L2-HR :0.69217: (Sim:0h58m42s) 
CPU  0 inst:  341000002 cyc:  550957095 now IPC :1.71444: AVG IPC :0.61641: L2-Pf-HR :0.60480: L2-HR :0.69378: (Sim:0h58m51s) 
CPU  0 inst:  342000003 cyc:  551536134 now IPC :1.72700: AVG IPC :0.61758: L2-Pf-HR :0.60725: L2-HR :0.69537: (Sim:0h59m0s) 
CPU  0 inst:  343000004 cyc:  552140152 now IPC :1.65558: AVG IPC :0.61871: L2-Pf-HR :0.60983: L2-HR :0.69700: (Sim:0h59m9s) 
CPU  0 inst:  344000000 cyc:  552727377 now IPC :1.70292: AVG IPC :0.61987: L2-Pf-HR :0.61223: L2-HR :0.69855: (Sim:0h59m18s) 
CPU  0 inst:  345000001 cyc:  553313629 now IPC :1.70575: AVG IPC :0.62102: L2-Pf-HR :0.61462: L2-HR :0.70009: (Sim:0h59m27s) 
CPU  0 inst:  346000002 cyc:  553901725 now IPC :1.70040: AVG IPC :0.62217: L2-Pf-HR :0.61703: L2-HR :0.70165: (Sim:0h59m36s) 
CPU  0 inst:  347000001 cyc:  554535420 now IPC :1.57804: AVG IPC :0.62326: L2-Pf-HR :0.61921: L2-HR :0.70309: (Sim:0h59m45s) 
CPU  0 inst:  348000003 cyc:  555148589 now IPC :1.63087: AVG IPC :0.62438: L2-Pf-HR :0.62130: L2-HR :0.70450: (Sim:0h59m54s) 
CPU  0 inst:  349000000 cyc:  555763453 now IPC :1.62637: AVG IPC :0.62549: L2-Pf-HR :0.62344: L2-HR :0.70592: (Sim:1h0m3s) 
CPU  0 inst:  350000002 cyc:  556376211 now IPC :1.63197: AVG IPC :0.62660: L2-Pf-HR :0.62554: L2-HR :0.70732: (Sim:1h0m12s) 
CPU  0 inst:  351000005 cyc:  556997318 now IPC :1.61003: AVG IPC :0.62770: L2-Pf-HR :0.62749: L2-HR :0.70867: (Sim:1h0m21s) 
CPU  0 inst:  352000000 cyc:  557567435 now IPC :1.75402: AVG IPC :0.62885: L2-Pf-HR :0.62961: L2-HR :0.71009: (Sim:1h0m30s) 
CPU  0 inst:  353000004 cyc:  558143288 now IPC :1.73656: AVG IPC :0.63000: L2-Pf-HR :0.63168: L2-HR :0.71149: (Sim:1h0m39s) 
CPU  0 inst:  354000002 cyc:  558724486 now IPC :1.72058: AVG IPC :0.63113: L2-Pf-HR :0.63373: L2-HR :0.71288: (Sim:1h0m48s) 
CPU  0 inst:  355000000 cyc:  559325951 now IPC :1.66260: AVG IPC :0.63224: L2-Pf-HR :0.63563: L2-HR :0.71419: (Sim:1h0m57s) 
CPU  0 inst:  356000001 cyc:  559897868 now IPC :1.74851: AVG IPC :0.63339: L2-Pf-HR :0.63768: L2-HR :0.71557: (Sim:1h1m6s) 
CPU  0 inst:  357000004 cyc:  560468991 now IPC :1.75094: AVG IPC :0.63453: L2-Pf-HR :0.63965: L2-HR :0.71691: (Sim:1h1m15s) 
CPU  0 inst:  358000003 cyc:  561054804 now IPC :1.70703: AVG IPC :0.63565: L2-Pf-HR :0.64159: L2-HR :0.71824: (Sim:1h1m24s) 
CPU  0 inst:  359000002 cyc:  561658168 now IPC :1.65737: AVG IPC :0.63675: L2-Pf-HR :0.64341: L2-HR :0.71950: (Sim:1h1m33s) 
CPU  0 inst:  360000000 cyc:  562251834 now IPC :1.68445: AVG IPC :0.63786: L2-Pf-HR :0.64536: L2-HR :0.72082: (Sim:1h1m42s) 
CPU  0 inst:  361000003 cyc:  562834385 now IPC :1.71659: AVG IPC :0.63897: L2-Pf-HR :0.64726: L2-HR :0.72210: (Sim:1h1m52s) 
CPU  0 inst:  362000003 cyc:  563423778 now IPC :1.69666: AVG IPC :0.64008: L2-Pf-HR :0.64915: L2-HR :0.72338: (Sim:1h2m1s) 
CPU  0 inst:  363000002 cyc:  564022265 now IPC :1.67088: AVG IPC :0.64118: L2-Pf-HR :0.65093: L2-HR :0.72462: (Sim:1h2m10s) 
CPU  0 inst:  364000002 cyc:  564656620 now IPC :1.57640: AVG IPC :0.64223: L2-Pf-HR :0.65256: L2-HR :0.72577: (Sim:1h2m20s) 
CPU  0 inst:  365000000 cyc:  565266806 now IPC :1.63884: AVG IPC :0.64331: L2-Pf-HR :0.65423: L2-HR :0.72694: (Sim:1h2m29s) 
CPU  0 inst:  366000004 cyc:  565879225 now IPC :1.63288: AVG IPC :0.64438: L2-Pf-HR :0.65588: L2-HR :0.72811: (Sim:1h2m38s) 
CPU  0 inst:  367000001 cyc:  566496203 now IPC :1.62080: AVG IPC :0.64545: L2-Pf-HR :0.65746: L2-HR :0.72924: (Sim:1h2m47s) 
CPU  0 inst:  368000000 cyc:  567106643 now IPC :1.63816: AVG IPC :0.64652: L2-Pf-HR :0.65900: L2-HR :0.73035: (Sim:1h2m57s) 
CPU  0 inst:  369000001 cyc:  567676752 now IPC :1.75405: AVG IPC :0.64763: L2-Pf-HR :0.66066: L2-HR :0.73152: (Sim:1h3m6s) 
CPU  0 inst:  370000003 cyc:  568255055 now IPC :1.72920: AVG IPC :0.64873: L2-Pf-HR :0.66226: L2-HR :0.73267: (Sim:1h3m15s) 
CPU  0 inst:  371000001 cyc:  568837742 now IPC :1.71618: AVG IPC :0.64983: L2-Pf-HR :0.66381: L2-HR :0.73379: (Sim:1h3m25s) 
CPU  0 inst:  372000004 cyc:  569437023 now IPC :1.66867: AVG IPC :0.65090: L2-Pf-HR :0.66538: L2-HR :0.73490: (Sim:1h3m34s) 
CPU  0 inst:  373000005 cyc:  570009337 now IPC :1.74729: AVG IPC :0.65201: L2-Pf-HR :0.66698: L2-HR :0.73603: (Sim:1h3m43s) 
CPU  0 inst:  374000003 cyc:  570586064 now IPC :1.73392: AVG IPC :0.65310: L2-Pf-HR :0.66847: L2-HR :0.73712: (Sim:1h3m53s) 
CPU  0 inst:  375000002 cyc:  571172439 now IPC :1.70539: AVG IPC :0.65418: L2-Pf-HR :0.66994: L2-HR :0.73819: (Sim:1h4m2s) 
CPU  0 inst:  376000000 cyc:  571770241 now IPC :1.67279: AVG IPC :0.65525: L2-Pf-HR :0.67148: L2-HR :0.73928: (Sim:1h4m11s) 
CPU  0 inst:  377000003 cyc:  572362087 now IPC :1.68963: AVG IPC :0.65632: L2-Pf-HR :0.67298: L2-HR :0.74035: (Sim:1h4m20s) 
CPU  0 inst:  378000002 cyc:  572947850 now IPC :1.70717: AVG IPC :0.65740: L2-Pf-HR :0.67443: L2-HR :0.74139: (Sim:1h4m30s) 
CPU  0 inst:  379000004 cyc:  573539760 now IPC :1.68945: AVG IPC :0.65847: L2-Pf-HR :0.67587: L2-HR :0.74243: (Sim:1h4m39s) 
CPU  0 inst:  380000005 cyc:  574156158 now IPC :1.62233: AVG IPC :0.65950: L2-Pf-HR :0.67732: L2-HR :0.74346: (Sim:1h4m49s) 
CPU  0 inst:  381000002 cyc:  574771041 now IPC :1.62632: AVG IPC :0.66054: L2-Pf-HR :0.67859: L2-HR :0.74441: (Sim:1h4m55s) 
CPU  0 inst:  382000003 cyc:  575390045 now IPC :1.61550: AVG IPC :0.66157: L2-Pf-HR :0.67988: L2-HR :0.74537: (Sim:1h5m0s) 
CPU  0 inst:  383000001 cyc:  576002328 now IPC :1.63323: AVG IPC :0.66260: L2-Pf-HR :0.68119: L2-HR :0.74634: (Sim:1h5m6s) 
CPU  0 inst:  384000000 cyc:  576632751 now IPC :1.58623: AVG IPC :0.66361: L2-Pf-HR :0.68242: L2-HR :0.74725: (Sim:1h5m12s) 
CPU  0 inst:  385000002 cyc:  577208674 now IPC :1.73635: AVG IPC :0.66469: L2-Pf-HR :0.68372: L2-HR :0.74823: (Sim:1h5m18s) 
CPU  0 inst:  386000004 cyc:  577779600 now IPC :1.75154: AVG IPC :0.66576: L2-Pf-HR :0.68504: L2-HR :0.74920: (Sim:1h5m24s) 
CPU  0 inst:  387000003 cyc:  578365950 now IPC :1.70546: AVG IPC :0.66682: L2-Pf-HR :0.68633: L2-HR :0.75017: (Sim:1h5m30s) 
CPU  0 inst:  388000005 cyc:  578949937 now IPC :1.71237: AVG IPC :0.66787: L2-Pf-HR :0.68758: L2-HR :0.75110: (Sim:1h5m35s) 
CPU  0 inst:  389000000 cyc:  579542109 now IPC :1.68869: AVG IPC :0.66892: L2-Pf-HR :0.68883: L2-HR :0.75203: (Sim:1h5m41s) 
CPU  0 inst:  390000002 cyc:  580111703 now IPC :1.75564: AVG IPC :0.66999: L2-Pf-HR :0.69011: L2-HR :0.75298: (Sim:1h5m47s) 
CPU  0 inst:  391000004 cyc:  580693638 now IPC :1.71841: AVG IPC :0.67104: L2-Pf-HR :0.69137: L2-HR :0.75391: (Sim:1h5m53s) 
CPU  0 inst:  392000000 cyc:  581265535 now IPC :1.74856: AVG IPC :0.67210: L2-Pf-HR :0.69263: L2-HR :0.75485: (Sim:1h5m59s) 
CPU  0 inst:  393000001 cyc:  581878233 now IPC :1.63213: AVG IPC :0.67312: L2-Pf-HR :0.69379: L2-HR :0.75572: (Sim:1h6m5s) 
CPU  0 inst:  394000002 cyc:  582464526 now IPC :1.70563: AVG IPC :0.67416: L2-Pf-HR :0.69503: L2-HR :0.75663: (Sim:1h6m11s) 
CPU  0 inst:  395000002 cyc:  583050102 now IPC :1.70772: AVG IPC :0.67520: L2-Pf-HR :0.69625: L2-HR :0.75753: (Sim:1h6m16s) 
CPU  0 inst:  396000003 cyc:  583635584 now IPC :1.70800: AVG IPC :0.67623: L2-Pf-HR :0.69748: L2-HR :0.75843: (Sim:1h6m22s) 
CPU  0 inst:  397000003 cyc:  584269241 now IPC :1.57814: AVG IPC :0.67721: L2-Pf-HR :0.69851: L2-HR :0.75923: (Sim:1h6m28s) 
CPU  0 inst:  398000000 cyc:  584880238 now IPC :1.63666: AVG IPC :0.67822: L2-Pf-HR :0.69962: L2-HR :0.76006: (Sim:1h6m34s) 
CPU  0 inst:  399000004 cyc:  585492529 now IPC :1.63322: AVG IPC :0.67922: L2-Pf-HR :0.70070: L2-HR :0.76089: (Sim:1h6m40s) 
CPU  0 inst:  400000000 cyc:  586108682 now IPC :1.62297: AVG IPC :0.68021: L2-Pf-HR :0.70177: L2-HR :0.76170: (Sim:1h6m45s) 
CPU  0 inst:  401000003 cyc:  586738574 now IPC :1.58758: AVG IPC :0.68119: L2-Pf-HR :0.70273: L2-HR :0.76246: (Sim:1h6m51s) 
CPU  0 inst:  402000003 cyc:  587311039 now IPC :1.74683: AVG IPC :0.68223: L2-Pf-HR :0.70383: L2-HR :0.76331: (Sim:1h6m57s) 
CPU  0 inst:  403000001 cyc:  587884180 now IPC :1.74477: AVG IPC :0.68327: L2-Pf-HR :0.70491: L2-HR :0.76413: (Sim:1h7m3s) 
CPU  0 inst:  404000002 cyc:  588469670 now IPC :1.70797: AVG IPC :0.68429: L2-Pf-HR :0.70595: L2-HR :0.76495: (Sim:1h7m9s) 
CPU  0 inst:  405000001 cyc:  589071699 now IPC :1.66105: AVG IPC :0.68529: L2-Pf-HR :0.70691: L2-HR :0.76571: (Sim:1h7m14s) 
CPU  0 inst:  406000003 cyc:  589645901 now IPC :1.74155: AVG IPC :0.68632: L2-Pf-HR :0.70799: L2-HR :0.76653: (Sim:1h7m20s) 
CPU  0 inst:  407000003 cyc:  590216111 now IPC :1.75374: AVG IPC :0.68735: L2-Pf-HR :0.70904: L2-HR :0.76733: (Sim:1h7m26s) 
CPU  0 inst:  408000000 cyc:  590803371 now IPC :1.70282: AVG IPC :0.68836: L2-Pf-HR :0.71003: L2-HR :0.76811: (Sim:1h7m32s) 
CPU  0 inst:  409000004 cyc:  591389530 now IPC :1.70603: AVG IPC :0.68937: L2-Pf-HR :0.71107: L2-HR :0.76890: (Sim:1h7m37s) 
CPU  0 inst:  410000001 cyc:  591993268 now IPC :1.65634: AVG IPC :0.69036: L2-Pf-HR :0.71207: L2-HR :0.76966: (Sim:1h7m43s) 
CPU  0 inst:  411000000 cyc:  592579660 now IPC :1.70534: AVG IPC :0.69137: L2-Pf-HR :0.71306: L2-HR :0.77042: (Sim:1h7m49s) 
CPU  0 inst:  412000005 cyc:  593174100 now IPC :1.68226: AVG IPC :0.69236: L2-Pf-HR :0.71402: L2-HR :0.77117: (Sim:1h7m55s) 
CPU  0 inst:  413000004 cyc:  593767359 now IPC :1.68560: AVG IPC :0.69335: L2-Pf-HR :0.71499: L2-HR :0.77192: (Sim:1h8m1s) 
CPU  0 inst:  414000002 cyc:  594395338 now IPC :1.59241: AVG IPC :0.69431: L2-Pf-HR :0.71592: L2-HR :0.77263: (Sim:1h8m7s) 
CPU  0 inst:  415000001 cyc:  595010500 now IPC :1.62559: AVG IPC :0.69527: L2-Pf-HR :0.71678: L2-HR :0.77332: (Sim:1h8m14s) 
CPU  0 inst:  416000000 cyc:  595627362 now IPC :1.62111: AVG IPC :0.69623: L2-Pf-HR :0.71763: L2-HR :0.77400: (Sim:1h8m23s) 
CPU  0 inst:  417000003 cyc:  596238023 now IPC :1.63757: AVG IPC :0.69720: L2-Pf-HR :0.71852: L2-HR :0.77470: (Sim:1h8m32s) 
CPU  0 inst:  418000001 cyc:  596852589 now IPC :1.62716: AVG IPC :0.69816: L2-Pf-HR :0.71935: L2-HR :0.77537: (Sim:1h8m41s) 
CPU  0 inst:  419000001 cyc:  597421651 now IPC :1.75728: AVG IPC :0.69917: L2-Pf-HR :0.72024: L2-HR :0.77608: (Sim:1h8m50s) 
CPU  0 inst:  420000003 cyc:  598001116 now IPC :1.72573: AVG IPC :0.70016: L2-Pf-HR :0.72114: L2-HR :0.77679: (Sim:1h8m59s) 
CPU  0 inst:  421000002 cyc:  598575196 now IPC :1.74192: AVG IPC :0.70116: L2-Pf-HR :0.72204: L2-HR :0.77750: (Sim:1h9m8s) 
CPU  0 inst:  422000003 cyc:  599182021 now IPC :1.64792: AVG IPC :0.70212: L2-Pf-HR :0.72284: L2-HR :0.77815: (Sim:1h9m17s) 
CPU  0 inst:  423000000 cyc:  599754222 now IPC :1.74763: AVG IPC :0.70312: L2-Pf-HR :0.72374: L2-HR :0.77886: (Sim:1h9m26s) 
CPU  0 inst:  424000000 cyc:  600330621 now IPC :1.73491: AVG IPC :0.70412: L2-Pf-HR :0.72461: L2-HR :0.77955: (Sim:1h9m35s) 
CPU  0 inst:  425000005 cyc:  600905663 now IPC :1.73901: AVG IPC :0.70511: L2-Pf-HR :0.72549: L2-HR :0.78024: (Sim:1h9m45s) 
CPU  0 inst:  426000004 cyc:  601513438 now IPC :1.64534: AVG IPC :0.70606: L2-Pf-HR :0.72627: L2-HR :0.78087: (Sim:1h9m54s) 
CPU  0 inst:  427000000 cyc:  602099547 now IPC :1.70616: AVG IPC :0.70703: L2-Pf-HR :0.72716: L2-HR :0.78156: (Sim:1h10m3s) 
CPU  0 inst:  428000002 cyc:  602681320 now IPC :1.71889: AVG IPC :0.70801: L2-Pf-HR :0.72804: L2-HR :0.78223: (Sim:1h10m12s) 
CPU  0 inst:  429000005 cyc:  603265849 now IPC :1.71078: AVG IPC :0.70899: L2-Pf-HR :0.72890: L2-HR :0.78290: (Sim:1h10m21s) 
CPU  0 inst:  430000000 cyc:  603888722 now IPC :1.60546: AVG IPC :0.70991: L2-Pf-HR :0.72966: L2-HR :0.78351: (Sim:1h10m29s) 
CPU  0 inst:  431000002 cyc:  604501890 now IPC :1.63088: AVG IPC :0.71085: L2-Pf-HR :0.73043: L2-HR :0.78413: (Sim:1h10m38s) 
CPU  0 inst:  432000000 cyc:  605112091 now IPC :1.63880: AVG IPC :0.71178: L2-Pf-HR :0.73119: L2-HR :0.78474: (Sim:1h10m47s) 
CPU  0 inst:  433000002 cyc:  605731209 now IPC :1.61520: AVG IPC :0.71271: L2-Pf-HR :0.73194: L2-HR :0.78535: (Sim:1h10m56s) 
CPU  0 inst:  434000002 cyc:  606358103 now IPC :1.59517: AVG IPC :0.71362: L2-Pf-HR :0.73263: L2-HR :0.78592: (Sim:1h11m5s) 
CPU  0 inst:  435000002 cyc:  606950784 now IPC :1.68725: AVG IPC :0.71458: L2-Pf-HR :0.73338: L2-HR :0.78653: (Sim:1h11m14s) 
CPU  0 inst:  436000003 cyc:  607520433 now IPC :1.75547: AVG IPC :0.71555: L2-Pf-HR :0.73415: L2-HR :0.78715: (Sim:1h11m23s) 
CPU  0 inst:  437000000 cyc:  608099401 now IPC :1.72721: AVG IPC :0.71652: L2-Pf-HR :0.73491: L2-HR :0.78777: (Sim:1h11m32s) 
CPU  0 inst:  438000002 cyc:  608681574 now IPC :1.71771: AVG IPC :0.71748: L2-Pf-HR :0.73566: L2-HR :0.78839: (Sim:1h11m42s) 
CPU  0 inst:  439000002 cyc:  609288758 now IPC :1.64695: AVG IPC :0.71841: L2-Pf-HR :0.73634: L2-HR :0.78896: (Sim:1h11m51s) 
CPU  0 inst:  440000000 cyc:  609859571 now IPC :1.75188: AVG IPC :0.71937: L2-Pf-HR :0.73710: L2-HR :0.78957: (Sim:1h12m0s) 
CPU  0 inst:  441000005 cyc:  610433663 now IPC :1.74189: AVG IPC :0.72034: L2-Pf-HR :0.73785: L2-HR :0.79017: (Sim:1h12m9s) 
CPU  0 inst:  442000002 cyc:  611020087 now IPC :1.70525: AVG IPC :0.72128: L2-Pf-HR :0.73855: L2-HR :0.79075: (Sim:1h12m18s) 
CPU  0 inst:  443000003 cyc:  611626260 now IPC :1.64970: AVG IPC :0.72221: L2-Pf-HR :0.73926: L2-HR :0.79132: (Sim:1h12m27s) 
CPU  0 inst:  444000001 cyc:  612211623 now IPC :1.70834: AVG IPC :0.72315: L2-Pf-HR :0.74000: L2-HR :0.79192: (Sim:1h12m37s) 
CPU  0 inst:  445000005 cyc:  612798016 now IPC :1.70535: AVG IPC :0.72409: L2-Pf-HR :0.74072: L2-HR :0.79249: (Sim:1h12m46s) 
CPU  0 inst:  446000005 cyc:  613394206 now IPC :1.67732: AVG IPC :0.72502: L2-Pf-HR :0.74142: L2-HR :0.79305: (Sim:1h12m55s) 
CPU  0 inst:  447000002 cyc:  614017677 now IPC :1.60392: AVG IPC :0.72591: L2-Pf-HR :0.74209: L2-HR :0.79360: (Sim:1h13m4s) 
CPU  0 inst:  448000000 cyc:  614632674 now IPC :1.62602: AVG IPC :0.72682: L2-Pf-HR :0.74273: L2-HR :0.79413: (Sim:1h13m14s) 
CPU  0 inst:  449000005 cyc:  615254604 now IPC :1.60791: AVG IPC :0.72771: L2-Pf-HR :0.74333: L2-HR :0.79464: (Sim:1h13m23s) 
CPU  0 inst:  450000000 cyc:  615870501 now IPC :1.62364: AVG IPC :0.72860: L2-Pf-HR :0.74395: L2-HR :0.79516: (Sim:1h13m32s) 
CPU  0 inst:  451000002 cyc:  616493015 now IPC :1.60639: AVG IPC :0.72949: L2-Pf-HR :0.74458: L2-HR :0.79567: (Sim:1h13m41s) 
CPU  0 inst:  452000001 cyc:  617065127 now IPC :1.74791: AVG IPC :0.73044: L2-Pf-HR :0.74521: L2-HR :0.79621: (Sim:1h13m50s) 
CPU  0 inst:  453000000 cyc:  617641729 now IPC :1.73430: AVG IPC :0.73138: L2-Pf-HR :0.74585: L2-HR :0.79675: (Sim:1h13m59s) 
CPU  0 inst:  454000004 cyc:  618226227 now IPC :1.71088: AVG IPC :0.73230: L2-Pf-HR :0.74650: L2-HR :0.79729: (Sim:1h14m8s) 
CPU  0 inst:  455000002 cyc:  618824725 now IPC :1.67085: AVG IPC :0.73321: L2-Pf-HR :0.74713: L2-HR :0.79781: (Sim:1h14m18s) 
CPU  0 inst:  456000000 cyc:  619401558 now IPC :1.73360: AVG IPC :0.73415: L2-Pf-HR :0.74774: L2-HR :0.79833: (Sim:1h14m27s) 
CPU  0 inst:  457000004 cyc:  619972453 now IPC :1.75164: AVG IPC :0.73509: L2-Pf-HR :0.74839: L2-HR :0.79886: (Sim:1h14m33s) 
CPU  0 inst:  458000001 cyc:  620559303 now IPC :1.70401: AVG IPC :0.73600: L2-Pf-HR :0.74903: L2-HR :0.79939: (Sim:1h14m39s) 
CPU  0 inst:  459000001 cyc:  621139693 now IPC :1.72298: AVG IPC :0.73693: L2-Pf-HR :0.74964: L2-HR :0.79990: (Sim:1h14m45s) 
CPU  0 inst:  460000004 cyc:  621745871 now IPC :1.64969: AVG IPC :0.73782: L2-Pf-HR :0.75027: L2-HR :0.80041: (Sim:1h14m51s) 
CPU  0 inst:  461000000 cyc:  622329850 now IPC :1.71238: AVG IPC :0.73873: L2-Pf-HR :0.75091: L2-HR :0.80093: (Sim:1h14m57s) 
CPU  0 inst:  462000001 cyc:  622922264 now IPC :1.68801: AVG IPC :0.73964: L2-Pf-HR :0.75155: L2-HR :0.80145: (Sim:1h15m3s) 
CPU  0 inst:  463000005 cyc:  623509560 now IPC :1.70273: AVG IPC :0.74055: L2-Pf-HR :0.75219: L2-HR :0.80196: (Sim:1h15m8s) 
CPU  0 inst:  464000000 cyc:  624145270 now IPC :1.57304: AVG IPC :0.74140: L2-Pf-HR :0.75270: L2-HR :0.80240: (Sim:1h15m14s) 
CPU  0 inst:  465000002 cyc:  624754639 now IPC :1.64105: AVG IPC :0.74228: L2-Pf-HR :0.75326: L2-HR :0.80288: (Sim:1h15m20s) 
CPU  0 inst:  466000002 cyc:  625370575 now IPC :1.62355: AVG IPC :0.74314: L2-Pf-HR :0.75382: L2-HR :0.80335: (Sim:1h15m26s) 
CPU  0 inst:  467000001 cyc:  625980224 now IPC :1.64029: AVG IPC :0.74402: L2-Pf-HR :0.75438: L2-HR :0.80382: (Sim:1h15m32s) 
CPU  0 inst:  468000002 cyc:  626604846 now IPC :1.60097: AVG IPC :0.74488: L2-Pf-HR :0.75487: L2-HR :0.80425: (Sim:1h15m38s) 
CPU  0 inst:  469000001 cyc:  627173661 now IPC :1.75804: AVG IPC :0.74580: L2-Pf-HR :0.75546: L2-HR :0.80474: (Sim:1h15m43s) 
CPU  0 inst:  470000002 cyc:  627745776 now IPC :1.74790: AVG IPC :0.74671: L2-Pf-HR :0.75602: L2-HR :0.80522: (Sim:1h15m49s) 
CPU  0 inst:  471000000 cyc:  628329926 now IPC :1.71189: AVG IPC :0.74761: L2-Pf-HR :0.75659: L2-HR :0.80570: (Sim:1h15m55s) 
CPU  0 inst:  472000000 cyc:  628940372 now IPC :1.63815: AVG IPC :0.74847: L2-Pf-HR :0.75708: L2-HR :0.80614: (Sim:1h16m1s) 
CPU  0 inst:  473000001 cyc:  629511739 now IPC :1.75019: AVG IPC :0.74939: L2-Pf-HR :0.75765: L2-HR :0.80662: (Sim:1h16m7s) 
CPU  0 inst:  474000001 cyc:  630078454 now IPC :1.76456: AVG IPC :0.75030: L2-Pf-HR :0.75822: L2-HR :0.80709: (Sim:1h16m12s) 
CPU  0 inst:  475000004 cyc:  630663776 now IPC :1.70847: AVG IPC :0.75119: L2-Pf-HR :0.75878: L2-HR :0.80756: (Sim:1h16m18s) 
CPU  0 inst:  476000001 cyc:  631272234 now IPC :1.64349: AVG IPC :0.75205: L2-Pf-HR :0.75926: L2-HR :0.80799: (Sim:1h16m24s) 
CPU  0 inst:  477000001 cyc:  631860317 now IPC :1.70044: AVG IPC :0.75294: L2-Pf-HR :0.75984: L2-HR :0.80846: (Sim:1h16m29s) 
CPU  0 inst:  478000005 cyc:  632440634 now IPC :1.72320: AVG IPC :0.75383: L2-Pf-HR :0.76041: L2-HR :0.80892: (Sim:1h16m35s) 
CPU  0 inst:  479000000 cyc:  633034742 now IPC :1.68319: AVG IPC :0.75470: L2-Pf-HR :0.76095: L2-HR :0.80937: (Sim:1h16m41s) 
CPU  0 inst:  480000000 cyc:  633638275 now IPC :1.65691: AVG IPC :0.75556: L2-Pf-HR :0.76150: L2-HR :0.80982: (Sim:1h16m47s) 
CPU  0 inst:  481000004 cyc:  634272880 now IPC :1.57579: AVG IPC :0.75638: L2-Pf-HR :0.76196: L2-HR :0.81022: (Sim:1h16m53s) 
CPU  0 inst:  482000005 cyc:  634885748 now IPC :1.63167: AVG IPC :0.75723: L2-Pf-HR :0.76243: L2-HR :0.81063: (Sim:1h16m59s) 
CPU  0 inst:  483000003 cyc:  635510501 now IPC :1.60063: AVG IPC :0.75806: L2-Pf-HR :0.76287: L2-HR :0.81102: (Sim:1h17m4s) 
CPU  0 inst:  484000000 cyc:  636134376 now IPC :1.60288: AVG IPC :0.75889: L2-Pf-HR :0.76331: L2-HR :0.81141: (Sim:1h17m12s) 
CPU  0 inst:  485000001 cyc:  636726068 now IPC :1.69007: AVG IPC :0.75976: L2-Pf-HR :0.76383: L2-HR :0.81185: (Sim:1h17m18s) 
CPU  0 inst:  486000003 cyc:  637302212 now IPC :1.73568: AVG IPC :0.76064: L2-Pf-HR :0.76429: L2-HR :0.81226: (Sim:1h17m25s) 
CPU  0 inst:  487000001 cyc:  637882365 now IPC :1.72368: AVG IPC :0.76152: L2-Pf-HR :0.76476: L2-HR :0.81268: (Sim:1h17m34s) 
CPU  0 inst:  488000000 cyc:  638458910 now IPC :1.73447: AVG IPC :0.76240: L2-Pf-HR :0.76527: L2-HR :0.81311: (Sim:1h17m43s) 
CPU  0 inst:  489000001 cyc:  639062460 now IPC :1.65687: AVG IPC :0.76324: L2-Pf-HR :0.76573: L2-HR :0.81351: (Sim:1h17m52s) 
CPU  0 inst:  490000001 cyc:  639636053 now IPC :1.74340: AVG IPC :0.76412: L2-Pf-HR :0.76621: L2-HR :0.81393: (Sim:1h18m1s) 
CPU  0 inst:  491000005 cyc:  640210729 now IPC :1.74012: AVG IPC :0.76500: L2-Pf-HR :0.76670: L2-HR :0.81435: (Sim:1h18m10s) 
CPU  0 inst:  492000000 cyc:  640787834 now IPC :1.73278: AVG IPC :0.76588: L2-Pf-HR :0.76719: L2-HR :0.81477: (Sim:1h18m19s) 
CPU  0 inst:  493000004 cyc:  641402958 now IPC :1.62569: AVG IPC :0.76670: L2-Pf-HR :0.76763: L2-HR :0.81515: (Sim:1h18m28s) 
Finished CPU 0 instr: 491000002 cyc: 640406152 AVG IPC: 0.76670 (Sim time: 1h18m28s)

ChampSim completed all CPUs

[ROI Statistics]
Core_0_instructions 491000002
Core_0_cycles 640406152
Core_0_IPC 0.76670

Core_0_branch_prediction_accuracy 99.58586
Core_0_branch_MPKI 0.12051
Core_0_average_ROB_occupancy_at_mispredict 471.56607

Core_0_L1D_total_access 300189307
Core_0_L1D_total_hit 274827290 L1D_total_Hit Ratio: 0.91551
Core_0_L1D_total_miss 25362017
Core_0_L1D_loads 122418070
Core_0_L1D_load_hit 109500721 L1D_load_Hit Ratio: 0.89448
Core_0_L1D_load_miss 12917349
Core_0_L1D_RFOs 12826831
Core_0_L1D_RFO_hit 11934093 L1D_RFO_Hit Ratio: 0.93040
Core_0_L1D_RFO_miss 892738
Core_0_L1D_prefetches 164944406
Core_0_L1D_prefetch_hit 153392476 L1D_prefetch_Hit Ratio: 0.92996
Core_0_L1D_prefetch_miss 11551930
Core_0_L1D_writebacks 0
Core_0_L1D_writeback_hit 0 L1D_writeback_Hit Ratio: -nan
Core_0_L1D_writeback_miss 0
Core_0_L1D_prefetch_requested 376745553
Core_0_L1D_prefetch_issued 193941872
Core_0_L1D_prefetch_useful 5540634 L1D_Useful Ratio: 0.02857
Core_0_L1D_prefetch_useless 6032053
Core_0_L1D_prefetch_late 727866
Core_0_L1D_average_miss_latency 6939700.76924

Core_0_L1I_total_access 73222132
Core_0_L1I_total_hit 73217159 L1I_total_Hit Ratio: 0.99993
Core_0_L1I_total_miss 4973
Core_0_L1I_loads 73222132
Core_0_L1I_load_hit 73217159 L1I_load_Hit Ratio: 0.99993
Core_0_L1I_load_miss 4973
Core_0_L1I_RFOs 0
Core_0_L1I_RFO_hit 0 L1I_RFO_Hit Ratio: -nan
Core_0_L1I_RFO_miss 0
Core_0_L1I_prefetches 0
Core_0_L1I_prefetch_hit 0 L1I_prefetch_Hit Ratio: -nan
Core_0_L1I_prefetch_miss 0
Core_0_L1I_writebacks 0
Core_0_L1I_writeback_hit 0 L1I_writeback_Hit Ratio: -nan
Core_0_L1I_writeback_miss 0
Core_0_L1I_prefetch_requested 0
Core_0_L1I_prefetch_issued 0
Core_0_L1I_prefetch_useful 0 L1I_Useful Ratio: -nan
Core_0_L1I_prefetch_useless 0
Core_0_L1I_prefetch_late 0
Core_0_L1I_average_miss_latency 294.44963

Core_0_L2C_total_access 28280773
Core_0_L2C_total_hit 23053205 L2C_total_Hit Ratio: 0.81515
Core_0_L2C_total_miss 5227568
Core_0_L2C_loads 12195312
Core_0_L2C_load_hit 10572979 L2C_load_Hit Ratio: 0.86697
Core_0_L2C_load_miss 1622333
Core_0_L2C_RFOs 892693
Core_0_L2C_RFO_hit 142817 L2C_RFO_Hit Ratio: 0.15998
Core_0_L2C_RFO_miss 749876
Core_0_L2C_prefetches 12278934
Core_0_L2C_prefetch_hit 9425668 L2C_prefetch_Hit Ratio: 0.76763
Core_0_L2C_prefetch_miss 2853266
Core_0_L2C_writebacks 2913834
Core_0_L2C_writeback_hit 2911741 L2C_writeback_Hit Ratio: 0.99928
Core_0_L2C_writeback_miss 2093
Core_0_L2C_prefetch_requested 0
Core_0_L2C_prefetch_issued 0
Core_0_L2C_prefetch_useful 429674 L2C_Useful Ratio: inf
Core_0_L2C_prefetch_useless 2420780
Core_0_L2C_prefetch_late 0
Core_0_L2C_average_miss_latency 271.09764

Core_0_LLC_total_access 7974892
Core_0_LLC_total_hit 3577074 LLC_total_Hit Ratio: 0.44854
Core_0_LLC_total_miss 4397818
Core_0_LLC_loads 1622306
Core_0_LLC_load_hit 639606 LLC_load_Hit Ratio: 0.39426
Core_0_LLC_load_miss 982700
Core_0_LLC_RFOs 749876
Core_0_LLC_RFO_hit 46 LLC_RFO_Hit Ratio: 0.00006
Core_0_LLC_RFO_miss 749830
Core_0_LLC_prefetches 2853231
Core_0_LLC_prefetch_hit 201865 LLC_prefetch_Hit Ratio: 0.07075
Core_0_LLC_prefetch_miss 2651366
Core_0_LLC_writebacks 2749479
Core_0_LLC_writeback_hit 2735557 LLC_writeback_Hit Ratio: 0.99494
Core_0_LLC_writeback_miss 13922
Core_0_LLC_prefetch_requested 0
Core_0_LLC_prefetch_issued 0
Core_0_LLC_prefetch_useful 410978 LLC_Useful Ratio: inf
Core_0_LLC_prefetch_useless 2207915
Core_0_LLC_prefetch_late 0
Core_0_LLC_average_miss_latency 262.12156

Core_0_major_page_fault 0
Core_0_minor_page_fault 28665

CPU 0 L1D next line prefetcher final stats
Channel_0_RQ_row_buffer_hit 2177508
Channel_0_RQ_row_buffer_miss 2206310
Channel_0_WQ_row_buffer_hit 818424
Channel_0_WQ_row_buffer_miss 1643961
Channel_0_WQ_full 197
Channel_0_dbus_congested 3165213

avg_congested_cycle 10

EzSearch AVG IPC :0.76670: L2-Pf-HR :0.76763 : L2-HR :0.81515 Uful:inf
     > Finished combination: TraceType=770-tot Sim:491000000 Prefetcher=L2no L1=next_line
