TRACE: [1183000000][GPT-Neo-1_3B]_[h16][s1024][d128] Warmup: 2000000 NumTraces: 1183000000
L1:no:L2:spp_berti_src
Initialize SIGNATURE TABLE
ST_SET: 1
ST_WAY: 256
ST_TAG_BIT: 16
ST_TAG_MASK: ffff

Initialize PATTERN TABLE
PT_SET: 512
PT_WAY: 4
SIG_DELTA_BIT: 7
C_SIG_BIT: 4
C_DELTA_BIT: 4

Initialize PREFETCH FILTER
FILTER_SET: 1024
*************************************************
   ChampSim Multicore Out-of-Order Simulator
   Last compiled: Oct 26 2024 14:48:51
*************************************************

trace_0 770-tot_memTraces_v3/memTraces[1183000000][GPT-Neo-1_3B]_[h16][s1024][d128].champsim.xz
ST_WAYS: 256
PT_SETS: 512
MAIN.cc ln 751 stats print skipped
CPU  0 inst:    1000000 cyc:     503708 now IPC :1.98528: AVG IPC :1.98528: L2-Pf-HR :0.46407: L2-HR :0.52682: (Sim:0h0m5s) 
CPU  0 inst:    2000003 cyc:     982253 now IPC :2.08967: AVG IPC :2.03614: L2-Pf-HR :0.40483: L2-HR :0.53439: (Sim:0h0m10s) 

Warmup complete CPU  0 instructions:    2000003 cycles:     982253 (Simulation time: 0 hr 0 min 10 sec) 

CPU  0 inst:    3000001 cyc:    1668919 now IPC :1.45631: AVG IPC :1.45631: L2-Pf-HR :0.40838: L2-HR :0.46566: (Sim:0h0m14s) 
CPU  0 inst:    4000000 cyc:    2358477 now IPC :1.45020: AVG IPC :1.45325: L2-Pf-HR :0.41461: L2-HR :0.47370: (Sim:0h0m19s) 
CPU  0 inst:    5000003 cyc:    3058832 now IPC :1.42785: AVG IPC :1.44468: L2-Pf-HR :0.36805: L2-HR :0.46529: (Sim:0h0m23s) 
CPU  0 inst:    6000000 cyc:    3723491 now IPC :1.50453: AVG IPC :1.45919: L2-Pf-HR :0.36312: L2-HR :0.46871: (Sim:0h0m27s) 
CPU  0 inst:    7000002 cyc:    4387763 now IPC :1.50541: AVG IPC :1.46821: L2-Pf-HR :0.38700: L2-HR :0.47801: (Sim:0h0m31s) 
CPU  0 inst:    8000000 cyc:    5057120 now IPC :1.49397: AVG IPC :1.47244: L2-Pf-HR :0.40089: L2-HR :0.47958: (Sim:0h0m34s) 
CPU  0 inst:    9000003 cyc:    5718277 now IPC :1.51250: AVG IPC :1.47803: L2-Pf-HR :0.40439: L2-HR :0.47952: (Sim:0h0m37s) 
CPU  0 inst:   10000001 cyc:    6384835 now IPC :1.50024: AVG IPC :1.48077: L2-Pf-HR :0.39320: L2-HR :0.47627: (Sim:0h0m40s) 
CPU  0 inst:   11000003 cyc:    7050364 now IPC :1.50257: AVG IPC :1.48316: L2-Pf-HR :0.39289: L2-HR :0.47540: (Sim:0h0m43s) 
CPU  0 inst:   12000000 cyc:    7739551 now IPC :1.45098: AVG IPC :1.47988: L2-Pf-HR :0.39891: L2-HR :0.47614: (Sim:0h0m46s) 
CPU  0 inst:   13000002 cyc:    8604827 now IPC :1.15570: AVG IPC :1.44308: L2-Pf-HR :0.38594: L2-HR :0.46970: (Sim:0h0m49s) 
CPU  0 inst:   14000002 cyc:    9219489 now IPC :1.62691: AVG IPC :1.45680: L2-Pf-HR :0.36914: L2-HR :0.46582: (Sim:0h0m52s) 
CPU  0 inst:   15000000 cyc:    9838414 now IPC :1.61570: AVG IPC :1.46790: L2-Pf-HR :0.35873: L2-HR :0.46349: (Sim:0h0m55s) 
CPU  0 inst:   16000000 cyc:   10454992 now IPC :1.62185: AVG IPC :1.47792: L2-Pf-HR :0.34943: L2-HR :0.46156: (Sim:0h0m58s) 
CPU  0 inst:   17000001 cyc:   11055379 now IPC :1.66559: AVG IPC :1.48911: L2-Pf-HR :0.33948: L2-HR :0.45999: (Sim:0h1m1s) 
CPU  0 inst:   18000003 cyc:   11665625 now IPC :1.63869: AVG IPC :1.49765: L2-Pf-HR :0.34189: L2-HR :0.46219: (Sim:0h1m4s) 
CPU  0 inst:   19000001 cyc:   12299059 now IPC :1.57869: AVG IPC :1.50219: L2-Pf-HR :0.34497: L2-HR :0.46435: (Sim:0h1m7s) 
CPU  0 inst:   20000000 cyc:   12905939 now IPC :1.64777: AVG IPC :1.50960: L2-Pf-HR :0.34584: L2-HR :0.46476: (Sim:0h1m10s) 
CPU  0 inst:   21000002 cyc:   13518371 now IPC :1.63284: AVG IPC :1.51562: L2-Pf-HR :0.34964: L2-HR :0.46613: (Sim:0h1m13s) 
CPU  0 inst:   22000000 cyc:   14125123 now IPC :1.64812: AVG IPC :1.52174: L2-Pf-HR :0.34986: L2-HR :0.46654: (Sim:0h1m16s) 
CPU  0 inst:   23000000 cyc:   14751061 now IPC :1.59760: AVG IPC :1.52519: L2-Pf-HR :0.34991: L2-HR :0.46694: (Sim:0h1m19s) 
CPU  0 inst:   24000000 cyc:   15536434 now IPC :1.27328: AVG IPC :1.51159: L2-Pf-HR :0.35054: L2-HR :0.46557: (Sim:0h1m23s) 
CPU  0 inst:   25000001 cyc:   16135176 now IPC :1.67017: AVG IPC :1.51786: L2-Pf-HR :0.43531: L2-HR :0.49011: (Sim:0h1m27s) 
CPU  0 inst:   26000002 cyc:   16722862 now IPC :1.70159: AVG IPC :1.52472: L2-Pf-HR :0.51727: L2-HR :0.51786: (Sim:0h1m31s) 
CPU  0 inst:   27000000 cyc:   17294521 now IPC :1.74929: AVG IPC :1.53259: L2-Pf-HR :0.60613: L2-HR :0.55482: (Sim:0h1m35s) 
CPU  0 inst:   28000000 cyc:   17904491 now IPC :1.63942: AVG IPC :1.53644: L2-Pf-HR :0.66369: L2-HR :0.58444: (Sim:0h1m38s) 
CPU  0 inst:   29000002 cyc:   18477434 now IPC :1.74538: AVG IPC :1.54328: L2-Pf-HR :0.70754: L2-HR :0.61051: (Sim:0h1m41s) 
CPU  0 inst:   30000003 cyc:   19049578 now IPC :1.74781: AVG IPC :1.54976: L2-Pf-HR :0.73946: L2-HR :0.63200: (Sim:0h1m45s) 
CPU  0 inst:   31000002 cyc:   19646731 now IPC :1.67461: AVG IPC :1.55375: L2-Pf-HR :0.75894: L2-HR :0.64647: (Sim:0h1m50s) 
CPU  0 inst:   32000000 cyc:   20503375 now IPC :1.16734: AVG IPC :1.53680: L2-Pf-HR :0.77090: L2-HR :0.65410: (Sim:0h1m54s) 
CPU  0 inst:   33000002 cyc:   21160388 now IPC :1.52204: AVG IPC :1.53632: L2-Pf-HR :0.76546: L2-HR :0.64965: (Sim:0h1m59s) 
CPU  0 inst:   34000000 cyc:   21820342 now IPC :1.51525: AVG IPC :1.53565: L2-Pf-HR :0.76030: L2-HR :0.64531: (Sim:0h2m3s) 
CPU  0 inst:   35000003 cyc:   22498816 now IPC :1.47390: AVG IPC :1.53370: L2-Pf-HR :0.75591: L2-HR :0.64160: (Sim:0h2m7s) 
CPU  0 inst:   36000000 cyc:   23211739 now IPC :1.40267: AVG IPC :1.52950: L2-Pf-HR :0.75171: L2-HR :0.63832: (Sim:0h2m12s) 
CPU  0 inst:   37000000 cyc:   23866426 now IPC :1.52745: AVG IPC :1.52944: L2-Pf-HR :0.74729: L2-HR :0.63524: (Sim:0h2m16s) 
CPU  0 inst:   38000003 cyc:   24525722 now IPC :1.51677: AVG IPC :1.52909: L2-Pf-HR :0.74341: L2-HR :0.63251: (Sim:0h2m21s) 
CPU  0 inst:   39000001 cyc:   25187452 now IPC :1.51119: AVG IPC :1.52860: L2-Pf-HR :0.73945: L2-HR :0.62970: (Sim:0h2m25s) 
CPU  0 inst:   40000000 cyc:   25842115 now IPC :1.52750: AVG IPC :1.52857: L2-Pf-HR :0.73442: L2-HR :0.62635: (Sim:0h2m29s) 
CPU  0 inst:   41000001 cyc:   26506328 now IPC :1.50554: AVG IPC :1.52797: L2-Pf-HR :0.72947: L2-HR :0.62302: (Sim:0h2m33s) 
CPU  0 inst:   42000000 cyc:   27160403 now IPC :1.52888: AVG IPC :1.52799: L2-Pf-HR :0.72425: L2-HR :0.61969: (Sim:0h2m36s) 
CPU  0 inst:   43000002 cyc:   27803401 now IPC :1.55522: AVG IPC :1.52864: L2-Pf-HR :0.72069: L2-HR :0.61720: (Sim:0h2m39s) 
CPU  0 inst:   44000000 cyc:   28727917 now IPC :1.08164: AVG IPC :1.51375: L2-Pf-HR :0.71622: L2-HR :0.61294: (Sim:0h2m44s) 
CPU  0 inst:   45000003 cyc:   29334885 now IPC :1.64754: AVG IPC :1.51661: L2-Pf-HR :0.71170: L2-HR :0.61027: (Sim:0h2m48s) 
CPU  0 inst:   46000001 cyc:   29950467 now IPC :1.62448: AVG IPC :1.51891: L2-Pf-HR :0.70773: L2-HR :0.60788: (Sim:0h2m52s) 
CPU  0 inst:   47000003 cyc:   30567561 now IPC :1.62050: AVG IPC :1.52103: L2-Pf-HR :0.70343: L2-HR :0.60535: (Sim:0h2m55s) 
CPU  0 inst:   48000000 cyc:   31164639 now IPC :1.67482: AVG IPC :1.52407: L2-Pf-HR :0.69791: L2-HR :0.60254: (Sim:0h2m58s) 
CPU  0 inst:   49000000 cyc:   31772299 now IPC :1.64566: AVG IPC :1.52647: L2-Pf-HR :0.69340: L2-HR :0.60039: (Sim:0h3m2s) 
CPU  0 inst:   50000002 cyc:   32374764 now IPC :1.65985: AVG IPC :1.52903: L2-Pf-HR :0.69016: L2-HR :0.59875: (Sim:0h3m7s) 
CPU  0 inst:   51000002 cyc:   32979290 now IPC :1.65419: AVG IPC :1.53139: L2-Pf-HR :0.68677: L2-HR :0.59691: (Sim:0h3m11s) 
CPU  0 inst:   52000000 cyc:   33587591 now IPC :1.64392: AVG IPC :1.53349: L2-Pf-HR :0.68383: L2-HR :0.59526: (Sim:0h3m15s) 
CPU  0 inst:   53000001 cyc:   34198367 now IPC :1.63726: AVG IPC :1.53540: L2-Pf-HR :0.68086: L2-HR :0.59359: (Sim:0h3m19s) 
CPU  0 inst:   54000001 cyc:   34832578 now IPC :1.57676: AVG IPC :1.53617: L2-Pf-HR :0.67702: L2-HR :0.59156: (Sim:0h3m22s) 
CPU  0 inst:   55000003 cyc:   35433700 now IPC :1.66356: AVG IPC :1.53840: L2-Pf-HR :0.67407: L2-HR :0.59007: (Sim:0h3m26s) 
CPU  0 inst:   56000000 cyc:   36228027 now IPC :1.25892: AVG IPC :1.53210: L2-Pf-HR :0.67583: L2-HR :0.59061: (Sim:0h3m29s) 
CPU  0 inst:   57000000 cyc:   36821324 now IPC :1.68550: AVG IPC :1.53464: L2-Pf-HR :0.68313: L2-HR :0.59500: (Sim:0h3m33s) 
CPU  0 inst:   58000000 cyc:   37419263 now IPC :1.67241: AVG IPC :1.53690: L2-Pf-HR :0.70056: L2-HR :0.60564: (Sim:0h3m37s) 
CPU  0 inst:   59000003 cyc:   38010578 now IPC :1.69115: AVG IPC :1.53936: L2-Pf-HR :0.71733: L2-HR :0.61646: (Sim:0h3m41s) 
CPU  0 inst:   60000000 cyc:   38601489 now IPC :1.69230: AVG IPC :1.54176: L2-Pf-HR :0.73261: L2-HR :0.62690: (Sim:0h3m46s) 
CPU  0 inst:   61000002 cyc:   39171884 now IPC :1.75317: AVG IPC :1.54492: L2-Pf-HR :0.74625: L2-HR :0.63653: (Sim:0h3m50s) 
CPU  0 inst:   62000002 cyc:   39745726 now IPC :1.74264: AVG IPC :1.54785: L2-Pf-HR :0.75672: L2-HR :0.64435: (Sim:0h3m54s) 
CPU  0 inst:   63000000 cyc:   40315202 now IPC :1.75600: AVG IPC :1.55086: L2-Pf-HR :0.76620: L2-HR :0.65168: (Sim:0h3m58s) 
CPU  0 inst:   64000000 cyc:   41212950 now IPC :1.11390: AVG IPC :1.54111: L2-Pf-HR :0.76581: L2-HR :0.65060: (Sim:0h4m3s) 
CPU  0 inst:   65000000 cyc:   41859272 now IPC :1.54722: AVG IPC :1.54121: L2-Pf-HR :0.76316: L2-HR :0.64835: (Sim:0h4m7s) 
CPU  0 inst:   66000003 cyc:   42531724 now IPC :1.48710: AVG IPC :1.54033: L2-Pf-HR :0.76057: L2-HR :0.64620: (Sim:0h4m12s) 
CPU  0 inst:   67000001 cyc:   43231220 now IPC :1.42960: AVG IPC :1.53850: L2-Pf-HR :0.75730: L2-HR :0.64387: (Sim:0h4m16s) 
CPU  0 inst:   68000000 cyc:   43909228 now IPC :1.47491: AVG IPC :1.53749: L2-Pf-HR :0.75471: L2-HR :0.64198: (Sim:0h4m21s) 
CPU  0 inst:   69000002 cyc:   44571783 now IPC :1.50931: AVG IPC :1.53707: L2-Pf-HR :0.75266: L2-HR :0.64047: (Sim:0h4m25s) 
CPU  0 inst:   70000000 cyc:   45241649 now IPC :1.49283: AVG IPC :1.53640: L2-Pf-HR :0.75060: L2-HR :0.63898: (Sim:0h4m30s) 
CPU  0 inst:   71000002 cyc:   45898147 now IPC :1.52324: AVG IPC :1.53620: L2-Pf-HR :0.74842: L2-HR :0.63729: (Sim:0h4m34s) 
CPU  0 inst:   72000000 cyc:   46561886 now IPC :1.50661: AVG IPC :1.53577: L2-Pf-HR :0.74560: L2-HR :0.63532: (Sim:0h4m38s) 
CPU  0 inst:   73000003 cyc:   47212488 now IPC :1.53704: AVG IPC :1.53579: L2-Pf-HR :0.74260: L2-HR :0.63333: (Sim:0h4m43s) 
CPU  0 inst:   74000001 cyc:   47884722 now IPC :1.48757: AVG IPC :1.53510: L2-Pf-HR :0.74040: L2-HR :0.63168: (Sim:0h4m47s) 
CPU  0 inst:   75000000 cyc:   48551693 now IPC :1.49931: AVG IPC :1.53460: L2-Pf-HR :0.73835: L2-HR :0.63017: (Sim:0h4m51s) 
CPU  0 inst:   76000000 cyc:   49442768 now IPC :1.12224: AVG IPC :1.52702: L2-Pf-HR :0.73556: L2-HR :0.62755: (Sim:0h4m56s) 
CPU  0 inst:   77000003 cyc:   50049498 now IPC :1.64818: AVG IPC :1.52851: L2-Pf-HR :0.73328: L2-HR :0.62606: (Sim:0h5m0s) 
CPU  0 inst:   78000001 cyc:   50667673 now IPC :1.61766: AVG IPC :1.52962: L2-Pf-HR :0.73059: L2-HR :0.62436: (Sim:0h5m4s) 
CPU  0 inst:   79000001 cyc:   51281657 now IPC :1.62871: AVG IPC :1.53083: L2-Pf-HR :0.72755: L2-HR :0.62258: (Sim:0h5m7s) 
CPU  0 inst:   80000000 cyc:   51882556 now IPC :1.66417: AVG IPC :1.53241: L2-Pf-HR :0.72451: L2-HR :0.62091: (Sim:0h5m10s) 
CPU  0 inst:   81000003 cyc:   52487678 now IPC :1.65256: AVG IPC :1.53382: L2-Pf-HR :0.72232: L2-HR :0.61966: (Sim:0h5m13s) 
CPU  0 inst:   82000000 cyc:   53097210 now IPC :1.64060: AVG IPC :1.53507: L2-Pf-HR :0.72029: L2-HR :0.61850: (Sim:0h5m16s) 
CPU  0 inst:   83000003 cyc:   53699139 now IPC :1.66133: AVG IPC :1.53651: L2-Pf-HR :0.71840: L2-HR :0.61730: (Sim:0h5m19s) 
CPU  0 inst:   84000000 cyc:   54305504 now IPC :1.64917: AVG IPC :1.53779: L2-Pf-HR :0.71658: L2-HR :0.61611: (Sim:0h5m22s) 
CPU  0 inst:   85000003 cyc:   54906038 now IPC :1.66519: AVG IPC :1.53921: L2-Pf-HR :0.71408: L2-HR :0.61466: (Sim:0h5m26s) 
CPU  0 inst:   86000001 cyc:   55548401 now IPC :1.55675: AVG IPC :1.53942: L2-Pf-HR :0.71215: L2-HR :0.61349: (Sim:0h5m30s) 
CPU  0 inst:   87000000 cyc:   56293964 now IPC :1.34127: AVG IPC :1.53675: L2-Pf-HR :0.71005: L2-HR :0.61171: (Sim:0h5m35s) 
CPU  0 inst:   88000000 cyc:   56930676 now IPC :1.57057: AVG IPC :1.53713: L2-Pf-HR :0.71335: L2-HR :0.61407: (Sim:0h5m38s) 
CPU  0 inst:   89000003 cyc:   57523641 now IPC :1.68645: AVG IPC :1.53870: L2-Pf-HR :0.71866: L2-HR :0.61765: (Sim:0h5m41s) 
CPU  0 inst:   90000003 cyc:   58094636 now IPC :1.75133: AVG IPC :1.54082: L2-Pf-HR :0.72847: L2-HR :0.62429: (Sim:0h5m44s) 
CPU  0 inst:   91000001 cyc:   58688507 now IPC :1.68386: AVG IPC :1.54229: L2-Pf-HR :0.73727: L2-HR :0.63050: (Sim:0h5m47s) 
CPU  0 inst:   92000000 cyc:   59257902 now IPC :1.75625: AVG IPC :1.54438: L2-Pf-HR :0.74598: L2-HR :0.63677: (Sim:0h5m52s) 
CPU  0 inst:   93000001 cyc:   59829202 now IPC :1.75040: AVG IPC :1.54638: L2-Pf-HR :0.75404: L2-HR :0.64270: (Sim:0h5m56s) 
CPU  0 inst:   94000000 cyc:   60413195 now IPC :1.71235: AVG IPC :1.54802: L2-Pf-HR :0.75961: L2-HR :0.64696: (Sim:0h5m59s) 
CPU  0 inst:   95000002 cyc:   61262296 now IPC :1.17772: AVG IPC :1.54280: L2-Pf-HR :0.76465: L2-HR :0.65027: (Sim:0h6m4s) 
CPU  0 inst:   96000000 cyc:   61957816 now IPC :1.43777: AVG IPC :1.54160: L2-Pf-HR :0.76269: L2-HR :0.64872: (Sim:0h6m7s) 
CPU  0 inst:   97000002 cyc:   62624840 now IPC :1.49920: AVG IPC :1.54114: L2-Pf-HR :0.76094: L2-HR :0.64730: (Sim:0h6m10s) 
CPU  0 inst:   98000001 cyc:   63345015 now IPC :1.38855: AVG IPC :1.53938: L2-Pf-HR :0.75907: L2-HR :0.64578: (Sim:0h6m13s) 
CPU  0 inst:   99000000 cyc:   64021084 now IPC :1.47914: AVG IPC :1.53873: L2-Pf-HR :0.75691: L2-HR :0.64426: (Sim:0h6m16s) 
CPU  0 inst:  100000000 cyc:   64679141 now IPC :1.51963: AVG IPC :1.53854: L2-Pf-HR :0.75506: L2-HR :0.64298: (Sim:0h6m20s) 
CPU  0 inst:  101000003 cyc:   65365855 now IPC :1.45621: AVG IPC :1.53766: L2-Pf-HR :0.75364: L2-HR :0.64191: (Sim:0h6m24s) 
CPU  0 inst:  102000002 cyc:   66022123 now IPC :1.52377: AVG IPC :1.53752: L2-Pf-HR :0.75216: L2-HR :0.64081: (Sim:0h6m27s) 
CPU  0 inst:  103000000 cyc:   66695036 now IPC :1.48607: AVG IPC :1.53699: L2-Pf-HR :0.75079: L2-HR :0.63972: (Sim:0h6m31s) 
CPU  0 inst:  104000000 cyc:   67341434 now IPC :1.54703: AVG IPC :1.53709: L2-Pf-HR :0.74922: L2-HR :0.63853: (Sim:0h6m35s) 
CPU  0 inst:  105000001 cyc:   68001006 now IPC :1.51614: AVG IPC :1.53688: L2-Pf-HR :0.74731: L2-HR :0.63719: (Sim:0h6m39s) 
CPU  0 inst:  106000003 cyc:   68651710 now IPC :1.53680: AVG IPC :1.53688: L2-Pf-HR :0.74588: L2-HR :0.63610: (Sim:0h6m43s) 
CPU  0 inst:  107000003 cyc:   69558634 now IPC :1.10263: AVG IPC :1.53114: L2-Pf-HR :0.74418: L2-HR :0.63431: (Sim:0h6m48s) 
CPU  0 inst:  108000000 cyc:   70192850 now IPC :1.57675: AVG IPC :1.53156: L2-Pf-HR :0.74258: L2-HR :0.63323: (Sim:0h6m53s) 
CPU  0 inst:  109000003 cyc:   70816489 now IPC :1.60350: AVG IPC :1.53220: L2-Pf-HR :0.74095: L2-HR :0.63210: (Sim:0h6m57s) 
CPU  0 inst:  110000003 cyc:   71441737 now IPC :1.59937: AVG IPC :1.53280: L2-Pf-HR :0.73958: L2-HR :0.63108: (Sim:0h7m1s) 
CPU  0 inst:  111000001 cyc:   72053083 now IPC :1.63573: AVG IPC :1.53368: L2-Pf-HR :0.73812: L2-HR :0.63013: (Sim:0h7m6s) 
CPU  0 inst:  112000000 cyc:   72665866 now IPC :1.63190: AVG IPC :1.53452: L2-Pf-HR :0.73662: L2-HR :0.62919: (Sim:0h7m10s) 
CPU  0 inst:  113000001 cyc:   73279837 now IPC :1.62874: AVG IPC :1.53532: L2-Pf-HR :0.73526: L2-HR :0.62835: (Sim:0h7m14s) 
CPU  0 inst:  114000003 cyc:   73891057 now IPC :1.63608: AVG IPC :1.53617: L2-Pf-HR :0.73386: L2-HR :0.62747: (Sim:0h7m18s) 
CPU  0 inst:  115000003 cyc:   74501176 now IPC :1.63902: AVG IPC :1.53702: L2-Pf-HR :0.73238: L2-HR :0.62649: (Sim:0h7m21s) 
CPU  0 inst:  116000000 cyc:   75119654 now IPC :1.61687: AVG IPC :1.53769: L2-Pf-HR :0.73113: L2-HR :0.62563: (Sim:0h7m25s) 
CPU  0 inst:  117000003 cyc:   75762543 now IPC :1.55548: AVG IPC :1.53784: L2-Pf-HR :0.72971: L2-HR :0.62470: (Sim:0h7m29s) 
CPU  0 inst:  118000001 cyc:   76372115 now IPC :1.64049: AVG IPC :1.53867: L2-Pf-HR :0.72824: L2-HR :0.62377: (Sim:0h7m33s) 
CPU  0 inst:  119000000 cyc:   77165587 now IPC :1.26028: AVG IPC :1.53577: L2-Pf-HR :0.72792: L2-HR :0.62333: (Sim:0h7m38s) 
CPU  0 inst:  120000000 cyc:   77754584 now IPC :1.69780: AVG IPC :1.53701: L2-Pf-HR :0.73009: L2-HR :0.62489: (Sim:0h7m42s) 
CPU  0 inst:  121000002 cyc:   78346745 now IPC :1.68873: AVG IPC :1.53817: L2-Pf-HR :0.73581: L2-HR :0.62890: (Sim:0h7m45s) 
CPU  0 inst:  122000002 cyc:   78948381 now IPC :1.66213: AVG IPC :1.53913: L2-Pf-HR :0.74209: L2-HR :0.63339: (Sim:0h7m49s) 
CPU  0 inst:  123000001 cyc:   79528699 now IPC :1.72319: AVG IPC :1.54049: L2-Pf-HR :0.74826: L2-HR :0.63793: (Sim:0h7m53s) 
CPU  0 inst:  124000000 cyc:   80109923 now IPC :1.72051: AVG IPC :1.54181: L2-Pf-HR :0.75420: L2-HR :0.64230: (Sim:0h7m57s) 
CPU  0 inst:  125000003 cyc:   80683541 now IPC :1.74333: AVG IPC :1.54326: L2-Pf-HR :0.75984: L2-HR :0.64655: (Sim:0h8m2s) 
CPU  0 inst:  126000003 cyc:   81297450 now IPC :1.62891: AVG IPC :1.54392: L2-Pf-HR :0.76388: L2-HR :0.64968: (Sim:0h8m6s) 
CPU  0 inst:  127000003 cyc:   82184976 now IPC :1.12673: AVG IPC :1.53936: L2-Pf-HR :0.76462: L2-HR :0.64984: (Sim:0h8m10s) 
CPU  0 inst:  128000000 cyc:   82820850 now IPC :1.57263: AVG IPC :1.53962: L2-Pf-HR :0.76333: L2-HR :0.64879: (Sim:0h8m14s) 
CPU  0 inst:  129000000 cyc:   83528314 now IPC :1.41350: AVG IPC :1.53853: L2-Pf-HR :0.76215: L2-HR :0.64773: (Sim:0h8m19s) 
CPU  0 inst:  130000003 cyc:   84221562 now IPC :1.44249: AVG IPC :1.53773: L2-Pf-HR :0.76103: L2-HR :0.64677: (Sim:0h8m23s) 
CPU  0 inst:  131000002 cyc:   84884952 now IPC :1.50741: AVG IPC :1.53750: L2-Pf-HR :0.75993: L2-HR :0.64590: (Sim:0h8m28s) 
CPU  0 inst:  132000000 cyc:   85546493 now IPC :1.51162: AVG IPC :1.53729: L2-Pf-HR :0.75885: L2-HR :0.64508: (Sim:0h8m32s) 
CPU  0 inst:  133000002 cyc:   86196158 now IPC :1.53926: AVG IPC :1.53731: L2-Pf-HR :0.75773: L2-HR :0.64428: (Sim:0h8m36s) 
CPU  0 inst:  134000002 cyc:   86863076 now IPC :1.49943: AVG IPC :1.53701: L2-Pf-HR :0.75668: L2-HR :0.64344: (Sim:0h8m41s) 
CPU  0 inst:  135000002 cyc:   87508806 now IPC :1.54863: AVG IPC :1.53710: L2-Pf-HR :0.75556: L2-HR :0.64256: (Sim:0h8m45s) 
CPU  0 inst:  136000000 cyc:   88156780 now IPC :1.54327: AVG IPC :1.53715: L2-Pf-HR :0.75418: L2-HR :0.64157: (Sim:0h8m50s) 
CPU  0 inst:  137000003 cyc:   88817244 now IPC :1.51409: AVG IPC :1.53697: L2-Pf-HR :0.75294: L2-HR :0.64061: (Sim:0h8m54s) 
CPU  0 inst:  138000002 cyc:   89453342 now IPC :1.57208: AVG IPC :1.53723: L2-Pf-HR :0.75181: L2-HR :0.63978: (Sim:0h8m57s) 
CPU  0 inst:  139000002 cyc:   90367335 now IPC :1.09410: AVG IPC :1.53269: L2-Pf-HR :0.75036: L2-HR :0.63833: (Sim:0h9m0s) 
CPU  0 inst:  140000000 cyc:   90988785 now IPC :1.60914: AVG IPC :1.53322: L2-Pf-HR :0.74908: L2-HR :0.63743: (Sim:0h9m4s) 
CPU  0 inst:  141000000 cyc:   91624431 now IPC :1.57320: AVG IPC :1.53350: L2-Pf-HR :0.74772: L2-HR :0.63650: (Sim:0h9m8s) 
CPU  0 inst:  142000002 cyc:   92284888 now IPC :1.51411: AVG IPC :1.53336: L2-Pf-HR :0.74613: L2-HR :0.63550: (Sim:0h9m12s) 
CPU  0 inst:  143000001 cyc:   92920134 now IPC :1.57419: AVG IPC :1.53364: L2-Pf-HR :0.74444: L2-HR :0.63448: (Sim:0h9m16s) 
CPU  0 inst:  144000000 cyc:   93574300 now IPC :1.52866: AVG IPC :1.53361: L2-Pf-HR :0.74318: L2-HR :0.63371: (Sim:0h9m20s) 
CPU  0 inst:  145000001 cyc:   94229121 now IPC :1.52714: AVG IPC :1.53356: L2-Pf-HR :0.74210: L2-HR :0.63306: (Sim:0h9m24s) 
CPU  0 inst:  146000002 cyc:   94877626 now IPC :1.54201: AVG IPC :1.53362: L2-Pf-HR :0.74095: L2-HR :0.63225: (Sim:0h9m29s) 
CPU  0 inst:  147000003 cyc:   95508360 now IPC :1.58546: AVG IPC :1.53397: L2-Pf-HR :0.73995: L2-HR :0.63155: (Sim:0h9m33s) 
CPU  0 inst:  148000000 cyc:   96132469 now IPC :1.60228: AVG IPC :1.53442: L2-Pf-HR :0.73861: L2-HR :0.63070: (Sim:0h9m38s) 
CPU  0 inst:  149000000 cyc:   96783210 now IPC :1.53671: AVG IPC :1.53443: L2-Pf-HR :0.73744: L2-HR :0.62991: (Sim:0h9m42s) 
CPU  0 inst:  150000003 cyc:   97440721 now IPC :1.52089: AVG IPC :1.53434: L2-Pf-HR :0.73632: L2-HR :0.62916: (Sim:0h9m47s) 
CPU  0 inst:  151000003 cyc:   98191046 now IPC :1.33276: AVG IPC :1.53278: L2-Pf-HR :0.73706: L2-HR :0.62953: (Sim:0h9m51s) 
CPU  0 inst:  152000000 cyc:   98798087 now IPC :1.64733: AVG IPC :1.53349: L2-Pf-HR :0.73914: L2-HR :0.63102: (Sim:0h9m55s) 
CPU  0 inst:  153000002 cyc:   99414474 now IPC :1.62236: AVG IPC :1.53405: L2-Pf-HR :0.74401: L2-HR :0.63448: (Sim:0h9m58s) 
CPU  0 inst:  154000001 cyc:  100006064 now IPC :1.69036: AVG IPC :1.53498: L2-Pf-HR :0.74860: L2-HR :0.63785: (Sim:0h10m3s) 
CPU  0 inst:  155000000 cyc:  100580705 now IPC :1.74022: AVG IPC :1.53617: L2-Pf-HR :0.75323: L2-HR :0.64126: (Sim:0h10m7s) 
CPU  0 inst:  156000000 cyc:  101156006 now IPC :1.73822: AVG IPC :1.53733: L2-Pf-HR :0.75778: L2-HR :0.64463: (Sim:0h10m11s) 
CPU  0 inst:  157000003 cyc:  101736217 now IPC :1.72352: AVG IPC :1.53840: L2-Pf-HR :0.76090: L2-HR :0.64699: (Sim:0h10m15s) 
CPU  0 inst:  158000000 cyc:  102588390 now IPC :1.17347: AVG IPC :1.53534: L2-Pf-HR :0.76441: L2-HR :0.64934: (Sim:0h10m20s) 
CPU  0 inst:  159000002 cyc:  103301601 now IPC :1.40211: AVG IPC :1.53441: L2-Pf-HR :0.76321: L2-HR :0.64841: (Sim:0h10m24s) 
CPU  0 inst:  160000000 cyc:  103979025 now IPC :1.47618: AVG IPC :1.53403: L2-Pf-HR :0.76223: L2-HR :0.64755: (Sim:0h10m29s) 
CPU  0 inst:  161000003 cyc:  104678731 now IPC :1.42918: AVG IPC :1.53332: L2-Pf-HR :0.76133: L2-HR :0.64672: (Sim:0h10m33s) 
CPU  0 inst:  162000001 cyc:  105372512 now IPC :1.44137: AVG IPC :1.53271: L2-Pf-HR :0.76049: L2-HR :0.64601: (Sim:0h10m38s) 
CPU  0 inst:  163000003 cyc:  106067628 now IPC :1.43861: AVG IPC :1.53209: L2-Pf-HR :0.75964: L2-HR :0.64532: (Sim:0h10m42s) 
CPU  0 inst:  164000000 cyc:  106712965 now IPC :1.54957: AVG IPC :1.53219: L2-Pf-HR :0.75874: L2-HR :0.64466: (Sim:0h10m46s) 
CPU  0 inst:  165000003 cyc:  107373811 now IPC :1.51322: AVG IPC :1.53208: L2-Pf-HR :0.75786: L2-HR :0.64402: (Sim:0h10m49s) 
CPU  0 inst:  166000002 cyc:  108025671 now IPC :1.53407: AVG IPC :1.53209: L2-Pf-HR :0.75693: L2-HR :0.64328: (Sim:0h10m53s) 
CPU  0 inst:  167000001 cyc:  108683506 now IPC :1.52014: AVG IPC :1.53202: L2-Pf-HR :0.75613: L2-HR :0.64260: (Sim:0h10m57s) 
CPU  0 inst:  168000000 cyc:  109336127 now IPC :1.53228: AVG IPC :1.53202: L2-Pf-HR :0.75488: L2-HR :0.64172: (Sim:0h11m2s) 
CPU  0 inst:  169000001 cyc:  109967179 now IPC :1.58466: AVG IPC :1.53232: L2-Pf-HR :0.75394: L2-HR :0.64101: (Sim:0h11m6s) 
CPU  0 inst:  170000000 cyc:  110833206 now IPC :1.15470: AVG IPC :1.52934: L2-Pf-HR :0.75294: L2-HR :0.63990: (Sim:0h11m11s) 
CPU  0 inst:  171000000 cyc:  111493064 now IPC :1.51548: AVG IPC :1.52926: L2-Pf-HR :0.75183: L2-HR :0.63915: (Sim:0h11m15s) 
CPU  0 inst:  172000000 cyc:  112103910 now IPC :1.63707: AVG IPC :1.52985: L2-Pf-HR :0.75068: L2-HR :0.63839: (Sim:0h11m19s) 
CPU  0 inst:  173000003 cyc:  112714390 now IPC :1.63806: AVG IPC :1.53045: L2-Pf-HR :0.74938: L2-HR :0.63754: (Sim:0h11m24s) 
CPU  0 inst:  174000000 cyc:  113318678 now IPC :1.65484: AVG IPC :1.53112: L2-Pf-HR :0.74800: L2-HR :0.63670: (Sim:0h11m28s) 
CPU  0 inst:  175000001 cyc:  113916873 now IPC :1.67170: AVG IPC :1.53186: L2-Pf-HR :0.74672: L2-HR :0.63594: (Sim:0h11m32s) 
CPU  0 inst:  176000000 cyc:  114516783 now IPC :1.66692: AVG IPC :1.53257: L2-Pf-HR :0.74583: L2-HR :0.63537: (Sim:0h11m36s) 
CPU  0 inst:  177000003 cyc:  115116939 now IPC :1.66624: AVG IPC :1.53328: L2-Pf-HR :0.74487: L2-HR :0.63476: (Sim:0h11m41s) 
CPU  0 inst:  178000001 cyc:  115722620 now IPC :1.65103: AVG IPC :1.53390: L2-Pf-HR :0.74402: L2-HR :0.63416: (Sim:0h11m45s) 
CPU  0 inst:  179000002 cyc:  116401875 now IPC :1.47220: AVG IPC :1.53353: L2-Pf-HR :0.74320: L2-HR :0.63355: (Sim:0h11m49s) 
CPU  0 inst:  180000000 cyc:  117110730 now IPC :1.41072: AVG IPC :1.53279: L2-Pf-HR :0.74225: L2-HR :0.63290: (Sim:0h11m54s) 
CPU  0 inst:  181000000 cyc:  117778867 now IPC :1.49670: AVG IPC :1.53258: L2-Pf-HR :0.74137: L2-HR :0.63230: (Sim:0h11m58s) 
CPU  0 inst:  182000003 cyc:  118575993 now IPC :1.25451: AVG IPC :1.53069: L2-Pf-HR :0.74078: L2-HR :0.63171: (Sim:0h12m3s) 
CPU  0 inst:  183000001 cyc:  119163196 now IPC :1.70299: AVG IPC :1.53155: L2-Pf-HR :0.74188: L2-HR :0.63260: (Sim:0h12m7s) 
CPU  0 inst:  184000000 cyc:  119751789 now IPC :1.69897: AVG IPC :1.53238: L2-Pf-HR :0.74486: L2-HR :0.63477: (Sim:0h12m11s) 
CPU  0 inst:  185000003 cyc:  120345484 now IPC :1.68437: AVG IPC :1.53314: L2-Pf-HR :0.74882: L2-HR :0.63767: (Sim:0h12m15s) 
CPU  0 inst:  186000000 cyc:  120936715 now IPC :1.69138: AVG IPC :1.53392: L2-Pf-HR :0.75268: L2-HR :0.64058: (Sim:0h12m20s) 
CPU  0 inst:  187000003 cyc:  121505634 now IPC :1.75772: AVG IPC :1.53497: L2-Pf-HR :0.75656: L2-HR :0.64348: (Sim:0h12m24s) 
CPU  0 inst:  188000000 cyc:  122077603 now IPC :1.74834: AVG IPC :1.53598: L2-Pf-HR :0.76030: L2-HR :0.64632: (Sim:0h12m28s) 
CPU  0 inst:  189000001 cyc:  122677392 now IPC :1.66725: AVG IPC :1.53663: L2-Pf-HR :0.76295: L2-HR :0.64837: (Sim:0h12m33s) 
CPU  0 inst:  190000001 cyc:  123558724 now IPC :1.13465: AVG IPC :1.53374: L2-Pf-HR :0.76397: L2-HR :0.64889: (Sim:0h12m37s) 
CPU  0 inst:  191000003 cyc:  124198115 now IPC :1.56399: AVG IPC :1.53389: L2-Pf-HR :0.76307: L2-HR :0.64816: (Sim:0h12m42s) 
CPU  0 inst:  192000000 cyc:  124882627 now IPC :1.46089: AVG IPC :1.53349: L2-Pf-HR :0.76220: L2-HR :0.64743: (Sim:0h12m46s) 
CPU  0 inst:  193000000 cyc:  125580981 now IPC :1.43194: AVG IPC :1.53292: L2-Pf-HR :0.76152: L2-HR :0.64681: (Sim:0h12m51s) 
CPU  0 inst:  194000002 cyc:  126272620 now IPC :1.44584: AVG IPC :1.53244: L2-Pf-HR :0.76053: L2-HR :0.64610: (Sim:0h12m55s) 
CPU  0 inst:  195000003 cyc:  126925334 now IPC :1.53207: AVG IPC :1.53244: L2-Pf-HR :0.75956: L2-HR :0.64542: (Sim:0h12m59s) 
CPU  0 inst:  196000000 cyc:  127593457 now IPC :1.49673: AVG IPC :1.53225: L2-Pf-HR :0.75870: L2-HR :0.64484: (Sim:0h13m4s) 
CPU  0 inst:  197000002 cyc:  128252877 now IPC :1.51649: AVG IPC :1.53217: L2-Pf-HR :0.75791: L2-HR :0.64424: (Sim:0h13m8s) 
CPU  0 inst:  198000001 cyc:  128926334 now IPC :1.48487: AVG IPC :1.53192: L2-Pf-HR :0.75722: L2-HR :0.64368: (Sim:0h13m13s) 
CPU  0 inst:  199000000 cyc:  129599450 now IPC :1.48563: AVG IPC :1.53168: L2-Pf-HR :0.75655: L2-HR :0.64310: (Sim:0h13m17s) 
CPU  0 inst:  200000000 cyc:  130249247 now IPC :1.53894: AVG IPC :1.53171: L2-Pf-HR :0.75574: L2-HR :0.64247: (Sim:0h13m21s) 
CPU  0 inst:  201000002 cyc:  130912901 now IPC :1.50681: AVG IPC :1.53159: L2-Pf-HR :0.75500: L2-HR :0.64190: (Sim:0h13m25s) 
CPU  0 inst:  202000001 cyc:  131829280 now IPC :1.09125: AVG IPC :1.52850: L2-Pf-HR :0.75405: L2-HR :0.64093: (Sim:0h13m30s) 
CPU  0 inst:  203000000 cyc:  132463446 now IPC :1.57687: AVG IPC :1.52874: L2-Pf-HR :0.75322: L2-HR :0.64034: (Sim:0h13m34s) 
CPU  0 inst:  204000000 cyc:  133131261 now IPC :1.49742: AVG IPC :1.52858: L2-Pf-HR :0.75241: L2-HR :0.63973: (Sim:0h13m37s) 
CPU  0 inst:  205000001 cyc:  133751718 now IPC :1.61172: AVG IPC :1.52897: L2-Pf-HR :0.75166: L2-HR :0.63918: (Sim:0h13m40s) 
CPU  0 inst:  206000003 cyc:  134362459 now IPC :1.63736: AVG IPC :1.52946: L2-Pf-HR :0.75090: L2-HR :0.63866: (Sim:0h13m42s) 
CPU  0 inst:  207000001 cyc:  134976044 now IPC :1.62976: AVG IPC :1.52992: L2-Pf-HR :0.75016: L2-HR :0.63818: (Sim:0h13m45s) 
CPU  0 inst:  208000000 cyc:  135586827 now IPC :1.63724: AVG IPC :1.53041: L2-Pf-HR :0.74935: L2-HR :0.63769: (Sim:0h13m48s) 
CPU  0 inst:  209000002 cyc:  136200849 now IPC :1.62861: AVG IPC :1.53085: L2-Pf-HR :0.74859: L2-HR :0.63717: (Sim:0h13m51s) 
CPU  0 inst:  210000000 cyc:  136811804 now IPC :1.63678: AVG IPC :1.53133: L2-Pf-HR :0.74786: L2-HR :0.63665: (Sim:0h13m54s) 
CPU  0 inst:  211000000 cyc:  137446362 now IPC :1.57590: AVG IPC :1.53154: L2-Pf-HR :0.74711: L2-HR :0.63611: (Sim:0h13m57s) 
CPU  0 inst:  212000000 cyc:  138085092 now IPC :1.56561: AVG IPC :1.53170: L2-Pf-HR :0.74633: L2-HR :0.63558: (Sim:0h14m1s) 
CPU  0 inst:  213000002 cyc:  138693344 now IPC :1.64406: AVG IPC :1.53219: L2-Pf-HR :0.74554: L2-HR :0.63505: (Sim:0h14m6s) 
CPU  0 inst:  214000001 cyc:  139471710 now IPC :1.28474: AVG IPC :1.53080: L2-Pf-HR :0.74587: L2-HR :0.63517: (Sim:0h14m9s) 
CPU  0 inst:  215000003 cyc:  140071303 now IPC :1.66780: AVG IPC :1.53139: L2-Pf-HR :0.74707: L2-HR :0.63608: (Sim:0h14m12s) 
CPU  0 inst:  216000000 cyc:  140664249 now IPC :1.68649: AVG IPC :1.53205: L2-Pf-HR :0.75042: L2-HR :0.63855: (Sim:0h14m15s) 
CPU  0 inst:  217000003 cyc:  141285837 now IPC :1.60879: AVG IPC :1.53239: L2-Pf-HR :0.75366: L2-HR :0.64097: (Sim:0h14m18s) 
CPU  0 inst:  218000002 cyc:  141886729 now IPC :1.66419: AVG IPC :1.53295: L2-Pf-HR :0.75687: L2-HR :0.64342: (Sim:0h14m22s) 
CPU  0 inst:  219000002 cyc:  142521424 now IPC :1.57556: AVG IPC :1.53314: L2-Pf-HR :0.76007: L2-HR :0.64582: (Sim:0h14m26s) 
CPU  0 inst:  220000000 cyc:  143163265 now IPC :1.55802: AVG IPC :1.53326: L2-Pf-HR :0.76251: L2-HR :0.64770: (Sim:0h14m31s) 
CPU  0 inst:  221000002 cyc:  143800119 now IPC :1.57022: AVG IPC :1.53342: L2-Pf-HR :0.76541: L2-HR :0.64995: (Sim:0h14m35s) 
CPU  0 inst:  222000003 cyc:  144692043 now IPC :1.12117: AVG IPC :1.53086: L2-Pf-HR :0.76465: L2-HR :0.64911: (Sim:0h14m40s) 
CPU  0 inst:  223000002 cyc:  145351679 now IPC :1.51599: AVG IPC :1.53079: L2-Pf-HR :0.76388: L2-HR :0.64849: (Sim:0h14m44s) 
CPU  0 inst:  224000000 cyc:  146048320 now IPC :1.43546: AVG IPC :1.53034: L2-Pf-HR :0.76324: L2-HR :0.64791: (Sim:0h14m48s) 
CPU  0 inst:  225000002 cyc:  146736371 now IPC :1.45338: AVG IPC :1.52997: L2-Pf-HR :0.76259: L2-HR :0.64737: (Sim:0h14m53s) 
CPU  0 inst:  226000001 cyc:  147413036 now IPC :1.47783: AVG IPC :1.52973: L2-Pf-HR :0.76196: L2-HR :0.64687: (Sim:0h14m57s) 
CPU  0 inst:  227000000 cyc:  148080262 now IPC :1.49874: AVG IPC :1.52959: L2-Pf-HR :0.76134: L2-HR :0.64640: (Sim:0h15m1s) 
CPU  0 inst:  228000000 cyc:  148737451 now IPC :1.52163: AVG IPC :1.52956: L2-Pf-HR :0.76066: L2-HR :0.64592: (Sim:0h15m6s) 
CPU  0 inst:  229000003 cyc:  149406826 now IPC :1.49394: AVG IPC :1.52940: L2-Pf-HR :0.76005: L2-HR :0.64542: (Sim:0h15m10s) 
CPU  0 inst:  230000002 cyc:  150075813 now IPC :1.49480: AVG IPC :1.52924: L2-Pf-HR :0.75929: L2-HR :0.64483: (Sim:0h15m14s) 
CPU  0 inst:  231000000 cyc:  150722793 now IPC :1.54564: AVG IPC :1.52931: L2-Pf-HR :0.75839: L2-HR :0.64421: (Sim:0h15m18s) 
CPU  0 inst:  232000000 cyc:  151378100 now IPC :1.52600: AVG IPC :1.52930: L2-Pf-HR :0.75770: L2-HR :0.64366: (Sim:0h15m23s) 
CPU  0 inst:  233000002 cyc:  152136897 now IPC :1.31788: AVG IPC :1.52824: L2-Pf-HR :0.75697: L2-HR :0.64302: (Sim:0h15m26s) 
CPU  0 inst:  234000002 cyc:  152934941 now IPC :1.25306: AVG IPC :1.52679: L2-Pf-HR :0.75616: L2-HR :0.64230: (Sim:0h15m30s) 
CPU  0 inst:  235000003 cyc:  153544739 now IPC :1.63989: AVG IPC :1.52724: L2-Pf-HR :0.75542: L2-HR :0.64177: (Sim:0h15m35s) 
CPU  0 inst:  236000000 cyc:  154156697 now IPC :1.63409: AVG IPC :1.52767: L2-Pf-HR :0.75475: L2-HR :0.64126: (Sim:0h15m39s) 
CPU  0 inst:  237000000 cyc:  154765776 now IPC :1.64182: AVG IPC :1.52812: L2-Pf-HR :0.75410: L2-HR :0.64080: (Sim:0h15m42s) 
CPU  0 inst:  238000003 cyc:  155371532 now IPC :1.65083: AVG IPC :1.52860: L2-Pf-HR :0.75344: L2-HR :0.64034: (Sim:0h15m45s) 
CPU  0 inst:  239000002 cyc:  155972554 now IPC :1.66383: AVG IPC :1.52913: L2-Pf-HR :0.75275: L2-HR :0.63990: (Sim:0h15m49s) 
CPU  0 inst:  240000000 cyc:  156572808 now IPC :1.66596: AVG IPC :1.52966: L2-Pf-HR :0.75209: L2-HR :0.63949: (Sim:0h15m53s) 
CPU  0 inst:  241000002 cyc:  157177682 now IPC :1.65324: AVG IPC :1.53013: L2-Pf-HR :0.75142: L2-HR :0.63902: (Sim:0h15m56s) 
CPU  0 inst:  242000001 cyc:  157825236 now IPC :1.54427: AVG IPC :1.53019: L2-Pf-HR :0.75080: L2-HR :0.63855: (Sim:0h15m59s) 
CPU  0 inst:  243000003 cyc:  158429006 now IPC :1.65626: AVG IPC :1.53068: L2-Pf-HR :0.75014: L2-HR :0.63810: (Sim:0h16m2s) 
CPU  0 inst:  244000000 cyc:  159027240 now IPC :1.67158: AVG IPC :1.53121: L2-Pf-HR :0.74946: L2-HR :0.63764: (Sim:0h16m5s) 
CPU  0 inst:  245000000 cyc:  159823504 now IPC :1.25586: AVG IPC :1.52983: L2-Pf-HR :0.74878: L2-HR :0.63701: (Sim:0h16m8s) 
CPU  0 inst:  246000001 cyc:  160407310 now IPC :1.71290: AVG IPC :1.53050: L2-Pf-HR :0.74960: L2-HR :0.63770: (Sim:0h16m11s) 
CPU  0 inst:  247000003 cyc:  160992035 now IPC :1.71021: AVG IPC :1.53116: L2-Pf-HR :0.75143: L2-HR :0.63907: (Sim:0h16m14s) 
CPU  0 inst:  248000000 cyc:  161586475 now IPC :1.68225: AVG IPC :1.53172: L2-Pf-HR :0.75427: L2-HR :0.64119: (Sim:0h16m17s) 
CPU  0 inst:  249000001 cyc:  162178302 now IPC :1.68968: AVG IPC :1.53230: L2-Pf-HR :0.75702: L2-HR :0.64330: (Sim:0h16m20s) 
CPU  0 inst:  250000002 cyc:  162745306 now IPC :1.76366: AVG IPC :1.53311: L2-Pf-HR :0.75985: L2-HR :0.64545: (Sim:0h16m23s) 
CPU  0 inst:  251000000 cyc:  163316972 now IPC :1.74927: AVG IPC :1.53387: L2-Pf-HR :0.76253: L2-HR :0.64752: (Sim:0h16m27s) 
CPU  0 inst:  252000000 cyc:  163948719 now IPC :1.58291: AVG IPC :1.53406: L2-Pf-HR :0.76450: L2-HR :0.64905: (Sim:0h16m31s) 
CPU  0 inst:  253000003 cyc:  164870035 now IPC :1.08541: AVG IPC :1.53154: L2-Pf-HR :0.76563: L2-HR :0.64972: (Sim:0h16m36s) 
CPU  0 inst:  254000002 cyc:  165509133 now IPC :1.56470: AVG IPC :1.53166: L2-Pf-HR :0.76491: L2-HR :0.64916: (Sim:0h16m40s) 
CPU  0 inst:  255000000 cyc:  166198811 now IPC :1.44995: AVG IPC :1.53132: L2-Pf-HR :0.76429: L2-HR :0.64862: (Sim:0h16m45s) 
CPU  0 inst:  256000000 cyc:  166884816 now IPC :1.45772: AVG IPC :1.53102: L2-Pf-HR :0.76373: L2-HR :0.64813: (Sim:0h16m49s) 
CPU  0 inst:  257000000 cyc:  167584836 now IPC :1.42853: AVG IPC :1.53059: L2-Pf-HR :0.76317: L2-HR :0.64768: (Sim:0h16m54s) 
CPU  0 inst:  258000002 cyc:  168252048 now IPC :1.49878: AVG IPC :1.53046: L2-Pf-HR :0.76245: L2-HR :0.64717: (Sim:0h16m59s) 
CPU  0 inst:  259000001 cyc:  168903716 now IPC :1.53452: AVG IPC :1.53048: L2-Pf-HR :0.76186: L2-HR :0.64675: (Sim:0h17m3s) 
CPU  0 inst:  260000000 cyc:  169572645 now IPC :1.49493: AVG IPC :1.53034: L2-Pf-HR :0.76131: L2-HR :0.64633: (Sim:0h17m8s) 
CPU  0 inst:  261000001 cyc:  170248014 now IPC :1.48067: AVG IPC :1.53014: L2-Pf-HR :0.76067: L2-HR :0.64584: (Sim:0h17m12s) 
CPU  0 inst:  262000003 cyc:  170900966 now IPC :1.53151: AVG IPC :1.53014: L2-Pf-HR :0.75994: L2-HR :0.64530: (Sim:0h17m16s) 
CPU  0 inst:  263000002 cyc:  171570960 now IPC :1.49255: AVG IPC :1.53000: L2-Pf-HR :0.75923: L2-HR :0.64477: (Sim:0h17m21s) 
CPU  0 inst:  264000000 cyc:  172215332 now IPC :1.55190: AVG IPC :1.53008: L2-Pf-HR :0.75863: L2-HR :0.64432: (Sim:0h17m24s) 
CPU  0 inst:  265000003 cyc:  173139977 now IPC :1.08150: AVG IPC :1.52767: L2-Pf-HR :0.75796: L2-HR :0.64359: (Sim:0h17m29s) 
CPU  0 inst:  266000001 cyc:  173743936 now IPC :1.65574: AVG IPC :1.52812: L2-Pf-HR :0.75731: L2-HR :0.64312: (Sim:0h17m33s) 
CPU  0 inst:  267000001 cyc:  174360650 now IPC :1.62150: AVG IPC :1.52845: L2-Pf-HR :0.75666: L2-HR :0.64265: (Sim:0h17m38s) 
CPU  0 inst:  268000000 cyc:  174975070 now IPC :1.62755: AVG IPC :1.52880: L2-Pf-HR :0.75612: L2-HR :0.64223: (Sim:0h17m42s) 
CPU  0 inst:  269000000 cyc:  175575924 now IPC :1.66430: AVG IPC :1.52927: L2-Pf-HR :0.75551: L2-HR :0.64181: (Sim:0h17m46s) 
CPU  0 inst:  270000002 cyc:  176178748 now IPC :1.65886: AVG IPC :1.52971: L2-Pf-HR :0.75494: L2-HR :0.64142: (Sim:0h17m51s) 
CPU  0 inst:  271000002 cyc:  176778891 now IPC :1.66627: AVG IPC :1.53018: L2-Pf-HR :0.75435: L2-HR :0.64106: (Sim:0h17m55s) 
CPU  0 inst:  272000000 cyc:  177380775 now IPC :1.66145: AVG IPC :1.53063: L2-Pf-HR :0.75375: L2-HR :0.64064: (Sim:0h17m59s) 
CPU  0 inst:  273000003 cyc:  177984866 now IPC :1.65538: AVG IPC :1.53105: L2-Pf-HR :0.75316: L2-HR :0.64023: (Sim:0h18m3s) 
CPU  0 inst:  274000001 cyc:  178594705 now IPC :1.63977: AVG IPC :1.53142: L2-Pf-HR :0.75264: L2-HR :0.63983: (Sim:0h18m7s) 
CPU  0 inst:  275000001 cyc:  179229520 now IPC :1.57526: AVG IPC :1.53158: L2-Pf-HR :0.75200: L2-HR :0.63938: (Sim:0h18m11s) 
CPU  0 inst:  276000000 cyc:  179827501 now IPC :1.67229: AVG IPC :1.53205: L2-Pf-HR :0.75143: L2-HR :0.63900: (Sim:0h18m15s) 
CPU  0 inst:  277000000 cyc:  180614184 now IPC :1.27116: AVG IPC :1.53091: L2-Pf-HR :0.75152: L2-HR :0.63899: (Sim:0h18m20s) 
CPU  0 inst:  278000002 cyc:  181217520 now IPC :1.65745: AVG IPC :1.53133: L2-Pf-HR :0.75216: L2-HR :0.63951: (Sim:0h18m24s) 
CPU  0 inst:  279000002 cyc:  181809469 now IPC :1.68933: AVG IPC :1.53185: L2-Pf-HR :0.75300: L2-HR :0.64032: (Sim:0h18m28s) 
CPU  0 inst:  280000000 cyc:  182401994 now IPC :1.68769: AVG IPC :1.53236: L2-Pf-HR :0.75419: L2-HR :0.64134: (Sim:0h18m31s) 
CPU  0 inst:  281000000 cyc:  182979341 now IPC :1.73206: AVG IPC :1.53299: L2-Pf-HR :0.75668: L2-HR :0.64324: (Sim:0h18m35s) 
CPU  0 inst:  282000001 cyc:  183549176 now IPC :1.75490: AVG IPC :1.53368: L2-Pf-HR :0.75914: L2-HR :0.64510: (Sim:0h18m39s) 
CPU  0 inst:  283000003 cyc:  184132771 now IPC :1.71352: AVG IPC :1.53426: L2-Pf-HR :0.76120: L2-HR :0.64668: (Sim:0h18m43s) 
CPU  0 inst:  284000000 cyc:  184715430 now IPC :1.71626: AVG IPC :1.53483: L2-Pf-HR :0.76336: L2-HR :0.64834: (Sim:0h18m47s) 
CPU  0 inst:  285000001 cyc:  185611899 now IPC :1.11549: AVG IPC :1.53280: L2-Pf-HR :0.76313: L2-HR :0.64798: (Sim:0h18m52s) 
CPU  0 inst:  286000003 cyc:  186270869 now IPC :1.51752: AVG IPC :1.53274: L2-Pf-HR :0.76257: L2-HR :0.64752: (Sim:0h18m56s) 
CPU  0 inst:  287000002 cyc:  186967409 now IPC :1.43567: AVG IPC :1.53238: L2-Pf-HR :0.76201: L2-HR :0.64703: (Sim:0h19m0s) 
CPU  0 inst:  288000000 cyc:  187683308 now IPC :1.39684: AVG IPC :1.53186: L2-Pf-HR :0.76151: L2-HR :0.64661: (Sim:0h19m4s) 
CPU  0 inst:  289000002 cyc:  188349271 now IPC :1.50159: AVG IPC :1.53175: L2-Pf-HR :0.76075: L2-HR :0.64609: (Sim:0h19m9s) 
CPU  0 inst:  290000002 cyc:  189006922 now IPC :1.52056: AVG IPC :1.53171: L2-Pf-HR :0.76011: L2-HR :0.64565: (Sim:0h19m13s) 
CPU  0 inst:  291000000 cyc:  189662399 now IPC :1.52560: AVG IPC :1.53169: L2-Pf-HR :0.75959: L2-HR :0.64528: (Sim:0h19m17s) 
CPU  0 inst:  292000000 cyc:  190314234 now IPC :1.53413: AVG IPC :1.53170: L2-Pf-HR :0.75906: L2-HR :0.64487: (Sim:0h19m22s) 
CPU  0 inst:  293000000 cyc:  190978474 now IPC :1.50548: AVG IPC :1.53161: L2-Pf-HR :0.75856: L2-HR :0.64447: (Sim:0h19m26s) 
CPU  0 inst:  294000002 cyc:  191628443 now IPC :1.53854: AVG IPC :1.53163: L2-Pf-HR :0.75789: L2-HR :0.64399: (Sim:0h19m30s) 
CPU  0 inst:  295000001 cyc:  192286655 now IPC :1.51927: AVG IPC :1.53159: L2-Pf-HR :0.75734: L2-HR :0.64356: (Sim:0h19m35s) 
CPU  0 inst:  296000000 cyc:  192974609 now IPC :1.45358: AVG IPC :1.53131: L2-Pf-HR :0.75681: L2-HR :0.64315: (Sim:0h19m39s) 
CPU  0 inst:  297000003 cyc:  193854164 now IPC :1.13694: AVG IPC :1.52951: L2-Pf-HR :0.75606: L2-HR :0.64245: (Sim:0h19m44s) 
CPU  0 inst:  298000003 cyc:  194463918 now IPC :1.64001: AVG IPC :1.52986: L2-Pf-HR :0.75540: L2-HR :0.64200: (Sim:0h19m48s) 
CPU  0 inst:  299000001 cyc:  195088336 now IPC :1.60149: AVG IPC :1.53009: L2-Pf-HR :0.75472: L2-HR :0.64154: (Sim:0h19m52s) 
CPU  0 inst:  300000000 cyc:  195693019 now IPC :1.65376: AVG IPC :1.53048: L2-Pf-HR :0.75394: L2-HR :0.64105: (Sim:0h19m56s) 
CPU  0 inst:  301000001 cyc:  196300355 now IPC :1.64654: AVG IPC :1.53084: L2-Pf-HR :0.75317: L2-HR :0.64058: (Sim:0h20m0s) 
CPU  0 inst:  302000003 cyc:  196904250 now IPC :1.65592: AVG IPC :1.53122: L2-Pf-HR :0.75262: L2-HR :0.64023: (Sim:0h20m5s) 
CPU  0 inst:  303000003 cyc:  197531355 now IPC :1.59463: AVG IPC :1.53142: L2-Pf-HR :0.75207: L2-HR :0.63987: (Sim:0h20m9s) 
CPU  0 inst:  304000000 cyc:  198136489 now IPC :1.65252: AVG IPC :1.53180: L2-Pf-HR :0.75155: L2-HR :0.63951: (Sim:0h20m13s) 
CPU  0 inst:  305000002 cyc:  198753843 now IPC :1.61982: AVG IPC :1.53207: L2-Pf-HR :0.75108: L2-HR :0.63916: (Sim:0h20m18s) 
CPU  0 inst:  306000002 cyc:  199366127 now IPC :1.63323: AVG IPC :1.53238: L2-Pf-HR :0.75040: L2-HR :0.63871: (Sim:0h20m21s) 
CPU  0 inst:  307000001 cyc:  200005260 now IPC :1.56462: AVG IPC :1.53249: L2-Pf-HR :0.74988: L2-HR :0.63835: (Sim:0h20m24s) 
CPU  0 inst:  308000000 cyc:  200775546 now IPC :1.29822: AVG IPC :1.53158: L2-Pf-HR :0.74929: L2-HR :0.63781: (Sim:0h20m27s) 
CPU  0 inst:  309000003 cyc:  201391873 now IPC :1.62252: AVG IPC :1.53186: L2-Pf-HR :0.75023: L2-HR :0.63853: (Sim:0h20m31s) 
CPU  0 inst:  310000002 cyc:  201994913 now IPC :1.65826: AVG IPC :1.53224: L2-Pf-HR :0.75150: L2-HR :0.63948: (Sim:0h20m35s) 
CPU  0 inst:  311000003 cyc:  202582796 now IPC :1.70102: AVG IPC :1.53273: L2-Pf-HR :0.75380: L2-HR :0.64119: (Sim:0h20m40s) 
CPU  0 inst:  312000000 cyc:  203175190 now IPC :1.68806: AVG IPC :1.53319: L2-Pf-HR :0.75597: L2-HR :0.64285: (Sim:0h20m44s) 
CPU  0 inst:  313000000 cyc:  203746783 now IPC :1.74950: AVG IPC :1.53380: L2-Pf-HR :0.75819: L2-HR :0.64453: (Sim:0h20m48s) 
CPU  0 inst:  314000003 cyc:  204318543 now IPC :1.74899: AVG IPC :1.53440: L2-Pf-HR :0.76037: L2-HR :0.64619: (Sim:0h20m52s) 
CPU  0 inst:  315000003 cyc:  204911685 now IPC :1.68594: AVG IPC :1.53484: L2-Pf-HR :0.76197: L2-HR :0.64742: (Sim:0h20m57s) 
CPU  0 inst:  316000000 cyc:  205771847 now IPC :1.16257: AVG IPC :1.53328: L2-Pf-HR :0.76330: L2-HR :0.64828: (Sim:0h21m1s) 
CPU  0 inst:  317000003 cyc:  206442740 now IPC :1.49056: AVG IPC :1.53314: L2-Pf-HR :0.76273: L2-HR :0.64784: (Sim:0h21m4s) 
CPU  0 inst:  318000002 cyc:  207104790 now IPC :1.51046: AVG IPC :1.53307: L2-Pf-HR :0.76220: L2-HR :0.64740: (Sim:0h21m7s) 
CPU  0 inst:  319000000 cyc:  207819461 now IPC :1.39924: AVG IPC :1.53261: L2-Pf-HR :0.76179: L2-HR :0.64702: (Sim:0h21m11s) 
CPU  0 inst:  320000000 cyc:  208507499 now IPC :1.45341: AVG IPC :1.53234: L2-Pf-HR :0.76132: L2-HR :0.64665: (Sim:0h21m16s) 
CPU  0 inst:  321000001 cyc:  209167657 now IPC :1.51479: AVG IPC :1.53229: L2-Pf-HR :0.76067: L2-HR :0.64620: (Sim:0h21m20s) 
CPU  0 inst:  322000003 cyc:  209829669 now IPC :1.51055: AVG IPC :1.53222: L2-Pf-HR :0.76023: L2-HR :0.64588: (Sim:0h21m24s) 
CPU  0 inst:  323000001 cyc:  210479950 now IPC :1.53779: AVG IPC :1.53224: L2-Pf-HR :0.75974: L2-HR :0.64552: (Sim:0h21m29s) 
CPU  0 inst:  324000000 cyc:  211143537 now IPC :1.50696: AVG IPC :1.53216: L2-Pf-HR :0.75931: L2-HR :0.64517: (Sim:0h21m32s) 
CPU  0 inst:  325000001 cyc:  211815294 now IPC :1.48864: AVG IPC :1.53202: L2-Pf-HR :0.75883: L2-HR :0.64479: (Sim:0h21m35s) 
CPU  0 inst:  326000000 cyc:  212473052 now IPC :1.52031: AVG IPC :1.53198: L2-Pf-HR :0.75820: L2-HR :0.64435: (Sim:0h21m38s) 
CPU  0 inst:  327000002 cyc:  213130138 now IPC :1.52187: AVG IPC :1.53195: L2-Pf-HR :0.75776: L2-HR :0.64400: (Sim:0h21m41s) 
CPU  0 inst:  328000000 cyc:  214054572 now IPC :1.08174: AVG IPC :1.53000: L2-Pf-HR :0.75719: L2-HR :0.64339: (Sim:0h21m44s) 
CPU  0 inst:  329000000 cyc:  214667246 now IPC :1.63219: AVG IPC :1.53029: L2-Pf-HR :0.75666: L2-HR :0.64302: (Sim:0h21m47s) 
CPU  0 inst:  330000002 cyc:  215290268 now IPC :1.60508: AVG IPC :1.53051: L2-Pf-HR :0.75603: L2-HR :0.64260: (Sim:0h21m51s) 
CPU  0 inst:  331000002 cyc:  215908609 now IPC :1.61723: AVG IPC :1.53076: L2-Pf-HR :0.75535: L2-HR :0.64215: (Sim:0h21m54s) 
CPU  0 inst:  332000000 cyc:  216516562 now IPC :1.64486: AVG IPC :1.53108: L2-Pf-HR :0.75465: L2-HR :0.64172: (Sim:0h21m59s) 
CPU  0 inst:  333000001 cyc:  217122935 now IPC :1.64915: AVG IPC :1.53141: L2-Pf-HR :0.75403: L2-HR :0.64133: (Sim:0h22m3s) 
CPU  0 inst:  334000001 cyc:  217736098 now IPC :1.63089: AVG IPC :1.53169: L2-Pf-HR :0.75353: L2-HR :0.64102: (Sim:0h22m7s) 
CPU  0 inst:  335000003 cyc:  218348430 now IPC :1.63310: AVG IPC :1.53198: L2-Pf-HR :0.75306: L2-HR :0.64070: (Sim:0h22m11s) 
CPU  0 inst:  336000000 cyc:  218969006 now IPC :1.61140: AVG IPC :1.53220: L2-Pf-HR :0.75260: L2-HR :0.64037: (Sim:0h22m16s) 
CPU  0 inst:  337000000 cyc:  219583650 now IPC :1.62696: AVG IPC :1.53247: L2-Pf-HR :0.75215: L2-HR :0.64003: (Sim:0h22m20s) 
CPU  0 inst:  338000002 cyc:  220225813 now IPC :1.55724: AVG IPC :1.53254: L2-Pf-HR :0.75167: L2-HR :0.63969: (Sim:0h22m24s) 
CPU  0 inst:  339000001 cyc:  220830028 now IPC :1.65504: AVG IPC :1.53288: L2-Pf-HR :0.75119: L2-HR :0.63937: (Sim:0h22m29s) 
CPU  0 inst:  340000000 cyc:  221620722 now IPC :1.26471: AVG IPC :1.53192: L2-Pf-HR :0.75135: L2-HR :0.63939: (Sim:0h22m33s) 
CPU  0 inst:  341000001 cyc:  222216099 now IPC :1.67961: AVG IPC :1.53232: L2-Pf-HR :0.75200: L2-HR :0.63990: (Sim:0h22m37s) 
CPU  0 inst:  342000002 cyc:  222807000 now IPC :1.69233: AVG IPC :1.53274: L2-Pf-HR :0.75375: L2-HR :0.64120: (Sim:0h22m42s) 
CPU  0 inst:  343000000 cyc:  223425723 now IPC :1.61623: AVG IPC :1.53297: L2-Pf-HR :0.75579: L2-HR :0.64273: (Sim:0h22m46s) 
CPU  0 inst:  344000000 cyc:  224002189 now IPC :1.73471: AVG IPC :1.53350: L2-Pf-HR :0.75781: L2-HR :0.64428: (Sim:0h22m50s) 
CPU  0 inst:  345000002 cyc:  224571007 now IPC :1.75804: AVG IPC :1.53407: L2-Pf-HR :0.75981: L2-HR :0.64580: (Sim:0h22m54s) 
CPU  0 inst:  346000002 cyc:  225146089 now IPC :1.73888: AVG IPC :1.53459: L2-Pf-HR :0.76163: L2-HR :0.64719: (Sim:0h22m59s) 
CPU  0 inst:  347000001 cyc:  225761600 now IPC :1.62466: AVG IPC :1.53484: L2-Pf-HR :0.76322: L2-HR :0.64842: (Sim:0h23m3s) 
CPU  0 inst:  348000000 cyc:  226645194 now IPC :1.13174: AVG IPC :1.53326: L2-Pf-HR :0.76333: L2-HR :0.64836: (Sim:0h23m8s) 
CPU  0 inst:  349000001 cyc:  227284455 now IPC :1.56431: AVG IPC :1.53335: L2-Pf-HR :0.76284: L2-HR :0.64796: (Sim:0h23m12s) 
CPU  0 inst:  350000003 cyc:  227983376 now IPC :1.43078: AVG IPC :1.53303: L2-Pf-HR :0.76240: L2-HR :0.64757: (Sim:0h23m16s) 
CPU  0 inst:  351000001 cyc:  228684655 now IPC :1.42596: AVG IPC :1.53270: L2-Pf-HR :0.76201: L2-HR :0.64723: (Sim:0h23m21s) 
CPU  0 inst:  352000000 cyc:  229356977 now IPC :1.48738: AVG IPC :1.53257: L2-Pf-HR :0.76137: L2-HR :0.64680: (Sim:0h23m25s) 
CPU  0 inst:  353000002 cyc:  230005392 now IPC :1.54223: AVG IPC :1.53260: L2-Pf-HR :0.76092: L2-HR :0.64647: (Sim:0h23m29s) 
CPU  0 inst:  354000001 cyc:  230649804 now IPC :1.55180: AVG IPC :1.53265: L2-Pf-HR :0.76043: L2-HR :0.64614: (Sim:0h23m34s) 
CPU  0 inst:  355000003 cyc:  231322371 now IPC :1.48684: AVG IPC :1.53252: L2-Pf-HR :0.76004: L2-HR :0.64582: (Sim:0h23m38s) 
CPU  0 inst:  356000000 cyc:  231973896 now IPC :1.53486: AVG IPC :1.53252: L2-Pf-HR :0.75947: L2-HR :0.64541: (Sim:0h23m42s) 
CPU  0 inst:  357000001 cyc:  232616070 now IPC :1.55721: AVG IPC :1.53259: L2-Pf-HR :0.75890: L2-HR :0.64501: (Sim:0h23m47s) 
CPU  0 inst:  358000002 cyc:  233278735 now IPC :1.50906: AVG IPC :1.53252: L2-Pf-HR :0.75845: L2-HR :0.64466: (Sim:0h23m51s) 
CPU  0 inst:  359000001 cyc:  233917998 now IPC :1.56430: AVG IPC :1.53261: L2-Pf-HR :0.75801: L2-HR :0.64432: (Sim:0h23m55s) 
CPU  0 inst:  360000000 cyc:  234824722 now IPC :1.10287: AVG IPC :1.53095: L2-Pf-HR :0.75746: L2-HR :0.64376: (Sim:0h24m0s) 
CPU  0 inst:  361000003 cyc:  235429600 now IPC :1.65323: AVG IPC :1.53126: L2-Pf-HR :0.75699: L2-HR :0.64342: (Sim:0h24m4s) 
CPU  0 inst:  362000000 cyc:  236047277 now IPC :1.61896: AVG IPC :1.53149: L2-Pf-HR :0.75644: L2-HR :0.64304: (Sim:0h24m7s) 
CPU  0 inst:  363000001 cyc:  236653266 now IPC :1.65020: AVG IPC :1.53180: L2-Pf-HR :0.75583: L2-HR :0.64265: (Sim:0h24m11s) 
CPU  0 inst:  364000000 cyc:  237253558 now IPC :1.66585: AVG IPC :1.53214: L2-Pf-HR :0.75519: L2-HR :0.64225: (Sim:0h24m15s) 
CPU  0 inst:  365000002 cyc:  237852962 now IPC :1.66833: AVG IPC :1.53248: L2-Pf-HR :0.75470: L2-HR :0.64193: (Sim:0h24m19s) 
CPU  0 inst:  366000000 cyc:  238450544 now IPC :1.67341: AVG IPC :1.53284: L2-Pf-HR :0.75427: L2-HR :0.64167: (Sim:0h24m22s) 
CPU  0 inst:  367000003 cyc:  239047985 now IPC :1.67381: AVG IPC :1.53319: L2-Pf-HR :0.75383: L2-HR :0.64136: (Sim:0h24m25s) 
CPU  0 inst:  368000000 cyc:  239661981 now IPC :1.62867: AVG IPC :1.53344: L2-Pf-HR :0.75341: L2-HR :0.64105: (Sim:0h24m28s) 
CPU  0 inst:  369000000 cyc:  240269075 now IPC :1.64719: AVG IPC :1.53372: L2-Pf-HR :0.75289: L2-HR :0.64070: (Sim:0h24m32s) 
CPU  0 inst:  370000002 cyc:  240902077 now IPC :1.57978: AVG IPC :1.53385: L2-Pf-HR :0.75244: L2-HR :0.64039: (Sim:0h24m36s) 
CPU  0 inst:  371000003 cyc:  241572890 now IPC :1.49073: AVG IPC :1.53373: L2-Pf-HR :0.75197: L2-HR :0.64002: (Sim:0h24m40s) 
CPU  0 inst:  372000000 cyc:  242280734 now IPC :1.41274: AVG IPC :1.53337: L2-Pf-HR :0.75242: L2-HR :0.64032: (Sim:0h24m45s) 
CPU  0 inst:  373000001 cyc:  242873822 now IPC :1.68609: AVG IPC :1.53375: L2-Pf-HR :0.75328: L2-HR :0.64098: (Sim:0h24m49s) 
CPU  0 inst:  374000000 cyc:  243462881 now IPC :1.69762: AVG IPC :1.53414: L2-Pf-HR :0.75517: L2-HR :0.64239: (Sim:0h24m53s) 
CPU  0 inst:  375000003 cyc:  244058998 now IPC :1.67753: AVG IPC :1.53449: L2-Pf-HR :0.75697: L2-HR :0.64376: (Sim:0h24m58s) 
CPU  0 inst:  376000000 cyc:  244630351 now IPC :1.75023: AVG IPC :1.53500: L2-Pf-HR :0.75883: L2-HR :0.64519: (Sim:0h25m2s) 
CPU  0 inst:  377000002 cyc:  245200037 now IPC :1.75536: AVG IPC :1.53551: L2-Pf-HR :0.76066: L2-HR :0.64658: (Sim:0h25m6s) 
CPU  0 inst:  378000000 cyc:  245779308 now IPC :1.72630: AVG IPC :1.53597: L2-Pf-HR :0.76197: L2-HR :0.64760: (Sim:0h25m10s) 
CPU  0 inst:  379000002 cyc:  246605581 now IPC :1.21026: AVG IPC :1.53487: L2-Pf-HR :0.76336: L2-HR :0.64852: (Sim:0h25m15s) 
CPU  0 inst:  380000000 cyc:  247313716 now IPC :1.41216: AVG IPC :1.53452: L2-Pf-HR :0.76286: L2-HR :0.64814: (Sim:0h25m19s) 
CPU  0 inst:  381000001 cyc:  247998829 now IPC :1.45961: AVG IPC :1.53431: L2-Pf-HR :0.76244: L2-HR :0.64778: (Sim:0h25m24s) 
CPU  0 inst:  382000001 cyc:  248720733 now IPC :1.38523: AVG IPC :1.53388: L2-Pf-HR :0.76196: L2-HR :0.64740: (Sim:0h25m28s) 
CPU  0 inst:  383000001 cyc:  249404586 now IPC :1.46230: AVG IPC :1.53368: L2-Pf-HR :0.76141: L2-HR :0.64701: (Sim:0h25m33s) 
CPU  0 inst:  384000000 cyc:  250079552 now IPC :1.48155: AVG IPC :1.53354: L2-Pf-HR :0.76094: L2-HR :0.64667: (Sim:0h25m37s) 
CPU  0 inst:  385000003 cyc:  250742987 now IPC :1.50731: AVG IPC :1.53347: L2-Pf-HR :0.76049: L2-HR :0.64635: (Sim:0h25m41s) 
CPU  0 inst:  386000003 cyc:  251414166 now IPC :1.48992: AVG IPC :1.53335: L2-Pf-HR :0.76011: L2-HR :0.64607: (Sim:0h25m46s) 
CPU  0 inst:  387000002 cyc:  252091164 now IPC :1.47711: AVG IPC :1.53320: L2-Pf-HR :0.75974: L2-HR :0.64577: (Sim:0h25m50s) 
CPU  0 inst:  388000000 cyc:  252762491 now IPC :1.48958: AVG IPC :1.53308: L2-Pf-HR :0.75935: L2-HR :0.64546: (Sim:0h25m55s) 
CPU  0 inst:  389000001 cyc:  253430146 now IPC :1.49778: AVG IPC :1.53299: L2-Pf-HR :0.75883: L2-HR :0.64509: (Sim:0h25m59s) 
CPU  0 inst:  390000001 cyc:  254095170 now IPC :1.50371: AVG IPC :1.53291: L2-Pf-HR :0.75842: L2-HR :0.64477: (Sim:0h26m3s) 
CPU  0 inst:  391000000 cyc:  255000438 now IPC :1.10464: AVG IPC :1.53139: L2-Pf-HR :0.75799: L2-HR :0.64429: (Sim:0h26m8s) 
CPU  0 inst:  392000000 cyc:  255647150 now IPC :1.54628: AVG IPC :1.53142: L2-Pf-HR :0.75741: L2-HR :0.64391: (Sim:0h26m12s) 
CPU  0 inst:  393000001 cyc:  256259531 now IPC :1.63297: AVG IPC :1.53167: L2-Pf-HR :0.75681: L2-HR :0.64353: (Sim:0h26m17s) 
CPU  0 inst:  394000003 cyc:  256874197 now IPC :1.62690: AVG IPC :1.53190: L2-Pf-HR :0.75641: L2-HR :0.64323: (Sim:0h26m21s) 
CPU  0 inst:  395000001 cyc:  257480221 now IPC :1.65010: AVG IPC :1.53218: L2-Pf-HR :0.75600: L2-HR :0.64294: (Sim:0h26m25s) 
CPU  0 inst:  396000000 cyc:  258094303 now IPC :1.62845: AVG IPC :1.53241: L2-Pf-HR :0.75560: L2-HR :0.64266: (Sim:0h26m30s) 
CPU  0 inst:  397000002 cyc:  258705123 now IPC :1.63715: AVG IPC :1.53265: L2-Pf-HR :0.75521: L2-HR :0.64241: (Sim:0h26m34s) 
CPU  0 inst:  398000000 cyc:  259336045 now IPC :1.58498: AVG IPC :1.53278: L2-Pf-HR :0.75481: L2-HR :0.64214: (Sim:0h26m38s) 
CPU  0 inst:  399000000 cyc:  260056922 now IPC :1.38720: AVG IPC :1.53238: L2-Pf-HR :0.75441: L2-HR :0.64184: (Sim:0h26m43s) 
CPU  0 inst:  400000000 cyc:  260768289 now IPC :1.40574: AVG IPC :1.53203: L2-Pf-HR :0.75400: L2-HR :0.64154: (Sim:0h26m47s) 
CPU  0 inst:  401000000 cyc:  261499478 now IPC :1.36764: AVG IPC :1.53157: L2-Pf-HR :0.75359: L2-HR :0.64124: (Sim:0h26m51s) 
CPU  0 inst:  402000003 cyc:  262193742 now IPC :1.44038: AVG IPC :1.53133: L2-Pf-HR :0.75319: L2-HR :0.64096: (Sim:0h26m56s) 
CPU  0 inst:  403000000 cyc:  262993077 now IPC :1.25104: AVG IPC :1.53047: L2-Pf-HR :0.75298: L2-HR :0.64073: (Sim:0h27m0s) 
CPU  0 inst:  404000000 cyc:  263582336 now IPC :1.69705: AVG IPC :1.53084: L2-Pf-HR :0.75335: L2-HR :0.64105: (Sim:0h27m5s) 
CPU  0 inst:  405000003 cyc:  264162690 now IPC :1.72309: AVG IPC :1.53127: L2-Pf-HR :0.75468: L2-HR :0.64205: (Sim:0h27m9s) 
CPU  0 inst:  406000003 cyc:  264754056 now IPC :1.69100: AVG IPC :1.53163: L2-Pf-HR :0.75636: L2-HR :0.64332: (Sim:0h27m13s) 
CPU  0 inst:  407000001 cyc:  265346292 now IPC :1.68851: AVG IPC :1.53198: L2-Pf-HR :0.75805: L2-HR :0.64463: (Sim:0h27m18s) 
CPU  0 inst:  408000000 cyc:  265977122 now IPC :1.58521: AVG IPC :1.53211: L2-Pf-HR :0.75975: L2-HR :0.64590: (Sim:0h27m22s) 
CPU  0 inst:  409000000 cyc:  266613419 now IPC :1.57159: AVG IPC :1.53220: L2-Pf-HR :0.76143: L2-HR :0.64719: (Sim:0h27m26s) 
CPU  0 inst:  410000000 cyc:  267243444 now IPC :1.58724: AVG IPC :1.53233: L2-Pf-HR :0.76265: L2-HR :0.64813: (Sim:0h27m29s) 
CPU  0 inst:  411000001 cyc:  268135088 now IPC :1.12152: AVG IPC :1.53096: L2-Pf-HR :0.76305: L2-HR :0.64829: (Sim:0h27m34s) 
CPU  0 inst:  412000000 cyc:  268806786 now IPC :1.48876: AVG IPC :1.53085: L2-Pf-HR :0.76263: L2-HR :0.64794: (Sim:0h27m38s) 
CPU  0 inst:  413000000 cyc:  269520065 now IPC :1.40198: AVG IPC :1.53051: L2-Pf-HR :0.76226: L2-HR :0.64761: (Sim:0h27m43s) 
CPU  0 inst:  414000003 cyc:  270255909 now IPC :1.35899: AVG IPC :1.53004: L2-Pf-HR :0.76190: L2-HR :0.64732: (Sim:0h27m46s) 
CPU  0 inst:  415000003 cyc:  271005032 now IPC :1.33489: AVG IPC :1.52950: L2-Pf-HR :0.76153: L2-HR :0.64702: (Sim:0h27m50s) 
CPU  0 inst:  416000000 cyc:  271740100 now IPC :1.36041: AVG IPC :1.52904: L2-Pf-HR :0.76115: L2-HR :0.64673: (Sim:0h27m54s) 
CPU  0 inst:  417000003 cyc:  272446342 now IPC :1.41595: AVG IPC :1.52875: L2-Pf-HR :0.76080: L2-HR :0.64648: (Sim:0h27m58s) 
CPU  0 inst:  418000000 cyc:  273198982 now IPC :1.32865: AVG IPC :1.52819: L2-Pf-HR :0.76043: L2-HR :0.64619: (Sim:0h28m2s) 
CPU  0 inst:  419000003 cyc:  273941349 now IPC :1.34705: AVG IPC :1.52770: L2-Pf-HR :0.76008: L2-HR :0.64591: (Sim:0h28m7s) 
CPU  0 inst:  420000000 cyc:  274704998 now IPC :1.30950: AVG IPC :1.52709: L2-Pf-HR :0.75973: L2-HR :0.64562: (Sim:0h28m11s) 
CPU  0 inst:  421000000 cyc:  275409761 now IPC :1.41892: AVG IPC :1.52681: L2-Pf-HR :0.75934: L2-HR :0.64531: (Sim:0h28m16s) 
CPU  0 inst:  422000002 cyc:  276159793 now IPC :1.33328: AVG IPC :1.52629: L2-Pf-HR :0.75898: L2-HR :0.64503: (Sim:0h28m19s) 
CPU  0 inst:  423000003 cyc:  277083232 now IPC :1.08291: AVG IPC :1.52480: L2-Pf-HR :0.75850: L2-HR :0.64454: (Sim:0h28m24s) 
CPU  0 inst:  424000000 cyc:  277703594 now IPC :1.61196: AVG IPC :1.52500: L2-Pf-HR :0.75809: L2-HR :0.64425: (Sim:0h28m27s) 
CPU  0 inst:  425000000 cyc:  278378361 now IPC :1.48199: AVG IPC :1.52490: L2-Pf-HR :0.75772: L2-HR :0.64396: (Sim:0h28m31s) 
CPU  0 inst:  426000002 cyc:  279050325 now IPC :1.48818: AVG IPC :1.52481: L2-Pf-HR :0.75737: L2-HR :0.64370: (Sim:0h28m35s) 
CPU  0 inst:  427000002 cyc:  279715335 now IPC :1.50374: AVG IPC :1.52476: L2-Pf-HR :0.75700: L2-HR :0.64344: (Sim:0h28m40s) 
CPU  0 inst:  428000000 cyc:  280383206 now IPC :1.49729: AVG IPC :1.52469: L2-Pf-HR :0.75665: L2-HR :0.64320: (Sim:0h28m44s) 
CPU  0 inst:  429000003 cyc:  281050091 now IPC :1.49951: AVG IPC :1.52463: L2-Pf-HR :0.75627: L2-HR :0.64296: (Sim:0h28m47s) 
CPU  0 inst:  430000001 cyc:  281718571 now IPC :1.49593: AVG IPC :1.52456: L2-Pf-HR :0.75590: L2-HR :0.64269: (Sim:0h28m52s) 
CPU  0 inst:  431000003 cyc:  282355874 now IPC :1.56912: AVG IPC :1.52466: L2-Pf-HR :0.75556: L2-HR :0.64244: (Sim:0h28m56s) 
CPU  0 inst:  432000000 cyc:  282978965 now IPC :1.60490: AVG IPC :1.52484: L2-Pf-HR :0.75519: L2-HR :0.64217: (Sim:0h29m0s) 
CPU  0 inst:  433000001 cyc:  283625257 now IPC :1.54729: AVG IPC :1.52489: L2-Pf-HR :0.75481: L2-HR :0.64190: (Sim:0h29m3s) 
CPU  0 inst:  434000003 cyc:  284257698 now IPC :1.58118: AVG IPC :1.52502: L2-Pf-HR :0.75444: L2-HR :0.64164: (Sim:0h29m6s) 
CPU  0 inst:  435000000 cyc:  285015389 now IPC :1.31980: AVG IPC :1.52447: L2-Pf-HR :0.75486: L2-HR :0.64188: (Sim:0h29m11s) 
CPU  0 inst:  436000000 cyc:  285612203 now IPC :1.67556: AVG IPC :1.52479: L2-Pf-HR :0.75542: L2-HR :0.64233: (Sim:0h29m15s) 
CPU  0 inst:  437000002 cyc:  286191049 now IPC :1.72758: AVG IPC :1.52520: L2-Pf-HR :0.75697: L2-HR :0.64350: (Sim:0h29m19s) 
CPU  0 inst:  438000003 cyc:  286782771 now IPC :1.68998: AVG IPC :1.52554: L2-Pf-HR :0.75851: L2-HR :0.64467: (Sim:0h29m22s) 
CPU  0 inst:  439000001 cyc:  287372662 now IPC :1.69523: AVG IPC :1.52589: L2-Pf-HR :0.76005: L2-HR :0.64587: (Sim:0h29m26s) 
CPU  0 inst:  440000000 cyc:  287943414 now IPC :1.75207: AVG IPC :1.52634: L2-Pf-HR :0.76159: L2-HR :0.64704: (Sim:0h29m29s) 
CPU  0 inst:  441000003 cyc:  288517684 now IPC :1.74135: AVG IPC :1.52677: L2-Pf-HR :0.76276: L2-HR :0.64794: (Sim:0h29m33s) 
CPU  0 inst:  442000000 cyc:  289231227 now IPC :1.40145: AVG IPC :1.52646: L2-Pf-HR :0.76415: L2-HR :0.64896: (Sim:0h29m38s) 
CPU  0 inst:  443000002 cyc:  290045724 now IPC :1.22775: AVG IPC :1.52562: L2-Pf-HR :0.76373: L2-HR :0.64857: (Sim:0h29m42s) 
CPU  0 inst:  444000000 cyc:  290704015 now IPC :1.51908: AVG IPC :1.52560: L2-Pf-HR :0.76336: L2-HR :0.64826: (Sim:0h29m47s) 
CPU  0 inst:  445000003 cyc:  291399568 now IPC :1.43771: AVG IPC :1.52539: L2-Pf-HR :0.76303: L2-HR :0.64797: (Sim:0h29m51s) 
CPU  0 inst:  446000002 cyc:  292094599 now IPC :1.43878: AVG IPC :1.52518: L2-Pf-HR :0.76270: L2-HR :0.64770: (Sim:0h29m56s) 
CPU  0 inst:  447000000 cyc:  292791595 now IPC :1.43473: AVG IPC :1.52497: L2-Pf-HR :0.76221: L2-HR :0.64736: (Sim:0h30m0s) 
CPU  0 inst:  448000000 cyc:  293467090 now IPC :1.48040: AVG IPC :1.52487: L2-Pf-HR :0.76183: L2-HR :0.64709: (Sim:0h30m5s) 
CPU  0 inst:  449000001 cyc:  294135385 now IPC :1.49635: AVG IPC :1.52480: L2-Pf-HR :0.76150: L2-HR :0.64685: (Sim:0h30m8s) 
CPU  0 inst:  450000003 cyc:  294811323 now IPC :1.47943: AVG IPC :1.52470: L2-Pf-HR :0.76114: L2-HR :0.64658: (Sim:0h30m12s) 
CPU  0 inst:  451000001 cyc:  295491298 now IPC :1.47064: AVG IPC :1.52457: L2-Pf-HR :0.76073: L2-HR :0.64626: (Sim:0h30m17s) 
CPU  0 inst:  452000000 cyc:  296140523 now IPC :1.54030: AVG IPC :1.52461: L2-Pf-HR :0.76025: L2-HR :0.64593: (Sim:0h30m21s) 
CPU  0 inst:  453000003 cyc:  296806544 now IPC :1.50146: AVG IPC :1.52455: L2-Pf-HR :0.75993: L2-HR :0.64567: (Sim:0h30m26s) 
CPU  0 inst:  454000001 cyc:  297666794 now IPC :1.16245: AVG IPC :1.52350: L2-Pf-HR :0.75956: L2-HR :0.64525: (Sim:0h30m30s) 
CPU  0 inst:  455000000 cyc:  298357037 now IPC :1.44876: AVG IPC :1.52333: L2-Pf-HR :0.75907: L2-HR :0.64493: (Sim:0h30m35s) 
CPU  0 inst:  456000000 cyc:  298979110 now IPC :1.60753: AVG IPC :1.52351: L2-Pf-HR :0.75862: L2-HR :0.64462: (Sim:0h30m39s) 
CPU  0 inst:  457000000 cyc:  299610217 now IPC :1.58452: AVG IPC :1.52363: L2-Pf-HR :0.75824: L2-HR :0.64434: (Sim:0h30m43s) 
CPU  0 inst:  458000000 cyc:  300220311 now IPC :1.63909: AVG IPC :1.52387: L2-Pf-HR :0.75774: L2-HR :0.64402: (Sim:0h30m47s) 
CPU  0 inst:  459000002 cyc:  300833176 now IPC :1.63168: AVG IPC :1.52409: L2-Pf-HR :0.75726: L2-HR :0.64373: (Sim:0h30m52s) 
CPU  0 inst:  460000000 cyc:  301442406 now IPC :1.64141: AVG IPC :1.52433: L2-Pf-HR :0.75689: L2-HR :0.64349: (Sim:0h30m56s) 
CPU  0 inst:  461000003 cyc:  302085177 now IPC :1.55577: AVG IPC :1.52440: L2-Pf-HR :0.75656: L2-HR :0.64326: (Sim:0h31m0s) 
CPU  0 inst:  462000001 cyc:  302695029 now IPC :1.63974: AVG IPC :1.52463: L2-Pf-HR :0.75622: L2-HR :0.64302: (Sim:0h31m4s) 
CPU  0 inst:  463000001 cyc:  303315411 now IPC :1.61191: AVG IPC :1.52481: L2-Pf-HR :0.75589: L2-HR :0.64277: (Sim:0h31m9s) 
CPU  0 inst:  464000000 cyc:  303924681 now IPC :1.64131: AVG IPC :1.52504: L2-Pf-HR :0.75546: L2-HR :0.64249: (Sim:0h31m13s) 
CPU  0 inst:  465000000 cyc:  304536332 now IPC :1.63492: AVG IPC :1.52526: L2-Pf-HR :0.75512: L2-HR :0.64226: (Sim:0h31m18s) 
CPU  0 inst:  466000003 cyc:  305347182 now IPC :1.23328: AVG IPC :1.52449: L2-Pf-HR :0.75487: L2-HR :0.64200: (Sim:0h31m23s) 
CPU  0 inst:  467000000 cyc:  305934083 now IPC :1.70386: AVG IPC :1.52483: L2-Pf-HR :0.75539: L2-HR :0.64242: (Sim:0h31m27s) 
CPU  0 inst:  468000000 cyc:  306521987 now IPC :1.70096: AVG IPC :1.52517: L2-Pf-HR :0.75642: L2-HR :0.64320: (Sim:0h31m31s) 
CPU  0 inst:  469000002 cyc:  307113701 now IPC :1.69001: AVG IPC :1.52549: L2-Pf-HR :0.75785: L2-HR :0.64429: (Sim:0h31m36s) 
CPU  0 inst:  470000000 cyc:  307699907 now IPC :1.70588: AVG IPC :1.52583: L2-Pf-HR :0.75929: L2-HR :0.64540: (Sim:0h31m40s) 
CPU  0 inst:  471000000 cyc:  308269597 now IPC :1.75534: AVG IPC :1.52626: L2-Pf-HR :0.76075: L2-HR :0.64651: (Sim:0h31m45s) 
CPU  0 inst:  472000000 cyc:  308840937 now IPC :1.75027: AVG IPC :1.52667: L2-Pf-HR :0.76220: L2-HR :0.64762: (Sim:0h31m49s) 
CPU  0 inst:  473000003 cyc:  309436055 now IPC :1.68034: AVG IPC :1.52697: L2-Pf-HR :0.76321: L2-HR :0.64841: (Sim:0h31m53s) 
CPU  0 inst:  474000002 cyc:  310325159 now IPC :1.12473: AVG IPC :1.52581: L2-Pf-HR :0.76373: L2-HR :0.64871: (Sim:0h31m57s) 
CPU  0 inst:  475000000 cyc:  310970446 now IPC :1.54969: AVG IPC :1.52586: L2-Pf-HR :0.76336: L2-HR :0.64840: (Sim:0h32m1s) 
CPU  0 inst:  476000000 cyc:  311639328 now IPC :1.49503: AVG IPC :1.52580: L2-Pf-HR :0.76302: L2-HR :0.64812: (Sim:0h32m5s) 
CPU  0 inst:  477000001 cyc:  312339730 now IPC :1.42775: AVG IPC :1.52558: L2-Pf-HR :0.76265: L2-HR :0.64782: (Sim:0h32m10s) 
CPU  0 inst:  478000000 cyc:  313011944 now IPC :1.48762: AVG IPC :1.52550: L2-Pf-HR :0.76220: L2-HR :0.64751: (Sim:0h32m14s) 
CPU  0 inst:  479000002 cyc:  313682291 now IPC :1.49177: AVG IPC :1.52542: L2-Pf-HR :0.76188: L2-HR :0.64727: (Sim:0h32m17s) 
CPU  0 inst:  480000000 cyc:  314348033 now IPC :1.50208: AVG IPC :1.52537: L2-Pf-HR :0.76158: L2-HR :0.64705: (Sim:0h32m22s) 
CPU  0 inst:  481000002 cyc:  314992870 now IPC :1.55078: AVG IPC :1.52543: L2-Pf-HR :0.76126: L2-HR :0.64680: (Sim:0h32m26s) 
CPU  0 inst:  482000001 cyc:  315662452 now IPC :1.49347: AVG IPC :1.52536: L2-Pf-HR :0.76097: L2-HR :0.64657: (Sim:0h32m31s) 
CPU  0 inst:  483000000 cyc:  316310627 now IPC :1.54279: AVG IPC :1.52539: L2-Pf-HR :0.76065: L2-HR :0.64631: (Sim:0h32m35s) 
CPU  0 inst:  484000000 cyc:  316980763 now IPC :1.49223: AVG IPC :1.52532: L2-Pf-HR :0.76028: L2-HR :0.64603: (Sim:0h32m40s) 
CPU  0 inst:  485000003 cyc:  317631290 now IPC :1.53722: AVG IPC :1.52535: L2-Pf-HR :0.75998: L2-HR :0.64579: (Sim:0h32m44s) 
CPU  0 inst:  486000002 cyc:  318546691 now IPC :1.09242: AVG IPC :1.52410: L2-Pf-HR :0.75960: L2-HR :0.64538: (Sim:0h32m49s) 
CPU  0 inst:  487000001 cyc:  319193690 now IPC :1.54560: AVG IPC :1.52414: L2-Pf-HR :0.75926: L2-HR :0.64514: (Sim:0h32m53s) 
CPU  0 inst:  488000000 cyc:  319915916 now IPC :1.38461: AVG IPC :1.52383: L2-Pf-HR :0.75890: L2-HR :0.64486: (Sim:0h32m58s) 
CPU  0 inst:  489000001 cyc:  320655022 now IPC :1.35299: AVG IPC :1.52343: L2-Pf-HR :0.75859: L2-HR :0.64462: (Sim:0h33m2s) 
CPU  0 inst:  490000003 cyc:  321388943 now IPC :1.36255: AVG IPC :1.52306: L2-Pf-HR :0.75826: L2-HR :0.64438: (Sim:0h33m7s) 
CPU  0 inst:  491000003 cyc:  322126029 now IPC :1.35669: AVG IPC :1.52268: L2-Pf-HR :0.75791: L2-HR :0.64414: (Sim:0h33m12s) 
CPU  0 inst:  492000000 cyc:  322860212 now IPC :1.36205: AVG IPC :1.52232: L2-Pf-HR :0.75759: L2-HR :0.64393: (Sim:0h33m16s) 
CPU  0 inst:  493000003 cyc:  323594260 now IPC :1.36231: AVG IPC :1.52195: L2-Pf-HR :0.75726: L2-HR :0.64370: (Sim:0h33m21s) 
CPU  0 inst:  494000003 cyc:  324333293 now IPC :1.35312: AVG IPC :1.52157: L2-Pf-HR :0.75693: L2-HR :0.64345: (Sim:0h33m25s) 
CPU  0 inst:  495000000 cyc:  325069692 now IPC :1.35796: AVG IPC :1.52119: L2-Pf-HR :0.75661: L2-HR :0.64321: (Sim:0h33m30s) 
CPU  0 inst:  496000000 cyc:  325801552 now IPC :1.36638: AVG IPC :1.52085: L2-Pf-HR :0.75627: L2-HR :0.64297: (Sim:0h33m34s) 
CPU  0 inst:  497000002 cyc:  326535194 now IPC :1.36307: AVG IPC :1.52049: L2-Pf-HR :0.75593: L2-HR :0.64272: (Sim:0h33m39s) 
CPU  0 inst:  498000000 cyc:  327325183 now IPC :1.26584: AVG IPC :1.51987: L2-Pf-HR :0.75601: L2-HR :0.64273: (Sim:0h33m43s) 
CPU  0 inst:  499000001 cyc:  327923731 now IPC :1.67071: AVG IPC :1.52015: L2-Pf-HR :0.75647: L2-HR :0.64309: (Sim:0h33m48s) 
CPU  0 inst:  500000000 cyc:  328543069 now IPC :1.61463: AVG IPC :1.52033: L2-Pf-HR :0.75780: L2-HR :0.64409: (Sim:0h33m52s) 
CPU  0 inst:  501000000 cyc:  329146010 now IPC :1.65854: AVG IPC :1.52058: L2-Pf-HR :0.75911: L2-HR :0.64511: (Sim:0h33m55s) 
CPU  0 inst:  502000001 cyc:  329776471 now IPC :1.58614: AVG IPC :1.52071: L2-Pf-HR :0.76044: L2-HR :0.64612: (Sim:0h33m59s) 
CPU  0 inst:  503000000 cyc:  330416118 now IPC :1.56336: AVG IPC :1.52079: L2-Pf-HR :0.76181: L2-HR :0.64717: (Sim:0h34m3s) 
CPU  0 inst:  504000000 cyc:  331053414 now IPC :1.56913: AVG IPC :1.52088: L2-Pf-HR :0.76290: L2-HR :0.64801: (Sim:0h34m7s) 
CPU  0 inst:  505000002 cyc:  331682742 now IPC :1.58900: AVG IPC :1.52101: L2-Pf-HR :0.76415: L2-HR :0.64898: (Sim:0h34m12s) 
CPU  0 inst:  506000000 cyc:  337138523 now IPC :0.18329: AVG IPC :1.49930: L2-Pf-HR :0.76398: L2-HR :0.64768: (Sim:0h34m25s) 
CPU  0 inst:  507000001 cyc:  343614876 now IPC :0.15441: AVG IPC :1.47388: L2-Pf-HR :0.76377: L2-HR :0.64623: (Sim:0h34m41s) 
CPU  0 inst:  508000000 cyc:  350093000 now IPC :0.15437: AVG IPC :1.44940: L2-Pf-HR :0.76357: L2-HR :0.64481: (Sim:0h34m57s) 
CPU  0 inst:  509000003 cyc:  356553313 now IPC :0.15479: AVG IPC :1.42588: L2-Pf-HR :0.76334: L2-HR :0.64343: (Sim:0h35m12s) 
CPU  0 inst:  510000000 cyc:  363023919 now IPC :0.15454: AVG IPC :1.40315: L2-Pf-HR :0.76311: L2-HR :0.64207: (Sim:0h35m28s) 
CPU  0 inst:  511000003 cyc:  369484445 now IPC :0.15479: AVG IPC :1.38127: L2-Pf-HR :0.76287: L2-HR :0.64074: (Sim:0h35m44s) 
CPU  0 inst:  512000000 cyc:  375973127 now IPC :0.15411: AVG IPC :1.36003: L2-Pf-HR :0.76265: L2-HR :0.63943: (Sim:0h35m59s) 
CPU  0 inst:  513000002 cyc:  382455216 now IPC :0.15427: AVG IPC :1.33954: L2-Pf-HR :0.76243: L2-HR :0.63815: (Sim:0h36m12s) 
CPU  0 inst:  514000000 cyc:  388958446 now IPC :0.15377: AVG IPC :1.31967: L2-Pf-HR :0.76224: L2-HR :0.63689: (Sim:0h36m28s) 
CPU  0 inst:  515000003 cyc:  394298163 now IPC :0.18728: AVG IPC :1.30430: L2-Pf-HR :0.76195: L2-HR :0.63606: (Sim:0h36m42s) 
CPU  0 inst:  516000000 cyc:  398031903 now IPC :0.26783: AVG IPC :1.29455: L2-Pf-HR :0.76148: L2-HR :0.63583: (Sim:0h36m52s) 
CPU  0 inst:  517000003 cyc:  401762106 now IPC :0.26808: AVG IPC :1.28499: L2-Pf-HR :0.76101: L2-HR :0.63560: (Sim:0h37m1s) 
CPU  0 inst:  518000000 cyc:  405490056 now IPC :0.26824: AVG IPC :1.27562: L2-Pf-HR :0.76055: L2-HR :0.63538: (Sim:0h37m11s) 
CPU  0 inst:  519000001 cyc:  409217719 now IPC :0.26826: AVG IPC :1.26643: L2-Pf-HR :0.76009: L2-HR :0.63515: (Sim:0h37m21s) 
CPU  0 inst:  520000000 cyc:  412945853 now IPC :0.26823: AVG IPC :1.25739: L2-Pf-HR :0.75962: L2-HR :0.63493: (Sim:0h37m31s) 
CPU  0 inst:  521000000 cyc:  416671229 now IPC :0.26843: AVG IPC :1.24853: L2-Pf-HR :0.75916: L2-HR :0.63470: (Sim:0h37m40s) 
CPU  0 inst:  522000003 cyc:  420395483 now IPC :0.26851: AVG IPC :1.23983: L2-Pf-HR :0.75870: L2-HR :0.63448: (Sim:0h37m50s) 
CPU  0 inst:  523000001 cyc:  424121861 now IPC :0.26836: AVG IPC :1.23127: L2-Pf-HR :0.75824: L2-HR :0.63425: (Sim:0h38m0s) 
CPU  0 inst:  524000000 cyc:  427846478 now IPC :0.26848: AVG IPC :1.22287: L2-Pf-HR :0.75777: L2-HR :0.63403: (Sim:0h38m9s) 
CPU  0 inst:  525000000 cyc:  431573272 now IPC :0.26833: AVG IPC :1.21461: L2-Pf-HR :0.75731: L2-HR :0.63381: (Sim:0h38m19s) 
CPU  0 inst:  526000000 cyc:  435298054 now IPC :0.26847: AVG IPC :1.20650: L2-Pf-HR :0.75685: L2-HR :0.63359: (Sim:0h38m29s) 
CPU  0 inst:  527000000 cyc:  439025934 now IPC :0.26825: AVG IPC :1.19851: L2-Pf-HR :0.75639: L2-HR :0.63337: (Sim:0h38m38s) 
CPU  0 inst:  528000000 cyc:  442747579 now IPC :0.26870: AVG IPC :1.19068: L2-Pf-HR :0.75593: L2-HR :0.63315: (Sim:0h38m48s) 
CPU  0 inst:  529000000 cyc:  446472836 now IPC :0.26844: AVG IPC :1.18297: L2-Pf-HR :0.75548: L2-HR :0.63293: (Sim:0h38m58s) 
CPU  0 inst:  530000001 cyc:  450201937 now IPC :0.26816: AVG IPC :1.17537: L2-Pf-HR :0.75502: L2-HR :0.63271: (Sim:0h39m7s) 
CPU  0 inst:  531000000 cyc:  453928269 now IPC :0.26836: AVG IPC :1.16791: L2-Pf-HR :0.75456: L2-HR :0.63249: (Sim:0h39m17s) 
CPU  0 inst:  532000000 cyc:  457652032 now IPC :0.26855: AVG IPC :1.16058: L2-Pf-HR :0.75410: L2-HR :0.63227: (Sim:0h39m27s) 
CPU  0 inst:  533000003 cyc:  461379481 now IPC :0.26828: AVG IPC :1.15335: L2-Pf-HR :0.75365: L2-HR :0.63205: (Sim:0h39m36s) 
CPU  0 inst:  534000003 cyc:  465107686 now IPC :0.26823: AVG IPC :1.14624: L2-Pf-HR :0.75319: L2-HR :0.63184: (Sim:0h39m46s) 
CPU  0 inst:  535000000 cyc:  468833732 now IPC :0.26838: AVG IPC :1.13925: L2-Pf-HR :0.75273: L2-HR :0.63162: (Sim:0h39m56s) 
CPU  0 inst:  536000000 cyc:  472561493 now IPC :0.26826: AVG IPC :1.13237: L2-Pf-HR :0.75228: L2-HR :0.63140: (Sim:0h40m5s) 
CPU  0 inst:  537000003 cyc:  476285012 now IPC :0.26856: AVG IPC :1.12560: L2-Pf-HR :0.75183: L2-HR :0.63119: (Sim:0h40m15s) 
CPU  0 inst:  538000003 cyc:  480007134 now IPC :0.26866: AVG IPC :1.11894: L2-Pf-HR :0.75137: L2-HR :0.63097: (Sim:0h40m22s) 
CPU  0 inst:  539000000 cyc:  483730027 now IPC :0.26861: AVG IPC :1.11238: L2-Pf-HR :0.75092: L2-HR :0.63076: (Sim:0h40m28s) 
CPU  0 inst:  540000000 cyc:  487458181 now IPC :0.26823: AVG IPC :1.10591: L2-Pf-HR :0.75047: L2-HR :0.63055: (Sim:0h40m34s) 
CPU  0 inst:  541000002 cyc:  491181012 now IPC :0.26861: AVG IPC :1.09955: L2-Pf-HR :0.75001: L2-HR :0.63033: (Sim:0h40m40s) 
CPU  0 inst:  542000000 cyc:  494906375 now IPC :0.26843: AVG IPC :1.09329: L2-Pf-HR :0.74956: L2-HR :0.63012: (Sim:0h40m46s) 
CPU  0 inst:  543000000 cyc:  498631274 now IPC :0.26846: AVG IPC :1.08711: L2-Pf-HR :0.74911: L2-HR :0.62991: (Sim:0h40m55s) 
CPU  0 inst:  544000000 cyc:  502355638 now IPC :0.26850: AVG IPC :1.08103: L2-Pf-HR :0.74866: L2-HR :0.62970: (Sim:0h41m5s) 
CPU  0 inst:  545000001 cyc:  506083213 now IPC :0.26827: AVG IPC :1.07503: L2-Pf-HR :0.74821: L2-HR :0.62949: (Sim:0h41m15s) 
CPU  0 inst:  546000000 cyc:  509807879 now IPC :0.26848: AVG IPC :1.06913: L2-Pf-HR :0.74776: L2-HR :0.62928: (Sim:0h41m24s) 
CPU  0 inst:  547000000 cyc:  513531766 now IPC :0.26854: AVG IPC :1.06331: L2-Pf-HR :0.74731: L2-HR :0.62907: (Sim:0h41m34s) 
CPU  0 inst:  548000000 cyc:  517258024 now IPC :0.26837: AVG IPC :1.05757: L2-Pf-HR :0.74686: L2-HR :0.62886: (Sim:0h41m44s) 
CPU  0 inst:  549000002 cyc:  520984293 now IPC :0.26837: AVG IPC :1.05192: L2-Pf-HR :0.74642: L2-HR :0.62865: (Sim:0h41m52s) 
CPU  0 inst:  550000003 cyc:  524710446 now IPC :0.26837: AVG IPC :1.04634: L2-Pf-HR :0.74597: L2-HR :0.62844: (Sim:0h41m59s) 
CPU  0 inst:  551000002 cyc:  528435938 now IPC :0.26842: AVG IPC :1.04085: L2-Pf-HR :0.74552: L2-HR :0.62823: (Sim:0h42m8s) 
CPU  0 inst:  552000000 cyc:  532161591 now IPC :0.26841: AVG IPC :1.03543: L2-Pf-HR :0.74508: L2-HR :0.62802: (Sim:0h42m18s) 
CPU  0 inst:  553000002 cyc:  535888998 now IPC :0.26828: AVG IPC :1.03009: L2-Pf-HR :0.74463: L2-HR :0.62782: (Sim:0h42m27s) 
CPU  0 inst:  554000003 cyc:  539614688 now IPC :0.26841: AVG IPC :1.02482: L2-Pf-HR :0.74419: L2-HR :0.62761: (Sim:0h42m34s) 
CPU  0 inst:  555000003 cyc:  543339370 now IPC :0.26848: AVG IPC :1.01962: L2-Pf-HR :0.74374: L2-HR :0.62741: (Sim:0h42m40s) 
CPU  0 inst:  556000000 cyc:  547062705 now IPC :0.26858: AVG IPC :1.01450: L2-Pf-HR :0.74330: L2-HR :0.62720: (Sim:0h42m46s) 
CPU  0 inst:  557000001 cyc:  550787312 now IPC :0.26848: AVG IPC :1.00945: L2-Pf-HR :0.74285: L2-HR :0.62700: (Sim:0h42m55s) 
CPU  0 inst:  558000002 cyc:  554511426 now IPC :0.26852: AVG IPC :1.00446: L2-Pf-HR :0.74241: L2-HR :0.62679: (Sim:0h43m5s) 
CPU  0 inst:  559000001 cyc:  558233333 now IPC :0.26868: AVG IPC :0.99955: L2-Pf-HR :0.74197: L2-HR :0.62659: (Sim:0h43m15s) 
CPU  0 inst:  560000000 cyc:  561956342 now IPC :0.26860: AVG IPC :0.99470: L2-Pf-HR :0.74153: L2-HR :0.62639: (Sim:0h43m24s) 
CPU  0 inst:  561000001 cyc:  565679015 now IPC :0.26862: AVG IPC :0.98991: L2-Pf-HR :0.74109: L2-HR :0.62618: (Sim:0h43m34s) 
CPU  0 inst:  562000002 cyc:  569405783 now IPC :0.26833: AVG IPC :0.98518: L2-Pf-HR :0.74064: L2-HR :0.62598: (Sim:0h43m44s) 
CPU  0 inst:  563000000 cyc:  573129949 now IPC :0.26852: AVG IPC :0.98052: L2-Pf-HR :0.74020: L2-HR :0.62578: (Sim:0h43m54s) 
CPU  0 inst:  564000000 cyc:  576853975 now IPC :0.26853: AVG IPC :0.97591: L2-Pf-HR :0.73976: L2-HR :0.62558: (Sim:0h44m3s) 
CPU  0 inst:  565000000 cyc:  580580789 now IPC :0.26833: AVG IPC :0.97136: L2-Pf-HR :0.73932: L2-HR :0.62538: (Sim:0h44m13s) 
CPU  0 inst:  566000001 cyc:  584304981 now IPC :0.26851: AVG IPC :0.96687: L2-Pf-HR :0.73888: L2-HR :0.62518: (Sim:0h44m23s) 
CPU  0 inst:  567000003 cyc:  588032274 now IPC :0.26829: AVG IPC :0.96244: L2-Pf-HR :0.73845: L2-HR :0.62498: (Sim:0h44m33s) 
CPU  0 inst:  568000000 cyc:  591757473 now IPC :0.26844: AVG IPC :0.95806: L2-Pf-HR :0.73801: L2-HR :0.62478: (Sim:0h44m42s) 
CPU  0 inst:  569000000 cyc:  595481963 now IPC :0.26849: AVG IPC :0.95374: L2-Pf-HR :0.73757: L2-HR :0.62458: (Sim:0h44m52s) 
CPU  0 inst:  570000002 cyc:  599206897 now IPC :0.26846: AVG IPC :0.94948: L2-Pf-HR :0.73714: L2-HR :0.62438: (Sim:0h45m2s) 
CPU  0 inst:  571000003 cyc:  602934096 now IPC :0.26830: AVG IPC :0.94526: L2-Pf-HR :0.73670: L2-HR :0.62418: (Sim:0h45m11s) 
CPU  0 inst:  572000000 cyc:  606659707 now IPC :0.26841: AVG IPC :0.94109: L2-Pf-HR :0.73626: L2-HR :0.62399: (Sim:0h45m21s) 
CPU  0 inst:  573000000 cyc:  610383974 now IPC :0.26851: AVG IPC :0.93698: L2-Pf-HR :0.73583: L2-HR :0.62379: (Sim:0h45m31s) 
CPU  0 inst:  574000000 cyc:  614111085 now IPC :0.26830: AVG IPC :0.93292: L2-Pf-HR :0.73540: L2-HR :0.62359: (Sim:0h45m40s) 
CPU  0 inst:  575000001 cyc:  617836910 now IPC :0.26840: AVG IPC :0.92891: L2-Pf-HR :0.73496: L2-HR :0.62340: (Sim:0h45m46s) 
CPU  0 inst:  576000000 cyc:  621562448 now IPC :0.26842: AVG IPC :0.92494: L2-Pf-HR :0.73453: L2-HR :0.62320: (Sim:0h45m52s) 
CPU  0 inst:  577000000 cyc:  625289831 now IPC :0.26828: AVG IPC :0.92102: L2-Pf-HR :0.73410: L2-HR :0.62301: (Sim:0h45m59s) 
CPU  0 inst:  578000001 cyc:  629013978 now IPC :0.26852: AVG IPC :0.91715: L2-Pf-HR :0.73366: L2-HR :0.62281: (Sim:0h46m5s) 
CPU  0 inst:  579000002 cyc:  632739494 now IPC :0.26842: AVG IPC :0.91333: L2-Pf-HR :0.73323: L2-HR :0.62262: (Sim:0h46m11s) 
CPU  0 inst:  580000000 cyc:  636466699 now IPC :0.26830: AVG IPC :0.90954: L2-Pf-HR :0.73280: L2-HR :0.62243: (Sim:0h46m17s) 
CPU  0 inst:  581000000 cyc:  640189719 now IPC :0.26860: AVG IPC :0.90581: L2-Pf-HR :0.73237: L2-HR :0.62223: (Sim:0h46m23s) 
CPU  0 inst:  582000003 cyc:  643918021 now IPC :0.26822: AVG IPC :0.90211: L2-Pf-HR :0.73194: L2-HR :0.62204: (Sim:0h46m30s) 
CPU  0 inst:  583000002 cyc:  647645626 now IPC :0.26827: AVG IPC :0.89846: L2-Pf-HR :0.73151: L2-HR :0.62185: (Sim:0h46m39s) 
CPU  0 inst:  584000000 cyc:  651370786 now IPC :0.26844: AVG IPC :0.89485: L2-Pf-HR :0.73108: L2-HR :0.62166: (Sim:0h46m49s) 
CPU  0 inst:  585000000 cyc:  655094769 now IPC :0.26853: AVG IPC :0.89128: L2-Pf-HR :0.73065: L2-HR :0.62147: (Sim:0h46m58s) 
CPU  0 inst:  586000000 cyc:  658819456 now IPC :0.26848: AVG IPC :0.88776: L2-Pf-HR :0.73022: L2-HR :0.62128: (Sim:0h47m8s) 
CPU  0 inst:  587000002 cyc:  662544959 now IPC :0.26842: AVG IPC :0.88427: L2-Pf-HR :0.72979: L2-HR :0.62109: (Sim:0h47m16s) 
CPU  0 inst:  588000000 cyc:  666270938 now IPC :0.26839: AVG IPC :0.88082: L2-Pf-HR :0.72936: L2-HR :0.62090: (Sim:0h47m22s) 
CPU  0 inst:  589000002 cyc:  669990371 now IPC :0.26886: AVG IPC :0.87742: L2-Pf-HR :0.72894: L2-HR :0.62071: (Sim:0h47m28s) 
CPU  0 inst:  590000001 cyc:  673718561 now IPC :0.26823: AVG IPC :0.87404: L2-Pf-HR :0.72851: L2-HR :0.62052: (Sim:0h47m34s) 
CPU  0 inst:  591000002 cyc:  677446247 now IPC :0.26826: AVG IPC :0.87070: L2-Pf-HR :0.72809: L2-HR :0.62033: (Sim:0h47m40s) 
CPU  0 inst:  592000000 cyc:  681170378 now IPC :0.26852: AVG IPC :0.86741: L2-Pf-HR :0.72766: L2-HR :0.62014: (Sim:0h47m46s) 
CPU  0 inst:  593000003 cyc:  684897592 now IPC :0.26830: AVG IPC :0.86414: L2-Pf-HR :0.72724: L2-HR :0.61996: (Sim:0h47m52s) 
CPU  0 inst:  594000000 cyc:  688625059 now IPC :0.26828: AVG IPC :0.86091: L2-Pf-HR :0.72681: L2-HR :0.61977: (Sim:0h47m58s) 
CPU  0 inst:  595000001 cyc:  692351542 now IPC :0.26835: AVG IPC :0.85772: L2-Pf-HR :0.72639: L2-HR :0.61958: (Sim:0h48m4s) 
CPU  0 inst:  596000000 cyc:  696076645 now IPC :0.26845: AVG IPC :0.85456: L2-Pf-HR :0.72597: L2-HR :0.61940: (Sim:0h48m10s) 
CPU  0 inst:  597000003 cyc:  699802247 now IPC :0.26841: AVG IPC :0.85144: L2-Pf-HR :0.72554: L2-HR :0.61921: (Sim:0h48m16s) 
CPU  0 inst:  598000000 cyc:  703527014 now IPC :0.26847: AVG IPC :0.84834: L2-Pf-HR :0.72512: L2-HR :0.61903: (Sim:0h48m22s) 
CPU  0 inst:  599000001 cyc:  707250686 now IPC :0.26855: AVG IPC :0.84529: L2-Pf-HR :0.72470: L2-HR :0.61884: (Sim:0h48m28s) 
CPU  0 inst:  600000000 cyc:  710979457 now IPC :0.26818: AVG IPC :0.84226: L2-Pf-HR :0.72428: L2-HR :0.61866: (Sim:0h48m34s) 
CPU  0 inst:  601000000 cyc:  714704282 now IPC :0.26847: AVG IPC :0.83926: L2-Pf-HR :0.72386: L2-HR :0.61848: (Sim:0h48m40s) 
CPU  0 inst:  602000000 cyc:  718427875 now IPC :0.26856: AVG IPC :0.83630: L2-Pf-HR :0.72343: L2-HR :0.61829: (Sim:0h48m46s) 
CPU  0 inst:  603000000 cyc:  722152150 now IPC :0.26851: AVG IPC :0.83337: L2-Pf-HR :0.72301: L2-HR :0.61811: (Sim:0h48m52s) 
CPU  0 inst:  604000000 cyc:  725875585 now IPC :0.26857: AVG IPC :0.83047: L2-Pf-HR :0.72260: L2-HR :0.61793: (Sim:0h48m59s) 
CPU  0 inst:  605000001 cyc:  729598599 now IPC :0.26860: AVG IPC :0.82760: L2-Pf-HR :0.72218: L2-HR :0.61774: (Sim:0h49m6s) 
CPU  0 inst:  606000000 cyc:  733325003 now IPC :0.26835: AVG IPC :0.82475: L2-Pf-HR :0.72176: L2-HR :0.61756: (Sim:0h49m12s) 
CPU  0 inst:  607000000 cyc:  737052769 now IPC :0.26826: AVG IPC :0.82193: L2-Pf-HR :0.72134: L2-HR :0.61738: (Sim:0h49m18s) 
CPU  0 inst:  608000000 cyc:  740773884 now IPC :0.26874: AVG IPC :0.81915: L2-Pf-HR :0.72092: L2-HR :0.61720: (Sim:0h49m26s) 
CPU  0 inst:  609000003 cyc:  744498411 now IPC :0.26849: AVG IPC :0.81639: L2-Pf-HR :0.72050: L2-HR :0.61702: (Sim:0h49m32s) 
CPU  0 inst:  610000003 cyc:  748223512 now IPC :0.26845: AVG IPC :0.81366: L2-Pf-HR :0.72009: L2-HR :0.61684: (Sim:0h49m39s) 
CPU  0 inst:  611000001 cyc:  751947920 now IPC :0.26850: AVG IPC :0.81096: L2-Pf-HR :0.71967: L2-HR :0.61666: (Sim:0h49m45s) 
CPU  0 inst:  612000000 cyc:  755675697 now IPC :0.26826: AVG IPC :0.80828: L2-Pf-HR :0.71926: L2-HR :0.61648: (Sim:0h49m51s) 
CPU  0 inst:  613000003 cyc:  759401718 now IPC :0.26838: AVG IPC :0.80562: L2-Pf-HR :0.71884: L2-HR :0.61630: (Sim:0h49m58s) 
CPU  0 inst:  614000003 cyc:  763127408 now IPC :0.26841: AVG IPC :0.80300: L2-Pf-HR :0.71843: L2-HR :0.61613: (Sim:0h50m4s) 
CPU  0 inst:  615000000 cyc:  766850993 now IPC :0.26856: AVG IPC :0.80040: L2-Pf-HR :0.71801: L2-HR :0.61595: (Sim:0h50m10s) 
CPU  0 inst:  616000000 cyc:  770575858 now IPC :0.26847: AVG IPC :0.79782: L2-Pf-HR :0.71760: L2-HR :0.61577: (Sim:0h50m19s) 
CPU  0 inst:  617000002 cyc:  774300242 now IPC :0.26850: AVG IPC :0.79527: L2-Pf-HR :0.71718: L2-HR :0.61559: (Sim:0h50m29s) 
CPU  0 inst:  618000000 cyc:  778027666 now IPC :0.26828: AVG IPC :0.79275: L2-Pf-HR :0.71677: L2-HR :0.61542: (Sim:0h50m38s) 
CPU  0 inst:  619000003 cyc:  781753474 now IPC :0.26840: AVG IPC :0.79024: L2-Pf-HR :0.71636: L2-HR :0.61524: (Sim:0h50m48s) 
CPU  0 inst:  620000000 cyc:  785489204 now IPC :0.26768: AVG IPC :0.78776: L2-Pf-HR :0.71597: L2-HR :0.61506: (Sim:0h50m58s) 
CPU  0 inst:  621000002 cyc:  789214142 now IPC :0.26846: AVG IPC :0.78530: L2-Pf-HR :0.71556: L2-HR :0.61489: (Sim:0h51m7s) 
CPU  0 inst:  622000000 cyc:  792939476 now IPC :0.26843: AVG IPC :0.78287: L2-Pf-HR :0.71514: L2-HR :0.61471: (Sim:0h51m17s) 
CPU  0 inst:  623000000 cyc:  796664403 now IPC :0.26846: AVG IPC :0.78046: L2-Pf-HR :0.71473: L2-HR :0.61454: (Sim:0h51m27s) 
CPU  0 inst:  624000000 cyc:  800389426 now IPC :0.26845: AVG IPC :0.77808: L2-Pf-HR :0.71432: L2-HR :0.61436: (Sim:0h51m36s) 
CPU  0 inst:  625000002 cyc:  804113407 now IPC :0.26853: AVG IPC :0.77571: L2-Pf-HR :0.71391: L2-HR :0.61419: (Sim:0h51m46s) 
[...]
CPU  0 inst: 1072000000 cyc: 1164709078 now IPC :1.41968: AVG IPC :0.91946: L2-Pf-HR :0.72653: L2-HR :0.60720: (Sim:1h23m45s) 
CPU  0 inst: 1073000002 cyc: 1165313453 now IPC :1.65461: AVG IPC :0.91984: L2-Pf-HR :0.72637: L2-HR :0.60708: (Sim:1h23m49s) 
CPU  0 inst: 1074000003 cyc: 1166097241 now IPC :1.27586: AVG IPC :0.92008: L2-Pf-HR :0.72619: L2-HR :0.60693: (Sim:1h23m53s) 
CPU  0 inst: 1075000002 cyc: 1166726719 now IPC :1.58862: AVG IPC :0.92044: L2-Pf-HR :0.72628: L2-HR :0.60696: (Sim:1h23m57s) 
CPU  0 inst: 1076000000 cyc: 1167456782 now IPC :1.36974: AVG IPC :0.92072: L2-Pf-HR :0.72620: L2-HR :0.60688: (Sim:1h24m2s) 
CPU  0 inst: 1077000001 cyc: 1168059282 now IPC :1.65975: AVG IPC :0.92110: L2-Pf-HR :0.72629: L2-HR :0.60693: (Sim:1h24m6s) 
CPU  0 inst: 1078000002 cyc: 1168727030 now IPC :1.49757: AVG IPC :0.92143: L2-Pf-HR :0.72633: L2-HR :0.60692: (Sim:1h24m10s) 
CPU  0 inst: 1079000001 cyc: 1169355176 now IPC :1.59198: AVG IPC :0.92179: L2-Pf-HR :0.72616: L2-HR :0.60679: (Sim:1h24m15s) 
CPU  0 inst: 1080000000 cyc: 1170069430 now IPC :1.40006: AVG IPC :0.92209: L2-Pf-HR :0.72642: L2-HR :0.60694: (Sim:1h24m19s) 
CPU  0 inst: 1081000002 cyc: 1170753150 now IPC :1.46259: AVG IPC :0.92240: L2-Pf-HR :0.72739: L2-HR :0.60759: (Sim:1h24m23s) 
CPU  0 inst: 1082000000 cyc: 1171627326 now IPC :1.14393: AVG IPC :0.92257: L2-Pf-HR :0.72821: L2-HR :0.60817: (Sim:1h24m28s) 
CPU  0 inst: 1083000000 cyc: 1172271281 now IPC :1.55290: AVG IPC :0.92291: L2-Pf-HR :0.72824: L2-HR :0.60816: (Sim:1h24m32s) 
CPU  0 inst: 1084000000 cyc: 1172929313 now IPC :1.51968: AVG IPC :0.92325: L2-Pf-HR :0.72827: L2-HR :0.60815: (Sim:1h24m37s) 
CPU  0 inst: 1085000003 cyc: 1173696747 now IPC :1.30305: AVG IPC :0.92350: L2-Pf-HR :0.72827: L2-HR :0.60813: (Sim:1h24m41s) 
CPU  0 inst: 1086000003 cyc: 1174311686 now IPC :1.62618: AVG IPC :0.92387: L2-Pf-HR :0.72832: L2-HR :0.60815: (Sim:1h24m45s) 
CPU  0 inst: 1087000002 cyc: 1175051882 now IPC :1.35099: AVG IPC :0.92414: L2-Pf-HR :0.72826: L2-HR :0.60808: (Sim:1h24m50s) 
CPU  0 inst: 1088000000 cyc: 1175692736 now IPC :1.56041: AVG IPC :0.92448: L2-Pf-HR :0.72811: L2-HR :0.60796: (Sim:1h24m54s) 
CPU  0 inst: 1089000002 cyc: 1176552302 now IPC :1.16338: AVG IPC :0.92466: L2-Pf-HR :0.72801: L2-HR :0.60786: (Sim:1h24m59s) 
CPU  0 inst: 1090000002 cyc: 1177186142 now IPC :1.57769: AVG IPC :0.92501: L2-Pf-HR :0.72801: L2-HR :0.60784: (Sim:1h25m3s) 
CPU  0 inst: 1091000002 cyc: 1177945873 now IPC :1.31626: AVG IPC :0.92526: L2-Pf-HR :0.72800: L2-HR :0.60780: (Sim:1h25m6s) 
CPU  0 inst: 1092000000 cyc: 1178550070 now IPC :1.65509: AVG IPC :0.92564: L2-Pf-HR :0.72802: L2-HR :0.60781: (Sim:1h25m8s) 
CPU  0 inst: 1093000002 cyc: 1179247984 now IPC :1.43284: AVG IPC :0.92594: L2-Pf-HR :0.72805: L2-HR :0.60778: (Sim:1h25m11s) 
CPU  0 inst: 1094000000 cyc: 1179859780 now IPC :1.63453: AVG IPC :0.92630: L2-Pf-HR :0.72790: L2-HR :0.60768: (Sim:1h25m13s) 
CPU  0 inst: 1095000000 cyc: 1180731350 now IPC :1.14735: AVG IPC :0.92647: L2-Pf-HR :0.72773: L2-HR :0.60753: (Sim:1h25m16s) 
CPU  0 inst: 1096000000 cyc: 1181355357 now IPC :1.60255: AVG IPC :0.92683: L2-Pf-HR :0.72773: L2-HR :0.60751: (Sim:1h25m19s) 
CPU  0 inst: 1097000002 cyc: 1182125756 now IPC :1.29803: AVG IPC :0.92707: L2-Pf-HR :0.72772: L2-HR :0.60746: (Sim:1h25m21s) 
CPU  0 inst: 1098000001 cyc: 1182730611 now IPC :1.65329: AVG IPC :0.92744: L2-Pf-HR :0.72775: L2-HR :0.60747: (Sim:1h25m24s) 
CPU  0 inst: 1099000001 cyc: 1183343872 now IPC :1.63063: AVG IPC :0.92780: L2-Pf-HR :0.72783: L2-HR :0.60751: (Sim:1h25m26s) 
CPU  0 inst: 1100000000 cyc: 1184035387 now IPC :1.44610: AVG IPC :0.92811: L2-Pf-HR :0.72770: L2-HR :0.60739: (Sim:1h25m29s) 
CPU  0 inst: 1101000001 cyc: 1184888840 now IPC :1.17171: AVG IPC :0.92828: L2-Pf-HR :0.72746: L2-HR :0.60721: (Sim:1h25m32s) 
CPU  0 inst: 1102000003 cyc: 1185520502 now IPC :1.58313: AVG IPC :0.92863: L2-Pf-HR :0.72749: L2-HR :0.60721: (Sim:1h25m34s) 
CPU  0 inst: 1103000001 cyc: 1186165768 now IPC :1.54975: AVG IPC :0.92897: L2-Pf-HR :0.72751: L2-HR :0.60718: (Sim:1h25m37s) 
CPU  0 inst: 1104000000 cyc: 1186895242 now IPC :1.37085: AVG IPC :0.92924: L2-Pf-HR :0.72749: L2-HR :0.60716: (Sim:1h25m40s) 
CPU  0 inst: 1105000000 cyc: 1187494732 now IPC :1.66808: AVG IPC :0.92962: L2-Pf-HR :0.72754: L2-HR :0.60718: (Sim:1h25m42s) 
CPU  0 inst: 1106000000 cyc: 1188193134 now IPC :1.43184: AVG IPC :0.92991: L2-Pf-HR :0.72747: L2-HR :0.60711: (Sim:1h25m45s) 
CPU  0 inst: 1107000002 cyc: 1188814601 now IPC :1.60910: AVG IPC :0.93027: L2-Pf-HR :0.72733: L2-HR :0.60699: (Sim:1h25m47s) 
CPU  0 inst: 1108000000 cyc: 1189596725 now IPC :1.27857: AVG IPC :0.93050: L2-Pf-HR :0.72723: L2-HR :0.60690: (Sim:1h25m50s) 
CPU  0 inst: 1109000003 cyc: 1190217757 now IPC :1.61023: AVG IPC :0.93085: L2-Pf-HR :0.72722: L2-HR :0.60688: (Sim:1h25m53s) 
CPU  0 inst: 1110000003 cyc: 1190954618 now IPC :1.35711: AVG IPC :0.93111: L2-Pf-HR :0.72721: L2-HR :0.60684: (Sim:1h25m55s) 
CPU  0 inst: 1111000000 cyc: 1191554933 now IPC :1.66579: AVG IPC :0.93148: L2-Pf-HR :0.72723: L2-HR :0.60685: (Sim:1h25m58s) 
CPU  0 inst: 1112000000 cyc: 1192243997 now IPC :1.45124: AVG IPC :0.93179: L2-Pf-HR :0.72725: L2-HR :0.60683: (Sim:1h26m0s) 
CPU  0 inst: 1113000003 cyc: 1192850288 now IPC :1.64938: AVG IPC :0.93215: L2-Pf-HR :0.72710: L2-HR :0.60673: (Sim:1h26m3s) 
CPU  0 inst: 1114000000 cyc: 1193571084 now IPC :1.38735: AVG IPC :0.93243: L2-Pf-HR :0.72750: L2-HR :0.60696: (Sim:1h26m6s) 
CPU  0 inst: 1115000003 cyc: 1194250316 now IPC :1.47226: AVG IPC :0.93273: L2-Pf-HR :0.72846: L2-HR :0.60761: (Sim:1h26m8s) 
CPU  0 inst: 1116000000 cyc: 1195121132 now IPC :1.14834: AVG IPC :0.93289: L2-Pf-HR :0.72907: L2-HR :0.60805: (Sim:1h26m11s) 
CPU  0 inst: 1117000002 cyc: 1195771597 now IPC :1.53736: AVG IPC :0.93322: L2-Pf-HR :0.72913: L2-HR :0.60806: (Sim:1h26m14s) 
CPU  0 inst: 1118000002 cyc: 1196492675 now IPC :1.38681: AVG IPC :0.93349: L2-Pf-HR :0.72914: L2-HR :0.60803: (Sim:1h26m16s) 
CPU  0 inst: 1119000001 cyc: 1197194427 now IPC :1.42500: AVG IPC :0.93378: L2-Pf-HR :0.72913: L2-HR :0.60802: (Sim:1h26m19s) 
CPU  0 inst: 1120000000 cyc: 1197816723 now IPC :1.60695: AVG IPC :0.93413: L2-Pf-HR :0.72917: L2-HR :0.60803: (Sim:1h26m21s) 
CPU  0 inst: 1121000003 cyc: 1198547581 now IPC :1.36826: AVG IPC :0.93440: L2-Pf-HR :0.72909: L2-HR :0.60795: (Sim:1h26m24s) 
CPU  0 inst: 1122000000 cyc: 1199415818 now IPC :1.15176: AVG IPC :0.93455: L2-Pf-HR :0.72887: L2-HR :0.60777: (Sim:1h26m27s) 
CPU  0 inst: 1123000000 cyc: 1200052345 now IPC :1.57103: AVG IPC :0.93489: L2-Pf-HR :0.72885: L2-HR :0.60774: (Sim:1h26m29s) 
CPU  0 inst: 1124000000 cyc: 1200682143 now IPC :1.58781: AVG IPC :0.93523: L2-Pf-HR :0.72888: L2-HR :0.60775: (Sim:1h26m32s) 
CPU  0 inst: 1125000003 cyc: 1201441166 now IPC :1.31749: AVG IPC :0.93548: L2-Pf-HR :0.72883: L2-HR :0.60768: (Sim:1h26m34s) 
CPU  0 inst: 1126000000 cyc: 1202044837 now IPC :1.65653: AVG IPC :0.93584: L2-Pf-HR :0.72892: L2-HR :0.60773: (Sim:1h26m37s) 
CPU  0 inst: 1127000003 cyc: 1202747880 now IPC :1.42239: AVG IPC :0.93612: L2-Pf-HR :0.72887: L2-HR :0.60767: (Sim:1h26m40s) 
CPU  0 inst: 1128000000 cyc: 1203358719 now IPC :1.63709: AVG IPC :0.93648: L2-Pf-HR :0.72873: L2-HR :0.60756: (Sim:1h26m42s) 
CPU  0 inst: 1129000002 cyc: 1204228146 now IPC :1.15019: AVG IPC :0.93663: L2-Pf-HR :0.72858: L2-HR :0.60741: (Sim:1h26m45s) 
CPU  0 inst: 1130000003 cyc: 1204860788 now IPC :1.58067: AVG IPC :0.93697: L2-Pf-HR :0.72866: L2-HR :0.60744: (Sim:1h26m47s) 
CPU  0 inst: 1131000000 cyc: 1205623766 now IPC :1.31065: AVG IPC :0.93721: L2-Pf-HR :0.72857: L2-HR :0.60736: (Sim:1h26m50s) 
CPU  0 inst: 1132000000 cyc: 1206228517 now IPC :1.65357: AVG IPC :0.93757: L2-Pf-HR :0.72866: L2-HR :0.60740: (Sim:1h26m53s) 
CPU  0 inst: 1133000001 cyc: 1206892634 now IPC :1.50576: AVG IPC :0.93788: L2-Pf-HR :0.72870: L2-HR :0.60741: (Sim:1h26m55s) 
CPU  0 inst: 1134000002 cyc: 1207532424 now IPC :1.56301: AVG IPC :0.93821: L2-Pf-HR :0.72853: L2-HR :0.60728: (Sim:1h26m58s) 
CPU  0 inst: 1135000003 cyc: 1208387920 now IPC :1.16891: AVG IPC :0.93838: L2-Pf-HR :0.72833: L2-HR :0.60711: (Sim:1h27m1s) 
CPU  0 inst: 1136000000 cyc: 1209024336 now IPC :1.57129: AVG IPC :0.93871: L2-Pf-HR :0.72837: L2-HR :0.60711: (Sim:1h27m3s) 
CPU  0 inst: 1137000000 cyc: 1209726425 now IPC :1.42432: AVG IPC :0.93899: L2-Pf-HR :0.72837: L2-HR :0.60707: (Sim:1h27m6s) 
CPU  0 inst: 1138000002 cyc: 1210388822 now IPC :1.50967: AVG IPC :0.93930: L2-Pf-HR :0.72835: L2-HR :0.60707: (Sim:1h27m8s) 
CPU  0 inst: 1139000002 cyc: 1210991957 now IPC :1.65800: AVG IPC :0.93966: L2-Pf-HR :0.72839: L2-HR :0.60709: (Sim:1h27m11s) 
CPU  0 inst: 1140000000 cyc: 1211686705 now IPC :1.43937: AVG IPC :0.93995: L2-Pf-HR :0.72831: L2-HR :0.60701: (Sim:1h27m13s) 
CPU  0 inst: 1141000002 cyc: 1212444991 now IPC :1.31877: AVG IPC :0.94019: L2-Pf-HR :0.72809: L2-HR :0.60683: (Sim:1h27m16s) 
CPU  0 inst: 1142000003 cyc: 1213091615 now IPC :1.54650: AVG IPC :0.94051: L2-Pf-HR :0.72807: L2-HR :0.60680: (Sim:1h27m19s) 
CPU  0 inst: 1143000000 cyc: 1213718844 now IPC :1.59431: AVG IPC :0.94085: L2-Pf-HR :0.72811: L2-HR :0.60680: (Sim:1h27m21s) 
CPU  0 inst: 1144000000 cyc: 1214452167 now IPC :1.36366: AVG IPC :0.94110: L2-Pf-HR :0.72806: L2-HR :0.60675: (Sim:1h27m24s) 
CPU  0 inst: 1145000002 cyc: 1215047057 now IPC :1.68099: AVG IPC :0.94147: L2-Pf-HR :0.72814: L2-HR :0.60680: (Sim:1h27m26s) 
CPU  0 inst: 1146000002 cyc: 1215738356 now IPC :1.44655: AVG IPC :0.94175: L2-Pf-HR :0.72810: L2-HR :0.60673: (Sim:1h27m29s) 
CPU  0 inst: 1147000001 cyc: 1216346068 now IPC :1.64551: AVG IPC :0.94210: L2-Pf-HR :0.72796: L2-HR :0.60663: (Sim:1h27m31s) 
CPU  0 inst: 1148000000 cyc: 1217076380 now IPC :1.36928: AVG IPC :0.94236: L2-Pf-HR :0.72847: L2-HR :0.60695: (Sim:1h27m34s) 
CPU  0 inst: 1149000002 cyc: 1217781891 now IPC :1.41742: AVG IPC :0.94264: L2-Pf-HR :0.72947: L2-HR :0.60764: (Sim:1h27m37s) 
CPU  0 inst: 1150000002 cyc: 1218630144 now IPC :1.17889: AVG IPC :0.94280: L2-Pf-HR :0.72989: L2-HR :0.60793: (Sim:1h27m39s) 
CPU  0 inst: 1151000001 cyc: 1219259299 now IPC :1.58943: AVG IPC :0.94314: L2-Pf-HR :0.72989: L2-HR :0.60791: (Sim:1h27m42s) 
CPU  0 inst: 1152000000 cyc: 1220056196 now IPC :1.25487: AVG IPC :0.94334: L2-Pf-HR :0.72988: L2-HR :0.60788: (Sim:1h27m45s) 
CPU  0 inst: 1153000001 cyc: 1220683734 now IPC :1.59353: AVG IPC :0.94367: L2-Pf-HR :0.72989: L2-HR :0.60788: (Sim:1h27m47s) 
CPU  0 inst: 1154000000 cyc: 1221311014 now IPC :1.59418: AVG IPC :0.94401: L2-Pf-HR :0.72999: L2-HR :0.60793: (Sim:1h27m50s) 
CPU  0 inst: 1155000003 cyc: 1222035095 now IPC :1.38107: AVG IPC :0.94427: L2-Pf-HR :0.72986: L2-HR :0.60782: (Sim:1h27m52s) 
CPU  0 inst: 1156000000 cyc: 1222898632 now IPC :1.15802: AVG IPC :0.94442: L2-Pf-HR :0.72965: L2-HR :0.60764: (Sim:1h27m55s) 
CPU  0 inst: 1157000002 cyc: 1223537094 now IPC :1.56627: AVG IPC :0.94474: L2-Pf-HR :0.72966: L2-HR :0.60764: (Sim:1h27m58s) 
CPU  0 inst: 1158000001 cyc: 1224180961 now IPC :1.55311: AVG IPC :0.94506: L2-Pf-HR :0.72969: L2-HR :0.60762: (Sim:1h28m0s) 
CPU  0 inst: 1159000001 cyc: 1224909416 now IPC :1.37277: AVG IPC :0.94532: L2-Pf-HR :0.72967: L2-HR :0.60760: (Sim:1h28m3s) 
CPU  0 inst: 1160000000 cyc: 1225515594 now IPC :1.64968: AVG IPC :0.94567: L2-Pf-HR :0.72971: L2-HR :0.60762: (Sim:1h28m6s) 
CPU  0 inst: 1161000000 cyc: 1226216929 now IPC :1.42585: AVG IPC :0.94594: L2-Pf-HR :0.72966: L2-HR :0.60755: (Sim:1h28m8s) 
CPU  0 inst: 1162000000 cyc: 1226840265 now IPC :1.60427: AVG IPC :0.94628: L2-Pf-HR :0.72952: L2-HR :0.60744: (Sim:1h28m11s) 
CPU  0 inst: 1163000000 cyc: 1227701813 now IPC :1.16070: AVG IPC :0.94643: L2-Pf-HR :0.72943: L2-HR :0.60735: (Sim:1h28m14s) 
CPU  0 inst: 1164000000 cyc: 1228332980 now IPC :1.58437: AVG IPC :0.94675: L2-Pf-HR :0.72943: L2-HR :0.60733: (Sim:1h28m16s) 
CPU  0 inst: 1165000001 cyc: 1229092382 now IPC :1.31683: AVG IPC :0.94698: L2-Pf-HR :0.72942: L2-HR :0.60730: (Sim:1h28m19s) 
CPU  0 inst: 1166000001 cyc: 1229695571 now IPC :1.65786: AVG IPC :0.94733: L2-Pf-HR :0.72943: L2-HR :0.60730: (Sim:1h28m21s) 
CPU  0 inst: 1167000000 cyc: 1230391205 now IPC :1.43754: AVG IPC :0.94761: L2-Pf-HR :0.72945: L2-HR :0.60728: (Sim:1h28m24s) 
CPU  0 inst: 1168000000 cyc: 1230998990 now IPC :1.64532: AVG IPC :0.94795: L2-Pf-HR :0.72932: L2-HR :0.60718: (Sim:1h28m26s) 
CPU  0 inst: 1169000000 cyc: 1231867131 now IPC :1.15189: AVG IPC :0.94810: L2-Pf-HR :0.72915: L2-HR :0.60704: (Sim:1h28m29s) 
CPU  0 inst: 1170000000 cyc: 1232494250 now IPC :1.59459: AVG IPC :0.94843: L2-Pf-HR :0.72915: L2-HR :0.60702: (Sim:1h28m32s) 
CPU  0 inst: 1171000000 cyc: 1233252669 now IPC :1.31853: AVG IPC :0.94866: L2-Pf-HR :0.72915: L2-HR :0.60698: (Sim:1h28m35s) 
CPU  0 inst: 1172000000 cyc: 1233854143 now IPC :1.66258: AVG IPC :0.94900: L2-Pf-HR :0.72915: L2-HR :0.60698: (Sim:1h28m37s) 
CPU  0 inst: 1173000001 cyc: 1234464177 now IPC :1.63925: AVG IPC :0.94935: L2-Pf-HR :0.72924: L2-HR :0.60703: (Sim:1h28m40s) 
CPU  0 inst: 1174000003 cyc: 1235148099 now IPC :1.46216: AVG IPC :0.94963: L2-Pf-HR :0.72910: L2-HR :0.60691: (Sim:1h28m42s) 
CPU  0 inst: 1175000000 cyc: 1235926224 now IPC :1.28514: AVG IPC :0.94984: L2-Pf-HR :0.72890: L2-HR :0.60674: (Sim:1h28m45s) 
CPU  0 inst: 1176000000 cyc: 1236550946 now IPC :1.60071: AVG IPC :0.95017: L2-Pf-HR :0.72891: L2-HR :0.60673: (Sim:1h28m47s) 
CPU  0 inst: 1177000000 cyc: 1237190279 now IPC :1.56413: AVG IPC :0.95049: L2-Pf-HR :0.72894: L2-HR :0.60672: (Sim:1h28m50s) 
CPU  0 inst: 1178000002 cyc: 1237902720 now IPC :1.40363: AVG IPC :0.95075: L2-Pf-HR :0.72892: L2-HR :0.60669: (Sim:1h28m52s) 
CPU  0 inst: 1179000001 cyc: 1238505177 now IPC :1.65987: AVG IPC :0.95109: L2-Pf-HR :0.72896: L2-HR :0.60672: (Sim:1h28m55s) 
CPU  0 inst: 1180000000 cyc: 1239196842 now IPC :1.44579: AVG IPC :0.95137: L2-Pf-HR :0.72890: L2-HR :0.60665: (Sim:1h28m58s) 
Finished CPU 0 instr: 1178000000 cyc: 1238214626 AVG IPC: 0.95137 (Sim time: 1h28m58s)

ChampSim completed all CPUs

[ROI Statistics]
Core_0_instructions 1178000000
Core_0_cycles 1238214626
Core_0_IPC 0.95137

Core_0_branch_prediction_accuracy 98.59145
Core_0_branch_MPKI 0.33782
Core_0_average_ROB_occupancy_at_mispredict 250.57922

Core_0_L1D_total_access 291322259
Core_0_L1D_total_hit 268093387 L1D_total_Hit Ratio: 0.92026
Core_0_L1D_total_miss 23228872
Core_0_L1D_loads 268510795
Core_0_L1D_load_hit 246594580 L1D_load_Hit Ratio: 0.91838
Core_0_L1D_load_miss 21916215
Core_0_L1D_RFOs 22811464
Core_0_L1D_RFO_hit 21498807 L1D_RFO_Hit Ratio: 0.94246
Core_0_L1D_RFO_miss 1312657
Core_0_L1D_prefetches 0
Core_0_L1D_prefetch_hit 0 L1D_prefetch_Hit Ratio: -nan
Core_0_L1D_prefetch_miss 0
Core_0_L1D_writebacks 0
Core_0_L1D_writeback_hit 0 L1D_writeback_Hit Ratio: -nan
Core_0_L1D_writeback_miss 0
Core_0_L1D_prefetch_requested 0
Core_0_L1D_prefetch_issued 0
Core_0_L1D_prefetch_useful 0 L1D_Useful Ratio: -nan
Core_0_L1D_prefetch_useless 0
Core_0_L1D_prefetch_late 0
Core_0_L1D_average_miss_latency 70.17200

Core_0_L1I_total_access 267509329
Core_0_L1I_total_hit 267504452 L1I_total_Hit Ratio: 0.99998
Core_0_L1I_total_miss 4877
Core_0_L1I_loads 267509329
Core_0_L1I_load_hit 267504452 L1I_load_Hit Ratio: 0.99998
Core_0_L1I_load_miss 4877
Core_0_L1I_RFOs 0
Core_0_L1I_RFO_hit 0 L1I_RFO_Hit Ratio: -nan
Core_0_L1I_RFO_miss 0
Core_0_L1I_prefetches 0
Core_0_L1I_prefetch_hit 0 L1I_prefetch_Hit Ratio: -nan
Core_0_L1I_prefetch_miss 0
Core_0_L1I_writebacks 0
Core_0_L1I_writeback_hit 0 L1I_writeback_Hit Ratio: -nan
Core_0_L1I_writeback_miss 0
Core_0_L1I_prefetch_requested 0
Core_0_L1I_prefetch_issued 0
Core_0_L1I_prefetch_useful 0 L1I_Useful Ratio: -nan
Core_0_L1I_prefetch_useless 0
Core_0_L1I_prefetch_late 0
Core_0_L1I_average_miss_latency 320.75579

Core_0_L2C_total_access 50786979
Core_0_L2C_total_hit 30809881 L2C_total_Hit Ratio: 0.60665
Core_0_L2C_total_miss 19977098
Core_0_L2C_loads 21921066
Core_0_L2C_load_hit 9018702 L2C_load_Hit Ratio: 0.41142
Core_0_L2C_load_miss 12902364
Core_0_L2C_RFOs 1312657
Core_0_L2C_RFO_hit 196444 L2C_RFO_Hit Ratio: 0.14965
Core_0_L2C_RFO_miss 1116213
Core_0_L2C_prefetches 21548974
Core_0_L2C_prefetch_hit 15706997 L2C_prefetch_Hit Ratio: 0.72890
Core_0_L2C_prefetch_miss 5841977
Core_0_L2C_writebacks 6004282
Core_0_L2C_writeback_hit 5887738 L2C_writeback_Hit Ratio: 0.98059
Core_0_L2C_writeback_miss 116544
Core_0_L2C_prefetch_requested 166007825
Core_0_L2C_prefetch_issued 164890818
Core_0_L2C_prefetch_useful 5658496 L2C_Useful Ratio: 0.03432
Core_0_L2C_prefetch_useless 200504
Core_0_L2C_prefetch_late 3846489
Core_0_L2C_average_miss_latency 78.48876

Core_0_LLC_total_access 116641674
Core_0_LLC_total_hit 109530703 LLC_total_Hit Ratio: 0.93904
Core_0_LLC_total_miss 7110971
Core_0_LLC_loads 9055888
Core_0_LLC_load_hit 7690154 LLC_load_Hit Ratio: 0.84919
Core_0_LLC_load_miss 1365734
Core_0_LLC_RFOs 1116207
Core_0_LLC_RFO_hit 63915 LLC_RFO_Hit Ratio: 0.05726
Core_0_LLC_RFO_miss 1052292
Core_0_LLC_prefetches 100538921
Core_0_LLC_prefetch_hit 95850357 LLC_prefetch_Hit Ratio: 0.95337
Core_0_LLC_prefetch_miss 4688564
Core_0_LLC_writebacks 5930658
Core_0_LLC_writeback_hit 5926277 LLC_writeback_Hit Ratio: 0.99926
Core_0_LLC_writeback_miss 4381
Core_0_LLC_prefetch_requested 0
Core_0_LLC_prefetch_issued 0
Core_0_LLC_prefetch_useful 2414659 LLC_Useful Ratio: inf
Core_0_LLC_prefetch_useless 2277661
Core_0_LLC_prefetch_late 460037
Core_0_LLC_average_miss_latency 343.40012

Core_0_major_page_fault 0
Core_0_minor_page_fault 42073

 All Calls: 21964905
 Critical Calls: 21964905
------------------
Depth Distribution
------------------
depth 0: 0
depth 1: 20408013
depth 2: 19746040
depth 3: 18709205
depth 4: 17847309
depth 5: 16215533
depth 6: 14521439
depth 7: 12611566
depth 8: 11430026
depth 9: 9416054
depth 10: 8458969
depth 11: 6725237
depth 12: 4837180
depth 13: 2724010
depth 14: 628977
depth 15: 609076
depth 16: 2184
depth 17: 0
depth 18: 0
depth 19: 0
depth 20: 0
depth 21: 0
depth 22: 0
depth 23: 0
depth 24: 0
depth 25: 0
depth 26: 0
depth 27: 0
depth 28: 0
depth 29: 0
Total: 164890818
-----------------------------
-----------------------------
	Captured at Filter
-----------------------------
depth 0: 0
depth 1: 1256437
depth 2: 1230284
depth 3: 1252223
depth 4: 1172777
depth 5: 1088003
depth 6: 966468
depth 7: 946784
depth 8: 876011
depth 9: 822410
depth 10: 699915
depth 11: 524017
depth 12: 301309
depth 13: 170411
depth 14: 27714
depth 15: 15906
depth 16: 103
depth 17: 0
depth 18: 0
depth 19: 0
depth 20: 0
depth 21: 0
depth 22: 0
depth 23: 0
depth 24: 0
depth 25: 0
depth 26: 0
depth 27: 0
depth 28: 0
depth 29: 0
-----------------------------
-----------------------------
		Lost at Page
-----------------------------
depth 0: 0
depth 1: 496584
depth 2: 861641
depth 3: 1097961
depth 4: 1270792
depth 5: 1468260
depth 6: 1637368
depth 7: 1727154
depth 8: 1825666
depth 9: 1731951
depth 10: 1745895
depth 11: 1549733
depth 12: 1231437
depth 13: 772984
depth 14: 186359
depth 15: 199046
depth 16: 289
depth 17: 0
depth 18: 0
depth 19: 0
depth 20: 0
depth 21: 0
depth 22: 0
depth 23: 0
depth 24: 0
depth 25: 0
depth 26: 0
depth 27: 0
depth 28: 0
depth 29: 0
-----------------------------
-----------------------------
	Lost due to PQ Size
-----------------------------
1117007
-----------------------------
ST read accesses: 20946835
ST write accesses: 974231
PT read accesses: 1081612235
PT write accesses: 30384589
FILTER read accesses: 218993273
FILTER write accesses: 47317488
GHR read accesses: 111411365
GHR write accesses: 17784942
GHR counter read accesses: 907852148
GHR counter write accesses: 49500702
ST tag read accesses: 8929161624
ST tag write accesses: 309211951
Channel_0_RQ_row_buffer_hit 3785476
Channel_0_RQ_row_buffer_miss 3319914
Channel_0_WQ_row_buffer_hit 1026269
Channel_0_WQ_row_buffer_miss 2704759
Channel_0_WQ_full 0
Channel_0_dbus_congested 5583179

avg_congested_cycle 11

EzSearch AVG IPC :0.95137: L2-Pf-HR :0.72890 : L2-HR :0.60665 Uful:0.03432
     > Finished combination: TraceType=770-tot Sim:1178000000 Prefetcher=L2spp_berti_src L1=no
