TRACE: [2366000000][OPT-6_7B]_[h32][s1024][d128] Warmup: 2000000 NumTraces: 2366000000
L1:isb_ideal:L2:isb_ideal
*************************************************
   ChampSim Multicore Out-of-Order Simulator
   Last compiled: Oct 26 2024 13:04:36
*************************************************

trace_0 770-tot_memTraces_v3/memTraces[2366000000][OPT-6_7B]_[h32][s1024][d128].champsim.xz
L1D: Ideal ISB Prefetching
Ideal ISB Prefetching
MAIN.cc ln 751 stats print skipped
CPU  0 inst:    1000002 cyc:     503957 now IPC :1.98430: AVG IPC :1.98430: L2-Pf-HR :0.86004: L2-HR :0.76968: (Sim:0h0m3s) 
CPU  0 inst:    2000000 cyc:     982759 now IPC :2.08854: AVG IPC :2.03509: L2-Pf-HR :0.86082: L2-HR :0.80857: (Sim:0h0m5s) 

Warmup complete CPU  0 instructions:    2000004 cycles:     982761 (Simulation time: 0 hr 0 min 5 sec) 

CPU  0 inst:    3000002 cyc:    1683640 now IPC :1.42678: AVG IPC :1.42678: L2-Pf-HR :0.86096: L2-HR :0.84192: (Sim:0h0m8s) 
CPU  0 inst:    4000000 cyc:    2378617 now IPC :1.43889: AVG IPC :1.43281: L2-Pf-HR :0.86160: L2-HR :0.84355: (Sim:0h0m11s) 
CPU  0 inst:    5000003 cyc:    3083035 now IPC :1.41962: AVG IPC :1.42838: L2-Pf-HR :0.86170: L2-HR :0.84341: (Sim:0h0m14s) 
CPU  0 inst:    6000001 cyc:    3784397 now IPC :1.42579: AVG IPC :1.42774: L2-Pf-HR :0.86182: L2-HR :0.84406: (Sim:0h0m16s) 
CPU  0 inst:    7000001 cyc:    4491462 now IPC :1.41430: AVG IPC :1.42503: L2-Pf-HR :0.86190: L2-HR :0.84420: (Sim:0h0m19s) 
CPU  0 inst:    8000000 cyc:    5205940 now IPC :1.39962: AVG IPC :1.42073: L2-Pf-HR :0.86209: L2-HR :0.84397: (Sim:0h0m22s) 
CPU  0 inst:    9000000 cyc:    5915341 now IPC :1.40964: AVG IPC :1.41913: L2-Pf-HR :0.86204: L2-HR :0.84421: (Sim:0h0m25s) 
CPU  0 inst:   10000002 cyc:    6635669 now IPC :1.38826: AVG IPC :1.41520: L2-Pf-HR :0.86217: L2-HR :0.84451: (Sim:0h0m28s) 
CPU  0 inst:   11000001 cyc:    7356521 now IPC :1.38725: AVG IPC :1.41204: L2-Pf-HR :0.86240: L2-HR :0.84483: (Sim:0h0m31s) 
CPU  0 inst:   12000000 cyc:    8090283 now IPC :1.36284: AVG IPC :1.40696: L2-Pf-HR :0.86251: L2-HR :0.84535: (Sim:0h0m33s) 
CPU  0 inst:   13000003 cyc:    9018327 now IPC :1.07754: AVG IPC :1.36891: L2-Pf-HR :0.86047: L2-HR :0.84320: (Sim:0h0m37s) 
CPU  0 inst:   14000003 cyc:    9710437 now IPC :1.44486: AVG IPC :1.37494: L2-Pf-HR :0.86019: L2-HR :0.84397: (Sim:0h0m39s) 
CPU  0 inst:   15000001 cyc:   10399012 now IPC :1.45227: AVG IPC :1.38059: L2-Pf-HR :0.85990: L2-HR :0.84458: (Sim:0h0m42s) 
CPU  0 inst:   16000000 cyc:   11085960 now IPC :1.45571: AVG IPC :1.38570: L2-Pf-HR :0.85971: L2-HR :0.84516: (Sim:0h0m45s) 
CPU  0 inst:   17000002 cyc:   11777340 now IPC :1.44639: AVG IPC :1.38959: L2-Pf-HR :0.85959: L2-HR :0.84573: (Sim:0h0m48s) 
CPU  0 inst:   18000001 cyc:   12467842 now IPC :1.44822: AVG IPC :1.39311: L2-Pf-HR :0.85952: L2-HR :0.84630: (Sim:0h0m51s) 
CPU  0 inst:   19000003 cyc:   13156622 now IPC :1.45185: AVG IPC :1.39643: L2-Pf-HR :0.85947: L2-HR :0.84681: (Sim:0h0m54s) 
CPU  0 inst:   20000000 cyc:   13845105 now IPC :1.45246: AVG IPC :1.39943: L2-Pf-HR :0.85937: L2-HR :0.84712: (Sim:0h0m56s) 
CPU  0 inst:   21000003 cyc:   14535115 now IPC :1.44926: AVG IPC :1.40197: L2-Pf-HR :0.85929: L2-HR :0.84747: (Sim:0h0m59s) 
CPU  0 inst:   22000000 cyc:   15219177 now IPC :1.46185: AVG IPC :1.40485: L2-Pf-HR :0.85930: L2-HR :0.84784: (Sim:0h1m2s) 
CPU  0 inst:   23000001 cyc:   15905162 now IPC :1.45776: AVG IPC :1.40728: L2-Pf-HR :0.85932: L2-HR :0.84820: (Sim:0h1m5s) 
CPU  0 inst:   24000000 cyc:   16737471 now IPC :1.20148: AVG IPC :1.39641: L2-Pf-HR :0.85868: L2-HR :0.84754: (Sim:0h1m8s) 
CPU  0 inst:   25000002 cyc:   17431018 now IPC :1.44187: AVG IPC :1.39832: L2-Pf-HR :0.86097: L2-HR :0.84968: (Sim:0h1m11s) 
CPU  0 inst:   26000003 cyc:   18116007 now IPC :1.45988: AVG IPC :1.40079: L2-Pf-HR :0.86225: L2-HR :0.85095: (Sim:0h1m14s) 
CPU  0 inst:   27000001 cyc:   18800162 now IPC :1.46165: AVG IPC :1.40312: L2-Pf-HR :0.86325: L2-HR :0.85202: (Sim:0h1m17s) 
CPU  0 inst:   28000000 cyc:   19484986 now IPC :1.46023: AVG IPC :1.40524: L2-Pf-HR :0.86419: L2-HR :0.85303: (Sim:0h1m19s) 
CPU  0 inst:   29000001 cyc:   20168310 now IPC :1.46344: AVG IPC :1.40731: L2-Pf-HR :0.86508: L2-HR :0.85395: (Sim:0h1m22s) 
CPU  0 inst:   30000000 cyc:   20847066 now IPC :1.47328: AVG IPC :1.40956: L2-Pf-HR :0.86737: L2-HR :0.85599: (Sim:0h1m25s) 
CPU  0 inst:   31000002 cyc:   21522324 now IPC :1.48092: AVG IPC :1.41191: L2-Pf-HR :0.86983: L2-HR :0.85817: (Sim:0h1m28s) 
CPU  0 inst:   32000000 cyc:   22460385 now IPC :1.06603: AVG IPC :1.39680: L2-Pf-HR :0.87068: L2-HR :0.85839: (Sim:0h1m31s) 
CPU  0 inst:   33000003 cyc:   23184132 now IPC :1.38170: AVG IPC :1.39631: L2-Pf-HR :0.87039: L2-HR :0.85804: (Sim:0h1m34s) 
CPU  0 inst:   34000001 cyc:   23905503 now IPC :1.38625: AVG IPC :1.39599: L2-Pf-HR :0.87002: L2-HR :0.85759: (Sim:0h1m37s) 
CPU  0 inst:   35000000 cyc:   24616730 now IPC :1.40602: AVG IPC :1.39630: L2-Pf-HR :0.86965: L2-HR :0.85722: (Sim:0h1m40s) 
CPU  0 inst:   36000000 cyc:   25350418 now IPC :1.36298: AVG IPC :1.39529: L2-Pf-HR :0.86939: L2-HR :0.85687: (Sim:0h1m43s) 
CPU  0 inst:   37000001 cyc:   26067268 now IPC :1.39499: AVG IPC :1.39528: L2-Pf-HR :0.86907: L2-HR :0.85658: (Sim:0h1m46s) 
CPU  0 inst:   38000000 cyc:   26794534 now IPC :1.37501: AVG IPC :1.39471: L2-Pf-HR :0.86884: L2-HR :0.85630: (Sim:0h1m49s) 
CPU  0 inst:   39000002 cyc:   27524469 now IPC :1.36999: AVG IPC :1.39403: L2-Pf-HR :0.86859: L2-HR :0.85600: (Sim:0h1m52s) 
CPU  0 inst:   40000000 cyc:   28245286 now IPC :1.38731: AVG IPC :1.39385: L2-Pf-HR :0.86836: L2-HR :0.85574: (Sim:0h1m55s) 
CPU  0 inst:   41000002 cyc:   28978825 now IPC :1.36326: AVG IPC :1.39305: L2-Pf-HR :0.86815: L2-HR :0.85552: (Sim:0h1m57s) 
CPU  0 inst:   42000003 cyc:   29702210 now IPC :1.38239: AVG IPC :1.39278: L2-Pf-HR :0.86796: L2-HR :0.85538: (Sim:0h2m0s) 
CPU  0 inst:   43000002 cyc:   30441600 now IPC :1.35246: AVG IPC :1.39177: L2-Pf-HR :0.86781: L2-HR :0.85521: (Sim:0h2m3s) 
CPU  0 inst:   44000000 cyc:   31385101 now IPC :1.05988: AVG IPC :1.38147: L2-Pf-HR :0.86712: L2-HR :0.85434: (Sim:0h2m7s) 
CPU  0 inst:   45000000 cyc:   32062733 now IPC :1.47573: AVG IPC :1.38353: L2-Pf-HR :0.86695: L2-HR :0.85433: (Sim:0h2m9s) 
CPU  0 inst:   46000003 cyc:   32737211 now IPC :1.48263: AVG IPC :1.38563: L2-Pf-HR :0.86677: L2-HR :0.85430: (Sim:0h2m12s) 
CPU  0 inst:   47000000 cyc:   33412751 now IPC :1.48029: AVG IPC :1.38760: L2-Pf-HR :0.86654: L2-HR :0.85424: (Sim:0h2m15s) 
CPU  0 inst:   48000000 cyc:   34086975 now IPC :1.48319: AVG IPC :1.38955: L2-Pf-HR :0.86636: L2-HR :0.85419: (Sim:0h2m18s) 
CPU  0 inst:   49000002 cyc:   34761648 now IPC :1.48220: AVG IPC :1.39140: L2-Pf-HR :0.86618: L2-HR :0.85417: (Sim:0h2m21s) 
CPU  0 inst:   50000000 cyc:   35436923 now IPC :1.48088: AVG IPC :1.39316: L2-Pf-HR :0.86602: L2-HR :0.85417: (Sim:0h2m24s) 
CPU  0 inst:   51000003 cyc:   36110863 now IPC :1.48382: AVG IPC :1.39489: L2-Pf-HR :0.86589: L2-HR :0.85414: (Sim:0h2m27s) 
CPU  0 inst:   52000000 cyc:   36784274 now IPC :1.48497: AVG IPC :1.39659: L2-Pf-HR :0.86574: L2-HR :0.85411: (Sim:0h2m29s) 
CPU  0 inst:   53000003 cyc:   37459150 now IPC :1.48176: AVG IPC :1.39816: L2-Pf-HR :0.86561: L2-HR :0.85410: (Sim:0h2m32s) 
CPU  0 inst:   54000000 cyc:   38133020 now IPC :1.48396: AVG IPC :1.39972: L2-Pf-HR :0.86551: L2-HR :0.85410: (Sim:0h2m35s) 
CPU  0 inst:   55000000 cyc:   38803877 now IPC :1.49063: AVG IPC :1.40133: L2-Pf-HR :0.86542: L2-HR :0.85412: (Sim:0h2m38s) 
CPU  0 inst:   56000000 cyc:   39642477 now IPC :1.19246: AVG IPC :1.39680: L2-Pf-HR :0.86554: L2-HR :0.85412: (Sim:0h2m41s) 
CPU  0 inst:   57000002 cyc:   40326876 now IPC :1.46114: AVG IPC :1.39792: L2-Pf-HR :0.86614: L2-HR :0.85469: (Sim:0h2m44s) 
CPU  0 inst:   58000001 cyc:   41004138 now IPC :1.47653: AVG IPC :1.39925: L2-Pf-HR :0.86650: L2-HR :0.85506: (Sim:0h2m47s) 
CPU  0 inst:   59000000 cyc:   41687252 now IPC :1.46388: AVG IPC :1.40034: L2-Pf-HR :0.86689: L2-HR :0.85546: (Sim:0h2m50s) 
CPU  0 inst:   60000000 cyc:   42365420 now IPC :1.47456: AVG IPC :1.40155: L2-Pf-HR :0.86723: L2-HR :0.85581: (Sim:0h2m53s) 
CPU  0 inst:   61000003 cyc:   43041720 now IPC :1.47864: AVG IPC :1.40279: L2-Pf-HR :0.86778: L2-HR :0.85632: (Sim:0h2m56s) 
CPU  0 inst:   62000002 cyc:   43711079 now IPC :1.49397: AVG IPC :1.40422: L2-Pf-HR :0.86896: L2-HR :0.85736: (Sim:0h2m58s) 
CPU  0 inst:   63000002 cyc:   44380111 now IPC :1.49470: AVG IPC :1.40562: L2-Pf-HR :0.87007: L2-HR :0.85833: (Sim:0h3m1s) 
CPU  0 inst:   64000000 cyc:   45340865 now IPC :1.04085: AVG IPC :1.39772: L2-Pf-HR :0.86994: L2-HR :0.85790: (Sim:0h3m5s) 
CPU  0 inst:   65000001 cyc:   46062874 now IPC :1.38503: AVG IPC :1.39751: L2-Pf-HR :0.86979: L2-HR :0.85769: (Sim:0h3m7s) 
CPU  0 inst:   66000002 cyc:   46781988 now IPC :1.39060: AVG IPC :1.39740: L2-Pf-HR :0.86963: L2-HR :0.85750: (Sim:0h3m10s) 
CPU  0 inst:   67000002 cyc:   47508234 now IPC :1.37694: AVG IPC :1.39708: L2-Pf-HR :0.86947: L2-HR :0.85727: (Sim:0h3m13s) 
CPU  0 inst:   68000000 cyc:   48224981 now IPC :1.39519: AVG IPC :1.39706: L2-Pf-HR :0.86932: L2-HR :0.85710: (Sim:0h3m16s) 
CPU  0 inst:   69000002 cyc:   48955196 now IPC :1.36946: AVG IPC :1.39664: L2-Pf-HR :0.86918: L2-HR :0.85691: (Sim:0h3m19s) 
CPU  0 inst:   70000001 cyc:   49682987 now IPC :1.37402: AVG IPC :1.39630: L2-Pf-HR :0.86904: L2-HR :0.85673: (Sim:0h3m22s) 
CPU  0 inst:   71000000 cyc:   50409559 now IPC :1.37632: AVG IPC :1.39600: L2-Pf-HR :0.86890: L2-HR :0.85656: (Sim:0h3m25s) 
CPU  0 inst:   72000000 cyc:   51140260 now IPC :1.36855: AVG IPC :1.39560: L2-Pf-HR :0.86876: L2-HR :0.85638: (Sim:0h3m28s) 
CPU  0 inst:   73000000 cyc:   51867368 now IPC :1.37531: AVG IPC :1.39531: L2-Pf-HR :0.86864: L2-HR :0.85626: (Sim:0h3m31s) 
CPU  0 inst:   74000003 cyc:   52603037 now IPC :1.35931: AVG IPC :1.39480: L2-Pf-HR :0.86854: L2-HR :0.85614: (Sim:0h3m34s) 
CPU  0 inst:   75000000 cyc:   53342859 now IPC :1.35167: AVG IPC :1.39419: L2-Pf-HR :0.86844: L2-HR :0.85602: (Sim:0h3m37s) 
CPU  0 inst:   76000000 cyc:   54277004 now IPC :1.07050: AVG IPC :1.38852: L2-Pf-HR :0.86803: L2-HR :0.85553: (Sim:0h3m40s) 
CPU  0 inst:   77000000 cyc:   54964492 now IPC :1.45457: AVG IPC :1.38936: L2-Pf-HR :0.86792: L2-HR :0.85549: (Sim:0h3m43s) 
CPU  0 inst:   78000002 cyc:   55651792 now IPC :1.45497: AVG IPC :1.39018: L2-Pf-HR :0.86778: L2-HR :0.85544: (Sim:0h3m46s) 
CPU  0 inst:   79000003 cyc:   56340508 now IPC :1.45198: AVG IPC :1.39095: L2-Pf-HR :0.86766: L2-HR :0.85538: (Sim:0h3m49s) 
CPU  0 inst:   80000000 cyc:   57029450 now IPC :1.45150: AVG IPC :1.39170: L2-Pf-HR :0.86754: L2-HR :0.85534: (Sim:0h3m52s) 
CPU  0 inst:   81000001 cyc:   57718472 now IPC :1.45133: AVG IPC :1.39242: L2-Pf-HR :0.86742: L2-HR :0.85530: (Sim:0h3m55s) 
CPU  0 inst:   82000001 cyc:   58405389 now IPC :1.45578: AVG IPC :1.39318: L2-Pf-HR :0.86732: L2-HR :0.85528: (Sim:0h3m58s) 
CPU  0 inst:   83000003 cyc:   59093788 now IPC :1.45265: AVG IPC :1.39388: L2-Pf-HR :0.86722: L2-HR :0.85523: (Sim:0h4m1s) 
CPU  0 inst:   84000000 cyc:   59780151 now IPC :1.45695: AVG IPC :1.39462: L2-Pf-HR :0.86711: L2-HR :0.85519: (Sim:0h4m3s) 
CPU  0 inst:   85000000 cyc:   60468613 now IPC :1.45251: AVG IPC :1.39529: L2-Pf-HR :0.86702: L2-HR :0.85516: (Sim:0h4m6s) 
CPU  0 inst:   86000003 cyc:   61155818 now IPC :1.45517: AVG IPC :1.39597: L2-Pf-HR :0.86694: L2-HR :0.85515: (Sim:0h4m9s) 
CPU  0 inst:   87000001 cyc:   61972311 now IPC :1.22475: AVG IPC :1.39368: L2-Pf-HR :0.86670: L2-HR :0.85487: (Sim:0h4m12s) 
CPU  0 inst:   88000000 cyc:   62685140 now IPC :1.40286: AVG IPC :1.39379: L2-Pf-HR :0.86710: L2-HR :0.85524: (Sim:0h4m15s) 
CPU  0 inst:   89000000 cyc:   63372305 now IPC :1.45525: AVG IPC :1.39446: L2-Pf-HR :0.86740: L2-HR :0.85552: (Sim:0h4m18s) 
CPU  0 inst:   90000001 cyc:   64056028 now IPC :1.46258: AVG IPC :1.39520: L2-Pf-HR :0.86764: L2-HR :0.85575: (Sim:0h4m21s) 
CPU  0 inst:   91000002 cyc:   64738637 now IPC :1.46497: AVG IPC :1.39595: L2-Pf-HR :0.86784: L2-HR :0.85597: (Sim:0h4m24s) 
CPU  0 inst:   92000000 cyc:   65422036 now IPC :1.46327: AVG IPC :1.39666: L2-Pf-HR :0.86806: L2-HR :0.85619: (Sim:0h4m27s) 
CPU  0 inst:   93000002 cyc:   66098076 now IPC :1.47921: AVG IPC :1.39752: L2-Pf-HR :0.86861: L2-HR :0.85668: (Sim:0h4m30s) 
CPU  0 inst:   94000001 cyc:   66771694 now IPC :1.48452: AVG IPC :1.39841: L2-Pf-HR :0.86936: L2-HR :0.85733: (Sim:0h4m33s) 
CPU  0 inst:   95000003 cyc:   67691173 now IPC :1.08757: AVG IPC :1.39413: L2-Pf-HR :0.86975: L2-HR :0.85748: (Sim:0h4m36s) 
CPU  0 inst:   96000000 cyc:   68432832 now IPC :1.34832: AVG IPC :1.39362: L2-Pf-HR :0.86964: L2-HR :0.85733: (Sim:0h4m39s) 
CPU  0 inst:   97000003 cyc:   69146575 now IPC :1.40107: AVG IPC :1.39370: L2-Pf-HR :0.86953: L2-HR :0.85719: (Sim:0h4m42s) 
CPU  0 inst:   98000002 cyc:   69870025 now IPC :1.38226: AVG IPC :1.39358: L2-Pf-HR :0.86940: L2-HR :0.85701: (Sim:0h4m45s) 
CPU  0 inst:   99000000 cyc:   70588109 now IPC :1.39259: AVG IPC :1.39357: L2-Pf-HR :0.86929: L2-HR :0.85687: (Sim:0h4m48s) 
CPU  0 inst:  100000000 cyc:   71318843 now IPC :1.36849: AVG IPC :1.39331: L2-Pf-HR :0.86919: L2-HR :0.85673: (Sim:0h4m51s) 
CPU  0 inst:  101000000 cyc:   72055718 now IPC :1.35708: AVG IPC :1.39293: L2-Pf-HR :0.86908: L2-HR :0.85658: (Sim:0h4m54s) 
CPU  0 inst:  102000001 cyc:   72777693 now IPC :1.38509: AVG IPC :1.39286: L2-Pf-HR :0.86898: L2-HR :0.85646: (Sim:0h4m57s) 
CPU  0 inst:  103000001 cyc:   73509519 now IPC :1.36645: AVG IPC :1.39259: L2-Pf-HR :0.86887: L2-HR :0.85630: (Sim:0h5m0s) 
CPU  0 inst:  104000000 cyc:   74238287 now IPC :1.37218: AVG IPC :1.39239: L2-Pf-HR :0.86877: L2-HR :0.85620: (Sim:0h5m3s) 
CPU  0 inst:  105000002 cyc:   74970773 now IPC :1.36522: AVG IPC :1.39212: L2-Pf-HR :0.86869: L2-HR :0.85610: (Sim:0h5m6s) 
CPU  0 inst:  106000001 cyc:   75707868 now IPC :1.35668: AVG IPC :1.39177: L2-Pf-HR :0.86861: L2-HR :0.85600: (Sim:0h5m9s) 
CPU  0 inst:  107000000 cyc:   76659354 now IPC :1.05099: AVG IPC :1.38748: L2-Pf-HR :0.86833: L2-HR :0.85562: (Sim:0h5m12s) 
CPU  0 inst:  108000000 cyc:   77356885 now IPC :1.43363: AVG IPC :1.38790: L2-Pf-HR :0.86823: L2-HR :0.85557: (Sim:0h5m15s) 
CPU  0 inst:  109000000 cyc:   78045841 now IPC :1.45147: AVG IPC :1.38847: L2-Pf-HR :0.86813: L2-HR :0.85552: (Sim:0h5m18s) 
CPU  0 inst:  110000000 cyc:   78736549 now IPC :1.44779: AVG IPC :1.38900: L2-Pf-HR :0.86802: L2-HR :0.85546: (Sim:0h5m21s) 
CPU  0 inst:  111000001 cyc:   79425401 now IPC :1.45169: AVG IPC :1.38955: L2-Pf-HR :0.86793: L2-HR :0.85541: (Sim:0h5m24s) 
CPU  0 inst:  112000000 cyc:   80115981 now IPC :1.44806: AVG IPC :1.39006: L2-Pf-HR :0.86783: L2-HR :0.85537: (Sim:0h5m26s) 
CPU  0 inst:  113000003 cyc:   80803402 now IPC :1.45472: AVG IPC :1.39062: L2-Pf-HR :0.86774: L2-HR :0.85534: (Sim:0h5m29s) 
CPU  0 inst:  114000001 cyc:   81489676 now IPC :1.45714: AVG IPC :1.39118: L2-Pf-HR :0.86766: L2-HR :0.85530: (Sim:0h5m32s) 
CPU  0 inst:  115000000 cyc:   82179029 now IPC :1.45063: AVG IPC :1.39169: L2-Pf-HR :0.86758: L2-HR :0.85525: (Sim:0h5m35s) 
CPU  0 inst:  116000000 cyc:   82866456 now IPC :1.45470: AVG IPC :1.39222: L2-Pf-HR :0.86749: L2-HR :0.85522: (Sim:0h5m38s) 
CPU  0 inst:  117000000 cyc:   83551762 now IPC :1.45920: AVG IPC :1.39277: L2-Pf-HR :0.86742: L2-HR :0.85519: (Sim:0h5m41s) 
CPU  0 inst:  118000000 cyc:   84235816 now IPC :1.46187: AVG IPC :1.39334: L2-Pf-HR :0.86735: L2-HR :0.85516: (Sim:0h5m44s) 
CPU  0 inst:  119000001 cyc:   85083989 now IPC :1.17901: AVG IPC :1.39118: L2-Pf-HR :0.86734: L2-HR :0.85509: (Sim:0h5m47s) 
CPU  0 inst:  120000000 cyc:   85775318 now IPC :1.44649: AVG IPC :1.39163: L2-Pf-HR :0.86761: L2-HR :0.85534: (Sim:0h5m50s) 
CPU  0 inst:  121000003 cyc:   86467411 now IPC :1.44490: AVG IPC :1.39206: L2-Pf-HR :0.86778: L2-HR :0.85550: (Sim:0h5m53s) 
CPU  0 inst:  122000000 cyc:   87159796 now IPC :1.44428: AVG IPC :1.39248: L2-Pf-HR :0.86792: L2-HR :0.85564: (Sim:0h5m56s) 
CPU  0 inst:  123000002 cyc:   87848852 now IPC :1.45126: AVG IPC :1.39295: L2-Pf-HR :0.86808: L2-HR :0.85581: (Sim:0h5m59s) 
CPU  0 inst:  124000000 cyc:   88536163 now IPC :1.45494: AVG IPC :1.39344: L2-Pf-HR :0.86828: L2-HR :0.85599: (Sim:0h6m2s) 
CPU  0 inst:  125000000 cyc:   89218111 now IPC :1.46639: AVG IPC :1.39400: L2-Pf-HR :0.86883: L2-HR :0.85647: (Sim:0h6m5s) 
CPU  0 inst:  126000001 cyc:   89895835 now IPC :1.47553: AVG IPC :1.39462: L2-Pf-HR :0.86938: L2-HR :0.85696: (Sim:0h6m8s) 
CPU  0 inst:  127000001 cyc:   90850820 now IPC :1.04714: AVG IPC :1.39093: L2-Pf-HR :0.86939: L2-HR :0.85680: (Sim:0h6m11s) 
CPU  0 inst:  128000000 cyc:   91557874 now IPC :1.41432: AVG IPC :1.39111: L2-Pf-HR :0.86931: L2-HR :0.85670: (Sim:0h6m14s) 
CPU  0 inst:  129000001 cyc:   92274401 now IPC :1.39562: AVG IPC :1.39115: L2-Pf-HR :0.86922: L2-HR :0.85657: (Sim:0h6m17s) 
CPU  0 inst:  130000000 cyc:   92982294 now IPC :1.41264: AVG IPC :1.39131: L2-Pf-HR :0.86912: L2-HR :0.85645: (Sim:0h6m20s) 
CPU  0 inst:  131000002 cyc:   93706698 now IPC :1.38045: AVG IPC :1.39123: L2-Pf-HR :0.86904: L2-HR :0.85632: (Sim:0h6m23s) 
CPU  0 inst:  132000000 cyc:   94429440 now IPC :1.38362: AVG IPC :1.39117: L2-Pf-HR :0.86895: L2-HR :0.85620: (Sim:0h6m26s) 
CPU  0 inst:  133000003 cyc:   95139779 now IPC :1.40778: AVG IPC :1.39129: L2-Pf-HR :0.86886: L2-HR :0.85611: (Sim:0h6m29s) 
CPU  0 inst:  134000002 cyc:   95865533 now IPC :1.37788: AVG IPC :1.39119: L2-Pf-HR :0.86878: L2-HR :0.85598: (Sim:0h6m32s) 
CPU  0 inst:  135000000 cyc:   96578687 now IPC :1.40222: AVG IPC :1.39127: L2-Pf-HR :0.86869: L2-HR :0.85588: (Sim:0h6m35s) 
CPU  0 inst:  136000000 cyc:   97305489 now IPC :1.37589: AVG IPC :1.39116: L2-Pf-HR :0.86861: L2-HR :0.85578: (Sim:0h6m38s) 
CPU  0 inst:  137000000 cyc:   98039085 now IPC :1.36315: AVG IPC :1.39094: L2-Pf-HR :0.86853: L2-HR :0.85569: (Sim:0h6m41s) 
CPU  0 inst:  138000003 cyc:   98756740 now IPC :1.39343: AVG IPC :1.39096: L2-Pf-HR :0.86846: L2-HR :0.85561: (Sim:0h6m44s) 
CPU  0 inst:  139000001 cyc:   99699657 now IPC :1.06054: AVG IPC :1.38781: L2-Pf-HR :0.86823: L2-HR :0.85531: (Sim:0h6m47s) 
CPU  0 inst:  140000000 cyc:  100381921 now IPC :1.46571: AVG IPC :1.38834: L2-Pf-HR :0.86815: L2-HR :0.85527: (Sim:0h6m50s) 
CPU  0 inst:  141000001 cyc:  101066854 now IPC :1.46000: AVG IPC :1.38883: L2-Pf-HR :0.86807: L2-HR :0.85521: (Sim:0h6m53s) 
CPU  0 inst:  142000000 cyc:  101752479 now IPC :1.45852: AVG IPC :1.38931: L2-Pf-HR :0.86797: L2-HR :0.85515: (Sim:0h6m56s) 
CPU  0 inst:  143000000 cyc:  102436201 now IPC :1.46258: AVG IPC :1.38980: L2-Pf-HR :0.86789: L2-HR :0.85510: (Sim:0h6m59s) 
CPU  0 inst:  144000000 cyc:  103119204 now IPC :1.46412: AVG IPC :1.39030: L2-Pf-HR :0.86781: L2-HR :0.85506: (Sim:0h7m2s) 
CPU  0 inst:  145000002 cyc:  103803307 now IPC :1.46177: AVG IPC :1.39077: L2-Pf-HR :0.86773: L2-HR :0.85502: (Sim:0h7m5s) 
CPU  0 inst:  146000003 cyc:  104485713 now IPC :1.46540: AVG IPC :1.39126: L2-Pf-HR :0.86765: L2-HR :0.85497: (Sim:0h7m8s) 
CPU  0 inst:  147000000 cyc:  105167511 now IPC :1.46671: AVG IPC :1.39176: L2-Pf-HR :0.86758: L2-HR :0.85492: (Sim:0h7m11s) 
CPU  0 inst:  148000000 cyc:  105850908 now IPC :1.46328: AVG IPC :1.39222: L2-Pf-HR :0.86751: L2-HR :0.85489: (Sim:0h7m14s) 
CPU  0 inst:  149000001 cyc:  106530490 now IPC :1.47149: AVG IPC :1.39273: L2-Pf-HR :0.86744: L2-HR :0.85485: (Sim:0h7m17s) 
CPU  0 inst:  150000003 cyc:  107221276 now IPC :1.44763: AVG IPC :1.39309: L2-Pf-HR :0.86737: L2-HR :0.85483: (Sim:0h7m20s) 
CPU  0 inst:  151000002 cyc:  108046871 now IPC :1.21125: AVG IPC :1.39169: L2-Pf-HR :0.86746: L2-HR :0.85484: (Sim:0h7m23s) 
CPU  0 inst:  152000000 cyc:  108728279 now IPC :1.46755: AVG IPC :1.39217: L2-Pf-HR :0.86764: L2-HR :0.85500: (Sim:0h7m26s) 
CPU  0 inst:  153000003 cyc:  109407144 now IPC :1.47305: AVG IPC :1.39268: L2-Pf-HR :0.86775: L2-HR :0.85511: (Sim:0h7m29s) 
CPU  0 inst:  154000003 cyc:  110087543 now IPC :1.46973: AVG IPC :1.39316: L2-Pf-HR :0.86787: L2-HR :0.85523: (Sim:0h7m32s) 
CPU  0 inst:  155000003 cyc:  110764697 now IPC :1.47677: AVG IPC :1.39367: L2-Pf-HR :0.86798: L2-HR :0.85534: (Sim:0h7m35s) 
CPU  0 inst:  156000000 cyc:  111437474 now IPC :1.48637: AVG IPC :1.39424: L2-Pf-HR :0.86827: L2-HR :0.85560: (Sim:0h7m38s) 
CPU  0 inst:  157000000 cyc:  112104155 now IPC :1.49997: AVG IPC :1.39487: L2-Pf-HR :0.86870: L2-HR :0.85597: (Sim:0h7m41s) 
CPU  0 inst:  158000001 cyc:  112997996 now IPC :1.11877: AVG IPC :1.39267: L2-Pf-HR :0.86899: L2-HR :0.85610: (Sim:0h7m44s) 
CPU  0 inst:  159000003 cyc:  113746453 now IPC :1.33608: AVG IPC :1.39229: L2-Pf-HR :0.86891: L2-HR :0.85601: (Sim:0h7m47s) 
CPU  0 inst:  160000000 cyc:  114476343 now IPC :1.37007: AVG IPC :1.39215: L2-Pf-HR :0.86883: L2-HR :0.85589: (Sim:0h7m50s) 
CPU  0 inst:  161000002 cyc:  115194151 now IPC :1.39313: AVG IPC :1.39216: L2-Pf-HR :0.86875: L2-HR :0.85579: (Sim:0h7m53s) 
CPU  0 inst:  162000002 cyc:  115925917 now IPC :1.36656: AVG IPC :1.39199: L2-Pf-HR :0.86867: L2-HR :0.85568: (Sim:0h7m56s) 
CPU  0 inst:  163000000 cyc:  116656084 now IPC :1.36955: AVG IPC :1.39185: L2-Pf-HR :0.86860: L2-HR :0.85557: (Sim:0h7m59s) 
CPU  0 inst:  164000000 cyc:  117382950 now IPC :1.37577: AVG IPC :1.39175: L2-Pf-HR :0.86853: L2-HR :0.85549: (Sim:0h8m2s) 
CPU  0 inst:  165000001 cyc:  118116332 now IPC :1.36355: AVG IPC :1.39157: L2-Pf-HR :0.86846: L2-HR :0.85538: (Sim:0h8m5s) 
CPU  0 inst:  166000000 cyc:  118836570 now IPC :1.38843: AVG IPC :1.39155: L2-Pf-HR :0.86838: L2-HR :0.85528: (Sim:0h8m8s) 
CPU  0 inst:  167000002 cyc:  119569238 now IPC :1.36488: AVG IPC :1.39139: L2-Pf-HR :0.86831: L2-HR :0.85519: (Sim:0h8m12s) 
CPU  0 inst:  168000000 cyc:  120307002 now IPC :1.35544: AVG IPC :1.39117: L2-Pf-HR :0.86825: L2-HR :0.85511: (Sim:0h8m15s) 
CPU  0 inst:  169000002 cyc:  121034935 now IPC :1.37376: AVG IPC :1.39106: L2-Pf-HR :0.86818: L2-HR :0.85504: (Sim:0h8m18s) 
CPU  0 inst:  170000002 cyc:  121970837 now IPC :1.06849: AVG IPC :1.38857: L2-Pf-HR :0.86799: L2-HR :0.85477: (Sim:0h8m21s) 
CPU  0 inst:  171000003 cyc:  122688316 now IPC :1.39377: AVG IPC :1.38860: L2-Pf-HR :0.86792: L2-HR :0.85473: (Sim:0h8m24s) 
CPU  0 inst:  172000000 cyc:  123377658 now IPC :1.45065: AVG IPC :1.38895: L2-Pf-HR :0.86785: L2-HR :0.85468: (Sim:0h8m27s) 
CPU  0 inst:  173000001 cyc:  124070605 now IPC :1.44311: AVG IPC :1.38925: L2-Pf-HR :0.86778: L2-HR :0.85463: (Sim:0h8m30s) 
CPU  0 inst:  174000000 cyc:  124760469 now IPC :1.44956: AVG IPC :1.38959: L2-Pf-HR :0.86770: L2-HR :0.85458: (Sim:0h8m33s) 
CPU  0 inst:  175000002 cyc:  125448351 now IPC :1.45374: AVG IPC :1.38994: L2-Pf-HR :0.86764: L2-HR :0.85454: (Sim:0h8m36s) 
CPU  0 inst:  176000000 cyc:  126135812 now IPC :1.45463: AVG IPC :1.39030: L2-Pf-HR :0.86757: L2-HR :0.85450: (Sim:0h8m39s) 
CPU  0 inst:  177000000 cyc:  126823348 now IPC :1.45447: AVG IPC :1.39065: L2-Pf-HR :0.86751: L2-HR :0.85446: (Sim:0h8m42s) 
CPU  0 inst:  178000000 cyc:  127509254 now IPC :1.45793: AVG IPC :1.39101: L2-Pf-HR :0.86744: L2-HR :0.85442: (Sim:0h8m45s) 
CPU  0 inst:  179000001 cyc:  128196176 now IPC :1.45577: AVG IPC :1.39136: L2-Pf-HR :0.86737: L2-HR :0.85437: (Sim:0h8m48s) 
CPU  0 inst:  180000000 cyc:  128882019 now IPC :1.45806: AVG IPC :1.39172: L2-Pf-HR :0.86731: L2-HR :0.85434: (Sim:0h8m51s) 
CPU  0 inst:  181000001 cyc:  129561618 now IPC :1.47146: AVG IPC :1.39214: L2-Pf-HR :0.86726: L2-HR :0.85431: (Sim:0h8m54s) 
CPU  0 inst:  182000001 cyc:  130402138 now IPC :1.18974: AVG IPC :1.39083: L2-Pf-HR :0.86719: L2-HR :0.85421: (Sim:0h8m58s) 
CPU  0 inst:  183000002 cyc:  131096779 now IPC :1.43959: AVG IPC :1.39109: L2-Pf-HR :0.86739: L2-HR :0.85439: (Sim:0h9m1s) 
CPU  0 inst:  184000000 cyc:  131787942 now IPC :1.44683: AVG IPC :1.39138: L2-Pf-HR :0.86748: L2-HR :0.85448: (Sim:0h9m4s) 
CPU  0 inst:  185000001 cyc:  132476483 now IPC :1.45235: AVG IPC :1.39170: L2-Pf-HR :0.86758: L2-HR :0.85457: (Sim:0h9m7s) 
CPU  0 inst:  186000001 cyc:  133167286 now IPC :1.44759: AVG IPC :1.39199: L2-Pf-HR :0.86767: L2-HR :0.85466: (Sim:0h9m10s) 
CPU  0 inst:  187000003 cyc:  133855616 now IPC :1.45279: AVG IPC :1.39231: L2-Pf-HR :0.86777: L2-HR :0.85475: (Sim:0h9m13s) 
CPU  0 inst:  188000000 cyc:  134536454 now IPC :1.46877: AVG IPC :1.39270: L2-Pf-HR :0.86811: L2-HR :0.85504: (Sim:0h9m16s) 
CPU  0 inst:  189000000 cyc:  135215181 now IPC :1.47335: AVG IPC :1.39311: L2-Pf-HR :0.86846: L2-HR :0.85535: (Sim:0h9m19s) 
CPU  0 inst:  190000001 cyc:  136162851 now IPC :1.05522: AVG IPC :1.39074: L2-Pf-HR :0.86850: L2-HR :0.85528: (Sim:0h9m22s) 
CPU  0 inst:  191000002 cyc:  136896977 now IPC :1.36217: AVG IPC :1.39058: L2-Pf-HR :0.86844: L2-HR :0.85518: (Sim:0h9m25s) 
CPU  0 inst:  192000000 cyc:  137619940 now IPC :1.38319: AVG IPC :1.39054: L2-Pf-HR :0.86837: L2-HR :0.85509: (Sim:0h9m28s) 
CPU  0 inst:  193000001 cyc:  138347321 now IPC :1.37480: AVG IPC :1.39046: L2-Pf-HR :0.86829: L2-HR :0.85498: (Sim:0h9m32s) 
CPU  0 inst:  194000002 cyc:  139081678 now IPC :1.36174: AVG IPC :1.39031: L2-Pf-HR :0.86822: L2-HR :0.85488: (Sim:0h9m35s) 
CPU  0 inst:  195000002 cyc:  139811115 now IPC :1.37092: AVG IPC :1.39021: L2-Pf-HR :0.86815: L2-HR :0.85479: (Sim:0h9m38s) 
CPU  0 inst:  196000000 cyc:  140548055 now IPC :1.35696: AVG IPC :1.39003: L2-Pf-HR :0.86809: L2-HR :0.85470: (Sim:0h9m41s) 
CPU  0 inst:  197000003 cyc:  141274333 now IPC :1.37689: AVG IPC :1.38996: L2-Pf-HR :0.86802: L2-HR :0.85461: (Sim:0h9m44s) 
CPU  0 inst:  198000001 cyc:  142014025 now IPC :1.35191: AVG IPC :1.38976: L2-Pf-HR :0.86795: L2-HR :0.85451: (Sim:0h9m47s) 
CPU  0 inst:  199000003 cyc:  142751394 now IPC :1.35618: AVG IPC :1.38959: L2-Pf-HR :0.86788: L2-HR :0.85443: (Sim:0h9m50s) 
CPU  0 inst:  200000000 cyc:  143480607 now IPC :1.37134: AVG IPC :1.38949: L2-Pf-HR :0.86783: L2-HR :0.85436: (Sim:0h9m53s) 
CPU  0 inst:  201000000 cyc:  144227364 now IPC :1.33912: AVG IPC :1.38923: L2-Pf-HR :0.86777: L2-HR :0.85429: (Sim:0h9m56s) 
CPU  0 inst:  202000003 cyc:  145174335 now IPC :1.05600: AVG IPC :1.38704: L2-Pf-HR :0.86760: L2-HR :0.85407: (Sim:0h10m0s) 
CPU  0 inst:  203000001 cyc:  145869821 now IPC :1.43784: AVG IPC :1.38729: L2-Pf-HR :0.86754: L2-HR :0.85403: (Sim:0h10m3s) 
CPU  0 inst:  204000000 cyc:  146564513 now IPC :1.43949: AVG IPC :1.38754: L2-Pf-HR :0.86748: L2-HR :0.85398: (Sim:0h10m6s) 
CPU  0 inst:  205000002 cyc:  147258176 now IPC :1.44163: AVG IPC :1.38779: L2-Pf-HR :0.86741: L2-HR :0.85393: (Sim:0h10m9s) 
CPU  0 inst:  206000001 cyc:  147950987 now IPC :1.44339: AVG IPC :1.38806: L2-Pf-HR :0.86735: L2-HR :0.85389: (Sim:0h10m12s) 
CPU  0 inst:  207000000 cyc:  148645015 now IPC :1.44086: AVG IPC :1.38830: L2-Pf-HR :0.86729: L2-HR :0.85385: (Sim:0h10m15s) 
CPU  0 inst:  208000000 cyc:  149336559 now IPC :1.44604: AVG IPC :1.38857: L2-Pf-HR :0.86723: L2-HR :0.85382: (Sim:0h10m18s) 
CPU  0 inst:  209000003 cyc:  150030753 now IPC :1.44052: AVG IPC :1.38881: L2-Pf-HR :0.86717: L2-HR :0.85377: (Sim:0h10m21s) 
CPU  0 inst:  210000002 cyc:  150723621 now IPC :1.44327: AVG IPC :1.38907: L2-Pf-HR :0.86711: L2-HR :0.85373: (Sim:0h10m24s) 
CPU  0 inst:  211000001 cyc:  151413604 now IPC :1.44931: AVG IPC :1.38934: L2-Pf-HR :0.86705: L2-HR :0.85369: (Sim:0h10m27s) 
CPU  0 inst:  212000000 cyc:  152100533 now IPC :1.45575: AVG IPC :1.38964: L2-Pf-HR :0.86699: L2-HR :0.85365: (Sim:0h10m30s) 
CPU  0 inst:  213000000 cyc:  152792822 now IPC :1.44448: AVG IPC :1.38989: L2-Pf-HR :0.86693: L2-HR :0.85361: (Sim:0h10m33s) 
CPU  0 inst:  214000002 cyc:  153642391 now IPC :1.17707: AVG IPC :1.38871: L2-Pf-HR :0.86698: L2-HR :0.85361: (Sim:0h10m37s) 
CPU  0 inst:  215000002 cyc:  154340790 now IPC :1.43185: AVG IPC :1.38891: L2-Pf-HR :0.86709: L2-HR :0.85371: (Sim:0h10m40s) 
CPU  0 inst:  216000000 cyc:  155036171 now IPC :1.43806: AVG IPC :1.38913: L2-Pf-HR :0.86717: L2-HR :0.85378: (Sim:0h10m43s) 
CPU  0 inst:  217000000 cyc:  155732944 now IPC :1.43519: AVG IPC :1.38934: L2-Pf-HR :0.86724: L2-HR :0.85385: (Sim:0h10m46s) 
CPU  0 inst:  218000003 cyc:  156423202 now IPC :1.44874: AVG IPC :1.38960: L2-Pf-HR :0.86731: L2-HR :0.85392: (Sim:0h10m49s) 
CPU  0 inst:  219000003 cyc:  157112690 now IPC :1.45035: AVG IPC :1.38987: L2-Pf-HR :0.86747: L2-HR :0.85406: (Sim:0h10m52s) 
CPU  0 inst:  220000000 cyc:  157793058 now IPC :1.46979: AVG IPC :1.39021: L2-Pf-HR :0.86776: L2-HR :0.85431: (Sim:0h10m55s) 
CPU  0 inst:  221000000 cyc:  158480686 now IPC :1.45427: AVG IPC :1.39049: L2-Pf-HR :0.86807: L2-HR :0.85458: (Sim:0h10m58s) 
CPU  0 inst:  222000000 cyc:  159451218 now IPC :1.03036: AVG IPC :1.38829: L2-Pf-HR :0.86794: L2-HR :0.85435: (Sim:0h11m2s) 
CPU  0 inst:  223000003 cyc:  160173969 now IPC :1.38361: AVG IPC :1.38827: L2-Pf-HR :0.86788: L2-HR :0.85427: (Sim:0h11m5s) 
CPU  0 inst:  224000000 cyc:  160910347 now IPC :1.35799: AVG IPC :1.38813: L2-Pf-HR :0.86781: L2-HR :0.85417: (Sim:0h11m8s) 
CPU  0 inst:  225000003 cyc:  161639980 now IPC :1.37056: AVG IPC :1.38805: L2-Pf-HR :0.86775: L2-HR :0.85408: (Sim:0h11m11s) 
CPU  0 inst:  226000002 cyc:  162366670 now IPC :1.37610: AVG IPC :1.38799: L2-Pf-HR :0.86769: L2-HR :0.85401: (Sim:0h11m14s) 
CPU  0 inst:  227000000 cyc:  163105720 now IPC :1.35309: AVG IPC :1.38784: L2-Pf-HR :0.86763: L2-HR :0.85392: (Sim:0h11m17s) 
CPU  0 inst:  228000000 cyc:  163829293 now IPC :1.38203: AVG IPC :1.38781: L2-Pf-HR :0.86757: L2-HR :0.85385: (Sim:0h11m20s) 
CPU  0 inst:  229000000 cyc:  164572929 now IPC :1.34474: AVG IPC :1.38761: L2-Pf-HR :0.86751: L2-HR :0.85376: (Sim:0h11m24s) 
CPU  0 inst:  230000000 cyc:  165312082 now IPC :1.35290: AVG IPC :1.38746: L2-Pf-HR :0.86745: L2-HR :0.85368: (Sim:0h11m27s) 
CPU  0 inst:  231000001 cyc:  166043354 now IPC :1.36748: AVG IPC :1.38737: L2-Pf-HR :0.86739: L2-HR :0.85362: (Sim:0h11m30s) 
CPU  0 inst:  232000000 cyc:  166788992 now IPC :1.34113: AVG IPC :1.38716: L2-Pf-HR :0.86734: L2-HR :0.85355: (Sim:0h11m33s) 
CPU  0 inst:  233000002 cyc:  167591102 now IPC :1.24671: AVG IPC :1.38649: L2-Pf-HR :0.86725: L2-HR :0.85345: (Sim:0h11m37s) 
CPU  0 inst:  234000002 cyc:  168447723 now IPC :1.16738: AVG IPC :1.38536: L2-Pf-HR :0.86714: L2-HR :0.85331: (Sim:0h11m40s) 
CPU  0 inst:  235000000 cyc:  169133148 now IPC :1.45895: AVG IPC :1.38566: L2-Pf-HR :0.86708: L2-HR :0.85327: (Sim:0h11m43s) 
CPU  0 inst:  236000000 cyc:  169814202 now IPC :1.46831: AVG IPC :1.38600: L2-Pf-HR :0.86703: L2-HR :0.85323: (Sim:0h11m46s) 
CPU  0 inst:  237000001 cyc:  170496507 now IPC :1.46562: AVG IPC :1.38632: L2-Pf-HR :0.86697: L2-HR :0.85319: (Sim:0h11m49s) 
CPU  0 inst:  238000001 cyc:  171179020 now IPC :1.46517: AVG IPC :1.38663: L2-Pf-HR :0.86691: L2-HR :0.85315: (Sim:0h11m52s) 
CPU  0 inst:  239000003 cyc:  171863680 now IPC :1.46058: AVG IPC :1.38693: L2-Pf-HR :0.86686: L2-HR :0.85311: (Sim:0h11m56s) 
CPU  0 inst:  240000000 cyc:  172545519 now IPC :1.46662: AVG IPC :1.38725: L2-Pf-HR :0.86681: L2-HR :0.85308: (Sim:0h11m59s) 
CPU  0 inst:  241000003 cyc:  173230600 now IPC :1.45969: AVG IPC :1.38754: L2-Pf-HR :0.86675: L2-HR :0.85303: (Sim:0h12m2s) 
CPU  0 inst:  242000003 cyc:  173913747 now IPC :1.46381: AVG IPC :1.38784: L2-Pf-HR :0.86669: L2-HR :0.85299: (Sim:0h12m5s) 
CPU  0 inst:  243000001 cyc:  174593003 now IPC :1.47220: AVG IPC :1.38817: L2-Pf-HR :0.86664: L2-HR :0.85295: (Sim:0h12m8s) 
CPU  0 inst:  244000000 cyc:  175270955 now IPC :1.47503: AVG IPC :1.38850: L2-Pf-HR :0.86659: L2-HR :0.85292: (Sim:0h12m11s) 
CPU  0 inst:  245000001 cyc:  176118741 now IPC :1.17954: AVG IPC :1.38749: L2-Pf-HR :0.86650: L2-HR :0.85280: (Sim:0h12m15s) 
CPU  0 inst:  246000001 cyc:  176815932 now IPC :1.43433: AVG IPC :1.38768: L2-Pf-HR :0.86665: L2-HR :0.85293: (Sim:0h12m18s) 
CPU  0 inst:  247000000 cyc:  177512496 now IPC :1.43562: AVG IPC :1.38787: L2-Pf-HR :0.86672: L2-HR :0.85299: (Sim:0h12m21s) 
CPU  0 inst:  248000000 cyc:  178210400 now IPC :1.43286: AVG IPC :1.38805: L2-Pf-HR :0.86679: L2-HR :0.85305: (Sim:0h12m24s) 
CPU  0 inst:  249000002 cyc:  178908984 now IPC :1.43147: AVG IPC :1.38822: L2-Pf-HR :0.86684: L2-HR :0.85311: (Sim:0h12m28s) 
CPU  0 inst:  250000002 cyc:  179600906 now IPC :1.44525: AVG IPC :1.38844: L2-Pf-HR :0.86690: L2-HR :0.85316: (Sim:0h12m31s) 
CPU  0 inst:  251000001 cyc:  180285711 now IPC :1.46027: AVG IPC :1.38871: L2-Pf-HR :0.86714: L2-HR :0.85336: (Sim:0h12m34s) 
CPU  0 inst:  252000000 cyc:  180967705 now IPC :1.46629: AVG IPC :1.38901: L2-Pf-HR :0.86739: L2-HR :0.85358: (Sim:0h12m37s) 
CPU  0 inst:  253000001 cyc:  181917982 now IPC :1.05233: AVG IPC :1.38724: L2-Pf-HR :0.86747: L2-HR :0.85356: (Sim:0h12m41s) 
CPU  0 inst:  254000003 cyc:  182637099 now IPC :1.39060: AVG IPC :1.38725: L2-Pf-HR :0.86742: L2-HR :0.85349: (Sim:0h12m44s) 
CPU  0 inst:  255000000 cyc:  183370711 now IPC :1.36311: AVG IPC :1.38715: L2-Pf-HR :0.86736: L2-HR :0.85341: (Sim:0h12m47s) 
CPU  0 inst:  256000000 cyc:  184093094 now IPC :1.38431: AVG IPC :1.38714: L2-Pf-HR :0.86730: L2-HR :0.85333: (Sim:0h12m50s) 
CPU  0 inst:  257000001 cyc:  184827922 now IPC :1.36086: AVG IPC :1.38704: L2-Pf-HR :0.86725: L2-HR :0.85325: (Sim:0h12m53s) 
CPU  0 inst:  258000000 cyc:  185568911 now IPC :1.34955: AVG IPC :1.38689: L2-Pf-HR :0.86719: L2-HR :0.85317: (Sim:0h12m57s) 
CPU  0 inst:  259000002 cyc:  186297530 now IPC :1.37246: AVG IPC :1.38683: L2-Pf-HR :0.86714: L2-HR :0.85310: (Sim:0h13m0s) 
CPU  0 inst:  260000000 cyc:  187037532 now IPC :1.35134: AVG IPC :1.38669: L2-Pf-HR :0.86708: L2-HR :0.85302: (Sim:0h13m4s) 
CPU  0 inst:  261000003 cyc:  187780736 now IPC :1.34553: AVG IPC :1.38652: L2-Pf-HR :0.86703: L2-HR :0.85294: (Sim:0h13m8s) 
CPU  0 inst:  262000002 cyc:  188515364 now IPC :1.36123: AVG IPC :1.38643: L2-Pf-HR :0.86697: L2-HR :0.85287: (Sim:0h13m11s) 
CPU  0 inst:  263000003 cyc:  189262708 now IPC :1.33807: AVG IPC :1.38623: L2-Pf-HR :0.86691: L2-HR :0.85280: (Sim:0h13m15s) 
CPU  0 inst:  264000000 cyc:  189994746 now IPC :1.36605: AVG IPC :1.38616: L2-Pf-HR :0.86686: L2-HR :0.85274: (Sim:0h13m20s) 
CPU  0 inst:  265000000 cyc:  190959066 now IPC :1.03700: AVG IPC :1.38438: L2-Pf-HR :0.86673: L2-HR :0.85256: (Sim:0h13m26s) 
CPU  0 inst:  266000003 cyc:  191657999 now IPC :1.43076: AVG IPC :1.38455: L2-Pf-HR :0.86668: L2-HR :0.85252: (Sim:0h13m31s) 
CPU  0 inst:  267000002 cyc:  192351461 now IPC :1.44204: AVG IPC :1.38476: L2-Pf-HR :0.86663: L2-HR :0.85247: (Sim:0h13m35s) 
CPU  0 inst:  268000000 cyc:  193049015 now IPC :1.43358: AVG IPC :1.38494: L2-Pf-HR :0.86657: L2-HR :0.85243: (Sim:0h13m40s) 
CPU  0 inst:  269000001 cyc:  193746144 now IPC :1.43446: AVG IPC :1.38512: L2-Pf-HR :0.86652: L2-HR :0.85238: (Sim:0h13m45s) 
CPU  0 inst:  270000001 cyc:  194442736 now IPC :1.43556: AVG IPC :1.38530: L2-Pf-HR :0.86647: L2-HR :0.85234: (Sim:0h13m50s) 
CPU  0 inst:  271000003 cyc:  195139711 now IPC :1.43477: AVG IPC :1.38548: L2-Pf-HR :0.86642: L2-HR :0.85231: (Sim:0h13m55s) 
CPU  0 inst:  272000000 cyc:  195837286 now IPC :1.43353: AVG IPC :1.38565: L2-Pf-HR :0.86636: L2-HR :0.85226: (Sim:0h14m0s) 
CPU  0 inst:  273000000 cyc:  196531946 now IPC :1.43955: AVG IPC :1.38584: L2-Pf-HR :0.86631: L2-HR :0.85221: (Sim:0h14m5s) 
CPU  0 inst:  274000003 cyc:  197226461 now IPC :1.43986: AVG IPC :1.38603: L2-Pf-HR :0.86625: L2-HR :0.85217: (Sim:0h14m10s) 
CPU  0 inst:  275000002 cyc:  197916603 now IPC :1.44898: AVG IPC :1.38625: L2-Pf-HR :0.86620: L2-HR :0.85213: (Sim:0h14m15s) 
CPU  0 inst:  276000000 cyc:  198610278 now IPC :1.44159: AVG IPC :1.38645: L2-Pf-HR :0.86615: L2-HR :0.85210: (Sim:0h14m19s) 
CPU  0 inst:  277000000 cyc:  199454524 now IPC :1.18449: AVG IPC :1.38559: L2-Pf-HR :0.86616: L2-HR :0.85206: (Sim:0h14m25s) 
CPU  0 inst:  278000003 cyc:  200147040 now IPC :1.44401: AVG IPC :1.38579: L2-Pf-HR :0.86624: L2-HR :0.85213: (Sim:0h14m30s) 
CPU  0 inst:  279000001 cyc:  200835548 now IPC :1.45241: AVG IPC :1.38602: L2-Pf-HR :0.86630: L2-HR :0.85218: (Sim:0h14m35s) 
CPU  0 inst:  280000000 cyc:  201525236 now IPC :1.44993: AVG IPC :1.38624: L2-Pf-HR :0.86635: L2-HR :0.85223: (Sim:0h14m40s) 
CPU  0 inst:  281000003 cyc:  202213375 now IPC :1.45320: AVG IPC :1.38647: L2-Pf-HR :0.86640: L2-HR :0.85228: (Sim:0h14m45s) 
CPU  0 inst:  282000002 cyc:  202898328 now IPC :1.45995: AVG IPC :1.38672: L2-Pf-HR :0.86650: L2-HR :0.85236: (Sim:0h14m49s) 
CPU  0 inst:  283000000 cyc:  203573014 now IPC :1.48217: AVG IPC :1.38704: L2-Pf-HR :0.86673: L2-HR :0.85256: (Sim:0h14m54s) 
CPU  0 inst:  284000000 cyc:  204246302 now IPC :1.48525: AVG IPC :1.38736: L2-Pf-HR :0.86696: L2-HR :0.85275: (Sim:0h14m59s) 
CPU  0 inst:  285000002 cyc:  205217247 now IPC :1.02993: AVG IPC :1.38566: L2-Pf-HR :0.86689: L2-HR :0.85261: (Sim:0h15m5s) 
CPU  0 inst:  286000001 cyc:  205954116 now IPC :1.35709: AVG IPC :1.38556: L2-Pf-HR :0.86683: L2-HR :0.85252: (Sim:0h15m10s) 
CPU  0 inst:  287000003 cyc:  206676624 now IPC :1.38407: AVG IPC :1.38555: L2-Pf-HR :0.86678: L2-HR :0.85245: (Sim:0h15m15s) 
CPU  0 inst:  288000000 cyc:  207416564 now IPC :1.35146: AVG IPC :1.38543: L2-Pf-HR :0.86672: L2-HR :0.85237: (Sim:0h15m20s) 
CPU  0 inst:  289000003 cyc:  208162439 now IPC :1.34071: AVG IPC :1.38527: L2-Pf-HR :0.86667: L2-HR :0.85229: (Sim:0h15m24s) 
CPU  0 inst:  290000003 cyc:  208890443 now IPC :1.37362: AVG IPC :1.38523: L2-Pf-HR :0.86661: L2-HR :0.85222: (Sim:0h15m28s) 
CPU  0 inst:  291000000 cyc:  209630480 now IPC :1.35128: AVG IPC :1.38511: L2-Pf-HR :0.86656: L2-HR :0.85214: (Sim:0h15m31s) 
CPU  0 inst:  292000000 cyc:  210365413 now IPC :1.36067: AVG IPC :1.38502: L2-Pf-HR :0.86650: L2-HR :0.85207: (Sim:0h15m34s) 
CPU  0 inst:  293000001 cyc:  211108571 now IPC :1.34561: AVG IPC :1.38488: L2-Pf-HR :0.86645: L2-HR :0.85200: (Sim:0h15m38s) 
CPU  0 inst:  294000000 cyc:  211854486 now IPC :1.34063: AVG IPC :1.38473: L2-Pf-HR :0.86640: L2-HR :0.85193: (Sim:0h15m41s) 
CPU  0 inst:  295000002 cyc:  212589335 now IPC :1.36083: AVG IPC :1.38465: L2-Pf-HR :0.86636: L2-HR :0.85187: (Sim:0h15m44s) 
CPU  0 inst:  296000000 cyc:  213340599 now IPC :1.33109: AVG IPC :1.38446: L2-Pf-HR :0.86631: L2-HR :0.85182: (Sim:0h15m48s) 
CPU  0 inst:  297000003 cyc:  214267424 now IPC :1.07896: AVG IPC :1.38313: L2-Pf-HR :0.86620: L2-HR :0.85166: (Sim:0h15m51s) 
CPU  0 inst:  298000002 cyc:  214952185 now IPC :1.46036: AVG IPC :1.38338: L2-Pf-HR :0.86615: L2-HR :0.85163: (Sim:0h15m55s) 
CPU  0 inst:  299000001 cyc:  215638524 now IPC :1.45700: AVG IPC :1.38361: L2-Pf-HR :0.86610: L2-HR :0.85158: (Sim:0h15m58s) 
CPU  0 inst:  300000000 cyc:  216325209 now IPC :1.45627: AVG IPC :1.38384: L2-Pf-HR :0.86604: L2-HR :0.85154: (Sim:0h16m1s) 
CPU  0 inst:  301000002 cyc:  217012909 now IPC :1.45413: AVG IPC :1.38407: L2-Pf-HR :0.86599: L2-HR :0.85150: (Sim:0h16m4s) 
CPU  0 inst:  302000001 cyc:  217700822 now IPC :1.45367: AVG IPC :1.38429: L2-Pf-HR :0.86595: L2-HR :0.85146: (Sim:0h16m8s) 
CPU  0 inst:  303000000 cyc:  218389335 now IPC :1.45240: AVG IPC :1.38450: L2-Pf-HR :0.86589: L2-HR :0.85142: (Sim:0h16m11s) 
CPU  0 inst:  304000000 cyc:  219074740 now IPC :1.45899: AVG IPC :1.38474: L2-Pf-HR :0.86585: L2-HR :0.85138: (Sim:0h16m14s) 
CPU  0 inst:  305000002 cyc:  219760642 now IPC :1.45794: AVG IPC :1.38497: L2-Pf-HR :0.86579: L2-HR :0.85133: (Sim:0h16m17s) 
CPU  0 inst:  306000000 cyc:  220445024 now IPC :1.46117: AVG IPC :1.38520: L2-Pf-HR :0.86575: L2-HR :0.85130: (Sim:0h16m21s) 
CPU  0 inst:  307000001 cyc:  221127367 now IPC :1.46554: AVG IPC :1.38545: L2-Pf-HR :0.86570: L2-HR :0.85126: (Sim:0h16m24s) 
CPU  0 inst:  308000000 cyc:  221957696 now IPC :1.20434: AVG IPC :1.38477: L2-Pf-HR :0.86561: L2-HR :0.85115: (Sim:0h16m28s) 
CPU  0 inst:  309000000 cyc:  222670438 now IPC :1.40303: AVG IPC :1.38483: L2-Pf-HR :0.86570: L2-HR :0.85123: (Sim:0h16m31s) 
CPU  0 inst:  310000003 cyc:  223368511 now IPC :1.43252: AVG IPC :1.38498: L2-Pf-HR :0.86577: L2-HR :0.85129: (Sim:0h16m35s) 
CPU  0 inst:  311000000 cyc:  224064413 now IPC :1.43698: AVG IPC :1.38514: L2-Pf-HR :0.86581: L2-HR :0.85133: (Sim:0h16m38s) 
CPU  0 inst:  312000000 cyc:  224757868 now IPC :1.44205: AVG IPC :1.38532: L2-Pf-HR :0.86586: L2-HR :0.85137: (Sim:0h16m41s) 
CPU  0 inst:  313000001 cyc:  225450382 now IPC :1.44402: AVG IPC :1.38550: L2-Pf-HR :0.86590: L2-HR :0.85141: (Sim:0h16m44s) 
CPU  0 inst:  314000000 cyc:  226134456 now IPC :1.46183: AVG IPC :1.38573: L2-Pf-HR :0.86606: L2-HR :0.85154: (Sim:0h16m48s) 
CPU  0 inst:  315000000 cyc:  226814765 now IPC :1.46992: AVG IPC :1.38599: L2-Pf-HR :0.86627: L2-HR :0.85172: (Sim:0h16m51s) 
CPU  0 inst:  316000000 cyc:  227748832 now IPC :1.07059: AVG IPC :1.38469: L2-Pf-HR :0.86635: L2-HR :0.85173: (Sim:0h16m56s) 
CPU  0 inst:  317000000 cyc:  228485263 now IPC :1.35790: AVG IPC :1.38460: L2-Pf-HR :0.86631: L2-HR :0.85166: (Sim:0h17m1s) 
CPU  0 inst:  318000003 cyc:  229207397 now IPC :1.38479: AVG IPC :1.38460: L2-Pf-HR :0.86626: L2-HR :0.85159: (Sim:0h17m6s) 
CPU  0 inst:  319000001 cyc:  229943952 now IPC :1.35767: AVG IPC :1.38451: L2-Pf-HR :0.86620: L2-HR :0.85151: (Sim:0h17m11s) 
CPU  0 inst:  320000000 cyc:  230677080 now IPC :1.36402: AVG IPC :1.38445: L2-Pf-HR :0.86615: L2-HR :0.85143: (Sim:0h17m16s) 
CPU  0 inst:  321000002 cyc:  231402545 now IPC :1.37843: AVG IPC :1.38443: L2-Pf-HR :0.86610: L2-HR :0.85137: (Sim:0h17m21s) 
CPU  0 inst:  322000000 cyc:  232141670 now IPC :1.35295: AVG IPC :1.38433: L2-Pf-HR :0.86604: L2-HR :0.85129: (Sim:0h17m26s) 
CPU  0 inst:  323000002 cyc:  232870810 now IPC :1.37148: AVG IPC :1.38429: L2-Pf-HR :0.86599: L2-HR :0.85122: (Sim:0h17m31s) 
CPU  0 inst:  324000000 cyc:  233612917 now IPC :1.34751: AVG IPC :1.38417: L2-Pf-HR :0.86594: L2-HR :0.85115: (Sim:0h17m36s) 
CPU  0 inst:  325000002 cyc:  234358891 now IPC :1.34053: AVG IPC :1.38403: L2-Pf-HR :0.86589: L2-HR :0.85108: (Sim:0h17m41s) 
CPU  0 inst:  326000002 cyc:  235089684 now IPC :1.36838: AVG IPC :1.38398: L2-Pf-HR :0.86584: L2-HR :0.85102: (Sim:0h17m46s) 
CPU  0 inst:  327000003 cyc:  235831729 now IPC :1.34763: AVG IPC :1.38387: L2-Pf-HR :0.86580: L2-HR :0.85096: (Sim:0h17m51s) 
CPU  0 inst:  328000000 cyc:  236794082 now IPC :1.03912: AVG IPC :1.38246: L2-Pf-HR :0.86569: L2-HR :0.85080: (Sim:0h17m57s) 
CPU  0 inst:  329000001 cyc:  237487924 now IPC :1.44125: AVG IPC :1.38263: L2-Pf-HR :0.86564: L2-HR :0.85076: (Sim:0h18m1s) 
CPU  0 inst:  330000003 cyc:  238183537 now IPC :1.43758: AVG IPC :1.38279: L2-Pf-HR :0.86559: L2-HR :0.85072: (Sim:0h18m6s) 
CPU  0 inst:  331000000 cyc:  238878990 now IPC :1.43791: AVG IPC :1.38296: L2-Pf-HR :0.86553: L2-HR :0.85067: (Sim:0h18m11s) 
CPU  0 inst:  332000000 cyc:  239573821 now IPC :1.43920: AVG IPC :1.38312: L2-Pf-HR :0.86548: L2-HR :0.85062: (Sim:0h18m16s) 
CPU  0 inst:  333000002 cyc:  240268996 now IPC :1.43849: AVG IPC :1.38328: L2-Pf-HR :0.86543: L2-HR :0.85058: (Sim:0h18m21s) 
CPU  0 inst:  334000001 cyc:  240964242 now IPC :1.43834: AVG IPC :1.38344: L2-Pf-HR :0.86538: L2-HR :0.85054: (Sim:0h18m26s) 
CPU  0 inst:  335000000 cyc:  241656779 now IPC :1.44396: AVG IPC :1.38361: L2-Pf-HR :0.86533: L2-HR :0.85050: (Sim:0h18m31s) 
CPU  0 inst:  336000000 cyc:  242348902 now IPC :1.44483: AVG IPC :1.38379: L2-Pf-HR :0.86528: L2-HR :0.85045: (Sim:0h18m36s) 
CPU  0 inst:  337000000 cyc:  243044030 now IPC :1.43858: AVG IPC :1.38395: L2-Pf-HR :0.86523: L2-HR :0.85041: (Sim:0h18m41s) 
CPU  0 inst:  338000000 cyc:  243734792 now IPC :1.44768: AVG IPC :1.38413: L2-Pf-HR :0.86518: L2-HR :0.85037: (Sim:0h18m46s) 
CPU  0 inst:  339000001 cyc:  244426236 now IPC :1.44625: AVG IPC :1.38430: L2-Pf-HR :0.86514: L2-HR :0.85033: (Sim:0h18m51s) 
CPU  0 inst:  340000000 cyc:  245277378 now IPC :1.17489: AVG IPC :1.38358: L2-Pf-HR :0.86512: L2-HR :0.85028: (Sim:0h18m56s) 
CPU  0 inst:  341000002 cyc:  245978610 now IPC :1.42606: AVG IPC :1.38370: L2-Pf-HR :0.86520: L2-HR :0.85035: (Sim:0h19m1s) 
CPU  0 inst:  342000002 cyc:  246679721 now IPC :1.42631: AVG IPC :1.38382: L2-Pf-HR :0.86523: L2-HR :0.85037: (Sim:0h19m6s) 
CPU  0 inst:  343000000 cyc:  247382740 now IPC :1.42243: AVG IPC :1.38393: L2-Pf-HR :0.86527: L2-HR :0.85041: (Sim:0h19m11s) 
CPU  0 inst:  344000000 cyc:  248079745 now IPC :1.43471: AVG IPC :1.38407: L2-Pf-HR :0.86530: L2-HR :0.85044: (Sim:0h19m16s) 
CPU  0 inst:  345000003 cyc:  248775488 now IPC :1.43732: AVG IPC :1.38422: L2-Pf-HR :0.86536: L2-HR :0.85049: (Sim:0h19m21s) 
CPU  0 inst:  346000000 cyc:  249459840 now IPC :1.46123: AVG IPC :1.38443: L2-Pf-HR :0.86554: L2-HR :0.85064: (Sim:0h19m26s) 
CPU  0 inst:  347000002 cyc:  250144553 now IPC :1.46047: AVG IPC :1.38464: L2-Pf-HR :0.86572: L2-HR :0.85079: (Sim:0h19m31s) 
CPU  0 inst:  348000000 cyc:  251115880 now IPC :1.02952: AVG IPC :1.38326: L2-Pf-HR :0.86570: L2-HR :0.85069: (Sim:0h19m37s) 
CPU  0 inst:  349000002 cyc:  251846508 now IPC :1.36869: AVG IPC :1.38322: L2-Pf-HR :0.86565: L2-HR :0.85063: (Sim:0h19m41s) 
CPU  0 inst:  350000001 cyc:  252587484 now IPC :1.34957: AVG IPC :1.38312: L2-Pf-HR :0.86559: L2-HR :0.85055: (Sim:0h19m44s) 
CPU  0 inst:  351000002 cyc:  253327092 now IPC :1.35207: AVG IPC :1.38303: L2-Pf-HR :0.86554: L2-HR :0.85048: (Sim:0h19m48s) 
CPU  0 inst:  352000000 cyc:  254059047 now IPC :1.36620: AVG IPC :1.38298: L2-Pf-HR :0.86549: L2-HR :0.85041: (Sim:0h19m51s) 
CPU  0 inst:  353000003 cyc:  254807273 now IPC :1.33650: AVG IPC :1.38285: L2-Pf-HR :0.86544: L2-HR :0.85034: (Sim:0h19m55s) 
CPU  0 inst:  354000003 cyc:  255539956 now IPC :1.36485: AVG IPC :1.38279: L2-Pf-HR :0.86539: L2-HR :0.85028: (Sim:0h19m59s) 
CPU  0 inst:  355000000 cyc:  256289652 now IPC :1.33387: AVG IPC :1.38265: L2-Pf-HR :0.86535: L2-HR :0.85020: (Sim:0h20m4s) 
CPU  0 inst:  356000000 cyc:  257039727 now IPC :1.33320: AVG IPC :1.38250: L2-Pf-HR :0.86530: L2-HR :0.85013: (Sim:0h20m10s) 
CPU  0 inst:  357000001 cyc:  257775766 now IPC :1.35863: AVG IPC :1.38244: L2-Pf-HR :0.86525: L2-HR :0.85007: (Sim:0h20m15s) 
CPU  0 inst:  358000003 cyc:  258525867 now IPC :1.33316: AVG IPC :1.38229: L2-Pf-HR :0.86521: L2-HR :0.85002: (Sim:0h20m20s) 
CPU  0 inst:  359000002 cyc:  259266575 now IPC :1.35006: AVG IPC :1.38220: L2-Pf-HR :0.86517: L2-HR :0.84996: (Sim:0h20m25s) 
CPU  0 inst:  360000000 cyc:  260221378 now IPC :1.04733: AVG IPC :1.38097: L2-Pf-HR :0.86507: L2-HR :0.84983: (Sim:0h20m31s) 
CPU  0 inst:  361000000 cyc:  260922641 now IPC :1.42600: AVG IPC :1.38109: L2-Pf-HR :0.86502: L2-HR :0.84978: (Sim:0h20m36s) 
CPU  0 inst:  362000001 cyc:  261622313 now IPC :1.42924: AVG IPC :1.38122: L2-Pf-HR :0.86498: L2-HR :0.84974: (Sim:0h20m41s) 
CPU  0 inst:  363000002 cyc:  262324676 now IPC :1.42377: AVG IPC :1.38133: L2-Pf-HR :0.86493: L2-HR :0.84970: (Sim:0h20m46s) 
CPU  0 inst:  364000000 cyc:  263027185 now IPC :1.42347: AVG IPC :1.38145: L2-Pf-HR :0.86488: L2-HR :0.84966: (Sim:0h20m51s) 
CPU  0 inst:  365000001 cyc:  263728721 now IPC :1.42545: AVG IPC :1.38156: L2-Pf-HR :0.86483: L2-HR :0.84961: (Sim:0h20m56s) 
CPU  0 inst:  366000001 cyc:  264427106 now IPC :1.43187: AVG IPC :1.38170: L2-Pf-HR :0.86479: L2-HR :0.84957: (Sim:0h21m1s) 
CPU  0 inst:  367000003 cyc:  265126539 now IPC :1.42973: AVG IPC :1.38182: L2-Pf-HR :0.86474: L2-HR :0.84953: (Sim:0h21m6s) 
CPU  0 inst:  368000000 cyc:  265827330 now IPC :1.42695: AVG IPC :1.38194: L2-Pf-HR :0.86469: L2-HR :0.84948: (Sim:0h21m11s) 
CPU  0 inst:  369000001 cyc:  266525983 now IPC :1.43133: AVG IPC :1.38207: L2-Pf-HR :0.86464: L2-HR :0.84944: (Sim:0h21m17s) 
CPU  0 inst:  370000003 cyc:  267224633 now IPC :1.43133: AVG IPC :1.38220: L2-Pf-HR :0.86459: L2-HR :0.84940: (Sim:0h21m20s) 
CPU  0 inst:  371000001 cyc:  267953904 now IPC :1.37123: AVG IPC :1.38217: L2-Pf-HR :0.86454: L2-HR :0.84935: (Sim:0h21m24s) 
CPU  0 inst:  372000000 cyc:  268773779 now IPC :1.21970: AVG IPC :1.38167: L2-Pf-HR :0.86458: L2-HR :0.84935: (Sim:0h21m28s) 
CPU  0 inst:  373000002 cyc:  269477821 now IPC :1.42037: AVG IPC :1.38178: L2-Pf-HR :0.86463: L2-HR :0.84939: (Sim:0h21m32s) 
CPU  0 inst:  374000002 cyc:  270178515 now IPC :1.42716: AVG IPC :1.38189: L2-Pf-HR :0.86466: L2-HR :0.84941: (Sim:0h21m38s) 
CPU  0 inst:  375000000 cyc:  270881286 now IPC :1.42294: AVG IPC :1.38200: L2-Pf-HR :0.86469: L2-HR :0.84943: (Sim:0h21m43s) 
CPU  0 inst:  376000000 cyc:  271581382 now IPC :1.42838: AVG IPC :1.38212: L2-Pf-HR :0.86472: L2-HR :0.84945: (Sim:0h21m48s) 
CPU  0 inst:  377000003 cyc:  272272522 now IPC :1.44689: AVG IPC :1.38229: L2-Pf-HR :0.86482: L2-HR :0.84954: (Sim:0h21m52s) 
CPU  0 inst:  378000002 cyc:  272958862 now IPC :1.45700: AVG IPC :1.38247: L2-Pf-HR :0.86498: L2-HR :0.84967: (Sim:0h21m56s) 
CPU  0 inst:  379000003 cyc:  273875201 now IPC :1.09130: AVG IPC :1.38150: L2-Pf-HR :0.86507: L2-HR :0.84969: (Sim:0h22m2s) 
CPU  0 inst:  380000000 cyc:  274626622 now IPC :1.33081: AVG IPC :1.38136: L2-Pf-HR :0.86502: L2-HR :0.84963: (Sim:0h22m7s) 
CPU  0 inst:  381000000 cyc:  275363718 now IPC :1.35668: AVG IPC :1.38129: L2-Pf-HR :0.86497: L2-HR :0.84955: (Sim:0h22m13s) 
CPU  0 inst:  382000003 cyc:  276100652 now IPC :1.35698: AVG IPC :1.38123: L2-Pf-HR :0.86492: L2-HR :0.84948: (Sim:0h22m18s) 
CPU  0 inst:  383000001 cyc:  276823928 now IPC :1.38260: AVG IPC :1.38123: L2-Pf-HR :0.86487: L2-HR :0.84941: (Sim:0h22m22s) 
CPU  0 inst:  384000000 cyc:  277564670 now IPC :1.35000: AVG IPC :1.38115: L2-Pf-HR :0.86483: L2-HR :0.84934: (Sim:0h22m27s) 
CPU  0 inst:  385000002 cyc:  278298795 now IPC :1.36217: AVG IPC :1.38110: L2-Pf-HR :0.86478: L2-HR :0.84928: (Sim:0h22m33s) 
CPU  0 inst:  386000002 cyc:  279038528 now IPC :1.35184: AVG IPC :1.38102: L2-Pf-HR :0.86473: L2-HR :0.84921: (Sim:0h22m38s) 
CPU  0 inst:  387000002 cyc:  279785609 now IPC :1.33854: AVG IPC :1.38090: L2-Pf-HR :0.86468: L2-HR :0.84914: (Sim:0h22m43s) 
CPU  0 inst:  388000000 cyc:  280522460 now IPC :1.35712: AVG IPC :1.38084: L2-Pf-HR :0.86464: L2-HR :0.84909: (Sim:0h22m47s) 
CPU  0 inst:  389000003 cyc:  281260523 now IPC :1.35490: AVG IPC :1.38077: L2-Pf-HR :0.86460: L2-HR :0.84903: (Sim:0h22m53s) 
CPU  0 inst:  390000001 cyc:  282001019 now IPC :1.35044: AVG IPC :1.38069: L2-Pf-HR :0.86456: L2-HR :0.84898: (Sim:0h22m58s) 
CPU  0 inst:  391000002 cyc:  282961341 now IPC :1.04132: AVG IPC :1.37954: L2-Pf-HR :0.86447: L2-HR :0.84884: (Sim:0h23m4s) 
CPU  0 inst:  392000000 cyc:  283675302 now IPC :1.40063: AVG IPC :1.37959: L2-Pf-HR :0.86443: L2-HR :0.84880: (Sim:0h23m9s) 
CPU  0 inst:  393000003 cyc:  284371040 now IPC :1.43733: AVG IPC :1.37973: L2-Pf-HR :0.86438: L2-HR :0.84876: (Sim:0h23m14s) 
CPU  0 inst:  394000001 cyc:  285064372 now IPC :1.44231: AVG IPC :1.37989: L2-Pf-HR :0.86433: L2-HR :0.84872: (Sim:0h23m19s) 
CPU  0 inst:  395000001 cyc:  285757901 now IPC :1.44190: AVG IPC :1.38004: L2-Pf-HR :0.86429: L2-HR :0.84868: (Sim:0h23m24s) 
CPU  0 inst:  396000000 cyc:  286452054 now IPC :1.44060: AVG IPC :1.38018: L2-Pf-HR :0.86424: L2-HR :0.84863: (Sim:0h23m29s) 
CPU  0 inst:  397000003 cyc:  287145953 now IPC :1.44114: AVG IPC :1.38033: L2-Pf-HR :0.86419: L2-HR :0.84859: (Sim:0h23m32s) 
CPU  0 inst:  398000002 cyc:  287840083 now IPC :1.44065: AVG IPC :1.38048: L2-Pf-HR :0.86415: L2-HR :0.84855: (Sim:0h23m37s) 
CPU  0 inst:  399000001 cyc:  288534058 now IPC :1.44097: AVG IPC :1.38062: L2-Pf-HR :0.86410: L2-HR :0.84851: (Sim:0h23m43s) 
CPU  0 inst:  400000000 cyc:  289228258 now IPC :1.44051: AVG IPC :1.38077: L2-Pf-HR :0.86405: L2-HR :0.84846: (Sim:0h23m48s) 
CPU  0 inst:  401000002 cyc:  289919792 now IPC :1.44606: AVG IPC :1.38092: L2-Pf-HR :0.86401: L2-HR :0.84842: (Sim:0h23m53s) 
CPU  0 inst:  402000000 cyc:  290611886 now IPC :1.44489: AVG IPC :1.38108: L2-Pf-HR :0.86396: L2-HR :0.84838: (Sim:0h23m59s) 
CPU  0 inst:  403000001 cyc:  291456883 now IPC :1.18344: AVG IPC :1.38050: L2-Pf-HR :0.86393: L2-HR :0.84832: (Sim:0h24m4s) 
CPU  0 inst:  404000000 cyc:  292150798 now IPC :1.44110: AVG IPC :1.38065: L2-Pf-HR :0.86399: L2-HR :0.84837: (Sim:0h24m10s) 
CPU  0 inst:  405000000 cyc:  292843728 now IPC :1.44315: AVG IPC :1.38079: L2-Pf-HR :0.86400: L2-HR :0.84837: (Sim:0h24m15s) 
CPU  0 inst:  406000001 cyc:  293534115 now IPC :1.44846: AVG IPC :1.38095: L2-Pf-HR :0.86403: L2-HR :0.84839: (Sim:0h24m20s) 
CPU  0 inst:  407000002 cyc:  294223225 now IPC :1.45115: AVG IPC :1.38112: L2-Pf-HR :0.86405: L2-HR :0.84840: (Sim:0h24m25s) 
CPU  0 inst:  408000000 cyc:  294910202 now IPC :1.45565: AVG IPC :1.38129: L2-Pf-HR :0.86408: L2-HR :0.84842: (Sim:0h24m30s) 
CPU  0 inst:  409000001 cyc:  295586787 now IPC :1.47801: AVG IPC :1.38152: L2-Pf-HR :0.86422: L2-HR :0.84854: (Sim:0h24m35s) 
CPU  0 inst:  410000002 cyc:  296256719 now IPC :1.49269: AVG IPC :1.38177: L2-Pf-HR :0.86436: L2-HR :0.84866: (Sim:0h24m40s) 
CPU  0 inst:  411000000 cyc:  297213125 now IPC :1.04558: AVG IPC :1.38068: L2-Pf-HR :0.86436: L2-HR :0.84859: (Sim:0h24m46s) 
CPU  0 inst:  412000000 cyc:  297957644 now IPC :1.34315: AVG IPC :1.38059: L2-Pf-HR :0.86431: L2-HR :0.84853: (Sim:0h24m51s) 
CPU  0 inst:  413000002 cyc:  298700839 now IPC :1.34554: AVG IPC :1.38050: L2-Pf-HR :0.86427: L2-HR :0.84846: (Sim:0h24m56s) 
CPU  0 inst:  414000001 cyc:  299436506 now IPC :1.35931: AVG IPC :1.38045: L2-Pf-HR :0.86422: L2-HR :0.84840: (Sim:0h25m1s) 
CPU  0 inst:  415000003 cyc:  300183728 now IPC :1.33829: AVG IPC :1.38034: L2-Pf-HR :0.86417: L2-HR :0.84833: (Sim:0h25m5s) 
CPU  0 inst:  416000000 cyc:  300920994 now IPC :1.35636: AVG IPC :1.38028: L2-Pf-HR :0.86413: L2-HR :0.84827: (Sim:0h25m9s) 
CPU  0 inst:  417000003 cyc:  301675579 now IPC :1.32524: AVG IPC :1.38015: L2-Pf-HR :0.86408: L2-HR :0.84820: (Sim:0h25m15s) 
CPU  0 inst:  418000001 cyc:  302427364 now IPC :1.33016: AVG IPC :1.38002: L2-Pf-HR :0.86404: L2-HR :0.84814: (Sim:0h25m20s) 
CPU  0 inst:  419000002 cyc:  303164330 now IPC :1.35692: AVG IPC :1.37997: L2-Pf-HR :0.86399: L2-HR :0.84807: (Sim:0h25m25s) 
CPU  0 inst:  420000000 cyc:  303915413 now IPC :1.33141: AVG IPC :1.37984: L2-Pf-HR :0.86395: L2-HR :0.84802: (Sim:0h25m29s) 
CPU  0 inst:  421000001 cyc:  304665996 now IPC :1.33230: AVG IPC :1.37973: L2-Pf-HR :0.86390: L2-HR :0.84796: (Sim:0h25m33s) 
CPU  0 inst:  422000000 cyc:  305426390 now IPC :1.31511: AVG IPC :1.37957: L2-Pf-HR :0.86386: L2-HR :0.84791: (Sim:0h25m38s) 
CPU  0 inst:  423000001 cyc:  306379406 now IPC :1.04930: AVG IPC :1.37854: L2-Pf-HR :0.86377: L2-HR :0.84778: (Sim:0h25m44s) 
CPU  0 inst:  424000000 cyc:  307084601 now IPC :1.41805: AVG IPC :1.37863: L2-Pf-HR :0.86373: L2-HR :0.84774: (Sim:0h25m49s) 
CPU  0 inst:  425000002 cyc:  307788318 now IPC :1.42103: AVG IPC :1.37872: L2-Pf-HR :0.86368: L2-HR :0.84769: (Sim:0h25m54s) 
CPU  0 inst:  426000003 cyc:  308492979 now IPC :1.41912: AVG IPC :1.37882: L2-Pf-HR :0.86364: L2-HR :0.84765: (Sim:0h25m59s) 
CPU  0 inst:  427000003 cyc:  309197497 now IPC :1.41941: AVG IPC :1.37891: L2-Pf-HR :0.86359: L2-HR :0.84761: (Sim:0h26m4s) 
CPU  0 inst:  428000000 cyc:  309899407 now IPC :1.42468: AVG IPC :1.37901: L2-Pf-HR :0.86355: L2-HR :0.84757: (Sim:0h26m9s) 
CPU  0 inst:  429000003 cyc:  310603246 now IPC :1.42078: AVG IPC :1.37911: L2-Pf-HR :0.86350: L2-HR :0.84753: (Sim:0h26m14s) 
CPU  0 inst:  430000003 cyc:  311308396 now IPC :1.41814: AVG IPC :1.37920: L2-Pf-HR :0.86346: L2-HR :0.84748: (Sim:0h26m19s) 
CPU  0 inst:  431000000 cyc:  312010366 now IPC :1.42456: AVG IPC :1.37930: L2-Pf-HR :0.86341: L2-HR :0.84744: (Sim:0h26m24s) 
CPU  0 inst:  432000000 cyc:  312715912 now IPC :1.41734: AVG IPC :1.37938: L2-Pf-HR :0.86337: L2-HR :0.84740: (Sim:0h26m29s) 
CPU  0 inst:  433000002 cyc:  313415424 now IPC :1.42957: AVG IPC :1.37950: L2-Pf-HR :0.86333: L2-HR :0.84736: (Sim:0h26m34s) 
CPU  0 inst:  434000003 cyc:  314122291 now IPC :1.41469: AVG IPC :1.37958: L2-Pf-HR :0.86329: L2-HR :0.84733: (Sim:0h26m38s) 
CPU  0 inst:  435000001 cyc:  314960972 now IPC :1.19235: AVG IPC :1.37908: L2-Pf-HR :0.86330: L2-HR :0.84730: (Sim:0h26m42s) 
CPU  0 inst:  436000000 cyc:  315655014 now IPC :1.44083: AVG IPC :1.37921: L2-Pf-HR :0.86334: L2-HR :0.84733: (Sim:0h26m45s) 
CPU  0 inst:  437000003 cyc:  316345610 now IPC :1.44803: AVG IPC :1.37936: L2-Pf-HR :0.86336: L2-HR :0.84734: (Sim:0h26m49s) 
CPU  0 inst:  438000000 cyc:  317038658 now IPC :1.44290: AVG IPC :1.37950: L2-Pf-HR :0.86338: L2-HR :0.84736: (Sim:0h26m54s) 
CPU  0 inst:  439000003 cyc:  317724441 now IPC :1.45819: AVG IPC :1.37967: L2-Pf-HR :0.86340: L2-HR :0.84737: (Sim:0h26m57s) 
CPU  0 inst:  440000000 cyc:  318407471 now IPC :1.46406: AVG IPC :1.37985: L2-Pf-HR :0.86348: L2-HR :0.84743: (Sim:0h27m1s) 
CPU  0 inst:  441000001 cyc:  319082214 now IPC :1.48205: AVG IPC :1.38007: L2-Pf-HR :0.86361: L2-HR :0.84754: (Sim:0h27m5s) 
CPU  0 inst:  442000002 cyc:  319854633 now IPC :1.29464: AVG IPC :1.37986: L2-Pf-HR :0.86373: L2-HR :0.84761: (Sim:0h27m10s) 
CPU  0 inst:  443000001 cyc:  320746049 now IPC :1.12181: AVG IPC :1.37915: L2-Pf-HR :0.86366: L2-HR :0.84750: (Sim:0h27m16s) 
CPU  0 inst:  444000000 cyc:  321487339 now IPC :1.34900: AVG IPC :1.37908: L2-Pf-HR :0.86362: L2-HR :0.84744: (Sim:0h27m21s) 
CPU  0 inst:  445000000 cyc:  322217910 now IPC :1.36879: AVG IPC :1.37905: L2-Pf-HR :0.86357: L2-HR :0.84738: (Sim:0h27m25s) 
CPU  0 inst:  446000003 cyc:  322959740 now IPC :1.34802: AVG IPC :1.37898: L2-Pf-HR :0.86352: L2-HR :0.84731: (Sim:0h27m30s) 
CPU  0 inst:  447000002 cyc:  323691974 now IPC :1.36568: AVG IPC :1.37895: L2-Pf-HR :0.86348: L2-HR :0.84725: (Sim:0h27m35s) 
CPU  0 inst:  448000000 cyc:  324442090 now IPC :1.33312: AVG IPC :1.37884: L2-Pf-HR :0.86343: L2-HR :0.84719: (Sim:0h27m40s) 
CPU  0 inst:  449000001 cyc:  325189747 now IPC :1.33751: AVG IPC :1.37875: L2-Pf-HR :0.86339: L2-HR :0.84712: (Sim:0h27m46s) 
CPU  0 inst:  450000001 cyc:  325925120 now IPC :1.35985: AVG IPC :1.37871: L2-Pf-HR :0.86334: L2-HR :0.84706: (Sim:0h27m51s) 
CPU  0 inst:  451000003 cyc:  326679203 now IPC :1.32612: AVG IPC :1.37858: L2-Pf-HR :0.86330: L2-HR :0.84700: (Sim:0h27m56s) 
CPU  0 inst:  452000000 cyc:  327418569 now IPC :1.35251: AVG IPC :1.37853: L2-Pf-HR :0.86326: L2-HR :0.84695: (Sim:0h28m1s) 
CPU  0 inst:  453000002 cyc:  328173482 now IPC :1.32466: AVG IPC :1.37840: L2-Pf-HR :0.86322: L2-HR :0.84689: (Sim:0h28m6s) 
CPU  0 inst:  454000002 cyc:  329118053 now IPC :1.05868: AVG IPC :1.37748: L2-Pf-HR :0.86314: L2-HR :0.84676: (Sim:0h28m12s) 
CPU  0 inst:  455000002 cyc:  329859319 now IPC :1.34904: AVG IPC :1.37742: L2-Pf-HR :0.86310: L2-HR :0.84672: (Sim:0h28m17s) 
CPU  0 inst:  456000000 cyc:  330564710 now IPC :1.41765: AVG IPC :1.37750: L2-Pf-HR :0.86305: L2-HR :0.84668: (Sim:0h28m23s) 
CPU  0 inst:  457000001 cyc:  331275336 now IPC :1.40721: AVG IPC :1.37757: L2-Pf-HR :0.86301: L2-HR :0.84663: (Sim:0h28m28s) 
CPU  0 inst:  458000002 cyc:  331980430 now IPC :1.41825: AVG IPC :1.37765: L2-Pf-HR :0.86296: L2-HR :0.84659: (Sim:0h28m33s) 
CPU  0 inst:  459000003 cyc:  332684845 now IPC :1.41962: AVG IPC :1.37774: L2-Pf-HR :0.86292: L2-HR :0.84654: (Sim:0h28m38s) 
CPU  0 inst:  460000000 cyc:  333392649 now IPC :1.41282: AVG IPC :1.37782: L2-Pf-HR :0.86287: L2-HR :0.84650: (Sim:0h28m44s) 
CPU  0 inst:  461000001 cyc:  334098869 now IPC :1.41599: AVG IPC :1.37790: L2-Pf-HR :0.86283: L2-HR :0.84645: (Sim:0h28m49s) 
CPU  0 inst:  462000003 cyc:  334804380 now IPC :1.41742: AVG IPC :1.37798: L2-Pf-HR :0.86278: L2-HR :0.84641: (Sim:0h28m54s) 
CPU  0 inst:  463000001 cyc:  335511258 now IPC :1.41467: AVG IPC :1.37806: L2-Pf-HR :0.86273: L2-HR :0.84636: (Sim:0h29m0s) 
CPU  0 inst:  464000000 cyc:  336215096 now IPC :1.42078: AVG IPC :1.37815: L2-Pf-HR :0.86268: L2-HR :0.84632: (Sim:0h29m5s) 
CPU  0 inst:  465000001 cyc:  336918420 now IPC :1.42182: AVG IPC :1.37824: L2-Pf-HR :0.86264: L2-HR :0.84627: (Sim:0h29m11s) 
CPU  0 inst:  466000001 cyc:  337782591 now IPC :1.15718: AVG IPC :1.37767: L2-Pf-HR :0.86259: L2-HR :0.84619: (Sim:0h29m16s) 
CPU  0 inst:  467000001 cyc:  338490105 now IPC :1.41340: AVG IPC :1.37775: L2-Pf-HR :0.86264: L2-HR :0.84623: (Sim:0h29m20s) 
CPU  0 inst:  468000000 cyc:  339195638 now IPC :1.41737: AVG IPC :1.37783: L2-Pf-HR :0.86266: L2-HR :0.84624: (Sim:0h29m23s) 
CPU  0 inst:  469000003 cyc:  339899924 now IPC :1.41988: AVG IPC :1.37792: L2-Pf-HR :0.86267: L2-HR :0.84625: (Sim:0h29m28s) 
CPU  0 inst:  470000002 cyc:  340605357 now IPC :1.41757: AVG IPC :1.37800: L2-Pf-HR :0.86269: L2-HR :0.84626: (Sim:0h29m33s) 
CPU  0 inst:  471000002 cyc:  341310158 now IPC :1.41884: AVG IPC :1.37808: L2-Pf-HR :0.86270: L2-HR :0.84626: (Sim:0h29m38s) 
CPU  0 inst:  472000000 cyc:  341999796 now IPC :1.45003: AVG IPC :1.37823: L2-Pf-HR :0.86281: L2-HR :0.84635: (Sim:0h29m42s) 
CPU  0 inst:  473000000 cyc:  342685755 now IPC :1.45781: AVG IPC :1.37839: L2-Pf-HR :0.86293: L2-HR :0.84645: (Sim:0h29m47s) 
CPU  0 inst:  474000000 cyc:  343653164 now IPC :1.03369: AVG IPC :1.37742: L2-Pf-HR :0.86295: L2-HR :0.84640: (Sim:0h29m52s) 
CPU  0 inst:  475000002 cyc:  344399111 now IPC :1.34058: AVG IPC :1.37734: L2-Pf-HR :0.86290: L2-HR :0.84634: (Sim:0h29m57s) 
CPU  0 inst:  476000000 cyc:  345130279 now IPC :1.36767: AVG IPC :1.37732: L2-Pf-HR :0.86286: L2-HR :0.84627: (Sim:0h30m2s) 
CPU  0 inst:  477000002 cyc:  345873705 now IPC :1.34513: AVG IPC :1.37725: L2-Pf-HR :0.86281: L2-HR :0.84621: (Sim:0h30m7s) 
CPU  0 inst:  478000001 cyc:  346613287 now IPC :1.35211: AVG IPC :1.37719: L2-Pf-HR :0.86277: L2-HR :0.84614: (Sim:0h30m12s) 
CPU  0 inst:  479000003 cyc:  347365920 now IPC :1.32867: AVG IPC :1.37709: L2-Pf-HR :0.86272: L2-HR :0.84608: (Sim:0h30m17s) 
CPU  0 inst:  480000000 cyc:  348119181 now IPC :1.32756: AVG IPC :1.37698: L2-Pf-HR :0.86268: L2-HR :0.84601: (Sim:0h30m22s) 
CPU  0 inst:  481000003 cyc:  348860075 now IPC :1.34972: AVG IPC :1.37692: L2-Pf-HR :0.86263: L2-HR :0.84595: (Sim:0h30m27s) 
CPU  0 inst:  482000002 cyc:  349615889 now IPC :1.32308: AVG IPC :1.37681: L2-Pf-HR :0.86259: L2-HR :0.84589: (Sim:0h30m32s) 
CPU  0 inst:  483000000 cyc:  350362341 now IPC :1.33967: AVG IPC :1.37673: L2-Pf-HR :0.86255: L2-HR :0.84583: (Sim:0h30m37s) 
CPU  0 inst:  484000000 cyc:  351122887 now IPC :1.31484: AVG IPC :1.37659: L2-Pf-HR :0.86251: L2-HR :0.84577: (Sim:0h30m42s) 
CPU  0 inst:  485000000 cyc:  351886959 now IPC :1.30878: AVG IPC :1.37644: L2-Pf-HR :0.86246: L2-HR :0.84572: (Sim:0h30m47s) 
CPU  0 inst:  486000001 cyc:  352851002 now IPC :1.03730: AVG IPC :1.37551: L2-Pf-HR :0.86238: L2-HR :0.84559: (Sim:0h30m54s) 
CPU  0 inst:  487000001 cyc:  353561899 now IPC :1.40667: AVG IPC :1.37558: L2-Pf-HR :0.86234: L2-HR :0.84555: (Sim:0h30m59s) 
CPU  0 inst:  488000000 cyc:  354274782 now IPC :1.40275: AVG IPC :1.37563: L2-Pf-HR :0.86229: L2-HR :0.84550: (Sim:0h31m4s) 
CPU  0 inst:  489000002 cyc:  354984447 now IPC :1.40912: AVG IPC :1.37570: L2-Pf-HR :0.86225: L2-HR :0.84545: (Sim:0h31m9s) 
CPU  0 inst:  490000001 cyc:  355691246 now IPC :1.41483: AVG IPC :1.37578: L2-Pf-HR :0.86220: L2-HR :0.84541: (Sim:0h31m15s) 
CPU  0 inst:  491000000 cyc:  356400513 now IPC :1.40990: AVG IPC :1.37585: L2-Pf-HR :0.86216: L2-HR :0.84536: (Sim:0h31m20s) 
CPU  0 inst:  492000000 cyc:  357110425 now IPC :1.40863: AVG IPC :1.37591: L2-Pf-HR :0.86211: L2-HR :0.84532: (Sim:0h31m26s) 
CPU  0 inst:  493000000 cyc:  357819109 now IPC :1.41107: AVG IPC :1.37598: L2-Pf-HR :0.86207: L2-HR :0.84527: (Sim:0h31m31s) 
CPU  0 inst:  494000000 cyc:  358529260 now IPC :1.40815: AVG IPC :1.37604: L2-Pf-HR :0.86202: L2-HR :0.84522: (Sim:0h31m36s) 
CPU  0 inst:  495000003 cyc:  359236848 now IPC :1.41326: AVG IPC :1.37612: L2-Pf-HR :0.86198: L2-HR :0.84518: (Sim:0h31m41s) 
CPU  0 inst:  496000000 cyc:  359941615 now IPC :1.41890: AVG IPC :1.37620: L2-Pf-HR :0.86193: L2-HR :0.84514: (Sim:0h31m46s) 
CPU  0 inst:  497000003 cyc:  360645917 now IPC :1.41985: AVG IPC :1.37629: L2-Pf-HR :0.86189: L2-HR :0.84509: (Sim:0h31m52s) 
CPU  0 inst:  498000001 cyc:  361502844 now IPC :1.16696: AVG IPC :1.37579: L2-Pf-HR :0.86188: L2-HR :0.84505: (Sim:0h31m56s) 
CPU  0 inst:  499000000 cyc:  362198914 now IPC :1.43664: AVG IPC :1.37591: L2-Pf-HR :0.86191: L2-HR :0.84507: (Sim:0h32m0s) 
CPU  0 inst:  500000000 cyc:  362896319 now IPC :1.43389: AVG IPC :1.37602: L2-Pf-HR :0.86192: L2-HR :0.84507: (Sim:0h32m4s) 
CPU  0 inst:  501000001 cyc:  363592949 now IPC :1.43548: AVG IPC :1.37613: L2-Pf-HR :0.86193: L2-HR :0.84507: (Sim:0h32m8s) 
CPU  0 inst:  502000002 cyc:  364284835 now IPC :1.44533: AVG IPC :1.37627: L2-Pf-HR :0.86194: L2-HR :0.84507: (Sim:0h32m13s) 
CPU  0 inst:  503000001 cyc:  364973390 now IPC :1.45232: AVG IPC :1.37641: L2-Pf-HR :0.86198: L2-HR :0.84510: (Sim:0h32m18s) 
CPU  0 inst:  504000000 cyc:  365648896 now IPC :1.48037: AVG IPC :1.37660: L2-Pf-HR :0.86208: L2-HR :0.84518: (Sim:0h32m23s) 
CPU  0 inst:  505000000 cyc:  366328646 now IPC :1.47113: AVG IPC :1.37678: L2-Pf-HR :0.86219: L2-HR :0.84527: (Sim:0h32m28s) 
CPU  0 inst:  506000003 cyc:  367305978 now IPC :1.02320: AVG IPC :1.37583: L2-Pf-HR :0.86213: L2-HR :0.84515: (Sim:0h32m33s) 
CPU  0 inst:  507000000 cyc:  368047845 now IPC :1.34795: AVG IPC :1.37578: L2-Pf-HR :0.86209: L2-HR :0.84509: (Sim:0h32m38s) 
CPU  0 inst:  508000000 cyc:  368791267 now IPC :1.34513: AVG IPC :1.37572: L2-Pf-HR :0.86204: L2-HR :0.84502: (Sim:0h32m43s) 
CPU  0 inst:  509000000 cyc:  369523805 now IPC :1.36512: AVG IPC :1.37569: L2-Pf-HR :0.86200: L2-HR :0.84496: (Sim:0h32m49s) 
CPU  0 inst:  510000002 cyc:  370271502 now IPC :1.33744: AVG IPC :1.37562: L2-Pf-HR :0.86195: L2-HR :0.84489: (Sim:0h32m54s) 
CPU  0 inst:  511000001 cyc:  371023161 now IPC :1.33039: AVG IPC :1.37553: L2-Pf-HR :0.86191: L2-HR :0.84483: (Sim:0h32m59s) 
CPU  0 inst:  512000000 cyc:  371761170 now IPC :1.35500: AVG IPC :1.37548: L2-Pf-HR :0.86186: L2-HR :0.84477: (Sim:0h33m4s) 
CPU  0 inst:  513000001 cyc:  372512832 now IPC :1.33039: AVG IPC :1.37539: L2-Pf-HR :0.86182: L2-HR :0.84470: (Sim:0h33m9s) 
CPU  0 inst:  514000001 cyc:  373254911 now IPC :1.34757: AVG IPC :1.37534: L2-Pf-HR :0.86177: L2-HR :0.84464: (Sim:0h33m14s) 
CPU  0 inst:  515000002 cyc:  374012311 now IPC :1.32031: AVG IPC :1.37523: L2-Pf-HR :0.86173: L2-HR :0.84458: (Sim:0h33m19s) 
CPU  0 inst:  516000000 cyc:  374774419 now IPC :1.31215: AVG IPC :1.37510: L2-Pf-HR :0.86169: L2-HR :0.84452: (Sim:0h33m24s) 
CPU  0 inst:  517000001 cyc:  375524998 now IPC :1.33231: AVG IPC :1.37501: L2-Pf-HR :0.86164: L2-HR :0.84447: (Sim:0h33m30s) 
CPU  0 inst:  518000000 cyc:  376467106 now IPC :1.06145: AVG IPC :1.37423: L2-Pf-HR :0.86157: L2-HR :0.84436: (Sim:0h33m36s) 
CPU  0 inst:  519000002 cyc:  377179983 now IPC :1.40277: AVG IPC :1.37428: L2-Pf-HR :0.86152: L2-HR :0.84431: (Sim:0h33m41s) 
CPU  0 inst:  520000000 cyc:  377889003 now IPC :1.41039: AVG IPC :1.37435: L2-Pf-HR :0.86148: L2-HR :0.84426: (Sim:0h33m46s) 
CPU  0 inst:  521000000 cyc:  378597558 now IPC :1.41132: AVG IPC :1.37442: L2-Pf-HR :0.86144: L2-HR :0.84422: (Sim:0h33m50s) 
CPU  0 inst:  522000000 cyc:  379309927 now IPC :1.40377: AVG IPC :1.37447: L2-Pf-HR :0.86139: L2-HR :0.84417: (Sim:0h33m54s) 
CPU  0 inst:  523000001 cyc:  380020735 now IPC :1.40685: AVG IPC :1.37453: L2-Pf-HR :0.86135: L2-HR :0.84413: (Sim:0h33m59s) 
CPU  0 inst:  524000000 cyc:  380729462 now IPC :1.41098: AVG IPC :1.37460: L2-Pf-HR :0.86131: L2-HR :0.84408: (Sim:0h34m4s) 
CPU  0 inst:  525000001 cyc:  381439941 now IPC :1.40750: AVG IPC :1.37466: L2-Pf-HR :0.86126: L2-HR :0.84403: (Sim:0h34m10s) 
CPU  0 inst:  526000000 cyc:  382147017 now IPC :1.41427: AVG IPC :1.37474: L2-Pf-HR :0.86122: L2-HR :0.84399: (Sim:0h34m15s) 
CPU  0 inst:  527000001 cyc:  382852345 now IPC :1.41778: AVG IPC :1.37481: L2-Pf-HR :0.86118: L2-HR :0.84395: (Sim:0h34m20s) 
CPU  0 inst:  528000000 cyc:  383559473 now IPC :1.41417: AVG IPC :1.37489: L2-Pf-HR :0.86113: L2-HR :0.84390: (Sim:0h34m24s) 
CPU  0 inst:  529000003 cyc:  384416930 now IPC :1.16624: AVG IPC :1.37442: L2-Pf-HR :0.86107: L2-HR :0.84381: (Sim:0h34m28s) 
CPU  0 inst:  530000003 cyc:  385129402 now IPC :1.40356: AVG IPC :1.37448: L2-Pf-HR :0.86112: L2-HR :0.84385: (Sim:0h34m32s) 
CPU  0 inst:  531000002 cyc:  385838323 now IPC :1.41059: AVG IPC :1.37454: L2-Pf-HR :0.86114: L2-HR :0.84386: (Sim:0h34m36s) 
CPU  0 inst:  532000000 cyc:  386545854 now IPC :1.41336: AVG IPC :1.37461: L2-Pf-HR :0.86115: L2-HR :0.84386: (Sim:0h34m41s) 
CPU  0 inst:  533000000 cyc:  387251730 now IPC :1.41668: AVG IPC :1.37469: L2-Pf-HR :0.86116: L2-HR :0.84386: (Sim:0h34m46s) 
CPU  0 inst:  534000000 cyc:  387956397 now IPC :1.41911: AVG IPC :1.37477: L2-Pf-HR :0.86117: L2-HR :0.84386: (Sim:0h34m52s) 
CPU  0 inst:  535000003 cyc:  388649016 now IPC :1.44380: AVG IPC :1.37489: L2-Pf-HR :0.86125: L2-HR :0.84392: (Sim:0h34m57s) 
CPU  0 inst:  536000000 cyc:  389337059 now IPC :1.45339: AVG IPC :1.37503: L2-Pf-HR :0.86135: L2-HR :0.84401: (Sim:0h35m1s) 
CPU  0 inst:  537000001 cyc:  390288880 now IPC :1.05062: AVG IPC :1.37424: L2-Pf-HR :0.86137: L2-HR :0.84398: (Sim:0h35m7s) 
CPU  0 inst:  538000000 cyc:  391034483 now IPC :1.34119: AVG IPC :1.37418: L2-Pf-HR :0.86133: L2-HR :0.84391: (Sim:0h35m13s) 
CPU  0 inst:  539000001 cyc:  391780208 now IPC :1.34098: AVG IPC :1.37411: L2-Pf-HR :0.86129: L2-HR :0.84385: (Sim:0h35m18s) 
CPU  0 inst:  540000000 cyc:  392522662 now IPC :1.34688: AVG IPC :1.37406: L2-Pf-HR :0.86124: L2-HR :0.84378: (Sim:0h35m23s) 
CPU  0 inst:  541000002 cyc:  393277520 now IPC :1.32476: AVG IPC :1.37397: L2-Pf-HR :0.86119: L2-HR :0.84371: (Sim:0h35m28s) 
CPU  0 inst:  542000000 cyc:  394020715 now IPC :1.34554: AVG IPC :1.37391: L2-Pf-HR :0.86115: L2-HR :0.84365: (Sim:0h35m33s) 
CPU  0 inst:  543000003 cyc:  394778515 now IPC :1.31961: AVG IPC :1.37381: L2-Pf-HR :0.86110: L2-HR :0.84359: (Sim:0h35m39s) 
CPU  0 inst:  544000000 cyc:  395529059 now IPC :1.33236: AVG IPC :1.37373: L2-Pf-HR :0.86105: L2-HR :0.84352: (Sim:0h35m43s) 
CPU  0 inst:  545000000 cyc:  396276404 now IPC :1.33807: AVG IPC :1.37366: L2-Pf-HR :0.86101: L2-HR :0.84345: (Sim:0h35m48s) 
CPU  0 inst:  546000003 cyc:  397045365 now IPC :1.30046: AVG IPC :1.37352: L2-Pf-HR :0.86096: L2-HR :0.84339: (Sim:0h35m53s) 
CPU  0 inst:  547000000 cyc:  397803641 now IPC :1.31878: AVG IPC :1.37342: L2-Pf-HR :0.86092: L2-HR :0.84333: (Sim:0h35m58s) 
CPU  0 inst:  548000000 cyc:  398555564 now IPC :1.32992: AVG IPC :1.37333: L2-Pf-HR :0.86088: L2-HR :0.84327: (Sim:0h36m4s) 
CPU  0 inst:  549000000 cyc:  399530923 now IPC :1.02526: AVG IPC :1.37248: L2-Pf-HR :0.86080: L2-HR :0.84316: (Sim:0h36m10s) 
CPU  0 inst:  550000002 cyc:  400245359 now IPC :1.39971: AVG IPC :1.37253: L2-Pf-HR :0.86076: L2-HR :0.84311: (Sim:0h36m15s) 
CPU  0 inst:  551000000 cyc:  400955626 now IPC :1.40792: AVG IPC :1.37259: L2-Pf-HR :0.86071: L2-HR :0.84305: (Sim:0h36m20s) 
CPU  0 inst:  552000000 cyc:  401668924 now IPC :1.40194: AVG IPC :1.37265: L2-Pf-HR :0.86067: L2-HR :0.84300: (Sim:0h36m25s) 
CPU  0 inst:  553000001 cyc:  402385458 now IPC :1.39561: AVG IPC :1.37269: L2-Pf-HR :0.86062: L2-HR :0.84295: (Sim:0h36m29s) 
CPU  0 inst:  554000002 cyc:  403100773 now IPC :1.39799: AVG IPC :1.37273: L2-Pf-HR :0.86057: L2-HR :0.84290: (Sim:0h36m34s) 
CPU  0 inst:  555000000 cyc:  403814510 now IPC :1.40107: AVG IPC :1.37278: L2-Pf-HR :0.86053: L2-HR :0.84286: (Sim:0h36m39s) 
CPU  0 inst:  556000000 cyc:  404527930 now IPC :1.40170: AVG IPC :1.37283: L2-Pf-HR :0.86048: L2-HR :0.84280: (Sim:0h36m44s) 
CPU  0 inst:  557000001 cyc:  405239768 now IPC :1.40482: AVG IPC :1.37289: L2-Pf-HR :0.86043: L2-HR :0.84275: (Sim:0h36m49s) 
CPU  0 inst:  558000003 cyc:  405949511 now IPC :1.40896: AVG IPC :1.37295: L2-Pf-HR :0.86039: L2-HR :0.84271: (Sim:0h36m54s) 
CPU  0 inst:  559000002 cyc:  406661985 now IPC :1.40356: AVG IPC :1.37301: L2-Pf-HR :0.86034: L2-HR :0.84266: (Sim:0h36m58s) 
CPU  0 inst:  560000000 cyc:  407373822 now IPC :1.40481: AVG IPC :1.37306: L2-Pf-HR :0.86030: L2-HR :0.84261: (Sim:0h37m2s) 
CPU  0 inst:  561000001 cyc:  408241528 now IPC :1.15247: AVG IPC :1.37259: L2-Pf-HR :0.86028: L2-HR :0.84256: (Sim:0h37m8s) 
CPU  0 inst:  562000003 cyc:  408953261 now IPC :1.40502: AVG IPC :1.37265: L2-Pf-HR :0.86030: L2-HR :0.84257: (Sim:0h37m13s) 
CPU  0 inst:  563000000 cyc:  409662858 now IPC :1.40925: AVG IPC :1.37271: L2-Pf-HR :0.86031: L2-HR :0.84256: (Sim:0h37m19s) 
CPU  0 inst:  564000000 cyc:  410376080 now IPC :1.40209: AVG IPC :1.37276: L2-Pf-HR :0.86031: L2-HR :0.84256: (Sim:0h37m24s) 
CPU  0 inst:  565000002 cyc:  411084046 now IPC :1.41250: AVG IPC :1.37283: L2-Pf-HR :0.86031: L2-HR :0.84255: (Sim:0h37m29s) 
CPU  0 inst:  566000003 cyc:  411787072 now IPC :1.42242: AVG IPC :1.37292: L2-Pf-HR :0.86033: L2-HR :0.84256: (Sim:0h37m34s) 
CPU  0 inst:  567000001 cyc:  412476604 now IPC :1.45026: AVG IPC :1.37305: L2-Pf-HR :0.86043: L2-HR :0.84264: (Sim:0h37m40s) 
CPU  0 inst:  568000000 cyc:  413163904 now IPC :1.45497: AVG IPC :1.37318: L2-Pf-HR :0.86052: L2-HR :0.84271: (Sim:0h37m44s) 
CPU  0 inst:  569000003 cyc:  414150127 now IPC :1.01397: AVG IPC :1.37233: L2-Pf-HR :0.86048: L2-HR :0.84262: (Sim:0h37m50s) 
CPU  0 inst:  570000001 cyc:  414894945 now IPC :1.34261: AVG IPC :1.37227: L2-Pf-HR :0.86044: L2-HR :0.84255: (Sim:0h37m55s) 
CPU  0 inst:  571000000 cyc:  415630272 now IPC :1.35994: AVG IPC :1.37225: L2-Pf-HR :0.86039: L2-HR :0.84249: (Sim:0h38m0s) 
CPU  0 inst:  572000000 cyc:  416378270 now IPC :1.33690: AVG IPC :1.37219: L2-Pf-HR :0.86035: L2-HR :0.84242: (Sim:0h38m5s) 
CPU  0 inst:  573000000 cyc:  417119206 now IPC :1.34964: AVG IPC :1.37215: L2-Pf-HR :0.86030: L2-HR :0.84236: (Sim:0h38m10s) 
CPU  0 inst:  574000001 cyc:  417868144 now IPC :1.33523: AVG IPC :1.37208: L2-Pf-HR :0.86026: L2-HR :0.84229: (Sim:0h38m15s) 
CPU  0 inst:  575000002 cyc:  418624785 now IPC :1.32163: AVG IPC :1.37199: L2-Pf-HR :0.86021: L2-HR :0.84223: (Sim:0h38m19s) 
CPU  0 inst:  576000000 cyc:  419373132 now IPC :1.33628: AVG IPC :1.37192: L2-Pf-HR :0.86017: L2-HR :0.84216: (Sim:0h38m24s) 
CPU  0 inst:  577000001 cyc:  420130046 now IPC :1.32116: AVG IPC :1.37183: L2-Pf-HR :0.86013: L2-HR :0.84210: (Sim:0h38m29s) 
CPU  0 inst:  578000001 cyc:  420876369 now IPC :1.33990: AVG IPC :1.37178: L2-Pf-HR :0.86008: L2-HR :0.84204: (Sim:0h38m33s) 
CPU  0 inst:  579000002 cyc:  421637020 now IPC :1.31466: AVG IPC :1.37167: L2-Pf-HR :0.86004: L2-HR :0.84198: (Sim:0h38m37s) 
CPU  0 inst:  580000000 cyc:  422397589 now IPC :1.31480: AVG IPC :1.37157: L2-Pf-HR :0.85999: L2-HR :0.84192: (Sim:0h38m42s) 
CPU  0 inst:  581000000 cyc:  423355739 now IPC :1.04368: AVG IPC :1.37083: L2-Pf-HR :0.85992: L2-HR :0.84180: (Sim:0h38m47s) 
CPU  0 inst:  582000001 cyc:  424069167 now IPC :1.40168: AVG IPC :1.37088: L2-Pf-HR :0.85987: L2-HR :0.84175: (Sim:0h38m51s) 
CPU  0 inst:  583000001 cyc:  424782193 now IPC :1.40247: AVG IPC :1.37093: L2-Pf-HR :0.85982: L2-HR :0.84170: (Sim:0h38m56s) 
CPU  0 inst:  584000000 cyc:  425498925 now IPC :1.39522: AVG IPC :1.37097: L2-Pf-HR :0.85978: L2-HR :0.84165: (Sim:0h39m1s) 
CPU  0 inst:  585000003 cyc:  426216082 now IPC :1.39440: AVG IPC :1.37101: L2-Pf-HR :0.85973: L2-HR :0.84160: (Sim:0h39m6s) 
CPU  0 inst:  586000002 cyc:  426930553 now IPC :1.39964: AVG IPC :1.37106: L2-Pf-HR :0.85969: L2-HR :0.84155: (Sim:0h39m11s) 
CPU  0 inst:  587000001 cyc:  427643554 now IPC :1.40252: AVG IPC :1.37111: L2-Pf-HR :0.85964: L2-HR :0.84150: (Sim:0h39m16s) 
CPU  0 inst:  588000000 cyc:  428358344 now IPC :1.39901: AVG IPC :1.37116: L2-Pf-HR :0.85960: L2-HR :0.84145: (Sim:0h39m21s) 
CPU  0 inst:  589000000 cyc:  429069884 now IPC :1.40540: AVG IPC :1.37122: L2-Pf-HR :0.85955: L2-HR :0.84140: (Sim:0h39m26s) 
CPU  0 inst:  590000001 cyc:  429783530 now IPC :1.40126: AVG IPC :1.37127: L2-Pf-HR :0.85951: L2-HR :0.84135: (Sim:0h39m32s) 
CPU  0 inst:  591000003 cyc:  430491668 now IPC :1.41216: AVG IPC :1.37133: L2-Pf-HR :0.85946: L2-HR :0.84131: (Sim:0h39m37s) 
CPU  0 inst:  592000000 cyc:  431334554 now IPC :1.18640: AVG IPC :1.37097: L2-Pf-HR :0.85940: L2-HR :0.84121: (Sim:0h39m43s) 
CPU  0 inst:  593000001 cyc:  432065455 now IPC :1.36818: AVG IPC :1.37097: L2-Pf-HR :0.85943: L2-HR :0.84123: (Sim:0h39m47s) 
CPU  0 inst:  594000003 cyc:  432777761 now IPC :1.40389: AVG IPC :1.37102: L2-Pf-HR :0.85944: L2-HR :0.84123: (Sim:0h39m53s) 
CPU  0 inst:  595000001 cyc:  433487277 now IPC :1.40941: AVG IPC :1.37108: L2-Pf-HR :0.85944: L2-HR :0.84123: (Sim:0h39m57s) 
CPU  0 inst:  596000000 cyc:  434198590 now IPC :1.40585: AVG IPC :1.37114: L2-Pf-HR :0.85944: L2-HR :0.84121: (Sim:0h40m1s) 
CPU  0 inst:  597000002 cyc:  434905397 now IPC :1.41482: AVG IPC :1.37121: L2-Pf-HR :0.85944: L2-HR :0.84120: (Sim:0h40m6s) 
CPU  0 inst:  598000000 cyc:  435602391 now IPC :1.43473: AVG IPC :1.37131: L2-Pf-HR :0.85950: L2-HR :0.84125: (Sim:0h40m10s) 
CPU  0 inst:  599000002 cyc:  436287377 now IPC :1.45989: AVG IPC :1.37145: L2-Pf-HR :0.85958: L2-HR :0.84131: (Sim:0h40m14s) 
CPU  0 inst:  600000000 cyc:  437223751 now IPC :1.06795: AVG IPC :1.37080: L2-Pf-HR :0.85962: L2-HR :0.84130: (Sim:0h40m18s) 
CPU  0 inst:  601000000 cyc:  437987523 now IPC :1.30929: AVG IPC :1.37069: L2-Pf-HR :0.85957: L2-HR :0.84124: (Sim:0h40m22s) 
CPU  0 inst:  602000000 cyc:  438724341 now IPC :1.35719: AVG IPC :1.37067: L2-Pf-HR :0.85953: L2-HR :0.84117: (Sim:0h40m26s) 
CPU  0 inst:  603000001 cyc:  439480275 now IPC :1.32287: AVG IPC :1.37059: L2-Pf-HR :0.85948: L2-HR :0.84111: (Sim:0h40m31s) 
CPU  0 inst:  604000000 cyc:  440218757 now IPC :1.35413: AVG IPC :1.37056: L2-Pf-HR :0.85944: L2-HR :0.84104: (Sim:0h40m37s) 
CPU  0 inst:  605000002 cyc:  440972292 now IPC :1.32708: AVG IPC :1.37049: L2-Pf-HR :0.85939: L2-HR :0.84097: (Sim:0h40m42s) 
CPU  0 inst:  606000000 cyc:  441731862 now IPC :1.31653: AVG IPC :1.37039: L2-Pf-HR :0.85935: L2-HR :0.84091: (Sim:0h40m48s) 
CPU  0 inst:  607000003 cyc:  442476089 now IPC :1.34368: AVG IPC :1.37035: L2-Pf-HR :0.85930: L2-HR :0.84084: (Sim:0h40m52s) 
CPU  0 inst:  608000000 cyc:  443236121 now IPC :1.31573: AVG IPC :1.37026: L2-Pf-HR :0.85926: L2-HR :0.84078: (Sim:0h40m57s) 
CPU  0 inst:  609000003 cyc:  443984858 now IPC :1.33559: AVG IPC :1.37020: L2-Pf-HR :0.85921: L2-HR :0.84072: (Sim:0h41m2s) 
CPU  0 inst:  610000003 cyc:  444743036 now IPC :1.31895: AVG IPC :1.37011: L2-Pf-HR :0.85917: L2-HR :0.84066: (Sim:0h41m6s) 
CPU  0 inst:  611000000 cyc:  445505290 now IPC :1.31189: AVG IPC :1.37001: L2-Pf-HR :0.85913: L2-HR :0.84060: (Sim:0h41m10s) 
CPU  0 inst:  612000000 cyc:  446478110 now IPC :1.02794: AVG IPC :1.36926: L2-Pf-HR :0.85905: L2-HR :0.84049: (Sim:0h41m16s) 
CPU  0 inst:  613000002 cyc:  447200673 now IPC :1.38397: AVG IPC :1.36929: L2-Pf-HR :0.85901: L2-HR :0.84044: (Sim:0h41m21s) 
CPU  0 inst:  614000000 cyc:  447916155 now IPC :1.39766: AVG IPC :1.36933: L2-Pf-HR :0.85897: L2-HR :0.84040: (Sim:0h41m26s) 
CPU  0 inst:  615000000 cyc:  448632244 now IPC :1.39647: AVG IPC :1.36937: L2-Pf-HR :0.85892: L2-HR :0.84035: (Sim:0h41m31s) 
CPU  0 inst:  616000000 cyc:  449346014 now IPC :1.40101: AVG IPC :1.36943: L2-Pf-HR :0.85888: L2-HR :0.84030: (Sim:0h41m36s) 
CPU  0 inst:  617000003 cyc:  450061862 now IPC :1.39695: AVG IPC :1.36947: L2-Pf-HR :0.85884: L2-HR :0.84026: (Sim:0h41m40s) 
CPU  0 inst:  618000002 cyc:  450776975 now IPC :1.39838: AVG IPC :1.36952: L2-Pf-HR :0.85880: L2-HR :0.84021: (Sim:0h41m44s) 
CPU  0 inst:  619000000 cyc:  451489547 now IPC :1.40336: AVG IPC :1.36957: L2-Pf-HR :0.85875: L2-HR :0.84016: (Sim:0h41m50s) 
CPU  0 inst:  620000000 cyc:  452203080 now IPC :1.40148: AVG IPC :1.36962: L2-Pf-HR :0.85871: L2-HR :0.84011: (Sim:0h41m55s) 
CPU  0 inst:  621000002 cyc:  452916705 now IPC :1.40130: AVG IPC :1.36967: L2-Pf-HR :0.85866: L2-HR :0.84007: (Sim:0h42m0s) 
CPU  0 inst:  622000000 cyc:  453628821 now IPC :1.40426: AVG IPC :1.36972: L2-Pf-HR :0.85862: L2-HR :0.84002: (Sim:0h42m5s) 
CPU  0 inst:  623000003 cyc:  454340300 now IPC :1.40553: AVG IPC :1.36978: L2-Pf-HR :0.85858: L2-HR :0.83998: (Sim:0h42m10s) 
CPU  0 inst:  624000000 cyc:  455208153 now IPC :1.15227: AVG IPC :1.36936: L2-Pf-HR :0.85855: L2-HR :0.83992: (Sim:0h42m16s) 
CPU  0 inst:  625000003 cyc:  455920638 now IPC :1.40354: AVG IPC :1.36942: L2-Pf-HR :0.85857: L2-HR :0.83993: (Sim:0h42m21s) 
CPU  0 inst:  626000003 cyc:  456631460 now IPC :1.40682: AVG IPC :1.36948: L2-Pf-HR :0.85857: L2-HR :0.83993: (Sim:0h42m27s) 
CPU  0 inst:  627000003 cyc:  457344133 now IPC :1.40317: AVG IPC :1.36953: L2-Pf-HR :0.85857: L2-HR :0.83992: (Sim:0h42m32s) 
[...]
CPU  0 inst: 2241000001 cyc: 2873838064 now IPC :1.53192: AVG IPC :0.77936: L2-Pf-HR :0.81007: L2-HR :0.71948: (Sim:3h30m29s) 
CPU  0 inst: 2242000003 cyc: 2874530078 now IPC :1.44506: AVG IPC :0.77952: L2-Pf-HR :0.81003: L2-HR :0.71942: (Sim:3h30m33s) 
CPU  0 inst: 2243000002 cyc: 2875308984 now IPC :1.28385: AVG IPC :0.77966: L2-Pf-HR :0.80998: L2-HR :0.71935: (Sim:3h30m37s) 
CPU  0 inst: 2244000000 cyc: 2876291795 now IPC :1.01749: AVG IPC :0.77974: L2-Pf-HR :0.80993: L2-HR :0.71926: (Sim:3h30m42s) 
CPU  0 inst: 2245000002 cyc: 2876989910 now IPC :1.43243: AVG IPC :0.77990: L2-Pf-HR :0.80989: L2-HR :0.71921: (Sim:3h30m46s) 
CPU  0 inst: 2246000002 cyc: 2877762498 now IPC :1.29435: AVG IPC :0.78004: L2-Pf-HR :0.80985: L2-HR :0.71914: (Sim:3h30m51s) 
CPU  0 inst: 2247000003 cyc: 2878547350 now IPC :1.27413: AVG IPC :0.78017: L2-Pf-HR :0.80981: L2-HR :0.71908: (Sim:3h30m55s) 
CPU  0 inst: 2248000000 cyc: 2879200231 now IPC :1.53167: AVG IPC :0.78034: L2-Pf-HR :0.80977: L2-HR :0.71904: (Sim:3h30m59s) 
CPU  0 inst: 2249000000 cyc: 2880009721 now IPC :1.23535: AVG IPC :0.78047: L2-Pf-HR :0.80972: L2-HR :0.71896: (Sim:3h31m3s) 
CPU  0 inst: 2250000000 cyc: 2880881417 now IPC :1.14719: AVG IPC :0.78058: L2-Pf-HR :0.80968: L2-HR :0.71887: (Sim:3h31m8s) 
CPU  0 inst: 2251000001 cyc: 2881657607 now IPC :1.28835: AVG IPC :0.78072: L2-Pf-HR :0.80964: L2-HR :0.71881: (Sim:3h31m12s) 
CPU  0 inst: 2252000000 cyc: 2882331639 now IPC :1.48361: AVG IPC :0.78088: L2-Pf-HR :0.80960: L2-HR :0.71877: (Sim:3h31m16s) 
CPU  0 inst: 2253000002 cyc: 2883201324 now IPC :1.14984: AVG IPC :0.78100: L2-Pf-HR :0.80955: L2-HR :0.71868: (Sim:3h31m21s) 
CPU  0 inst: 2254000002 cyc: 2883833212 now IPC :1.58256: AVG IPC :0.78117: L2-Pf-HR :0.80952: L2-HR :0.71864: (Sim:3h31m25s) 
CPU  0 inst: 2255000001 cyc: 2884628833 now IPC :1.25688: AVG IPC :0.78130: L2-Pf-HR :0.80947: L2-HR :0.71857: (Sim:3h31m29s) 
CPU  0 inst: 2256000000 cyc: 2885268137 now IPC :1.56420: AVG IPC :0.78148: L2-Pf-HR :0.80943: L2-HR :0.71852: (Sim:3h31m33s) 
CPU  0 inst: 2257000001 cyc: 2886235532 now IPC :1.03370: AVG IPC :0.78156: L2-Pf-HR :0.80938: L2-HR :0.71842: (Sim:3h31m38s) 
CPU  0 inst: 2258000003 cyc: 2886885689 now IPC :1.53809: AVG IPC :0.78173: L2-Pf-HR :0.80934: L2-HR :0.71838: (Sim:3h31m42s) 
CPU  0 inst: 2259000002 cyc: 2887767596 now IPC :1.13391: AVG IPC :0.78184: L2-Pf-HR :0.80930: L2-HR :0.71829: (Sim:3h31m47s) 
CPU  0 inst: 2260000000 cyc: 2888393145 now IPC :1.59859: AVG IPC :0.78202: L2-Pf-HR :0.80926: L2-HR :0.71825: (Sim:3h31m50s) 
CPU  0 inst: 2261000002 cyc: 2889052435 now IPC :1.51679: AVG IPC :0.78218: L2-Pf-HR :0.80922: L2-HR :0.71820: (Sim:3h31m54s) 
CPU  0 inst: 2262000002 cyc: 2889824988 now IPC :1.29441: AVG IPC :0.78232: L2-Pf-HR :0.80917: L2-HR :0.71812: (Sim:3h31m58s) 
CPU  0 inst: 2263000001 cyc: 2890567846 now IPC :1.34615: AVG IPC :0.78247: L2-Pf-HR :0.80914: L2-HR :0.71808: (Sim:3h32m3s) 
CPU  0 inst: 2264000000 cyc: 2891237564 now IPC :1.49316: AVG IPC :0.78263: L2-Pf-HR :0.80913: L2-HR :0.71809: (Sim:3h32m7s) 
CPU  0 inst: 2265000002 cyc: 2892210715 now IPC :1.02759: AVG IPC :0.78271: L2-Pf-HR :0.80913: L2-HR :0.71808: (Sim:3h32m11s) 
CPU  0 inst: 2266000003 cyc: 2892965186 now IPC :1.32543: AVG IPC :0.78285: L2-Pf-HR :0.80910: L2-HR :0.71803: (Sim:3h32m15s) 
CPU  0 inst: 2267000002 cyc: 2893715114 now IPC :1.33346: AVG IPC :0.78300: L2-Pf-HR :0.80907: L2-HR :0.71798: (Sim:3h32m19s) 
CPU  0 inst: 2268000000 cyc: 2894697018 now IPC :1.01843: AVG IPC :0.78308: L2-Pf-HR :0.80903: L2-HR :0.71790: (Sim:3h32m23s) 
CPU  0 inst: 2269000001 cyc: 2895410705 now IPC :1.40118: AVG IPC :0.78323: L2-Pf-HR :0.80900: L2-HR :0.71785: (Sim:3h32m27s) 
CPU  0 inst: 2270000001 cyc: 2896310530 now IPC :1.11133: AVG IPC :0.78333: L2-Pf-HR :0.80896: L2-HR :0.71778: (Sim:3h32m31s) 
CPU  0 inst: 2271000001 cyc: 2897042152 now IPC :1.36683: AVG IPC :0.78348: L2-Pf-HR :0.80892: L2-HR :0.71772: (Sim:3h32m35s) 
CPU  0 inst: 2272000000 cyc: 2898029175 now IPC :1.01315: AVG IPC :0.78356: L2-Pf-HR :0.80888: L2-HR :0.71763: (Sim:3h32m40s) 
CPU  0 inst: 2273000001 cyc: 2898734742 now IPC :1.41730: AVG IPC :0.78371: L2-Pf-HR :0.80884: L2-HR :0.71758: (Sim:3h32m44s) 
CPU  0 inst: 2274000001 cyc: 2899651398 now IPC :1.09092: AVG IPC :0.78381: L2-Pf-HR :0.80880: L2-HR :0.71750: (Sim:3h32m49s) 
CPU  0 inst: 2275000000 cyc: 2900307268 now IPC :1.52469: AVG IPC :0.78398: L2-Pf-HR :0.80876: L2-HR :0.71746: (Sim:3h32m52s) 
CPU  0 inst: 2276000000 cyc: 2901131412 now IPC :1.21338: AVG IPC :0.78410: L2-Pf-HR :0.80871: L2-HR :0.71739: (Sim:3h32m57s) 
CPU  0 inst: 2277000002 cyc: 2901790709 now IPC :1.51677: AVG IPC :0.78426: L2-Pf-HR :0.80867: L2-HR :0.71733: (Sim:3h33m1s) 
CPU  0 inst: 2278000003 cyc: 2902780502 now IPC :1.01031: AVG IPC :0.78434: L2-Pf-HR :0.80862: L2-HR :0.71724: (Sim:3h33m6s) 
CPU  0 inst: 2279000000 cyc: 2903470015 now IPC :1.45029: AVG IPC :0.78450: L2-Pf-HR :0.80858: L2-HR :0.71719: (Sim:3h33m10s) 
CPU  0 inst: 2280000000 cyc: 2904392088 now IPC :1.08451: AVG IPC :0.78459: L2-Pf-HR :0.80854: L2-HR :0.71711: (Sim:3h33m15s) 
CPU  0 inst: 2281000001 cyc: 2905047235 now IPC :1.52638: AVG IPC :0.78476: L2-Pf-HR :0.80850: L2-HR :0.71707: (Sim:3h33m19s) 
CPU  0 inst: 2282000001 cyc: 2905697459 now IPC :1.53793: AVG IPC :0.78493: L2-Pf-HR :0.80846: L2-HR :0.71703: (Sim:3h33m22s) 
CPU  0 inst: 2283000002 cyc: 2906513232 now IPC :1.22583: AVG IPC :0.78505: L2-Pf-HR :0.80842: L2-HR :0.71695: (Sim:3h33m27s) 
CPU  0 inst: 2284000000 cyc: 2907482631 now IPC :1.03156: AVG IPC :0.78514: L2-Pf-HR :0.80837: L2-HR :0.71685: (Sim:3h33m32s) 
CPU  0 inst: 2285000002 cyc: 2908162499 now IPC :1.47088: AVG IPC :0.78530: L2-Pf-HR :0.80833: L2-HR :0.71681: (Sim:3h33m36s) 
CPU  0 inst: 2286000002 cyc: 2908840584 now IPC :1.47474: AVG IPC :0.78546: L2-Pf-HR :0.80829: L2-HR :0.71676: (Sim:3h33m40s) 
CPU  0 inst: 2287000000 cyc: 2909723098 now IPC :1.13312: AVG IPC :0.78556: L2-Pf-HR :0.80825: L2-HR :0.71668: (Sim:3h33m44s) 
CPU  0 inst: 2288000000 cyc: 2910357316 now IPC :1.57674: AVG IPC :0.78574: L2-Pf-HR :0.80821: L2-HR :0.71664: (Sim:3h33m48s) 
CPU  0 inst: 2289000003 cyc: 2911160385 now IPC :1.24523: AVG IPC :0.78586: L2-Pf-HR :0.80816: L2-HR :0.71656: (Sim:3h33m53s) 
CPU  0 inst: 2290000003 cyc: 2911807254 now IPC :1.54591: AVG IPC :0.78603: L2-Pf-HR :0.80812: L2-HR :0.71651: (Sim:3h33m56s) 
CPU  0 inst: 2291000000 cyc: 2912762660 now IPC :1.04667: AVG IPC :0.78612: L2-Pf-HR :0.80807: L2-HR :0.71642: (Sim:3h34m1s) 
CPU  0 inst: 2292000000 cyc: 2913422878 now IPC :1.51465: AVG IPC :0.78628: L2-Pf-HR :0.80803: L2-HR :0.71637: (Sim:3h34m5s) 
CPU  0 inst: 2293000001 cyc: 2914306839 now IPC :1.13127: AVG IPC :0.78639: L2-Pf-HR :0.80799: L2-HR :0.71629: (Sim:3h34m10s) 
CPU  0 inst: 2294000000 cyc: 2914935564 now IPC :1.59052: AVG IPC :0.78656: L2-Pf-HR :0.80795: L2-HR :0.71625: (Sim:3h34m13s) 
CPU  0 inst: 2295000002 cyc: 2915731796 now IPC :1.25592: AVG IPC :0.78669: L2-Pf-HR :0.80791: L2-HR :0.71618: (Sim:3h34m18s) 
CPU  0 inst: 2296000000 cyc: 2916372550 now IPC :1.56066: AVG IPC :0.78686: L2-Pf-HR :0.80786: L2-HR :0.71613: (Sim:3h34m21s) 
CPU  0 inst: 2297000000 cyc: 2917105484 now IPC :1.36438: AVG IPC :0.78700: L2-Pf-HR :0.80783: L2-HR :0.71609: (Sim:3h34m26s) 
CPU  0 inst: 2298000003 cyc: 2917781014 now IPC :1.48032: AVG IPC :0.78716: L2-Pf-HR :0.80783: L2-HR :0.71611: (Sim:3h34m29s) 
CPU  0 inst: 2299000003 cyc: 2918780743 now IPC :1.00027: AVG IPC :0.78724: L2-Pf-HR :0.80782: L2-HR :0.71608: (Sim:3h34m34s) 
CPU  0 inst: 2300000000 cyc: 2919536810 now IPC :1.32263: AVG IPC :0.78738: L2-Pf-HR :0.80779: L2-HR :0.71604: (Sim:3h34m38s) 
CPU  0 inst: 2301000003 cyc: 2920305381 now IPC :1.30112: AVG IPC :0.78751: L2-Pf-HR :0.80776: L2-HR :0.71598: (Sim:3h34m42s) 
CPU  0 inst: 2302000001 cyc: 2921253723 now IPC :1.05447: AVG IPC :0.78760: L2-Pf-HR :0.80772: L2-HR :0.71591: (Sim:3h34m47s) 
CPU  0 inst: 2303000002 cyc: 2921975873 now IPC :1.38476: AVG IPC :0.78775: L2-Pf-HR :0.80769: L2-HR :0.71586: (Sim:3h34m50s) 
CPU  0 inst: 2304000000 cyc: 2922865587 now IPC :1.12395: AVG IPC :0.78785: L2-Pf-HR :0.80765: L2-HR :0.71579: (Sim:3h34m55s) 
CPU  0 inst: 2305000000 cyc: 2923761245 now IPC :1.11650: AVG IPC :0.78795: L2-Pf-HR :0.80761: L2-HR :0.71571: (Sim:3h35m0s) 
CPU  0 inst: 2306000000 cyc: 2924595062 now IPC :1.19930: AVG IPC :0.78807: L2-Pf-HR :0.80757: L2-HR :0.71564: (Sim:3h35m4s) 
CPU  0 inst: 2307000001 cyc: 2925293250 now IPC :1.43228: AVG IPC :0.78822: L2-Pf-HR :0.80753: L2-HR :0.71559: (Sim:3h35m8s) 
CPU  0 inst: 2308000000 cyc: 2926206406 now IPC :1.09510: AVG IPC :0.78832: L2-Pf-HR :0.80748: L2-HR :0.71551: (Sim:3h35m13s) 
CPU  0 inst: 2309000000 cyc: 2926859889 now IPC :1.53026: AVG IPC :0.78848: L2-Pf-HR :0.80745: L2-HR :0.71547: (Sim:3h35m16s) 
CPU  0 inst: 2310000001 cyc: 2927684523 now IPC :1.21266: AVG IPC :0.78860: L2-Pf-HR :0.80740: L2-HR :0.71540: (Sim:3h35m21s) 
CPU  0 inst: 2311000001 cyc: 2928343205 now IPC :1.51818: AVG IPC :0.78877: L2-Pf-HR :0.80736: L2-HR :0.71535: (Sim:3h35m25s) 
CPU  0 inst: 2312000000 cyc: 2929338192 now IPC :1.00504: AVG IPC :0.78884: L2-Pf-HR :0.80731: L2-HR :0.71526: (Sim:3h35m30s) 
CPU  0 inst: 2313000003 cyc: 2930026525 now IPC :1.45279: AVG IPC :0.78899: L2-Pf-HR :0.80727: L2-HR :0.71521: (Sim:3h35m34s) 
CPU  0 inst: 2314000003 cyc: 2930953741 now IPC :1.07850: AVG IPC :0.78909: L2-Pf-HR :0.80723: L2-HR :0.71512: (Sim:3h35m39s) 
CPU  0 inst: 2315000001 cyc: 2931603879 now IPC :1.53813: AVG IPC :0.78925: L2-Pf-HR :0.80719: L2-HR :0.71509: (Sim:3h35m42s) 
CPU  0 inst: 2316000000 cyc: 2932274145 now IPC :1.49194: AVG IPC :0.78941: L2-Pf-HR :0.80715: L2-HR :0.71504: (Sim:3h35m46s) 
CPU  0 inst: 2317000000 cyc: 2933072103 now IPC :1.25320: AVG IPC :0.78954: L2-Pf-HR :0.80710: L2-HR :0.71497: (Sim:3h35m51s) 
CPU  0 inst: 2318000000 cyc: 2934042050 now IPC :1.03098: AVG IPC :0.78962: L2-Pf-HR :0.80705: L2-HR :0.71487: (Sim:3h35m56s) 
CPU  0 inst: 2319000001 cyc: 2934728496 now IPC :1.45678: AVG IPC :0.78978: L2-Pf-HR :0.80702: L2-HR :0.71483: (Sim:3h35m59s) 
CPU  0 inst: 2320000000 cyc: 2935458149 now IPC :1.37051: AVG IPC :0.78992: L2-Pf-HR :0.80697: L2-HR :0.71476: (Sim:3h36m3s) 
CPU  0 inst: 2321000002 cyc: 2936274838 now IPC :1.22446: AVG IPC :0.79004: L2-Pf-HR :0.80693: L2-HR :0.71470: (Sim:3h36m8s) 
CPU  0 inst: 2322000001 cyc: 2936910941 now IPC :1.57207: AVG IPC :0.79021: L2-Pf-HR :0.80689: L2-HR :0.71466: (Sim:3h36m11s) 
CPU  0 inst: 2323000002 cyc: 2937711950 now IPC :1.24843: AVG IPC :0.79034: L2-Pf-HR :0.80685: L2-HR :0.71458: (Sim:3h36m16s) 
CPU  0 inst: 2324000000 cyc: 2938529021 now IPC :1.22388: AVG IPC :0.79046: L2-Pf-HR :0.80680: L2-HR :0.71451: (Sim:3h36m20s) 
CPU  0 inst: 2325000000 cyc: 2939321966 now IPC :1.26112: AVG IPC :0.79058: L2-Pf-HR :0.80676: L2-HR :0.71444: (Sim:3h36m25s) 
CPU  0 inst: 2326000000 cyc: 2939972858 now IPC :1.53635: AVG IPC :0.79075: L2-Pf-HR :0.80672: L2-HR :0.71439: (Sim:3h36m28s) 
CPU  0 inst: 2327000001 cyc: 2940859011 now IPC :1.12847: AVG IPC :0.79085: L2-Pf-HR :0.80668: L2-HR :0.71431: (Sim:3h36m33s) 
CPU  0 inst: 2328000000 cyc: 2941486130 now IPC :1.59459: AVG IPC :0.79102: L2-Pf-HR :0.80664: L2-HR :0.71428: (Sim:3h36m37s) 
CPU  0 inst: 2329000000 cyc: 2942285984 now IPC :1.25023: AVG IPC :0.79115: L2-Pf-HR :0.80660: L2-HR :0.71420: (Sim:3h36m41s) 
CPU  0 inst: 2330000002 cyc: 2942924666 now IPC :1.56573: AVG IPC :0.79131: L2-Pf-HR :0.80655: L2-HR :0.71415: (Sim:3h36m45s) 
CPU  0 inst: 2331000001 cyc: 2943658390 now IPC :1.36291: AVG IPC :0.79146: L2-Pf-HR :0.80653: L2-HR :0.71413: (Sim:3h36m49s) 
CPU  0 inst: 2332000000 cyc: 2944380379 now IPC :1.38506: AVG IPC :0.79160: L2-Pf-HR :0.80653: L2-HR :0.71415: (Sim:3h36m53s) 
CPU  0 inst: 2333000000 cyc: 2945359875 now IPC :1.02093: AVG IPC :0.79168: L2-Pf-HR :0.80652: L2-HR :0.71412: (Sim:3h36m57s) 
CPU  0 inst: 2334000001 cyc: 2946102702 now IPC :1.34621: AVG IPC :0.79182: L2-Pf-HR :0.80648: L2-HR :0.71407: (Sim:3h37m1s) 
CPU  0 inst: 2335000000 cyc: 2947103670 now IPC :0.99903: AVG IPC :0.79189: L2-Pf-HR :0.80644: L2-HR :0.71398: (Sim:3h37m6s) 
CPU  0 inst: 2336000000 cyc: 2947830393 now IPC :1.37604: AVG IPC :0.79203: L2-Pf-HR :0.80641: L2-HR :0.71394: (Sim:3h37m9s) 
CPU  0 inst: 2337000003 cyc: 2948545512 now IPC :1.39837: AVG IPC :0.79218: L2-Pf-HR :0.80638: L2-HR :0.71390: (Sim:3h37m13s) 
CPU  0 inst: 2338000002 cyc: 2949442940 now IPC :1.11429: AVG IPC :0.79228: L2-Pf-HR :0.80634: L2-HR :0.71382: (Sim:3h37m17s) 
CPU  0 inst: 2339000000 cyc: 2950460203 now IPC :0.98303: AVG IPC :0.79234: L2-Pf-HR :0.80630: L2-HR :0.71373: (Sim:3h37m23s) 
CPU  0 inst: 2340000000 cyc: 2951162035 now IPC :1.42484: AVG IPC :0.79249: L2-Pf-HR :0.80626: L2-HR :0.71368: (Sim:3h37m26s) 
CPU  0 inst: 2341000001 cyc: 2951860751 now IPC :1.43120: AVG IPC :0.79265: L2-Pf-HR :0.80622: L2-HR :0.71363: (Sim:3h37m30s) 
CPU  0 inst: 2342000003 cyc: 2952763881 now IPC :1.10726: AVG IPC :0.79274: L2-Pf-HR :0.80617: L2-HR :0.71356: (Sim:3h37m35s) 
CPU  0 inst: 2343000000 cyc: 2953418407 now IPC :1.52782: AVG IPC :0.79290: L2-Pf-HR :0.80614: L2-HR :0.71352: (Sim:3h37m39s) 
CPU  0 inst: 2344000000 cyc: 2954244328 now IPC :1.21077: AVG IPC :0.79302: L2-Pf-HR :0.80609: L2-HR :0.71344: (Sim:3h37m43s) 
CPU  0 inst: 2345000000 cyc: 2954907913 now IPC :1.50697: AVG IPC :0.79318: L2-Pf-HR :0.80605: L2-HR :0.71339: (Sim:3h37m47s) 
CPU  0 inst: 2346000003 cyc: 2955902292 now IPC :1.00566: AVG IPC :0.79325: L2-Pf-HR :0.80600: L2-HR :0.71331: (Sim:3h37m52s) 
CPU  0 inst: 2347000002 cyc: 2956607617 now IPC :1.41778: AVG IPC :0.79340: L2-Pf-HR :0.80596: L2-HR :0.71326: (Sim:3h37m56s) 
CPU  0 inst: 2348000000 cyc: 2957521473 now IPC :1.09426: AVG IPC :0.79350: L2-Pf-HR :0.80592: L2-HR :0.71318: (Sim:3h38m1s) 
CPU  0 inst: 2349000002 cyc: 2958172235 now IPC :1.53666: AVG IPC :0.79366: L2-Pf-HR :0.80588: L2-HR :0.71314: (Sim:3h38m4s) 
CPU  0 inst: 2350000002 cyc: 2958986994 now IPC :1.22736: AVG IPC :0.79378: L2-Pf-HR :0.80584: L2-HR :0.71307: (Sim:3h38m9s) 
CPU  0 inst: 2351000001 cyc: 2959639817 now IPC :1.53181: AVG IPC :0.79394: L2-Pf-HR :0.80579: L2-HR :0.71302: (Sim:3h38m13s) 
CPU  0 inst: 2352000000 cyc: 2960625611 now IPC :1.01441: AVG IPC :0.79401: L2-Pf-HR :0.80575: L2-HR :0.71293: (Sim:3h38m18s) 
CPU  0 inst: 2353000002 cyc: 2961306099 now IPC :1.46954: AVG IPC :0.79417: L2-Pf-HR :0.80571: L2-HR :0.71288: (Sim:3h38m22s) 
CPU  0 inst: 2354000001 cyc: 2962216431 now IPC :1.09850: AVG IPC :0.79426: L2-Pf-HR :0.80567: L2-HR :0.71280: (Sim:3h38m27s) 
CPU  0 inst: 2355000000 cyc: 2962856192 now IPC :1.56308: AVG IPC :0.79443: L2-Pf-HR :0.80563: L2-HR :0.71276: (Sim:3h38m31s) 
CPU  0 inst: 2356000000 cyc: 2963488661 now IPC :1.58111: AVG IPC :0.79460: L2-Pf-HR :0.80559: L2-HR :0.71272: (Sim:3h38m34s) 
CPU  0 inst: 2357000003 cyc: 2964299980 now IPC :1.23256: AVG IPC :0.79472: L2-Pf-HR :0.80554: L2-HR :0.71265: (Sim:3h38m39s) 
CPU  0 inst: 2358000001 cyc: 2965256346 now IPC :1.04562: AVG IPC :0.79480: L2-Pf-HR :0.80550: L2-HR :0.71255: (Sim:3h38m44s) 
CPU  0 inst: 2359000001 cyc: 2965913355 now IPC :1.52205: AVG IPC :0.79496: L2-Pf-HR :0.80546: L2-HR :0.71251: (Sim:3h38m47s) 
CPU  0 inst: 2360000000 cyc: 2966568987 now IPC :1.52524: AVG IPC :0.79512: L2-Pf-HR :0.80542: L2-HR :0.71246: (Sim:3h38m51s) 
CPU  0 inst: 2361000001 cyc: 2967453274 now IPC :1.13086: AVG IPC :0.79522: L2-Pf-HR :0.80538: L2-HR :0.71238: (Sim:3h38m56s) 
CPU  0 inst: 2362000003 cyc: 2968079470 now IPC :1.59695: AVG IPC :0.79539: L2-Pf-HR :0.80534: L2-HR :0.71235: (Sim:3h38m59s) 
CPU  0 inst: 2363000003 cyc: 2968886392 now IPC :1.23928: AVG IPC :0.79551: L2-Pf-HR :0.80530: L2-HR :0.71227: (Sim:3h39m4s) 
Finished CPU 0 instr: 2361000003 cyc: 2967903632 AVG IPC: 0.79551 (Sim time: 3h39m4s)

ChampSim completed all CPUs

[ROI Statistics]
Core_0_instructions 2361000003
Core_0_cycles 2967903632
Core_0_IPC 0.79551

Core_0_branch_prediction_accuracy 98.59504
Core_0_branch_MPKI 0.33667
Core_0_average_ROB_occupancy_at_mispredict 250.97120

Core_0_L1D_total_access 584216104
Core_0_L1D_total_hit 537587838 L1D_total_Hit Ratio: 0.92019
Core_0_L1D_total_miss 46628266
Core_0_L1D_loads 536228248
Core_0_L1D_load_hit 492294727 L1D_load_Hit Ratio: 0.91807
Core_0_L1D_load_miss 43933521
Core_0_L1D_RFOs 45722988
Core_0_L1D_RFO_hit 43028243 L1D_RFO_Hit Ratio: 0.94106
Core_0_L1D_RFO_miss 2694745
Core_0_L1D_prefetches 2264868
Core_0_L1D_prefetch_hit 2264868 L1D_prefetch_Hit Ratio: 1.00000
Core_0_L1D_prefetch_miss 0
Core_0_L1D_writebacks 0
Core_0_L1D_writeback_hit 0 L1D_writeback_Hit Ratio: -nan
Core_0_L1D_writeback_miss 0
Core_0_L1D_prefetch_requested 167339947
Core_0_L1D_prefetch_issued 91414450
Core_0_L1D_prefetch_useful 0 L1D_Useful Ratio: 0.00000
Core_0_L1D_prefetch_useless 0
Core_0_L1D_prefetch_late 0
Core_0_L1D_average_miss_latency 103.66961

Core_0_L1I_total_access 540102079
Core_0_L1I_total_hit 540097162 L1I_total_Hit Ratio: 0.99999
Core_0_L1I_total_miss 4917
Core_0_L1I_loads 540102079
Core_0_L1I_load_hit 540097162 L1I_load_Hit Ratio: 0.99999
Core_0_L1I_load_miss 4917
Core_0_L1I_RFOs 0
Core_0_L1I_RFO_hit 0 L1I_RFO_Hit Ratio: -nan
Core_0_L1I_RFO_miss 0
Core_0_L1I_prefetches 0
Core_0_L1I_prefetch_hit 0 L1I_prefetch_Hit Ratio: -nan
Core_0_L1I_prefetch_miss 0
Core_0_L1I_writebacks 0
Core_0_L1I_writeback_hit 0 L1I_writeback_Hit Ratio: -nan
Core_0_L1I_writeback_miss 0
Core_0_L1I_prefetch_requested 0
Core_0_L1I_prefetch_issued 0
Core_0_L1I_prefetch_useful 0 L1I_Useful Ratio: -nan
Core_0_L1I_prefetch_useless 0
Core_0_L1I_prefetch_late 0
Core_0_L1I_average_miss_latency 271.99512

Core_0_L2C_total_access 138670146
Core_0_L2C_total_hit 98770721 L2C_total_Hit Ratio: 0.71227
Core_0_L2C_total_miss 39899425
Core_0_L2C_loads 43938399
Core_0_L2C_load_hit 22088564 L2C_load_Hit Ratio: 0.50272
Core_0_L2C_load_miss 21849835
Core_0_L2C_RFOs 2694745
Core_0_L2C_RFO_hit 477788 L2C_RFO_Hit Ratio: 0.17730
Core_0_L2C_RFO_miss 2216957
Core_0_L2C_prefetches 80001409
Core_0_L2C_prefetch_hit 64424865 L2C_prefetch_Hit Ratio: 0.80530
Core_0_L2C_prefetch_miss 15576544
Core_0_L2C_writebacks 12035593
Core_0_L2C_writeback_hit 11779504 L2C_writeback_Hit Ratio: 0.97872
Core_0_L2C_writeback_miss 256089
Core_0_L2C_prefetch_requested 65161330
Core_0_L2C_prefetch_issued 16595954
Core_0_L2C_prefetch_useful 15590733 L2C_Useful Ratio: 0.93943
Core_0_L2C_prefetch_useless 5944
Core_0_L2C_prefetch_late 2652878
Core_0_L2C_average_miss_latency 119.40781

Core_0_LLC_total_access 61147901
Core_0_LLC_total_hit 48219402 LLC_total_Hit Ratio: 0.78857
Core_0_LLC_total_miss 12928499
Core_0_LLC_loads 19196941
Core_0_LLC_load_hit 9149588 LLC_load_Hit Ratio: 0.47662
Core_0_LLC_load_miss 10047353
Core_0_LLC_RFOs 2216956
Core_0_LLC_RFO_hit 112460 LLC_RFO_Hit Ratio: 0.05073
Core_0_LLC_RFO_miss 2104496
Core_0_LLC_prefetches 27867434
Core_0_LLC_prefetch_hit 27092330 LLC_prefetch_Hit Ratio: 0.97219
Core_0_LLC_prefetch_miss 775104
Core_0_LLC_writebacks 11866570
Core_0_LLC_writeback_hit 11865024 LLC_writeback_Hit Ratio: 0.99987
Core_0_LLC_writeback_miss 1546
Core_0_LLC_prefetch_requested 0
Core_0_LLC_prefetch_issued 0
Core_0_LLC_prefetch_useful 261080 LLC_Useful Ratio: inf
Core_0_LLC_prefetch_useless 510882
Core_0_LLC_prefetch_late 3470
Core_0_LLC_average_miss_latency 281.44345

Core_0_major_page_fault 0
Core_0_minor_page_fault 83038

CPU 0 L1D next line prefetcher final stats
Prefetcher final stats
Training Unit Size: 4775
Addr table size: 5242144 5242158


Triggers: 21867212
No Prediction: 5885310 26.91386
Stream end: 10035524
No translation: 1481510314 6775.03064
Predictions: 16595954 75.89424


Stream divergence: 1803186 8.24607
Stream divergence -- new stream: 0
Channel_0_RQ_row_buffer_hit 7078212
Channel_0_RQ_row_buffer_miss 5847033
Channel_0_WQ_row_buffer_hit 2534501
Channel_0_WQ_row_buffer_miss 4808801
Channel_0_WQ_full 0
Channel_0_dbus_congested 6441388

avg_congested_cycle 11

EzSearch AVG IPC :0.79551: L2-Pf-HR :0.80530 : L2-HR :0.71227 Uful:0.93943
     > Finished combination: TraceType=770-tot Sim:2361000000 Prefetcher=L2isb_ideal L1=isb_ideal
