TRACE: [125000000][OPT-125M]_[h12][s512][d64] Warmup: 2000000 NumTraces: 125000000
L1:bingo_dpc3_PHT1k:L2:bingo_dpc3_PHT1k
*************************************************
   ChampSim Multicore Out-of-Order Simulator
   Last compiled: Oct 26 2024 13:50:51
*************************************************

trace_0 770-tot_memTraces_v3/memTraces[125000000][OPT-125M]_[h12][s512][d64].champsim.xz
Bingo PHT WAYS: 16 and PHT_SIZE: 1024
Bingo2 PHT WAYS: 16 and PHT_SIZE: 1024
MAIN.cc ln 751 stats print skipped
CPU  0 inst:    1000001 cyc:     502024 now IPC :1.99194: AVG IPC :1.99194: L2-Pf-HR :0.64866: L2-HR :0.59359: (Sim:0h0m4s) 
CPU  0 inst:    2000002 cyc:     976206 now IPC :2.10890: AVG IPC :2.04875: L2-Pf-HR :0.71080: L2-HR :0.64749: (Sim:0h0m9s) 

Warmup complete CPU  0 instructions:    2000002 cycles:     976206 (Simulation time: 0 hr 0 min 9 sec) 

CPU  0 inst:    3000001 cyc:    1659555 now IPC :1.46338: AVG IPC :1.46338: L2-Pf-HR :0.79704: L2-HR :0.70121: (Sim:0h0m13s) 
CPU  0 inst:    4000000 cyc:    2341010 now IPC :1.46745: AVG IPC :1.46541: L2-Pf-HR :0.79470: L2-HR :0.71210: (Sim:0h0m18s) 
CPU  0 inst:    5000003 cyc:    3071816 now IPC :1.36836: AVG IPC :1.43156: L2-Pf-HR :0.70196: L2-HR :0.66555: (Sim:0h0m23s) 
CPU  0 inst:    6000002 cyc:    3749959 now IPC :1.47461: AVG IPC :1.44209: L2-Pf-HR :0.70259: L2-HR :0.66497: (Sim:0h0m27s) 
CPU  0 inst:    7000003 cyc:    4436547 now IPC :1.45648: AVG IPC :1.44494: L2-Pf-HR :0.71146: L2-HR :0.66912: (Sim:0h0m32s) 
CPU  0 inst:    8000000 cyc:    5175022 now IPC :1.35414: AVG IPC :1.42897: L2-Pf-HR :0.72370: L2-HR :0.67668: (Sim:0h0m36s) 
CPU  0 inst:    9000003 cyc:    5990447 now IPC :1.22636: AVG IPC :1.39602: L2-Pf-HR :0.71071: L2-HR :0.66996: (Sim:0h0m41s) 
CPU  0 inst:   10000003 cyc:    6721590 now IPC :1.36772: AVG IPC :1.39242: L2-Pf-HR :0.71102: L2-HR :0.66864: (Sim:0h0m46s) 
CPU  0 inst:   11000001 cyc:    7445867 now IPC :1.38068: AVG IPC :1.39111: L2-Pf-HR :0.71336: L2-HR :0.66886: (Sim:0h0m50s) 
CPU  0 inst:   12000000 cyc:    8198607 now IPC :1.32848: AVG IPC :1.38458: L2-Pf-HR :0.72119: L2-HR :0.67323: (Sim:0h0m55s) 
CPU  0 inst:   13000003 cyc:    9019966 now IPC :1.21750: AVG IPC :1.36752: L2-Pf-HR :0.71430: L2-HR :0.67018: (Sim:0h1m0s) 
CPU  0 inst:   14000002 cyc:    9749268 now IPC :1.37117: AVG IPC :1.36782: L2-Pf-HR :0.71213: L2-HR :0.66798: (Sim:0h1m4s) 
CPU  0 inst:   15000003 cyc:   10474668 now IPC :1.37855: AVG IPC :1.36864: L2-Pf-HR :0.71289: L2-HR :0.66773: (Sim:0h1m9s) 
CPU  0 inst:   16000000 cyc:   11229628 now IPC :1.32457: AVG IPC :1.36540: L2-Pf-HR :0.71818: L2-HR :0.67048: (Sim:0h1m14s) 
CPU  0 inst:   17000001 cyc:   12054596 now IPC :1.21217: AVG IPC :1.35399: L2-Pf-HR :0.70205: L2-HR :0.66265: (Sim:0h1m19s) 
CPU  0 inst:   18000000 cyc:   12739998 now IPC :1.45900: AVG IPC :1.36011: L2-Pf-HR :0.70232: L2-HR :0.66256: (Sim:0h1m23s) 
CPU  0 inst:   19000001 cyc:   13443752 now IPC :1.42095: AVG IPC :1.36354: L2-Pf-HR :0.70556: L2-HR :0.66402: (Sim:0h1m28s) 
CPU  0 inst:   20000000 cyc:   14191680 now IPC :1.33703: AVG IPC :1.36204: L2-Pf-HR :0.70879: L2-HR :0.66552: (Sim:0h1m33s) 
CPU  0 inst:   21000000 cyc:   15010113 now IPC :1.22185: AVG IPC :1.35386: L2-Pf-HR :0.69733: L2-HR :0.65977: (Sim:0h1m38s) 
CPU  0 inst:   22000001 cyc:   15722952 now IPC :1.40284: AVG IPC :1.35623: L2-Pf-HR :0.69289: L2-HR :0.65674: (Sim:0h1m42s) 
CPU  0 inst:   23000000 cyc:   16435360 now IPC :1.40369: AVG IPC :1.35842: L2-Pf-HR :0.69418: L2-HR :0.65707: (Sim:0h1m47s) 
CPU  0 inst:   24000000 cyc:   17181585 now IPC :1.34008: AVG IPC :1.35757: L2-Pf-HR :0.69834: L2-HR :0.65912: (Sim:0h1m52s) 
CPU  0 inst:   25000003 cyc:   17995869 now IPC :1.22808: AVG IPC :1.35138: L2-Pf-HR :0.69568: L2-HR :0.65831: (Sim:0h1m56s) 
CPU  0 inst:   26000001 cyc:   18712198 now IPC :1.39600: AVG IPC :1.35318: L2-Pf-HR :0.69715: L2-HR :0.65894: (Sim:0h1m59s) 
CPU  0 inst:   27000002 cyc:   19427693 now IPC :1.39764: AVG IPC :1.35490: L2-Pf-HR :0.69821: L2-HR :0.65925: (Sim:0h2m3s) 
CPU  0 inst:   28000000 cyc:   20175611 now IPC :1.33704: AVG IPC :1.35421: L2-Pf-HR :0.70134: L2-HR :0.66082: (Sim:0h2m7s) 
CPU  0 inst:   29000003 cyc:   20985331 now IPC :1.23500: AVG IPC :1.34938: L2-Pf-HR :0.69722: L2-HR :0.65928: (Sim:0h2m11s) 
CPU  0 inst:   30000002 cyc:   21721110 now IPC :1.35910: AVG IPC :1.34973: L2-Pf-HR :0.69751: L2-HR :0.65916: (Sim:0h2m14s) 
CPU  0 inst:   31000000 cyc:   22440382 now IPC :1.39029: AVG IPC :1.35109: L2-Pf-HR :0.69855: L2-HR :0.65947: (Sim:0h2m17s) 
CPU  0 inst:   32000000 cyc:   23183274 now IPC :1.34609: AVG IPC :1.35092: L2-Pf-HR :0.70048: L2-HR :0.66031: (Sim:0h2m21s) 
CPU  0 inst:   33000002 cyc:   23939539 now IPC :1.32229: AVG IPC :1.34998: L2-Pf-HR :0.70095: L2-HR :0.66104: (Sim:0h2m26s) 
CPU  0 inst:   34000002 cyc:   24718091 now IPC :1.28444: AVG IPC :1.34783: L2-Pf-HR :0.70009: L2-HR :0.66046: (Sim:0h2m29s) 
CPU  0 inst:   35000002 cyc:   25430839 now IPC :1.40302: AVG IPC :1.34944: L2-Pf-HR :0.69951: L2-HR :0.65989: (Sim:0h2m33s) 
CPU  0 inst:   36000000 cyc:   26157139 now IPC :1.37684: AVG IPC :1.35023: L2-Pf-HR :0.70068: L2-HR :0.66027: (Sim:0h2m38s) 
CPU  0 inst:   37000001 cyc:   26903377 now IPC :1.34006: AVG IPC :1.34994: L2-Pf-HR :0.70326: L2-HR :0.66219: (Sim:0h2m43s) 
CPU  0 inst:   38000001 cyc:   27711765 now IPC :1.23703: AVG IPC :1.34652: L2-Pf-HR :0.70138: L2-HR :0.66133: (Sim:0h2m48s) 
CPU  0 inst:   39000001 cyc:   28418088 now IPC :1.41578: AVG IPC :1.34830: L2-Pf-HR :0.70040: L2-HR :0.66057: (Sim:0h2m52s) 
CPU  0 inst:   40000000 cyc:   29138333 now IPC :1.38842: AVG IPC :1.34933: L2-Pf-HR :0.70087: L2-HR :0.66055: (Sim:0h2m57s) 
CPU  0 inst:   41000001 cyc:   29886305 now IPC :1.33695: AVG IPC :1.34901: L2-Pf-HR :0.70290: L2-HR :0.66196: (Sim:0h3m2s) 
CPU  0 inst:   42000001 cyc:   30696571 now IPC :1.23416: AVG IPC :1.34588: L2-Pf-HR :0.69987: L2-HR :0.66037: (Sim:0h3m7s) 
CPU  0 inst:   43000001 cyc:   31407199 now IPC :1.40721: AVG IPC :1.34731: L2-Pf-HR :0.69972: L2-HR :0.66007: (Sim:0h3m11s) 
CPU  0 inst:   44000000 cyc:   32128273 now IPC :1.38682: AVG IPC :1.34823: L2-Pf-HR :0.70043: L2-HR :0.66026: (Sim:0h3m15s) 
CPU  0 inst:   45000001 cyc:   32874580 now IPC :1.33993: AVG IPC :1.34803: L2-Pf-HR :0.70228: L2-HR :0.66141: (Sim:0h3m19s) 
CPU  0 inst:   46000000 cyc:   33697944 now IPC :1.21453: AVG IPC :1.34467: L2-Pf-HR :0.69847: L2-HR :0.65955: (Sim:0h3m24s) 
CPU  0 inst:   47000003 cyc:   34406305 now IPC :1.41171: AVG IPC :1.34609: L2-Pf-HR :0.69806: L2-HR :0.65916: (Sim:0h3m27s) 
CPU  0 inst:   48000000 cyc:   35121382 now IPC :1.39845: AVG IPC :1.34719: L2-Pf-HR :0.69849: L2-HR :0.65922: (Sim:0h3m30s) 
CPU  0 inst:   49000000 cyc:   35870534 now IPC :1.33484: AVG IPC :1.34692: L2-Pf-HR :0.70042: L2-HR :0.66038: (Sim:0h3m33s) 
CPU  0 inst:   50000003 cyc:   39698807 now IPC :0.26122: AVG IPC :1.23959: L2-Pf-HR :0.66085: L2-HR :0.64801: (Sim:0h3m40s) 
CPU  0 inst:   51000000 cyc:   46247969 now IPC :0.15269: AVG IPC :1.08235: L2-Pf-HR :0.59647: L2-HR :0.63000: (Sim:0h3m52s) 
CPU  0 inst:   52000000 cyc:   50521693 now IPC :0.23399: AVG IPC :1.00917: L2-Pf-HR :0.57896: L2-HR :0.62365: (Sim:0h4m2s) 
CPU  0 inst:   53000000 cyc:   54047638 now IPC :0.28361: AVG IPC :0.96097: L2-Pf-HR :0.57371: L2-HR :0.62063: (Sim:0h4m11s) 
CPU  0 inst:   54000002 cyc:   57573170 now IPC :0.28365: AVG IPC :0.91878: L2-Pf-HR :0.56829: L2-HR :0.61770: (Sim:0h4m20s) 
CPU  0 inst:   55000001 cyc:   61098856 now IPC :0.28363: AVG IPC :0.88153: L2-Pf-HR :0.56303: L2-HR :0.61485: (Sim:0h4m28s) 
CPU  0 inst:   56000000 cyc:   64625261 now IPC :0.28357: AVG IPC :0.84840: L2-Pf-HR :0.55787: L2-HR :0.61207: (Sim:0h4m37s) 
CPU  0 inst:   57000003 cyc:   68151497 now IPC :0.28359: AVG IPC :0.81875: L2-Pf-HR :0.55289: L2-HR :0.60938: (Sim:0h4m46s) 
CPU  0 inst:   58000000 cyc:   71677840 now IPC :0.28358: AVG IPC :0.79206: L2-Pf-HR :0.54813: L2-HR :0.60676: (Sim:0h4m54s) 
CPU  0 inst:   59000000 cyc:   75204507 now IPC :0.28355: AVG IPC :0.76790: L2-Pf-HR :0.54358: L2-HR :0.60421: (Sim:0h5m3s) 
CPU  0 inst:   60000000 cyc:   78730705 now IPC :0.28359: AVG IPC :0.74594: L2-Pf-HR :0.53903: L2-HR :0.60173: (Sim:0h5m12s) 
CPU  0 inst:   61000002 cyc:   82257039 now IPC :0.28358: AVG IPC :0.72588: L2-Pf-HR :0.53467: L2-HR :0.59932: (Sim:0h5m21s) 
CPU  0 inst:   62000000 cyc:   85783715 now IPC :0.28355: AVG IPC :0.70748: L2-Pf-HR :0.53036: L2-HR :0.59697: (Sim:0h5m29s) 
CPU  0 inst:   63000000 cyc:   89309704 now IPC :0.28361: AVG IPC :0.69056: L2-Pf-HR :0.52640: L2-HR :0.59468: (Sim:0h5m38s) 
CPU  0 inst:   64000000 cyc:   92834513 now IPC :0.28370: AVG IPC :0.67495: L2-Pf-HR :0.52233: L2-HR :0.59245: (Sim:0h5m47s) 
CPU  0 inst:   65000002 cyc:   96360645 now IPC :0.28360: AVG IPC :0.66049: L2-Pf-HR :0.51833: L2-HR :0.59027: (Sim:0h5m55s) 
CPU  0 inst:   66000000 cyc:   99887107 now IPC :0.28357: AVG IPC :0.64705: L2-Pf-HR :0.51441: L2-HR :0.58814: (Sim:0h6m4s) 
CPU  0 inst:   67000000 cyc:  103413258 now IPC :0.28360: AVG IPC :0.63454: L2-Pf-HR :0.51062: L2-HR :0.58606: (Sim:0h6m13s) 
CPU  0 inst:   68000000 cyc:  106939575 now IPC :0.28358: AVG IPC :0.62286: L2-Pf-HR :0.50700: L2-HR :0.58404: (Sim:0h6m22s) 
CPU  0 inst:   69000002 cyc:  110466263 now IPC :0.28355: AVG IPC :0.61193: L2-Pf-HR :0.50351: L2-HR :0.58207: (Sim:0h6m30s) 
CPU  0 inst:   70000000 cyc:  113992744 now IPC :0.28357: AVG IPC :0.60168: L2-Pf-HR :0.49996: L2-HR :0.58014: (Sim:0h6m39s) 
CPU  0 inst:   71000000 cyc:  117518931 now IPC :0.28359: AVG IPC :0.59206: L2-Pf-HR :0.49647: L2-HR :0.57826: (Sim:0h6m48s) 
CPU  0 inst:   72000000 cyc:  121045375 now IPC :0.28357: AVG IPC :0.58300: L2-Pf-HR :0.49314: L2-HR :0.57642: (Sim:0h6m56s) 
CPU  0 inst:   73000000 cyc:  124571597 now IPC :0.28359: AVG IPC :0.57446: L2-Pf-HR :0.48986: L2-HR :0.57463: (Sim:0h7m5s) 
CPU  0 inst:   74000001 cyc:  128096664 now IPC :0.28368: AVG IPC :0.56639: L2-Pf-HR :0.48670: L2-HR :0.57287: (Sim:0h7m14s) 
CPU  0 inst:   75000000 cyc:  131622524 now IPC :0.28362: AVG IPC :0.55876: L2-Pf-HR :0.48352: L2-HR :0.57115: (Sim:0h7m22s) 
CPU  0 inst:   76000000 cyc:  133565084 now IPC :0.51478: AVG IPC :0.55812: L2-Pf-HR :0.49137: L2-HR :0.57613: (Sim:0h7m29s) 
CPU  0 inst:   77000003 cyc:  134183508 now IPC :1.61702: AVG IPC :0.56303: L2-Pf-HR :0.50662: L2-HR :0.58648: (Sim:0h7m34s) 
CPU  0 inst:   78000001 cyc:  134888556 now IPC :1.41834: AVG IPC :0.56754: L2-Pf-HR :0.51969: L2-HR :0.59576: (Sim:0h7m39s) 
CPU  0 inst:   79000003 cyc:  135468330 now IPC :1.72481: AVG IPC :0.57252: L2-Pf-HR :0.53262: L2-HR :0.60514: (Sim:0h7m43s) 
CPU  0 inst:   80000000 cyc:  136148004 now IPC :1.47129: AVG IPC :0.57704: L2-Pf-HR :0.54367: L2-HR :0.61339: (Sim:0h7m48s) 
CPU  0 inst:   81000002 cyc:  136762473 now IPC :1.62742: AVG IPC :0.58180: L2-Pf-HR :0.55538: L2-HR :0.62171: (Sim:0h7m53s) 
CPU  0 inst:   82000003 cyc:  137414198 now IPC :1.53439: AVG IPC :0.58635: L2-Pf-HR :0.56555: L2-HR :0.62939: (Sim:0h7m58s) 
CPU  0 inst:   83000000 cyc:  137988995 now IPC :1.73974: AVG IPC :0.59119: L2-Pf-HR :0.57569: L2-HR :0.63701: (Sim:0h8m3s) 
CPU  0 inst:   84000000 cyc:  138618176 now IPC :1.58937: AVG IPC :0.59575: L2-Pf-HR :0.58420: L2-HR :0.64374: (Sim:0h8m8s) 
CPU  0 inst:   85000003 cyc:  139227761 now IPC :1.64047: AVG IPC :0.60035: L2-Pf-HR :0.59357: L2-HR :0.65059: (Sim:0h8m13s) 
CPU  0 inst:   86000003 cyc:  139870632 now IPC :1.55552: AVG IPC :0.60478: L2-Pf-HR :0.60167: L2-HR :0.65691: (Sim:0h8m18s) 
CPU  0 inst:   87000000 cyc:  140445680 now IPC :1.73898: AVG IPC :0.60945: L2-Pf-HR :0.60970: L2-HR :0.66315: (Sim:0h8m22s) 
CPU  0 inst:   88000000 cyc:  141059047 now IPC :1.63035: AVG IPC :0.61392: L2-Pf-HR :0.61664: L2-HR :0.66877: (Sim:0h8m27s) 
CPU  0 inst:   89000002 cyc:  141675486 now IPC :1.62222: AVG IPC :0.61834: L2-Pf-HR :0.62406: L2-HR :0.67441: (Sim:0h8m32s) 
CPU  0 inst:   90000002 cyc:  142287990 now IPC :1.63264: AVG IPC :0.62274: L2-Pf-HR :0.63111: L2-HR :0.67990: (Sim:0h8m37s) 
CPU  0 inst:   91000000 cyc:  142899012 now IPC :1.63660: AVG IPC :0.62710: L2-Pf-HR :0.63721: L2-HR :0.68483: (Sim:0h8m42s) 
CPU  0 inst:   92000000 cyc:  143478121 now IPC :1.72679: AVG IPC :0.63157: L2-Pf-HR :0.64328: L2-HR :0.68984: (Sim:0h8m47s) 
CPU  0 inst:   93000001 cyc:  144123689 now IPC :1.54903: AVG IPC :0.63571: L2-Pf-HR :0.64903: L2-HR :0.69438: (Sim:0h8m51s) 
CPU  0 inst:   94000003 cyc:  144733712 now IPC :1.63929: AVG IPC :0.63997: L2-Pf-HR :0.65499: L2-HR :0.69906: (Sim:0h8m56s) 
CPU  0 inst:   95000003 cyc:  145365846 now IPC :1.58194: AVG IPC :0.64409: L2-Pf-HR :0.65994: L2-HR :0.70318: (Sim:0h9m1s) 
CPU  0 inst:   96000000 cyc:  145939347 now IPC :1.74367: AVG IPC :0.64844: L2-Pf-HR :0.66518: L2-HR :0.70752: (Sim:0h9m6s) 
CPU  0 inst:   97000000 cyc:  146575956 now IPC :1.57082: AVG IPC :0.65247: L2-Pf-HR :0.66991: L2-HR :0.71144: (Sim:0h9m11s) 
CPU  0 inst:   98000002 cyc:  147185164 now IPC :1.64148: AVG IPC :0.65659: L2-Pf-HR :0.67496: L2-HR :0.71543: (Sim:0h9m16s) 
CPU  0 inst:   99000003 cyc:  147821532 now IPC :1.57142: AVG IPC :0.66056: L2-Pf-HR :0.67910: L2-HR :0.71898: (Sim:0h9m21s) 
CPU  0 inst:  100000000 cyc:  148393682 now IPC :1.74779: AVG IPC :0.66478: L2-Pf-HR :0.68362: L2-HR :0.72276: (Sim:0h9m25s) 
CPU  0 inst:  101000003 cyc:  149031953 now IPC :1.56674: AVG IPC :0.66867: L2-Pf-HR :0.68763: L2-HR :0.72617: (Sim:0h9m30s) 
CPU  0 inst:  102000001 cyc:  149641180 now IPC :1.64142: AVG IPC :0.67265: L2-Pf-HR :0.69195: L2-HR :0.72963: (Sim:0h9m35s) 
CPU  0 inst:  103000002 cyc:  150290001 now IPC :1.54126: AVG IPC :0.67643: L2-Pf-HR :0.69544: L2-HR :0.73268: (Sim:0h9m40s) 
CPU  0 inst:  104000000 cyc:  150862075 now IPC :1.74802: AVG IPC :0.68052: L2-Pf-HR :0.69930: L2-HR :0.73595: (Sim:0h9m45s) 
CPU  0 inst:  105000003 cyc:  151483344 now IPC :1.60961: AVG IPC :0.68435: L2-Pf-HR :0.70273: L2-HR :0.73894: (Sim:0h9m50s) 
CPU  0 inst:  106000003 cyc:  152100010 now IPC :1.62162: AVG IPC :0.68818: L2-Pf-HR :0.70641: L2-HR :0.74193: (Sim:0h9m54s) 
CPU  0 inst:  107000001 cyc:  152743727 now IPC :1.55347: AVG IPC :0.69185: L2-Pf-HR :0.70953: L2-HR :0.74463: (Sim:0h9m59s) 
CPU  0 inst:  108000000 cyc:  153316610 now IPC :1.74556: AVG IPC :0.69581: L2-Pf-HR :0.71285: L2-HR :0.74750: (Sim:0h10m4s) 
CPU  0 inst:  109000003 cyc:  153935800 now IPC :1.61502: AVG IPC :0.69953: L2-Pf-HR :0.71582: L2-HR :0.75014: (Sim:0h10m9s) 
CPU  0 inst:  110000003 cyc:  154551581 now IPC :1.62395: AVG IPC :0.70324: L2-Pf-HR :0.71896: L2-HR :0.75274: (Sim:0h10m14s) 
CPU  0 inst:  111000000 cyc:  155191902 now IPC :1.56171: AVG IPC :0.70680: L2-Pf-HR :0.72182: L2-HR :0.75518: (Sim:0h10m18s) 
CPU  0 inst:  112000000 cyc:  155767278 now IPC :1.73799: AVG IPC :0.71064: L2-Pf-HR :0.72472: L2-HR :0.75772: (Sim:0h10m22s) 
CPU  0 inst:  113000002 cyc:  156360630 now IPC :1.68534: AVG IPC :0.71436: L2-Pf-HR :0.72734: L2-HR :0.76009: (Sim:0h10m26s) 
CPU  0 inst:  114000003 cyc:  156998431 now IPC :1.56789: AVG IPC :0.71785: L2-Pf-HR :0.72998: L2-HR :0.76232: (Sim:0h10m29s) 
CPU  0 inst:  115000000 cyc:  157609132 now IPC :1.63746: AVG IPC :0.72143: L2-Pf-HR :0.73276: L2-HR :0.76470: (Sim:0h10m33s) 
CPU  0 inst:  116000000 cyc:  158229391 now IPC :1.61223: AVG IPC :0.72495: L2-Pf-HR :0.73512: L2-HR :0.76681: (Sim:0h10m36s) 
CPU  0 inst:  117000002 cyc:  158802587 now IPC :1.74461: AVG IPC :0.72865: L2-Pf-HR :0.73760: L2-HR :0.76905: (Sim:0h10m40s) 
CPU  0 inst:  118000001 cyc:  159450638 now IPC :1.54309: AVG IPC :0.73198: L2-Pf-HR :0.73979: L2-HR :0.77095: (Sim:0h10m43s) 
CPU  0 inst:  119000003 cyc:  160059451 now IPC :1.64254: AVG IPC :0.73546: L2-Pf-HR :0.74230: L2-HR :0.77307: (Sim:0h10m47s) 
CPU  0 inst:  120000000 cyc:  160684933 now IPC :1.59876: AVG IPC :0.73885: L2-Pf-HR :0.74444: L2-HR :0.77499: (Sim:0h10m50s) 
CPU  0 inst:  121000002 cyc:  161254975 now IPC :1.75426: AVG IPC :0.74246: L2-Pf-HR :0.74670: L2-HR :0.77700: (Sim:0h10m54s) 
CPU  0 inst:  122000000 cyc:  161904217 now IPC :1.54025: AVG IPC :0.74568: L2-Pf-HR :0.74854: L2-HR :0.77868: (Sim:0h10m59s) 
Finished CPU 0 instr: 120000002 cyc: 160928012 AVG IPC: 0.74568 (Sim time: 0h10m59s)

ChampSim completed all CPUs

[ROI Statistics]
Core_0_instructions 120000002
Core_0_cycles 160928012
Core_0_IPC 0.74568

Core_0_branch_prediction_accuracy 99.19469
Core_0_branch_MPKI 0.24154
Core_0_average_ROB_occupancy_at_mispredict 236.07362

Core_0_L1D_total_access 39178445
Core_0_L1D_total_hit 34415241 L1D_total_Hit Ratio: 0.87842
Core_0_L1D_total_miss 4763204
Core_0_L1D_loads 32904484
Core_0_L1D_load_hit 30893151 L1D_load_Hit Ratio: 0.93887
Core_0_L1D_load_miss 2011333
Core_0_L1D_RFOs 3302218
Core_0_L1D_RFO_hit 3193345 L1D_RFO_Hit Ratio: 0.96703
Core_0_L1D_RFO_miss 108873
Core_0_L1D_prefetches 2971743
Core_0_L1D_prefetch_hit 328745 L1D_prefetch_Hit Ratio: 0.11062
Core_0_L1D_prefetch_miss 2642998
Core_0_L1D_writebacks 0
Core_0_L1D_writeback_hit 0 L1D_writeback_Hit Ratio: -nan
Core_0_L1D_writeback_miss 0
Core_0_L1D_prefetch_requested 3934666
Core_0_L1D_prefetch_issued 3934666
Core_0_L1D_prefetch_useful 2606601 L1D_Useful Ratio: 0.66247
Core_0_L1D_prefetch_useless 62881
Core_0_L1D_prefetch_late 439627
Core_0_L1D_average_miss_latency 9111699.96036

Core_0_L1I_total_access 30607783
Core_0_L1I_total_hit 30602834 L1I_total_Hit Ratio: 0.99984
Core_0_L1I_total_miss 4949
Core_0_L1I_loads 30607783
Core_0_L1I_load_hit 30602834 L1I_load_Hit Ratio: 0.99984
Core_0_L1I_load_miss 4949
Core_0_L1I_RFOs 0
Core_0_L1I_RFO_hit 0 L1I_RFO_Hit Ratio: -nan
Core_0_L1I_RFO_miss 0
Core_0_L1I_prefetches 0
Core_0_L1I_prefetch_hit 0 L1I_prefetch_Hit Ratio: -nan
Core_0_L1I_prefetch_miss 0
Core_0_L1I_writebacks 0
Core_0_L1I_writeback_hit 0 L1I_writeback_Hit Ratio: -nan
Core_0_L1I_writeback_miss 0
Core_0_L1I_prefetch_requested 0
Core_0_L1I_prefetch_issued 0
Core_0_L1I_prefetch_useful 0 L1I_Useful Ratio: -nan
Core_0_L1I_prefetch_useless 0
Core_0_L1I_prefetch_late 0
Core_0_L1I_average_miss_latency 261.64175

Core_0_L2C_total_access 6195486
Core_0_L2C_total_hit 4824313 L2C_total_Hit Ratio: 0.77868
Core_0_L2C_total_miss 1371173
Core_0_L2C_loads 1577866
Core_0_L2C_load_hit 1247056 L2C_load_Hit Ratio: 0.79034
Core_0_L2C_load_miss 330810
Core_0_L2C_RFOs 108873
Core_0_L2C_RFO_hit 17829 L2C_RFO_Hit Ratio: 0.16376
Core_0_L2C_RFO_miss 91044
Core_0_L2C_prefetches 3762436
Core_0_L2C_prefetch_hit 2816318 L2C_prefetch_Hit Ratio: 0.74854
Core_0_L2C_prefetch_miss 946118
Core_0_L2C_writebacks 746311
Core_0_L2C_writeback_hit 743110 L2C_writeback_Hit Ratio: 0.99571
Core_0_L2C_writeback_miss 3201
Core_0_L2C_prefetch_requested 771834
Core_0_L2C_prefetch_issued 771834
Core_0_L2C_prefetch_useful 231467 L2C_Useful Ratio: 0.29989
Core_0_L2C_prefetch_useless 723393
Core_0_L2C_prefetch_late 7141
Core_0_L2C_average_miss_latency 293.30774

Core_0_LLC_total_access 2103847
Core_0_LLC_total_hit 1042272 LLC_total_Hit Ratio: 0.49541
Core_0_LLC_total_miss 1061575
Core_0_LLC_loads 323876
Core_0_LLC_load_hit 109818 LLC_load_Hit Ratio: 0.33907
Core_0_LLC_load_miss 214058
Core_0_LLC_RFOs 91044
Core_0_LLC_RFO_hit 547 LLC_RFO_Hit Ratio: 0.00601
Core_0_LLC_RFO_miss 90497
Core_0_LLC_prefetches 953044
Core_0_LLC_prefetch_hit 196032 LLC_prefetch_Hit Ratio: 0.20569
Core_0_LLC_prefetch_miss 757012
Core_0_LLC_writebacks 735883
Core_0_LLC_writeback_hit 735875 LLC_writeback_Hit Ratio: 0.99999
Core_0_LLC_writeback_miss 8
Core_0_LLC_prefetch_requested 0
Core_0_LLC_prefetch_issued 0
Core_0_LLC_prefetch_useful 49605 LLC_Useful Ratio: inf
Core_0_LLC_prefetch_useless 686384
Core_0_LLC_prefetch_late 0
Core_0_LLC_average_miss_latency 340.54730

Core_0_major_page_fault 0
Core_0_minor_page_fault 8629

[Bingo] PHT Access: 674080
[Bingo] PHT Hit PC+Addr: 179507
[Bingo] PHT Hit PC+Offs: 390818
[Bingo] PHT Miss: 103755
[Bingo] Prefetch PC+Addr: 0
[Bingo] Prefetch PC+Offs: 0
[Bingo] Useful PC+Addr: 0
[Bingo] Useful PC+Offs: 0
[Bingo] Useless PC+Addr: 0
[Bingo] Useless PC+Offs: 0
[Bingo] L1 Prefetch per Region: 7.75826
[Bingo] L2 Prefetch per Region: 0.39795
[Bingo] L3 Prefetch per Region: 0.00000
[Bingo] No Prefetch per Region: 23.84379
[Bingo] Number of Voters Mean: 8.33249
[Bingo] Number of Voters SD: 6.40026
PHT read accesses: 9618249
PHT write accesses: 644012
AT read accesses: 30659800
AT write accesses: 30659798
FT read accesses: 6603346
FT write accesses: 674080
PS read accesses: 2002057
PS write accesses: 570325
PHT tag read accesses: 27296200
PHT tag write accesses: 823519
AT tag read accesses: 626371214
AT tag write accesses: 31303810
FT tag read accesses: 156401411
FT tag write accesses: 4312729
PS tag read accesses: 547061700
PS tag write accesses: 2567351
[Bingo2] PHT Access: 169835
[Bingo2] PHT Hit PC+Addr: 6378
[Bingo2] PHT Hit PC+Offs: 123240
[Bingo2] PHT Miss: 40217
[Bingo2] Prefetch PC+Addr: 0
[Bingo2] Prefetch PC+Offs: 0
[Bingo2] Useful PC+Addr: 0
[Bingo2] Useful PC+Offs: 0
[Bingo2] Useless PC+Addr: 0
[Bingo2] Useless PC+Offs: 0
[Bingo2] L1 Prefetch per Region: 0.00000
[Bingo2] L2 Prefetch per Region: 7.15627
[Bingo2] L3 Prefetch per Region: 0.00000
[Bingo2] No Prefetch per Region: 24.84373
[Bingo2] Number of Voters Mean: 11.97074
[Bingo2] Number of Voters SD: 5.69717
PHT read accesses: 2669351
PHT write accesses: 116229
AT read accesses: 1508583
AT write accesses: 1519677
FT read accesses: 400142
FT write accesses: 169835
PS read accesses: 289194
PS write accesses: 129618
PHT tag read accesses: 6315950
PHT tag write accesses: 122607
AT tag read accesses: 51894604
AT tag write accesses: 1624853
FT tag read accesses: 32351449
FT tag write accesses: 449083
PS tag read accesses: 29925632
PS tag write accesses: 417445
Channel_0_RQ_row_buffer_hit 615743
Channel_0_RQ_row_buffer_miss 445824
Channel_0_WQ_row_buffer_hit 234385
Channel_0_WQ_row_buffer_miss 378932
Channel_0_WQ_full 0
Channel_0_dbus_congested 1142426

avg_congested_cycle 11

EzSearch AVG IPC :0.74568: L2-Pf-HR :0.74854 : L2-HR :0.77868 Uful:0.29989
     > Finished combination: TraceType=770-tot Sim:120000000 Prefetcher=L2bingo_dpc3_PHT1k L1=bingo_dpc3_PHT1k
