TRACE: [32000000]_FE_[OPT-125M]_[h12]_[s256]_[d64] Warmup: 2000000 NumTraces: 32000000
L1:next_line:L2:029-SecTOP-L2-MultiMarkovDelta_ip_stride_v4-IPStrS256
*************************************************
   ChampSim Multicore Out-of-Order Simulator
   Last compiled: Oct 26 2024 16:17:22
*************************************************

trace_0 770-tot_memTraces_v3/memTraces[32000000]_FE_[OPT-125M]_[h12]_[s256]_[d64].champsim.xz
CPU 0 L1D next line prefetcher
MK1: Size: 128 TMAX: 64 TMIN: 32 MKPTHRESH: 40
MK2: Size: 256 TMAX: 32 TMIN: 16 MK2PTHRESH: 30
MK3: Size: 384 TMAX: 16 TMIN: 8 MK3PTHRESH: 25
MK4: Size: 512 TMAX: 8 TMIN: 0 MK4PTHRESH: 20
Stride Size: 256 Prefetch Degree: 15

CPU 0 L2C prefetcher
MAIN.cc ln 751 stats print skipped
CPU 0 L2C prefetcher initialized


Cache Size: 256
number of cache lines: 4096
CPU  0 inst:    1000000 cyc:     502735 now IPC :1.98912: AVG IPC :1.98912: L2-Pf-HR :0.79605: L2-HR :0.76329: (Sim:0h0m3s) 
CPU  0 inst:    2000000 cyc:     982264 now IPC :2.08538: AVG IPC :2.03611: L2-Pf-HR :0.81634: L2-HR :0.78982: (Sim:0h0m6s) 

Warmup complete CPU  0 instructions:    2000004 cycles:     982265 (Simulation time: 0 hr 0 min 6 sec) 

CPU  0 inst:    3000003 cyc:    1565772 now IPC :1.71378: AVG IPC :1.71377: L2-Pf-HR :0.82849: L2-HR :0.81319: (Sim:0h0m9s) 
CPU  0 inst:    4000000 cyc:    2147436 now IPC :1.71920: AVG IPC :1.71648: L2-Pf-HR :0.82412: L2-HR :0.81017: (Sim:0h0m11s) 
CPU  0 inst:    5000002 cyc:    2732714 now IPC :1.70859: AVG IPC :1.71384: L2-Pf-HR :0.82242: L2-HR :0.80859: (Sim:0h0m14s) 
CPU  0 inst:    6000000 cyc:    3333330 now IPC :1.66495: AVG IPC :1.70135: L2-Pf-HR :0.81935: L2-HR :0.80551: (Sim:0h0m17s) 
CPU  0 inst:    7000003 cyc:    3938168 now IPC :1.65334: AVG IPC :1.69153: L2-Pf-HR :0.81933: L2-HR :0.80549: (Sim:0h0m20s) 
CPU  0 inst:    8000000 cyc:    4548696 now IPC :1.63792: AVG IPC :1.68235: L2-Pf-HR :0.81924: L2-HR :0.80551: (Sim:0h0m22s) 
CPU  0 inst:    9000000 cyc:    5163880 now IPC :1.62553: AVG IPC :1.67399: L2-Pf-HR :0.81878: L2-HR :0.80519: (Sim:0h0m25s) 
CPU  0 inst:   10000002 cyc:    5777834 now IPC :1.62879: AVG IPC :1.66821: L2-Pf-HR :0.81823: L2-HR :0.80466: (Sim:0h0m28s) 
CPU  0 inst:   11000001 cyc:    6397799 now IPC :1.61299: AVG IPC :1.66189: L2-Pf-HR :0.81750: L2-HR :0.80396: (Sim:0h0m31s) 
CPU  0 inst:   12000000 cyc:    7012486 now IPC :1.62684: AVG IPC :1.65831: L2-Pf-HR :0.81570: L2-HR :0.80246: (Sim:0h0m34s) 
CPU  0 inst:   13000001 cyc:    8730467 now IPC :0.58208: AVG IPC :1.41968: L2-Pf-HR :0.79895: L2-HR :0.79041: (Sim:0h0m38s) 
CPU  0 inst:   14000000 cyc:   12689488 now IPC :0.25259: AVG IPC :1.02501: L2-Pf-HR :0.77898: L2-HR :0.77782: (Sim:0h0m44s) 
CPU  0 inst:   15000000 cyc:   16112964 now IPC :0.29210: AVG IPC :0.85918: L2-Pf-HR :0.77734: L2-HR :0.77741: (Sim:0h0m49s) 
CPU  0 inst:   16000000 cyc:   19533901 now IPC :0.29232: AVG IPC :0.75465: L2-Pf-HR :0.77624: L2-HR :0.77737: (Sim:0h0m54s) 
CPU  0 inst:   17000000 cyc:   22957576 now IPC :0.29208: AVG IPC :0.68258: L2-Pf-HR :0.77514: L2-HR :0.77725: (Sim:0h0m59s) 
CPU  0 inst:   18000000 cyc:   26382460 now IPC :0.29198: AVG IPC :0.62992: L2-Pf-HR :0.77432: L2-HR :0.77729: (Sim:0h1m5s) 
CPU  0 inst:   19000000 cyc:   29814636 now IPC :0.29136: AVG IPC :0.58961: L2-Pf-HR :0.77299: L2-HR :0.77686: (Sim:0h1m10s) 
CPU  0 inst:   20000000 cyc:   31882641 now IPC :0.48356: AVG IPC :0.58252: L2-Pf-HR :0.79526: L2-HR :0.79693: (Sim:0h1m14s) 
CPU  0 inst:   21000000 cyc:   32582680 now IPC :1.42849: AVG IPC :0.60126: L2-Pf-HR :0.82735: L2-HR :0.82684: (Sim:0h1m18s) 
CPU  0 inst:   22000003 cyc:   33279076 now IPC :1.43597: AVG IPC :0.61926: L2-Pf-HR :0.84996: L2-HR :0.84835: (Sim:0h1m21s) 
CPU  0 inst:   23000002 cyc:   33971224 now IPC :1.44478: AVG IPC :0.63658: L2-Pf-HR :0.86699: L2-HR :0.86478: (Sim:0h1m25s) 
CPU  0 inst:   24000000 cyc:   34648364 now IPC :1.47680: AVG IPC :0.65348: L2-Pf-HR :0.88028: L2-HR :0.87774: (Sim:0h1m28s) 
CPU  0 inst:   25000001 cyc:   35315344 now IPC :1.49930: AVG IPC :0.66991: L2-Pf-HR :0.89077: L2-HR :0.88807: (Sim:0h1m32s) 
CPU  0 inst:   26000003 cyc:   35980427 now IPC :1.50357: AVG IPC :0.68575: L2-Pf-HR :0.89946: L2-HR :0.89667: (Sim:0h1m35s) 
CPU  0 inst:   27000002 cyc:   36642479 now IPC :1.51045: AVG IPC :0.70106: L2-Pf-HR :0.90663: L2-HR :0.90382: (Sim:0h1m38s) 
CPU  0 inst:   28000000 cyc:   37295038 now IPC :1.53243: AVG IPC :0.71600: L2-Pf-HR :0.91282: L2-HR :0.91001: (Sim:0h1m42s) 
CPU  0 inst:   29000000 cyc:   37952970 now IPC :1.51991: AVG IPC :0.73031: L2-Pf-HR :0.91807: L2-HR :0.91529: (Sim:0h1m45s) 
Finished CPU 0 instr: 27000000 cyc: 36970706 AVG IPC: 0.73031 (Sim time: 0h1m45s)

ChampSim completed all CPUs

[ROI Statistics]
Core_0_instructions 27000000
Core_0_cycles 36970706
Core_0_IPC 0.73031

Core_0_branch_prediction_accuracy 98.37822
Core_0_branch_MPKI 0.53456
Core_0_average_ROB_occupancy_at_mispredict 195.28580

Core_0_L1D_total_access 18960127
Core_0_L1D_total_hit 17494689 L1D_total_Hit Ratio: 0.92271
Core_0_L1D_total_miss 1465438
Core_0_L1D_loads 7362192
Core_0_L1D_load_hit 6733045 L1D_load_Hit Ratio: 0.91454
Core_0_L1D_load_miss 629147
Core_0_L1D_RFOs 859361
Core_0_L1D_RFO_hit 821064 L1D_RFO_Hit Ratio: 0.95544
Core_0_L1D_RFO_miss 38297
Core_0_L1D_prefetches 10738574
Core_0_L1D_prefetch_hit 9940580 L1D_prefetch_Hit Ratio: 0.92569
Core_0_L1D_prefetch_miss 797994
Core_0_L1D_writebacks 0
Core_0_L1D_writeback_hit 0 L1D_writeback_Hit Ratio: -nan
Core_0_L1D_writeback_miss 0
Core_0_L1D_prefetch_requested 24209451
Core_0_L1D_prefetch_issued 13029330
Core_0_L1D_prefetch_useful 358593 L1D_Useful Ratio: 0.02752
Core_0_L1D_prefetch_useless 466964
Core_0_L1D_prefetch_late 86765
Core_0_L1D_average_miss_latency 1119536.62097

Core_0_L1I_total_access 6698706
Core_0_L1I_total_hit 6693982 L1I_total_Hit Ratio: 0.99929
Core_0_L1I_total_miss 4724
Core_0_L1I_loads 6698706
Core_0_L1I_load_hit 6693982 L1I_load_Hit Ratio: 0.99929
Core_0_L1I_load_miss 4724
Core_0_L1I_RFOs 0
Core_0_L1I_RFO_hit 0 L1I_RFO_Hit Ratio: -nan
Core_0_L1I_RFO_miss 0
Core_0_L1I_prefetches 0
Core_0_L1I_prefetch_hit 0 L1I_prefetch_Hit Ratio: -nan
Core_0_L1I_prefetch_miss 0
Core_0_L1I_writebacks 0
Core_0_L1I_writeback_hit 0 L1I_writeback_Hit Ratio: -nan
Core_0_L1I_writeback_miss 0
Core_0_L1I_prefetch_requested 0
Core_0_L1I_prefetch_issued 0
Core_0_L1I_prefetch_useful 0 L1I_Useful Ratio: -nan
Core_0_L1I_prefetch_useless 0
Core_0_L1I_prefetch_late 0
Core_0_L1I_average_miss_latency 332.88315

Core_0_L2C_total_access 5380127
Core_0_L2C_total_hit 4924373 L2C_total_Hit Ratio: 0.91529
Core_0_L2C_total_miss 455754
Core_0_L2C_loads 547878
Core_0_L2C_load_hit 482479 L2C_load_Hit Ratio: 0.88063
Core_0_L2C_load_miss 65399
Core_0_L2C_RFOs 38290
Core_0_L2C_RFO_hit 27342 L2C_RFO_Hit Ratio: 0.71408
Core_0_L2C_RFO_miss 10948
Core_0_L2C_prefetches 4617655
Core_0_L2C_prefetch_hit 4239335 L2C_prefetch_Hit Ratio: 0.91807
Core_0_L2C_prefetch_miss 378320
Core_0_L2C_writebacks 176304
Core_0_L2C_writeback_hit 175217 L2C_writeback_Hit Ratio: 0.99383
Core_0_L2C_writeback_miss 1087
Core_0_L2C_prefetch_requested 9994167
Core_0_L2C_prefetch_issued 6014594
Core_0_L2C_prefetch_useful 89561 L2C_Useful Ratio: 0.01489
Core_0_L2C_prefetch_useless 320458
Core_0_L2C_prefetch_late 3920
Core_0_L2C_average_miss_latency 220.59064

Core_0_LLC_total_access 636816
Core_0_LLC_total_hit 360211 LLC_total_Hit Ratio: 0.56564
Core_0_LLC_total_miss 276605
Core_0_LLC_loads 61492
Core_0_LLC_load_hit 36333 LLC_load_Hit Ratio: 0.59086
Core_0_LLC_load_miss 25159
Core_0_LLC_RFOs 10940
Core_0_LLC_RFO_hit 98 LLC_RFO_Hit Ratio: 0.00896
Core_0_LLC_RFO_miss 10842
Core_0_LLC_prefetches 391624
Core_0_LLC_prefetch_hit 151216 LLC_prefetch_Hit Ratio: 0.38613
Core_0_LLC_prefetch_miss 240408
Core_0_LLC_writebacks 172760
Core_0_LLC_writeback_hit 172564 LLC_writeback_Hit Ratio: 0.99887
Core_0_LLC_writeback_miss 196
Core_0_LLC_prefetch_requested 0
Core_0_LLC_prefetch_issued 0
Core_0_LLC_prefetch_useful 32158 LLC_Useful Ratio: inf
Core_0_LLC_prefetch_useless 195013
Core_0_LLC_prefetch_late 1404
Core_0_LLC_average_miss_latency 330.05634

Core_0_major_page_fault 0
Core_0_minor_page_fault 3170

CPU 0 L1D next line prefetcher final stats
CPU 0 L2C PC-based stride prefetcher final stats
Stride Degree: 15
MK1  MARKOV_LRU_SIZE: 128
MK1  MARKOV_PREDICTION_PERCENTTHRESHOLD: 40.00000
MK1  OUTLIERS_THRESHOLD_Max: 64
MK1  OUTLIERS_THRESHOLD_Min: 32
MK2  MARKOV_LRU_SIZE: 256
MK2  MARKOV_PREDICTION_PERCENTTHRESHOLD: 30.00000
MK2  OUTLIERS_THRESHOLD_Max: 32
MK2  OUTLIERS_THRESHOLD_Min: 16
MK3  MARKOV_LRU_SIZE: 384
MK3  MARKOV_PREDICTION_PERCENTTHRESHOLD: 25.00000
MK3  OUTLIERS_THRESHOLD_Max: 16
MK3  OUTLIERS_THRESHOLD_Min: 8
MK4  MARKOV_LRU_SIZE: 512
MK4  MARKOV_PREDICTION_PERCENTTHRESHOLD: 20.00000
MK4  OUTLIERS_THRESHOLD_Max: 8
MK4  OUTLIERS_THRESHOLD_Min: 0
IPStride Degree/Access Ratio: 3.52123
MK1 IPDEltaMarkov  Degree/Access Ratio: 0.63816
MK2 IPDEltaMarkov  Degree/Access Ratio: 0.79637
MK3 IPDEltaMarkov  Degree/Access Ratio: 1.10850
MK4 IPDEltaMarkov  Degree/Access Ratio: 1.36776
Channel_0_RQ_row_buffer_hit 147497
Channel_0_RQ_row_buffer_miss 128912
Channel_0_WQ_row_buffer_hit 50476
Channel_0_WQ_row_buffer_miss 102765
Channel_0_WQ_full 0
Channel_0_dbus_congested 315337

avg_congested_cycle 11

EzSearch AVG IPC :0.73031: L2-Pf-HR :0.91807 : L2-HR :0.91529 Uful:0.01489
     > Finished combination: TraceType=770-tot Sim:27000000 Prefetcher=L2029-SecTOP-L2-MultiMarkovDelta_ip_stride_v4-IPStrS256 L1=next_line
