TRACE: [496000000][OPT-125M]_[h12][s1024][d64] Warmup: 2000000 NumTraces: 496000000
L1:next_line:L2:029-SecTOP-L2-MultiMarkovDelta_ip_stride_v4-MK2-P30
*************************************************
   ChampSim Multicore Out-of-Order Simulator
   Last compiled: Oct 26 2024 13:31:25
*************************************************

trace_0 770-tot_memTraces_v3/memTraces[496000000][OPT-125M]_[h12][s1024][d64].champsim.xz
CPU 0 L1D next line prefetcher
MK1: Size: 128 TMAX: 64 TMIN: 32 MKPTHRESH: 40
MK2: Size: 256 TMAX: 32 TMIN: 16 MK2PTHRESH: 30
MK3: Size: 384 TMAX: 16 TMIN: 8 MK3PTHRESH: 25
MK4: Size: 512 TMAX: 8 TMIN: 0 MK4PTHRESH: 20
Stride Size: 512 Prefetch Degree: 15

CPU 0 L2C prefetcher
MAIN.cc ln 751 stats print skipped
CPU 0 L2C prefetcher initialized


Cache Size: 256
number of cache lines: 4096
CPU  0 inst:    1000002 cyc:     503348 now IPC :1.98670: AVG IPC :1.98670: L2-Pf-HR :0.77933: L2-HR :0.75324: (Sim:0h0m5s) 
CPU  0 inst:    2000000 cyc:     979165 now IPC :2.10164: AVG IPC :2.04256: L2-Pf-HR :0.79895: L2-HR :0.77382: (Sim:0h0m8s) 

Warmup complete CPU  0 instructions:    2000002 cycles:     979166 (Simulation time: 0 hr 0 min 8 sec) 

CPU  0 inst:    3000001 cyc:    1562456 now IPC :1.71441: AVG IPC :1.71441: L2-Pf-HR :0.79245: L2-HR :0.77699: (Sim:0h0m11s) 
CPU  0 inst:    4000000 cyc:    2130298 now IPC :1.76105: AVG IPC :1.73742: L2-Pf-HR :0.79655: L2-HR :0.78011: (Sim:0h0m14s) 
CPU  0 inst:    5000001 cyc:    2695274 now IPC :1.76999: AVG IPC :1.74814: L2-Pf-HR :0.80029: L2-HR :0.78334: (Sim:0h0m17s) 
CPU  0 inst:    6000003 cyc:    3266013 now IPC :1.75212: AVG IPC :1.74913: L2-Pf-HR :0.81586: L2-HR :0.79634: (Sim:0h0m20s) 
CPU  0 inst:    7000001 cyc:    4027041 now IPC :1.31401: AVG IPC :1.64049: L2-Pf-HR :0.81747: L2-HR :0.79774: (Sim:0h0m24s) 
CPU  0 inst:    8000000 cyc:    4597657 now IPC :1.75249: AVG IPC :1.65815: L2-Pf-HR :0.81500: L2-HR :0.79572: (Sim:0h0m27s) 
CPU  0 inst:    9000002 cyc:    5166809 now IPC :1.75700: AVG IPC :1.67158: L2-Pf-HR :0.81393: L2-HR :0.79489: (Sim:0h0m31s) 
CPU  0 inst:   10000002 cyc:    5733947 now IPC :1.76324: AVG IPC :1.68252: L2-Pf-HR :0.81380: L2-HR :0.79480: (Sim:0h0m34s) 
CPU  0 inst:   11000000 cyc:    6301241 now IPC :1.76275: AVG IPC :1.69107: L2-Pf-HR :0.81402: L2-HR :0.79500: (Sim:0h0m37s) 
CPU  0 inst:   12000000 cyc:    6865738 now IPC :1.77149: AVG IPC :1.69878: L2-Pf-HR :0.81916: L2-HR :0.79932: (Sim:0h0m42s) 
CPU  0 inst:   13000003 cyc:    7556276 now IPC :1.44815: AVG IPC :1.67247: L2-Pf-HR :0.82162: L2-HR :0.80141: (Sim:0h0m46s) 
CPU  0 inst:   14000001 cyc:    8134428 now IPC :1.72965: AVG IPC :1.67709: L2-Pf-HR :0.82222: L2-HR :0.80194: (Sim:0h0m51s) 
CPU  0 inst:   15000003 cyc:    8705035 now IPC :1.75252: AVG IPC :1.68266: L2-Pf-HR :0.82299: L2-HR :0.80262: (Sim:0h0m55s) 
CPU  0 inst:   16000000 cyc:    9278603 now IPC :1.74347: AVG IPC :1.68686: L2-Pf-HR :0.82534: L2-HR :0.80461: (Sim:0h0m59s) 
CPU  0 inst:   17000003 cyc:   10065235 now IPC :1.27125: AVG IPC :1.65088: L2-Pf-HR :0.82576: L2-HR :0.80480: (Sim:0h1m4s) 
CPU  0 inst:   18000000 cyc:   10665060 now IPC :1.66715: AVG IPC :1.65189: L2-Pf-HR :0.82522: L2-HR :0.80424: (Sim:0h1m9s) 
CPU  0 inst:   19000001 cyc:   11264671 now IPC :1.66775: AVG IPC :1.65281: L2-Pf-HR :0.82475: L2-HR :0.80372: (Sim:0h1m13s) 
CPU  0 inst:   20000000 cyc:   11864202 now IPC :1.66797: AVG IPC :1.65365: L2-Pf-HR :0.82437: L2-HR :0.80333: (Sim:0h1m18s) 
CPU  0 inst:   21000003 cyc:   12458907 now IPC :1.68151: AVG IPC :1.65509: L2-Pf-HR :0.82423: L2-HR :0.80317: (Sim:0h1m22s) 
CPU  0 inst:   22000000 cyc:   13057996 now IPC :1.66920: AVG IPC :1.65579: L2-Pf-HR :0.82581: L2-HR :0.80445: (Sim:0h1m27s) 
CPU  0 inst:   23000001 cyc:   13810257 now IPC :1.32933: AVG IPC :1.63665: L2-Pf-HR :0.82708: L2-HR :0.80557: (Sim:0h1m32s) 
CPU  0 inst:   24000000 cyc:   14397286 now IPC :1.70349: AVG IPC :1.63957: L2-Pf-HR :0.82696: L2-HR :0.80548: (Sim:0h1m36s) 
CPU  0 inst:   25000000 cyc:   14975093 now IPC :1.73068: AVG IPC :1.64334: L2-Pf-HR :0.82684: L2-HR :0.80541: (Sim:0h1m41s) 
CPU  0 inst:   26000001 cyc:   15548850 now IPC :1.74290: AVG IPC :1.64726: L2-Pf-HR :0.82673: L2-HR :0.80537: (Sim:0h1m45s) 
CPU  0 inst:   27000000 cyc:   16124434 now IPC :1.73736: AVG IPC :1.65068: L2-Pf-HR :0.82669: L2-HR :0.80535: (Sim:0h1m50s) 
CPU  0 inst:   28000000 cyc:   16695162 now IPC :1.75215: AVG IPC :1.65437: L2-Pf-HR :0.82787: L2-HR :0.80637: (Sim:0h1m54s) 
CPU  0 inst:   29000003 cyc:   17379570 now IPC :1.46112: AVG IPC :1.64630: L2-Pf-HR :0.82910: L2-HR :0.80743: (Sim:0h1m59s) 
CPU  0 inst:   30000000 cyc:   17963449 now IPC :1.71268: AVG IPC :1.64858: L2-Pf-HR :0.82923: L2-HR :0.80757: (Sim:0h2m3s) 
CPU  0 inst:   31000003 cyc:   18540063 now IPC :1.73427: AVG IPC :1.65140: L2-Pf-HR :0.82950: L2-HR :0.80783: (Sim:0h2m8s) 
CPU  0 inst:   32000000 cyc:   19121194 now IPC :1.72078: AVG IPC :1.65362: L2-Pf-HR :0.83015: L2-HR :0.80840: (Sim:0h2m12s) 
CPU  0 inst:   33000001 cyc:   19905112 now IPC :1.27564: AVG IPC :1.63796: L2-Pf-HR :0.83057: L2-HR :0.80873: (Sim:0h2m17s) 
CPU  0 inst:   34000001 cyc:   20545103 now IPC :1.56252: AVG IPC :1.63550: L2-Pf-HR :0.83038: L2-HR :0.80850: (Sim:0h2m22s) 
CPU  0 inst:   35000002 cyc:   21175048 now IPC :1.58744: AVG IPC :1.63400: L2-Pf-HR :0.83009: L2-HR :0.80823: (Sim:0h2m26s) 
CPU  0 inst:   36000000 cyc:   21802397 now IPC :1.59401: AVG IPC :1.63279: L2-Pf-HR :0.82979: L2-HR :0.80793: (Sim:0h2m31s) 
CPU  0 inst:   37000001 cyc:   22427787 now IPC :1.59900: AVG IPC :1.63181: L2-Pf-HR :0.82957: L2-HR :0.80773: (Sim:0h2m36s) 
CPU  0 inst:   38000000 cyc:   23050257 now IPC :1.60650: AVG IPC :1.63109: L2-Pf-HR :0.83005: L2-HR :0.80812: (Sim:0h2m40s) 
CPU  0 inst:   39000001 cyc:   23807106 now IPC :1.32127: AVG IPC :1.62082: L2-Pf-HR :0.83070: L2-HR :0.80865: (Sim:0h2m44s) 
CPU  0 inst:   40000000 cyc:   24398333 now IPC :1.69140: AVG IPC :1.62260: L2-Pf-HR :0.83044: L2-HR :0.80844: (Sim:0h2m48s) 
CPU  0 inst:   41000001 cyc:   24967409 now IPC :1.75724: AVG IPC :1.62580: L2-Pf-HR :0.83030: L2-HR :0.80835: (Sim:0h2m51s) 
CPU  0 inst:   42000001 cyc:   25543799 now IPC :1.73494: AVG IPC :1.62836: L2-Pf-HR :0.83022: L2-HR :0.80830: (Sim:0h2m55s) 
CPU  0 inst:   43000003 cyc:   26119656 now IPC :1.73655: AVG IPC :1.63084: L2-Pf-HR :0.83013: L2-HR :0.80824: (Sim:0h2m58s) 
CPU  0 inst:   44000000 cyc:   26695302 now IPC :1.73717: AVG IPC :1.63322: L2-Pf-HR :0.83064: L2-HR :0.80868: (Sim:0h3m1s) 
CPU  0 inst:   45000000 cyc:   27375293 now IPC :1.47061: AVG IPC :1.62903: L2-Pf-HR :0.83168: L2-HR :0.80957: (Sim:0h3m4s) 
CPU  0 inst:   46000000 cyc:   27961777 now IPC :1.70508: AVG IPC :1.63068: L2-Pf-HR :0.83171: L2-HR :0.80960: (Sim:0h3m9s) 
CPU  0 inst:   47000000 cyc:   28542271 now IPC :1.72267: AVG IPC :1.63262: L2-Pf-HR :0.83193: L2-HR :0.80980: (Sim:0h3m14s) 
CPU  0 inst:   48000000 cyc:   29122848 now IPC :1.72242: AVG IPC :1.63447: L2-Pf-HR :0.83220: L2-HR :0.81006: (Sim:0h3m18s) 
CPU  0 inst:   49000002 cyc:   29887689 now IPC :1.30746: AVG IPC :1.62582: L2-Pf-HR :0.83252: L2-HR :0.81030: (Sim:0h3m23s) 
CPU  0 inst:   50000003 cyc:   30500558 now IPC :1.63167: AVG IPC :1.62594: L2-Pf-HR :0.83211: L2-HR :0.80991: (Sim:0h3m28s) 
CPU  0 inst:   51000003 cyc:   31100237 now IPC :1.66756: AVG IPC :1.62677: L2-Pf-HR :0.83187: L2-HR :0.80968: (Sim:0h3m33s) 
CPU  0 inst:   52000000 cyc:   31693229 now IPC :1.68636: AVG IPC :1.62792: L2-Pf-HR :0.83163: L2-HR :0.80945: (Sim:0h3m37s) 
CPU  0 inst:   53000001 cyc:   32293124 now IPC :1.66696: AVG IPC :1.62867: L2-Pf-HR :0.83133: L2-HR :0.80917: (Sim:0h3m41s) 
CPU  0 inst:   54000001 cyc:   32886790 now IPC :1.68445: AVG IPC :1.62970: L2-Pf-HR :0.83151: L2-HR :0.80931: (Sim:0h3m44s) 
CPU  0 inst:   55000001 cyc:   33632695 now IPC :1.34065: AVG IPC :1.62310: L2-Pf-HR :0.83206: L2-HR :0.80977: (Sim:0h3m49s) 
CPU  0 inst:   56000000 cyc:   34227289 now IPC :1.68182: AVG IPC :1.62415: L2-Pf-HR :0.83197: L2-HR :0.80971: (Sim:0h3m52s) 
CPU  0 inst:   57000000 cyc:   34804639 now IPC :1.73205: AVG IPC :1.62599: L2-Pf-HR :0.83182: L2-HR :0.80960: (Sim:0h3m55s) 
CPU  0 inst:   58000001 cyc:   35374697 now IPC :1.75421: AVG IPC :1.62812: L2-Pf-HR :0.83175: L2-HR :0.80955: (Sim:0h4m0s) 
CPU  0 inst:   59000003 cyc:   35950332 now IPC :1.73722: AVG IPC :1.62991: L2-Pf-HR :0.83159: L2-HR :0.80943: (Sim:0h4m5s) 
CPU  0 inst:   60000000 cyc:   36519300 now IPC :1.75756: AVG IPC :1.63196: L2-Pf-HR :0.83181: L2-HR :0.80964: (Sim:0h4m9s) 
CPU  0 inst:   61000002 cyc:   37194899 now IPC :1.48017: AVG IPC :1.62913: L2-Pf-HR :0.83254: L2-HR :0.81026: (Sim:0h4m14s) 
CPU  0 inst:   62000000 cyc:   37779563 now IPC :1.71038: AVG IPC :1.63042: L2-Pf-HR :0.83254: L2-HR :0.81027: (Sim:0h4m19s) 
CPU  0 inst:   63000002 cyc:   38359984 now IPC :1.72289: AVG IPC :1.63185: L2-Pf-HR :0.83263: L2-HR :0.81036: (Sim:0h4m23s) 
CPU  0 inst:   64000000 cyc:   38935063 now IPC :1.73889: AVG IPC :1.63347: L2-Pf-HR :0.83272: L2-HR :0.81045: (Sim:0h4m27s) 
CPU  0 inst:   65000003 cyc:   39688987 now IPC :1.32640: AVG IPC :1.62749: L2-Pf-HR :0.83314: L2-HR :0.81080: (Sim:0h4m31s) 
CPU  0 inst:   66000001 cyc:   40304533 now IPC :1.62457: AVG IPC :1.62745: L2-Pf-HR :0.83295: L2-HR :0.81060: (Sim:0h4m34s) 
CPU  0 inst:   67000003 cyc:   40900222 now IPC :1.67873: AVG IPC :1.62821: L2-Pf-HR :0.83282: L2-HR :0.81047: (Sim:0h4m37s) 
CPU  0 inst:   68000000 cyc:   41504094 now IPC :1.65598: AVG IPC :1.62863: L2-Pf-HR :0.83264: L2-HR :0.81030: (Sim:0h4m41s) 
CPU  0 inst:   69000001 cyc:   42109023 now IPC :1.65309: AVG IPC :1.62899: L2-Pf-HR :0.83247: L2-HR :0.81014: (Sim:0h4m44s) 
CPU  0 inst:   70000000 cyc:   42711281 now IPC :1.66042: AVG IPC :1.62944: L2-Pf-HR :0.83254: L2-HR :0.81018: (Sim:0h4m47s) 
CPU  0 inst:   71000000 cyc:   43451569 now IPC :1.35083: AVG IPC :1.62458: L2-Pf-HR :0.83306: L2-HR :0.81063: (Sim:0h4m51s) 
CPU  0 inst:   72000000 cyc:   44052250 now IPC :1.66478: AVG IPC :1.62514: L2-Pf-HR :0.83298: L2-HR :0.81056: (Sim:0h4m54s) 
CPU  0 inst:   73000001 cyc:   44632537 now IPC :1.72329: AVG IPC :1.62645: L2-Pf-HR :0.83295: L2-HR :0.81055: (Sim:0h4m57s) 
CPU  0 inst:   74000003 cyc:   45212350 now IPC :1.72470: AVG IPC :1.62774: L2-Pf-HR :0.83287: L2-HR :0.81049: (Sim:0h5m0s) 
CPU  0 inst:   75000002 cyc:   45785972 now IPC :1.74331: AVG IPC :1.62922: L2-Pf-HR :0.83283: L2-HR :0.81047: (Sim:0h5m4s) 
CPU  0 inst:   76000000 cyc:   46362039 now IPC :1.73591: AVG IPC :1.63057: L2-Pf-HR :0.83294: L2-HR :0.81057: (Sim:0h5m7s) 
CPU  0 inst:   77000000 cyc:   47033277 now IPC :1.48978: AVG IPC :1.62852: L2-Pf-HR :0.83361: L2-HR :0.81115: (Sim:0h5m11s) 
CPU  0 inst:   78000000 cyc:   47636966 now IPC :1.65648: AVG IPC :1.62888: L2-Pf-HR :0.83374: L2-HR :0.81126: (Sim:0h5m14s) 
CPU  0 inst:   79000003 cyc:   48223185 now IPC :1.70585: AVG IPC :1.62984: L2-Pf-HR :0.83390: L2-HR :0.81140: (Sim:0h5m17s) 
CPU  0 inst:   80000000 cyc:   48808297 now IPC :1.70907: AVG IPC :1.63081: L2-Pf-HR :0.83396: L2-HR :0.81146: (Sim:0h5m20s) 
CPU  0 inst:   81000000 cyc:   49553882 now IPC :1.34123: AVG IPC :1.62636: L2-Pf-HR :0.83427: L2-HR :0.81172: (Sim:0h5m24s) 
CPU  0 inst:   82000001 cyc:   50177773 now IPC :1.60285: AVG IPC :1.62606: L2-Pf-HR :0.83413: L2-HR :0.81158: (Sim:0h5m28s) 
CPU  0 inst:   83000000 cyc:   50780438 now IPC :1.65929: AVG IPC :1.62646: L2-Pf-HR :0.83399: L2-HR :0.81144: (Sim:0h5m32s) 
CPU  0 inst:   84000000 cyc:   51376595 now IPC :1.67741: AVG IPC :1.62707: L2-Pf-HR :0.83388: L2-HR :0.81134: (Sim:0h5m35s) 
CPU  0 inst:   85000003 cyc:   51978722 now IPC :1.66078: AVG IPC :1.62747: L2-Pf-HR :0.83377: L2-HR :0.81124: (Sim:0h5m39s) 
CPU  0 inst:   86000003 cyc:   52575948 now IPC :1.67441: AVG IPC :1.62801: L2-Pf-HR :0.83377: L2-HR :0.81124: (Sim:0h5m44s) 
CPU  0 inst:   87000001 cyc:   53277657 now IPC :1.42509: AVG IPC :1.62529: L2-Pf-HR :0.83422: L2-HR :0.81162: (Sim:0h5m49s) 
CPU  0 inst:   88000000 cyc:   53910499 now IPC :1.58017: AVG IPC :1.62475: L2-Pf-HR :0.83417: L2-HR :0.81157: (Sim:0h5m53s) 
CPU  0 inst:   89000002 cyc:   54488524 now IPC :1.73003: AVG IPC :1.62588: L2-Pf-HR :0.83412: L2-HR :0.81155: (Sim:0h5m58s) 
CPU  0 inst:   90000000 cyc:   55061189 now IPC :1.74622: AVG IPC :1.62716: L2-Pf-HR :0.83412: L2-HR :0.81156: (Sim:0h6m3s) 
CPU  0 inst:   91000003 cyc:   55640133 now IPC :1.72729: AVG IPC :1.62822: L2-Pf-HR :0.83408: L2-HR :0.81154: (Sim:0h6m7s) 
CPU  0 inst:   92000000 cyc:   56208362 now IPC :1.75985: AVG IPC :1.62957: L2-Pf-HR :0.83413: L2-HR :0.81159: (Sim:0h6m12s) 
CPU  0 inst:   93000000 cyc:   56856884 now IPC :1.54197: AVG IPC :1.62856: L2-Pf-HR :0.83465: L2-HR :0.81202: (Sim:0h6m15s) 
CPU  0 inst:   94000002 cyc:   57468262 now IPC :1.63565: AVG IPC :1.62863: L2-Pf-HR :0.83473: L2-HR :0.81209: (Sim:0h6m18s) 
CPU  0 inst:   95000000 cyc:   58048179 now IPC :1.72438: AVG IPC :1.62961: L2-Pf-HR :0.83479: L2-HR :0.81216: (Sim:0h6m22s) 
CPU  0 inst:   96000000 cyc:   58625801 now IPC :1.73124: AVG IPC :1.63062: L2-Pf-HR :0.83489: L2-HR :0.81226: (Sim:0h6m26s) 
CPU  0 inst:   97000003 cyc:   59319905 now IPC :1.44071: AVG IPC :1.62836: L2-Pf-HR :0.83519: L2-HR :0.81252: (Sim:0h6m31s) 
CPU  0 inst:   98000002 cyc:   59997043 now IPC :1.47680: AVG IPC :1.62663: L2-Pf-HR :0.83511: L2-HR :0.81242: (Sim:0h6m36s) 
CPU  0 inst:   99000000 cyc:   60601042 now IPC :1.65563: AVG IPC :1.62692: L2-Pf-HR :0.83504: L2-HR :0.81234: (Sim:0h6m41s) 
CPU  0 inst:  100000000 cyc:   61198592 now IPC :1.67350: AVG IPC :1.62738: L2-Pf-HR :0.83496: L2-HR :0.81227: (Sim:0h6m45s) 
CPU  0 inst:  101000000 cyc:   61797958 now IPC :1.66843: AVG IPC :1.62779: L2-Pf-HR :0.83487: L2-HR :0.81219: (Sim:0h6m50s) 
CPU  0 inst:  102000001 cyc:   62393758 now IPC :1.67842: AVG IPC :1.62828: L2-Pf-HR :0.83484: L2-HR :0.81215: (Sim:0h6m55s) 
CPU  0 inst:  103000000 cyc:   62999038 now IPC :1.65213: AVG IPC :1.62851: L2-Pf-HR :0.83527: L2-HR :0.81250: (Sim:0h6m59s) 
CPU  0 inst:  104000000 cyc:   63744697 now IPC :1.34110: AVG IPC :1.62510: L2-Pf-HR :0.83509: L2-HR :0.81235: (Sim:0h7m4s) 
CPU  0 inst:  105000000 cyc:   64322042 now IPC :1.73207: AVG IPC :1.62607: L2-Pf-HR :0.83502: L2-HR :0.81229: (Sim:0h7m9s) 
CPU  0 inst:  106000003 cyc:   64902445 now IPC :1.72295: AVG IPC :1.62695: L2-Pf-HR :0.83498: L2-HR :0.81227: (Sim:0h7m13s) 
CPU  0 inst:  107000003 cyc:   65474772 now IPC :1.74725: AVG IPC :1.62802: L2-Pf-HR :0.83493: L2-HR :0.81224: (Sim:0h7m18s) 
CPU  0 inst:  108000000 cyc:   66049287 now IPC :1.74059: AVG IPC :1.62901: L2-Pf-HR :0.83491: L2-HR :0.81223: (Sim:0h7m22s) 
CPU  0 inst:  109000001 cyc:   66625664 now IPC :1.73498: AVG IPC :1.62994: L2-Pf-HR :0.83537: L2-HR :0.81261: (Sim:0h7m27s) 
CPU  0 inst:  110000001 cyc:   67315198 now IPC :1.45025: AVG IPC :1.62807: L2-Pf-HR :0.83542: L2-HR :0.81266: (Sim:0h7m32s) 
CPU  0 inst:  111000000 cyc:   67895126 now IPC :1.72435: AVG IPC :1.62891: L2-Pf-HR :0.83547: L2-HR :0.81272: (Sim:0h7m36s) 
CPU  0 inst:  112000000 cyc:   68478699 now IPC :1.71358: AVG IPC :1.62964: L2-Pf-HR :0.83556: L2-HR :0.81279: (Sim:0h7m41s) 
CPU  0 inst:  113000002 cyc:   69056943 now IPC :1.72938: AVG IPC :1.63049: L2-Pf-HR :0.83589: L2-HR :0.81308: (Sim:0h7m46s) 
CPU  0 inst:  114000003 cyc:   69846212 now IPC :1.26700: AVG IPC :1.62632: L2-Pf-HR :0.83571: L2-HR :0.81292: (Sim:0h7m51s) 
CPU  0 inst:  115000002 cyc:   70453037 now IPC :1.64792: AVG IPC :1.62651: L2-Pf-HR :0.83561: L2-HR :0.81282: (Sim:0h7m55s) 
CPU  0 inst:  116000000 cyc:   71057200 now IPC :1.65518: AVG IPC :1.62676: L2-Pf-HR :0.83555: L2-HR :0.81276: (Sim:0h8m0s) 
CPU  0 inst:  117000001 cyc:   71658268 now IPC :1.66371: AVG IPC :1.62707: L2-Pf-HR :0.83546: L2-HR :0.81267: (Sim:0h8m5s) 
CPU  0 inst:  118000001 cyc:   72264453 now IPC :1.64966: AVG IPC :1.62726: L2-Pf-HR :0.83534: L2-HR :0.81257: (Sim:0h8m9s) 
CPU  0 inst:  119000000 cyc:   72853303 now IPC :1.69822: AVG IPC :1.62785: L2-Pf-HR :0.83562: L2-HR :0.81279: (Sim:0h8m12s) 
CPU  0 inst:  120000000 cyc:   73608892 now IPC :1.32347: AVG IPC :1.62468: L2-Pf-HR :0.83558: L2-HR :0.81276: (Sim:0h8m15s) 
CPU  0 inst:  121000000 cyc:   74198188 now IPC :1.69694: AVG IPC :1.62526: L2-Pf-HR :0.83555: L2-HR :0.81273: (Sim:0h8m18s) 
CPU  0 inst:  122000003 cyc:   74775656 now IPC :1.73170: AVG IPC :1.62609: L2-Pf-HR :0.83547: L2-HR :0.81267: (Sim:0h8m22s) 
CPU  0 inst:  123000003 cyc:   75357800 now IPC :1.71779: AVG IPC :1.62681: L2-Pf-HR :0.83542: L2-HR :0.81263: (Sim:0h8m25s) 
CPU  0 inst:  124000000 cyc:   75935983 now IPC :1.72955: AVG IPC :1.62760: L2-Pf-HR :0.83538: L2-HR :0.81262: (Sim:0h8m29s) 
CPU  0 inst:  125000002 cyc:   76507825 now IPC :1.74874: AVG IPC :1.62852: L2-Pf-HR :0.83570: L2-HR :0.81288: (Sim:0h8m33s) 
CPU  0 inst:  126000000 cyc:   77192672 now IPC :1.46018: AVG IPC :1.62701: L2-Pf-HR :0.83576: L2-HR :0.81295: (Sim:0h8m37s) 
CPU  0 inst:  127000000 cyc:   77771612 now IPC :1.72729: AVG IPC :1.62776: L2-Pf-HR :0.83581: L2-HR :0.81299: (Sim:0h8m42s) 
CPU  0 inst:  128000000 cyc:   78358216 now IPC :1.70473: AVG IPC :1.62835: L2-Pf-HR :0.83586: L2-HR :0.81304: (Sim:0h8m46s) 
CPU  0 inst:  129000001 cyc:   78934159 now IPC :1.73628: AVG IPC :1.62915: L2-Pf-HR :0.83604: L2-HR :0.81320: (Sim:0h8m51s) 
CPU  0 inst:  130000000 cyc:   79710605 now IPC :1.28792: AVG IPC :1.62578: L2-Pf-HR :0.83598: L2-HR :0.81313: (Sim:0h8m56s) 
CPU  0 inst:  131000000 cyc:   80310742 now IPC :1.66629: AVG IPC :1.62609: L2-Pf-HR :0.83592: L2-HR :0.81307: (Sim:0h9m1s) 
CPU  0 inst:  132000000 cyc:   80907932 now IPC :1.67451: AVG IPC :1.62645: L2-Pf-HR :0.83588: L2-HR :0.81303: (Sim:0h9m5s) 
CPU  0 inst:  133000002 cyc:   81513278 now IPC :1.65195: AVG IPC :1.62664: L2-Pf-HR :0.83586: L2-HR :0.81300: (Sim:0h9m10s) 
CPU  0 inst:  134000001 cyc:   82111753 now IPC :1.67091: AVG IPC :1.62697: L2-Pf-HR :0.83581: L2-HR :0.81295: (Sim:0h9m14s) 
CPU  0 inst:  135000003 cyc:   82711177 now IPC :1.66827: AVG IPC :1.62727: L2-Pf-HR :0.83597: L2-HR :0.81308: (Sim:0h9m18s) 
CPU  0 inst:  136000000 cyc:   83455640 now IPC :1.34325: AVG IPC :1.62471: L2-Pf-HR :0.83602: L2-HR :0.81312: (Sim:0h9m24s) 
CPU  0 inst:  137000000 cyc:   84034737 now IPC :1.72683: AVG IPC :1.62542: L2-Pf-HR :0.83593: L2-HR :0.81305: (Sim:0h9m28s) 
CPU  0 inst:  138000000 cyc:   84614344 now IPC :1.72531: AVG IPC :1.62611: L2-Pf-HR :0.83584: L2-HR :0.81298: (Sim:0h9m32s) 
CPU  0 inst:  139000000 cyc:   85188188 now IPC :1.74263: AVG IPC :1.62690: L2-Pf-HR :0.83579: L2-HR :0.81295: (Sim:0h9m36s) 
CPU  0 inst:  140000000 cyc:   85762205 now IPC :1.74211: AVG IPC :1.62768: L2-Pf-HR :0.83574: L2-HR :0.81291: (Sim:0h9m41s) 
CPU  0 inst:  141000002 cyc:   86333490 now IPC :1.75044: AVG IPC :1.62851: L2-Pf-HR :0.83593: L2-HR :0.81308: (Sim:0h9m46s) 
CPU  0 inst:  142000003 cyc:   87020595 now IPC :1.45538: AVG IPC :1.62712: L2-Pf-HR :0.83612: L2-HR :0.81324: (Sim:0h9m50s) 
CPU  0 inst:  143000002 cyc:   87604024 now IPC :1.71400: AVG IPC :1.62771: L2-Pf-HR :0.83613: L2-HR :0.81325: (Sim:0h9m55s) 
CPU  0 inst:  144000000 cyc:   88185358 now IPC :1.72018: AVG IPC :1.62832: L2-Pf-HR :0.83618: L2-HR :0.81330: (Sim:0h10m0s) 
CPU  0 inst:  145000003 cyc:   88767326 now IPC :1.71831: AVG IPC :1.62892: L2-Pf-HR :0.83630: L2-HR :0.81340: (Sim:0h10m4s) 
CPU  0 inst:  146000000 cyc:   89540693 now IPC :1.29304: AVG IPC :1.62599: L2-Pf-HR :0.83633: L2-HR :0.81342: (Sim:0h10m10s) 
CPU  0 inst:  147000000 cyc:   90141286 now IPC :1.66502: AVG IPC :1.62625: L2-Pf-HR :0.83629: L2-HR :0.81338: (Sim:0h10m14s) 
CPU  0 inst:  148000000 cyc:   90739997 now IPC :1.67025: AVG IPC :1.62654: L2-Pf-HR :0.83626: L2-HR :0.81334: (Sim:0h10m19s) 
CPU  0 inst:  149000003 cyc:   91342550 now IPC :1.65961: AVG IPC :1.62677: L2-Pf-HR :0.83619: L2-HR :0.81328: (Sim:0h10m22s) 
CPU  0 inst:  150000000 cyc:   91940976 now IPC :1.67105: AVG IPC :1.62706: L2-Pf-HR :0.83614: L2-HR :0.81323: (Sim:0h10m25s) 
CPU  0 inst:  151000003 cyc:   92538262 now IPC :1.67424: AVG IPC :1.62736: L2-Pf-HR :0.83623: L2-HR :0.81330: (Sim:0h10m30s) 
CPU  0 inst:  152000000 cyc:   93289444 now IPC :1.33123: AVG IPC :1.62495: L2-Pf-HR :0.83634: L2-HR :0.81338: (Sim:0h10m33s) 
CPU  0 inst:  153000003 cyc:   93877835 now IPC :1.69956: AVG IPC :1.62543: L2-Pf-HR :0.83629: L2-HR :0.81335: (Sim:0h10m38s) 
CPU  0 inst:  154000003 cyc:   94456928 now IPC :1.72684: AVG IPC :1.62606: L2-Pf-HR :0.83627: L2-HR :0.81334: (Sim:0h10m42s) 
CPU  0 inst:  155000003 cyc:   95035548 now IPC :1.72825: AVG IPC :1.62668: L2-Pf-HR :0.83626: L2-HR :0.81334: (Sim:0h10m47s) 
CPU  0 inst:  156000000 cyc:   95609237 now IPC :1.74310: AVG IPC :1.62739: L2-Pf-HR :0.83622: L2-HR :0.81331: (Sim:0h10m51s) 
CPU  0 inst:  157000002 cyc:   96177315 now IPC :1.76033: AVG IPC :1.62818: L2-Pf-HR :0.83634: L2-HR :0.81342: (Sim:0h10m56s) 
CPU  0 inst:  158000001 cyc:   96856429 now IPC :1.47251: AVG IPC :1.62708: L2-Pf-HR :0.83656: L2-HR :0.81360: (Sim:0h11m1s) 
CPU  0 inst:  159000001 cyc:   97444590 now IPC :1.70021: AVG IPC :1.62753: L2-Pf-HR :0.83658: L2-HR :0.81363: (Sim:0h11m5s) 
CPU  0 inst:  160000000 cyc:   98025173 now IPC :1.72240: AVG IPC :1.62809: L2-Pf-HR :0.83662: L2-HR :0.81367: (Sim:0h11m8s) 
CPU  0 inst:  161000001 cyc:   98603341 now IPC :1.72960: AVG IPC :1.62869: L2-Pf-HR :0.83668: L2-HR :0.81373: (Sim:0h11m13s) 
CPU  0 inst:  162000003 cyc:   99372825 now IPC :1.29957: AVG IPC :1.62612: L2-Pf-HR :0.83678: L2-HR :0.81380: (Sim:0h11m18s) 
CPU  0 inst:  163000002 cyc:   99981971 now IPC :1.64164: AVG IPC :1.62622: L2-Pf-HR :0.83672: L2-HR :0.81374: (Sim:0h11m22s) 
CPU  0 inst:  164000000 cyc:  100584835 now IPC :1.65875: AVG IPC :1.62641: L2-Pf-HR :0.83665: L2-HR :0.81368: (Sim:0h11m27s) 
CPU  0 inst:  165000001 cyc:  101182442 now IPC :1.67334: AVG IPC :1.62669: L2-Pf-HR :0.83659: L2-HR :0.81362: (Sim:0h11m32s) 
CPU  0 inst:  166000000 cyc:  101788678 now IPC :1.64952: AVG IPC :1.62683: L2-Pf-HR :0.83651: L2-HR :0.81355: (Sim:0h11m36s) 
CPU  0 inst:  167000000 cyc:  102384413 now IPC :1.67860: AVG IPC :1.62713: L2-Pf-HR :0.83655: L2-HR :0.81358: (Sim:0h11m41s) 
CPU  0 inst:  168000000 cyc:  103123430 now IPC :1.35315: AVG IPC :1.62515: L2-Pf-HR :0.83669: L2-HR :0.81369: (Sim:0h11m46s) 
CPU  0 inst:  169000002 cyc:  103712252 now IPC :1.69831: AVG IPC :1.62557: L2-Pf-HR :0.83664: L2-HR :0.81366: (Sim:0h11m51s) 
CPU  0 inst:  170000003 cyc:  104290486 now IPC :1.72941: AVG IPC :1.62615: L2-Pf-HR :0.83664: L2-HR :0.81366: (Sim:0h11m56s) 
CPU  0 inst:  171000003 cyc:  104865691 now IPC :1.73851: AVG IPC :1.62678: L2-Pf-HR :0.83662: L2-HR :0.81365: (Sim:0h12m0s) 
CPU  0 inst:  172000000 cyc:  105437923 now IPC :1.74754: AVG IPC :1.62744: L2-Pf-HR :0.83659: L2-HR :0.81363: (Sim:0h12m3s) 
CPU  0 inst:  173000002 cyc:  106007935 now IPC :1.75435: AVG IPC :1.62813: L2-Pf-HR :0.83667: L2-HR :0.81370: (Sim:0h12m8s) 
CPU  0 inst:  174000001 cyc:  106683928 now IPC :1.47930: AVG IPC :1.62717: L2-Pf-HR :0.83690: L2-HR :0.81390: (Sim:0h12m12s) 
CPU  0 inst:  175000003 cyc:  107275837 now IPC :1.68945: AVG IPC :1.62752: L2-Pf-HR :0.83693: L2-HR :0.81393: (Sim:0h12m17s) 
CPU  0 inst:  176000000 cyc:  107855733 now IPC :1.72444: AVG IPC :1.62805: L2-Pf-HR :0.83698: L2-HR :0.81398: (Sim:0h12m22s) 
CPU  0 inst:  177000001 cyc:  108441076 now IPC :1.70840: AVG IPC :1.62848: L2-Pf-HR :0.83703: L2-HR :0.81403: (Sim:0h12m26s) 
CPU  0 inst:  178000000 cyc:  109198336 now IPC :1.32055: AVG IPC :1.62633: L2-Pf-HR :0.83714: L2-HR :0.81412: (Sim:0h12m31s) 
CPU  0 inst:  179000003 cyc:  109811734 now IPC :1.63027: AVG IPC :1.62635: L2-Pf-HR :0.83707: L2-HR :0.81405: (Sim:0h12m35s) 
CPU  0 inst:  180000000 cyc:  110415516 now IPC :1.65622: AVG IPC :1.62652: L2-Pf-HR :0.83701: L2-HR :0.81400: (Sim:0h12m40s) 
CPU  0 inst:  181000002 cyc:  111011542 now IPC :1.67778: AVG IPC :1.62679: L2-Pf-HR :0.83696: L2-HR :0.81394: (Sim:0h12m45s) 
CPU  0 inst:  182000002 cyc:  111613241 now IPC :1.66196: AVG IPC :1.62699: L2-Pf-HR :0.83687: L2-HR :0.81386: (Sim:0h12m49s) 
CPU  0 inst:  183000003 cyc:  112210281 now IPC :1.67493: AVG IPC :1.62724: L2-Pf-HR :0.83686: L2-HR :0.81384: (Sim:0h12m53s) 
CPU  0 inst:  184000000 cyc:  112947156 now IPC :1.35708: AVG IPC :1.62546: L2-Pf-HR :0.83702: L2-HR :0.81398: (Sim:0h12m58s) 
CPU  0 inst:  185000003 cyc:  113550347 now IPC :1.65785: AVG IPC :1.62564: L2-Pf-HR :0.83699: L2-HR :0.81395: (Sim:0h13m2s) 
CPU  0 inst:  186000001 cyc:  114127109 now IPC :1.73381: AVG IPC :1.62619: L2-Pf-HR :0.83695: L2-HR :0.81392: (Sim:0h13m7s) 
CPU  0 inst:  187000003 cyc:  114706636 now IPC :1.72555: AVG IPC :1.62670: L2-Pf-HR :0.83691: L2-HR :0.81389: (Sim:0h13m11s) 
CPU  0 inst:  188000000 cyc:  115281103 now IPC :1.74074: AVG IPC :1.62727: L2-Pf-HR :0.83686: L2-HR :0.81386: (Sim:0h13m16s) 
CPU  0 inst:  189000002 cyc:  115854815 now IPC :1.74304: AVG IPC :1.62785: L2-Pf-HR :0.83690: L2-HR :0.81389: (Sim:0h13m21s) 
CPU  0 inst:  190000003 cyc:  116525807 now IPC :1.49033: AVG IPC :1.62705: L2-Pf-HR :0.83712: L2-HR :0.81408: (Sim:0h13m25s) 
CPU  0 inst:  191000002 cyc:  117110532 now IPC :1.71020: AVG IPC :1.62747: L2-Pf-HR :0.83711: L2-HR :0.81408: (Sim:0h13m30s) 
CPU  0 inst:  192000000 cyc:  117691930 now IPC :1.71999: AVG IPC :1.62793: L2-Pf-HR :0.83715: L2-HR :0.81411: (Sim:0h13m34s) 
CPU  0 inst:  193000002 cyc:  118278619 now IPC :1.70448: AVG IPC :1.62831: L2-Pf-HR :0.83719: L2-HR :0.81415: (Sim:0h13m38s) 
CPU  0 inst:  194000000 cyc:  120389472 now IPC :0.47374: AVG IPC :1.60790: L2-Pf-HR :0.83619: L2-HR :0.81341: (Sim:0h13m43s) 
CPU  0 inst:  195000002 cyc:  126635791 now IPC :0.16009: AVG IPC :1.53593: L2-Pf-HR :0.83153: L2-HR :0.81026: (Sim:0h13m56s) 
CPU  0 inst:  196000000 cyc:  133070903 now IPC :0.15540: AVG IPC :1.46868: L2-Pf-HR :0.82692: L2-HR :0.80718: (Sim:0h14m11s) 
CPU  0 inst:  197000001 cyc:  139530064 now IPC :0.15482: AVG IPC :1.40743: L2-Pf-HR :0.82236: L2-HR :0.80416: (Sim:0h14m27s) 
CPU  0 inst:  198000001 cyc:  145926963 now IPC :0.15633: AVG IPC :1.35221: L2-Pf-HR :0.81791: L2-HR :0.80123: (Sim:0h14m43s) 
CPU  0 inst:  199000001 cyc:  152305914 now IPC :0.15677: AVG IPC :1.30182: L2-Pf-HR :0.81351: L2-HR :0.79837: (Sim:0h14m59s) 
CPU  0 inst:  200000000 cyc:  158709876 now IPC :0.15615: AVG IPC :1.25530: L2-Pf-HR :0.80920: L2-HR :0.79559: (Sim:0h15m14s) 
CPU  0 inst:  201000000 cyc:  164728110 now IPC :0.16616: AVG IPC :1.21528: L2-Pf-HR :0.80543: L2-HR :0.79310: (Sim:0h15m29s) 
CPU  0 inst:  202000000 cyc:  168279250 now IPC :0.28160: AVG IPC :1.19546: L2-Pf-HR :0.80555: L2-HR :0.79302: (Sim:0h15m38s) 
CPU  0 inst:  203000002 cyc:  171830100 now IPC :0.28162: AVG IPC :1.17646: L2-Pf-HR :0.80570: L2-HR :0.79297: (Sim:0h15m48s) 
CPU  0 inst:  204000000 cyc:  175380139 now IPC :0.28169: AVG IPC :1.15825: L2-Pf-HR :0.80591: L2-HR :0.79298: (Sim:0h15m57s) 
CPU  0 inst:  205000000 cyc:  178927371 now IPC :0.28191: AVG IPC :1.14078: L2-Pf-HR :0.80612: L2-HR :0.79298: (Sim:0h16m6s) 
CPU  0 inst:  206000000 cyc:  182474399 now IPC :0.28193: AVG IPC :1.12400: L2-Pf-HR :0.80631: L2-HR :0.79298: (Sim:0h16m15s) 
CPU  0 inst:  207000000 cyc:  186020387 now IPC :0.28201: AVG IPC :1.10786: L2-Pf-HR :0.80654: L2-HR :0.79300: (Sim:0h16m24s) 
CPU  0 inst:  208000000 cyc:  189568008 now IPC :0.28188: AVG IPC :1.09232: L2-Pf-HR :0.80675: L2-HR :0.79300: (Sim:0h16m33s) 
CPU  0 inst:  209000000 cyc:  193112997 now IPC :0.28209: AVG IPC :1.07737: L2-Pf-HR :0.80698: L2-HR :0.79304: (Sim:0h16m42s) 
CPU  0 inst:  210000003 cyc:  196660314 now IPC :0.28190: AVG IPC :1.06295: L2-Pf-HR :0.80717: L2-HR :0.79303: (Sim:0h16m50s) 
CPU  0 inst:  211000003 cyc:  200205774 now IPC :0.28205: AVG IPC :1.04906: L2-Pf-HR :0.80744: L2-HR :0.79310: (Sim:0h16m58s) 
CPU  0 inst:  212000000 cyc:  203754650 now IPC :0.28178: AVG IPC :1.03563: L2-Pf-HR :0.80766: L2-HR :0.79312: (Sim:0h17m6s) 
CPU  0 inst:  213000000 cyc:  207302065 now IPC :0.28190: AVG IPC :1.02267: L2-Pf-HR :0.80786: L2-HR :0.79313: (Sim:0h17m15s) 
CPU  0 inst:  214000000 cyc:  210847378 now IPC :0.28206: AVG IPC :1.01016: L2-Pf-HR :0.80809: L2-HR :0.79316: (Sim:0h17m24s) 
CPU  0 inst:  215000000 cyc:  214392516 now IPC :0.28208: AVG IPC :0.99806: L2-Pf-HR :0.80833: L2-HR :0.79320: (Sim:0h17m33s) 
CPU  0 inst:  216000000 cyc:  217937645 now IPC :0.28208: AVG IPC :0.98636: L2-Pf-HR :0.80857: L2-HR :0.79325: (Sim:0h17m43s) 
CPU  0 inst:  217000003 cyc:  221484558 now IPC :0.28194: AVG IPC :0.97503: L2-Pf-HR :0.80876: L2-HR :0.79325: (Sim:0h17m52s) 
CPU  0 inst:  218000001 cyc:  225031605 now IPC :0.28192: AVG IPC :0.96406: L2-Pf-HR :0.80895: L2-HR :0.79326: (Sim:0h18m1s) 
CPU  0 inst:  219000003 cyc:  228580491 now IPC :0.28178: AVG IPC :0.95342: L2-Pf-HR :0.80916: L2-HR :0.79328: (Sim:0h18m10s) 
CPU  0 inst:  220000000 cyc:  232127030 now IPC :0.28196: AVG IPC :0.94312: L2-Pf-HR :0.80936: L2-HR :0.79329: (Sim:0h18m20s) 
CPU  0 inst:  221000003 cyc:  235673168 now IPC :0.28200: AVG IPC :0.93313: L2-Pf-HR :0.80958: L2-HR :0.79333: (Sim:0h18m29s) 
CPU  0 inst:  222000000 cyc:  239219488 now IPC :0.28198: AVG IPC :0.92344: L2-Pf-HR :0.80979: L2-HR :0.79335: (Sim:0h18m38s) 
CPU  0 inst:  223000000 cyc:  242766301 now IPC :0.28194: AVG IPC :0.91403: L2-Pf-HR :0.80999: L2-HR :0.79337: (Sim:0h18m47s) 
CPU  0 inst:  224000000 cyc:  246312706 now IPC :0.28198: AVG IPC :0.90489: L2-Pf-HR :0.81019: L2-HR :0.79338: (Sim:0h18m57s) 
CPU  0 inst:  225000002 cyc:  249858647 now IPC :0.28201: AVG IPC :0.89602: L2-Pf-HR :0.81040: L2-HR :0.79342: (Sim:0h19m6s) 
CPU  0 inst:  226000003 cyc:  253408137 now IPC :0.28173: AVG IPC :0.88738: L2-Pf-HR :0.81057: L2-HR :0.79341: (Sim:0h19m15s) 
CPU  0 inst:  227000000 cyc:  256956026 now IPC :0.28186: AVG IPC :0.87899: L2-Pf-HR :0.81078: L2-HR :0.79344: (Sim:0h19m24s) 
CPU  0 inst:  228000000 cyc:  260503345 now IPC :0.28190: AVG IPC :0.87082: L2-Pf-HR :0.81096: L2-HR :0.79345: (Sim:0h19m33s) 
CPU  0 inst:  229000002 cyc:  264049819 now IPC :0.28197: AVG IPC :0.86289: L2-Pf-HR :0.81116: L2-HR :0.79347: (Sim:0h19m42s) 
CPU  0 inst:  230000000 cyc:  267595892 now IPC :0.28200: AVG IPC :0.85516: L2-Pf-HR :0.81135: L2-HR :0.79348: (Sim:0h19m51s) 
CPU  0 inst:  231000000 cyc:  271140892 now IPC :0.28209: AVG IPC :0.84764: L2-Pf-HR :0.81158: L2-HR :0.79354: (Sim:0h20m1s) 
CPU  0 inst:  232000000 cyc:  274687394 now IPC :0.28197: AVG IPC :0.84031: L2-Pf-HR :0.81175: L2-HR :0.79354: (Sim:0h20m10s) 
CPU  0 inst:  233000000 cyc:  278235860 now IPC :0.28181: AVG IPC :0.83316: L2-Pf-HR :0.81192: L2-HR :0.79353: (Sim:0h20m19s) 
CPU  0 inst:  234000003 cyc:  281786444 now IPC :0.28164: AVG IPC :0.82619: L2-Pf-HR :0.81208: L2-HR :0.79353: (Sim:0h20m28s) 
CPU  0 inst:  235000000 cyc:  285333497 now IPC :0.28192: AVG IPC :0.81940: L2-Pf-HR :0.81227: L2-HR :0.79355: (Sim:0h20m37s) 
CPU  0 inst:  236000000 cyc:  288880877 now IPC :0.28190: AVG IPC :0.81278: L2-Pf-HR :0.81242: L2-HR :0.79354: (Sim:0h20m44s) 
CPU  0 inst:  237000000 cyc:  292427399 now IPC :0.28197: AVG IPC :0.80632: L2-Pf-HR :0.81259: L2-HR :0.79354: (Sim:0h20m53s) 
CPU  0 inst:  238000003 cyc:  295973979 now IPC :0.28196: AVG IPC :0.80001: L2-Pf-HR :0.81277: L2-HR :0.79356: (Sim:0h21m2s) 
CPU  0 inst:  239000000 cyc:  299519920 now IPC :0.28201: AVG IPC :0.79386: L2-Pf-HR :0.81297: L2-HR :0.79359: (Sim:0h21m12s) 
CPU  0 inst:  240000000 cyc:  303066964 now IPC :0.28192: AVG IPC :0.78785: L2-Pf-HR :0.81314: L2-HR :0.79360: (Sim:0h21m21s) 
CPU  0 inst:  241000003 cyc:  306614531 now IPC :0.28188: AVG IPC :0.78198: L2-Pf-HR :0.81334: L2-HR :0.79363: (Sim:0h21m30s) 
CPU  0 inst:  242000003 cyc:  310163796 now IPC :0.28175: AVG IPC :0.77624: L2-Pf-HR :0.81349: L2-HR :0.79363: (Sim:0h21m40s) 
CPU  0 inst:  243000000 cyc:  313708020 now IPC :0.28215: AVG IPC :0.77064: L2-Pf-HR :0.81372: L2-HR :0.79368: (Sim:0h21m49s) 
CPU  0 inst:  244000000 cyc:  317253117 now IPC :0.28208: AVG IPC :0.76516: L2-Pf-HR :0.81391: L2-HR :0.79371: (Sim:0h21m58s) 
CPU  0 inst:  245000000 cyc:  320797950 now IPC :0.28210: AVG IPC :0.75981: L2-Pf-HR :0.81409: L2-HR :0.79374: (Sim:0h22m8s) 
CPU  0 inst:  246000002 cyc:  324344778 now IPC :0.28194: AVG IPC :0.75456: L2-Pf-HR :0.81425: L2-HR :0.79374: (Sim:0h22m17s) 
CPU  0 inst:  247000000 cyc:  327890371 now IPC :0.28204: AVG IPC :0.74944: L2-Pf-HR :0.81442: L2-HR :0.79376: (Sim:0h22m26s) 
CPU  0 inst:  248000000 cyc:  331435388 now IPC :0.28209: AVG IPC :0.74443: L2-Pf-HR :0.81462: L2-HR :0.79380: (Sim:0h22m36s) 
CPU  0 inst:  249000003 cyc:  334985096 now IPC :0.28171: AVG IPC :0.73951: L2-Pf-HR :0.81478: L2-HR :0.79380: (Sim:0h22m45s) 
CPU  0 inst:  250000002 cyc:  338529671 now IPC :0.28212: AVG IPC :0.73470: L2-Pf-HR :0.81497: L2-HR :0.79384: (Sim:0h22m54s) 
CPU  0 inst:  251000000 cyc:  342075789 now IPC :0.28200: AVG IPC :0.73000: L2-Pf-HR :0.81514: L2-HR :0.79386: (Sim:0h23m4s) 
CPU  0 inst:  252000000 cyc:  345623495 now IPC :0.28187: AVG IPC :0.72539: L2-Pf-HR :0.81529: L2-HR :0.79385: (Sim:0h23m13s) 
CPU  0 inst:  253000000 cyc:  349172021 now IPC :0.28181: AVG IPC :0.72086: L2-Pf-HR :0.81543: L2-HR :0.79384: (Sim:0h23m20s) 
CPU  0 inst:  254000000 cyc:  352718247 now IPC :0.28199: AVG IPC :0.71644: L2-Pf-HR :0.81560: L2-HR :0.79387: (Sim:0h23m28s) 
CPU  0 inst:  255000002 cyc:  356265552 now IPC :0.28190: AVG IPC :0.71210: L2-Pf-HR :0.81575: L2-HR :0.79386: (Sim:0h23m34s) 
CPU  0 inst:  256000000 cyc:  359814802 now IPC :0.28175: AVG IPC :0.70784: L2-Pf-HR :0.81589: L2-HR :0.79386: (Sim:0h23m40s) 
CPU  0 inst:  257000000 cyc:  363363106 now IPC :0.28182: AVG IPC :0.70367: L2-Pf-HR :0.81605: L2-HR :0.79387: (Sim:0h23m47s) 
CPU  0 inst:  258000000 cyc:  366909275 now IPC :0.28199: AVG IPC :0.69959: L2-Pf-HR :0.81621: L2-HR :0.79388: (Sim:0h23m53s) 
CPU  0 inst:  259000003 cyc:  370455528 now IPC :0.28199: AVG IPC :0.69558: L2-Pf-HR :0.81636: L2-HR :0.79389: (Sim:0h23m59s) 
CPU  0 inst:  260000000 cyc:  374001964 now IPC :0.28197: AVG IPC :0.69165: L2-Pf-HR :0.81652: L2-HR :0.79390: (Sim:0h24m6s) 
CPU  0 inst:  261000000 cyc:  377549770 now IPC :0.28186: AVG IPC :0.68779: L2-Pf-HR :0.81665: L2-HR :0.79389: (Sim:0h24m12s) 
CPU  0 inst:  262000000 cyc:  381096568 now IPC :0.28194: AVG IPC :0.68400: L2-Pf-HR :0.81681: L2-HR :0.79391: (Sim:0h24m19s) 
CPU  0 inst:  263000001 cyc:  384644481 now IPC :0.28186: AVG IPC :0.68028: L2-Pf-HR :0.81695: L2-HR :0.79391: (Sim:0h24m25s) 
CPU  0 inst:  264000000 cyc:  388193273 now IPC :0.28179: AVG IPC :0.67663: L2-Pf-HR :0.81710: L2-HR :0.79392: (Sim:0h24m31s) 
CPU  0 inst:  265000000 cyc:  391740054 now IPC :0.28195: AVG IPC :0.67305: L2-Pf-HR :0.81726: L2-HR :0.79393: (Sim:0h24m40s) 
CPU  0 inst:  266000000 cyc:  395286198 now IPC :0.28200: AVG IPC :0.66953: L2-Pf-HR :0.81741: L2-HR :0.79394: (Sim:0h24m49s) 
CPU  0 inst:  267000002 cyc:  398830460 now IPC :0.28215: AVG IPC :0.66608: L2-Pf-HR :0.81758: L2-HR :0.79398: (Sim:0h24m58s) 
CPU  0 inst:  268000000 cyc:  402375962 now IPC :0.28205: AVG IPC :0.66269: L2-Pf-HR :0.81775: L2-HR :0.79400: (Sim:0h25m8s) 
CPU  0 inst:  269000000 cyc:  405920828 now IPC :0.28210: AVG IPC :0.65935: L2-Pf-HR :0.81792: L2-HR :0.79403: (Sim:0h25m17s) 
CPU  0 inst:  270000001 cyc:  409466382 now IPC :0.28204: AVG IPC :0.65608: L2-Pf-HR :0.81808: L2-HR :0.79406: (Sim:0h25m26s) 
CPU  0 inst:  271000001 cyc:  413014555 now IPC :0.28184: AVG IPC :0.65286: L2-Pf-HR :0.81825: L2-HR :0.79409: (Sim:0h25m35s) 
CPU  0 inst:  272000000 cyc:  416563334 now IPC :0.28179: AVG IPC :0.64969: L2-Pf-HR :0.81839: L2-HR :0.79410: (Sim:0h25m44s) 
CPU  0 inst:  273000000 cyc:  420109881 now IPC :0.28196: AVG IPC :0.64658: L2-Pf-HR :0.81853: L2-HR :0.79410: (Sim:0h25m53s) 
CPU  0 inst:  274000000 cyc:  423656499 now IPC :0.28196: AVG IPC :0.64352: L2-Pf-HR :0.81866: L2-HR :0.79410: (Sim:0h26m2s) 
CPU  0 inst:  275000000 cyc:  427200735 now IPC :0.28215: AVG IPC :0.64051: L2-Pf-HR :0.81885: L2-HR :0.79416: (Sim:0h26m11s) 
CPU  0 inst:  276000000 cyc:  430746976 now IPC :0.28199: AVG IPC :0.63755: L2-Pf-HR :0.81901: L2-HR :0.79418: (Sim:0h26m21s) 
CPU  0 inst:  277000000 cyc:  434293755 now IPC :0.28195: AVG IPC :0.63464: L2-Pf-HR :0.81915: L2-HR :0.79419: (Sim:0h26m30s) 
CPU  0 inst:  278000003 cyc:  437840863 now IPC :0.28192: AVG IPC :0.63178: L2-Pf-HR :0.81931: L2-HR :0.79422: (Sim:0h26m39s) 
CPU  0 inst:  279000003 cyc:  441390524 now IPC :0.28172: AVG IPC :0.62896: L2-Pf-HR :0.81944: L2-HR :0.79422: (Sim:0h26m48s) 
CPU  0 inst:  280000000 cyc:  444937541 now IPC :0.28193: AVG IPC :0.62618: L2-Pf-HR :0.81958: L2-HR :0.79423: (Sim:0h26m55s) 
CPU  0 inst:  281000000 cyc:  448484340 now IPC :0.28194: AVG IPC :0.62346: L2-Pf-HR :0.81972: L2-HR :0.79424: (Sim:0h27m2s) 
CPU  0 inst:  282000000 cyc:  452030219 now IPC :0.28202: AVG IPC :0.62077: L2-Pf-HR :0.81988: L2-HR :0.79428: (Sim:0h27m11s) 
CPU  0 inst:  283000000 cyc:  455575832 now IPC :0.28204: AVG IPC :0.61813: L2-Pf-HR :0.82004: L2-HR :0.79430: (Sim:0h27m17s) 
CPU  0 inst:  284000000 cyc:  459121465 now IPC :0.28204: AVG IPC :0.61553: L2-Pf-HR :0.82020: L2-HR :0.79434: (Sim:0h27m23s) 
CPU  0 inst:  285000000 cyc:  462668621 now IPC :0.28192: AVG IPC :0.61297: L2-Pf-HR :0.82034: L2-HR :0.79435: (Sim:0h27m30s) 
CPU  0 inst:  286000003 cyc:  466217773 now IPC :0.28176: AVG IPC :0.61044: L2-Pf-HR :0.82049: L2-HR :0.79437: (Sim:0h27m36s) 
CPU  0 inst:  287000000 cyc:  469766504 now IPC :0.28179: AVG IPC :0.60795: L2-Pf-HR :0.82061: L2-HR :0.79437: (Sim:0h27m43s) 
CPU  0 inst:  288000000 cyc:  473313162 now IPC :0.28196: AVG IPC :0.60550: L2-Pf-HR :0.82074: L2-HR :0.79437: (Sim:0h27m50s) 
CPU  0 inst:  289000000 cyc:  476858906 now IPC :0.28203: AVG IPC :0.60309: L2-Pf-HR :0.82087: L2-HR :0.79438: (Sim:0h27m59s) 
CPU  0 inst:  290000000 cyc:  480404140 now IPC :0.28207: AVG IPC :0.60072: L2-Pf-HR :0.82101: L2-HR :0.79440: (Sim:0h28m8s) 
CPU  0 inst:  291000000 cyc:  483950772 now IPC :0.28196: AVG IPC :0.59838: L2-Pf-HR :0.82113: L2-HR :0.79440: (Sim:0h28m17s) 
CPU  0 inst:  292000000 cyc:  487497121 now IPC :0.28198: AVG IPC :0.59607: L2-Pf-HR :0.82127: L2-HR :0.79441: (Sim:0h28m27s) 
CPU  0 inst:  293000003 cyc:  491044384 now IPC :0.28191: AVG IPC :0.59380: L2-Pf-HR :0.82140: L2-HR :0.79443: (Sim:0h28m36s) 
CPU  0 inst:  294000003 cyc:  494592699 now IPC :0.28182: AVG IPC :0.59156: L2-Pf-HR :0.82154: L2-HR :0.79445: (Sim:0h28m45s) 
CPU  0 inst:  295000000 cyc:  498138165 now IPC :0.28205: AVG IPC :0.58935: L2-Pf-HR :0.82169: L2-HR :0.79447: (Sim:0h28m55s) 
CPU  0 inst:  296000000 cyc:  501684639 now IPC :0.28197: AVG IPC :0.58717: L2-Pf-HR :0.82183: L2-HR :0.79450: (Sim:0h29m4s) 
CPU  0 inst:  297000003 cyc:  503331341 now IPC :0.60728: AVG IPC :0.58724: L2-Pf-HR :0.82292: L2-HR :0.79571: (Sim:0h29m11s) 
CPU  0 inst:  298000003 cyc:  504053009 now IPC :1.38568: AVG IPC :0.58838: L2-Pf-HR :0.82447: L2-HR :0.79750: (Sim:0h29m17s) 
CPU  0 inst:  299000002 cyc:  504725615 now IPC :1.48675: AVG IPC :0.58958: L2-Pf-HR :0.82601: L2-HR :0.79927: (Sim:0h29m22s) 
CPU  0 inst:  300000000 cyc:  505398459 now IPC :1.48623: AVG IPC :0.59078: L2-Pf-HR :0.82752: L2-HR :0.80101: (Sim:0h29m26s) 
CPU  0 inst:  301000003 cyc:  506076763 now IPC :1.47427: AVG IPC :0.59196: L2-Pf-HR :0.82890: L2-HR :0.80263: (Sim:0h29m30s) 
CPU  0 inst:  302000002 cyc:  506713722 now IPC :1.56996: AVG IPC :0.59320: L2-Pf-HR :0.83033: L2-HR :0.80429: (Sim:0h29m35s) 
CPU  0 inst:  303000000 cyc:  507350115 now IPC :1.57135: AVG IPC :0.59443: L2-Pf-HR :0.83173: L2-HR :0.80591: (Sim:0h29m39s) 
CPU  0 inst:  304000000 cyc:  507982973 now IPC :1.58013: AVG IPC :0.59566: L2-Pf-HR :0.83304: L2-HR :0.80745: (Sim:0h29m43s) 
CPU  0 inst:  305000001 cyc:  508627251 now IPC :1.55213: AVG IPC :0.59687: L2-Pf-HR :0.83433: L2-HR :0.80897: (Sim:0h29m48s) 
CPU  0 inst:  306000003 cyc:  509260381 now IPC :1.57946: AVG IPC :0.59809: L2-Pf-HR :0.83572: L2-HR :0.81057: (Sim:0h29m53s) 
CPU  0 inst:  307000003 cyc:  509892528 now IPC :1.58191: AVG IPC :0.59932: L2-Pf-HR :0.83708: L2-HR :0.81213: (Sim:0h29m57s) 
CPU  0 inst:  308000000 cyc:  510516131 now IPC :1.60358: AVG IPC :0.60055: L2-Pf-HR :0.83838: L2-HR :0.81364: (Sim:0h30m1s) 
CPU  0 inst:  309000001 cyc:  511160874 now IPC :1.55101: AVG IPC :0.60175: L2-Pf-HR :0.83959: L2-HR :0.81505: (Sim:0h30m7s) 
CPU  0 inst:  310000003 cyc:  511809566 now IPC :1.54157: AVG IPC :0.60294: L2-Pf-HR :0.84092: L2-HR :0.81656: (Sim:0h30m13s) 
CPU  0 inst:  311000001 cyc:  512456691 now IPC :1.54529: AVG IPC :0.60413: L2-Pf-HR :0.84222: L2-HR :0.81803: (Sim:0h30m19s) 
CPU  0 inst:  312000000 cyc:  513103456 now IPC :1.54616: AVG IPC :0.60532: L2-Pf-HR :0.84347: L2-HR :0.81946: (Sim:0h30m25s) 
CPU  0 inst:  313000000 cyc:  513773955 now IPC :1.49143: AVG IPC :0.60648: L2-Pf-HR :0.84462: L2-HR :0.82079: (Sim:0h30m31s) 
CPU  0 inst:  314000001 cyc:  514449171 now IPC :1.48101: AVG IPC :0.60763: L2-Pf-HR :0.84578: L2-HR :0.82213: (Sim:0h30m37s) 
CPU  0 inst:  315000003 cyc:  515116752 now IPC :1.49795: AVG IPC :0.60879: L2-Pf-HR :0.84691: L2-HR :0.82345: (Sim:0h30m43s) 
CPU  0 inst:  316000000 cyc:  515778169 now IPC :1.51190: AVG IPC :0.60995: L2-Pf-HR :0.84800: L2-HR :0.82473: (Sim:0h30m48s) 
CPU  0 inst:  317000002 cyc:  516452972 now IPC :1.48192: AVG IPC :0.61109: L2-Pf-HR :0.84904: L2-HR :0.82595: (Sim:0h30m53s) 
CPU  0 inst:  318000000 cyc:  517104745 now IPC :1.53427: AVG IPC :0.61225: L2-Pf-HR :0.84998: L2-HR :0.82708: (Sim:0h30m57s) 
CPU  0 inst:  319000002 cyc:  517738448 now IPC :1.57803: AVG IPC :0.61344: L2-Pf-HR :0.85093: L2-HR :0.82822: (Sim:0h31m2s) 
CPU  0 inst:  320000000 cyc:  518364631 now IPC :1.59697: AVG IPC :0.61463: L2-Pf-HR :0.85188: L2-HR :0.82935: (Sim:0h31m6s) 
CPU  0 inst:  321000003 cyc:  518987625 now IPC :1.60516: AVG IPC :0.61582: L2-Pf-HR :0.85284: L2-HR :0.83049: (Sim:0h31m10s) 
CPU  0 inst:  322000000 cyc:  519639295 now IPC :1.53451: AVG IPC :0.61697: L2-Pf-HR :0.85371: L2-HR :0.83155: (Sim:0h31m14s) 
CPU  0 inst:  323000000 cyc:  520266310 now IPC :1.59486: AVG IPC :0.61816: L2-Pf-HR :0.85471: L2-HR :0.83271: (Sim:0h31m20s) 
CPU  0 inst:  324000000 cyc:  520889452 now IPC :1.60477: AVG IPC :0.61934: L2-Pf-HR :0.85570: L2-HR :0.83387: (Sim:0h31m26s) 
CPU  0 inst:  325000000 cyc:  521513042 now IPC :1.60362: AVG IPC :0.62052: L2-Pf-HR :0.85666: L2-HR :0.83499: (Sim:0h31m31s) 
CPU  0 inst:  326000003 cyc:  522169403 now IPC :1.52356: AVG IPC :0.62165: L2-Pf-HR :0.85752: L2-HR :0.83602: (Sim:0h31m36s) 
CPU  0 inst:  327000001 cyc:  522809403 now IPC :1.56250: AVG IPC :0.62281: L2-Pf-HR :0.85849: L2-HR :0.83713: (Sim:0h31m40s) 
CPU  0 inst:  328000000 cyc:  523460199 now IPC :1.53658: AVG IPC :0.62395: L2-Pf-HR :0.85946: L2-HR :0.83824: (Sim:0h31m45s) 
CPU  0 inst:  329000002 cyc:  524104544 now IPC :1.55197: AVG IPC :0.62509: L2-Pf-HR :0.86041: L2-HR :0.83933: (Sim:0h31m49s) 
CPU  0 inst:  330000001 cyc:  524790954 now IPC :1.45685: AVG IPC :0.62618: L2-Pf-HR :0.86121: L2-HR :0.84028: (Sim:0h31m53s) 
CPU  0 inst:  331000000 cyc:  525460938 now IPC :1.49257: AVG IPC :0.62729: L2-Pf-HR :0.86200: L2-HR :0.84122: (Sim:0h31m59s) 
CPU  0 inst:  332000000 cyc:  526132240 now IPC :1.48964: AVG IPC :0.62839: L2-Pf-HR :0.86279: L2-HR :0.84216: (Sim:0h32m3s) 
CPU  0 inst:  333000002 cyc:  526802454 now IPC :1.49206: AVG IPC :0.62949: L2-Pf-HR :0.86357: L2-HR :0.84309: (Sim:0h32m8s) 
CPU  0 inst:  334000001 cyc:  527486380 now IPC :1.46214: AVG IPC :0.63057: L2-Pf-HR :0.86425: L2-HR :0.84393: (Sim:0h32m12s) 
CPU  0 inst:  335000000 cyc:  528123091 now IPC :1.57057: AVG IPC :0.63171: L2-Pf-HR :0.86495: L2-HR :0.84479: (Sim:0h32m16s) 
CPU  0 inst:  336000000 cyc:  528755756 now IPC :1.58062: AVG IPC :0.63284: L2-Pf-HR :0.86565: L2-HR :0.84564: (Sim:0h32m21s) 
CPU  0 inst:  337000003 cyc:  529388335 now IPC :1.58083: AVG IPC :0.63398: L2-Pf-HR :0.86633: L2-HR :0.84647: (Sim:0h32m25s) 
CPU  0 inst:  338000001 cyc:  530023558 now IPC :1.57425: AVG IPC :0.63511: L2-Pf-HR :0.86696: L2-HR :0.84726: (Sim:0h32m30s) 
CPU  0 inst:  339000001 cyc:  530665062 now IPC :1.55884: AVG IPC :0.63623: L2-Pf-HR :0.86768: L2-HR :0.84811: (Sim:0h32m34s) 
CPU  0 inst:  340000000 cyc:  531300741 now IPC :1.57312: AVG IPC :0.63735: L2-Pf-HR :0.86840: L2-HR :0.84897: (Sim:0h32m38s) 
CPU  0 inst:  341000000 cyc:  531929010 now IPC :1.59167: AVG IPC :0.63848: L2-Pf-HR :0.86913: L2-HR :0.84983: (Sim:0h32m43s) 
CPU  0 inst:  342000001 cyc:  532557080 now IPC :1.59218: AVG IPC :0.63961: L2-Pf-HR :0.86985: L2-HR :0.85068: (Sim:0h32m49s) 
CPU  0 inst:  343000002 cyc:  533209174 now IPC :1.53352: AVG IPC :0.64070: L2-Pf-HR :0.87051: L2-HR :0.85147: (Sim:0h32m55s) 
CPU  0 inst:  344000000 cyc:  533859366 now IPC :1.53800: AVG IPC :0.64180: L2-Pf-HR :0.87123: L2-HR :0.85231: (Sim:0h33m1s) 
CPU  0 inst:  345000003 cyc:  534508342 now IPC :1.54089: AVG IPC :0.64289: L2-Pf-HR :0.87195: L2-HR :0.85314: (Sim:0h33m8s) 
CPU  0 inst:  346000001 cyc:  535151932 now IPC :1.55378: AVG IPC :0.64399: L2-Pf-HR :0.87265: L2-HR :0.85396: (Sim:0h33m13s) 
CPU  0 inst:  347000000 cyc:  535837475 now IPC :1.45870: AVG IPC :0.64503: L2-Pf-HR :0.87320: L2-HR :0.85464: (Sim:0h33m19s) 
CPU  0 inst:  348000000 cyc:  536511456 now IPC :1.48372: AVG IPC :0.64609: L2-Pf-HR :0.87378: L2-HR :0.85534: (Sim:0h33m24s) 
CPU  0 inst:  349000001 cyc:  537178514 now IPC :1.49912: AVG IPC :0.64715: L2-Pf-HR :0.87433: L2-HR :0.85602: (Sim:0h33m29s) 
CPU  0 inst:  350000002 cyc:  537844373 now IPC :1.50182: AVG IPC :0.64821: L2-Pf-HR :0.87489: L2-HR :0.85670: (Sim:0h33m34s) 
CPU  0 inst:  351000002 cyc:  538516420 now IPC :1.48799: AVG IPC :0.64926: L2-Pf-HR :0.87537: L2-HR :0.85731: (Sim:0h33m39s) 
CPU  0 inst:  352000000 cyc:  539146392 now IPC :1.58737: AVG IPC :0.65036: L2-Pf-HR :0.87590: L2-HR :0.85798: (Sim:0h33m44s) 
CPU  0 inst:  353000003 cyc:  539781352 now IPC :1.57491: AVG IPC :0.65145: L2-Pf-HR :0.87643: L2-HR :0.85863: (Sim:0h33m48s) 
CPU  0 inst:  354000002 cyc:  540410510 now IPC :1.58942: AVG IPC :0.65254: L2-Pf-HR :0.87696: L2-HR :0.85928: (Sim:0h33m53s) 
CPU  0 inst:  355000002 cyc:  541063559 now IPC :1.53128: AVG IPC :0.65360: L2-Pf-HR :0.87740: L2-HR :0.85984: (Sim:0h34m0s) 
CPU  0 inst:  356000000 cyc:  541693375 now IPC :1.58776: AVG IPC :0.65469: L2-Pf-HR :0.87793: L2-HR :0.86050: (Sim:0h34m6s) 
CPU  0 inst:  357000002 cyc:  542324899 now IPC :1.58347: AVG IPC :0.65577: L2-Pf-HR :0.87849: L2-HR :0.86117: (Sim:0h34m12s) 
CPU  0 inst:  358000003 cyc:  542947353 now IPC :1.60655: AVG IPC :0.65687: L2-Pf-HR :0.87905: L2-HR :0.86183: (Sim:0h34m17s) 
CPU  0 inst:  359000000 cyc:  543597009 now IPC :1.53927: AVG IPC :0.65792: L2-Pf-HR :0.87954: L2-HR :0.86244: (Sim:0h34m21s) 
CPU  0 inst:  360000000 cyc:  544243942 now IPC :1.54576: AVG IPC :0.65898: L2-Pf-HR :0.88010: L2-HR :0.86310: (Sim:0h34m25s) 
CPU  0 inst:  361000002 cyc:  544891800 now IPC :1.54355: AVG IPC :0.66003: L2-Pf-HR :0.88067: L2-HR :0.86377: (Sim:0h34m30s) 
CPU  0 inst:  362000003 cyc:  545537396 now IPC :1.54896: AVG IPC :0.66109: L2-Pf-HR :0.88123: L2-HR :0.86442: (Sim:0h34m34s) 
CPU  0 inst:  363000001 cyc:  546192712 now IPC :1.52598: AVG IPC :0.66213: L2-Pf-HR :0.88177: L2-HR :0.86505: (Sim:0h34m39s) 
CPU  0 inst:  364000000 cyc:  546875665 now IPC :1.46423: AVG IPC :0.66313: L2-Pf-HR :0.88219: L2-HR :0.86558: (Sim:0h34m45s) 
CPU  0 inst:  365000000 cyc:  547541678 now IPC :1.50147: AVG IPC :0.66415: L2-Pf-HR :0.88267: L2-HR :0.86617: (Sim:0h34m51s) 
CPU  0 inst:  366000003 cyc:  548207355 now IPC :1.50223: AVG IPC :0.66517: L2-Pf-HR :0.88315: L2-HR :0.86676: (Sim:0h34m55s) 
CPU  0 inst:  367000001 cyc:  548875756 now IPC :1.49610: AVG IPC :0.66618: L2-Pf-HR :0.88361: L2-HR :0.86732: (Sim:0h35m1s) 
CPU  0 inst:  368000000 cyc:  549536579 now IPC :1.51326: AVG IPC :0.66720: L2-Pf-HR :0.88395: L2-HR :0.86777: (Sim:0h35m7s) 
CPU  0 inst:  369000003 cyc:  550169913 now IPC :1.57895: AVG IPC :0.66826: L2-Pf-HR :0.88439: L2-HR :0.86831: (Sim:0h35m13s) 
CPU  0 inst:  370000000 cyc:  550800715 now IPC :1.58528: AVG IPC :0.66931: L2-Pf-HR :0.88481: L2-HR :0.86884: (Sim:0h35m19s) 
CPU  0 inst:  371000000 cyc:  551430823 now IPC :1.58703: AVG IPC :0.67036: L2-Pf-HR :0.88521: L2-HR :0.86934: (Sim:0h35m24s) 
CPU  0 inst:  372000000 cyc:  552076421 now IPC :1.54895: AVG IPC :0.67139: L2-Pf-HR :0.88557: L2-HR :0.86981: (Sim:0h35m30s) 
CPU  0 inst:  373000002 cyc:  552701727 now IPC :1.59922: AVG IPC :0.67244: L2-Pf-HR :0.88604: L2-HR :0.87037: (Sim:0h35m36s) 
CPU  0 inst:  374000000 cyc:  553329609 now IPC :1.59265: AVG IPC :0.67349: L2-Pf-HR :0.88650: L2-HR :0.87092: (Sim:0h35m41s) 
CPU  0 inst:  375000003 cyc:  553957964 now IPC :1.59146: AVG IPC :0.67453: L2-Pf-HR :0.88694: L2-HR :0.87146: (Sim:0h35m46s) 
CPU  0 inst:  376000000 cyc:  554603560 now IPC :1.54895: AVG IPC :0.67555: L2-Pf-HR :0.88735: L2-HR :0.87196: (Sim:0h35m51s) 
CPU  0 inst:  377000001 cyc:  555251135 now IPC :1.54422: AVG IPC :0.67656: L2-Pf-HR :0.88781: L2-HR :0.87250: (Sim:0h35m56s) 
CPU  0 inst:  378000003 cyc:  555900836 now IPC :1.53917: AVG IPC :0.67757: L2-Pf-HR :0.88828: L2-HR :0.87305: (Sim:0h36m0s) 
CPU  0 inst:  379000000 cyc:  556549701 now IPC :1.54115: AVG IPC :0.67858: L2-Pf-HR :0.88875: L2-HR :0.87359: (Sim:0h36m5s) 
CPU  0 inst:  380000000 cyc:  557219990 now IPC :1.49189: AVG IPC :0.67956: L2-Pf-HR :0.88915: L2-HR :0.87407: (Sim:0h36m10s) 
CPU  0 inst:  381000003 cyc:  557891516 now IPC :1.48915: AVG IPC :0.68054: L2-Pf-HR :0.88954: L2-HR :0.87456: (Sim:0h36m17s) 
CPU  0 inst:  382000000 cyc:  558561357 now IPC :1.49289: AVG IPC :0.68151: L2-Pf-HR :0.88991: L2-HR :0.87501: (Sim:0h36m23s) 
CPU  0 inst:  383000002 cyc:  559226654 now IPC :1.50309: AVG IPC :0.68249: L2-Pf-HR :0.89029: L2-HR :0.87548: (Sim:0h36m30s) 
CPU  0 inst:  384000000 cyc:  559908466 now IPC :1.46668: AVG IPC :0.68345: L2-Pf-HR :0.89062: L2-HR :0.87590: (Sim:0h36m36s) 
CPU  0 inst:  385000003 cyc:  560544734 now IPC :1.57167: AVG IPC :0.68446: L2-Pf-HR :0.89098: L2-HR :0.87635: (Sim:0h36m42s) 
CPU  0 inst:  386000000 cyc:  561175983 now IPC :1.58416: AVG IPC :0.68547: L2-Pf-HR :0.89133: L2-HR :0.87678: (Sim:0h36m48s) 
CPU  0 inst:  387000002 cyc:  561805242 now IPC :1.58917: AVG IPC :0.68649: L2-Pf-HR :0.89166: L2-HR :0.87720: (Sim:0h36m52s) 
CPU  0 inst:  388000000 cyc:  562440289 now IPC :1.57468: AVG IPC :0.68749: L2-Pf-HR :0.89200: L2-HR :0.87763: (Sim:0h36m56s) 
CPU  0 inst:  389000003 cyc:  563080109 now IPC :1.56294: AVG IPC :0.68849: L2-Pf-HR :0.89233: L2-HR :0.87805: (Sim:0h37m0s) 
CPU  0 inst:  390000002 cyc:  563712348 now IPC :1.58168: AVG IPC :0.68949: L2-Pf-HR :0.89271: L2-HR :0.87851: (Sim:0h37m5s) 
CPU  0 inst:  391000001 cyc:  564339122 now IPC :1.59547: AVG IPC :0.69050: L2-Pf-HR :0.89308: L2-HR :0.87895: (Sim:0h37m11s) 
CPU  0 inst:  392000000 cyc:  564961342 now IPC :1.60715: AVG IPC :0.69151: L2-Pf-HR :0.89344: L2-HR :0.87940: (Sim:0h37m18s) 
CPU  0 inst:  393000002 cyc:  565618252 now IPC :1.52228: AVG IPC :0.69248: L2-Pf-HR :0.89376: L2-HR :0.87979: (Sim:0h37m24s) 
CPU  0 inst:  394000002 cyc:  566260433 now IPC :1.55719: AVG IPC :0.69346: L2-Pf-HR :0.89414: L2-HR :0.88024: (Sim:0h37m30s) 
CPU  0 inst:  395000003 cyc:  566909026 now IPC :1.54180: AVG IPC :0.69443: L2-Pf-HR :0.89452: L2-HR :0.88068: (Sim:0h37m37s) 
CPU  0 inst:  396000000 cyc:  567555692 now IPC :1.54639: AVG IPC :0.69540: L2-Pf-HR :0.89489: L2-HR :0.88112: (Sim:0h37m43s) 
CPU  0 inst:  397000001 cyc:  568241348 now IPC :1.45846: AVG IPC :0.69633: L2-Pf-HR :0.89518: L2-HR :0.88148: (Sim:0h37m49s) 
CPU  0 inst:  398000001 cyc:  568904369 now IPC :1.50825: AVG IPC :0.69727: L2-Pf-HR :0.89549: L2-HR :0.88187: (Sim:0h37m56s) 
CPU  0 inst:  399000000 cyc:  569571001 now IPC :1.50008: AVG IPC :0.69822: L2-Pf-HR :0.89581: L2-HR :0.88226: (Sim:0h38m0s) 
CPU  0 inst:  400000000 cyc:  570234643 now IPC :1.50684: AVG IPC :0.69916: L2-Pf-HR :0.89611: L2-HR :0.88263: (Sim:0h38m5s) 
CPU  0 inst:  401000003 cyc:  570912378 now IPC :1.47551: AVG IPC :0.70008: L2-Pf-HR :0.89632: L2-HR :0.88293: (Sim:0h38m9s) 
CPU  0 inst:  402000001 cyc:  571545919 now IPC :1.57843: AVG IPC :0.70106: L2-Pf-HR :0.89660: L2-HR :0.88329: (Sim:0h38m13s) 
CPU  0 inst:  403000001 cyc:  572177667 now IPC :1.58291: AVG IPC :0.70203: L2-Pf-HR :0.89687: L2-HR :0.88363: (Sim:0h38m17s) 
CPU  0 inst:  404000000 cyc:  572804702 now IPC :1.59481: AVG IPC :0.70301: L2-Pf-HR :0.89715: L2-HR :0.88398: (Sim:0h38m21s) 
CPU  0 inst:  405000002 cyc:  573453776 now IPC :1.54066: AVG IPC :0.70396: L2-Pf-HR :0.89735: L2-HR :0.88427: (Sim:0h38m26s) 
CPU  0 inst:  406000000 cyc:  574080304 now IPC :1.59609: AVG IPC :0.70494: L2-Pf-HR :0.89767: L2-HR :0.88466: (Sim:0h38m30s) 
CPU  0 inst:  407000003 cyc:  574711605 now IPC :1.58404: AVG IPC :0.70590: L2-Pf-HR :0.89799: L2-HR :0.88504: (Sim:0h38m34s) 
CPU  0 inst:  408000000 cyc:  575342076 now IPC :1.58611: AVG IPC :0.70687: L2-Pf-HR :0.89829: L2-HR :0.88541: (Sim:0h38m38s) 
CPU  0 inst:  409000001 cyc:  575971180 now IPC :1.58956: AVG IPC :0.70784: L2-Pf-HR :0.89855: L2-HR :0.88574: (Sim:0h38m44s) 
CPU  0 inst:  410000000 cyc:  576619227 now IPC :1.54310: AVG IPC :0.70878: L2-Pf-HR :0.89886: L2-HR :0.88611: (Sim:0h38m48s) 
CPU  0 inst:  411000001 cyc:  577267543 now IPC :1.54246: AVG IPC :0.70971: L2-Pf-HR :0.89918: L2-HR :0.88648: (Sim:0h38m52s) 
CPU  0 inst:  412000000 cyc:  577916622 now IPC :1.54064: AVG IPC :0.71065: L2-Pf-HR :0.89949: L2-HR :0.88686: (Sim:0h38m56s) 
CPU  0 inst:  413000002 cyc:  578571485 now IPC :1.52704: AVG IPC :0.71157: L2-Pf-HR :0.89978: L2-HR :0.88720: (Sim:0h39m1s) 
CPU  0 inst:  414000002 cyc:  579255254 now IPC :1.46248: AVG IPC :0.71246: L2-Pf-HR :0.90001: L2-HR :0.88750: (Sim:0h39m5s) 
CPU  0 inst:  415000003 cyc:  579928127 now IPC :1.48617: AVG IPC :0.71336: L2-Pf-HR :0.90028: L2-HR :0.88783: (Sim:0h39m9s) 
CPU  0 inst:  416000000 cyc:  580600552 now IPC :1.48715: AVG IPC :0.71426: L2-Pf-HR :0.90054: L2-HR :0.88816: (Sim:0h39m13s) 
CPU  0 inst:  417000003 cyc:  581267513 now IPC :1.49934: AVG IPC :0.71516: L2-Pf-HR :0.90081: L2-HR :0.88849: (Sim:0h39m17s) 
CPU  0 inst:  418000001 cyc:  581935293 now IPC :1.49750: AVG IPC :0.71606: L2-Pf-HR :0.90102: L2-HR :0.88876: (Sim:0h39m21s) 
CPU  0 inst:  419000002 cyc:  582563116 now IPC :1.59281: AVG IPC :0.71701: L2-Pf-HR :0.90125: L2-HR :0.88906: (Sim:0h39m26s) 
CPU  0 inst:  420000000 cyc:  583194014 now IPC :1.58504: AVG IPC :0.71795: L2-Pf-HR :0.90149: L2-HR :0.88936: (Sim:0h39m30s) 
CPU  0 inst:  421000003 cyc:  583821581 now IPC :1.59346: AVG IPC :0.71889: L2-Pf-HR :0.90171: L2-HR :0.88965: (Sim:0h39m34s) 
CPU  0 inst:  422000002 cyc:  584470426 now IPC :1.54120: AVG IPC :0.71981: L2-Pf-HR :0.90190: L2-HR :0.88990: (Sim:0h39m38s) 
CPU  0 inst:  423000002 cyc:  585096120 now IPC :1.59823: AVG IPC :0.72075: L2-Pf-HR :0.90216: L2-HR :0.89023: (Sim:0h39m42s) 
CPU  0 inst:  424000000 cyc:  585720401 now IPC :1.60184: AVG IPC :0.72169: L2-Pf-HR :0.90242: L2-HR :0.89055: (Sim:0h39m46s) 
CPU  0 inst:  425000001 cyc:  586343369 now IPC :1.60522: AVG IPC :0.72263: L2-Pf-HR :0.90268: L2-HR :0.89087: (Sim:0h39m50s) 
CPU  0 inst:  426000001 cyc:  586995997 now IPC :1.53227: AVG IPC :0.72353: L2-Pf-HR :0.90290: L2-HR :0.89114: (Sim:0h39m55s) 
CPU  0 inst:  427000001 cyc:  587634562 now IPC :1.56601: AVG IPC :0.72445: L2-Pf-HR :0.90318: L2-HR :0.89147: (Sim:0h40m0s) 
CPU  0 inst:  428000000 cyc:  588280669 now IPC :1.54773: AVG IPC :0.72535: L2-Pf-HR :0.90345: L2-HR :0.89179: (Sim:0h40m6s) 
CPU  0 inst:  429000001 cyc:  588925789 now IPC :1.55010: AVG IPC :0.72626: L2-Pf-HR :0.90372: L2-HR :0.89211: (Sim:0h40m12s) 
CPU  0 inst:  430000002 cyc:  589600259 now IPC :1.48265: AVG IPC :0.72712: L2-Pf-HR :0.90394: L2-HR :0.89238: (Sim:0h40m18s) 
CPU  0 inst:  431000000 cyc:  590270665 now IPC :1.49163: AVG IPC :0.72799: L2-Pf-HR :0.90417: L2-HR :0.89266: (Sim:0h40m24s) 
CPU  0 inst:  432000000 cyc:  590940873 now IPC :1.49207: AVG IPC :0.72886: L2-Pf-HR :0.90440: L2-HR :0.89295: (Sim:0h40m30s) 
CPU  0 inst:  433000002 cyc:  591610996 now IPC :1.49227: AVG IPC :0.72973: L2-Pf-HR :0.90462: L2-HR :0.89322: (Sim:0h40m36s) 
CPU  0 inst:  434000001 cyc:  592292228 now IPC :1.46793: AVG IPC :0.73058: L2-Pf-HR :0.90481: L2-HR :0.89347: (Sim:0h40m43s) 
CPU  0 inst:  435000000 cyc:  592942579 now IPC :1.53763: AVG IPC :0.73146: L2-Pf-HR :0.90499: L2-HR :0.89371: (Sim:0h40m49s) 
CPU  0 inst:  436000000 cyc:  593575237 now IPC :1.58063: AVG IPC :0.73237: L2-Pf-HR :0.90519: L2-HR :0.89397: (Sim:0h40m55s) 
CPU  0 inst:  437000003 cyc:  594208446 now IPC :1.57926: AVG IPC :0.73327: L2-Pf-HR :0.90538: L2-HR :0.89421: (Sim:0h41m1s) 
CPU  0 inst:  438000003 cyc:  594836613 now IPC :1.59193: AVG IPC :0.73418: L2-Pf-HR :0.90557: L2-HR :0.89446: (Sim:0h41m7s) 
CPU  0 inst:  439000003 cyc:  595488850 now IPC :1.53319: AVG IPC :0.73506: L2-Pf-HR :0.90573: L2-HR :0.89468: (Sim:0h41m13s) 
CPU  0 inst:  440000000 cyc:  596117824 now IPC :1.58989: AVG IPC :0.73596: L2-Pf-HR :0.90594: L2-HR :0.89494: (Sim:0h41m20s) 
CPU  0 inst:  441000003 cyc:  596743068 now IPC :1.59938: AVG IPC :0.73687: L2-Pf-HR :0.90614: L2-HR :0.89520: (Sim:0h41m26s) 
CPU  0 inst:  442000000 cyc:  597371983 now IPC :1.59004: AVG IPC :0.73777: L2-Pf-HR :0.90635: L2-HR :0.89546: (Sim:0h41m32s) 
CPU  0 inst:  443000001 cyc:  598027967 now IPC :1.52443: AVG IPC :0.73863: L2-Pf-HR :0.90653: L2-HR :0.89569: (Sim:0h41m38s) 
CPU  0 inst:  444000000 cyc:  598673155 now IPC :1.54993: AVG IPC :0.73951: L2-Pf-HR :0.90677: L2-HR :0.89597: (Sim:0h41m42s) 
CPU  0 inst:  445000001 cyc:  599323101 now IPC :1.53859: AVG IPC :0.74038: L2-Pf-HR :0.90700: L2-HR :0.89625: (Sim:0h41m46s) 
CPU  0 inst:  446000002 cyc:  599976987 now IPC :1.52932: AVG IPC :0.74124: L2-Pf-HR :0.90724: L2-HR :0.89652: (Sim:0h41m50s) 
CPU  0 inst:  447000002 cyc:  600650900 now IPC :1.48387: AVG IPC :0.74207: L2-Pf-HR :0.90741: L2-HR :0.89674: (Sim:0h41m56s) 
CPU  0 inst:  448000000 cyc:  601321534 now IPC :1.49112: AVG IPC :0.74291: L2-Pf-HR :0.90760: L2-HR :0.89698: (Sim:0h42m2s) 
CPU  0 inst:  449000001 cyc:  601997304 now IPC :1.47979: AVG IPC :0.74374: L2-Pf-HR :0.90777: L2-HR :0.89720: (Sim:0h42m9s) 
CPU  0 inst:  450000002 cyc:  602663418 now IPC :1.50125: AVG IPC :0.74458: L2-Pf-HR :0.90795: L2-HR :0.89743: (Sim:0h42m15s) 
CPU  0 inst:  451000003 cyc:  603337919 now IPC :1.48258: AVG IPC :0.74540: L2-Pf-HR :0.90809: L2-HR :0.89762: (Sim:0h42m20s) 
CPU  0 inst:  452000000 cyc:  603978965 now IPC :1.55995: AVG IPC :0.74627: L2-Pf-HR :0.90826: L2-HR :0.89784: (Sim:0h42m24s) 
CPU  0 inst:  453000001 cyc:  604616624 now IPC :1.56824: AVG IPC :0.74714: L2-Pf-HR :0.90842: L2-HR :0.89805: (Sim:0h42m28s) 
CPU  0 inst:  454000000 cyc:  605243522 now IPC :1.59515: AVG IPC :0.74802: L2-Pf-HR :0.90858: L2-HR :0.89826: (Sim:0h42m34s) 
CPU  0 inst:  455000002 cyc:  605888925 now IPC :1.54942: AVG IPC :0.74887: L2-Pf-HR :0.90870: L2-HR :0.89844: (Sim:0h42m40s) 
CPU  0 inst:  456000000 cyc:  606517155 now IPC :1.59177: AVG IPC :0.74975: L2-Pf-HR :0.90890: L2-HR :0.89869: (Sim:0h42m46s) 
CPU  0 inst:  457000003 cyc:  607144092 now IPC :1.59506: AVG IPC :0.75062: L2-Pf-HR :0.90911: L2-HR :0.89894: (Sim:0h42m53s) 
CPU  0 inst:  458000002 cyc:  607772224 now IPC :1.59202: AVG IPC :0.75149: L2-Pf-HR :0.90930: L2-HR :0.89917: (Sim:0h42m59s) 
CPU  0 inst:  459000002 cyc:  608404527 now IPC :1.58152: AVG IPC :0.75236: L2-Pf-HR :0.90948: L2-HR :0.89940: (Sim:0h43m3s) 
CPU  0 inst:  460000000 cyc:  609058152 now IPC :1.52993: AVG IPC :0.75319: L2-Pf-HR :0.90967: L2-HR :0.89963: (Sim:0h43m9s) 
CPU  0 inst:  461000002 cyc:  609699674 now IPC :1.55880: AVG IPC :0.75404: L2-Pf-HR :0.90988: L2-HR :0.89988: (Sim:0h43m13s) 
CPU  0 inst:  462000002 cyc:  610349448 now IPC :1.53900: AVG IPC :0.75488: L2-Pf-HR :0.91009: L2-HR :0.90012: (Sim:0h43m19s) 
CPU  0 inst:  463000000 cyc:  610995350 now IPC :1.54822: AVG IPC :0.75572: L2-Pf-HR :0.91030: L2-HR :0.90037: (Sim:0h43m25s) 
CPU  0 inst:  464000000 cyc:  611684664 now IPC :1.45072: AVG IPC :0.75650: L2-Pf-HR :0.91044: L2-HR :0.90056: (Sim:0h43m31s) 
CPU  0 inst:  465000000 cyc:  612349849 now IPC :1.50334: AVG IPC :0.75731: L2-Pf-HR :0.91062: L2-HR :0.90078: (Sim:0h43m35s) 
CPU  0 inst:  466000002 cyc:  613014903 now IPC :1.50364: AVG IPC :0.75813: L2-Pf-HR :0.91079: L2-HR :0.90099: (Sim:0h43m39s) 
CPU  0 inst:  467000002 cyc:  613675483 now IPC :1.51382: AVG IPC :0.75894: L2-Pf-HR :0.91096: L2-HR :0.90121: (Sim:0h43m43s) 
CPU  0 inst:  468000000 cyc:  614351617 now IPC :1.47899: AVG IPC :0.75973: L2-Pf-HR :0.91108: L2-HR :0.90137: (Sim:0h43m48s) 
CPU  0 inst:  469000002 cyc:  614982459 now IPC :1.58519: AVG IPC :0.76058: L2-Pf-HR :0.91123: L2-HR :0.90157: (Sim:0h43m54s) 
CPU  0 inst:  470000001 cyc:  615614862 now IPC :1.58127: AVG IPC :0.76143: L2-Pf-HR :0.91138: L2-HR :0.90176: (Sim:0h44m0s) 
CPU  0 inst:  471000001 cyc:  616240152 now IPC :1.59926: AVG IPC :0.76228: L2-Pf-HR :0.91152: L2-HR :0.90194: (Sim:0h44m6s) 
CPU  0 inst:  472000000 cyc:  616895247 now IPC :1.52649: AVG IPC :0.76309: L2-Pf-HR :0.91164: L2-HR :0.90211: (Sim:0h44m12s) 
CPU  0 inst:  473000003 cyc:  617520625 now IPC :1.59904: AVG IPC :0.76394: L2-Pf-HR :0.91182: L2-HR :0.90233: (Sim:0h44m18s) 
CPU  0 inst:  474000002 cyc:  618147701 now IPC :1.59470: AVG IPC :0.76478: L2-Pf-HR :0.91200: L2-HR :0.90255: (Sim:0h44m24s) 
CPU  0 inst:  475000000 cyc:  618768822 now IPC :1.60999: AVG IPC :0.76563: L2-Pf-HR :0.91217: L2-HR :0.90276: (Sim:0h44m30s) 
CPU  0 inst:  476000000 cyc:  619418783 now IPC :1.53855: AVG IPC :0.76645: L2-Pf-HR :0.91231: L2-HR :0.90294: (Sim:0h44m36s) 
CPU  0 inst:  477000000 cyc:  620059118 now IPC :1.56168: AVG IPC :0.76727: L2-Pf-HR :0.91250: L2-HR :0.90316: (Sim:0h44m43s) 
CPU  0 inst:  478000003 cyc:  620702239 now IPC :1.55492: AVG IPC :0.76809: L2-Pf-HR :0.91268: L2-HR :0.90338: (Sim:0h44m49s) 
CPU  0 inst:  479000001 cyc:  621355045 now IPC :1.53185: AVG IPC :0.76889: L2-Pf-HR :0.91286: L2-HR :0.90359: (Sim:0h44m55s) 
CPU  0 inst:  480000000 cyc:  622009364 now IPC :1.52831: AVG IPC :0.76969: L2-Pf-HR :0.91302: L2-HR :0.90379: (Sim:0h45m1s) 
CPU  0 inst:  481000002 cyc:  622696094 now IPC :1.45618: AVG IPC :0.77045: L2-Pf-HR :0.91313: L2-HR :0.90394: (Sim:0h45m7s) 
CPU  0 inst:  482000000 cyc:  623371437 now IPC :1.48073: AVG IPC :0.77122: L2-Pf-HR :0.91327: L2-HR :0.90411: (Sim:0h45m13s) 
CPU  0 inst:  483000000 cyc:  624045227 now IPC :1.48414: AVG IPC :0.77199: L2-Pf-HR :0.91338: L2-HR :0.90427: (Sim:0h45m19s) 
CPU  0 inst:  484000000 cyc:  624717009 now IPC :1.48858: AVG IPC :0.77276: L2-Pf-HR :0.91350: L2-HR :0.90443: (Sim:0h45m26s) 
CPU  0 inst:  485000000 cyc:  625366590 now IPC :1.53945: AVG IPC :0.77356: L2-Pf-HR :0.91360: L2-HR :0.90457: (Sim:0h45m32s) 
CPU  0 inst:  486000001 cyc:  626005605 now IPC :1.56491: AVG IPC :0.77437: L2-Pf-HR :0.91374: L2-HR :0.90474: (Sim:0h45m38s) 
CPU  0 inst:  487000000 cyc:  626636829 now IPC :1.58422: AVG IPC :0.77518: L2-Pf-HR :0.91386: L2-HR :0.90491: (Sim:0h45m44s) 
CPU  0 inst:  488000000 cyc:  627263033 now IPC :1.59692: AVG IPC :0.77601: L2-Pf-HR :0.91399: L2-HR :0.90507: (Sim:0h45m50s) 
CPU  0 inst:  489000001 cyc:  627911805 now IPC :1.54138: AVG IPC :0.77680: L2-Pf-HR :0.91409: L2-HR :0.90521: (Sim:0h45m56s) 
CPU  0 inst:  490000001 cyc:  628543418 now IPC :1.58325: AVG IPC :0.77761: L2-Pf-HR :0.91423: L2-HR :0.90540: (Sim:0h46m0s) 
CPU  0 inst:  491000001 cyc:  629169215 now IPC :1.59796: AVG IPC :0.77843: L2-Pf-HR :0.91439: L2-HR :0.90559: (Sim:0h46m4s) 
CPU  0 inst:  492000000 cyc:  629790245 now IPC :1.61023: AVG IPC :0.77925: L2-Pf-HR :0.91454: L2-HR :0.90577: (Sim:0h46m8s) 
CPU  0 inst:  493000002 cyc:  630447022 now IPC :1.52259: AVG IPC :0.78002: L2-Pf-HR :0.91465: L2-HR :0.90591: (Sim:0h46m12s) 
Finished CPU 0 instr: 491000000 cyc: 629467856 AVG IPC: 0.78002 (Sim time: 0h46m12s)

ChampSim completed all CPUs

[ROI Statistics]
Core_0_instructions 491000000
Core_0_cycles 629467856
Core_0_IPC 0.78002

Core_0_branch_prediction_accuracy 99.58586
Core_0_branch_MPKI 0.12051
Core_0_average_ROB_occupancy_at_mispredict 239.80314

Core_0_L1D_total_access 334766221
Core_0_L1D_total_hit 305548881 L1D_total_Hit Ratio: 0.91272
Core_0_L1D_total_miss 29217340
Core_0_L1D_loads 134590026
Core_0_L1D_load_hit 121957464 L1D_load_Hit Ratio: 0.90614
Core_0_L1D_load_miss 12632562
Core_0_L1D_RFOs 12866954
Core_0_L1D_RFO_hit 12076608 L1D_RFO_Hit Ratio: 0.93858
Core_0_L1D_RFO_miss 790346
Core_0_L1D_prefetches 187309241
Core_0_L1D_prefetch_hit 171514809 L1D_prefetch_Hit Ratio: 0.91568
Core_0_L1D_prefetch_miss 15794432
Core_0_L1D_writebacks 0
Core_0_L1D_writeback_hit 0 L1D_writeback_Hit Ratio: -nan
Core_0_L1D_writeback_miss 0
Core_0_L1D_prefetch_requested 406973676
Core_0_L1D_prefetch_issued 213971670
Core_0_L1D_prefetch_useful 6298608 L1D_Useful Ratio: 0.02944
Core_0_L1D_prefetch_useless 9523678
Core_0_L1D_prefetch_late 1629316
Core_0_L1D_average_miss_latency 17550641.73797

Core_0_L1I_total_access 125109441
Core_0_L1I_total_hit 125104458 L1I_total_Hit Ratio: 0.99996
Core_0_L1I_total_miss 4983
Core_0_L1I_loads 125109441
Core_0_L1I_load_hit 125104458 L1I_load_Hit Ratio: 0.99996
Core_0_L1I_load_miss 4983
Core_0_L1I_RFOs 0
Core_0_L1I_RFO_hit 0 L1I_RFO_Hit Ratio: -nan
Core_0_L1I_RFO_miss 0
Core_0_L1I_prefetches 0
Core_0_L1I_prefetch_hit 0 L1I_prefetch_Hit Ratio: -nan
Core_0_L1I_prefetch_miss 0
Core_0_L1I_writebacks 0
Core_0_L1I_writeback_hit 0 L1I_writeback_Hit Ratio: -nan
Core_0_L1I_writeback_miss 0
Core_0_L1I_prefetch_requested 0
Core_0_L1I_prefetch_issued 0
Core_0_L1I_prefetch_useful 0 L1I_Useful Ratio: -nan
Core_0_L1I_prefetch_useless 0
Core_0_L1I_prefetch_late 0
Core_0_L1I_average_miss_latency 355.65964

Core_0_L2C_total_access 103272261
Core_0_L2C_total_hit 93555787 L2C_total_Hit Ratio: 0.90591
Core_0_L2C_total_miss 9716474
Core_0_L2C_loads 11009093
Core_0_L2C_load_hit 9616377 L2C_load_Hit Ratio: 0.87349
Core_0_L2C_load_miss 1392716
Core_0_L2C_RFOs 790314
Core_0_L2C_RFO_hit 40544 L2C_RFO_Hit Ratio: 0.05130
Core_0_L2C_RFO_miss 749770
Core_0_L2C_prefetches 88559009
Core_0_L2C_prefetch_hit 81000148 L2C_prefetch_Hit Ratio: 0.91465
Core_0_L2C_prefetch_miss 7558861
Core_0_L2C_writebacks 2913845
Core_0_L2C_writeback_hit 2898718 L2C_writeback_Hit Ratio: 0.99481
Core_0_L2C_writeback_miss 15127
Core_0_L2C_prefetch_requested 174544592
Core_0_L2C_prefetch_issued 107499770
Core_0_L2C_prefetch_useful 580035 L2C_Useful Ratio: 0.00540
Core_0_L2C_prefetch_useless 7013141
Core_0_L2C_prefetch_late 17817
Core_0_L2C_average_miss_latency 179.83423

Core_0_LLC_total_access 12686888
Core_0_LLC_total_hit 7546093 LLC_total_Hit Ratio: 0.59479
Core_0_LLC_total_miss 5140795
Core_0_LLC_loads 1374899
Core_0_LLC_load_hit 1027540 LLC_load_Hit Ratio: 0.74736
Core_0_LLC_load_miss 347359
Core_0_LLC_RFOs 749770
Core_0_LLC_RFO_hit 24 LLC_RFO_Hit Ratio: 0.00003
Core_0_LLC_RFO_miss 749746
Core_0_LLC_prefetches 7662495
Core_0_LLC_prefetch_hit 3618990 LLC_prefetch_Hit Ratio: 0.47230
Core_0_LLC_prefetch_miss 4043505
Core_0_LLC_writebacks 2899724
Core_0_LLC_writeback_hit 2899539 LLC_writeback_Hit Ratio: 0.99994
Core_0_LLC_writeback_miss 185
Core_0_LLC_prefetch_requested 0
Core_0_LLC_prefetch_issued 0
Core_0_LLC_prefetch_useful 673109 LLC_Useful Ratio: inf
Core_0_LLC_prefetch_useless 3359746
Core_0_LLC_prefetch_late 7617
Core_0_LLC_average_miss_latency 291.94407

Core_0_major_page_fault 0
Core_0_minor_page_fault 28665

CPU 0 L1D next line prefetcher final stats
CPU 0 L2C PC-based stride prefetcher final stats
Stride Degree: 15
MK1  MARKOV_LRU_SIZE: 128
MK1  MARKOV_PREDICTION_PERCENTTHRESHOLD: 40.00000
MK1  OUTLIERS_THRESHOLD_Max: 64
MK1  OUTLIERS_THRESHOLD_Min: 32
MK2  MARKOV_LRU_SIZE: 256
MK2  MARKOV_PREDICTION_PERCENTTHRESHOLD: 30.00000
MK2  OUTLIERS_THRESHOLD_Max: 32
MK2  OUTLIERS_THRESHOLD_Min: 16
MK3  MARKOV_LRU_SIZE: 384
MK3  MARKOV_PREDICTION_PERCENTTHRESHOLD: 25.00000
MK3  OUTLIERS_THRESHOLD_Max: 16
MK3  OUTLIERS_THRESHOLD_Min: 8
MK4  MARKOV_LRU_SIZE: 512
MK4  MARKOV_PREDICTION_PERCENTTHRESHOLD: 20.00000
MK4  OUTLIERS_THRESHOLD_Max: 8
MK4  OUTLIERS_THRESHOLD_Min: 0
IPStride Degree/Access Ratio: 2.97034
MK1 IPDEltaMarkov  Degree/Access Ratio: 0.70296
MK2 IPDEltaMarkov  Degree/Access Ratio: 0.69674
MK3 IPDEltaMarkov  Degree/Access Ratio: 0.77162
MK4 IPDEltaMarkov  Degree/Access Ratio: 1.48319
Channel_0_RQ_row_buffer_hit 2650079
Channel_0_RQ_row_buffer_miss 2490359
Channel_0_WQ_row_buffer_hit 615266
Channel_0_WQ_row_buffer_miss 1919220
Channel_0_WQ_full 0
Channel_0_dbus_congested 4801627

avg_congested_cycle 10

EzSearch AVG IPC :0.78002: L2-Pf-HR :0.91465 : L2-HR :0.90591 Uful:0.00540
     > Finished combination: TraceType=770-tot Sim:491000000 Prefetcher=L2029-SecTOP-L2-MultiMarkovDelta_ip_stride_v4-MK2-P30 L1=next_line
