TRACE: [331000000][Pythia-70M]_[h8][s1024][d64] Warmup: 2000000 NumTraces: 331000000
L1:no:L2:spp_berti_src
Initialize SIGNATURE TABLE
ST_SET: 1
ST_WAY: 256
ST_TAG_BIT: 16
ST_TAG_MASK: ffff

Initialize PATTERN TABLE
PT_SET: 512
PT_WAY: 4
SIG_DELTA_BIT: 7
C_SIG_BIT: 4
C_DELTA_BIT: 4

Initialize PREFETCH FILTER
FILTER_SET: 1024
*************************************************
   ChampSim Multicore Out-of-Order Simulator
   Last compiled: Oct 26 2024 14:29:56
*************************************************

trace_0 770-tot_memTraces_v3/memTraces[331000000][Pythia-70M]_[h8][s1024][d64].champsim.xz
ST_WAYS: 256
PT_SETS: 512
MAIN.cc ln 751 stats print skipped
CPU  0 inst:    1000000 cyc:     503704 now IPC :1.98529: AVG IPC :1.98529: L2-Pf-HR :0.94624: L2-HR :0.83388: (Sim:0h0m4s) 
CPU  0 inst:    2000001 cyc:     980610 now IPC :2.09685: AVG IPC :2.03955: L2-Pf-HR :0.97604: L2-HR :0.89490: (Sim:0h0m9s) 

Warmup complete CPU  0 instructions:    2000001 cycles:     980610 (Simulation time: 0 hr 0 min 9 sec) 

CPU  0 inst:    3000000 cyc:    1563936 now IPC :1.71431: AVG IPC :1.71431: L2-Pf-HR :0.99507: L2-HR :0.94041: (Sim:0h0m13s) 
CPU  0 inst:    4000000 cyc:    2142068 now IPC :1.72971: AVG IPC :1.72197: L2-Pf-HR :0.99507: L2-HR :0.94024: (Sim:0h0m17s) 
CPU  0 inst:    5000003 cyc:    2708975 now IPC :1.76396: AVG IPC :1.73575: L2-Pf-HR :0.99509: L2-HR :0.94047: (Sim:0h0m21s) 
CPU  0 inst:    6000000 cyc:    3280343 now IPC :1.75018: AVG IPC :1.73933: L2-Pf-HR :0.99494: L2-HR :0.94041: (Sim:0h0m25s) 
CPU  0 inst:    7000000 cyc:    4024655 now IPC :1.34352: AVG IPC :1.64255: L2-Pf-HR :0.99119: L2-HR :0.93217: (Sim:0h0m30s) 
CPU  0 inst:    8000000 cyc:    4583557 now IPC :1.78922: AVG IPC :1.66530: L2-Pf-HR :0.99159: L2-HR :0.93291: (Sim:0h0m34s) 
CPU  0 inst:    9000001 cyc:    5134015 now IPC :1.81667: AVG IPC :1.68536: L2-Pf-HR :0.99176: L2-HR :0.93424: (Sim:0h0m38s) 
CPU  0 inst:   10000003 cyc:    5713535 now IPC :1.72557: AVG IPC :1.69029: L2-Pf-HR :0.99125: L2-HR :0.93343: (Sim:0h0m43s) 
CPU  0 inst:   11000001 cyc:    6264290 now IPC :1.81569: AVG IPC :1.70336: L2-Pf-HR :0.99179: L2-HR :0.93495: (Sim:0h0m47s) 
CPU  0 inst:   12000000 cyc:    6857560 now IPC :1.68557: AVG IPC :1.70156: L2-Pf-HR :0.99107: L2-HR :0.93383: (Sim:0h0m51s) 
CPU  0 inst:   13000001 cyc:    7510284 now IPC :1.53204: AVG IPC :1.68462: L2-Pf-HR :0.99017: L2-HR :0.93162: (Sim:0h0m55s) 
CPU  0 inst:   14000001 cyc:    8061626 now IPC :1.81376: AVG IPC :1.69467: L2-Pf-HR :0.99033: L2-HR :0.93197: (Sim:0h1m0s) 
CPU  0 inst:   15000001 cyc:    8665542 now IPC :1.65586: AVG IPC :1.69162: L2-Pf-HR :0.99057: L2-HR :0.93233: (Sim:0h1m4s) 
CPU  0 inst:   16000000 cyc:    9293733 now IPC :1.59187: AVG IPC :1.68408: L2-Pf-HR :0.99081: L2-HR :0.93268: (Sim:0h1m8s) 
CPU  0 inst:   17000002 cyc:   10086195 now IPC :1.26189: AVG IPC :1.64734: L2-Pf-HR :0.98988: L2-HR :0.92983: (Sim:0h1m13s) 
CPU  0 inst:   18000002 cyc:   10732543 now IPC :1.54715: AVG IPC :1.64070: L2-Pf-HR :0.99000: L2-HR :0.92979: (Sim:0h1m17s) 
CPU  0 inst:   19000001 cyc:   11335818 now IPC :1.65762: AVG IPC :1.64169: L2-Pf-HR :0.99007: L2-HR :0.93022: (Sim:0h1m22s) 
CPU  0 inst:   20000000 cyc:   11912785 now IPC :1.73320: AVG IPC :1.64652: L2-Pf-HR :0.99019: L2-HR :0.93056: (Sim:0h1m26s) 
CPU  0 inst:   21000001 cyc:   12489245 now IPC :1.73473: AVG IPC :1.65093: L2-Pf-HR :0.99044: L2-HR :0.93101: (Sim:0h1m31s) 
CPU  0 inst:   22000001 cyc:   13065959 now IPC :1.73396: AVG IPC :1.65490: L2-Pf-HR :0.99066: L2-HR :0.93145: (Sim:0h1m35s) 
CPU  0 inst:   23000003 cyc:   13815756 now IPC :1.33370: AVG IPC :1.63613: L2-Pf-HR :0.98999: L2-HR :0.92992: (Sim:0h1m39s) 
CPU  0 inst:   24000000 cyc:   14380119 now IPC :1.77190: AVG IPC :1.64185: L2-Pf-HR :0.99012: L2-HR :0.93013: (Sim:0h1m44s) 
CPU  0 inst:   25000003 cyc:   14924473 now IPC :1.83705: AVG IPC :1.64947: L2-Pf-HR :0.99029: L2-HR :0.93092: (Sim:0h1m48s) 
CPU  0 inst:   26000000 cyc:   15476573 now IPC :1.81126: AVG IPC :1.65563: L2-Pf-HR :0.99042: L2-HR :0.93156: (Sim:0h1m52s) 
CPU  0 inst:   27000002 cyc:   16031401 now IPC :1.80236: AVG IPC :1.66104: L2-Pf-HR :0.99055: L2-HR :0.93220: (Sim:0h1m56s) 
CPU  0 inst:   28000000 cyc:   16613064 now IPC :1.71921: AVG IPC :1.66321: L2-Pf-HR :0.99071: L2-HR :0.93282: (Sim:0h2m1s) 
CPU  0 inst:   29000003 cyc:   17273888 now IPC :1.51327: AVG IPC :1.65713: L2-Pf-HR :0.99033: L2-HR :0.93204: (Sim:0h2m5s) 
CPU  0 inst:   30000001 cyc:   17923890 now IPC :1.53845: AVG IPC :1.65257: L2-Pf-HR :0.99043: L2-HR :0.93218: (Sim:0h2m10s) 
CPU  0 inst:   31000001 cyc:   18538214 now IPC :1.62781: AVG IPC :1.65171: L2-Pf-HR :0.99051: L2-HR :0.93239: (Sim:0h2m14s) 
CPU  0 inst:   32000000 cyc:   19232844 now IPC :1.43961: AVG IPC :1.64363: L2-Pf-HR :0.99063: L2-HR :0.93263: (Sim:0h2m18s) 
CPU  0 inst:   33000003 cyc:   20022587 now IPC :1.26624: AVG IPC :1.62798: L2-Pf-HR :0.99011: L2-HR :0.93130: (Sim:0h2m23s) 
CPU  0 inst:   34000003 cyc:   20661754 now IPC :1.56454: AVG IPC :1.62592: L2-Pf-HR :0.99009: L2-HR :0.93115: (Sim:0h2m27s) 
CPU  0 inst:   35000002 cyc:   21266989 now IPC :1.65225: AVG IPC :1.62671: L2-Pf-HR :0.99018: L2-HR :0.93138: (Sim:0h2m32s) 
CPU  0 inst:   36000000 cyc:   21886894 now IPC :1.61315: AVG IPC :1.62631: L2-Pf-HR :0.99024: L2-HR :0.93155: (Sim:0h2m36s) 
CPU  0 inst:   37000001 cyc:   22470462 now IPC :1.71360: AVG IPC :1.62868: L2-Pf-HR :0.99027: L2-HR :0.93167: (Sim:0h2m40s) 
CPU  0 inst:   38000001 cyc:   23040604 now IPC :1.75395: AVG IPC :1.63191: L2-Pf-HR :0.99036: L2-HR :0.93197: (Sim:0h2m45s) 
CPU  0 inst:   39000003 cyc:   23823569 now IPC :1.27720: AVG IPC :1.61976: L2-Pf-HR :0.99002: L2-HR :0.93126: (Sim:0h2m49s) 
CPU  0 inst:   40000000 cyc:   24377845 now IPC :1.80415: AVG IPC :1.62412: L2-Pf-HR :0.99000: L2-HR :0.93127: (Sim:0h2m53s) 
CPU  0 inst:   41000003 cyc:   24921280 now IPC :1.84015: AVG IPC :1.62903: L2-Pf-HR :0.99012: L2-HR :0.93169: (Sim:0h2m58s) 
CPU  0 inst:   42000003 cyc:   25504497 now IPC :1.71463: AVG IPC :1.63106: L2-Pf-HR :0.99022: L2-HR :0.93205: (Sim:0h3m2s) 
CPU  0 inst:   43000000 cyc:   26126283 now IPC :1.60827: AVG IPC :1.63050: L2-Pf-HR :0.99034: L2-HR :0.93246: (Sim:0h3m6s) 
CPU  0 inst:   44000000 cyc:   26710897 now IPC :1.71053: AVG IPC :1.63232: L2-Pf-HR :0.99016: L2-HR :0.93233: (Sim:0h3m11s) 
CPU  0 inst:   45000003 cyc:   27383669 now IPC :1.48639: AVG IPC :1.62860: L2-Pf-HR :0.98996: L2-HR :0.93193: (Sim:0h3m15s) 
CPU  0 inst:   46000002 cyc:   27929391 now IPC :1.83243: AVG IPC :1.63273: L2-Pf-HR :0.99001: L2-HR :0.93200: (Sim:0h3m19s) 
CPU  0 inst:   47000000 cyc:   28518936 now IPC :1.69622: AVG IPC :1.63409: L2-Pf-HR :0.99006: L2-HR :0.93216: (Sim:0h3m23s) 
CPU  0 inst:   48000000 cyc:   29181202 now IPC :1.50997: AVG IPC :1.63117: L2-Pf-HR :0.99014: L2-HR :0.93232: (Sim:0h3m28s) 
CPU  0 inst:   49000000 cyc:   29984365 now IPC :1.24508: AVG IPC :1.62048: L2-Pf-HR :0.98984: L2-HR :0.93156: (Sim:0h3m32s) 
CPU  0 inst:   50000001 cyc:   30607246 now IPC :1.60544: AVG IPC :1.62016: L2-Pf-HR :0.98976: L2-HR :0.93130: (Sim:0h3m37s) 
CPU  0 inst:   51000000 cyc:   31220295 now IPC :1.63119: AVG IPC :1.62039: L2-Pf-HR :0.98983: L2-HR :0.93145: (Sim:0h3m41s) 
CPU  0 inst:   52000000 cyc:   31833528 now IPC :1.63070: AVG IPC :1.62059: L2-Pf-HR :0.98988: L2-HR :0.93157: (Sim:0h3m46s) 
CPU  0 inst:   53000003 cyc:   32406158 now IPC :1.74633: AVG IPC :1.62288: L2-Pf-HR :0.98993: L2-HR :0.93170: (Sim:0h3m50s) 
CPU  0 inst:   54000002 cyc:   32973966 now IPC :1.76116: AVG IPC :1.62534: L2-Pf-HR :0.98996: L2-HR :0.93182: (Sim:0h3m54s) 
CPU  0 inst:   55000003 cyc:   33760460 now IPC :1.27147: AVG IPC :1.61685: L2-Pf-HR :0.98975: L2-HR :0.93136: (Sim:0h3m59s) 
CPU  0 inst:   56000000 cyc:   34323449 now IPC :1.77623: AVG IPC :1.61954: L2-Pf-HR :0.98970: L2-HR :0.93130: (Sim:0h4m3s) 
CPU  0 inst:   57000002 cyc:   34868164 now IPC :1.83583: AVG IPC :1.62301: L2-Pf-HR :0.98979: L2-HR :0.93157: (Sim:0h4m7s) 
CPU  0 inst:   58000003 cyc:   35418693 now IPC :1.81644: AVG IPC :1.62611: L2-Pf-HR :0.98985: L2-HR :0.93184: (Sim:0h4m10s) 
CPU  0 inst:   59000001 cyc:   35971527 now IPC :1.80886: AVG IPC :1.62899: L2-Pf-HR :0.98993: L2-HR :0.93211: (Sim:0h4m13s) 
CPU  0 inst:   60000000 cyc:   36515746 now IPC :1.83749: AVG IPC :1.63219: L2-Pf-HR :0.98989: L2-HR :0.93218: (Sim:0h4m17s) 
CPU  0 inst:   61000001 cyc:   37194826 now IPC :1.47258: AVG IPC :1.62919: L2-Pf-HR :0.98977: L2-HR :0.93199: (Sim:0h4m21s) 
CPU  0 inst:   62000002 cyc:   37740072 now IPC :1.83404: AVG IPC :1.63223: L2-Pf-HR :0.98978: L2-HR :0.93198: (Sim:0h4m24s) 
CPU  0 inst:   63000003 cyc:   38287545 now IPC :1.82658: AVG IPC :1.63508: L2-Pf-HR :0.98981: L2-HR :0.93208: (Sim:0h4m28s) 
CPU  0 inst:   64000000 cyc:   38834377 now IPC :1.82871: AVG IPC :1.63788: L2-Pf-HR :0.98986: L2-HR :0.93221: (Sim:0h4m32s) 
CPU  0 inst:   65000001 cyc:   39586172 now IPC :1.33015: AVG IPC :1.63189: L2-Pf-HR :0.98969: L2-HR :0.93175: (Sim:0h4m37s) 
CPU  0 inst:   66000002 cyc:   40214745 now IPC :1.59091: AVG IPC :1.63123: L2-Pf-HR :0.98961: L2-HR :0.93153: (Sim:0h4m41s) 
CPU  0 inst:   67000001 cyc:   40860998 now IPC :1.54738: AVG IPC :1.62987: L2-Pf-HR :0.98967: L2-HR :0.93161: (Sim:0h4m45s) 
CPU  0 inst:   68000000 cyc:   41445115 now IPC :1.71198: AVG IPC :1.63106: L2-Pf-HR :0.98969: L2-HR :0.93167: (Sim:0h4m50s) 
CPU  0 inst:   69000000 cyc:   42023105 now IPC :1.73013: AVG IPC :1.63245: L2-Pf-HR :0.98972: L2-HR :0.93175: (Sim:0h4m54s) 
CPU  0 inst:   70000001 cyc:   42594763 now IPC :1.74930: AVG IPC :1.63406: L2-Pf-HR :0.98976: L2-HR :0.93186: (Sim:0h4m58s) 
CPU  0 inst:   71000000 cyc:   43348279 now IPC :1.32711: AVG IPC :1.62860: L2-Pf-HR :0.98964: L2-HR :0.93157: (Sim:0h5m3s) 
CPU  0 inst:   72000000 cyc:   43901826 now IPC :1.80653: AVG IPC :1.63090: L2-Pf-HR :0.98957: L2-HR :0.93145: (Sim:0h5m7s) 
CPU  0 inst:   73000003 cyc:   44447789 now IPC :1.83163: AVG IPC :1.63342: L2-Pf-HR :0.98964: L2-HR :0.93164: (Sim:0h5m11s) 
CPU  0 inst:   74000003 cyc:   44997272 now IPC :1.81989: AVG IPC :1.63574: L2-Pf-HR :0.98970: L2-HR :0.93184: (Sim:0h5m16s) 
CPU  0 inst:   75000002 cyc:   45548455 now IPC :1.81428: AVG IPC :1.63795: L2-Pf-HR :0.98976: L2-HR :0.93208: (Sim:0h5m20s) 
CPU  0 inst:   76000000 cyc:   46097854 now IPC :1.82017: AVG IPC :1.64017: L2-Pf-HR :0.98982: L2-HR :0.93229: (Sim:0h5m24s) 
CPU  0 inst:   77000001 cyc:   46750196 now IPC :1.53294: AVG IPC :1.63864: L2-Pf-HR :0.98975: L2-HR :0.93222: (Sim:0h5m29s) 
CPU  0 inst:   78000002 cyc:   47296561 now IPC :1.83028: AVG IPC :1.64090: L2-Pf-HR :0.98972: L2-HR :0.93212: (Sim:0h5m33s) 
CPU  0 inst:   79000001 cyc:   47844654 now IPC :1.82451: AVG IPC :1.64305: L2-Pf-HR :0.98976: L2-HR :0.93222: (Sim:0h5m37s) 
CPU  0 inst:   80000000 cyc:   48390465 now IPC :1.83213: AVG IPC :1.64523: L2-Pf-HR :0.98980: L2-HR :0.93232: (Sim:0h5m41s) 
CPU  0 inst:   81000000 cyc:   49185334 now IPC :1.25807: AVG IPC :1.63884: L2-Pf-HR :0.98969: L2-HR :0.93200: (Sim:0h5m46s) 
CPU  0 inst:   82000002 cyc:   49792612 now IPC :1.64670: AVG IPC :1.63894: L2-Pf-HR :0.98960: L2-HR :0.93179: (Sim:0h5m50s) 
CPU  0 inst:   83000000 cyc:   50424230 now IPC :1.58323: AVG IPC :1.63823: L2-Pf-HR :0.98961: L2-HR :0.93180: (Sim:0h5m55s) 
CPU  0 inst:   84000000 cyc:   51009525 now IPC :1.70854: AVG IPC :1.63905: L2-Pf-HR :0.98966: L2-HR :0.93187: (Sim:0h5m59s) 
CPU  0 inst:   85000001 cyc:   51598459 now IPC :1.69798: AVG IPC :1.63974: L2-Pf-HR :0.98967: L2-HR :0.93191: (Sim:0h6m3s) 
CPU  0 inst:   86000002 cyc:   52168569 now IPC :1.75405: AVG IPC :1.64101: L2-Pf-HR :0.98970: L2-HR :0.93200: (Sim:0h6m8s) 
CPU  0 inst:   87000000 cyc:   52895048 now IPC :1.37650: AVG IPC :1.63731: L2-Pf-HR :0.98965: L2-HR :0.93185: (Sim:0h6m12s) 
CPU  0 inst:   88000000 cyc:   53482950 now IPC :1.70096: AVG IPC :1.63802: L2-Pf-HR :0.98954: L2-HR :0.93166: (Sim:0h6m16s) 
CPU  0 inst:   89000002 cyc:   54029635 now IPC :1.82921: AVG IPC :1.63999: L2-Pf-HR :0.98958: L2-HR :0.93180: (Sim:0h6m21s) 
CPU  0 inst:   90000001 cyc:   54581153 now IPC :1.81318: AVG IPC :1.64177: L2-Pf-HR :0.98964: L2-HR :0.93197: (Sim:0h6m25s) 
CPU  0 inst:   91000000 cyc:   55135066 now IPC :1.80534: AVG IPC :1.64345: L2-Pf-HR :0.98969: L2-HR :0.93215: (Sim:0h6m29s) 
CPU  0 inst:   92000000 cyc:   55685839 now IPC :1.81563: AVG IPC :1.64518: L2-Pf-HR :0.98974: L2-HR :0.93232: (Sim:0h6m33s) 
CPU  0 inst:   93000003 cyc:   56361415 now IPC :1.48022: AVG IPC :1.64317: L2-Pf-HR :0.98973: L2-HR :0.93233: (Sim:0h6m38s) 
CPU  0 inst:   94000003 cyc:   56914187 now IPC :1.80906: AVG IPC :1.64481: L2-Pf-HR :0.98967: L2-HR :0.93221: (Sim:0h6m42s) 
CPU  0 inst:   95000000 cyc:   57463099 now IPC :1.82178: AVG IPC :1.64653: L2-Pf-HR :0.98971: L2-HR :0.93227: (Sim:0h6m46s) 
CPU  0 inst:   96000000 cyc:   58037598 now IPC :1.74065: AVG IPC :1.64748: L2-Pf-HR :0.98972: L2-HR :0.93231: (Sim:0h6m51s) 
CPU  0 inst:   97000000 cyc:   58731674 now IPC :1.44076: AVG IPC :1.64499: L2-Pf-HR :0.98967: L2-HR :0.93212: (Sim:0h6m55s) 
CPU  0 inst:   98000001 cyc:   59376009 now IPC :1.55199: AVG IPC :1.64397: L2-Pf-HR :0.98955: L2-HR :0.93186: (Sim:0h6m59s) 
CPU  0 inst:   99000003 cyc:   60032366 now IPC :1.52356: AVG IPC :1.64263: L2-Pf-HR :0.98957: L2-HR :0.93189: (Sim:0h7m4s) 
CPU  0 inst:  100000000 cyc:   60650755 now IPC :1.61710: AVG IPC :1.64236: L2-Pf-HR :0.98961: L2-HR :0.93195: (Sim:0h7m8s) 
CPU  0 inst:  101000002 cyc:   61223629 now IPC :1.74559: AVG IPC :1.64334: L2-Pf-HR :0.98964: L2-HR :0.93200: (Sim:0h7m13s) 
CPU  0 inst:  102000002 cyc:   61798014 now IPC :1.74099: AVG IPC :1.64427: L2-Pf-HR :0.98967: L2-HR :0.93209: (Sim:0h7m17s) 
CPU  0 inst:  103000003 cyc:   62403798 now IPC :1.65076: AVG IPC :1.64433: L2-Pf-HR :0.98960: L2-HR :0.93200: (Sim:0h7m21s) 
CPU  0 inst:  104000000 cyc:   63103604 now IPC :1.42896: AVG IPC :1.64190: L2-Pf-HR :0.98946: L2-HR :0.93166: (Sim:0h7m26s) 
CPU  0 inst:  105000002 cyc:   63653219 now IPC :1.81946: AVG IPC :1.64346: L2-Pf-HR :0.98949: L2-HR :0.93177: (Sim:0h7m30s) 
CPU  0 inst:  106000001 cyc:   64199867 now IPC :1.82933: AVG IPC :1.64507: L2-Pf-HR :0.98954: L2-HR :0.93192: (Sim:0h7m34s) 
CPU  0 inst:  107000001 cyc:   64840346 now IPC :1.56133: AVG IPC :1.64423: L2-Pf-HR :0.98960: L2-HR :0.93207: (Sim:0h7m37s) 
CPU  0 inst:  108000000 cyc:   65442374 now IPC :1.66105: AVG IPC :1.64439: L2-Pf-HR :0.98967: L2-HR :0.93221: (Sim:0h7m40s) 
CPU  0 inst:  109000003 cyc:   66026933 now IPC :1.71070: AVG IPC :1.64498: L2-Pf-HR :0.98971: L2-HR :0.93234: (Sim:0h7m43s) 
CPU  0 inst:  110000000 cyc:   66705826 now IPC :1.47298: AVG IPC :1.64320: L2-Pf-HR :0.98965: L2-HR :0.93212: (Sim:0h7m46s) 
CPU  0 inst:  111000002 cyc:   67331861 now IPC :1.59736: AVG IPC :1.64277: L2-Pf-HR :0.98968: L2-HR :0.93218: (Sim:0h7m48s) 
CPU  0 inst:  112000000 cyc:   67922731 now IPC :1.69242: AVG IPC :1.64321: L2-Pf-HR :0.98971: L2-HR :0.93225: (Sim:0h7m51s) 
CPU  0 inst:  113000000 cyc:   68536732 now IPC :1.62866: AVG IPC :1.64308: L2-Pf-HR :0.98973: L2-HR :0.93231: (Sim:0h7m54s) 
CPU  0 inst:  114000001 cyc:   69321912 now IPC :1.27359: AVG IPC :1.63883: L2-Pf-HR :0.98958: L2-HR :0.93192: (Sim:0h7m59s) 
CPU  0 inst:  115000000 cyc:   69988892 now IPC :1.49929: AVG IPC :1.63748: L2-Pf-HR :0.98960: L2-HR :0.93191: (Sim:0h8m3s) 
CPU  0 inst:  116000000 cyc:   70602638 now IPC :1.62934: AVG IPC :1.63741: L2-Pf-HR :0.98962: L2-HR :0.93196: (Sim:0h8m7s) 
CPU  0 inst:  117000001 cyc:   71196107 now IPC :1.68501: AVG IPC :1.63782: L2-Pf-HR :0.98964: L2-HR :0.93199: (Sim:0h8m12s) 
CPU  0 inst:  118000000 cyc:   71775213 now IPC :1.72680: AVG IPC :1.63854: L2-Pf-HR :0.98964: L2-HR :0.93202: (Sim:0h8m16s) 
CPU  0 inst:  119000003 cyc:   72348747 now IPC :1.74358: AVG IPC :1.63939: L2-Pf-HR :0.98964: L2-HR :0.93201: (Sim:0h8m20s) 
CPU  0 inst:  120000000 cyc:   73091054 now IPC :1.34715: AVG IPC :1.63638: L2-Pf-HR :0.98950: L2-HR :0.93171: (Sim:0h8m23s) 
CPU  0 inst:  121000002 cyc:   73648617 now IPC :1.79352: AVG IPC :1.63758: L2-Pf-HR :0.98953: L2-HR :0.93177: (Sim:0h8m26s) 
CPU  0 inst:  122000001 cyc:   74201306 now IPC :1.80933: AVG IPC :1.63888: L2-Pf-HR :0.98957: L2-HR :0.93190: (Sim:0h8m29s) 
CPU  0 inst:  123000002 cyc:   74759219 now IPC :1.79240: AVG IPC :1.64004: L2-Pf-HR :0.98960: L2-HR :0.93202: (Sim:0h8m34s) 
CPU  0 inst:  124000000 cyc:   75310018 now IPC :1.81554: AVG IPC :1.64134: L2-Pf-HR :0.98963: L2-HR :0.93213: (Sim:0h8m39s) 
CPU  0 inst:  125000000 cyc:   75860103 now IPC :1.81790: AVG IPC :1.64264: L2-Pf-HR :0.98958: L2-HR :0.93211: (Sim:0h8m43s) 
CPU  0 inst:  126000001 cyc:   76544525 now IPC :1.46109: AVG IPC :1.64099: L2-Pf-HR :0.98951: L2-HR :0.93193: (Sim:0h8m46s) 
CPU  0 inst:  127000002 cyc:   77091327 now IPC :1.82882: AVG IPC :1.64234: L2-Pf-HR :0.98953: L2-HR :0.93198: (Sim:0h8m49s) 
CPU  0 inst:  128000000 cyc:   77652859 now IPC :1.78084: AVG IPC :1.64336: L2-Pf-HR :0.98953: L2-HR :0.93200: (Sim:0h8m52s) 
CPU  0 inst:  129000002 cyc:   78211195 now IPC :1.79104: AVG IPC :1.64443: L2-Pf-HR :0.98954: L2-HR :0.93202: (Sim:0h8m55s) 
CPU  0 inst:  130000003 cyc:   83385652 now IPC :0.19326: AVG IPC :1.55330: L2-Pf-HR :0.98929: L2-HR :0.92688: (Sim:0h9m7s) 
CPU  0 inst:  131000002 cyc:   89903550 now IPC :0.15342: AVG IPC :1.45069: L2-Pf-HR :0.98903: L2-HR :0.92059: (Sim:0h9m22s) 
CPU  0 inst:  132000000 cyc:   96414738 now IPC :0.15358: AVG IPC :1.36220: L2-Pf-HR :0.98877: L2-HR :0.91449: (Sim:0h9m37s) 
CPU  0 inst:  133000003 cyc:  102928760 now IPC :0.15352: AVG IPC :1.28497: L2-Pf-HR :0.98852: L2-HR :0.90857: (Sim:0h9m51s) 
CPU  0 inst:  134000000 cyc:  109309945 now IPC :0.15671: AVG IPC :1.21851: L2-Pf-HR :0.98825: L2-HR :0.90302: (Sim:0h10m6s) 
CPU  0 inst:  135000000 cyc:  113051337 now IPC :0.26728: AVG IPC :1.18675: L2-Pf-HR :0.98772: L2-HR :0.90216: (Sim:0h10m15s) 
CPU  0 inst:  136000000 cyc:  116784214 now IPC :0.26789: AVG IPC :1.15713: L2-Pf-HR :0.98718: L2-HR :0.90130: (Sim:0h10m24s) 
CPU  0 inst:  137000000 cyc:  120511337 now IPC :0.26830: AVG IPC :1.12942: L2-Pf-HR :0.98664: L2-HR :0.90045: (Sim:0h10m33s) 
CPU  0 inst:  138000002 cyc:  124239289 now IPC :0.26824: AVG IPC :1.10337: L2-Pf-HR :0.98611: L2-HR :0.89960: (Sim:0h10m42s) 
CPU  0 inst:  139000000 cyc:  127964889 now IPC :0.26841: AVG IPC :1.07887: L2-Pf-HR :0.98557: L2-HR :0.89876: (Sim:0h10m51s) 
CPU  0 inst:  140000000 cyc:  131695442 now IPC :0.26806: AVG IPC :1.05573: L2-Pf-HR :0.98503: L2-HR :0.89791: (Sim:0h11m0s) 
CPU  0 inst:  141000003 cyc:  135420308 now IPC :0.26847: AVG IPC :1.03392: L2-Pf-HR :0.98449: L2-HR :0.89707: (Sim:0h11m9s) 
CPU  0 inst:  142000003 cyc:  139149323 now IPC :0.26817: AVG IPC :1.01325: L2-Pf-HR :0.98396: L2-HR :0.89624: (Sim:0h11m18s) 
CPU  0 inst:  143000000 cyc:  142875378 now IPC :0.26838: AVG IPC :0.99369: L2-Pf-HR :0.98342: L2-HR :0.89540: (Sim:0h11m27s) 
CPU  0 inst:  144000000 cyc:  146600479 now IPC :0.26845: AVG IPC :0.97514: L2-Pf-HR :0.98288: L2-HR :0.89458: (Sim:0h11m36s) 
CPU  0 inst:  145000002 cyc:  150334708 now IPC :0.26779: AVG IPC :0.95746: L2-Pf-HR :0.98235: L2-HR :0.89375: (Sim:0h11m45s) 
CPU  0 inst:  146000000 cyc:  154066902 now IPC :0.26794: AVG IPC :0.94065: L2-Pf-HR :0.98182: L2-HR :0.89293: (Sim:0h11m54s) 
CPU  0 inst:  147000000 cyc:  157796648 now IPC :0.26811: AVG IPC :0.92465: L2-Pf-HR :0.98128: L2-HR :0.89211: (Sim:0h12m3s) 
CPU  0 inst:  148000000 cyc:  161526163 now IPC :0.26813: AVG IPC :0.90940: L2-Pf-HR :0.98075: L2-HR :0.89129: (Sim:0h12m12s) 
CPU  0 inst:  149000002 cyc:  165254201 now IPC :0.26824: AVG IPC :0.89485: L2-Pf-HR :0.98022: L2-HR :0.89048: (Sim:0h12m21s) 
CPU  0 inst:  150000000 cyc:  168984741 now IPC :0.26806: AVG IPC :0.88093: L2-Pf-HR :0.97968: L2-HR :0.88967: (Sim:0h12m30s) 
CPU  0 inst:  151000000 cyc:  172713842 now IPC :0.26816: AVG IPC :0.86762: L2-Pf-HR :0.97915: L2-HR :0.88886: (Sim:0h12m39s) 
CPU  0 inst:  152000000 cyc:  176441694 now IPC :0.26825: AVG IPC :0.85489: L2-Pf-HR :0.97862: L2-HR :0.88805: (Sim:0h12m49s) 
CPU  0 inst:  153000002 cyc:  180171010 now IPC :0.26815: AVG IPC :0.84268: L2-Pf-HR :0.97809: L2-HR :0.88726: (Sim:0h12m58s) 
CPU  0 inst:  154000000 cyc:  183900516 now IPC :0.26813: AVG IPC :0.83096: L2-Pf-HR :0.97756: L2-HR :0.88646: (Sim:0h13m7s) 
CPU  0 inst:  155000000 cyc:  187624558 now IPC :0.26853: AVG IPC :0.81974: L2-Pf-HR :0.97703: L2-HR :0.88566: (Sim:0h13m16s) 
CPU  0 inst:  156000000 cyc:  191348897 now IPC :0.26850: AVG IPC :0.80896: L2-Pf-HR :0.97650: L2-HR :0.88487: (Sim:0h13m25s) 
CPU  0 inst:  157000002 cyc:  195076419 now IPC :0.26828: AVG IPC :0.79857: L2-Pf-HR :0.97598: L2-HR :0.88408: (Sim:0h13m34s) 
CPU  0 inst:  158000003 cyc:  198804526 now IPC :0.26823: AVG IPC :0.78858: L2-Pf-HR :0.97545: L2-HR :0.88329: (Sim:0h13m43s) 
CPU  0 inst:  159000003 cyc:  202528939 now IPC :0.26850: AVG IPC :0.77897: L2-Pf-HR :0.97492: L2-HR :0.88251: (Sim:0h13m52s) 
CPU  0 inst:  160000000 cyc:  206253679 now IPC :0.26847: AVG IPC :0.76971: L2-Pf-HR :0.97440: L2-HR :0.88173: (Sim:0h14m1s) 
CPU  0 inst:  161000000 cyc:  209981380 now IPC :0.26826: AVG IPC :0.76076: L2-Pf-HR :0.97387: L2-HR :0.88095: (Sim:0h14m10s) 
CPU  0 inst:  162000003 cyc:  213712915 now IPC :0.26799: AVG IPC :0.75212: L2-Pf-HR :0.97335: L2-HR :0.88018: (Sim:0h14m20s) 
CPU  0 inst:  163000003 cyc:  217437352 now IPC :0.26850: AVG IPC :0.74380: L2-Pf-HR :0.97282: L2-HR :0.87941: (Sim:0h14m29s) 
CPU  0 inst:  164000000 cyc:  221163587 now IPC :0.26837: AVG IPC :0.73575: L2-Pf-HR :0.97230: L2-HR :0.87864: (Sim:0h14m38s) 
CPU  0 inst:  165000001 cyc:  224894866 now IPC :0.26800: AVG IPC :0.72796: L2-Pf-HR :0.97177: L2-HR :0.87787: (Sim:0h14m47s) 
CPU  0 inst:  166000002 cyc:  228620436 now IPC :0.26842: AVG IPC :0.72044: L2-Pf-HR :0.97125: L2-HR :0.87711: (Sim:0h14m56s) 
CPU  0 inst:  167000001 cyc:  232351942 now IPC :0.26799: AVG IPC :0.71314: L2-Pf-HR :0.97073: L2-HR :0.87635: (Sim:0h15m5s) 
CPU  0 inst:  168000000 cyc:  236079791 now IPC :0.26825: AVG IPC :0.70608: L2-Pf-HR :0.97021: L2-HR :0.87559: (Sim:0h15m14s) 
CPU  0 inst:  169000001 cyc:  239810168 now IPC :0.26807: AVG IPC :0.69924: L2-Pf-HR :0.96969: L2-HR :0.87484: (Sim:0h15m23s) 
CPU  0 inst:  170000002 cyc:  243539391 now IPC :0.26815: AVG IPC :0.69262: L2-Pf-HR :0.96917: L2-HR :0.87408: (Sim:0h15m33s) 
CPU  0 inst:  171000000 cyc:  247266045 now IPC :0.26834: AVG IPC :0.68620: L2-Pf-HR :0.96865: L2-HR :0.87333: (Sim:0h15m41s) 
CPU  0 inst:  172000000 cyc:  250995066 now IPC :0.26817: AVG IPC :0.67996: L2-Pf-HR :0.96813: L2-HR :0.87259: (Sim:0h15m46s) 
CPU  0 inst:  173000000 cyc:  254725949 now IPC :0.26803: AVG IPC :0.67390: L2-Pf-HR :0.96761: L2-HR :0.87184: (Sim:0h15m53s) 
CPU  0 inst:  174000002 cyc:  258456651 now IPC :0.26805: AVG IPC :0.66802: L2-Pf-HR :0.96709: L2-HR :0.87110: (Sim:0h15m59s) 
CPU  0 inst:  175000000 cyc:  262187738 now IPC :0.26802: AVG IPC :0.66231: L2-Pf-HR :0.96658: L2-HR :0.87037: (Sim:0h16m4s) 
CPU  0 inst:  176000000 cyc:  265920317 now IPC :0.26791: AVG IPC :0.65675: L2-Pf-HR :0.96606: L2-HR :0.86963: (Sim:0h16m10s) 
CPU  0 inst:  177000000 cyc:  269645992 now IPC :0.26841: AVG IPC :0.65137: L2-Pf-HR :0.96554: L2-HR :0.86890: (Sim:0h16m16s) 
CPU  0 inst:  178000002 cyc:  273371545 now IPC :0.26842: AVG IPC :0.64613: L2-Pf-HR :0.96502: L2-HR :0.86816: (Sim:0h16m22s) 
CPU  0 inst:  179000003 cyc:  277094030 now IPC :0.26864: AVG IPC :0.64104: L2-Pf-HR :0.96451: L2-HR :0.86744: (Sim:0h16m31s) 
CPU  0 inst:  180000000 cyc:  280815407 now IPC :0.26872: AVG IPC :0.63609: L2-Pf-HR :0.96399: L2-HR :0.86671: (Sim:0h16m41s) 
CPU  0 inst:  181000000 cyc:  284539717 now IPC :0.26851: AVG IPC :0.63126: L2-Pf-HR :0.96348: L2-HR :0.86599: (Sim:0h16m50s) 
CPU  0 inst:  182000000 cyc:  288265261 now IPC :0.26842: AVG IPC :0.62656: L2-Pf-HR :0.96296: L2-HR :0.86527: (Sim:0h16m59s) 
CPU  0 inst:  183000000 cyc:  291997363 now IPC :0.26795: AVG IPC :0.62196: L2-Pf-HR :0.96245: L2-HR :0.86455: (Sim:0h17m8s) 
CPU  0 inst:  184000000 cyc:  295730095 now IPC :0.26790: AVG IPC :0.61747: L2-Pf-HR :0.96194: L2-HR :0.86384: (Sim:0h17m17s) 
CPU  0 inst:  185000000 cyc:  299459277 now IPC :0.26816: AVG IPC :0.61311: L2-Pf-HR :0.96143: L2-HR :0.86312: (Sim:0h17m26s) 
CPU  0 inst:  186000001 cyc:  303186029 now IPC :0.26833: AVG IPC :0.60886: L2-Pf-HR :0.96092: L2-HR :0.86241: (Sim:0h17m35s) 
CPU  0 inst:  187000002 cyc:  306911332 now IPC :0.26843: AVG IPC :0.60471: L2-Pf-HR :0.96040: L2-HR :0.86171: (Sim:0h17m45s) 
CPU  0 inst:  188000000 cyc:  310635308 now IPC :0.26853: AVG IPC :0.60067: L2-Pf-HR :0.95989: L2-HR :0.86100: (Sim:0h17m54s) 
CPU  0 inst:  189000000 cyc:  314363137 now IPC :0.26825: AVG IPC :0.59671: L2-Pf-HR :0.95938: L2-HR :0.86030: (Sim:0h18m3s) 
CPU  0 inst:  190000002 cyc:  318091931 now IPC :0.26818: AVG IPC :0.59285: L2-Pf-HR :0.95888: L2-HR :0.85960: (Sim:0h18m12s) 
CPU  0 inst:  191000000 cyc:  321823175 now IPC :0.26801: AVG IPC :0.58907: L2-Pf-HR :0.95837: L2-HR :0.85890: (Sim:0h18m21s) 
CPU  0 inst:  192000000 cyc:  325550795 now IPC :0.26827: AVG IPC :0.58539: L2-Pf-HR :0.95786: L2-HR :0.85821: (Sim:0h18m27s) 
CPU  0 inst:  193000000 cyc:  329277270 now IPC :0.26835: AVG IPC :0.58179: L2-Pf-HR :0.95735: L2-HR :0.85752: (Sim:0h18m33s) 
CPU  0 inst:  194000000 cyc:  333004893 now IPC :0.26827: AVG IPC :0.57827: L2-Pf-HR :0.95684: L2-HR :0.85683: (Sim:0h18m41s) 
CPU  0 inst:  195000002 cyc:  336733287 now IPC :0.26821: AVG IPC :0.57483: L2-Pf-HR :0.95634: L2-HR :0.85614: (Sim:0h18m50s) 
CPU  0 inst:  196000000 cyc:  340460669 now IPC :0.26828: AVG IPC :0.57146: L2-Pf-HR :0.95583: L2-HR :0.85545: (Sim:0h18m59s) 
CPU  0 inst:  197000002 cyc:  344189269 now IPC :0.26820: AVG IPC :0.56817: L2-Pf-HR :0.95533: L2-HR :0.85477: (Sim:0h19m8s) 
CPU  0 inst:  198000003 cyc:  346822844 now IPC :0.37971: AVG IPC :0.56673: L2-Pf-HR :0.95498: L2-HR :0.85458: (Sim:0h19m15s) 
CPU  0 inst:  199000000 cyc:  347556093 now IPC :1.36379: AVG IPC :0.56842: L2-Pf-HR :0.95499: L2-HR :0.85544: (Sim:0h19m21s) 
CPU  0 inst:  200000000 cyc:  348252568 now IPC :1.43580: AVG IPC :0.57016: L2-Pf-HR :0.95501: L2-HR :0.85630: (Sim:0h19m26s) 
CPU  0 inst:  201000000 cyc:  348951203 now IPC :1.43136: AVG IPC :0.57189: L2-Pf-HR :0.95502: L2-HR :0.85711: (Sim:0h19m31s) 
CPU  0 inst:  202000003 cyc:  349689456 now IPC :1.35455: AVG IPC :0.57354: L2-Pf-HR :0.95487: L2-HR :0.85772: (Sim:0h19m36s) 
CPU  0 inst:  203000003 cyc:  350358974 now IPC :1.49361: AVG IPC :0.57531: L2-Pf-HR :0.95486: L2-HR :0.85850: (Sim:0h19m41s) 
CPU  0 inst:  204000000 cyc:  351021446 now IPC :1.50949: AVG IPC :0.57708: L2-Pf-HR :0.95484: L2-HR :0.85926: (Sim:0h19m46s) 
CPU  0 inst:  205000003 cyc:  351680175 now IPC :1.51808: AVG IPC :0.57884: L2-Pf-HR :0.95481: L2-HR :0.86001: (Sim:0h19m51s) 
CPU  0 inst:  206000000 cyc:  352372450 now IPC :1.44451: AVG IPC :0.58055: L2-Pf-HR :0.95465: L2-HR :0.86054: (Sim:0h19m56s) 
CPU  0 inst:  207000002 cyc:  353039996 now IPC :1.49803: AVG IPC :0.58229: L2-Pf-HR :0.95464: L2-HR :0.86128: (Sim:0h20m1s) 
CPU  0 inst:  208000000 cyc:  353697311 now IPC :1.52134: AVG IPC :0.58404: L2-Pf-HR :0.95465: L2-HR :0.86202: (Sim:0h20m6s) 
CPU  0 inst:  209000002 cyc:  354350611 now IPC :1.53069: AVG IPC :0.58579: L2-Pf-HR :0.95463: L2-HR :0.86274: (Sim:0h20m11s) 
CPU  0 inst:  210000000 cyc:  355008713 now IPC :1.51952: AVG IPC :0.58752: L2-Pf-HR :0.95455: L2-HR :0.86335: (Sim:0h20m14s) 
CPU  0 inst:  211000003 cyc:  355680493 now IPC :1.48859: AVG IPC :0.58923: L2-Pf-HR :0.95459: L2-HR :0.86398: (Sim:0h20m17s) 
CPU  0 inst:  212000000 cyc:  356329943 now IPC :1.53976: AVG IPC :0.59097: L2-Pf-HR :0.95472: L2-HR :0.86474: (Sim:0h20m21s) 
CPU  0 inst:  213000001 cyc:  356985182 now IPC :1.52616: AVG IPC :0.59269: L2-Pf-HR :0.95482: L2-HR :0.86544: (Sim:0h20m25s) 
CPU  0 inst:  214000002 cyc:  357634618 now IPC :1.53980: AVG IPC :0.59441: L2-Pf-HR :0.95493: L2-HR :0.86616: (Sim:0h20m30s) 
CPU  0 inst:  215000002 cyc:  358346890 now IPC :1.40396: AVG IPC :0.59603: L2-Pf-HR :0.95486: L2-HR :0.86666: (Sim:0h20m35s) 
CPU  0 inst:  216000000 cyc:  359040930 now IPC :1.44084: AVG IPC :0.59766: L2-Pf-HR :0.95488: L2-HR :0.86734: (Sim:0h20m40s) 
CPU  0 inst:  217000001 cyc:  359738793 now IPC :1.43295: AVG IPC :0.59929: L2-Pf-HR :0.95490: L2-HR :0.86800: (Sim:0h20m43s) 
CPU  0 inst:  218000001 cyc:  360428517 now IPC :1.44986: AVG IPC :0.60092: L2-Pf-HR :0.95490: L2-HR :0.86863: (Sim:0h20m47s) 
CPU  0 inst:  219000000 cyc:  361126289 now IPC :1.43313: AVG IPC :0.60253: L2-Pf-HR :0.95477: L2-HR :0.86908: (Sim:0h20m51s) 
CPU  0 inst:  220000000 cyc:  361783893 now IPC :1.52067: AVG IPC :0.60421: L2-Pf-HR :0.95476: L2-HR :0.86968: (Sim:0h20m56s) 
CPU  0 inst:  221000002 cyc:  362460519 now IPC :1.47792: AVG IPC :0.60584: L2-Pf-HR :0.95474: L2-HR :0.87026: (Sim:0h21m1s) 
CPU  0 inst:  222000001 cyc:  363120732 now IPC :1.51466: AVG IPC :0.60750: L2-Pf-HR :0.95470: L2-HR :0.87080: (Sim:0h21m5s) 
CPU  0 inst:  223000002 cyc:  363796412 now IPC :1.47999: AVG IPC :0.60912: L2-Pf-HR :0.95460: L2-HR :0.87125: (Sim:0h21m9s) 
CPU  0 inst:  224000000 cyc:  364440617 now IPC :1.55230: AVG IPC :0.61080: L2-Pf-HR :0.95463: L2-HR :0.87188: (Sim:0h21m14s) 
CPU  0 inst:  225000002 cyc:  365104346 now IPC :1.50664: AVG IPC :0.61243: L2-Pf-HR :0.95463: L2-HR :0.87246: (Sim:0h21m19s) 
CPU  0 inst:  226000003 cyc:  365757837 now IPC :1.53024: AVG IPC :0.61407: L2-Pf-HR :0.95462: L2-HR :0.87302: (Sim:0h21m24s) 
CPU  0 inst:  227000003 cyc:  366427288 now IPC :1.49376: AVG IPC :0.61568: L2-Pf-HR :0.95457: L2-HR :0.87348: (Sim:0h21m28s) 
CPU  0 inst:  228000000 cyc:  367076569 now IPC :1.54016: AVG IPC :0.61732: L2-Pf-HR :0.95467: L2-HR :0.87405: (Sim:0h21m33s) 
CPU  0 inst:  229000001 cyc:  367734927 now IPC :1.51893: AVG IPC :0.61894: L2-Pf-HR :0.95476: L2-HR :0.87460: (Sim:0h21m37s) 
CPU  0 inst:  230000001 cyc:  368391666 now IPC :1.52267: AVG IPC :0.62056: L2-Pf-HR :0.95485: L2-HR :0.87515: (Sim:0h21m41s) 
CPU  0 inst:  231000001 cyc:  369057967 now IPC :1.50082: AVG IPC :0.62215: L2-Pf-HR :0.95488: L2-HR :0.87559: (Sim:0h21m46s) 
CPU  0 inst:  232000000 cyc:  369761181 now IPC :1.42204: AVG IPC :0.62368: L2-Pf-HR :0.95487: L2-HR :0.87607: (Sim:0h21m50s) 
CPU  0 inst:  233000002 cyc:  370465139 now IPC :1.42054: AVG IPC :0.62520: L2-Pf-HR :0.95489: L2-HR :0.87659: (Sim:0h21m54s) 
CPU  0 inst:  234000001 cyc:  371151672 now IPC :1.45659: AVG IPC :0.62674: L2-Pf-HR :0.95492: L2-HR :0.87711: (Sim:0h21m59s) 
CPU  0 inst:  235000001 cyc:  371841439 now IPC :1.44976: AVG IPC :0.62827: L2-Pf-HR :0.95493: L2-HR :0.87760: (Sim:0h22m4s) 
CPU  0 inst:  236000000 cyc:  372518131 now IPC :1.47778: AVG IPC :0.62982: L2-Pf-HR :0.95481: L2-HR :0.87794: (Sim:0h22m9s) 
CPU  0 inst:  237000002 cyc:  373190854 now IPC :1.48650: AVG IPC :0.63136: L2-Pf-HR :0.95479: L2-HR :0.87839: (Sim:0h22m14s) 
CPU  0 inst:  238000002 cyc:  373853392 now IPC :1.50935: AVG IPC :0.63292: L2-Pf-HR :0.95477: L2-HR :0.87885: (Sim:0h22m18s) 
CPU  0 inst:  239000003 cyc:  374510102 now IPC :1.52274: AVG IPC :0.63449: L2-Pf-HR :0.95474: L2-HR :0.87929: (Sim:0h22m22s) 
CPU  0 inst:  240000000 cyc:  375189024 now IPC :1.47292: AVG IPC :0.63601: L2-Pf-HR :0.95462: L2-HR :0.87960: (Sim:0h22m27s) 
CPU  0 inst:  241000003 cyc:  375840896 now IPC :1.53405: AVG IPC :0.63757: L2-Pf-HR :0.95462: L2-HR :0.88006: (Sim:0h22m32s) 
CPU  0 inst:  242000001 cyc:  376494170 now IPC :1.53075: AVG IPC :0.63912: L2-Pf-HR :0.95463: L2-HR :0.88053: (Sim:0h22m37s) 
CPU  0 inst:  243000001 cyc:  377145297 now IPC :1.53580: AVG IPC :0.64068: L2-Pf-HR :0.95463: L2-HR :0.88096: (Sim:0h22m42s) 
CPU  0 inst:  244000000 cyc:  377821375 now IPC :1.47912: AVG IPC :0.64218: L2-Pf-HR :0.95457: L2-HR :0.88127: (Sim:0h22m47s) 
CPU  0 inst:  245000000 cyc:  378469070 now IPC :1.54394: AVG IPC :0.64373: L2-Pf-HR :0.95466: L2-HR :0.88173: (Sim:0h22m52s) 
CPU  0 inst:  246000003 cyc:  379118361 now IPC :1.54015: AVG IPC :0.64527: L2-Pf-HR :0.95476: L2-HR :0.88220: (Sim:0h22m57s) 
CPU  0 inst:  247000000 cyc:  379768446 now IPC :1.53826: AVG IPC :0.64680: L2-Pf-HR :0.95484: L2-HR :0.88265: (Sim:0h23m2s) 
CPU  0 inst:  248000000 cyc:  380463519 now IPC :1.43870: AVG IPC :0.64825: L2-Pf-HR :0.95481: L2-HR :0.88296: (Sim:0h23m6s) 
CPU  0 inst:  249000000 cyc:  381148056 now IPC :1.46084: AVG IPC :0.64971: L2-Pf-HR :0.95484: L2-HR :0.88338: (Sim:0h23m11s) 
CPU  0 inst:  250000000 cyc:  381845418 now IPC :1.43398: AVG IPC :0.65115: L2-Pf-HR :0.95487: L2-HR :0.88382: (Sim:0h23m16s) 
CPU  0 inst:  251000003 cyc:  382531348 now IPC :1.45788: AVG IPC :0.65260: L2-Pf-HR :0.95490: L2-HR :0.88424: (Sim:0h23m21s) 
CPU  0 inst:  252000000 cyc:  383239708 now IPC :1.41171: AVG IPC :0.65401: L2-Pf-HR :0.95482: L2-HR :0.88451: (Sim:0h23m26s) 
CPU  0 inst:  253000002 cyc:  383893587 now IPC :1.52934: AVG IPC :0.65550: L2-Pf-HR :0.95480: L2-HR :0.88489: (Sim:0h23m31s) 
CPU  0 inst:  254000001 cyc:  384572558 now IPC :1.47282: AVG IPC :0.65695: L2-Pf-HR :0.95479: L2-HR :0.88527: (Sim:0h23m37s) 
CPU  0 inst:  255000001 cyc:  385227321 now IPC :1.52727: AVG IPC :0.65843: L2-Pf-HR :0.95477: L2-HR :0.88563: (Sim:0h23m42s) 
CPU  0 inst:  256000000 cyc:  385894155 now IPC :1.49962: AVG IPC :0.65989: L2-Pf-HR :0.95470: L2-HR :0.88592: (Sim:0h23m47s) 
CPU  0 inst:  257000003 cyc:  386556839 now IPC :1.50902: AVG IPC :0.66135: L2-Pf-HR :0.95465: L2-HR :0.88623: (Sim:0h23m52s) 
CPU  0 inst:  258000001 cyc:  387212274 now IPC :1.52570: AVG IPC :0.66281: L2-Pf-HR :0.95464: L2-HR :0.88659: (Sim:0h23m57s) 
CPU  0 inst:  259000001 cyc:  387869627 now IPC :1.52125: AVG IPC :0.66427: L2-Pf-HR :0.95462: L2-HR :0.88694: (Sim:0h24m2s) 
CPU  0 inst:  260000000 cyc:  388522476 now IPC :1.53175: AVG IPC :0.66573: L2-Pf-HR :0.95458: L2-HR :0.88728: (Sim:0h24m8s) 
CPU  0 inst:  261000001 cyc:  389189425 now IPC :1.49937: AVG IPC :0.66717: L2-Pf-HR :0.95458: L2-HR :0.88756: (Sim:0h24m13s) 
CPU  0 inst:  262000002 cyc:  389845099 now IPC :1.52515: AVG IPC :0.66861: L2-Pf-HR :0.95466: L2-HR :0.88794: (Sim:0h24m18s) 
CPU  0 inst:  263000001 cyc:  390501239 now IPC :1.52406: AVG IPC :0.67005: L2-Pf-HR :0.95474: L2-HR :0.88832: (Sim:0h24m23s) 
CPU  0 inst:  264000000 cyc:  391153169 now IPC :1.53391: AVG IPC :0.67150: L2-Pf-HR :0.95483: L2-HR :0.88870: (Sim:0h24m28s) 
CPU  0 inst:  265000000 cyc:  391847682 now IPC :1.43986: AVG IPC :0.67286: L2-Pf-HR :0.95480: L2-HR :0.88897: (Sim:0h24m34s) 
CPU  0 inst:  266000000 cyc:  392546803 now IPC :1.43037: AVG IPC :0.67422: L2-Pf-HR :0.95480: L2-HR :0.88930: (Sim:0h24m37s) 
CPU  0 inst:  267000003 cyc:  393247772 now IPC :1.42660: AVG IPC :0.67556: L2-Pf-HR :0.95480: L2-HR :0.88964: (Sim:0h24m42s) 
CPU  0 inst:  268000000 cyc:  393932542 now IPC :1.46034: AVG IPC :0.67693: L2-Pf-HR :0.95481: L2-HR :0.88999: (Sim:0h24m47s) 
CPU  0 inst:  269000002 cyc:  394629478 now IPC :1.43485: AVG IPC :0.67827: L2-Pf-HR :0.95473: L2-HR :0.89020: (Sim:0h24m52s) 
CPU  0 inst:  270000003 cyc:  395292143 now IPC :1.50906: AVG IPC :0.67967: L2-Pf-HR :0.95472: L2-HR :0.89051: (Sim:0h24m57s) 
CPU  0 inst:  271000000 cyc:  395960397 now IPC :1.49643: AVG IPC :0.68105: L2-Pf-HR :0.95470: L2-HR :0.89082: (Sim:0h25m2s) 
CPU  0 inst:  272000000 cyc:  396614521 now IPC :1.52876: AVG IPC :0.68245: L2-Pf-HR :0.95468: L2-HR :0.89112: (Sim:0h25m8s) 
CPU  0 inst:  273000003 cyc:  397296988 now IPC :1.46528: AVG IPC :0.68380: L2-Pf-HR :0.95459: L2-HR :0.89131: (Sim:0h25m13s) 
CPU  0 inst:  274000002 cyc:  397941083 now IPC :1.55256: AVG IPC :0.68521: L2-Pf-HR :0.95459: L2-HR :0.89164: (Sim:0h25m18s) 
CPU  0 inst:  275000002 cyc:  398598702 now IPC :1.52064: AVG IPC :0.68659: L2-Pf-HR :0.95458: L2-HR :0.89194: (Sim:0h25m23s) 
CPU  0 inst:  276000000 cyc:  399250730 now IPC :1.53367: AVG IPC :0.68798: L2-Pf-HR :0.95458: L2-HR :0.89225: (Sim:0h25m28s) 
CPU  0 inst:  277000001 cyc:  399924569 now IPC :1.48404: AVG IPC :0.68932: L2-Pf-HR :0.95451: L2-HR :0.89245: (Sim:0h25m33s) 
CPU  0 inst:  278000000 cyc:  400576422 now IPC :1.53409: AVG IPC :0.69070: L2-Pf-HR :0.95459: L2-HR :0.89278: (Sim:0h25m38s) 
CPU  0 inst:  279000002 cyc:  401230765 now IPC :1.52825: AVG IPC :0.69207: L2-Pf-HR :0.95465: L2-HR :0.89309: (Sim:0h25m42s) 
CPU  0 inst:  280000000 cyc:  401881448 now IPC :1.53684: AVG IPC :0.69344: L2-Pf-HR :0.95473: L2-HR :0.89341: (Sim:0h25m47s) 
CPU  0 inst:  281000002 cyc:  402538392 now IPC :1.52220: AVG IPC :0.69479: L2-Pf-HR :0.95478: L2-HR :0.89369: (Sim:0h25m51s) 
CPU  0 inst:  282000000 cyc:  403245578 now IPC :1.41405: AVG IPC :0.69606: L2-Pf-HR :0.95476: L2-HR :0.89392: (Sim:0h25m57s) 
CPU  0 inst:  283000001 cyc:  403944672 now IPC :1.43042: AVG IPC :0.69733: L2-Pf-HR :0.95478: L2-HR :0.89421: (Sim:0h26m2s) 
CPU  0 inst:  284000000 cyc:  404627774 now IPC :1.46391: AVG IPC :0.69863: L2-Pf-HR :0.95482: L2-HR :0.89452: (Sim:0h26m7s) 
CPU  0 inst:  285000000 cyc:  405312044 now IPC :1.46141: AVG IPC :0.69992: L2-Pf-HR :0.95485: L2-HR :0.89481: (Sim:0h26m12s) 
CPU  0 inst:  286000002 cyc:  406000890 now IPC :1.45171: AVG IPC :0.70120: L2-Pf-HR :0.95476: L2-HR :0.89497: (Sim:0h26m18s) 
CPU  0 inst:  287000002 cyc:  406669712 now IPC :1.49517: AVG IPC :0.70251: L2-Pf-HR :0.95475: L2-HR :0.89524: (Sim:0h26m23s) 
CPU  0 inst:  288000000 cyc:  407331945 now IPC :1.51004: AVG IPC :0.70382: L2-Pf-HR :0.95475: L2-HR :0.89551: (Sim:0h26m28s) 
CPU  0 inst:  289000003 cyc:  407983314 now IPC :1.53523: AVG IPC :0.70516: L2-Pf-HR :0.95475: L2-HR :0.89577: (Sim:0h26m33s) 
CPU  0 inst:  290000000 cyc:  408663408 now IPC :1.47038: AVG IPC :0.70643: L2-Pf-HR :0.95467: L2-HR :0.89594: (Sim:0h26m38s) 
CPU  0 inst:  291000003 cyc:  409309797 now IPC :1.54706: AVG IPC :0.70776: L2-Pf-HR :0.95468: L2-HR :0.89622: (Sim:0h26m43s) 
CPU  0 inst:  292000000 cyc:  409964914 now IPC :1.52644: AVG IPC :0.70907: L2-Pf-HR :0.95470: L2-HR :0.89652: (Sim:0h26m48s) 
CPU  0 inst:  293000002 cyc:  410613504 now IPC :1.54181: AVG IPC :0.71039: L2-Pf-HR :0.95471: L2-HR :0.89680: (Sim:0h26m53s) 
CPU  0 inst:  294000001 cyc:  411285470 now IPC :1.48817: AVG IPC :0.71167: L2-Pf-HR :0.95468: L2-HR :0.89698: (Sim:0h26m58s) 
CPU  0 inst:  295000001 cyc:  411935038 now IPC :1.53948: AVG IPC :0.71297: L2-Pf-HR :0.95475: L2-HR :0.89725: (Sim:0h27m3s) 
CPU  0 inst:  296000000 cyc:  412588840 now IPC :1.52951: AVG IPC :0.71427: L2-Pf-HR :0.95482: L2-HR :0.89754: (Sim:0h27m6s) 
CPU  0 inst:  297000002 cyc:  413242161 now IPC :1.53064: AVG IPC :0.71557: L2-Pf-HR :0.95490: L2-HR :0.89781: (Sim:0h27m10s) 
CPU  0 inst:  298000002 cyc:  413923829 now IPC :1.46699: AVG IPC :0.71681: L2-Pf-HR :0.95490: L2-HR :0.89800: (Sim:0h27m15s) 
CPU  0 inst:  299000000 cyc:  414611380 now IPC :1.45443: AVG IPC :0.71803: L2-Pf-HR :0.95491: L2-HR :0.89825: (Sim:0h27m20s) 
CPU  0 inst:  300000000 cyc:  415323731 now IPC :1.40380: AVG IPC :0.71921: L2-Pf-HR :0.95491: L2-HR :0.89848: (Sim:0h27m24s) 
CPU  0 inst:  301000003 cyc:  416017662 now IPC :1.44107: AVG IPC :0.72042: L2-Pf-HR :0.95490: L2-HR :0.89871: (Sim:0h27m27s) 
CPU  0 inst:  302000001 cyc:  416714171 now IPC :1.43573: AVG IPC :0.72162: L2-Pf-HR :0.95487: L2-HR :0.89889: (Sim:0h27m31s) 
CPU  0 inst:  303000003 cyc:  417379095 now IPC :1.50393: AVG IPC :0.72287: L2-Pf-HR :0.95483: L2-HR :0.89909: (Sim:0h27m34s) 
CPU  0 inst:  304000000 cyc:  418058594 now IPC :1.47167: AVG IPC :0.72409: L2-Pf-HR :0.95481: L2-HR :0.89930: (Sim:0h27m39s) 
CPU  0 inst:  305000003 cyc:  418718731 now IPC :1.51484: AVG IPC :0.72533: L2-Pf-HR :0.95479: L2-HR :0.89951: (Sim:0h27m44s) 
CPU  0 inst:  306000001 cyc:  419380017 now IPC :1.51220: AVG IPC :0.72658: L2-Pf-HR :0.95477: L2-HR :0.89970: (Sim:0h27m49s) 
CPU  0 inst:  307000000 cyc:  420044375 now IPC :1.50521: AVG IPC :0.72781: L2-Pf-HR :0.95473: L2-HR :0.89987: (Sim:0h27m54s) 
CPU  0 inst:  308000000 cyc:  420701637 now IPC :1.52146: AVG IPC :0.72906: L2-Pf-HR :0.95473: L2-HR :0.90010: (Sim:0h27m59s) 
CPU  0 inst:  309000002 cyc:  421352966 now IPC :1.53533: AVG IPC :0.73030: L2-Pf-HR :0.95473: L2-HR :0.90034: (Sim:0h28m4s) 
CPU  0 inst:  310000001 cyc:  421996263 now IPC :1.55449: AVG IPC :0.73156: L2-Pf-HR :0.95476: L2-HR :0.90058: (Sim:0h28m9s) 
CPU  0 inst:  311000001 cyc:  422671592 now IPC :1.48076: AVG IPC :0.73276: L2-Pf-HR :0.95473: L2-HR :0.90072: (Sim:0h28m14s) 
CPU  0 inst:  312000000 cyc:  423322867 now IPC :1.53545: AVG IPC :0.73400: L2-Pf-HR :0.95480: L2-HR :0.90096: (Sim:0h28m19s) 
CPU  0 inst:  313000000 cyc:  423978920 now IPC :1.52427: AVG IPC :0.73523: L2-Pf-HR :0.95486: L2-HR :0.90119: (Sim:0h28m24s) 
CPU  0 inst:  314000001 cyc:  424631117 now IPC :1.53328: AVG IPC :0.73646: L2-Pf-HR :0.95493: L2-HR :0.90143: (Sim:0h28m29s) 
CPU  0 inst:  315000002 cyc:  425337331 now IPC :1.41600: AVG IPC :0.73759: L2-Pf-HR :0.95489: L2-HR :0.90155: (Sim:0h28m34s) 
CPU  0 inst:  316000000 cyc:  426022446 now IPC :1.45961: AVG IPC :0.73875: L2-Pf-HR :0.95488: L2-HR :0.90173: (Sim:0h28m39s) 
CPU  0 inst:  317000000 cyc:  426727091 now IPC :1.41915: AVG IPC :0.73988: L2-Pf-HR :0.95487: L2-HR :0.90192: (Sim:0h28m44s) 
CPU  0 inst:  318000000 cyc:  427416529 now IPC :1.45046: AVG IPC :0.74103: L2-Pf-HR :0.95486: L2-HR :0.90211: (Sim:0h28m49s) 
CPU  0 inst:  319000002 cyc:  428125116 now IPC :1.41126: AVG IPC :0.74214: L2-Pf-HR :0.95477: L2-HR :0.90220: (Sim:0h28m54s) 
CPU  0 inst:  320000000 cyc:  428775113 now IPC :1.53847: AVG IPC :0.74335: L2-Pf-HR :0.95478: L2-HR :0.90239: (Sim:0h28m58s) 
CPU  0 inst:  321000000 cyc:  429450065 now IPC :1.48159: AVG IPC :0.74451: L2-Pf-HR :0.95477: L2-HR :0.90258: (Sim:0h29m3s) 
CPU  0 inst:  322000001 cyc:  430103958 now IPC :1.52930: AVG IPC :0.74571: L2-Pf-HR :0.95476: L2-HR :0.90277: (Sim:0h29m9s) 
CPU  0 inst:  323000000 cyc:  430787023 now IPC :1.46399: AVG IPC :0.74685: L2-Pf-HR :0.95468: L2-HR :0.90287: (Sim:0h29m14s) 
CPU  0 inst:  324000000 cyc:  431431417 now IPC :1.55185: AVG IPC :0.74805: L2-Pf-HR :0.95470: L2-HR :0.90308: (Sim:0h29m19s) 
CPU  0 inst:  325000003 cyc:  432088210 now IPC :1.52255: AVG IPC :0.74923: L2-Pf-HR :0.95472: L2-HR :0.90330: (Sim:0h29m24s) 
CPU  0 inst:  326000000 cyc:  432736205 now IPC :1.54322: AVG IPC :0.75042: L2-Pf-HR :0.95474: L2-HR :0.90352: (Sim:0h29m29s) 
CPU  0 inst:  327000002 cyc:  433393588 now IPC :1.52119: AVG IPC :0.75160: L2-Pf-HR :0.95470: L2-HR :0.90367: (Sim:0h29m34s) 
CPU  0 inst:  328000000 cyc:  434059209 now IPC :1.50235: AVG IPC :0.75275: L2-Pf-HR :0.95474: L2-HR :0.90385: (Sim:0h29m38s) 
Finished CPU 0 instr: 326000001 cyc: 433078607 AVG IPC: 0.75275 (Sim time: 0h29m38s)

ChampSim completed all CPUs

[ROI Statistics]
Core_0_instructions 326000001
Core_0_cycles 433078607
Core_0_IPC 0.75275

Core_0_branch_prediction_accuracy 99.57883
Core_0_branch_MPKI 0.12289
Core_0_average_ROB_occupancy_at_mispredict 237.20703

Core_0_L1D_total_access 97680148
Core_0_L1D_total_hit 84613424 L1D_total_Hit Ratio: 0.86623
Core_0_L1D_total_miss 13066724
Core_0_L1D_loads 89132513
Core_0_L1D_load_hit 76616368 L1D_load_Hit Ratio: 0.85958
Core_0_L1D_load_miss 12516145
Core_0_L1D_RFOs 8547635
Core_0_L1D_RFO_hit 7997056 L1D_RFO_Hit Ratio: 0.93559
Core_0_L1D_RFO_miss 550579
Core_0_L1D_prefetches 0
Core_0_L1D_prefetch_hit 0 L1D_prefetch_Hit Ratio: -nan
Core_0_L1D_prefetch_miss 0
Core_0_L1D_writebacks 0
Core_0_L1D_writeback_hit 0 L1D_writeback_Hit Ratio: -nan
Core_0_L1D_writeback_miss 0
Core_0_L1D_prefetch_requested 0
Core_0_L1D_prefetch_issued 0
Core_0_L1D_prefetch_useful 0 L1D_Useful Ratio: -nan
Core_0_L1D_prefetch_useless 0
Core_0_L1D_prefetch_late 0
Core_0_L1D_average_miss_latency 46.53267

Core_0_L1I_total_access 82750958
Core_0_L1I_total_hit 82746023 L1I_total_Hit Ratio: 0.99994
Core_0_L1I_total_miss 4935
Core_0_L1I_loads 82750958
Core_0_L1I_load_hit 82746023 L1I_load_Hit Ratio: 0.99994
Core_0_L1I_load_miss 4935
Core_0_L1I_RFOs 0
Core_0_L1I_RFO_hit 0 L1I_RFO_Hit Ratio: -nan
Core_0_L1I_RFO_miss 0
Core_0_L1I_prefetches 0
Core_0_L1I_prefetch_hit 0 L1I_prefetch_Hit Ratio: -nan
Core_0_L1I_prefetch_miss 0
Core_0_L1I_writebacks 0
Core_0_L1I_writeback_hit 0 L1I_writeback_Hit Ratio: -nan
Core_0_L1I_writeback_miss 0
Core_0_L1I_prefetch_requested 0
Core_0_L1I_prefetch_issued 0
Core_0_L1I_prefetch_useful 0 L1I_Useful Ratio: -nan
Core_0_L1I_prefetch_useless 0
Core_0_L1I_prefetch_late 0
Core_0_L1I_average_miss_latency 355.87396

Core_0_L2C_total_access 38955844
Core_0_L2C_total_hit 35210194 L2C_total_Hit Ratio: 0.90385
Core_0_L2C_total_miss 3745650
Core_0_L2C_loads 12521065
Core_0_L2C_load_hit 10386540 L2C_load_Hit Ratio: 0.82953
Core_0_L2C_load_miss 2134525
Core_0_L2C_RFOs 550579
Core_0_L2C_RFO_hit 25708 L2C_RFO_Hit Ratio: 0.04669
Core_0_L2C_RFO_miss 524871
Core_0_L2C_prefetches 23946621
Core_0_L2C_prefetch_hit 22862770 L2C_prefetch_Hit Ratio: 0.95474
Core_0_L2C_prefetch_miss 1083851
Core_0_L2C_writebacks 1937579
Core_0_L2C_writeback_hit 1935176 L2C_writeback_Hit Ratio: 0.99876
Core_0_L2C_writeback_miss 2403
Core_0_L2C_prefetch_requested 53582772
Core_0_L2C_prefetch_issued 53235362
Core_0_L2C_prefetch_useful 1025102 L2C_Useful Ratio: 0.01926
Core_0_L2C_prefetch_useless 62012
Core_0_L2C_prefetch_late 181375
Core_0_L2C_average_miss_latency 128.23890

Core_0_LLC_total_access 18595118
Core_0_LLC_total_hit 15482661 LLC_total_Hit Ratio: 0.83262
Core_0_LLC_total_miss 3112457
Core_0_LLC_loads 1953162
Core_0_LLC_load_hit 1511849 LLC_load_Hit Ratio: 0.77405
Core_0_LLC_load_miss 441313
Core_0_LLC_RFOs 524870
Core_0_LLC_RFO_hit 305 LLC_RFO_Hit Ratio: 0.00058
Core_0_LLC_RFO_miss 524565
Core_0_LLC_prefetches 14188565
Core_0_LLC_prefetch_hit 12058559 LLC_prefetch_Hit Ratio: 0.84988
Core_0_LLC_prefetch_miss 2130006
Core_0_LLC_writebacks 1928521
Core_0_LLC_writeback_hit 1911948 LLC_writeback_Hit Ratio: 0.99141
Core_0_LLC_writeback_miss 16573
Core_0_LLC_prefetch_requested 0
Core_0_LLC_prefetch_issued 0
Core_0_LLC_prefetch_useful 1085460 LLC_Useful Ratio: inf
Core_0_LLC_prefetch_useless 1044247
Core_0_LLC_prefetch_late 176301
Core_0_LLC_average_miss_latency 328.06169

Core_0_major_page_fault 0
Core_0_minor_page_fault 19454

 All Calls: 12569101
 Critical Calls: 12569101
------------------
Depth Distribution
------------------
depth 0: 0
depth 1: 8664190
depth 2: 8156885
depth 3: 7318435
depth 4: 6593660
depth 5: 5564709
depth 6: 4367865
depth 7: 3270640
depth 8: 2611692
depth 9: 1815873
depth 10: 1591047
depth 11: 1303042
depth 12: 1038875
depth 13: 591630
depth 14: 175883
depth 15: 169720
depth 16: 1216
depth 17: 0
depth 18: 0
depth 19: 0
depth 20: 0
depth 21: 0
depth 22: 0
depth 23: 0
depth 24: 0
depth 25: 0
depth 26: 0
depth 27: 0
depth 28: 0
depth 29: 0
Total: 53235362
-----------------------------
-----------------------------
	Captured at Filter
-----------------------------
depth 0: 0
depth 1: 3627655
depth 2: 3331703
depth 3: 3024771
depth 4: 2636546
depth 5: 2101577
depth 6: 1446379
depth 7: 777022
depth 8: 451412
depth 9: 321698
depth 10: 270264
depth 11: 206431
depth 12: 134787
depth 13: 76974
depth 14: 16259
depth 15: 11218
depth 16: 138
depth 17: 0
depth 18: 0
depth 19: 0
depth 20: 0
depth 21: 0
depth 22: 0
depth 23: 0
depth 24: 0
depth 25: 0
depth 26: 0
depth 27: 0
depth 28: 0
depth 29: 0
-----------------------------
-----------------------------
		Lost at Page
-----------------------------
depth 0: 0
depth 1: 636891
depth 2: 1073408
depth 3: 1464958
depth 4: 1814991
depth 5: 2100880
depth 6: 2229464
depth 7: 2029980
depth 8: 1618492
depth 9: 939868
depth 10: 574739
depth 11: 391221
depth 12: 275897
depth 13: 162556
depth 14: 51825
depth 15: 55417
depth 16: 181
depth 17: 0
depth 18: 0
depth 19: 0
depth 20: 0
depth 21: 0
depth 22: 0
depth 23: 0
depth 24: 0
depth 25: 0
depth 26: 0
depth 27: 0
depth 28: 0
depth 29: 0
-----------------------------
-----------------------------
	Lost due to PQ Size
-----------------------------
347410
-----------------------------
ST read accesses: 12094759
ST write accesses: 426306
PT read accesses: 502575070
PT write accesses: 17628850
FILTER read accesses: 88030775
FILTER write accesses: 12343549
GHR read accesses: 98943720
GHR write accesses: 15403097
GHR counter read accesses: 420625946
GHR counter write accesses: 21186750
ST tag read accesses: 5047299479
ST tag write accesses: 163505829
Channel_0_RQ_row_buffer_hit 1657008
Channel_0_RQ_row_buffer_miss 1438737
Channel_0_WQ_row_buffer_hit 594463
Channel_0_WQ_row_buffer_miss 1085593
Channel_0_WQ_full 0
Channel_0_dbus_congested 2253678

avg_congested_cycle 11

EzSearch AVG IPC :0.75275: L2-Pf-HR :0.95474 : L2-HR :0.90385 Uful:0.01926
     > Finished combination: TraceType=770-tot Sim:326000000 Prefetcher=L2spp_berti_src L1=no
