TRACE: [2366000000][OPT-6_7B]_[h32][s1024][d128] Warmup: 2000000 NumTraces: 2366000000
L1:no:L2:spp_berti_src
Initialize SIGNATURE TABLE
ST_SET: 1
ST_WAY: 256
ST_TAG_BIT: 16
ST_TAG_MASK: ffff

Initialize PATTERN TABLE
PT_SET: 512
PT_WAY: 4
SIG_DELTA_BIT: 7
C_SIG_BIT: 4
C_DELTA_BIT: 4

Initialize PREFETCH FILTER
FILTER_SET: 1024
*************************************************
   ChampSim Multicore Out-of-Order Simulator
   Last compiled: Oct 26 2024 13:06:27
*************************************************

trace_0 770-tot_memTraces_v3/memTraces[2366000000][OPT-6_7B]_[h32][s1024][d128].champsim.xz
ST_WAYS: 256
PT_SETS: 512
MAIN.cc ln 751 stats print skipped
CPU  0 inst:    1000002 cyc:     503740 now IPC :1.98515: AVG IPC :1.98515: L2-Pf-HR :0.45920: L2-HR :0.52696: (Sim:0h0m2s) 
CPU  0 inst:    2000000 cyc:     982464 now IPC :2.08888: AVG IPC :2.03570: L2-Pf-HR :0.40439: L2-HR :0.53695: (Sim:0h0m5s) 

Warmup complete CPU  0 instructions:    2000004 cycles:     982466 (Simulation time: 0 hr 0 min 5 sec) 

CPU  0 inst:    3000002 cyc:    1638253 now IPC :1.52488: AVG IPC :1.52488: L2-Pf-HR :0.37366: L2-HR :0.45837: (Sim:0h0m7s) 
CPU  0 inst:    4000000 cyc:    2323107 now IPC :1.46016: AVG IPC :1.49182: L2-Pf-HR :0.34088: L2-HR :0.45172: (Sim:0h0m10s) 
CPU  0 inst:    5000003 cyc:    3026610 now IPC :1.42146: AVG IPC :1.46761: L2-Pf-HR :0.37379: L2-HR :0.46166: (Sim:0h0m13s) 
CPU  0 inst:    6000002 cyc:    3717743 now IPC :1.44690: AVG IPC :1.46237: L2-Pf-HR :0.36517: L2-HR :0.46392: (Sim:0h0m15s) 
CPU  0 inst:    7000001 cyc:    4408779 now IPC :1.44710: AVG IPC :1.45929: L2-Pf-HR :0.37610: L2-HR :0.46934: (Sim:0h0m18s) 
CPU  0 inst:    8000000 cyc:    5101468 now IPC :1.44365: AVG IPC :1.45666: L2-Pf-HR :0.38231: L2-HR :0.46813: (Sim:0h0m20s) 
CPU  0 inst:    9000000 cyc:    5751135 now IPC :1.53925: AVG IPC :1.46791: L2-Pf-HR :0.38702: L2-HR :0.46958: (Sim:0h0m23s) 
CPU  0 inst:   10000002 cyc:    6419385 now IPC :1.49645: AVG IPC :1.47142: L2-Pf-HR :0.39953: L2-HR :0.47368: (Sim:0h0m25s) 
CPU  0 inst:   11000001 cyc:    7089852 now IPC :1.49150: AVG IPC :1.47363: L2-Pf-HR :0.40116: L2-HR :0.47488: (Sim:0h0m28s) 
CPU  0 inst:   12000000 cyc:    7791419 now IPC :1.42538: AVG IPC :1.46865: L2-Pf-HR :0.40495: L2-HR :0.47552: (Sim:0h0m31s) 
CPU  0 inst:   13000003 cyc:    8671068 now IPC :1.13682: AVG IPC :1.43069: L2-Pf-HR :0.39922: L2-HR :0.47127: (Sim:0h0m33s) 
CPU  0 inst:   14000003 cyc:    9316030 now IPC :1.55048: AVG IPC :1.43996: L2-Pf-HR :0.39087: L2-HR :0.46996: (Sim:0h0m36s) 
CPU  0 inst:   15000002 cyc:    9967160 now IPC :1.53579: AVG IPC :1.44690: L2-Pf-HR :0.38793: L2-HR :0.46970: (Sim:0h0m38s) 
CPU  0 inst:   16000000 cyc:   10615132 now IPC :1.54327: AVG IPC :1.45339: L2-Pf-HR :0.38459: L2-HR :0.46934: (Sim:0h0m41s) 
CPU  0 inst:   17000002 cyc:   11256423 now IPC :1.55936: AVG IPC :1.46000: L2-Pf-HR :0.38240: L2-HR :0.46975: (Sim:0h0m43s) 
CPU  0 inst:   18000000 cyc:   11899380 now IPC :1.55531: AVG IPC :1.46562: L2-Pf-HR :0.38122: L2-HR :0.47077: (Sim:0h0m46s) 
CPU  0 inst:   19000003 cyc:   12540904 now IPC :1.55879: AVG IPC :1.47079: L2-Pf-HR :0.37909: L2-HR :0.47144: (Sim:0h0m49s) 
CPU  0 inst:   20000000 cyc:   13181873 now IPC :1.56013: AVG IPC :1.47548: L2-Pf-HR :0.37629: L2-HR :0.47082: (Sim:0h0m51s) 
CPU  0 inst:   21000003 cyc:   13834264 now IPC :1.53283: AVG IPC :1.47839: L2-Pf-HR :0.37787: L2-HR :0.47153: (Sim:0h0m54s) 
CPU  0 inst:   22000001 cyc:   14475016 now IPC :1.56066: AVG IPC :1.48230: L2-Pf-HR :0.37787: L2-HR :0.47210: (Sim:0h0m56s) 
CPU  0 inst:   23000001 cyc:   15134075 now IPC :1.51731: AVG IPC :1.48393: L2-Pf-HR :0.37662: L2-HR :0.47230: (Sim:0h0m59s) 
CPU  0 inst:   24000000 cyc:   15940921 now IPC :1.23939: AVG IPC :1.47074: L2-Pf-HR :0.37592: L2-HR :0.47062: (Sim:0h1m1s) 
CPU  0 inst:   25000002 cyc:   16535314 now IPC :1.68239: AVG IPC :1.47883: L2-Pf-HR :0.46705: L2-HR :0.49763: (Sim:0h1m4s) 
CPU  0 inst:   26000002 cyc:   17140679 now IPC :1.65190: AVG IPC :1.48531: L2-Pf-HR :0.52197: L2-HR :0.51637: (Sim:0h1m6s) 
CPU  0 inst:   27000002 cyc:   17732623 now IPC :1.68935: AVG IPC :1.49252: L2-Pf-HR :0.56444: L2-HR :0.53284: (Sim:0h1m9s) 
CPU  0 inst:   28000000 cyc:   18363170 now IPC :1.58592: AVG IPC :1.49591: L2-Pf-HR :0.59848: L2-HR :0.54794: (Sim:0h1m11s) 
CPU  0 inst:   29000001 cyc:   18972265 now IPC :1.64178: AVG IPC :1.50085: L2-Pf-HR :0.62459: L2-HR :0.56025: (Sim:0h1m14s) 
CPU  0 inst:   30000000 cyc:   19544017 now IPC :1.74901: AVG IPC :1.50849: L2-Pf-HR :0.67484: L2-HR :0.58643: (Sim:0h1m17s) 
CPU  0 inst:   31000002 cyc:   20108140 now IPC :1.77267: AVG IPC :1.51629: L2-Pf-HR :0.71618: L2-HR :0.61150: (Sim:0h1m19s) 
CPU  0 inst:   32000000 cyc:   20967708 now IPC :1.16337: AVG IPC :1.50111: L2-Pf-HR :0.73459: L2-HR :0.62224: (Sim:0h1m22s) 
CPU  0 inst:   33000003 cyc:   21633677 now IPC :1.50158: AVG IPC :1.50112: L2-Pf-HR :0.72846: L2-HR :0.61829: (Sim:0h1m24s) 
CPU  0 inst:   34000001 cyc:   22309063 now IPC :1.48063: AVG IPC :1.50047: L2-Pf-HR :0.72299: L2-HR :0.61440: (Sim:0h1m27s) 
CPU  0 inst:   35000000 cyc:   23015323 now IPC :1.41591: AVG IPC :1.49776: L2-Pf-HR :0.71832: L2-HR :0.61087: (Sim:0h1m29s) 
CPU  0 inst:   36000000 cyc:   23733675 now IPC :1.39208: AVG IPC :1.49443: L2-Pf-HR :0.71345: L2-HR :0.60753: (Sim:0h1m32s) 
CPU  0 inst:   37000001 cyc:   24446980 now IPC :1.40193: AVG IPC :1.49161: L2-Pf-HR :0.70853: L2-HR :0.60451: (Sim:0h1m35s) 
CPU  0 inst:   38000000 cyc:   25156202 now IPC :1.40999: AVG IPC :1.48922: L2-Pf-HR :0.70416: L2-HR :0.60180: (Sim:0h1m37s) 
CPU  0 inst:   39000002 cyc:   25871508 now IPC :1.39801: AVG IPC :1.48660: L2-Pf-HR :0.69973: L2-HR :0.59894: (Sim:0h1m40s) 
CPU  0 inst:   40000000 cyc:   26557568 now IPC :1.45760: AVG IPC :1.48582: L2-Pf-HR :0.69417: L2-HR :0.59571: (Sim:0h1m42s) 
CPU  0 inst:   41000002 cyc:   27234245 now IPC :1.47781: AVG IPC :1.48561: L2-Pf-HR :0.68889: L2-HR :0.59286: (Sim:0h1m45s) 
CPU  0 inst:   42000001 cyc:   27922920 now IPC :1.45206: AVG IPC :1.48476: L2-Pf-HR :0.68358: L2-HR :0.59007: (Sim:0h1m47s) 
CPU  0 inst:   43000000 cyc:   28599582 now IPC :1.47784: AVG IPC :1.48459: L2-Pf-HR :0.68023: L2-HR :0.58828: (Sim:0h1m50s) 
CPU  0 inst:   44000000 cyc:   29518654 now IPC :1.08805: AVG IPC :1.47182: L2-Pf-HR :0.67572: L2-HR :0.58450: (Sim:0h1m53s) 
CPU  0 inst:   45000000 cyc:   30117720 now IPC :1.66927: AVG IPC :1.47588: L2-Pf-HR :0.67145: L2-HR :0.58242: (Sim:0h1m55s) 
CPU  0 inst:   46000003 cyc:   30723666 now IPC :1.65032: AVG IPC :1.47943: L2-Pf-HR :0.66731: L2-HR :0.58035: (Sim:0h1m58s) 
CPU  0 inst:   47000000 cyc:   31338987 now IPC :1.62516: AVG IPC :1.48238: L2-Pf-HR :0.66268: L2-HR :0.57798: (Sim:0h2m0s) 
CPU  0 inst:   48000000 cyc:   31941643 now IPC :1.65932: AVG IPC :1.48583: L2-Pf-HR :0.65671: L2-HR :0.57536: (Sim:0h2m3s) 
CPU  0 inst:   49000002 cyc:   32540765 now IPC :1.66911: AVG IPC :1.48931: L2-Pf-HR :0.65189: L2-HR :0.57338: (Sim:0h2m5s) 
CPU  0 inst:   50000000 cyc:   33144029 now IPC :1.65765: AVG IPC :1.49246: L2-Pf-HR :0.64836: L2-HR :0.57188: (Sim:0h2m8s) 
CPU  0 inst:   51000003 cyc:   33774167 now IPC :1.58696: AVG IPC :1.49428: L2-Pf-HR :0.64480: L2-HR :0.57023: (Sim:0h2m10s) 
CPU  0 inst:   52000000 cyc:   34378345 now IPC :1.65514: AVG IPC :1.49719: L2-Pf-HR :0.64164: L2-HR :0.56872: (Sim:0h2m13s) 
CPU  0 inst:   53000003 cyc:   34990952 now IPC :1.63237: AVG IPC :1.49963: L2-Pf-HR :0.63884: L2-HR :0.56734: (Sim:0h2m15s) 
CPU  0 inst:   54000001 cyc:   35622306 now IPC :1.58389: AVG IPC :1.50116: L2-Pf-HR :0.63505: L2-HR :0.56573: (Sim:0h2m18s) 
CPU  0 inst:   55000000 cyc:   36220582 now IPC :1.67147: AVG IPC :1.50405: L2-Pf-HR :0.63223: L2-HR :0.56458: (Sim:0h2m20s) 
CPU  0 inst:   56000000 cyc:   37007991 now IPC :1.26999: AVG IPC :1.49894: L2-Pf-HR :0.63567: L2-HR :0.56591: (Sim:0h2m23s) 
CPU  0 inst:   57000002 cyc:   37603672 now IPC :1.67875: AVG IPC :1.50186: L2-Pf-HR :0.64918: L2-HR :0.57299: (Sim:0h2m26s) 
CPU  0 inst:   58000001 cyc:   38230239 now IPC :1.59600: AVG IPC :1.50345: L2-Pf-HR :0.65806: L2-HR :0.57774: (Sim:0h2m28s) 
CPU  0 inst:   59000000 cyc:   38839335 now IPC :1.64178: AVG IPC :1.50567: L2-Pf-HR :0.66752: L2-HR :0.58310: (Sim:0h2m31s) 
CPU  0 inst:   60000000 cyc:   39447656 now IPC :1.64387: AVG IPC :1.50786: L2-Pf-HR :0.67540: L2-HR :0.58776: (Sim:0h2m33s) 
CPU  0 inst:   61000003 cyc:   40031574 now IPC :1.71257: AVG IPC :1.51092: L2-Pf-HR :0.68640: L2-HR :0.59414: (Sim:0h2m36s) 
CPU  0 inst:   62000002 cyc:   40599264 now IPC :1.76152: AVG IPC :1.51451: L2-Pf-HR :0.70612: L2-HR :0.60619: (Sim:0h2m38s) 
CPU  0 inst:   63000002 cyc:   41206353 now IPC :1.64720: AVG IPC :1.51651: L2-Pf-HR :0.72302: L2-HR :0.61715: (Sim:0h2m41s) 
CPU  0 inst:   64000000 cyc:   42111244 now IPC :1.10510: AVG IPC :1.50746: L2-Pf-HR :0.72362: L2-HR :0.61682: (Sim:0h2m43s) 
CPU  0 inst:   65000001 cyc:   42764909 now IPC :1.52984: AVG IPC :1.50781: L2-Pf-HR :0.72085: L2-HR :0.61493: (Sim:0h2m46s) 
CPU  0 inst:   66000002 cyc:   43455943 now IPC :1.44711: AVG IPC :1.50682: L2-Pf-HR :0.71825: L2-HR :0.61306: (Sim:0h2m49s) 
CPU  0 inst:   67000002 cyc:   44167156 now IPC :1.40605: AVG IPC :1.50516: L2-Pf-HR :0.71597: L2-HR :0.61134: (Sim:0h2m51s) 
CPU  0 inst:   68000000 cyc:   44822583 now IPC :1.52572: AVG IPC :1.50547: L2-Pf-HR :0.71339: L2-HR :0.60967: (Sim:0h2m54s) 
CPU  0 inst:   69000002 cyc:   45488254 now IPC :1.50225: AVG IPC :1.50542: L2-Pf-HR :0.71071: L2-HR :0.60801: (Sim:0h2m56s) 
CPU  0 inst:   70000001 cyc:   46166981 now IPC :1.47334: AVG IPC :1.50494: L2-Pf-HR :0.70841: L2-HR :0.60659: (Sim:0h2m59s) 
CPU  0 inst:   71000000 cyc:   46826405 now IPC :1.51647: AVG IPC :1.50511: L2-Pf-HR :0.70594: L2-HR :0.60493: (Sim:0h3m2s) 
CPU  0 inst:   72000000 cyc:   47475157 now IPC :1.54142: AVG IPC :1.50561: L2-Pf-HR :0.70351: L2-HR :0.60335: (Sim:0h3m4s) 
CPU  0 inst:   73000000 cyc:   48134085 now IPC :1.51762: AVG IPC :1.50578: L2-Pf-HR :0.70043: L2-HR :0.60165: (Sim:0h3m7s) 
CPU  0 inst:   74000002 cyc:   48828811 now IPC :1.43942: AVG IPC :1.50482: L2-Pf-HR :0.69835: L2-HR :0.60042: (Sim:0h3m9s) 
CPU  0 inst:   75000000 cyc:   49494369 now IPC :1.50250: AVG IPC :1.50479: L2-Pf-HR :0.69625: L2-HR :0.59918: (Sim:0h3m12s) 
CPU  0 inst:   76000000 cyc:   50390633 now IPC :1.11574: AVG IPC :1.49773: L2-Pf-HR :0.69349: L2-HR :0.59691: (Sim:0h3m14s) 
CPU  0 inst:   77000000 cyc:   51006436 now IPC :1.62390: AVG IPC :1.49928: L2-Pf-HR :0.69048: L2-HR :0.59539: (Sim:0h3m17s) 
CPU  0 inst:   78000002 cyc:   51642463 now IPC :1.57226: AVG IPC :1.50020: L2-Pf-HR :0.68722: L2-HR :0.59368: (Sim:0h3m19s) 
CPU  0 inst:   79000002 cyc:   52278880 now IPC :1.57130: AVG IPC :1.50108: L2-Pf-HR :0.68392: L2-HR :0.59200: (Sim:0h3m22s) 
CPU  0 inst:   80000000 cyc:   52895385 now IPC :1.62204: AVG IPC :1.50252: L2-Pf-HR :0.68066: L2-HR :0.59045: (Sim:0h3m24s) 
CPU  0 inst:   81000001 cyc:   53512945 now IPC :1.61928: AVG IPC :1.50389: L2-Pf-HR :0.67826: L2-HR :0.58929: (Sim:0h3m27s) 
CPU  0 inst:   82000001 cyc:   54181037 now IPC :1.49680: AVG IPC :1.50380: L2-Pf-HR :0.67608: L2-HR :0.58825: (Sim:0h3m30s) 
CPU  0 inst:   83000000 cyc:   54808680 now IPC :1.59326: AVG IPC :1.50484: L2-Pf-HR :0.67401: L2-HR :0.58711: (Sim:0h3m32s) 
CPU  0 inst:   84000000 cyc:   55458133 now IPC :1.53976: AVG IPC :1.50526: L2-Pf-HR :0.67215: L2-HR :0.58609: (Sim:0h3m35s) 
CPU  0 inst:   85000000 cyc:   56071294 now IPC :1.63089: AVG IPC :1.50666: L2-Pf-HR :0.67016: L2-HR :0.58510: (Sim:0h3m37s) 
CPU  0 inst:   86000002 cyc:   56716465 now IPC :1.54998: AVG IPC :1.50716: L2-Pf-HR :0.66832: L2-HR :0.58419: (Sim:0h3m40s) 
CPU  0 inst:   87000001 cyc:   57462814 now IPC :1.33985: AVG IPC :1.50495: L2-Pf-HR :0.66613: L2-HR :0.58261: (Sim:0h3m42s) 
CPU  0 inst:   88000000 cyc:   58100569 now IPC :1.56800: AVG IPC :1.50565: L2-Pf-HR :0.67137: L2-HR :0.58578: (Sim:0h3m45s) 
CPU  0 inst:   89000000 cyc:   58697027 now IPC :1.67656: AVG IPC :1.50742: L2-Pf-HR :0.67715: L2-HR :0.58917: (Sim:0h3m47s) 
CPU  0 inst:   90000000 cyc:   59304474 now IPC :1.64623: AVG IPC :1.50886: L2-Pf-HR :0.68253: L2-HR :0.59233: (Sim:0h3m50s) 
CPU  0 inst:   91000002 cyc:   59933694 now IPC :1.58927: AVG IPC :1.50972: L2-Pf-HR :0.68714: L2-HR :0.59519: (Sim:0h3m52s) 
CPU  0 inst:   92000000 cyc:   60540685 now IPC :1.64747: AVG IPC :1.51113: L2-Pf-HR :0.69197: L2-HR :0.59815: (Sim:0h3m55s) 
CPU  0 inst:   93000002 cyc:   61118154 now IPC :1.73170: AVG IPC :1.51324: L2-Pf-HR :0.70157: L2-HR :0.60403: (Sim:0h3m57s) 
CPU  0 inst:   94000001 cyc:   61692359 now IPC :1.74154: AVG IPC :1.51540: L2-Pf-HR :0.71317: L2-HR :0.61142: (Sim:0h4m0s) 
CPU  0 inst:   95000003 cyc:   62543884 now IPC :1.17437: AVG IPC :1.51069: L2-Pf-HR :0.72105: L2-HR :0.61605: (Sim:0h4m3s) 
CPU  0 inst:   96000000 cyc:   63242735 now IPC :1.43092: AVG IPC :1.50979: L2-Pf-HR :0.71900: L2-HR :0.61472: (Sim:0h4m5s) 
CPU  0 inst:   97000003 cyc:   63913674 now IPC :1.49045: AVG IPC :1.50958: L2-Pf-HR :0.71709: L2-HR :0.61344: (Sim:0h4m8s) 
CPU  0 inst:   98000002 cyc:   64625702 now IPC :1.40444: AVG IPC :1.50841: L2-Pf-HR :0.71561: L2-HR :0.61226: (Sim:0h4m10s) 
CPU  0 inst:   99000001 cyc:   65307561 now IPC :1.46658: AVG IPC :1.50797: L2-Pf-HR :0.71360: L2-HR :0.61094: (Sim:0h4m13s) 
CPU  0 inst:  100000000 cyc:   65989499 now IPC :1.46641: AVG IPC :1.50753: L2-Pf-HR :0.71207: L2-HR :0.60992: (Sim:0h4m16s) 
CPU  0 inst:  101000000 cyc:   66667260 now IPC :1.47545: AVG IPC :1.50720: L2-Pf-HR :0.71049: L2-HR :0.60886: (Sim:0h4m18s) 
CPU  0 inst:  102000000 cyc:   67328713 now IPC :1.51182: AVG IPC :1.50724: L2-Pf-HR :0.70883: L2-HR :0.60781: (Sim:0h4m21s) 
CPU  0 inst:  103000002 cyc:   68047456 now IPC :1.39132: AVG IPC :1.50600: L2-Pf-HR :0.70734: L2-HR :0.60672: (Sim:0h4m23s) 
CPU  0 inst:  104000000 cyc:   68724341 now IPC :1.47735: AVG IPC :1.50572: L2-Pf-HR :0.70549: L2-HR :0.60560: (Sim:0h4m26s) 
CPU  0 inst:  105000002 cyc:   69392028 now IPC :1.49771: AVG IPC :1.50564: L2-Pf-HR :0.70379: L2-HR :0.60461: (Sim:0h4m28s) 
CPU  0 inst:  106000001 cyc:   70066567 now IPC :1.48249: AVG IPC :1.50541: L2-Pf-HR :0.70244: L2-HR :0.60377: (Sim:0h4m31s) 
CPU  0 inst:  107000000 cyc:   70972433 now IPC :1.10391: AVG IPC :1.50021: L2-Pf-HR :0.70065: L2-HR :0.60217: (Sim:0h4m34s) 
CPU  0 inst:  108000000 cyc:   71595447 now IPC :1.60510: AVG IPC :1.50114: L2-Pf-HR :0.69900: L2-HR :0.60128: (Sim:0h4m36s) 
CPU  0 inst:  109000000 cyc:   72200413 now IPC :1.65299: AVG IPC :1.50243: L2-Pf-HR :0.69692: L2-HR :0.60015: (Sim:0h4m39s) 
CPU  0 inst:  110000003 cyc:   72810649 now IPC :1.63872: AVG IPC :1.50359: L2-Pf-HR :0.69470: L2-HR :0.59894: (Sim:0h4m41s) 
CPU  0 inst:  111000001 cyc:   73415583 now IPC :1.65307: AVG IPC :1.50484: L2-Pf-HR :0.69238: L2-HR :0.59775: (Sim:0h4m44s) 
CPU  0 inst:  112000000 cyc:   74015684 now IPC :1.66638: AVG IPC :1.50616: L2-Pf-HR :0.69017: L2-HR :0.59669: (Sim:0h4m46s) 
CPU  0 inst:  113000003 cyc:   74636301 now IPC :1.61130: AVG IPC :1.50705: L2-Pf-HR :0.68870: L2-HR :0.59594: (Sim:0h4m49s) 
CPU  0 inst:  114000001 cyc:   75293299 now IPC :1.52207: AVG IPC :1.50718: L2-Pf-HR :0.68720: L2-HR :0.59513: (Sim:0h4m51s) 
CPU  0 inst:  115000000 cyc:   75921086 now IPC :1.59290: AVG IPC :1.50790: L2-Pf-HR :0.68564: L2-HR :0.59422: (Sim:0h4m54s) 
CPU  0 inst:  116000000 cyc:   76554219 now IPC :1.57945: AVG IPC :1.50850: L2-Pf-HR :0.68443: L2-HR :0.59353: (Sim:0h4m56s) 
CPU  0 inst:  117000000 cyc:   77201824 now IPC :1.54415: AVG IPC :1.50880: L2-Pf-HR :0.68309: L2-HR :0.59282: (Sim:0h4m59s) 
CPU  0 inst:  118000000 cyc:   77800777 now IPC :1.66958: AVG IPC :1.51006: L2-Pf-HR :0.68159: L2-HR :0.59204: (Sim:0h5m1s) 
CPU  0 inst:  119000002 cyc:   78592905 now IPC :1.26242: AVG IPC :1.50753: L2-Pf-HR :0.68185: L2-HR :0.59200: (Sim:0h5m4s) 
CPU  0 inst:  120000000 cyc:   79180577 now IPC :1.70163: AVG IPC :1.50899: L2-Pf-HR :0.68650: L2-HR :0.59481: (Sim:0h5m6s) 
CPU  0 inst:  121000003 cyc:   79780462 now IPC :1.66699: AVG IPC :1.51019: L2-Pf-HR :0.69012: L2-HR :0.59697: (Sim:0h5m9s) 
CPU  0 inst:  122000000 cyc:   80391468 now IPC :1.63664: AVG IPC :1.51116: L2-Pf-HR :0.69318: L2-HR :0.59890: (Sim:0h5m12s) 
CPU  0 inst:  123000002 cyc:   81001048 now IPC :1.64048: AVG IPC :1.51215: L2-Pf-HR :0.69664: L2-HR :0.60112: (Sim:0h5m14s) 
CPU  0 inst:  124000000 cyc:   81586027 now IPC :1.70946: AVG IPC :1.51358: L2-Pf-HR :0.70035: L2-HR :0.60341: (Sim:0h5m17s) 
CPU  0 inst:  125000000 cyc:   82153119 now IPC :1.76338: AVG IPC :1.51533: L2-Pf-HR :0.70914: L2-HR :0.60896: (Sim:0h5m19s) 
CPU  0 inst:  126000001 cyc:   82760956 now IPC :1.64518: AVG IPC :1.51629: L2-Pf-HR :0.71754: L2-HR :0.61441: (Sim:0h5m22s) 
CPU  0 inst:  127000002 cyc:   83659710 now IPC :1.11265: AVG IPC :1.51190: L2-Pf-HR :0.71908: L2-HR :0.61504: (Sim:0h5m24s) 
CPU  0 inst:  128000000 cyc:   84294648 now IPC :1.57495: AVG IPC :1.51238: L2-Pf-HR :0.71771: L2-HR :0.61413: (Sim:0h5m27s) 
CPU  0 inst:  129000001 cyc:   84989514 now IPC :1.43913: AVG IPC :1.51178: L2-Pf-HR :0.71649: L2-HR :0.61322: (Sim:0h5m29s) 
CPU  0 inst:  130000001 cyc:   85683835 now IPC :1.44026: AVG IPC :1.51119: L2-Pf-HR :0.71532: L2-HR :0.61233: (Sim:0h5m32s) 
CPU  0 inst:  131000002 cyc:   86419774 now IPC :1.35881: AVG IPC :1.50988: L2-Pf-HR :0.71415: L2-HR :0.61149: (Sim:0h5m35s) 
CPU  0 inst:  132000000 cyc:   87177917 now IPC :1.31901: AVG IPC :1.50820: L2-Pf-HR :0.71299: L2-HR :0.61070: (Sim:0h5m37s) 
CPU  0 inst:  133000003 cyc:   87927189 now IPC :1.33463: AVG IPC :1.50670: L2-Pf-HR :0.71178: L2-HR :0.60995: (Sim:0h5m40s) 
CPU  0 inst:  134000002 cyc:   88687967 now IPC :1.31444: AVG IPC :1.50504: L2-Pf-HR :0.71066: L2-HR :0.60910: (Sim:0h5m43s) 
CPU  0 inst:  135000000 cyc:   89412096 now IPC :1.38097: AVG IPC :1.50402: L2-Pf-HR :0.70955: L2-HR :0.60830: (Sim:0h5m45s) 
CPU  0 inst:  136000000 cyc:   90128637 now IPC :1.39559: AVG IPC :1.50315: L2-Pf-HR :0.70865: L2-HR :0.60766: (Sim:0h5m48s) 
CPU  0 inst:  137000000 cyc:   90835897 now IPC :1.41391: AVG IPC :1.50245: L2-Pf-HR :0.70760: L2-HR :0.60699: (Sim:0h5m50s) 
CPU  0 inst:  138000003 cyc:   91538693 now IPC :1.42289: AVG IPC :1.50183: L2-Pf-HR :0.70653: L2-HR :0.60632: (Sim:0h5m53s) 
CPU  0 inst:  139000001 cyc:   92458599 now IPC :1.08707: AVG IPC :1.49766: L2-Pf-HR :0.70512: L2-HR :0.60508: (Sim:0h5m56s) 
CPU  0 inst:  140000000 cyc:   93094738 now IPC :1.57198: AVG IPC :1.49817: L2-Pf-HR :0.70383: L2-HR :0.60433: (Sim:0h5m58s) 
CPU  0 inst:  141000001 cyc:   93768841 now IPC :1.48345: AVG IPC :1.49806: L2-Pf-HR :0.70259: L2-HR :0.60358: (Sim:0h6m1s) 
CPU  0 inst:  142000000 cyc:   94421668 now IPC :1.53180: AVG IPC :1.49830: L2-Pf-HR :0.70144: L2-HR :0.60287: (Sim:0h6m3s) 
CPU  0 inst:  143000003 cyc:   95040762 now IPC :1.61527: AVG IPC :1.49907: L2-Pf-HR :0.70015: L2-HR :0.60215: (Sim:0h6m6s) 
CPU  0 inst:  144000000 cyc:   95678990 now IPC :1.56683: AVG IPC :1.49953: L2-Pf-HR :0.69897: L2-HR :0.60153: (Sim:0h6m8s) 
CPU  0 inst:  145000002 cyc:   96346437 now IPC :1.49825: AVG IPC :1.49952: L2-Pf-HR :0.69781: L2-HR :0.60093: (Sim:0h6m11s) 
CPU  0 inst:  146000002 cyc:   97009574 now IPC :1.50798: AVG IPC :1.49958: L2-Pf-HR :0.69656: L2-HR :0.60018: (Sim:0h6m13s) 
CPU  0 inst:  147000000 cyc:   97627762 now IPC :1.61763: AVG IPC :1.50033: L2-Pf-HR :0.69552: L2-HR :0.59957: (Sim:0h6m16s) 
CPU  0 inst:  148000000 cyc:   98255664 now IPC :1.59261: AVG IPC :1.50093: L2-Pf-HR :0.69447: L2-HR :0.59897: (Sim:0h6m18s) 
CPU  0 inst:  149000001 cyc:   98872285 now IPC :1.62174: AVG IPC :1.50169: L2-Pf-HR :0.69329: L2-HR :0.59834: (Sim:0h6m21s) 
CPU  0 inst:  150000003 cyc:   99529613 now IPC :1.52131: AVG IPC :1.50182: L2-Pf-HR :0.69214: L2-HR :0.59770: (Sim:0h6m24s) 
CPU  0 inst:  151000003 cyc:  100267238 now IPC :1.35570: AVG IPC :1.50073: L2-Pf-HR :0.69407: L2-HR :0.59873: (Sim:0h6m26s) 
CPU  0 inst:  152000000 cyc:  100866684 now IPC :1.66820: AVG IPC :1.50174: L2-Pf-HR :0.69717: L2-HR :0.60065: (Sim:0h6m29s) 
CPU  0 inst:  153000003 cyc:  101463603 now IPC :1.67527: AVG IPC :1.50277: L2-Pf-HR :0.69954: L2-HR :0.60214: (Sim:0h6m31s) 
CPU  0 inst:  154000001 cyc:  102073955 now IPC :1.63840: AVG IPC :1.50359: L2-Pf-HR :0.70211: L2-HR :0.60382: (Sim:0h6m34s) 
CPU  0 inst:  155000003 cyc:  102674906 now IPC :1.66403: AVG IPC :1.50454: L2-Pf-HR :0.70440: L2-HR :0.60531: (Sim:0h6m36s) 
CPU  0 inst:  156000000 cyc:  103253577 now IPC :1.72809: AVG IPC :1.50580: L2-Pf-HR :0.70937: L2-HR :0.60846: (Sim:0h6m39s) 
CPU  0 inst:  157000000 cyc:  103818608 now IPC :1.76981: AVG IPC :1.50725: L2-Pf-HR :0.71599: L2-HR :0.61275: (Sim:0h6m41s) 
CPU  0 inst:  158000001 cyc:  104586865 now IPC :1.30165: AVG IPC :1.50573: L2-Pf-HR :0.72145: L2-HR :0.61604: (Sim:0h6m44s) 
CPU  0 inst:  159000003 cyc:  105299561 now IPC :1.40313: AVG IPC :1.50503: L2-Pf-HR :0.72019: L2-HR :0.61524: (Sim:0h6m46s) 
CPU  0 inst:  160000000 cyc:  105977581 now IPC :1.47488: AVG IPC :1.50483: L2-Pf-HR :0.71914: L2-HR :0.61450: (Sim:0h6m49s) 
CPU  0 inst:  161000000 cyc:  106675409 now IPC :1.43302: AVG IPC :1.50436: L2-Pf-HR :0.71816: L2-HR :0.61375: (Sim:0h6m52s) 
CPU  0 inst:  162000002 cyc:  107376789 now IPC :1.42576: AVG IPC :1.50384: L2-Pf-HR :0.71720: L2-HR :0.61305: (Sim:0h6m54s) 
CPU  0 inst:  163000000 cyc:  108055328 now IPC :1.47375: AVG IPC :1.50365: L2-Pf-HR :0.71622: L2-HR :0.61239: (Sim:0h6m57s) 
CPU  0 inst:  164000000 cyc:  108705729 now IPC :1.53751: AVG IPC :1.50385: L2-Pf-HR :0.71521: L2-HR :0.61175: (Sim:0h6m59s) 
CPU  0 inst:  165000001 cyc:  109416455 now IPC :1.40701: AVG IPC :1.50322: L2-Pf-HR :0.71426: L2-HR :0.61111: (Sim:0h7m2s) 
CPU  0 inst:  166000000 cyc:  110116156 now IPC :1.42918: AVG IPC :1.50274: L2-Pf-HR :0.71325: L2-HR :0.61039: (Sim:0h7m5s) 
CPU  0 inst:  167000002 cyc:  110777159 now IPC :1.51286: AVG IPC :1.50280: L2-Pf-HR :0.71241: L2-HR :0.60981: (Sim:0h7m7s) 
CPU  0 inst:  168000000 cyc:  111426108 now IPC :1.54095: AVG IPC :1.50303: L2-Pf-HR :0.71116: L2-HR :0.60908: (Sim:0h7m10s) 
CPU  0 inst:  169000002 cyc:  112097935 now IPC :1.48848: AVG IPC :1.50294: L2-Pf-HR :0.71023: L2-HR :0.60851: (Sim:0h7m12s) 
CPU  0 inst:  170000002 cyc:  112963319 now IPC :1.15556: AVG IPC :1.50026: L2-Pf-HR :0.70921: L2-HR :0.60753: (Sim:0h7m15s) 
CPU  0 inst:  171000001 cyc:  113625513 now IPC :1.51013: AVG IPC :1.50031: L2-Pf-HR :0.70810: L2-HR :0.60689: (Sim:0h7m17s) 
CPU  0 inst:  172000000 cyc:  114236261 now IPC :1.63733: AVG IPC :1.50105: L2-Pf-HR :0.70705: L2-HR :0.60629: (Sim:0h7m20s) 
CPU  0 inst:  173000001 cyc:  114871016 now IPC :1.57541: AVG IPC :1.50147: L2-Pf-HR :0.70574: L2-HR :0.60553: (Sim:0h7m22s) 
CPU  0 inst:  174000000 cyc:  115481627 now IPC :1.63770: AVG IPC :1.50219: L2-Pf-HR :0.70425: L2-HR :0.60474: (Sim:0h7m25s) 
CPU  0 inst:  175000002 cyc:  116090779 now IPC :1.64163: AVG IPC :1.50293: L2-Pf-HR :0.70285: L2-HR :0.60404: (Sim:0h7m27s) 
CPU  0 inst:  176000000 cyc:  116700389 now IPC :1.64039: AVG IPC :1.50366: L2-Pf-HR :0.70188: L2-HR :0.60352: (Sim:0h7m30s) 
CPU  0 inst:  177000000 cyc:  117342986 now IPC :1.55619: AVG IPC :1.50395: L2-Pf-HR :0.70087: L2-HR :0.60296: (Sim:0h7m32s) 
CPU  0 inst:  178000000 cyc:  117979718 now IPC :1.57052: AVG IPC :1.50431: L2-Pf-HR :0.69994: L2-HR :0.60240: (Sim:0h7m35s) 
CPU  0 inst:  179000000 cyc:  118590982 now IPC :1.63595: AVG IPC :1.50499: L2-Pf-HR :0.69907: L2-HR :0.60189: (Sim:0h7m37s) 
CPU  0 inst:  180000000 cyc:  119203823 now IPC :1.63174: AVG IPC :1.50565: L2-Pf-HR :0.69771: L2-HR :0.60120: (Sim:0h7m40s) 
CPU  0 inst:  181000001 cyc:  119804651 now IPC :1.66437: AVG IPC :1.50645: L2-Pf-HR :0.69681: L2-HR :0.60072: (Sim:0h7m43s) 
CPU  0 inst:  182000001 cyc:  120601036 now IPC :1.25567: AVG IPC :1.50478: L2-Pf-HR :0.69640: L2-HR :0.60032: (Sim:0h7m45s) 
CPU  0 inst:  183000002 cyc:  121181860 now IPC :1.72169: AVG IPC :1.50583: L2-Pf-HR :0.69929: L2-HR :0.60218: (Sim:0h7m48s) 
CPU  0 inst:  184000000 cyc:  121786370 now IPC :1.65423: AVG IPC :1.50657: L2-Pf-HR :0.70121: L2-HR :0.60339: (Sim:0h7m50s) 
CPU  0 inst:  185000001 cyc:  122411680 now IPC :1.59921: AVG IPC :1.50705: L2-Pf-HR :0.70325: L2-HR :0.60470: (Sim:0h7m53s) 
CPU  0 inst:  186000001 cyc:  123022510 now IPC :1.63712: AVG IPC :1.50770: L2-Pf-HR :0.70516: L2-HR :0.60600: (Sim:0h7m55s) 
CPU  0 inst:  187000003 cyc:  123609110 now IPC :1.70474: AVG IPC :1.50864: L2-Pf-HR :0.70716: L2-HR :0.60729: (Sim:0h7m58s) 
CPU  0 inst:  188000000 cyc:  124179274 now IPC :1.75388: AVG IPC :1.50978: L2-Pf-HR :0.71252: L2-HR :0.61072: (Sim:0h8m0s) 
CPU  0 inst:  189000000 cyc:  124771080 now IPC :1.68974: AVG IPC :1.51064: L2-Pf-HR :0.71802: L2-HR :0.61431: (Sim:0h8m3s) 
CPU  0 inst:  190000001 cyc:  125662183 now IPC :1.12221: AVG IPC :1.50786: L2-Pf-HR :0.71975: L2-HR :0.61522: (Sim:0h8m5s) 
CPU  0 inst:  191000001 cyc:  126327638 now IPC :1.50273: AVG IPC :1.50784: L2-Pf-HR :0.71884: L2-HR :0.61460: (Sim:0h8m8s) 
CPU  0 inst:  192000000 cyc:  127021969 now IPC :1.44023: AVG IPC :1.50746: L2-Pf-HR :0.71793: L2-HR :0.61396: (Sim:0h8m10s) 
CPU  0 inst:  193000001 cyc:  127726564 now IPC :1.41926: AVG IPC :1.50697: L2-Pf-HR :0.71719: L2-HR :0.61337: (Sim:0h8m13s) 
CPU  0 inst:  194000002 cyc:  128404379 now IPC :1.47533: AVG IPC :1.50681: L2-Pf-HR :0.71632: L2-HR :0.61276: (Sim:0h8m16s) 
CPU  0 inst:  195000003 cyc:  129065816 now IPC :1.51186: AVG IPC :1.50683: L2-Pf-HR :0.71551: L2-HR :0.61224: (Sim:0h8m18s) 
CPU  0 inst:  196000000 cyc:  129732748 now IPC :1.49940: AVG IPC :1.50679: L2-Pf-HR :0.71473: L2-HR :0.61173: (Sim:0h8m21s) 
CPU  0 inst:  197000003 cyc:  130390128 now IPC :1.52119: AVG IPC :1.50687: L2-Pf-HR :0.71386: L2-HR :0.61114: (Sim:0h8m23s) 
CPU  0 inst:  198000001 cyc:  131063109 now IPC :1.48592: AVG IPC :1.50676: L2-Pf-HR :0.71283: L2-HR :0.61049: (Sim:0h8m26s) 
CPU  0 inst:  199000003 cyc:  131726746 now IPC :1.50685: AVG IPC :1.50676: L2-Pf-HR :0.71180: L2-HR :0.60987: (Sim:0h8m28s) 
CPU  0 inst:  200000000 cyc:  132375260 now IPC :1.54198: AVG IPC :1.50693: L2-Pf-HR :0.71088: L2-HR :0.60933: (Sim:0h8m31s) 
CPU  0 inst:  201000000 cyc:  133034190 now IPC :1.51761: AVG IPC :1.50699: L2-Pf-HR :0.71017: L2-HR :0.60889: (Sim:0h8m34s) 
CPU  0 inst:  202000003 cyc:  133939764 now IPC :1.10428: AVG IPC :1.50424: L2-Pf-HR :0.70911: L2-HR :0.60797: (Sim:0h8m36s) 
CPU  0 inst:  203000001 cyc:  134557368 now IPC :1.61916: AVG IPC :1.50477: L2-Pf-HR :0.70823: L2-HR :0.60747: (Sim:0h8m39s) 
CPU  0 inst:  204000000 cyc:  135181804 now IPC :1.60144: AVG IPC :1.50522: L2-Pf-HR :0.70725: L2-HR :0.60690: (Sim:0h8m41s) 
CPU  0 inst:  205000002 cyc:  135821808 now IPC :1.56249: AVG IPC :1.50550: L2-Pf-HR :0.70612: L2-HR :0.60625: (Sim:0h8m44s) 
CPU  0 inst:  206000001 cyc:  136436712 now IPC :1.62627: AVG IPC :1.50604: L2-Pf-HR :0.70488: L2-HR :0.60561: (Sim:0h8m46s) 
CPU  0 inst:  207000002 cyc:  137046061 now IPC :1.64110: AVG IPC :1.50665: L2-Pf-HR :0.70388: L2-HR :0.60508: (Sim:0h8m49s) 
CPU  0 inst:  208000000 cyc:  137651550 now IPC :1.65155: AVG IPC :1.50729: L2-Pf-HR :0.70304: L2-HR :0.60464: (Sim:0h8m51s) 
CPU  0 inst:  209000003 cyc:  138300825 now IPC :1.54018: AVG IPC :1.50745: L2-Pf-HR :0.70224: L2-HR :0.60415: (Sim:0h8m54s) 
CPU  0 inst:  210000001 cyc:  138917777 now IPC :1.62087: AVG IPC :1.50795: L2-Pf-HR :0.70149: L2-HR :0.60370: (Sim:0h8m56s) 
CPU  0 inst:  211000001 cyc:  139528009 now IPC :1.63872: AVG IPC :1.50853: L2-Pf-HR :0.70055: L2-HR :0.60317: (Sim:0h8m59s) 
CPU  0 inst:  212000000 cyc:  140127750 now IPC :1.66738: AVG IPC :1.50921: L2-Pf-HR :0.69963: L2-HR :0.60269: (Sim:0h9m1s) 
CPU  0 inst:  213000000 cyc:  140736321 now IPC :1.64319: AVG IPC :1.50980: L2-Pf-HR :0.69883: L2-HR :0.60225: (Sim:0h9m4s) 
CPU  0 inst:  214000002 cyc:  141513292 now IPC :1.28705: AVG IPC :1.50857: L2-Pf-HR :0.69981: L2-HR :0.60275: (Sim:0h9m6s) 
CPU  0 inst:  215000002 cyc:  142111348 now IPC :1.67208: AVG IPC :1.50926: L2-Pf-HR :0.70188: L2-HR :0.60406: (Sim:0h9m9s) 
CPU  0 inst:  216000000 cyc:  142741762 now IPC :1.58626: AVG IPC :1.50960: L2-Pf-HR :0.70350: L2-HR :0.60509: (Sim:0h9m11s) 
CPU  0 inst:  217000000 cyc:  143359340 now IPC :1.61923: AVG IPC :1.51008: L2-Pf-HR :0.70520: L2-HR :0.60621: (Sim:0h9m14s) 
CPU  0 inst:  218000003 cyc:  143950246 now IPC :1.69232: AVG IPC :1.51083: L2-Pf-HR :0.70681: L2-HR :0.60728: (Sim:0h9m16s) 
CPU  0 inst:  219000003 cyc:  144531019 now IPC :1.72184: AVG IPC :1.51168: L2-Pf-HR :0.70981: L2-HR :0.60919: (Sim:0h9m19s) 
CPU  0 inst:  220000000 cyc:  145097298 now IPC :1.76591: AVG IPC :1.51268: L2-Pf-HR :0.71450: L2-HR :0.61224: (Sim:0h9m21s) 
CPU  0 inst:  221000000 cyc:  145731757 now IPC :1.57615: AVG IPC :1.51296: L2-Pf-HR :0.71904: L2-HR :0.61522: (Sim:0h9m24s) 
CPU  0 inst:  222000000 cyc:  146625488 now IPC :1.11890: AVG IPC :1.51054: L2-Pf-HR :0.71828: L2-HR :0.61450: (Sim:0h9m27s) 
CPU  0 inst:  223000003 cyc:  147292112 now IPC :1.50010: AVG IPC :1.51050: L2-Pf-HR :0.71750: L2-HR :0.61396: (Sim:0h9m29s) 
CPU  0 inst:  224000000 cyc:  147997238 now IPC :1.41818: AVG IPC :1.51005: L2-Pf-HR :0.71684: L2-HR :0.61344: (Sim:0h9m32s) 
CPU  0 inst:  225000003 cyc:  148695738 now IPC :1.43164: AVG IPC :1.50968: L2-Pf-HR :0.71613: L2-HR :0.61293: (Sim:0h9m34s) 
CPU  0 inst:  226000002 cyc:  149402285 now IPC :1.41533: AVG IPC :1.50923: L2-Pf-HR :0.71542: L2-HR :0.61244: (Sim:0h9m37s) 
CPU  0 inst:  227000001 cyc:  150115764 now IPC :1.40158: AVG IPC :1.50872: L2-Pf-HR :0.71472: L2-HR :0.61198: (Sim:0h9m40s) 
CPU  0 inst:  228000000 cyc:  150817499 now IPC :1.42504: AVG IPC :1.50833: L2-Pf-HR :0.71400: L2-HR :0.61152: (Sim:0h9m42s) 
CPU  0 inst:  229000000 cyc:  151518355 now IPC :1.42683: AVG IPC :1.50795: L2-Pf-HR :0.71332: L2-HR :0.61102: (Sim:0h9m45s) 
CPU  0 inst:  230000000 cyc:  152224537 now IPC :1.41607: AVG IPC :1.50752: L2-Pf-HR :0.71275: L2-HR :0.61059: (Sim:0h9m48s) 
CPU  0 inst:  231000001 cyc:  152870495 now IPC :1.54809: AVG IPC :1.50769: L2-Pf-HR :0.71183: L2-HR :0.61006: (Sim:0h9m50s) 
CPU  0 inst:  232000000 cyc:  153518563 now IPC :1.54305: AVG IPC :1.50784: L2-Pf-HR :0.71115: L2-HR :0.60964: (Sim:0h9m53s) 
CPU  0 inst:  233000000 cyc:  154258364 now IPC :1.35171: AVG IPC :1.50709: L2-Pf-HR :0.71039: L2-HR :0.60908: (Sim:0h9m55s) 
CPU  0 inst:  234000002 cyc:  155049490 now IPC :1.26402: AVG IPC :1.50584: L2-Pf-HR :0.70956: L2-HR :0.60844: (Sim:0h9m58s) 
CPU  0 inst:  235000000 cyc:  155653622 now IPC :1.65526: AVG IPC :1.50642: L2-Pf-HR :0.70877: L2-HR :0.60798: (Sim:0h10m0s) 
CPU  0 inst:  236000000 cyc:  156266187 now IPC :1.63248: AVG IPC :1.50692: L2-Pf-HR :0.70807: L2-HR :0.60753: (Sim:0h10m3s) 
CPU  0 inst:  237000001 cyc:  156876241 now IPC :1.63920: AVG IPC :1.50744: L2-Pf-HR :0.70736: L2-HR :0.60710: (Sim:0h10m6s) 
CPU  0 inst:  238000000 cyc:  157477010 now IPC :1.66453: AVG IPC :1.50804: L2-Pf-HR :0.70664: L2-HR :0.60669: (Sim:0h10m8s) 
CPU  0 inst:  239000000 cyc:  158098043 now IPC :1.61022: AVG IPC :1.50844: L2-Pf-HR :0.70591: L2-HR :0.60629: (Sim:0h10m11s) 
CPU  0 inst:  240000000 cyc:  158762476 now IPC :1.50504: AVG IPC :1.50843: L2-Pf-HR :0.70521: L2-HR :0.60590: (Sim:0h10m13s) 
CPU  0 inst:  241000003 cyc:  159395837 now IPC :1.57888: AVG IPC :1.50871: L2-Pf-HR :0.70449: L2-HR :0.60546: (Sim:0h10m16s) 
CPU  0 inst:  242000003 cyc:  160003879 now IPC :1.64462: AVG IPC :1.50923: L2-Pf-HR :0.70384: L2-HR :0.60507: (Sim:0h10m18s) 
CPU  0 inst:  243000001 cyc:  160603064 now IPC :1.66893: AVG IPC :1.50983: L2-Pf-HR :0.70318: L2-HR :0.60471: (Sim:0h10m21s) 
CPU  0 inst:  244000000 cyc:  161201744 now IPC :1.67034: AVG IPC :1.51043: L2-Pf-HR :0.70250: L2-HR :0.60434: (Sim:0h10m23s) 
CPU  0 inst:  245000001 cyc:  161999300 now IPC :1.25383: AVG IPC :1.50916: L2-Pf-HR :0.70193: L2-HR :0.60385: (Sim:0h10m26s) 
CPU  0 inst:  246000001 cyc:  162581950 now IPC :1.71630: AVG IPC :1.50991: L2-Pf-HR :0.70342: L2-HR :0.60490: (Sim:0h10m28s) 
CPU  0 inst:  247000001 cyc:  163180940 now IPC :1.66948: AVG IPC :1.51050: L2-Pf-HR :0.70483: L2-HR :0.60580: (Sim:0h10m31s) 
CPU  0 inst:  248000000 cyc:  163797906 now IPC :1.62083: AVG IPC :1.51091: L2-Pf-HR :0.70641: L2-HR :0.60682: (Sim:0h10m34s) 
CPU  0 inst:  249000002 cyc:  164418736 now IPC :1.61075: AVG IPC :1.51129: L2-Pf-HR :0.70774: L2-HR :0.60772: (Sim:0h10m36s) 
CPU  0 inst:  250000002 cyc:  165005091 now IPC :1.70545: AVG IPC :1.51199: L2-Pf-HR :0.70917: L2-HR :0.60865: (Sim:0h10m39s) 
CPU  0 inst:  251000002 cyc:  165577033 now IPC :1.74843: AVG IPC :1.51281: L2-Pf-HR :0.71292: L2-HR :0.61107: (Sim:0h10m42s) 
CPU  0 inst:  252000000 cyc:  166164416 now IPC :1.70246: AVG IPC :1.51348: L2-Pf-HR :0.71693: L2-HR :0.61369: (Sim:0h10m47s) 
CPU  0 inst:  253000000 cyc:  167061658 now IPC :1.11453: AVG IPC :1.51133: L2-Pf-HR :0.71890: L2-HR :0.61479: (Sim:0h10m51s) 
CPU  0 inst:  254000000 cyc:  167701007 now IPC :1.56409: AVG IPC :1.51153: L2-Pf-HR :0.71815: L2-HR :0.61431: (Sim:0h10m55s) 
CPU  0 inst:  255000001 cyc:  168394383 now IPC :1.44222: AVG IPC :1.51124: L2-Pf-HR :0.71752: L2-HR :0.61385: (Sim:0h10m59s) 
CPU  0 inst:  256000000 cyc:  169089766 now IPC :1.43806: AVG IPC :1.51094: L2-Pf-HR :0.71684: L2-HR :0.61336: (Sim:0h11m4s) 
CPU  0 inst:  257000001 cyc:  169793765 now IPC :1.42046: AVG IPC :1.51056: L2-Pf-HR :0.71590: L2-HR :0.61278: (Sim:0h11m8s) 
CPU  0 inst:  258000000 cyc:  170510955 now IPC :1.39433: AVG IPC :1.51007: L2-Pf-HR :0.71518: L2-HR :0.61231: (Sim:0h11m12s) 
CPU  0 inst:  259000002 cyc:  171182409 now IPC :1.48931: AVG IPC :1.50999: L2-Pf-HR :0.71453: L2-HR :0.61191: (Sim:0h11m16s) 
CPU  0 inst:  260000000 cyc:  171877646 now IPC :1.43836: AVG IPC :1.50970: L2-Pf-HR :0.71395: L2-HR :0.61150: (Sim:0h11m21s) 
CPU  0 inst:  261000000 cyc:  172575009 now IPC :1.43397: AVG IPC :1.50939: L2-Pf-HR :0.71334: L2-HR :0.61106: (Sim:0h11m25s) 
CPU  0 inst:  262000001 cyc:  173242757 now IPC :1.49757: AVG IPC :1.50934: L2-Pf-HR :0.71276: L2-HR :0.61068: (Sim:0h11m29s) 
CPU  0 inst:  263000003 cyc:  173952118 now IPC :1.40972: AVG IPC :1.50894: L2-Pf-HR :0.71198: L2-HR :0.61022: (Sim:0h11m33s) 
CPU  0 inst:  264000000 cyc:  174624803 now IPC :1.48658: AVG IPC :1.50885: L2-Pf-HR :0.71138: L2-HR :0.60985: (Sim:0h11m38s) 
CPU  0 inst:  265000000 cyc:  175546356 now IPC :1.08512: AVG IPC :1.50661: L2-Pf-HR :0.71069: L2-HR :0.60920: (Sim:0h11m42s) 
CPU  0 inst:  266000002 cyc:  176150056 now IPC :1.65646: AVG IPC :1.50713: L2-Pf-HR :0.71001: L2-HR :0.60881: (Sim:0h11m46s) 
CPU  0 inst:  267000002 cyc:  176761944 now IPC :1.63429: AVG IPC :1.50757: L2-Pf-HR :0.70934: L2-HR :0.60840: (Sim:0h11m51s) 
CPU  0 inst:  268000000 cyc:  177390409 now IPC :1.59118: AVG IPC :1.50787: L2-Pf-HR :0.70874: L2-HR :0.60801: (Sim:0h11m55s) 
CPU  0 inst:  269000001 cyc:  178007126 now IPC :1.62149: AVG IPC :1.50826: L2-Pf-HR :0.70808: L2-HR :0.60762: (Sim:0h11m59s) 
CPU  0 inst:  270000001 cyc:  178610945 now IPC :1.65613: AVG IPC :1.50877: L2-Pf-HR :0.70744: L2-HR :0.60728: (Sim:0h12m3s) 
CPU  0 inst:  271000000 cyc:  179228733 now IPC :1.61868: AVG IPC :1.50915: L2-Pf-HR :0.70682: L2-HR :0.60695: (Sim:0h12m7s) 
CPU  0 inst:  272000000 cyc:  179867648 now IPC :1.56515: AVG IPC :1.50935: L2-Pf-HR :0.70617: L2-HR :0.60656: (Sim:0h12m12s) 
CPU  0 inst:  273000000 cyc:  180480325 now IPC :1.63218: AVG IPC :1.50977: L2-Pf-HR :0.70557: L2-HR :0.60619: (Sim:0h12m16s) 
CPU  0 inst:  274000002 cyc:  181100280 now IPC :1.61302: AVG IPC :1.51012: L2-Pf-HR :0.70503: L2-HR :0.60587: (Sim:0h12m20s) 
CPU  0 inst:  275000002 cyc:  181698956 now IPC :1.67035: AVG IPC :1.51065: L2-Pf-HR :0.70438: L2-HR :0.60550: (Sim:0h12m24s) 
CPU  0 inst:  276000000 cyc:  182307763 now IPC :1.64255: AVG IPC :1.51110: L2-Pf-HR :0.70380: L2-HR :0.60518: (Sim:0h12m28s) 
CPU  0 inst:  277000001 cyc:  183092278 now IPC :1.27467: AVG IPC :1.51008: L2-Pf-HR :0.70409: L2-HR :0.60529: (Sim:0h12m33s) 
CPU  0 inst:  278000003 cyc:  183688608 now IPC :1.67693: AVG IPC :1.51062: L2-Pf-HR :0.70526: L2-HR :0.60608: (Sim:0h12m37s) 
CPU  0 inst:  279000001 cyc:  184284596 now IPC :1.67788: AVG IPC :1.51117: L2-Pf-HR :0.70661: L2-HR :0.60694: (Sim:0h12m41s) 
CPU  0 inst:  280000000 cyc:  184894230 now IPC :1.64033: AVG IPC :1.51159: L2-Pf-HR :0.70779: L2-HR :0.60772: (Sim:0h12m45s) 
CPU  0 inst:  281000002 cyc:  185504025 now IPC :1.63990: AVG IPC :1.51202: L2-Pf-HR :0.70917: L2-HR :0.60864: (Sim:0h12m49s) 
CPU  0 inst:  282000002 cyc:  186088071 now IPC :1.71219: AVG IPC :1.51265: L2-Pf-HR :0.71108: L2-HR :0.60986: (Sim:0h12m54s) 
CPU  0 inst:  283000000 cyc:  186655370 now IPC :1.76274: AVG IPC :1.51341: L2-Pf-HR :0.71481: L2-HR :0.61228: (Sim:0h12m58s) 
CPU  0 inst:  284000000 cyc:  187220253 now IPC :1.77028: AVG IPC :1.51419: L2-Pf-HR :0.71834: L2-HR :0.61459: (Sim:0h13m2s) 
CPU  0 inst:  285000002 cyc:  188125637 now IPC :1.10451: AVG IPC :1.51221: L2-Pf-HR :0.71819: L2-HR :0.61434: (Sim:0h13m6s) 
CPU  0 inst:  286000000 cyc:  188790467 now IPC :1.50414: AVG IPC :1.51218: L2-Pf-HR :0.71762: L2-HR :0.61394: (Sim:0h13m11s) 
CPU  0 inst:  287000000 cyc:  189477229 now IPC :1.45611: AVG IPC :1.51198: L2-Pf-HR :0.71704: L2-HR :0.61352: (Sim:0h13m15s) 
CPU  0 inst:  288000000 cyc:  190191005 now IPC :1.40100: AVG IPC :1.51156: L2-Pf-HR :0.71653: L2-HR :0.61312: (Sim:0h13m19s) 
CPU  0 inst:  289000003 cyc:  190869794 now IPC :1.47322: AVG IPC :1.51142: L2-Pf-HR :0.71598: L2-HR :0.61274: (Sim:0h13m23s) 
CPU  0 inst:  290000002 cyc:  191514182 now IPC :1.55186: AVG IPC :1.51156: L2-Pf-HR :0.71541: L2-HR :0.61238: (Sim:0h13m28s) 
CPU  0 inst:  291000000 cyc:  192199343 now IPC :1.45951: AVG IPC :1.51137: L2-Pf-HR :0.71488: L2-HR :0.61203: (Sim:0h13m32s) 
CPU  0 inst:  292000000 cyc:  192872565 now IPC :1.48539: AVG IPC :1.51128: L2-Pf-HR :0.71429: L2-HR :0.61162: (Sim:0h13m36s) 
CPU  0 inst:  293000001 cyc:  193569297 now IPC :1.43527: AVG IPC :1.51101: L2-Pf-HR :0.71362: L2-HR :0.61119: (Sim:0h13m40s) 
CPU  0 inst:  294000003 cyc:  194225907 now IPC :1.52298: AVG IPC :1.51105: L2-Pf-HR :0.71291: L2-HR :0.61077: (Sim:0h13m44s) 
CPU  0 inst:  295000003 cyc:  194866352 now IPC :1.56141: AVG IPC :1.51121: L2-Pf-HR :0.71231: L2-HR :0.61041: (Sim:0h13m48s) 
CPU  0 inst:  296000000 cyc:  195551919 now IPC :1.45864: AVG IPC :1.51103: L2-Pf-HR :0.71181: L2-HR :0.61008: (Sim:0h13m53s) 
CPU  0 inst:  297000003 cyc:  196423065 now IPC :1.14792: AVG IPC :1.50941: L2-Pf-HR :0.71114: L2-HR :0.60949: (Sim:0h13m57s) 
CPU  0 inst:  298000003 cyc:  197025247 now IPC :1.66063: AVG IPC :1.50987: L2-Pf-HR :0.71054: L2-HR :0.60914: (Sim:0h14m1s) 
CPU  0 inst:  299000002 cyc:  197638223 now IPC :1.63138: AVG IPC :1.51025: L2-Pf-HR :0.70998: L2-HR :0.60879: (Sim:0h14m5s) 
CPU  0 inst:  300000000 cyc:  198253839 now IPC :1.62439: AVG IPC :1.51061: L2-Pf-HR :0.70939: L2-HR :0.60843: (Sim:0h14m10s) 
CPU  0 inst:  301000002 cyc:  198857622 now IPC :1.65623: AVG IPC :1.51105: L2-Pf-HR :0.70884: L2-HR :0.60812: (Sim:0h14m14s) 
CPU  0 inst:  302000001 cyc:  199493171 now IPC :1.57344: AVG IPC :1.51125: L2-Pf-HR :0.70829: L2-HR :0.60781: (Sim:0h14m18s) 
CPU  0 inst:  303000000 cyc:  200155420 now IPC :1.51000: AVG IPC :1.51125: L2-Pf-HR :0.70769: L2-HR :0.60748: (Sim:0h14m22s) 
CPU  0 inst:  304000000 cyc:  200791179 now IPC :1.57292: AVG IPC :1.51145: L2-Pf-HR :0.70714: L2-HR :0.60714: (Sim:0h14m26s) 
CPU  0 inst:  305000002 cyc:  201398886 now IPC :1.64553: AVG IPC :1.51185: L2-Pf-HR :0.70664: L2-HR :0.60684: (Sim:0h14m31s) 
CPU  0 inst:  306000000 cyc:  202000475 now IPC :1.66226: AVG IPC :1.51230: L2-Pf-HR :0.70602: L2-HR :0.60649: (Sim:0h14m35s) 
CPU  0 inst:  307000001 cyc:  202603609 now IPC :1.65801: AVG IPC :1.51274: L2-Pf-HR :0.70547: L2-HR :0.60619: (Sim:0h14m39s) 
CPU  0 inst:  308000000 cyc:  203366121 now IPC :1.31145: AVG IPC :1.51198: L2-Pf-HR :0.70487: L2-HR :0.60570: (Sim:0h14m43s) 
CPU  0 inst:  309000000 cyc:  203979881 now IPC :1.62930: AVG IPC :1.51233: L2-Pf-HR :0.70604: L2-HR :0.60652: (Sim:0h14m47s) 
CPU  0 inst:  310000003 cyc:  204576675 now IPC :1.67563: AVG IPC :1.51281: L2-Pf-HR :0.70737: L2-HR :0.60738: (Sim:0h14m51s) 
CPU  0 inst:  311000000 cyc:  205186139 now IPC :1.64078: AVG IPC :1.51320: L2-Pf-HR :0.70845: L2-HR :0.60808: (Sim:0h14m56s) 
CPU  0 inst:  312000000 cyc:  205800122 now IPC :1.62871: AVG IPC :1.51354: L2-Pf-HR :0.70966: L2-HR :0.60889: (Sim:0h15m0s) 
CPU  0 inst:  313000001 cyc:  206388795 now IPC :1.69874: AVG IPC :1.51407: L2-Pf-HR :0.71070: L2-HR :0.60959: (Sim:0h15m4s) 
CPU  0 inst:  314000003 cyc:  206961602 now IPC :1.74579: AVG IPC :1.51472: L2-Pf-HR :0.71349: L2-HR :0.61138: (Sim:0h15m8s) 
CPU  0 inst:  315000000 cyc:  207544335 now IPC :1.71605: AVG IPC :1.51528: L2-Pf-HR :0.71668: L2-HR :0.61347: (Sim:0h15m12s) 
CPU  0 inst:  316000000 cyc:  208409618 now IPC :1.15569: AVG IPC :1.51378: L2-Pf-HR :0.71875: L2-HR :0.61467: (Sim:0h15m17s) 
CPU  0 inst:  317000000 cyc:  209082011 now IPC :1.48723: AVG IPC :1.51370: L2-Pf-HR :0.71817: L2-HR :0.61430: (Sim:0h15m21s) 
CPU  0 inst:  318000003 cyc:  209747797 now IPC :1.50199: AVG IPC :1.51366: L2-Pf-HR :0.71761: L2-HR :0.61392: (Sim:0h15m25s) 
CPU  0 inst:  319000001 cyc:  210466205 now IPC :1.39196: AVG IPC :1.51324: L2-Pf-HR :0.71717: L2-HR :0.61355: (Sim:0h15m29s) 
CPU  0 inst:  320000000 cyc:  211175725 now IPC :1.40940: AVG IPC :1.51289: L2-Pf-HR :0.71667: L2-HR :0.61319: (Sim:0h15m34s) 
CPU  0 inst:  321000002 cyc:  211823045 now IPC :1.54483: AVG IPC :1.51299: L2-Pf-HR :0.71618: L2-HR :0.61287: (Sim:0h15m38s) 
CPU  0 inst:  322000000 cyc:  212521339 now IPC :1.43206: AVG IPC :1.51272: L2-Pf-HR :0.71571: L2-HR :0.61255: (Sim:0h15m42s) 
CPU  0 inst:  323000002 cyc:  213186463 now IPC :1.50348: AVG IPC :1.51270: L2-Pf-HR :0.71519: L2-HR :0.61221: (Sim:0h15m46s) 
CPU  0 inst:  324000000 cyc:  213907078 now IPC :1.38770: AVG IPC :1.51227: L2-Pf-HR :0.71470: L2-HR :0.61185: (Sim:0h15m51s) 
CPU  0 inst:  325000002 cyc:  214612684 now IPC :1.41722: AVG IPC :1.51196: L2-Pf-HR :0.71423: L2-HR :0.61153: (Sim:0h15m55s) 
CPU  0 inst:  326000002 cyc:  215254140 now IPC :1.55895: AVG IPC :1.51210: L2-Pf-HR :0.71360: L2-HR :0.61116: (Sim:0h15m59s) 
CPU  0 inst:  327000000 cyc:  215908841 now IPC :1.52741: AVG IPC :1.51215: L2-Pf-HR :0.71317: L2-HR :0.61089: (Sim:0h16m3s) 
CPU  0 inst:  328000000 cyc:  216826747 now IPC :1.08944: AVG IPC :1.51035: L2-Pf-HR :0.71257: L2-HR :0.61034: (Sim:0h16m8s) 
CPU  0 inst:  329000001 cyc:  217430393 now IPC :1.65660: AVG IPC :1.51076: L2-Pf-HR :0.71200: L2-HR :0.61002: (Sim:0h16m13s) 
CPU  0 inst:  330000003 cyc:  218042558 now IPC :1.63355: AVG IPC :1.51110: L2-Pf-HR :0.71145: L2-HR :0.60969: (Sim:0h16m17s) 
CPU  0 inst:  331000003 cyc:  218654737 now IPC :1.63351: AVG IPC :1.51145: L2-Pf-HR :0.71076: L2-HR :0.60929: (Sim:0h16m21s) 
CPU  0 inst:  332000000 cyc:  219297117 now IPC :1.55671: AVG IPC :1.51158: L2-Pf-HR :0.71001: L2-HR :0.60889: (Sim:0h16m25s) 
CPU  0 inst:  333000002 cyc:  219900099 now IPC :1.65843: AVG IPC :1.51198: L2-Pf-HR :0.70933: L2-HR :0.60854: (Sim:0h16m30s) 
CPU  0 inst:  334000001 cyc:  220503154 now IPC :1.65822: AVG IPC :1.51239: L2-Pf-HR :0.70881: L2-HR :0.60825: (Sim:0h16m34s) 
CPU  0 inst:  335000000 cyc:  221136618 now IPC :1.57862: AVG IPC :1.51258: L2-Pf-HR :0.70830: L2-HR :0.60795: (Sim:0h16m38s) 
CPU  0 inst:  336000000 cyc:  221743754 now IPC :1.64708: AVG IPC :1.51295: L2-Pf-HR :0.70781: L2-HR :0.60765: (Sim:0h16m43s) 
CPU  0 inst:  337000000 cyc:  222354806 now IPC :1.63652: AVG IPC :1.51329: L2-Pf-HR :0.70729: L2-HR :0.60734: (Sim:0h16m47s) 
CPU  0 inst:  338000003 cyc:  222953637 now IPC :1.66993: AVG IPC :1.51371: L2-Pf-HR :0.70665: L2-HR :0.60701: (Sim:0h16m51s) 
CPU  0 inst:  339000002 cyc:  223556269 now IPC :1.65939: AVG IPC :1.51410: L2-Pf-HR :0.70617: L2-HR :0.60674: (Sim:0h16m55s) 
CPU  0 inst:  340000000 cyc:  224343545 now IPC :1.27020: AVG IPC :1.51324: L2-Pf-HR :0.70624: L2-HR :0.60672: (Sim:0h17m0s) 
CPU  0 inst:  341000002 cyc:  224931407 now IPC :1.70108: AVG IPC :1.51374: L2-Pf-HR :0.70764: L2-HR :0.60763: (Sim:0h17m4s) 
CPU  0 inst:  342000002 cyc:  225546341 now IPC :1.62619: AVG IPC :1.51405: L2-Pf-HR :0.70858: L2-HR :0.60823: (Sim:0h17m8s) 
CPU  0 inst:  343000000 cyc:  226159182 now IPC :1.63174: AVG IPC :1.51437: L2-Pf-HR :0.70961: L2-HR :0.60892: (Sim:0h17m12s) 
CPU  0 inst:  344000000 cyc:  226752132 now IPC :1.68648: AVG IPC :1.51482: L2-Pf-HR :0.71058: L2-HR :0.60958: (Sim:0h17m17s) 
CPU  0 inst:  345000003 cyc:  227334964 now IPC :1.71577: AVG IPC :1.51534: L2-Pf-HR :0.71191: L2-HR :0.61044: (Sim:0h17m20s) 
CPU  0 inst:  346000000 cyc:  227899944 now IPC :1.76997: AVG IPC :1.51597: L2-Pf-HR :0.71489: L2-HR :0.61238: (Sim:0h17m23s) 
CPU  0 inst:  347000002 cyc:  228475503 now IPC :1.73744: AVG IPC :1.51653: L2-Pf-HR :0.71779: L2-HR :0.61429: (Sim:0h17m26s) 
CPU  0 inst:  348000000 cyc:  229375506 now IPC :1.11111: AVG IPC :1.51493: L2-Pf-HR :0.71811: L2-HR :0.61437: (Sim:0h17m29s) 
CPU  0 inst:  349000002 cyc:  230026706 now IPC :1.53563: AVG IPC :1.51499: L2-Pf-HR :0.71759: L2-HR :0.61403: (Sim:0h17m32s) 
CPU  0 inst:  350000001 cyc:  230737289 now IPC :1.40729: AVG IPC :1.51466: L2-Pf-HR :0.71715: L2-HR :0.61369: (Sim:0h17m36s) 
CPU  0 inst:  351000003 cyc:  231455191 now IPC :1.39295: AVG IPC :1.51428: L2-Pf-HR :0.71672: L2-HR :0.61336: (Sim:0h17m40s) 
CPU  0 inst:  352000000 cyc:  232121187 now IPC :1.50151: AVG IPC :1.51424: L2-Pf-HR :0.71624: L2-HR :0.61304: (Sim:0h17m44s) 
CPU  0 inst:  353000003 cyc:  232795995 now IPC :1.48191: AVG IPC :1.51415: L2-Pf-HR :0.71580: L2-HR :0.61275: (Sim:0h17m49s) 
CPU  0 inst:  354000003 cyc:  233479380 now IPC :1.46330: AVG IPC :1.51400: L2-Pf-HR :0.71533: L2-HR :0.61246: (Sim:0h17m53s) 
CPU  0 inst:  355000000 cyc:  234170809 now IPC :1.44628: AVG IPC :1.51380: L2-Pf-HR :0.71490: L2-HR :0.61213: (Sim:0h17m58s) 
CPU  0 inst:  356000000 cyc:  234906253 now IPC :1.35972: AVG IPC :1.51331: L2-Pf-HR :0.71451: L2-HR :0.61184: (Sim:0h18m2s) 
CPU  0 inst:  357000001 cyc:  235559910 now IPC :1.52986: AVG IPC :1.51336: L2-Pf-HR :0.71390: L2-HR :0.61149: (Sim:0h18m6s) 
CPU  0 inst:  358000003 cyc:  236213333 now IPC :1.53041: AVG IPC :1.51341: L2-Pf-HR :0.71347: L2-HR :0.61122: (Sim:0h18m10s) 
CPU  0 inst:  359000002 cyc:  236873367 now IPC :1.51507: AVG IPC :1.51341: L2-Pf-HR :0.71302: L2-HR :0.61095: (Sim:0h18m13s) 
CPU  0 inst:  360000000 cyc:  237779027 now IPC :1.10416: AVG IPC :1.51185: L2-Pf-HR :0.71249: L2-HR :0.61046: (Sim:0h18m16s) 
CPU  0 inst:  361000000 cyc:  238390549 now IPC :1.63526: AVG IPC :1.51216: L2-Pf-HR :0.71200: L2-HR :0.61017: (Sim:0h18m20s) 
CPU  0 inst:  362000000 cyc:  239005500 now IPC :1.62615: AVG IPC :1.51246: L2-Pf-HR :0.71132: L2-HR :0.60979: (Sim:0h18m24s) 
CPU  0 inst:  363000002 cyc:  239631139 now IPC :1.59837: AVG IPC :1.51268: L2-Pf-HR :0.71065: L2-HR :0.60942: (Sim:0h18m29s) 
CPU  0 inst:  364000000 cyc:  240248619 now IPC :1.61948: AVG IPC :1.51296: L2-Pf-HR :0.70996: L2-HR :0.60905: (Sim:0h18m33s) 
CPU  0 inst:  365000001 cyc:  240856689 now IPC :1.64455: AVG IPC :1.51329: L2-Pf-HR :0.70942: L2-HR :0.60876: (Sim:0h18m38s) 
CPU  0 inst:  366000002 cyc:  241516101 now IPC :1.51650: AVG IPC :1.51330: L2-Pf-HR :0.70897: L2-HR :0.60851: (Sim:0h18m42s) 
CPU  0 inst:  367000003 cyc:  242182311 now IPC :1.50103: AVG IPC :1.51327: L2-Pf-HR :0.70851: L2-HR :0.60822: (Sim:0h18m46s) 
CPU  0 inst:  368000000 cyc:  242808005 now IPC :1.59822: AVG IPC :1.51349: L2-Pf-HR :0.70808: L2-HR :0.60795: (Sim:0h18m49s) 
CPU  0 inst:  369000001 cyc:  243422170 now IPC :1.62823: AVG IPC :1.51378: L2-Pf-HR :0.70767: L2-HR :0.60771: (Sim:0h18m53s) 
CPU  0 inst:  370000001 cyc:  244026855 now IPC :1.65375: AVG IPC :1.51413: L2-Pf-HR :0.70722: L2-HR :0.60746: (Sim:0h18m58s) 
CPU  0 inst:  371000001 cyc:  244701728 now IPC :1.48176: AVG IPC :1.51404: L2-Pf-HR :0.70673: L2-HR :0.60713: (Sim:0h19m2s) 
CPU  0 inst:  372000000 cyc:  245411553 now IPC :1.40880: AVG IPC :1.51373: L2-Pf-HR :0.70759: L2-HR :0.60766: (Sim:0h19m6s) 
CPU  0 inst:  373000002 cyc:  246013197 now IPC :1.66212: AVG IPC :1.51410: L2-Pf-HR :0.70870: L2-HR :0.60837: (Sim:0h19m11s) 
CPU  0 inst:  374000000 cyc:  246632307 now IPC :1.61522: AVG IPC :1.51435: L2-Pf-HR :0.70964: L2-HR :0.60898: (Sim:0h19m15s) 
CPU  0 inst:  375000001 cyc:  247262826 now IPC :1.58600: AVG IPC :1.51453: L2-Pf-HR :0.71058: L2-HR :0.60962: (Sim:0h19m17s) 
CPU  0 inst:  376000000 cyc:  247872512 now IPC :1.64019: AVG IPC :1.51484: L2-Pf-HR :0.71146: L2-HR :0.61021: (Sim:0h19m21s) 
CPU  0 inst:  377000003 cyc:  248448387 now IPC :1.73649: AVG IPC :1.51536: L2-Pf-HR :0.71352: L2-HR :0.61154: (Sim:0h19m25s) 
CPU  0 inst:  378000002 cyc:  249019172 now IPC :1.75197: AVG IPC :1.51590: L2-Pf-HR :0.71616: L2-HR :0.61327: (Sim:0h19m29s) 
CPU  0 inst:  379000003 cyc:  249858188 now IPC :1.19187: AVG IPC :1.51481: L2-Pf-HR :0.71830: L2-HR :0.61454: (Sim:0h19m34s) 
CPU  0 inst:  380000000 cyc:  250553003 now IPC :1.43923: AVG IPC :1.51460: L2-Pf-HR :0.71776: L2-HR :0.61420: (Sim:0h19m38s) 
CPU  0 inst:  381000000 cyc:  251226903 now IPC :1.48390: AVG IPC :1.51452: L2-Pf-HR :0.71734: L2-HR :0.61390: (Sim:0h19m42s) 
CPU  0 inst:  382000002 cyc:  251936845 now IPC :1.40857: AVG IPC :1.51422: L2-Pf-HR :0.71695: L2-HR :0.61360: (Sim:0h19m46s) 
CPU  0 inst:  383000001 cyc:  252628992 now IPC :1.44478: AVG IPC :1.51403: L2-Pf-HR :0.71653: L2-HR :0.61330: (Sim:0h19m50s) 
CPU  0 inst:  384000000 cyc:  253301215 now IPC :1.48760: AVG IPC :1.51396: L2-Pf-HR :0.71595: L2-HR :0.61295: (Sim:0h19m53s) 
CPU  0 inst:  385000002 cyc:  253958948 now IPC :1.52038: AVG IPC :1.51397: L2-Pf-HR :0.71551: L2-HR :0.61267: (Sim:0h19m56s) 
CPU  0 inst:  386000002 cyc:  254647027 now IPC :1.45332: AVG IPC :1.51381: L2-Pf-HR :0.71511: L2-HR :0.61240: (Sim:0h19m59s) 
CPU  0 inst:  387000002 cyc:  255367156 now IPC :1.38864: AVG IPC :1.51346: L2-Pf-HR :0.71471: L2-HR :0.61210: (Sim:0h20m2s) 
CPU  0 inst:  388000000 cyc:  256045628 now IPC :1.47390: AVG IPC :1.51335: L2-Pf-HR :0.71432: L2-HR :0.61183: (Sim:0h20m6s) 
CPU  0 inst:  389000003 cyc:  256690503 now IPC :1.55069: AVG IPC :1.51344: L2-Pf-HR :0.71380: L2-HR :0.61153: (Sim:0h20m11s) 
CPU  0 inst:  390000001 cyc:  257330162 now IPC :1.56333: AVG IPC :1.51357: L2-Pf-HR :0.71338: L2-HR :0.61127: (Sim:0h20m15s) 
CPU  0 inst:  391000001 cyc:  258225510 now IPC :1.11688: AVG IPC :1.51219: L2-Pf-HR :0.71294: L2-HR :0.61085: (Sim:0h20m20s) 
CPU  0 inst:  392000000 cyc:  258875009 now IPC :1.53965: AVG IPC :1.51226: L2-Pf-HR :0.71244: L2-HR :0.61056: (Sim:0h20m24s) 
CPU  0 inst:  393000002 cyc:  259497763 now IPC :1.60577: AVG IPC :1.51248: L2-Pf-HR :0.71197: L2-HR :0.61028: (Sim:0h20m28s) 
CPU  0 inst:  394000001 cyc:  260130832 now IPC :1.57961: AVG IPC :1.51265: L2-Pf-HR :0.71157: L2-HR :0.61002: (Sim:0h20m31s) 
CPU  0 inst:  395000002 cyc:  260752797 now IPC :1.60781: AVG IPC :1.51287: L2-Pf-HR :0.71113: L2-HR :0.60975: (Sim:0h20m36s) 
CPU  0 inst:  396000000 cyc:  261378635 now IPC :1.59785: AVG IPC :1.51308: L2-Pf-HR :0.71069: L2-HR :0.60951: (Sim:0h20m39s) 
CPU  0 inst:  397000003 cyc:  261998367 now IPC :1.61361: AVG IPC :1.51332: L2-Pf-HR :0.71027: L2-HR :0.60927: (Sim:0h20m44s) 
CPU  0 inst:  398000001 cyc:  262645465 now IPC :1.54536: AVG IPC :1.51340: L2-Pf-HR :0.70984: L2-HR :0.60902: (Sim:0h20m48s) 
CPU  0 inst:  399000001 cyc:  263261411 now IPC :1.62352: AVG IPC :1.51366: L2-Pf-HR :0.70940: L2-HR :0.60875: (Sim:0h20m53s) 
CPU  0 inst:  400000000 cyc:  263885155 now IPC :1.60322: AVG IPC :1.51387: L2-Pf-HR :0.70904: L2-HR :0.60853: (Sim:0h20m57s) 
CPU  0 inst:  401000002 cyc:  264497866 now IPC :1.63209: AVG IPC :1.51414: L2-Pf-HR :0.70862: L2-HR :0.60829: (Sim:0h21m2s) 
CPU  0 inst:  402000001 cyc:  265107994 now IPC :1.63900: AVG IPC :1.51443: L2-Pf-HR :0.70820: L2-HR :0.60806: (Sim:0h21m6s) 
CPU  0 inst:  403000001 cyc:  265906455 now IPC :1.25241: AVG IPC :1.51364: L2-Pf-HR :0.70806: L2-HR :0.60791: (Sim:0h21m11s) 
CPU  0 inst:  404000000 cyc:  266488330 now IPC :1.71858: AVG IPC :1.51409: L2-Pf-HR :0.70929: L2-HR :0.60872: (Sim:0h21m15s) 
CPU  0 inst:  405000000 cyc:  267088695 now IPC :1.66565: AVG IPC :1.51443: L2-Pf-HR :0.71007: L2-HR :0.60922: (Sim:0h21m19s) 
CPU  0 inst:  406000000 cyc:  267714594 now IPC :1.59770: AVG IPC :1.51463: L2-Pf-HR :0.71094: L2-HR :0.60980: (Sim:0h21m23s) 
CPU  0 inst:  407000003 cyc:  268307607 now IPC :1.68631: AVG IPC :1.51501: L2-Pf-HR :0.71176: L2-HR :0.61036: (Sim:0h21m27s) 
CPU  0 inst:  408000000 cyc:  268896317 now IPC :1.69862: AVG IPC :1.51541: L2-Pf-HR :0.71273: L2-HR :0.61099: (Sim:0h21m32s) 
CPU  0 inst:  409000001 cyc:  269465036 now IPC :1.75834: AVG IPC :1.51593: L2-Pf-HR :0.71519: L2-HR :0.61259: (Sim:0h21m36s) 
CPU  0 inst:  410000002 cyc:  270029144 now IPC :1.77271: AVG IPC :1.51647: L2-Pf-HR :0.71766: L2-HR :0.61421: (Sim:0h21m40s) 
CPU  0 inst:  411000002 cyc:  270914602 now IPC :1.12936: AVG IPC :1.51520: L2-Pf-HR :0.71825: L2-HR :0.61449: (Sim:0h21m43s) 
CPU  0 inst:  412000000 cyc:  271580265 now IPC :1.50226: AVG IPC :1.51516: L2-Pf-HR :0.71784: L2-HR :0.61422: (Sim:0h21m47s) 
CPU  0 inst:  413000002 cyc:  272274654 now IPC :1.44012: AVG IPC :1.51497: L2-Pf-HR :0.71745: L2-HR :0.61392: (Sim:0h21m51s) 
CPU  0 inst:  414000001 cyc:  272964237 now IPC :1.45015: AVG IPC :1.51481: L2-Pf-HR :0.71707: L2-HR :0.61365: (Sim:0h21m55s) 
CPU  0 inst:  415000003 cyc:  273639163 now IPC :1.48165: AVG IPC :1.51473: L2-Pf-HR :0.71656: L2-HR :0.61333: (Sim:0h22m0s) 
CPU  0 inst:  416000000 cyc:  274327022 now IPC :1.45378: AVG IPC :1.51457: L2-Pf-HR :0.71610: L2-HR :0.61304: (Sim:0h22m3s) 
CPU  0 inst:  417000003 cyc:  275049655 now IPC :1.38383: AVG IPC :1.51423: L2-Pf-HR :0.71568: L2-HR :0.61278: (Sim:0h22m7s) 
CPU  0 inst:  418000001 cyc:  275774116 now IPC :1.38033: AVG IPC :1.51387: L2-Pf-HR :0.71530: L2-HR :0.61250: (Sim:0h22m11s) 
CPU  0 inst:  419000002 cyc:  276485067 now IPC :1.40657: AVG IPC :1.51360: L2-Pf-HR :0.71479: L2-HR :0.61217: (Sim:0h22m15s) 
CPU  0 inst:  420000000 cyc:  277169966 now IPC :1.46007: AVG IPC :1.51346: L2-Pf-HR :0.71430: L2-HR :0.61188: (Sim:0h22m20s) 
CPU  0 inst:  421000001 cyc:  277836373 now IPC :1.50059: AVG IPC :1.51343: L2-Pf-HR :0.71388: L2-HR :0.61162: (Sim:0h22m24s) 
CPU  0 inst:  422000003 cyc:  278510997 now IPC :1.48231: AVG IPC :1.51336: L2-Pf-HR :0.71354: L2-HR :0.61141: (Sim:0h22m28s) 
CPU  0 inst:  423000001 cyc:  279424321 now IPC :1.09490: AVG IPC :1.51199: L2-Pf-HR :0.71305: L2-HR :0.61098: (Sim:0h22m33s) 
CPU  0 inst:  424000000 cyc:  280039803 now IPC :1.62474: AVG IPC :1.51223: L2-Pf-HR :0.71262: L2-HR :0.61073: (Sim:0h22m36s) 
CPU  0 inst:  425000002 cyc:  280669994 now IPC :1.58682: AVG IPC :1.51240: L2-Pf-HR :0.71223: L2-HR :0.61048: (Sim:0h22m40s) 
CPU  0 inst:  426000003 cyc:  281300541 now IPC :1.58593: AVG IPC :1.51257: L2-Pf-HR :0.71169: L2-HR :0.61017: (Sim:0h22m44s) 
CPU  0 inst:  427000003 cyc:  281918587 now IPC :1.61800: AVG IPC :1.51280: L2-Pf-HR :0.71110: L2-HR :0.60985: (Sim:0h22m48s) 
CPU  0 inst:  428000000 cyc:  282541406 now IPC :1.60560: AVG IPC :1.51300: L2-Pf-HR :0.71064: L2-HR :0.60961: (Sim:0h22m51s) 
CPU  0 inst:  429000003 cyc:  283168861 now IPC :1.59374: AVG IPC :1.51318: L2-Pf-HR :0.71023: L2-HR :0.60939: (Sim:0h22m54s) 
CPU  0 inst:  430000000 cyc:  283812737 now IPC :1.55309: AVG IPC :1.51328: L2-Pf-HR :0.70983: L2-HR :0.60913: (Sim:0h22m57s) 
CPU  0 inst:  431000000 cyc:  284436932 now IPC :1.60206: AVG IPC :1.51347: L2-Pf-HR :0.70948: L2-HR :0.60892: (Sim:0h23m1s) 
CPU  0 inst:  432000000 cyc:  285063107 now IPC :1.59700: AVG IPC :1.51365: L2-Pf-HR :0.70905: L2-HR :0.60868: (Sim:0h23m4s) 
CPU  0 inst:  433000002 cyc:  285678440 now IPC :1.62514: AVG IPC :1.51390: L2-Pf-HR :0.70861: L2-HR :0.60843: (Sim:0h23m9s) 
CPU  0 inst:  434000003 cyc:  286322111 now IPC :1.55359: AVG IPC :1.51399: L2-Pf-HR :0.70822: L2-HR :0.60821: (Sim:0h23m13s) 
CPU  0 inst:  435000001 cyc:  287075088 now IPC :1.32806: AVG IPC :1.51350: L2-Pf-HR :0.70877: L2-HR :0.60850: (Sim:0h23m17s) 
CPU  0 inst:  436000000 cyc:  287675291 now IPC :1.66610: AVG IPC :1.51382: L2-Pf-HR :0.70966: L2-HR :0.60908: (Sim:0h23m22s) 
CPU  0 inst:  437000003 cyc:  288283217 now IPC :1.64494: AVG IPC :1.51409: L2-Pf-HR :0.71048: L2-HR :0.60961: (Sim:0h23m26s) 
CPU  0 inst:  438000000 cyc:  288896333 now IPC :1.63101: AVG IPC :1.51434: L2-Pf-HR :0.71122: L2-HR :0.61011: (Sim:0h23m30s) 
CPU  0 inst:  439000001 cyc:  289485670 now IPC :1.69682: AVG IPC :1.51471: L2-Pf-HR :0.71206: L2-HR :0.61068: (Sim:0h23m34s) 
CPU  0 inst:  440000000 cyc:  290066961 now IPC :1.72031: AVG IPC :1.51513: L2-Pf-HR :0.71358: L2-HR :0.61166: (Sim:0h23m37s) 
CPU  0 inst:  441000001 cyc:  290634070 now IPC :1.76333: AVG IPC :1.51561: L2-Pf-HR :0.71586: L2-HR :0.61315: (Sim:0h23m40s) 
CPU  0 inst:  442000002 cyc:  291313133 now IPC :1.47262: AVG IPC :1.51551: L2-Pf-HR :0.71801: L2-HR :0.61451: (Sim:0h23m43s) 
CPU  0 inst:  443000003 cyc:  292137007 now IPC :1.21378: AVG IPC :1.51466: L2-Pf-HR :0.71756: L2-HR :0.61416: (Sim:0h23m46s) 
CPU  0 inst:  444000000 cyc:  292812043 now IPC :1.48140: AVG IPC :1.51458: L2-Pf-HR :0.71718: L2-HR :0.61389: (Sim:0h23m49s) 
CPU  0 inst:  445000000 cyc:  293514190 now IPC :1.42420: AVG IPC :1.51437: L2-Pf-HR :0.71684: L2-HR :0.61363: (Sim:0h23m54s) 
CPU  0 inst:  446000002 cyc:  294205808 now IPC :1.44589: AVG IPC :1.51420: L2-Pf-HR :0.71649: L2-HR :0.61338: (Sim:0h23m58s) 
CPU  0 inst:  447000002 cyc:  294852402 now IPC :1.54657: AVG IPC :1.51428: L2-Pf-HR :0.71606: L2-HR :0.61311: (Sim:0h24m2s) 
CPU  0 inst:  448000000 cyc:  295550682 now IPC :1.43209: AVG IPC :1.51408: L2-Pf-HR :0.71572: L2-HR :0.61288: (Sim:0h24m6s) 
CPU  0 inst:  449000001 cyc:  296238413 now IPC :1.45406: AVG IPC :1.51394: L2-Pf-HR :0.71536: L2-HR :0.61264: (Sim:0h24m9s) 
CPU  0 inst:  450000001 cyc:  296908757 now IPC :1.49177: AVG IPC :1.51389: L2-Pf-HR :0.71499: L2-HR :0.61238: (Sim:0h24m12s) 
CPU  0 inst:  451000000 cyc:  297612877 now IPC :1.42021: AVG IPC :1.51367: L2-Pf-HR :0.71453: L2-HR :0.61210: (Sim:0h24m16s) 
CPU  0 inst:  452000000 cyc:  298258454 now IPC :1.54900: AVG IPC :1.51374: L2-Pf-HR :0.71404: L2-HR :0.61181: (Sim:0h24m20s) 
CPU  0 inst:  453000002 cyc:  298910929 now IPC :1.53263: AVG IPC :1.51379: L2-Pf-HR :0.71371: L2-HR :0.61160: (Sim:0h24m24s) 
CPU  0 inst:  454000002 cyc:  299757066 now IPC :1.18184: AVG IPC :1.51285: L2-Pf-HR :0.71333: L2-HR :0.61124: (Sim:0h24m29s) 
CPU  0 inst:  455000002 cyc:  300447685 now IPC :1.44798: AVG IPC :1.51270: L2-Pf-HR :0.71291: L2-HR :0.61099: (Sim:0h24m33s) 
CPU  0 inst:  456000000 cyc:  301070710 now IPC :1.60507: AVG IPC :1.51289: L2-Pf-HR :0.71252: L2-HR :0.61076: (Sim:0h24m37s) 
CPU  0 inst:  457000001 cyc:  301698183 now IPC :1.59370: AVG IPC :1.51306: L2-Pf-HR :0.71216: L2-HR :0.61052: (Sim:0h24m41s) 
CPU  0 inst:  458000003 cyc:  302326108 now IPC :1.59255: AVG IPC :1.51322: L2-Pf-HR :0.71178: L2-HR :0.61029: (Sim:0h24m45s) 
CPU  0 inst:  459000000 cyc:  302935929 now IPC :1.63982: AVG IPC :1.51348: L2-Pf-HR :0.71141: L2-HR :0.61009: (Sim:0h24m50s) 
CPU  0 inst:  460000000 cyc:  303590434 now IPC :1.52787: AVG IPC :1.51351: L2-Pf-HR :0.71103: L2-HR :0.60987: (Sim:0h24m54s) 
CPU  0 inst:  461000000 cyc:  304268814 now IPC :1.47410: AVG IPC :1.51342: L2-Pf-HR :0.71067: L2-HR :0.60966: (Sim:0h24m58s) 
CPU  0 inst:  462000002 cyc:  304919747 now IPC :1.53626: AVG IPC :1.51347: L2-Pf-HR :0.71030: L2-HR :0.60943: (Sim:0h25m2s) 
CPU  0 inst:  463000002 cyc:  305551604 now IPC :1.58264: AVG IPC :1.51361: L2-Pf-HR :0.70997: L2-HR :0.60921: (Sim:0h25m7s) 
CPU  0 inst:  464000000 cyc:  306181120 now IPC :1.58852: AVG IPC :1.51377: L2-Pf-HR :0.70962: L2-HR :0.60902: (Sim:0h25m11s) 
CPU  0 inst:  465000001 cyc:  306810091 now IPC :1.58990: AVG IPC :1.51392: L2-Pf-HR :0.70928: L2-HR :0.60882: (Sim:0h25m16s) 
CPU  0 inst:  466000001 cyc:  307610754 now IPC :1.24896: AVG IPC :1.51323: L2-Pf-HR :0.70904: L2-HR :0.60861: (Sim:0h25m20s) 
CPU  0 inst:  467000001 cyc:  308194927 now IPC :1.71182: AVG IPC :1.51361: L2-Pf-HR :0.71001: L2-HR :0.60926: (Sim:0h25m25s) 
CPU  0 inst:  468000000 cyc:  308803879 now IPC :1.64216: AVG IPC :1.51386: L2-Pf-HR :0.71078: L2-HR :0.60976: (Sim:0h25m29s) 
CPU  0 inst:  469000003 cyc:  309431038 now IPC :1.59450: AVG IPC :1.51403: L2-Pf-HR :0.71146: L2-HR :0.61021: (Sim:0h25m33s) 
CPU  0 inst:  470000002 cyc:  310022918 now IPC :1.68953: AVG IPC :1.51436: L2-Pf-HR :0.71222: L2-HR :0.61073: (Sim:0h25m37s) 
CPU  0 inst:  471000002 cyc:  310629228 now IPC :1.64932: AVG IPC :1.51463: L2-Pf-HR :0.71289: L2-HR :0.61117: (Sim:0h25m41s) 
CPU  0 inst:  472000000 cyc:  311199842 now IPC :1.75249: AVG IPC :1.51507: L2-Pf-HR :0.71495: L2-HR :0.61251: (Sim:0h25m46s) 
CPU  0 inst:  473000000 cyc:  311786184 now IPC :1.70549: AVG IPC :1.51543: L2-Pf-HR :0.71709: L2-HR :0.61391: (Sim:0h25m50s) 
CPU  0 inst:  474000000 cyc:  312691960 now IPC :1.10403: AVG IPC :1.51423: L2-Pf-HR :0.71797: L2-HR :0.61439: (Sim:0h25m55s) 
CPU  0 inst:  475000002 cyc:  313353868 now IPC :1.51079: AVG IPC :1.51422: L2-Pf-HR :0.71759: L2-HR :0.61414: (Sim:0h25m59s) 
CPU  0 inst:  476000000 cyc:  314047975 now IPC :1.44070: AVG IPC :1.51406: L2-Pf-HR :0.71724: L2-HR :0.61389: (Sim:0h26m3s) 
CPU  0 inst:  477000002 cyc:  314762696 now IPC :1.39915: AVG IPC :1.51380: L2-Pf-HR :0.71693: L2-HR :0.61364: (Sim:0h26m8s) 
CPU  0 inst:  478000001 cyc:  315447248 now IPC :1.46081: AVG IPC :1.51368: L2-Pf-HR :0.71658: L2-HR :0.61340: (Sim:0h26m12s) 
CPU  0 inst:  479000003 cyc:  316117557 now IPC :1.49185: AVG IPC :1.51364: L2-Pf-HR :0.71626: L2-HR :0.61319: (Sim:0h26m16s) 
CPU  0 inst:  480000000 cyc:  316843777 now IPC :1.37699: AVG IPC :1.51332: L2-Pf-HR :0.71593: L2-HR :0.61297: (Sim:0h26m21s) 
CPU  0 inst:  481000003 cyc:  317542357 now IPC :1.43148: AVG IPC :1.51314: L2-Pf-HR :0.71560: L2-HR :0.61274: (Sim:0h26m25s) 
CPU  0 inst:  482000002 cyc:  318261428 now IPC :1.39068: AVG IPC :1.51286: L2-Pf-HR :0.71529: L2-HR :0.61251: (Sim:0h26m30s) 
CPU  0 inst:  483000000 cyc:  318931068 now IPC :1.49334: AVG IPC :1.51282: L2-Pf-HR :0.71491: L2-HR :0.61227: (Sim:0h26m34s) 
CPU  0 inst:  484000000 cyc:  319601106 now IPC :1.49245: AVG IPC :1.51278: L2-Pf-HR :0.71455: L2-HR :0.61205: (Sim:0h26m38s) 
CPU  0 inst:  485000000 cyc:  320274334 now IPC :1.48538: AVG IPC :1.51272: L2-Pf-HR :0.71424: L2-HR :0.61186: (Sim:0h26m43s) 
CPU  0 inst:  486000000 cyc:  321190694 now IPC :1.09127: AVG IPC :1.51152: L2-Pf-HR :0.71382: L2-HR :0.61149: (Sim:0h26m47s) 
CPU  0 inst:  487000001 cyc:  321814685 now IPC :1.60259: AVG IPC :1.51169: L2-Pf-HR :0.71345: L2-HR :0.61127: (Sim:0h26m51s) 
CPU  0 inst:  488000000 cyc:  322454250 now IPC :1.56356: AVG IPC :1.51180: L2-Pf-HR :0.71304: L2-HR :0.61102: (Sim:0h26m54s) 
CPU  0 inst:  489000002 cyc:  323096986 now IPC :1.55585: AVG IPC :1.51188: L2-Pf-HR :0.71256: L2-HR :0.61075: (Sim:0h26m58s) 
CPU  0 inst:  490000001 cyc:  323755235 now IPC :1.51918: AVG IPC :1.51190: L2-Pf-HR :0.71209: L2-HR :0.61048: (Sim:0h27m2s) 
CPU  0 inst:  491000000 cyc:  324381870 now IPC :1.59582: AVG IPC :1.51206: L2-Pf-HR :0.71165: L2-HR :0.61025: (Sim:0h27m6s) 
CPU  0 inst:  492000000 cyc:  325008069 now IPC :1.59694: AVG IPC :1.51223: L2-Pf-HR :0.71131: L2-HR :0.61007: (Sim:0h27m11s) 
CPU  0 inst:  493000000 cyc:  325657726 now IPC :1.53927: AVG IPC :1.51228: L2-Pf-HR :0.71096: L2-HR :0.60985: (Sim:0h27m15s) 
CPU  0 inst:  494000000 cyc:  326286008 now IPC :1.59164: AVG IPC :1.51243: L2-Pf-HR :0.71063: L2-HR :0.60964: (Sim:0h27m19s) 
CPU  0 inst:  495000000 cyc:  326973119 now IPC :1.45537: AVG IPC :1.51231: L2-Pf-HR :0.71026: L2-HR :0.60943: (Sim:0h27m23s) 
CPU  0 inst:  496000000 cyc:  327593894 now IPC :1.61089: AVG IPC :1.51250: L2-Pf-HR :0.70986: L2-HR :0.60921: (Sim:0h27m27s) 
CPU  0 inst:  497000003 cyc:  328213965 now IPC :1.61272: AVG IPC :1.51269: L2-Pf-HR :0.70951: L2-HR :0.60901: (Sim:0h27m31s) 
CPU  0 inst:  498000000 cyc:  329003048 now IPC :1.26729: AVG IPC :1.51210: L2-Pf-HR :0.70982: L2-HR :0.60916: (Sim:0h27m34s) 
CPU  0 inst:  499000003 cyc:  329602446 now IPC :1.66835: AVG IPC :1.51239: L2-Pf-HR :0.71068: L2-HR :0.60972: (Sim:0h27m38s) 
CPU  0 inst:  500000000 cyc:  330212974 now IPC :1.63792: AVG IPC :1.51262: L2-Pf-HR :0.71132: L2-HR :0.61013: (Sim:0h27m42s) 
CPU  0 inst:  501000001 cyc:  330814108 now IPC :1.66352: AVG IPC :1.51289: L2-Pf-HR :0.71203: L2-HR :0.61061: (Sim:0h27m47s) 
CPU  0 inst:  502000002 cyc:  331419350 now IPC :1.65223: AVG IPC :1.51315: L2-Pf-HR :0.71267: L2-HR :0.61105: (Sim:0h27m50s) 
CPU  0 inst:  503000001 cyc:  331999880 now IPC :1.72256: AVG IPC :1.51352: L2-Pf-HR :0.71383: L2-HR :0.61181: (Sim:0h27m54s) 
CPU  0 inst:  504000000 cyc:  332565265 now IPC :1.76870: AVG IPC :1.51395: L2-Pf-HR :0.71586: L2-HR :0.61313: (Sim:0h27m59s) 
CPU  0 inst:  505000000 cyc:  333182776 now IPC :1.61940: AVG IPC :1.51415: L2-Pf-HR :0.71790: L2-HR :0.61447: (Sim:0h28m3s) 
CPU  0 inst:  506000003 cyc:  334071125 now IPC :1.12569: AVG IPC :1.51311: L2-Pf-HR :0.71763: L2-HR :0.61420: (Sim:0h28m7s) 
CPU  0 inst:  507000001 cyc:  334734889 now IPC :1.50656: AVG IPC :1.51310: L2-Pf-HR :0.71728: L2-HR :0.61396: (Sim:0h28m12s) 
CPU  0 inst:  508000000 cyc:  335425245 now IPC :1.44853: AVG IPC :1.51296: L2-Pf-HR :0.71698: L2-HR :0.61374: (Sim:0h28m15s) 
CPU  0 inst:  509000000 cyc:  336118585 now IPC :1.44229: AVG IPC :1.51282: L2-Pf-HR :0.71666: L2-HR :0.61351: (Sim:0h28m19s) 
CPU  0 inst:  510000002 cyc:  336779574 now IPC :1.51289: AVG IPC :1.51282: L2-Pf-HR :0.71636: L2-HR :0.61330: (Sim:0h28m22s) 
CPU  0 inst:  511000001 cyc:  337442464 now IPC :1.50854: AVG IPC :1.51281: L2-Pf-HR :0.71605: L2-HR :0.61309: (Sim:0h28m27s) 
CPU  0 inst:  512000000 cyc:  338111914 now IPC :1.49376: AVG IPC :1.51277: L2-Pf-HR :0.71573: L2-HR :0.61289: (Sim:0h28m31s) 
CPU  0 inst:  513000001 cyc:  338796947 now IPC :1.45979: AVG IPC :1.51266: L2-Pf-HR :0.71542: L2-HR :0.61266: (Sim:0h28m35s) 
CPU  0 inst:  514000001 cyc:  339503660 now IPC :1.41500: AVG IPC :1.51246: L2-Pf-HR :0.71514: L2-HR :0.61246: (Sim:0h28m39s) 
CPU  0 inst:  515000002 cyc:  340153944 now IPC :1.53779: AVG IPC :1.51251: L2-Pf-HR :0.71473: L2-HR :0.61222: (Sim:0h28m42s) 
CPU  0 inst:  516000000 cyc:  340840336 now IPC :1.45689: AVG IPC :1.51240: L2-Pf-HR :0.71445: L2-HR :0.61204: (Sim:0h28m47s) 
CPU  0 inst:  517000001 cyc:  341521233 now IPC :1.46865: AVG IPC :1.51231: L2-Pf-HR :0.71413: L2-HR :0.61183: (Sim:0h28m51s) 
CPU  0 inst:  518000003 cyc:  342377021 now IPC :1.16852: AVG IPC :1.51145: L2-Pf-HR :0.71375: L2-HR :0.61150: (Sim:0h28m56s) 
CPU  0 inst:  519000003 cyc:  342980840 now IPC :1.65613: AVG IPC :1.51170: L2-Pf-HR :0.71336: L2-HR :0.61128: (Sim:0h29m0s) 
CPU  0 inst:  520000000 cyc:  343650886 now IPC :1.49243: AVG IPC :1.51167: L2-Pf-HR :0.71291: L2-HR :0.61101: (Sim:0h29m4s) 
CPU  0 inst:  521000000 cyc:  344322048 now IPC :1.48995: AVG IPC :1.51162: L2-Pf-HR :0.71244: L2-HR :0.61075: (Sim:0h29m8s) 
CPU  0 inst:  522000000 cyc:  344991332 now IPC :1.49413: AVG IPC :1.51159: L2-Pf-HR :0.71195: L2-HR :0.61049: (Sim:0h29m12s) 
CPU  0 inst:  523000002 cyc:  345632831 now IPC :1.55885: AVG IPC :1.51168: L2-Pf-HR :0.71162: L2-HR :0.61031: (Sim:0h29m16s) 
CPU  0 inst:  524000000 cyc:  346307829 now IPC :1.48148: AVG IPC :1.51162: L2-Pf-HR :0.71130: L2-HR :0.61012: (Sim:0h29m20s) 
CPU  0 inst:  525000001 cyc:  346943725 now IPC :1.57259: AVG IPC :1.51173: L2-Pf-HR :0.71097: L2-HR :0.60991: (Sim:0h29m25s) 
CPU  0 inst:  526000000 cyc:  347590748 now IPC :1.54554: AVG IPC :1.51179: L2-Pf-HR :0.71070: L2-HR :0.60974: (Sim:0h29m29s) 
CPU  0 inst:  527000001 cyc:  348197237 now IPC :1.64884: AVG IPC :1.51203: L2-Pf-HR :0.71039: L2-HR :0.60956: (Sim:0h29m34s) 
CPU  0 inst:  528000000 cyc:  348800948 now IPC :1.65642: AVG IPC :1.51228: L2-Pf-HR :0.71007: L2-HR :0.60938: (Sim:0h29m38s) 
CPU  0 inst:  529000003 cyc:  349589464 now IPC :1.26821: AVG IPC :1.51173: L2-Pf-HR :0.70974: L2-HR :0.60910: (Sim:0h29m42s) 
CPU  0 inst:  530000002 cyc:  350183218 now IPC :1.68420: AVG IPC :1.51202: L2-Pf-HR :0.71039: L2-HR :0.60957: (Sim:0h29m45s) 
CPU  0 inst:  531000002 cyc:  350784237 now IPC :1.66384: AVG IPC :1.51229: L2-Pf-HR :0.71103: L2-HR :0.60999: (Sim:0h29m50s) 
CPU  0 inst:  532000000 cyc:  351394950 now IPC :1.63743: AVG IPC :1.51250: L2-Pf-HR :0.71168: L2-HR :0.61042: (Sim:0h29m54s) 
CPU  0 inst:  533000000 cyc:  352022155 now IPC :1.59438: AVG IPC :1.51265: L2-Pf-HR :0.71231: L2-HR :0.61085: (Sim:0h29m58s) 
CPU  0 inst:  534000000 cyc:  352656899 now IPC :1.57544: AVG IPC :1.51276: L2-Pf-HR :0.71292: L2-HR :0.61125: (Sim:0h30m2s) 
CPU  0 inst:  535000000 cyc:  353291671 now IPC :1.57537: AVG IPC :1.51288: L2-Pf-HR :0.71462: L2-HR :0.61235: (Sim:0h30m6s) 
CPU  0 inst:  536000000 cyc:  353923292 now IPC :1.58323: AVG IPC :1.51300: L2-Pf-HR :0.71653: L2-HR :0.61360: (Sim:0h30m11s) 
CPU  0 inst:  537000001 cyc:  354802047 now IPC :1.13797: AVG IPC :1.51207: L2-Pf-HR :0.71756: L2-HR :0.61419: (Sim:0h30m14s) 
CPU  0 inst:  538000003 cyc:  355467970 now IPC :1.50168: AVG IPC :1.51205: L2-Pf-HR :0.71723: L2-HR :0.61397: (Sim:0h30m18s) 
CPU  0 inst:  539000002 cyc:  356163744 now IPC :1.43725: AVG IPC :1.51190: L2-Pf-HR :0.71691: L2-HR :0.61375: (Sim:0h30m22s) 
CPU  0 inst:  540000000 cyc:  356876733 now IPC :1.40254: AVG IPC :1.51168: L2-Pf-HR :0.71664: L2-HR :0.61354: (Sim:0h30m27s) 
CPU  0 inst:  541000002 cyc:  357578120 now IPC :1.42575: AVG IPC :1.51152: L2-Pf-HR :0.71633: L2-HR :0.61332: (Sim:0h30m31s) 
CPU  0 inst:  542000000 cyc:  358248046 now IPC :1.49270: AVG IPC :1.51148: L2-Pf-HR :0.71591: L2-HR :0.61308: (Sim:0h30m35s) 
CPU  0 inst:  543000003 cyc:  358932532 now IPC :1.46095: AVG IPC :1.51138: L2-Pf-HR :0.71563: L2-HR :0.61289: (Sim:0h30m40s) 
CPU  0 inst:  544000000 cyc:  359617325 now IPC :1.46029: AVG IPC :1.51129: L2-Pf-HR :0.71534: L2-HR :0.61269: (Sim:0h30m44s) 
CPU  0 inst:  545000000 cyc:  360304324 now IPC :1.45561: AVG IPC :1.51118: L2-Pf-HR :0.71501: L2-HR :0.61247: (Sim:0h30m48s) 
CPU  0 inst:  546000000 cyc:  360980796 now IPC :1.47826: AVG IPC :1.51112: L2-Pf-HR :0.71465: L2-HR :0.61225: (Sim:0h30m52s) 
CPU  0 inst:  547000000 cyc:  361646297 now IPC :1.50263: AVG IPC :1.51110: L2-Pf-HR :0.71426: L2-HR :0.61202: (Sim:0h30m55s) 
CPU  0 inst:  548000000 cyc:  362306154 now IPC :1.51548: AVG IPC :1.51111: L2-Pf-HR :0.71398: L2-HR :0.61185: (Sim:0h30m59s) 
CPU  0 inst:  549000000 cyc:  363229086 now IPC :1.08350: AVG IPC :1.51002: L2-Pf-HR :0.71363: L2-HR :0.61153: (Sim:0h31m4s) 
CPU  0 inst:  550000000 cyc:  363830553 now IPC :1.66260: AVG IPC :1.51027: L2-Pf-HR :0.71330: L2-HR :0.61133: (Sim:0h31m7s) 
CPU  0 inst:  551000001 cyc:  364447519 now IPC :1.62084: AVG IPC :1.51046: L2-Pf-HR :0.71299: L2-HR :0.61114: (Sim:0h31m11s) 
CPU  0 inst:  552000000 cyc:  365070461 now IPC :1.60528: AVG IPC :1.51062: L2-Pf-HR :0.71270: L2-HR :0.61095: (Sim:0h31m15s) 
CPU  0 inst:  553000001 cyc:  365692413 now IPC :1.60784: AVG IPC :1.51079: L2-Pf-HR :0.71237: L2-HR :0.61075: (Sim:0h31m19s) 
CPU  0 inst:  554000002 cyc:  366306272 now IPC :1.62904: AVG IPC :1.51099: L2-Pf-HR :0.71207: L2-HR :0.61059: (Sim:0h31m24s) 
CPU  0 inst:  555000000 cyc:  366920017 now IPC :1.62934: AVG IPC :1.51119: L2-Pf-HR :0.71177: L2-HR :0.61042: (Sim:0h31m28s) 
CPU  0 inst:  556000000 cyc:  367564018 now IPC :1.55279: AVG IPC :1.51126: L2-Pf-HR :0.71145: L2-HR :0.61023: (Sim:0h31m32s) 
CPU  0 inst:  557000001 cyc:  368177262 now IPC :1.63067: AVG IPC :1.51146: L2-Pf-HR :0.71117: L2-HR :0.61005: (Sim:0h31m37s) 
CPU  0 inst:  558000003 cyc:  368793350 now IPC :1.62315: AVG IPC :1.51165: L2-Pf-HR :0.71089: L2-HR :0.60988: (Sim:0h31m41s) 
CPU  0 inst:  559000002 cyc:  369394094 now IPC :1.66460: AVG IPC :1.51190: L2-Pf-HR :0.71059: L2-HR :0.60971: (Sim:0h31m45s) 
CPU  0 inst:  560000000 cyc:  370000961 now IPC :1.64780: AVG IPC :1.51212: L2-Pf-HR :0.71031: L2-HR :0.60954: (Sim:0h31m50s) 
CPU  0 inst:  561000001 cyc:  370792045 now IPC :1.26409: AVG IPC :1.51159: L2-Pf-HR :0.71039: L2-HR :0.60956: (Sim:0h31m54s) 
CPU  0 inst:  562000003 cyc:  371380306 now IPC :1.69993: AVG IPC :1.51189: L2-Pf-HR :0.71096: L2-HR :0.60995: (Sim:0h31m58s) 
CPU  0 inst:  563000000 cyc:  371991842 now IPC :1.63522: AVG IPC :1.51209: L2-Pf-HR :0.71153: L2-HR :0.61033: (Sim:0h32m3s) 
CPU  0 inst:  564000000 cyc:  372620712 now IPC :1.59015: AVG IPC :1.51222: L2-Pf-HR :0.71216: L2-HR :0.61075: (Sim:0h32m7s) 
CPU  0 inst:  565000002 cyc:  373232035 now IPC :1.63580: AVG IPC :1.51243: L2-Pf-HR :0.71273: L2-HR :0.61114: (Sim:0h32m11s) 
CPU  0 inst:  566000003 cyc:  373817865 now IPC :1.70698: AVG IPC :1.51273: L2-Pf-HR :0.71360: L2-HR :0.61171: (Sim:0h32m16s) 
CPU  0 inst:  567000001 cyc:  374382607 now IPC :1.77072: AVG IPC :1.51312: L2-Pf-HR :0.71540: L2-HR :0.61288: (Sim:0h32m20s) 
CPU  0 inst:  568000000 cyc:  374993661 now IPC :1.63651: AVG IPC :1.51332: L2-Pf-HR :0.71715: L2-HR :0.61402: (Sim:0h32m23s) 
CPU  0 inst:  569000003 cyc:  375890713 now IPC :1.11477: AVG IPC :1.51237: L2-Pf-HR :0.71719: L2-HR :0.61397: (Sim:0h32m27s) 
CPU  0 inst:  570000001 cyc:  376541386 now IPC :1.53687: AVG IPC :1.51241: L2-Pf-HR :0.71691: L2-HR :0.61378: (Sim:0h32m31s) 
CPU  0 inst:  571000000 cyc:  377193693 now IPC :1.53302: AVG IPC :1.51245: L2-Pf-HR :0.71662: L2-HR :0.61358: (Sim:0h32m35s) 
CPU  0 inst:  572000000 cyc:  377879934 now IPC :1.45721: AVG IPC :1.51235: L2-Pf-HR :0.71637: L2-HR :0.61338: (Sim:0h32m40s) 
CPU  0 inst:  573000000 cyc:  378587048 now IPC :1.41420: AVG IPC :1.51216: L2-Pf-HR :0.71608: L2-HR :0.61318: (Sim:0h32m45s) 
CPU  0 inst:  574000001 cyc:  379240485 now IPC :1.53037: AVG IPC :1.51220: L2-Pf-HR :0.71581: L2-HR :0.61300: (Sim:0h32m49s) 
CPU  0 inst:  575000001 cyc:  379898532 now IPC :1.51965: AVG IPC :1.51221: L2-Pf-HR :0.71554: L2-HR :0.61283: (Sim:0h32m53s) 
CPU  0 inst:  576000000 cyc:  380605414 now IPC :1.41466: AVG IPC :1.51203: L2-Pf-HR :0.71526: L2-HR :0.61262: (Sim:0h32m57s) 
CPU  0 inst:  577000001 cyc:  381295218 now IPC :1.44969: AVG IPC :1.51191: L2-Pf-HR :0.71501: L2-HR :0.61245: (Sim:0h33m2s) 
CPU  0 inst:  578000001 cyc:  381935306 now IPC :1.56229: AVG IPC :1.51200: L2-Pf-HR :0.71471: L2-HR :0.61226: (Sim:0h33m6s) 
CPU  0 inst:  579000002 cyc:  382585138 now IPC :1.53886: AVG IPC :1.51204: L2-Pf-HR :0.71442: L2-HR :0.61208: (Sim:0h33m9s) 
CPU  0 inst:  580000000 cyc:  383243104 now IPC :1.51983: AVG IPC :1.51206: L2-Pf-HR :0.71416: L2-HR :0.61192: (Sim:0h33m13s) 
CPU  0 inst:  581000002 cyc:  384131733 now IPC :1.12533: AVG IPC :1.51116: L2-Pf-HR :0.71379: L2-HR :0.61160: (Sim:0h33m16s) 
CPU  0 inst:  582000001 cyc:  384747877 now IPC :1.62300: AVG IPC :1.51134: L2-Pf-HR :0.71349: L2-HR :0.61143: (Sim:0h33m19s) 
CPU  0 inst:  583000002 cyc:  385374047 now IPC :1.59701: AVG IPC :1.51148: L2-Pf-HR :0.71321: L2-HR :0.61124: (Sim:0h33m24s) 
CPU  0 inst:  584000000 cyc:  385992673 now IPC :1.61648: AVG IPC :1.51165: L2-Pf-HR :0.71291: L2-HR :0.61105: (Sim:0h33m28s) 
CPU  0 inst:  585000003 cyc:  386610171 now IPC :1.61944: AVG IPC :1.51182: L2-Pf-HR :0.71263: L2-HR :0.61089: (Sim:0h33m31s) 
CPU  0 inst:  586000001 cyc:  387227474 now IPC :1.61995: AVG IPC :1.51199: L2-Pf-HR :0.71234: L2-HR :0.61072: (Sim:0h33m35s) 
CPU  0 inst:  587000001 cyc:  387896887 now IPC :1.49385: AVG IPC :1.51196: L2-Pf-HR :0.71204: L2-HR :0.61056: (Sim:0h33m39s) 
CPU  0 inst:  588000000 cyc:  388555109 now IPC :1.51924: AVG IPC :1.51197: L2-Pf-HR :0.71175: L2-HR :0.61038: (Sim:0h33m43s) 
CPU  0 inst:  589000000 cyc:  389184062 now IPC :1.58994: AVG IPC :1.51210: L2-Pf-HR :0.71150: L2-HR :0.61021: (Sim:0h33m48s) 
CPU  0 inst:  590000001 cyc:  389799566 now IPC :1.62469: AVG IPC :1.51228: L2-Pf-HR :0.71122: L2-HR :0.61005: (Sim:0h33m52s) 
CPU  0 inst:  591000002 cyc:  390410326 now IPC :1.63731: AVG IPC :1.51248: L2-Pf-HR :0.71096: L2-HR :0.60989: (Sim:0h33m56s) 
CPU  0 inst:  592000000 cyc:  391162831 now IPC :1.32889: AVG IPC :1.51212: L2-Pf-HR :0.71065: L2-HR :0.60964: (Sim:0h34m1s) 
CPU  0 inst:  593000001 cyc:  391795341 now IPC :1.58100: AVG IPC :1.51223: L2-Pf-HR :0.71120: L2-HR :0.61003: (Sim:0h34m5s) 
CPU  0 inst:  594000003 cyc:  392397472 now IPC :1.66077: AVG IPC :1.51246: L2-Pf-HR :0.71184: L2-HR :0.61045: (Sim:0h34m8s) 
CPU  0 inst:  595000000 cyc:  392993655 now IPC :1.67733: AVG IPC :1.51271: L2-Pf-HR :0.71243: L2-HR :0.61084: (Sim:0h34m12s) 
CPU  0 inst:  596000000 cyc:  393624948 now IPC :1.58405: AVG IPC :1.51283: L2-Pf-HR :0.71297: L2-HR :0.61121: (Sim:0h34m16s) 
CPU  0 inst:  597000002 cyc:  394213969 now IPC :1.69774: AVG IPC :1.51310: L2-Pf-HR :0.71356: L2-HR :0.61160: (Sim:0h34m21s) 
CPU  0 inst:  598000000 cyc:  394791684 now IPC :1.73095: AVG IPC :1.51342: L2-Pf-HR :0.71490: L2-HR :0.61247: (Sim:0h34m24s) 
CPU  0 inst:  599000001 cyc:  395356240 now IPC :1.77131: AVG IPC :1.51379: L2-Pf-HR :0.71655: L2-HR :0.61355: (Sim:0h34m29s) 
CPU  0 inst:  600000000 cyc:  396179907 now IPC :1.21408: AVG IPC :1.51317: L2-Pf-HR :0.71772: L2-HR :0.61424: (Sim:0h34m33s) 
CPU  0 inst:  601000000 cyc:  396863187 now IPC :1.46353: AVG IPC :1.51308: L2-Pf-HR :0.71741: L2-HR :0.61404: (Sim:0h34m36s) 
CPU  0 inst:  602000003 cyc:  397532238 now IPC :1.49466: AVG IPC :1.51305: L2-Pf-HR :0.71711: L2-HR :0.61384: (Sim:0h34m39s) 
CPU  0 inst:  603000001 cyc:  398243673 now IPC :1.40561: AVG IPC :1.51286: L2-Pf-HR :0.71688: L2-HR :0.61365: (Sim:0h34m44s) 
CPU  0 inst:  604000000 cyc:  398916633 now IPC :1.48597: AVG IPC :1.51281: L2-Pf-HR :0.71660: L2-HR :0.61345: (Sim:0h34m48s) 
CPU  0 inst:  605000002 cyc:  399574816 now IPC :1.51934: AVG IPC :1.51282: L2-Pf-HR :0.71634: L2-HR :0.61328: (Sim:0h34m52s) 
CPU  0 inst:  606000000 cyc:  400240748 now IPC :1.50165: AVG IPC :1.51281: L2-Pf-HR :0.71608: L2-HR :0.61311: (Sim:0h34m56s) 
CPU  0 inst:  607000003 cyc:  400912528 now IPC :1.48859: AVG IPC :1.51276: L2-Pf-HR :0.71581: L2-HR :0.61293: (Sim:0h35m1s) 
CPU  0 inst:  608000000 cyc:  401598365 now IPC :1.45807: AVG IPC :1.51267: L2-Pf-HR :0.71556: L2-HR :0.61275: (Sim:0h35m5s) 
CPU  0 inst:  609000003 cyc:  402258658 now IPC :1.51448: AVG IPC :1.51267: L2-Pf-HR :0.71522: L2-HR :0.61254: (Sim:0h35m9s) 
CPU  0 inst:  610000003 cyc:  402908207 now IPC :1.53953: AVG IPC :1.51272: L2-Pf-HR :0.71489: L2-HR :0.61234: (Sim:0h35m14s) 
CPU  0 inst:  611000000 cyc:  403557727 now IPC :1.53959: AVG IPC :1.51276: L2-Pf-HR :0.71466: L2-HR :0.61219: (Sim:0h35m18s) 
CPU  0 inst:  612000000 cyc:  404462516 now IPC :1.10523: AVG IPC :1.51185: L2-Pf-HR :0.71435: L2-HR :0.61190: (Sim:0h35m22s) 
CPU  0 inst:  613000002 cyc:  405101957 now IPC :1.56387: AVG IPC :1.51193: L2-Pf-HR :0.71404: L2-HR :0.61173: (Sim:0h35m27s) 
CPU  0 inst:  614000000 cyc:  405722371 now IPC :1.61182: AVG IPC :1.51208: L2-Pf-HR :0.71374: L2-HR :0.61155: (Sim:0h35m31s) 
CPU  0 inst:  615000003 cyc:  406356670 now IPC :1.57655: AVG IPC :1.51218: L2-Pf-HR :0.71348: L2-HR :0.61138: (Sim:0h35m35s) 
CPU  0 inst:  616000000 cyc:  406980166 now IPC :1.60385: AVG IPC :1.51232: L2-Pf-HR :0.71320: L2-HR :0.61121: (Sim:0h35m39s) 
CPU  0 inst:  617000003 cyc:  407604251 now IPC :1.60235: AVG IPC :1.51246: L2-Pf-HR :0.71292: L2-HR :0.61105: (Sim:0h35m44s) 
CPU  0 inst:  618000002 cyc:  408241233 now IPC :1.56990: AVG IPC :1.51255: L2-Pf-HR :0.71265: L2-HR :0.61090: (Sim:0h35m48s) 
CPU  0 inst:  619000001 cyc:  408909013 now IPC :1.49750: AVG IPC :1.51253: L2-Pf-HR :0.71238: L2-HR :0.61074: (Sim:0h35m52s) 
CPU  0 inst:  620000000 cyc:  409542409 now IPC :1.57879: AVG IPC :1.51263: L2-Pf-HR :0.71210: L2-HR :0.61057: (Sim:0h35m57s) 
CPU  0 inst:  621000002 cyc:  410166339 now IPC :1.60275: AVG IPC :1.51277: L2-Pf-HR :0.71186: L2-HR :0.61041: (Sim:0h36m1s) 
CPU  0 inst:  622000000 cyc:  410778781 now IPC :1.63280: AVG IPC :1.51295: L2-Pf-HR :0.71160: L2-HR :0.61026: (Sim:0h36m5s) 
CPU  0 inst:  623000003 cyc:  411386764 now IPC :1.64479: AVG IPC :1.51314: L2-Pf-HR :0.71132: L2-HR :0.61010: (Sim:0h36m9s) 
CPU  0 inst:  624000000 cyc:  412181214 now IPC :1.25873: AVG IPC :1.51265: L2-Pf-HR :0.71131: L2-HR :0.61005: (Sim:0h36m14s) 
CPU  0 inst:  625000003 cyc:  412767778 now IPC :1.70485: AVG IPC :1.51292: L2-Pf-HR :0.71203: L2-HR :0.61053: (Sim:0h36m18s) 
CPU  0 inst:  626000003 cyc:  413374940 now IPC :1.64701: AVG IPC :1.51312: L2-Pf-HR :0.71257: L2-HR :0.61088: (Sim:0h36m22s) 
[...]
CPU  0 inst: 2256000000 cyc: 2411072043 now IPC :1.65932: AVG IPC :0.93523: L2-Pf-HR :0.71144: L2-HR :0.59583: (Sim:2h46m20s) 
CPU  0 inst: 2257000001 cyc: 2411860652 now IPC :1.26806: AVG IPC :0.93534: L2-Pf-HR :0.71135: L2-HR :0.59576: (Sim:2h46m24s) 
CPU  0 inst: 2258000000 cyc: 2412480959 now IPC :1.61210: AVG IPC :0.93552: L2-Pf-HR :0.71140: L2-HR :0.59579: (Sim:2h46m27s) 
CPU  0 inst: 2259000001 cyc: 2413221257 now IPC :1.35081: AVG IPC :0.93565: L2-Pf-HR :0.71138: L2-HR :0.59576: (Sim:2h46m32s) 
CPU  0 inst: 2260000000 cyc: 2413821655 now IPC :1.66556: AVG IPC :0.93583: L2-Pf-HR :0.71144: L2-HR :0.59579: (Sim:2h46m37s) 
CPU  0 inst: 2261000000 cyc: 2414454409 now IPC :1.58039: AVG IPC :0.93600: L2-Pf-HR :0.71149: L2-HR :0.59581: (Sim:2h46m41s) 
CPU  0 inst: 2262000001 cyc: 2415115878 now IPC :1.51179: AVG IPC :0.93615: L2-Pf-HR :0.71139: L2-HR :0.59574: (Sim:2h46m45s) 
CPU  0 inst: 2263000000 cyc: 2415827240 now IPC :1.40575: AVG IPC :0.93629: L2-Pf-HR :0.71152: L2-HR :0.59581: (Sim:2h46m49s) 
CPU  0 inst: 2264000000 cyc: 2416496461 now IPC :1.49427: AVG IPC :0.93645: L2-Pf-HR :0.71206: L2-HR :0.59615: (Sim:2h46m53s) 
CPU  0 inst: 2265000002 cyc: 2417366835 now IPC :1.14893: AVG IPC :0.93652: L2-Pf-HR :0.71254: L2-HR :0.59647: (Sim:2h46m58s) 
CPU  0 inst: 2266000003 cyc: 2418011512 now IPC :1.55117: AVG IPC :0.93669: L2-Pf-HR :0.71255: L2-HR :0.59647: (Sim:2h47m2s) 
CPU  0 inst: 2267000001 cyc: 2418663798 now IPC :1.53307: AVG IPC :0.93685: L2-Pf-HR :0.71260: L2-HR :0.59648: (Sim:2h47m6s) 
CPU  0 inst: 2268000000 cyc: 2419440886 now IPC :1.28685: AVG IPC :0.93696: L2-Pf-HR :0.71260: L2-HR :0.59647: (Sim:2h47m11s) 
CPU  0 inst: 2269000001 cyc: 2420051956 now IPC :1.63648: AVG IPC :0.93714: L2-Pf-HR :0.71266: L2-HR :0.59650: (Sim:2h47m15s) 
CPU  0 inst: 2270000001 cyc: 2420790206 now IPC :1.35455: AVG IPC :0.93726: L2-Pf-HR :0.71263: L2-HR :0.59647: (Sim:2h47m18s) 
CPU  0 inst: 2271000000 cyc: 2421419487 now IPC :1.58911: AVG IPC :0.93743: L2-Pf-HR :0.71256: L2-HR :0.59641: (Sim:2h47m21s) 
CPU  0 inst: 2272000000 cyc: 2422301448 now IPC :1.13384: AVG IPC :0.93751: L2-Pf-HR :0.71252: L2-HR :0.59637: (Sim:2h47m25s) 
CPU  0 inst: 2273000001 cyc: 2422944325 now IPC :1.55551: AVG IPC :0.93767: L2-Pf-HR :0.71254: L2-HR :0.59637: (Sim:2h47m28s) 
CPU  0 inst: 2274000000 cyc: 2423718569 now IPC :1.29158: AVG IPC :0.93778: L2-Pf-HR :0.71255: L2-HR :0.59637: (Sim:2h47m32s) 
CPU  0 inst: 2275000003 cyc: 2424324408 now IPC :1.65061: AVG IPC :0.93796: L2-Pf-HR :0.71257: L2-HR :0.59638: (Sim:2h47m35s) 
CPU  0 inst: 2276000000 cyc: 2425029810 now IPC :1.41763: AVG IPC :0.93810: L2-Pf-HR :0.71260: L2-HR :0.59638: (Sim:2h47m39s) 
CPU  0 inst: 2277000002 cyc: 2425640245 now IPC :1.63818: AVG IPC :0.93828: L2-Pf-HR :0.71252: L2-HR :0.59633: (Sim:2h47m41s) 
CPU  0 inst: 2278000003 cyc: 2426544685 now IPC :1.10566: AVG IPC :0.93834: L2-Pf-HR :0.71244: L2-HR :0.59626: (Sim:2h47m45s) 
CPU  0 inst: 2279000000 cyc: 2427172436 now IPC :1.59298: AVG IPC :0.93851: L2-Pf-HR :0.71245: L2-HR :0.59626: (Sim:2h47m49s) 
CPU  0 inst: 2280000000 cyc: 2427953498 now IPC :1.28031: AVG IPC :0.93862: L2-Pf-HR :0.71247: L2-HR :0.59625: (Sim:2h47m54s) 
CPU  0 inst: 2281000001 cyc: 2428562749 now IPC :1.64136: AVG IPC :0.93879: L2-Pf-HR :0.71248: L2-HR :0.59626: (Sim:2h47m58s) 
CPU  0 inst: 2282000001 cyc: 2429174768 now IPC :1.63394: AVG IPC :0.93897: L2-Pf-HR :0.71255: L2-HR :0.59629: (Sim:2h48m2s) 
CPU  0 inst: 2283000002 cyc: 2429877849 now IPC :1.42231: AVG IPC :0.93911: L2-Pf-HR :0.71248: L2-HR :0.59623: (Sim:2h48m7s) 
CPU  0 inst: 2284000000 cyc: 2430726701 now IPC :1.17806: AVG IPC :0.93919: L2-Pf-HR :0.71237: L2-HR :0.59615: (Sim:2h48m11s) 
CPU  0 inst: 2285000002 cyc: 2431360211 now IPC :1.57851: AVG IPC :0.93936: L2-Pf-HR :0.71238: L2-HR :0.59615: (Sim:2h48m16s) 
CPU  0 inst: 2286000002 cyc: 2431998191 now IPC :1.56745: AVG IPC :0.93953: L2-Pf-HR :0.71242: L2-HR :0.59616: (Sim:2h48m20s) 
CPU  0 inst: 2287000000 cyc: 2432727339 now IPC :1.37146: AVG IPC :0.93965: L2-Pf-HR :0.71241: L2-HR :0.59615: (Sim:2h48m24s) 
CPU  0 inst: 2288000000 cyc: 2433325382 now IPC :1.67212: AVG IPC :0.93983: L2-Pf-HR :0.71246: L2-HR :0.59617: (Sim:2h48m28s) 
CPU  0 inst: 2289000003 cyc: 2434023100 now IPC :1.43325: AVG IPC :0.93998: L2-Pf-HR :0.71244: L2-HR :0.59614: (Sim:2h48m33s) 
CPU  0 inst: 2290000003 cyc: 2434634286 now IPC :1.63616: AVG IPC :0.94015: L2-Pf-HR :0.71237: L2-HR :0.59609: (Sim:2h48m37s) 
CPU  0 inst: 2291000003 cyc: 2435414044 now IPC :1.28245: AVG IPC :0.94026: L2-Pf-HR :0.71232: L2-HR :0.59605: (Sim:2h48m41s) 
CPU  0 inst: 2292000000 cyc: 2436047023 now IPC :1.57983: AVG IPC :0.94043: L2-Pf-HR :0.71234: L2-HR :0.59605: (Sim:2h48m45s) 
CPU  0 inst: 2293000001 cyc: 2436784072 now IPC :1.35676: AVG IPC :0.94055: L2-Pf-HR :0.71235: L2-HR :0.59605: (Sim:2h48m50s) 
CPU  0 inst: 2294000000 cyc: 2437384033 now IPC :1.66677: AVG IPC :0.94073: L2-Pf-HR :0.71237: L2-HR :0.59606: (Sim:2h48m54s) 
CPU  0 inst: 2295000002 cyc: 2438071185 now IPC :1.45528: AVG IPC :0.94088: L2-Pf-HR :0.71240: L2-HR :0.59606: (Sim:2h48m58s) 
CPU  0 inst: 2296000000 cyc: 2438680578 now IPC :1.64097: AVG IPC :0.94105: L2-Pf-HR :0.71232: L2-HR :0.59601: (Sim:2h49m2s) 
CPU  0 inst: 2297000000 cyc: 2439399853 now IPC :1.39029: AVG IPC :0.94118: L2-Pf-HR :0.71254: L2-HR :0.59613: (Sim:2h49m7s) 
CPU  0 inst: 2298000003 cyc: 2440083214 now IPC :1.46336: AVG IPC :0.94133: L2-Pf-HR :0.71307: L2-HR :0.59647: (Sim:2h49m11s) 
CPU  0 inst: 2299000003 cyc: 2440953190 now IPC :1.14946: AVG IPC :0.94140: L2-Pf-HR :0.71345: L2-HR :0.59672: (Sim:2h49m16s) 
CPU  0 inst: 2300000000 cyc: 2441605278 now IPC :1.53353: AVG IPC :0.94156: L2-Pf-HR :0.71350: L2-HR :0.59675: (Sim:2h49m20s) 
CPU  0 inst: 2301000001 cyc: 2442274544 now IPC :1.49418: AVG IPC :0.94171: L2-Pf-HR :0.71354: L2-HR :0.59675: (Sim:2h49m24s) 
CPU  0 inst: 2302000001 cyc: 2443016620 now IPC :1.34757: AVG IPC :0.94184: L2-Pf-HR :0.71353: L2-HR :0.59675: (Sim:2h49m29s) 
CPU  0 inst: 2303000002 cyc: 2443641411 now IPC :1.60054: AVG IPC :0.94201: L2-Pf-HR :0.71355: L2-HR :0.59675: (Sim:2h49m33s) 
CPU  0 inst: 2304000000 cyc: 2444374346 now IPC :1.36437: AVG IPC :0.94213: L2-Pf-HR :0.71354: L2-HR :0.59672: (Sim:2h49m37s) 
CPU  0 inst: 2305000002 cyc: 2445142933 now IPC :1.30109: AVG IPC :0.94225: L2-Pf-HR :0.71345: L2-HR :0.59665: (Sim:2h49m42s) 
CPU  0 inst: 2306000000 cyc: 2445906922 now IPC :1.30892: AVG IPC :0.94236: L2-Pf-HR :0.71343: L2-HR :0.59663: (Sim:2h49m46s) 
CPU  0 inst: 2307000001 cyc: 2446539030 now IPC :1.58201: AVG IPC :0.94253: L2-Pf-HR :0.71345: L2-HR :0.59663: (Sim:2h49m50s) 
CPU  0 inst: 2308000000 cyc: 2447303292 now IPC :1.30845: AVG IPC :0.94264: L2-Pf-HR :0.71345: L2-HR :0.59662: (Sim:2h49m55s) 
CPU  0 inst: 2309000000 cyc: 2447906036 now IPC :1.65908: AVG IPC :0.94282: L2-Pf-HR :0.71349: L2-HR :0.59665: (Sim:2h49m59s) 
CPU  0 inst: 2310000000 cyc: 2448614403 now IPC :1.41170: AVG IPC :0.94295: L2-Pf-HR :0.71349: L2-HR :0.59663: (Sim:2h50m3s) 
CPU  0 inst: 2311000001 cyc: 2449226571 now IPC :1.63354: AVG IPC :0.94312: L2-Pf-HR :0.71342: L2-HR :0.59658: (Sim:2h50m7s) 
CPU  0 inst: 2312000000 cyc: 2450120141 now IPC :1.11911: AVG IPC :0.94319: L2-Pf-HR :0.71334: L2-HR :0.59652: (Sim:2h50m12s) 
CPU  0 inst: 2313000003 cyc: 2450743134 now IPC :1.60516: AVG IPC :0.94336: L2-Pf-HR :0.71339: L2-HR :0.59654: (Sim:2h50m16s) 
CPU  0 inst: 2314000003 cyc: 2451526908 now IPC :1.27588: AVG IPC :0.94346: L2-Pf-HR :0.71336: L2-HR :0.59651: (Sim:2h50m21s) 
CPU  0 inst: 2315000001 cyc: 2452130760 now IPC :1.65603: AVG IPC :0.94364: L2-Pf-HR :0.71342: L2-HR :0.59654: (Sim:2h50m25s) 
CPU  0 inst: 2316000000 cyc: 2452764672 now IPC :1.57750: AVG IPC :0.94380: L2-Pf-HR :0.71346: L2-HR :0.59656: (Sim:2h50m29s) 
CPU  0 inst: 2317000000 cyc: 2453446962 now IPC :1.46565: AVG IPC :0.94395: L2-Pf-HR :0.71338: L2-HR :0.59649: (Sim:2h50m33s) 
CPU  0 inst: 2318000000 cyc: 2454299304 now IPC :1.17324: AVG IPC :0.94403: L2-Pf-HR :0.71327: L2-HR :0.59641: (Sim:2h50m38s) 
CPU  0 inst: 2319000001 cyc: 2454941246 now IPC :1.55777: AVG IPC :0.94419: L2-Pf-HR :0.71331: L2-HR :0.59642: (Sim:2h50m42s) 
CPU  0 inst: 2320000000 cyc: 2455607703 now IPC :1.50047: AVG IPC :0.94434: L2-Pf-HR :0.71335: L2-HR :0.59643: (Sim:2h50m47s) 
CPU  0 inst: 2321000002 cyc: 2456300690 now IPC :1.44303: AVG IPC :0.94448: L2-Pf-HR :0.71335: L2-HR :0.59642: (Sim:2h50m51s) 
CPU  0 inst: 2322000001 cyc: 2456902524 now IPC :1.66159: AVG IPC :0.94466: L2-Pf-HR :0.71336: L2-HR :0.59643: (Sim:2h50m55s) 
CPU  0 inst: 2323000002 cyc: 2457595354 now IPC :1.44336: AVG IPC :0.94480: L2-Pf-HR :0.71334: L2-HR :0.59640: (Sim:2h50m59s) 
CPU  0 inst: 2324000000 cyc: 2458290054 now IPC :1.43947: AVG IPC :0.94494: L2-Pf-HR :0.71325: L2-HR :0.59633: (Sim:2h51m4s) 
CPU  0 inst: 2325000000 cyc: 2458997097 now IPC :1.41434: AVG IPC :0.94507: L2-Pf-HR :0.71324: L2-HR :0.59631: (Sim:2h51m8s) 
CPU  0 inst: 2326000000 cyc: 2459626022 now IPC :1.59001: AVG IPC :0.94524: L2-Pf-HR :0.71325: L2-HR :0.59631: (Sim:2h51m12s) 
CPU  0 inst: 2327000001 cyc: 2460352560 now IPC :1.37639: AVG IPC :0.94536: L2-Pf-HR :0.71325: L2-HR :0.59630: (Sim:2h51m17s) 
CPU  0 inst: 2328000000 cyc: 2460949905 now IPC :1.67407: AVG IPC :0.94554: L2-Pf-HR :0.71329: L2-HR :0.59632: (Sim:2h51m21s) 
CPU  0 inst: 2329000000 cyc: 2461641953 now IPC :1.44499: AVG IPC :0.94568: L2-Pf-HR :0.71329: L2-HR :0.59631: (Sim:2h51m25s) 
CPU  0 inst: 2330000002 cyc: 2462249151 now IPC :1.64691: AVG IPC :0.94585: L2-Pf-HR :0.71322: L2-HR :0.59626: (Sim:2h51m29s) 
CPU  0 inst: 2331000001 cyc: 2462973519 now IPC :1.38051: AVG IPC :0.94598: L2-Pf-HR :0.71352: L2-HR :0.59643: (Sim:2h51m34s) 
CPU  0 inst: 2332000000 cyc: 2463689679 now IPC :1.39633: AVG IPC :0.94611: L2-Pf-HR :0.71408: L2-HR :0.59681: (Sim:2h51m38s) 
CPU  0 inst: 2333000000 cyc: 2464528095 now IPC :1.19273: AVG IPC :0.94620: L2-Pf-HR :0.71437: L2-HR :0.59700: (Sim:2h51m43s) 
CPU  0 inst: 2334000000 cyc: 2465158863 now IPC :1.58537: AVG IPC :0.94636: L2-Pf-HR :0.71438: L2-HR :0.59700: (Sim:2h51m47s) 
CPU  0 inst: 2335000000 cyc: 2465950286 now IPC :1.26355: AVG IPC :0.94646: L2-Pf-HR :0.71440: L2-HR :0.59699: (Sim:2h51m51s) 
CPU  0 inst: 2336000000 cyc: 2466576793 now IPC :1.59615: AVG IPC :0.94663: L2-Pf-HR :0.71442: L2-HR :0.59700: (Sim:2h51m54s) 
CPU  0 inst: 2337000003 cyc: 2467194941 now IPC :1.61774: AVG IPC :0.94680: L2-Pf-HR :0.71448: L2-HR :0.59703: (Sim:2h51m57s) 
CPU  0 inst: 2338000002 cyc: 2467925680 now IPC :1.36848: AVG IPC :0.94692: L2-Pf-HR :0.71442: L2-HR :0.59698: (Sim:2h52m0s) 
CPU  0 inst: 2339000000 cyc: 2468819372 now IPC :1.11895: AVG IPC :0.94698: L2-Pf-HR :0.71432: L2-HR :0.59690: (Sim:2h52m4s) 
CPU  0 inst: 2340000000 cyc: 2469458781 now IPC :1.56394: AVG IPC :0.94714: L2-Pf-HR :0.71432: L2-HR :0.59689: (Sim:2h52m8s) 
CPU  0 inst: 2341000001 cyc: 2470096831 now IPC :1.56728: AVG IPC :0.94730: L2-Pf-HR :0.71437: L2-HR :0.59691: (Sim:2h52m11s) 
CPU  0 inst: 2342000002 cyc: 2470850408 now IPC :1.32701: AVG IPC :0.94742: L2-Pf-HR :0.71436: L2-HR :0.59689: (Sim:2h52m16s) 
CPU  0 inst: 2343000003 cyc: 2471454406 now IPC :1.65564: AVG IPC :0.94759: L2-Pf-HR :0.71441: L2-HR :0.59692: (Sim:2h52m20s) 
CPU  0 inst: 2344000000 cyc: 2472165117 now IPC :1.40704: AVG IPC :0.94772: L2-Pf-HR :0.71439: L2-HR :0.59689: (Sim:2h52m25s) 
CPU  0 inst: 2345000000 cyc: 2472783054 now IPC :1.61829: AVG IPC :0.94789: L2-Pf-HR :0.71432: L2-HR :0.59684: (Sim:2h52m29s) 
CPU  0 inst: 2346000003 cyc: 2473669031 now IPC :1.12870: AVG IPC :0.94796: L2-Pf-HR :0.71427: L2-HR :0.59680: (Sim:2h52m34s) 
CPU  0 inst: 2347000002 cyc: 2474313369 now IPC :1.55198: AVG IPC :0.94811: L2-Pf-HR :0.71429: L2-HR :0.59680: (Sim:2h52m38s) 
CPU  0 inst: 2348000000 cyc: 2475084988 now IPC :1.29597: AVG IPC :0.94822: L2-Pf-HR :0.71430: L2-HR :0.59679: (Sim:2h52m42s) 
CPU  0 inst: 2349000002 cyc: 2475689081 now IPC :1.65538: AVG IPC :0.94840: L2-Pf-HR :0.71433: L2-HR :0.59680: (Sim:2h52m47s) 
CPU  0 inst: 2350000002 cyc: 2476392517 now IPC :1.42159: AVG IPC :0.94853: L2-Pf-HR :0.71435: L2-HR :0.59680: (Sim:2h52m51s) 
CPU  0 inst: 2351000002 cyc: 2477000708 now IPC :1.64422: AVG IPC :0.94870: L2-Pf-HR :0.71428: L2-HR :0.59675: (Sim:2h52m55s) 
CPU  0 inst: 2352000000 cyc: 2477866058 now IPC :1.15560: AVG IPC :0.94877: L2-Pf-HR :0.71421: L2-HR :0.59669: (Sim:2h52m59s) 
CPU  0 inst: 2353000002 cyc: 2478491915 now IPC :1.59781: AVG IPC :0.94894: L2-Pf-HR :0.71422: L2-HR :0.59669: (Sim:2h53m3s) 
CPU  0 inst: 2354000001 cyc: 2479248944 now IPC :1.32095: AVG IPC :0.94905: L2-Pf-HR :0.71424: L2-HR :0.59668: (Sim:2h53m8s) 
CPU  0 inst: 2355000000 cyc: 2479852260 now IPC :1.65750: AVG IPC :0.94922: L2-Pf-HR :0.71425: L2-HR :0.59669: (Sim:2h53m12s) 
CPU  0 inst: 2356000000 cyc: 2480453546 now IPC :1.66310: AVG IPC :0.94940: L2-Pf-HR :0.71432: L2-HR :0.59672: (Sim:2h53m16s) 
CPU  0 inst: 2357000003 cyc: 2481146408 now IPC :1.44329: AVG IPC :0.94953: L2-Pf-HR :0.71425: L2-HR :0.59667: (Sim:2h53m21s) 
CPU  0 inst: 2358000001 cyc: 2481925162 now IPC :1.28410: AVG IPC :0.94964: L2-Pf-HR :0.71414: L2-HR :0.59659: (Sim:2h53m25s) 
CPU  0 inst: 2359000001 cyc: 2482551432 now IPC :1.59676: AVG IPC :0.94980: L2-Pf-HR :0.71414: L2-HR :0.59658: (Sim:2h53m29s) 
CPU  0 inst: 2360000000 cyc: 2483182540 now IPC :1.58451: AVG IPC :0.94996: L2-Pf-HR :0.71419: L2-HR :0.59660: (Sim:2h53m33s) 
CPU  0 inst: 2361000001 cyc: 2483900718 now IPC :1.39241: AVG IPC :0.95009: L2-Pf-HR :0.71417: L2-HR :0.59658: (Sim:2h53m38s) 
CPU  0 inst: 2362000003 cyc: 2484500014 now IPC :1.66863: AVG IPC :0.95027: L2-Pf-HR :0.71423: L2-HR :0.59661: (Sim:2h53m42s) 
CPU  0 inst: 2363000003 cyc: 2485189844 now IPC :1.44963: AVG IPC :0.95040: L2-Pf-HR :0.71421: L2-HR :0.59658: (Sim:2h53m46s) 
Finished CPU 0 instr: 2361000003 cyc: 2484207379 AVG IPC: 0.95040 (Sim time: 2h53m46s)

ChampSim completed all CPUs

[ROI Statistics]
Core_0_instructions 2361000003
Core_0_cycles 2484207379
Core_0_IPC 0.95040

Core_0_branch_prediction_accuracy 98.59504
Core_0_branch_MPKI 0.33667
Core_0_average_ROB_occupancy_at_mispredict 251.07327

Core_0_L1D_total_access 583835126
Core_0_L1D_total_hit 537278241 L1D_total_Hit Ratio: 0.92026
Core_0_L1D_total_miss 46556885
Core_0_L1D_loads 538192394
Core_0_L1D_load_hit 494253959 L1D_load_Hit Ratio: 0.91836
Core_0_L1D_load_miss 43938435
Core_0_L1D_RFOs 45642732
Core_0_L1D_RFO_hit 43024282 L1D_RFO_Hit Ratio: 0.94263
Core_0_L1D_RFO_miss 2618450
Core_0_L1D_prefetches 0
Core_0_L1D_prefetch_hit 0 L1D_prefetch_Hit Ratio: -nan
Core_0_L1D_prefetch_miss 0
Core_0_L1D_writebacks 0
Core_0_L1D_writeback_hit 0 L1D_writeback_Hit Ratio: -nan
Core_0_L1D_writeback_miss 0
Core_0_L1D_prefetch_requested 0
Core_0_L1D_prefetch_issued 0
Core_0_L1D_prefetch_useful 0 L1D_Useful Ratio: -nan
Core_0_L1D_prefetch_useless 0
Core_0_L1D_prefetch_late 0
Core_0_L1D_average_miss_latency 70.83190

Core_0_L1I_total_access 535984857
Core_0_L1I_total_hit 535979942 L1I_total_Hit Ratio: 0.99999
Core_0_L1I_total_miss 4915
Core_0_L1I_loads 535984857
Core_0_L1I_load_hit 535979942 L1I_load_Hit Ratio: 0.99999
Core_0_L1I_load_miss 4915
Core_0_L1I_RFOs 0
Core_0_L1I_RFO_hit 0 L1I_RFO_Hit Ratio: -nan
Core_0_L1I_RFO_miss 0
Core_0_L1I_prefetches 0
Core_0_L1I_prefetch_hit 0 L1I_prefetch_Hit Ratio: -nan
Core_0_L1I_prefetch_miss 0
Core_0_L1I_writebacks 0
Core_0_L1I_writeback_hit 0 L1I_writeback_Hit Ratio: -nan
Core_0_L1I_writeback_miss 0
Core_0_L1I_prefetch_requested 0
Core_0_L1I_prefetch_issued 0
Core_0_L1I_prefetch_useful 0 L1I_Useful Ratio: -nan
Core_0_L1I_prefetch_useless 0
Core_0_L1I_prefetch_late 0
Core_0_L1I_average_miss_latency 323.00000

Core_0_L2C_total_access 99706361
Core_0_L2C_total_hit 59483232 L2C_total_Hit Ratio: 0.59658
Core_0_L2C_total_miss 40223129
Core_0_L2C_loads 43943287
Core_0_L2C_load_hit 17947836 L2C_load_Hit Ratio: 0.40843
Core_0_L2C_load_miss 25995451
Core_0_L2C_RFOs 2618450
Core_0_L2C_RFO_hit 400864 L2C_RFO_Hit Ratio: 0.15309
Core_0_L2C_RFO_miss 2217586
Core_0_L2C_prefetches 41108918
Core_0_L2C_prefetch_hit 29360408 L2C_prefetch_Hit Ratio: 0.71421
Core_0_L2C_prefetch_miss 11748510
Core_0_L2C_writebacks 12035706
Core_0_L2C_writeback_hit 11774124 L2C_writeback_Hit Ratio: 0.97827
Core_0_L2C_writeback_miss 261582
Core_0_L2C_prefetch_requested 337487685
Core_0_L2C_prefetch_issued 335357250
Core_0_L2C_prefetch_useful 11420221 L2C_Useful Ratio: 0.03405
Core_0_L2C_prefetch_useless 345299
Core_0_L2C_prefetch_late 7776810
Core_0_L2C_average_miss_latency 78.45911

Core_0_LLC_total_access 239808338
Core_0_LLC_total_hit 225516323 LLC_total_Hit Ratio: 0.94040
Core_0_LLC_total_miss 14292015
Core_0_LLC_loads 18218651
Core_0_LLC_load_hit 15447425 LLC_load_Hit Ratio: 0.84789
Core_0_LLC_load_miss 2771226
Core_0_LLC_RFOs 2217585
Core_0_LLC_RFO_hit 111553 LLC_RFO_Hit Ratio: 0.05030
Core_0_LLC_RFO_miss 2106032
Core_0_LLC_prefetches 207505258
Core_0_LLC_prefetch_hit 198102397 LLC_prefetch_Hit Ratio: 0.95469
Core_0_LLC_prefetch_miss 9402861
Core_0_LLC_writebacks 11866844
Core_0_LLC_writeback_hit 11854948 LLC_writeback_Hit Ratio: 0.99900
Core_0_LLC_writeback_miss 11896
Core_0_LLC_prefetch_requested 0
Core_0_LLC_prefetch_issued 0
Core_0_LLC_prefetch_useful 4854095 LLC_Useful Ratio: inf
Core_0_LLC_prefetch_useless 4552515
Core_0_LLC_prefetch_late 937534
Core_0_LLC_average_miss_latency 346.24960

Core_0_major_page_fault 0
Core_0_minor_page_fault 83038

 All Calls: 43987135
 Critical Calls: 43987135
------------------
Depth Distribution
------------------
depth 0: 0
depth 1: 40966136
depth 2: 39558356
depth 3: 37477289
depth 4: 35668203
depth 5: 32983294
depth 6: 29801105
depth 7: 25993716
depth 8: 23659631
depth 9: 19502605
depth 10: 17540648
depth 11: 14011950
depth 12: 10002456
depth 13: 5695247
depth 14: 1265757
depth 15: 1226905
depth 16: 3952
depth 17: 0
depth 18: 0
depth 19: 0
depth 20: 0
depth 21: 0
depth 22: 0
depth 23: 0
depth 24: 0
depth 25: 0
depth 26: 0
depth 27: 0
depth 28: 0
depth 29: 0
Total: 335357250
-----------------------------
-----------------------------
	Captured at Filter
-----------------------------
depth 0: 0
depth 1: 2458272
depth 2: 2428211
depth 3: 2451865
depth 4: 2304898
depth 5: 2218009
depth 6: 2003429
depth 7: 1976622
depth 8: 1831749
depth 9: 1732945
depth 10: 1473036
depth 11: 1102126
depth 12: 615570
depth 13: 347921
depth 14: 53444
depth 15: 29230
depth 16: 170
depth 17: 0
depth 18: 0
depth 19: 0
depth 20: 0
depth 21: 0
depth 22: 0
depth 23: 0
depth 24: 0
depth 25: 0
depth 26: 0
depth 27: 0
depth 28: 0
depth 29: 0
-----------------------------
-----------------------------
		Lost at Page
-----------------------------
depth 0: 0
depth 1: 1054116
depth 2: 1691159
depth 3: 2178329
depth 4: 2557196
depth 5: 2982063
depth 6: 3335453
depth 7: 3531026
depth 8: 3755581
depth 9: 3573064
depth 10: 3606182
depth 11: 3214782
depth 12: 2532591
depth 13: 1608429
depth 14: 371964
depth 15: 397522
depth 16: 492
depth 17: 0
depth 18: 0
depth 19: 0
depth 20: 0
depth 21: 0
depth 22: 0
depth 23: 0
depth 24: 0
depth 25: 0
depth 26: 0
depth 27: 0
depth 28: 0
depth 29: 0
-----------------------------
-----------------------------
	Lost due to PQ Size
-----------------------------
2130435
-----------------------------
ST read accesses: 41989307
ST write accesses: 1953980
PT read accesses: 2200377552
PT write accesses: 60851951
FILTER read accesses: 444419786
FILTER write accesses: 95079050
GHR read accesses: 223006206
GHR write accesses: 36372062
GHR counter read accesses: 1843798922
GHR counter write accesses: 99221805
ST tag read accesses: 17886818350
ST tag write accesses: 621014286
Channel_0_RQ_row_buffer_hit 7585813
Channel_0_RQ_row_buffer_miss 6691972
Channel_0_WQ_row_buffer_hit 1878205
Channel_0_WQ_row_buffer_miss 5626454
Channel_0_WQ_full 0
Channel_0_dbus_congested 11214163

avg_congested_cycle 11

EzSearch AVG IPC :0.95040: L2-Pf-HR :0.71421 : L2-HR :0.59658 Uful:0.03405
     > Finished combination: TraceType=770-tot Sim:2361000000 Prefetcher=L2spp_berti_src L1=no
