TRACE: [1183000000][GPT-Neo-1_3B]_[h16][s1024][d128] Warmup: 2000000 NumTraces: 1183000000
L1:next_line:L2:029-SecTOP-L2-MultiMarkovDelta_ip_stride_v4-MK2-P30
*************************************************
   ChampSim Multicore Out-of-Order Simulator
   Last compiled: Oct 26 2024 14:50:08
*************************************************

trace_0 770-tot_memTraces_v3/memTraces[1183000000][GPT-Neo-1_3B]_[h16][s1024][d128].champsim.xz
CPU 0 L1D next line prefetcher
MK1: Size: 128 TMAX: 64 TMIN: 32 MKPTHRESH: 40
MK2: Size: 256 TMAX: 32 TMIN: 16 MK2PTHRESH: 30
MK3: Size: 384 TMAX: 16 TMIN: 8 MK3PTHRESH: 25
MK4: Size: 512 TMAX: 8 TMIN: 0 MK4PTHRESH: 20
Stride Size: 512 Prefetch Degree: 15

CPU 0 L2C prefetcher
MAIN.cc ln 751 stats print skipped
CPU 0 L2C prefetcher initialized


Cache Size: 256
number of cache lines: 4096
CPU  0 inst:    1000000 cyc:     503467 now IPC :1.98623: AVG IPC :1.98623: L2-Pf-HR :0.73566: L2-HR :0.72252: (Sim:0h0m5s) 
CPU  0 inst:    2000003 cyc:     980638 now IPC :2.09569: AVG IPC :2.03949: L2-Pf-HR :0.74941: L2-HR :0.73581: (Sim:0h0m10s) 

Warmup complete CPU  0 instructions:    2000003 cycles:     980638 (Simulation time: 0 hr 0 min 10 sec) 

CPU  0 inst:    3000000 cyc:    1553539 now IPC :1.74550: AVG IPC :1.74550: L2-Pf-HR :0.77619: L2-HR :0.76421: (Sim:0h0m14s) 
CPU  0 inst:    4000000 cyc:    2124956 now IPC :1.75004: AVG IPC :1.74776: L2-Pf-HR :0.78533: L2-HR :0.77371: (Sim:0h0m19s) 
CPU  0 inst:    5000003 cyc:    2695523 now IPC :1.75265: AVG IPC :1.74939: L2-Pf-HR :0.78830: L2-HR :0.77674: (Sim:0h0m23s) 
CPU  0 inst:    6000001 cyc:    3269745 now IPC :1.74148: AVG IPC :1.74741: L2-Pf-HR :0.79005: L2-HR :0.77885: (Sim:0h0m28s) 
CPU  0 inst:    7000000 cyc:    3848205 now IPC :1.72873: AVG IPC :1.74364: L2-Pf-HR :0.79103: L2-HR :0.77998: (Sim:0h0m32s) 
CPU  0 inst:    8000000 cyc:    4421732 now IPC :1.74360: AVG IPC :1.74363: L2-Pf-HR :0.79082: L2-HR :0.77984: (Sim:0h0m37s) 
CPU  0 inst:    9000000 cyc:    4997766 now IPC :1.73601: AVG IPC :1.74254: L2-Pf-HR :0.79179: L2-HR :0.78080: (Sim:0h0m41s) 
CPU  0 inst:   10000000 cyc:    5584053 now IPC :1.70565: AVG IPC :1.73784: L2-Pf-HR :0.79305: L2-HR :0.78182: (Sim:0h0m45s) 
CPU  0 inst:   11000000 cyc:    6173074 now IPC :1.69773: AVG IPC :1.73329: L2-Pf-HR :0.79463: L2-HR :0.78298: (Sim:0h0m48s) 
CPU  0 inst:   12000000 cyc:    6765344 now IPC :1.68842: AVG IPC :1.72870: L2-Pf-HR :0.79667: L2-HR :0.78480: (Sim:0h0m51s) 
CPU  0 inst:   13000003 cyc:    7566946 now IPC :1.24751: AVG IPC :1.67013: L2-Pf-HR :0.79452: L2-HR :0.78341: (Sim:0h0m56s) 
CPU  0 inst:   14000002 cyc:    8137819 now IPC :1.75170: AVG IPC :1.67664: L2-Pf-HR :0.79506: L2-HR :0.78401: (Sim:0h1m0s) 
CPU  0 inst:   15000000 cyc:    8699543 now IPC :1.78023: AVG IPC :1.68418: L2-Pf-HR :0.79540: L2-HR :0.78440: (Sim:0h1m5s) 
CPU  0 inst:   16000000 cyc:    9263610 now IPC :1.77284: AVG IPC :1.69021: L2-Pf-HR :0.79579: L2-HR :0.78484: (Sim:0h1m9s) 
CPU  0 inst:   17000000 cyc:    9827965 now IPC :1.77193: AVG IPC :1.69543: L2-Pf-HR :0.79618: L2-HR :0.78530: (Sim:0h1m12s) 
CPU  0 inst:   18000003 cyc:   10396781 now IPC :1.75804: AVG IPC :1.69921: L2-Pf-HR :0.79653: L2-HR :0.78576: (Sim:0h1m16s) 
CPU  0 inst:   19000001 cyc:   10961746 now IPC :1.77002: AVG IPC :1.70322: L2-Pf-HR :0.79669: L2-HR :0.78605: (Sim:0h1m19s) 
CPU  0 inst:   20000000 cyc:   11524284 now IPC :1.77766: AVG IPC :1.70719: L2-Pf-HR :0.79657: L2-HR :0.78599: (Sim:0h1m22s) 
CPU  0 inst:   21000003 cyc:   12083718 now IPC :1.78753: AVG IPC :1.71124: L2-Pf-HR :0.79682: L2-HR :0.78625: (Sim:0h1m25s) 
CPU  0 inst:   22000000 cyc:   12638363 now IPC :1.80295: AVG IPC :1.71560: L2-Pf-HR :0.79679: L2-HR :0.78625: (Sim:0h1m28s) 
CPU  0 inst:   23000000 cyc:   13193851 now IPC :1.80022: AVG IPC :1.71945: L2-Pf-HR :0.79729: L2-HR :0.78669: (Sim:0h1m31s) 
CPU  0 inst:   24000000 cyc:   13884592 now IPC :1.44772: AVG IPC :1.70490: L2-Pf-HR :0.79706: L2-HR :0.78657: (Sim:0h1m34s) 
CPU  0 inst:   25000001 cyc:   14476368 now IPC :1.68983: AVG IPC :1.70424: L2-Pf-HR :0.79844: L2-HR :0.78785: (Sim:0h1m37s) 
CPU  0 inst:   26000002 cyc:   15043055 now IPC :1.76464: AVG IPC :1.70668: L2-Pf-HR :0.79998: L2-HR :0.78932: (Sim:0h1m40s) 
CPU  0 inst:   27000001 cyc:   15608821 now IPC :1.76751: AVG IPC :1.70903: L2-Pf-HR :0.80197: L2-HR :0.79120: (Sim:0h1m43s) 
CPU  0 inst:   28000000 cyc:   16169046 now IPC :1.78500: AVG IPC :1.71183: L2-Pf-HR :0.80391: L2-HR :0.79306: (Sim:0h1m46s) 
CPU  0 inst:   29000003 cyc:   16725738 now IPC :1.79633: AVG IPC :1.71482: L2-Pf-HR :0.80561: L2-HR :0.79469: (Sim:0h1m49s) 
CPU  0 inst:   30000000 cyc:   17285652 now IPC :1.78598: AVG IPC :1.71726: L2-Pf-HR :0.80725: L2-HR :0.79622: (Sim:0h1m52s) 
CPU  0 inst:   31000002 cyc:   17844684 now IPC :1.78881: AVG IPC :1.71963: L2-Pf-HR :0.80875: L2-HR :0.79760: (Sim:0h1m55s) 
CPU  0 inst:   32000000 cyc:   18625408 now IPC :1.28086: AVG IPC :1.70022: L2-Pf-HR :0.80916: L2-HR :0.79804: (Sim:0h1m58s) 
CPU  0 inst:   33000002 cyc:   19227238 now IPC :1.66160: AVG IPC :1.69895: L2-Pf-HR :0.80869: L2-HR :0.79750: (Sim:0h2m1s) 
CPU  0 inst:   34000000 cyc:   19812593 now IPC :1.70836: AVG IPC :1.69924: L2-Pf-HR :0.80827: L2-HR :0.79697: (Sim:0h2m5s) 
CPU  0 inst:   35000003 cyc:   20392352 now IPC :1.72486: AVG IPC :1.70000: L2-Pf-HR :0.80800: L2-HR :0.79667: (Sim:0h2m8s) 
CPU  0 inst:   36000000 cyc:   20984316 now IPC :1.68929: AVG IPC :1.69969: L2-Pf-HR :0.80773: L2-HR :0.79637: (Sim:0h2m12s) 
CPU  0 inst:   37000000 cyc:   21570480 now IPC :1.70601: AVG IPC :1.69987: L2-Pf-HR :0.80748: L2-HR :0.79612: (Sim:0h2m17s) 
CPU  0 inst:   38000000 cyc:   22156783 now IPC :1.70560: AVG IPC :1.70003: L2-Pf-HR :0.80722: L2-HR :0.79587: (Sim:0h2m20s) 
CPU  0 inst:   39000000 cyc:   22748713 now IPC :1.68939: AVG IPC :1.69974: L2-Pf-HR :0.80702: L2-HR :0.79567: (Sim:0h2m23s) 
CPU  0 inst:   40000000 cyc:   23331425 now IPC :1.71611: AVG IPC :1.70016: L2-Pf-HR :0.80669: L2-HR :0.79533: (Sim:0h2m26s) 
CPU  0 inst:   41000000 cyc:   23923541 now IPC :1.68886: AVG IPC :1.69987: L2-Pf-HR :0.80647: L2-HR :0.79509: (Sim:0h2m29s) 
CPU  0 inst:   42000002 cyc:   24514919 now IPC :1.69097: AVG IPC :1.69965: L2-Pf-HR :0.80624: L2-HR :0.79483: (Sim:0h2m32s) 
CPU  0 inst:   43000002 cyc:   25100148 now IPC :1.70873: AVG IPC :1.69987: L2-Pf-HR :0.80635: L2-HR :0.79486: (Sim:0h2m35s) 
CPU  0 inst:   44000000 cyc:   25915125 now IPC :1.22703: AVG IPC :1.68441: L2-Pf-HR :0.80564: L2-HR :0.79427: (Sim:0h2m38s) 
CPU  0 inst:   45000003 cyc:   26496590 now IPC :1.71980: AVG IPC :1.68522: L2-Pf-HR :0.80542: L2-HR :0.79408: (Sim:0h2m41s) 
CPU  0 inst:   46000002 cyc:   27060677 now IPC :1.77277: AVG IPC :1.68711: L2-Pf-HR :0.80529: L2-HR :0.79396: (Sim:0h2m44s) 
CPU  0 inst:   47000003 cyc:   27618349 now IPC :1.79317: AVG IPC :1.68933: L2-Pf-HR :0.80513: L2-HR :0.79382: (Sim:0h2m47s) 
CPU  0 inst:   48000000 cyc:   28180736 now IPC :1.77813: AVG IPC :1.69117: L2-Pf-HR :0.80498: L2-HR :0.79370: (Sim:0h2m50s) 
CPU  0 inst:   49000000 cyc:   28746930 now IPC :1.76618: AVG IPC :1.69270: L2-Pf-HR :0.80488: L2-HR :0.79364: (Sim:0h2m54s) 
CPU  0 inst:   50000002 cyc:   29312069 now IPC :1.76948: AVG IPC :1.69423: L2-Pf-HR :0.80476: L2-HR :0.79357: (Sim:0h2m58s) 
CPU  0 inst:   51000002 cyc:   29871070 now IPC :1.78891: AVG IPC :1.69606: L2-Pf-HR :0.80460: L2-HR :0.79346: (Sim:0h3m3s) 
CPU  0 inst:   52000000 cyc:   30433676 now IPC :1.77744: AVG IPC :1.69762: L2-Pf-HR :0.80444: L2-HR :0.79332: (Sim:0h3m7s) 
CPU  0 inst:   53000001 cyc:   30996656 now IPC :1.77626: AVG IPC :1.69909: L2-Pf-HR :0.80428: L2-HR :0.79318: (Sim:0h3m11s) 
CPU  0 inst:   54000001 cyc:   31555786 now IPC :1.78849: AVG IPC :1.70073: L2-Pf-HR :0.80415: L2-HR :0.79306: (Sim:0h3m16s) 
CPU  0 inst:   55000000 cyc:   32113372 now IPC :1.79344: AVG IPC :1.70239: L2-Pf-HR :0.80433: L2-HR :0.79322: (Sim:0h3m20s) 
CPU  0 inst:   56000000 cyc:   32826690 now IPC :1.40190: AVG IPC :1.69566: L2-Pf-HR :0.80423: L2-HR :0.79316: (Sim:0h3m25s) 
CPU  0 inst:   57000000 cyc:   33395973 now IPC :1.75660: AVG IPC :1.69673: L2-Pf-HR :0.80445: L2-HR :0.79339: (Sim:0h3m30s) 
CPU  0 inst:   58000000 cyc:   33961382 now IPC :1.76863: AVG IPC :1.69796: L2-Pf-HR :0.80516: L2-HR :0.79406: (Sim:0h3m34s) 
CPU  0 inst:   59000003 cyc:   34526899 now IPC :1.76830: AVG IPC :1.69915: L2-Pf-HR :0.80596: L2-HR :0.79482: (Sim:0h3m39s) 
CPU  0 inst:   60000000 cyc:   35090447 now IPC :1.77447: AVG IPC :1.70039: L2-Pf-HR :0.80673: L2-HR :0.79557: (Sim:0h3m43s) 
CPU  0 inst:   61000001 cyc:   35648118 now IPC :1.79317: AVG IPC :1.70188: L2-Pf-HR :0.80750: L2-HR :0.79630: (Sim:0h3m47s) 
CPU  0 inst:   62000001 cyc:   36203916 now IPC :1.79921: AVG IPC :1.70342: L2-Pf-HR :0.80818: L2-HR :0.79692: (Sim:0h3m51s) 
CPU  0 inst:   63000001 cyc:   36763989 now IPC :1.78548: AVG IPC :1.70470: L2-Pf-HR :0.80915: L2-HR :0.79780: (Sim:0h3m56s) 
CPU  0 inst:   64000000 cyc:   37569262 now IPC :1.24181: AVG IPC :1.69452: L2-Pf-HR :0.80865: L2-HR :0.79736: (Sim:0h4m0s) 
CPU  0 inst:   65000000 cyc:   38154039 now IPC :1.71005: AVG IPC :1.69476: L2-Pf-HR :0.80838: L2-HR :0.79705: (Sim:0h4m5s) 
CPU  0 inst:   66000001 cyc:   38735857 now IPC :1.71875: AVG IPC :1.69513: L2-Pf-HR :0.80817: L2-HR :0.79681: (Sim:0h4m9s) 
CPU  0 inst:   67000001 cyc:   39320236 now IPC :1.71122: AVG IPC :1.69538: L2-Pf-HR :0.80806: L2-HR :0.79668: (Sim:0h4m14s) 
CPU  0 inst:   68000000 cyc:   39902883 now IPC :1.71630: AVG IPC :1.69569: L2-Pf-HR :0.80787: L2-HR :0.79649: (Sim:0h4m18s) 
CPU  0 inst:   69000002 cyc:   40491910 now IPC :1.69772: AVG IPC :1.69572: L2-Pf-HR :0.80775: L2-HR :0.79637: (Sim:0h4m23s) 
CPU  0 inst:   70000002 cyc:   41088058 now IPC :1.67744: AVG IPC :1.69545: L2-Pf-HR :0.80761: L2-HR :0.79623: (Sim:0h4m27s) 
CPU  0 inst:   71000003 cyc:   41675094 now IPC :1.70347: AVG IPC :1.69556: L2-Pf-HR :0.80741: L2-HR :0.79604: (Sim:0h4m31s) 
CPU  0 inst:   72000000 cyc:   42275390 now IPC :1.66584: AVG IPC :1.69513: L2-Pf-HR :0.80724: L2-HR :0.79586: (Sim:0h4m36s) 
CPU  0 inst:   73000003 cyc:   42864854 now IPC :1.69646: AVG IPC :1.69515: L2-Pf-HR :0.80708: L2-HR :0.79568: (Sim:0h4m41s) 
CPU  0 inst:   74000003 cyc:   43461537 now IPC :1.67593: AVG IPC :1.69488: L2-Pf-HR :0.80696: L2-HR :0.79553: (Sim:0h4m45s) 
CPU  0 inst:   75000002 cyc:   44056281 now IPC :1.68139: AVG IPC :1.69469: L2-Pf-HR :0.80706: L2-HR :0.79558: (Sim:0h4m49s) 
CPU  0 inst:   76000000 cyc:   44864236 now IPC :1.23769: AVG IPC :1.68628: L2-Pf-HR :0.80638: L2-HR :0.79503: (Sim:0h4m52s) 
CPU  0 inst:   77000003 cyc:   45435881 now IPC :1.74934: AVG IPC :1.68709: L2-Pf-HR :0.80628: L2-HR :0.79493: (Sim:0h4m56s) 
CPU  0 inst:   78000001 cyc:   46002598 now IPC :1.76455: AVG IPC :1.68807: L2-Pf-HR :0.80617: L2-HR :0.79483: (Sim:0h5m1s) 
CPU  0 inst:   79000003 cyc:   46571374 now IPC :1.75816: AVG IPC :1.68894: L2-Pf-HR :0.80608: L2-HR :0.79476: (Sim:0h5m5s) 
CPU  0 inst:   80000000 cyc:   47138306 now IPC :1.76387: AVG IPC :1.68986: L2-Pf-HR :0.80600: L2-HR :0.79470: (Sim:0h5m10s) 
CPU  0 inst:   81000003 cyc:   47707342 now IPC :1.75736: AVG IPC :1.69068: L2-Pf-HR :0.80593: L2-HR :0.79465: (Sim:0h5m14s) 
CPU  0 inst:   82000002 cyc:   48273216 now IPC :1.76718: AVG IPC :1.69160: L2-Pf-HR :0.80587: L2-HR :0.79463: (Sim:0h5m18s) 
CPU  0 inst:   83000003 cyc:   48836000 now IPC :1.77688: AVG IPC :1.69260: L2-Pf-HR :0.80573: L2-HR :0.79450: (Sim:0h5m23s) 
CPU  0 inst:   84000000 cyc:   49399107 now IPC :1.77586: AVG IPC :1.69357: L2-Pf-HR :0.80560: L2-HR :0.79440: (Sim:0h5m27s) 
CPU  0 inst:   85000003 cyc:   49962193 now IPC :1.77593: AVG IPC :1.69452: L2-Pf-HR :0.80547: L2-HR :0.79428: (Sim:0h5m32s) 
CPU  0 inst:   86000000 cyc:   50525219 now IPC :1.77611: AVG IPC :1.69544: L2-Pf-HR :0.80544: L2-HR :0.79425: (Sim:0h5m36s) 
CPU  0 inst:   87000003 cyc:   51182555 now IPC :1.52130: AVG IPC :1.69316: L2-Pf-HR :0.80527: L2-HR :0.79411: (Sim:0h5m41s) 
CPU  0 inst:   88000000 cyc:   51802999 now IPC :1.61174: AVG IPC :1.69217: L2-Pf-HR :0.80553: L2-HR :0.79436: (Sim:0h5m46s) 
CPU  0 inst:   89000003 cyc:   52373832 now IPC :1.75183: AVG IPC :1.69283: L2-Pf-HR :0.80584: L2-HR :0.79465: (Sim:0h5m51s) 
CPU  0 inst:   90000003 cyc:   52933589 now IPC :1.78649: AVG IPC :1.69384: L2-Pf-HR :0.80638: L2-HR :0.79516: (Sim:0h5m55s) 
CPU  0 inst:   91000001 cyc:   53493277 now IPC :1.78671: AVG IPC :1.69483: L2-Pf-HR :0.80689: L2-HR :0.79565: (Sim:0h5m58s) 
CPU  0 inst:   92000000 cyc:   54054441 now IPC :1.78201: AVG IPC :1.69575: L2-Pf-HR :0.80741: L2-HR :0.79615: (Sim:0h6m1s) 
CPU  0 inst:   93000001 cyc:   54617793 now IPC :1.77509: AVG IPC :1.69659: L2-Pf-HR :0.80790: L2-HR :0.79661: (Sim:0h6m4s) 
CPU  0 inst:   94000000 cyc:   55177012 now IPC :1.78821: AVG IPC :1.69753: L2-Pf-HR :0.80830: L2-HR :0.79698: (Sim:0h6m7s) 
CPU  0 inst:   95000003 cyc:   55936519 now IPC :1.31665: AVG IPC :1.69227: L2-Pf-HR :0.80848: L2-HR :0.79716: (Sim:0h6m12s) 
CPU  0 inst:   96000000 cyc:   56571813 now IPC :1.57407: AVG IPC :1.69092: L2-Pf-HR :0.80828: L2-HR :0.79694: (Sim:0h6m17s) 
CPU  0 inst:   97000002 cyc:   57158139 now IPC :1.70554: AVG IPC :1.69107: L2-Pf-HR :0.80811: L2-HR :0.79675: (Sim:0h6m21s) 
CPU  0 inst:   98000001 cyc:   57753060 now IPC :1.68089: AVG IPC :1.69096: L2-Pf-HR :0.80795: L2-HR :0.79657: (Sim:0h6m25s) 
CPU  0 inst:   99000000 cyc:   58335981 now IPC :1.71550: AVG IPC :1.69121: L2-Pf-HR :0.80781: L2-HR :0.79642: (Sim:0h6m29s) 
CPU  0 inst:  100000000 cyc:   58919027 now IPC :1.71513: AVG IPC :1.69145: L2-Pf-HR :0.80770: L2-HR :0.79630: (Sim:0h6m33s) 
CPU  0 inst:  101000003 cyc:   59508025 now IPC :1.69780: AVG IPC :1.69152: L2-Pf-HR :0.80757: L2-HR :0.79618: (Sim:0h6m38s) 
CPU  0 inst:  102000003 cyc:   60094291 now IPC :1.70571: AVG IPC :1.69166: L2-Pf-HR :0.80748: L2-HR :0.79609: (Sim:0h6m42s) 
CPU  0 inst:  103000000 cyc:   60688297 now IPC :1.68348: AVG IPC :1.69158: L2-Pf-HR :0.80733: L2-HR :0.79594: (Sim:0h6m46s) 
CPU  0 inst:  104000000 cyc:   61275665 now IPC :1.70251: AVG IPC :1.69168: L2-Pf-HR :0.80720: L2-HR :0.79580: (Sim:0h6m50s) 
CPU  0 inst:  105000002 cyc:   61872175 now IPC :1.67642: AVG IPC :1.69153: L2-Pf-HR :0.80708: L2-HR :0.79567: (Sim:0h6m54s) 
CPU  0 inst:  106000003 cyc:   62452364 now IPC :1.72358: AVG IPC :1.69183: L2-Pf-HR :0.80703: L2-HR :0.79560: (Sim:0h6m57s) 
CPU  0 inst:  107000002 cyc:   63258739 now IPC :1.24012: AVG IPC :1.68599: L2-Pf-HR :0.80667: L2-HR :0.79527: (Sim:0h7m0s) 
CPU  0 inst:  108000000 cyc:   63857245 now IPC :1.67082: AVG IPC :1.68584: L2-Pf-HR :0.80655: L2-HR :0.79517: (Sim:0h7m3s) 
CPU  0 inst:  109000002 cyc:   64424143 now IPC :1.76399: AVG IPC :1.68654: L2-Pf-HR :0.80643: L2-HR :0.79506: (Sim:0h7m7s) 
CPU  0 inst:  110000001 cyc:   64995255 now IPC :1.75097: AVG IPC :1.68711: L2-Pf-HR :0.80637: L2-HR :0.79501: (Sim:0h7m12s) 
CPU  0 inst:  111000000 cyc:   65564931 now IPC :1.75538: AVG IPC :1.68772: L2-Pf-HR :0.80628: L2-HR :0.79493: (Sim:0h7m17s) 
CPU  0 inst:  112000000 cyc:   66140023 now IPC :1.73885: AVG IPC :1.68817: L2-Pf-HR :0.80621: L2-HR :0.79488: (Sim:0h7m21s) 
CPU  0 inst:  113000001 cyc:   66708477 now IPC :1.75916: AVG IPC :1.68878: L2-Pf-HR :0.80616: L2-HR :0.79485: (Sim:0h7m25s) 
CPU  0 inst:  114000002 cyc:   67273637 now IPC :1.76941: AVG IPC :1.68947: L2-Pf-HR :0.80608: L2-HR :0.79479: (Sim:0h7m30s) 
CPU  0 inst:  115000003 cyc:   67841695 now IPC :1.76039: AVG IPC :1.69007: L2-Pf-HR :0.80597: L2-HR :0.79469: (Sim:0h7m34s) 
CPU  0 inst:  116000000 cyc:   68410172 now IPC :1.75908: AVG IPC :1.69065: L2-Pf-HR :0.80589: L2-HR :0.79462: (Sim:0h7m39s) 
CPU  0 inst:  117000003 cyc:   68980596 now IPC :1.75309: AVG IPC :1.69118: L2-Pf-HR :0.80583: L2-HR :0.79456: (Sim:0h7m43s) 
CPU  0 inst:  118000000 cyc:   69546826 now IPC :1.76606: AVG IPC :1.69180: L2-Pf-HR :0.80584: L2-HR :0.79457: (Sim:0h7m47s) 
CPU  0 inst:  119000000 cyc:   70257504 now IPC :1.40711: AVG IPC :1.68888: L2-Pf-HR :0.80574: L2-HR :0.79449: (Sim:0h7m52s) 
CPU  0 inst:  120000000 cyc:   70825341 now IPC :1.76107: AVG IPC :1.68946: L2-Pf-HR :0.80585: L2-HR :0.79461: (Sim:0h7m56s) 
CPU  0 inst:  121000003 cyc:   71392994 now IPC :1.76164: AVG IPC :1.69004: L2-Pf-HR :0.80618: L2-HR :0.79491: (Sim:0h8m1s) 
CPU  0 inst:  122000003 cyc:   71964406 now IPC :1.75005: AVG IPC :1.69053: L2-Pf-HR :0.80656: L2-HR :0.79527: (Sim:0h8m5s) 
CPU  0 inst:  123000000 cyc:   72525191 now IPC :1.78321: AVG IPC :1.69125: L2-Pf-HR :0.80691: L2-HR :0.79561: (Sim:0h8m10s) 
CPU  0 inst:  124000000 cyc:   73086198 now IPC :1.78251: AVG IPC :1.69196: L2-Pf-HR :0.80726: L2-HR :0.79594: (Sim:0h8m14s) 
CPU  0 inst:  125000000 cyc:   73649277 now IPC :1.77595: AVG IPC :1.69261: L2-Pf-HR :0.80764: L2-HR :0.79629: (Sim:0h8m19s) 
CPU  0 inst:  126000003 cyc:   74210694 now IPC :1.78121: AVG IPC :1.69329: L2-Pf-HR :0.80806: L2-HR :0.79667: (Sim:0h8m23s) 
CPU  0 inst:  127000000 cyc:   75004668 now IPC :1.25948: AVG IPC :1.68864: L2-Pf-HR :0.80789: L2-HR :0.79653: (Sim:0h8m28s) 
CPU  0 inst:  128000000 cyc:   75589863 now IPC :1.70883: AVG IPC :1.68880: L2-Pf-HR :0.80778: L2-HR :0.79640: (Sim:0h8m32s) 
CPU  0 inst:  129000003 cyc:   76176799 now IPC :1.70377: AVG IPC :1.68892: L2-Pf-HR :0.80766: L2-HR :0.79626: (Sim:0h8m36s) 
CPU  0 inst:  130000002 cyc:   76755819 now IPC :1.72705: AVG IPC :1.68921: L2-Pf-HR :0.80755: L2-HR :0.79615: (Sim:0h8m40s) 
CPU  0 inst:  131000002 cyc:   77339651 now IPC :1.71282: AVG IPC :1.68939: L2-Pf-HR :0.80745: L2-HR :0.79604: (Sim:0h8m44s) 
CPU  0 inst:  132000000 cyc:   77927050 now IPC :1.70242: AVG IPC :1.68949: L2-Pf-HR :0.80737: L2-HR :0.79596: (Sim:0h8m49s) 
CPU  0 inst:  133000003 cyc:   78507797 now IPC :1.72193: AVG IPC :1.68973: L2-Pf-HR :0.80729: L2-HR :0.79589: (Sim:0h8m54s) 
CPU  0 inst:  134000002 cyc:   79100509 now IPC :1.68716: AVG IPC :1.68971: L2-Pf-HR :0.80720: L2-HR :0.79580: (Sim:0h8m58s) 
CPU  0 inst:  135000000 cyc:   79685142 now IPC :1.71047: AVG IPC :1.68987: L2-Pf-HR :0.80711: L2-HR :0.79571: (Sim:0h9m2s) 
CPU  0 inst:  136000000 cyc:   80271299 now IPC :1.70603: AVG IPC :1.68998: L2-Pf-HR :0.80702: L2-HR :0.79561: (Sim:0h9m6s) 
CPU  0 inst:  137000002 cyc:   80859320 now IPC :1.70062: AVG IPC :1.69006: L2-Pf-HR :0.80693: L2-HR :0.79550: (Sim:0h9m10s) 
CPU  0 inst:  138000002 cyc:   81442221 now IPC :1.71556: AVG IPC :1.69025: L2-Pf-HR :0.80699: L2-HR :0.79554: (Sim:0h9m13s) 
CPU  0 inst:  139000002 cyc:   82258995 now IPC :1.22433: AVG IPC :1.68557: L2-Pf-HR :0.80663: L2-HR :0.79523: (Sim:0h9m18s) 
CPU  0 inst:  140000000 cyc:   82838945 now IPC :1.72428: AVG IPC :1.68584: L2-Pf-HR :0.80656: L2-HR :0.79517: (Sim:0h9m23s) 
CPU  0 inst:  141000000 cyc:   83419333 now IPC :1.72299: AVG IPC :1.68610: L2-Pf-HR :0.80648: L2-HR :0.79509: (Sim:0h9m27s) 
CPU  0 inst:  142000002 cyc:   83997731 now IPC :1.72892: AVG IPC :1.68640: L2-Pf-HR :0.80644: L2-HR :0.79506: (Sim:0h9m32s) 
CPU  0 inst:  143000002 cyc:   84571681 now IPC :1.74231: AVG IPC :1.68678: L2-Pf-HR :0.80639: L2-HR :0.79502: (Sim:0h9m36s) 
CPU  0 inst:  144000000 cyc:   85143544 now IPC :1.74867: AVG IPC :1.68720: L2-Pf-HR :0.80635: L2-HR :0.79500: (Sim:0h9m41s) 
CPU  0 inst:  145000001 cyc:   85713808 now IPC :1.75358: AVG IPC :1.68765: L2-Pf-HR :0.80631: L2-HR :0.79497: (Sim:0h9m45s) 
CPU  0 inst:  146000002 cyc:   86285791 now IPC :1.74831: AVG IPC :1.68806: L2-Pf-HR :0.80624: L2-HR :0.79491: (Sim:0h9m49s) 
CPU  0 inst:  147000003 cyc:   86865005 now IPC :1.72648: AVG IPC :1.68832: L2-Pf-HR :0.80618: L2-HR :0.79487: (Sim:0h9m54s) 
CPU  0 inst:  148000000 cyc:   87440962 now IPC :1.73624: AVG IPC :1.68864: L2-Pf-HR :0.80612: L2-HR :0.79481: (Sim:0h9m58s) 
CPU  0 inst:  149000000 cyc:   88019392 now IPC :1.72882: AVG IPC :1.68890: L2-Pf-HR :0.80607: L2-HR :0.79477: (Sim:0h10m3s) 
CPU  0 inst:  150000001 cyc:   88597309 now IPC :1.73035: AVG IPC :1.68918: L2-Pf-HR :0.80613: L2-HR :0.79482: (Sim:0h10m7s) 
CPU  0 inst:  151000003 cyc:   89304042 now IPC :1.41496: AVG IPC :1.68698: L2-Pf-HR :0.80607: L2-HR :0.79478: (Sim:0h10m11s) 
CPU  0 inst:  152000000 cyc:   89869387 now IPC :1.76883: AVG IPC :1.68750: L2-Pf-HR :0.80622: L2-HR :0.79492: (Sim:0h10m16s) 
CPU  0 inst:  153000003 cyc:   90431892 now IPC :1.77777: AVG IPC :1.68807: L2-Pf-HR :0.80653: L2-HR :0.79521: (Sim:0h10m20s) 
CPU  0 inst:  154000002 cyc:   90996592 now IPC :1.77085: AVG IPC :1.68859: L2-Pf-HR :0.80685: L2-HR :0.79551: (Sim:0h10m25s) 
CPU  0 inst:  155000000 cyc:   91555104 now IPC :1.79047: AVG IPC :1.68922: L2-Pf-HR :0.80717: L2-HR :0.79583: (Sim:0h10m29s) 
CPU  0 inst:  156000000 cyc:   92114386 now IPC :1.78801: AVG IPC :1.68982: L2-Pf-HR :0.80745: L2-HR :0.79609: (Sim:0h10m33s) 
CPU  0 inst:  157000003 cyc:   92675273 now IPC :1.78290: AVG IPC :1.69039: L2-Pf-HR :0.80769: L2-HR :0.79631: (Sim:0h10m38s) 
CPU  0 inst:  158000003 cyc:   93391942 now IPC :1.39534: AVG IPC :1.68811: L2-Pf-HR :0.80784: L2-HR :0.79645: (Sim:0h10m42s) 
CPU  0 inst:  159000002 cyc:   94046158 now IPC :1.52855: AVG IPC :1.68698: L2-Pf-HR :0.80774: L2-HR :0.79635: (Sim:0h10m47s) 
CPU  0 inst:  160000000 cyc:   94640754 now IPC :1.68181: AVG IPC :1.68695: L2-Pf-HR :0.80762: L2-HR :0.79621: (Sim:0h10m51s) 
CPU  0 inst:  161000003 cyc:   95219157 now IPC :1.72890: AVG IPC :1.68721: L2-Pf-HR :0.80753: L2-HR :0.79612: (Sim:0h10m56s) 
CPU  0 inst:  162000001 cyc:   95800079 now IPC :1.72140: AVG IPC :1.68742: L2-Pf-HR :0.80747: L2-HR :0.79604: (Sim:0h11m0s) 
CPU  0 inst:  163000000 cyc:   96380333 now IPC :1.72338: AVG IPC :1.68764: L2-Pf-HR :0.80737: L2-HR :0.79595: (Sim:0h11m5s) 
CPU  0 inst:  164000000 cyc:   96960542 now IPC :1.72352: AVG IPC :1.68785: L2-Pf-HR :0.80730: L2-HR :0.79589: (Sim:0h11m9s) 
CPU  0 inst:  165000003 cyc:   97550151 now IPC :1.69604: AVG IPC :1.68790: L2-Pf-HR :0.80723: L2-HR :0.79582: (Sim:0h11m14s) 
CPU  0 inst:  166000000 cyc:   98131066 now IPC :1.72142: AVG IPC :1.68810: L2-Pf-HR :0.80714: L2-HR :0.79572: (Sim:0h11m18s) 
CPU  0 inst:  167000003 cyc:   98715291 now IPC :1.71167: AVG IPC :1.68824: L2-Pf-HR :0.80707: L2-HR :0.79565: (Sim:0h11m22s) 
CPU  0 inst:  168000000 cyc:   99307821 now IPC :1.68767: AVG IPC :1.68824: L2-Pf-HR :0.80697: L2-HR :0.79554: (Sim:0h11m27s) 
CPU  0 inst:  169000000 cyc:   99891364 now IPC :1.71367: AVG IPC :1.68839: L2-Pf-HR :0.80694: L2-HR :0.79550: (Sim:0h11m31s) 
CPU  0 inst:  170000001 cyc:  100656352 now IPC :1.30721: AVG IPC :1.68547: L2-Pf-HR :0.80673: L2-HR :0.79531: (Sim:0h11m36s) 
CPU  0 inst:  171000001 cyc:  101281621 now IPC :1.59931: AVG IPC :1.68493: L2-Pf-HR :0.80664: L2-HR :0.79524: (Sim:0h11m40s) 
CPU  0 inst:  172000000 cyc:  101853193 now IPC :1.74956: AVG IPC :1.68529: L2-Pf-HR :0.80660: L2-HR :0.79520: (Sim:0h11m45s) 
CPU  0 inst:  173000003 cyc:  102420329 now IPC :1.76325: AVG IPC :1.68573: L2-Pf-HR :0.80653: L2-HR :0.79514: (Sim:0h11m49s) 
CPU  0 inst:  174000000 cyc:  102989954 now IPC :1.75554: AVG IPC :1.68612: L2-Pf-HR :0.80646: L2-HR :0.79507: (Sim:0h11m53s) 
CPU  0 inst:  175000000 cyc:  103557217 now IPC :1.76285: AVG IPC :1.68654: L2-Pf-HR :0.80641: L2-HR :0.79504: (Sim:0h11m58s) 
CPU  0 inst:  176000000 cyc:  104121326 now IPC :1.77271: AVG IPC :1.68702: L2-Pf-HR :0.80637: L2-HR :0.79501: (Sim:0h12m2s) 
CPU  0 inst:  177000003 cyc:  104684072 now IPC :1.77701: AVG IPC :1.68750: L2-Pf-HR :0.80631: L2-HR :0.79496: (Sim:0h12m7s) 
CPU  0 inst:  178000001 cyc:  105245912 now IPC :1.77986: AVG IPC :1.68800: L2-Pf-HR :0.80625: L2-HR :0.79491: (Sim:0h12m11s) 
CPU  0 inst:  179000002 cyc:  105811722 now IPC :1.76738: AVG IPC :1.68843: L2-Pf-HR :0.80620: L2-HR :0.79486: (Sim:0h12m15s) 
CPU  0 inst:  180000000 cyc:  106381290 now IPC :1.75571: AVG IPC :1.68879: L2-Pf-HR :0.80612: L2-HR :0.79480: (Sim:0h12m20s) 
CPU  0 inst:  181000001 cyc:  106937324 now IPC :1.79845: AVG IPC :1.68937: L2-Pf-HR :0.80614: L2-HR :0.79481: (Sim:0h12m24s) 
CPU  0 inst:  182000003 cyc:  107643522 now IPC :1.41604: AVG IPC :1.68756: L2-Pf-HR :0.80604: L2-HR :0.79473: (Sim:0h12m29s) 
CPU  0 inst:  183000001 cyc:  108218845 now IPC :1.73815: AVG IPC :1.68783: L2-Pf-HR :0.80612: L2-HR :0.79481: (Sim:0h12m33s) 
CPU  0 inst:  184000000 cyc:  108781532 now IPC :1.77719: AVG IPC :1.68830: L2-Pf-HR :0.80629: L2-HR :0.79497: (Sim:0h12m37s) 
CPU  0 inst:  185000003 cyc:  109343799 now IPC :1.77852: AVG IPC :1.68877: L2-Pf-HR :0.80652: L2-HR :0.79519: (Sim:0h12m40s) 
CPU  0 inst:  186000002 cyc:  109906361 now IPC :1.77758: AVG IPC :1.68922: L2-Pf-HR :0.80675: L2-HR :0.79541: (Sim:0h12m45s) 
CPU  0 inst:  187000000 cyc:  110469874 now IPC :1.77458: AVG IPC :1.68966: L2-Pf-HR :0.80699: L2-HR :0.79564: (Sim:0h12m49s) 
CPU  0 inst:  188000000 cyc:  111030091 now IPC :1.78502: AVG IPC :1.69015: L2-Pf-HR :0.80721: L2-HR :0.79585: (Sim:0h12m54s) 
CPU  0 inst:  189000001 cyc:  111588527 now IPC :1.79072: AVG IPC :1.69066: L2-Pf-HR :0.80746: L2-HR :0.79607: (Sim:0h12m58s) 
CPU  0 inst:  190000002 cyc:  112374879 now IPC :1.27170: AVG IPC :1.68770: L2-Pf-HR :0.80741: L2-HR :0.79604: (Sim:0h13m3s) 
CPU  0 inst:  191000000 cyc:  112966355 now IPC :1.69068: AVG IPC :1.68772: L2-Pf-HR :0.80731: L2-HR :0.79593: (Sim:0h13m7s) 
CPU  0 inst:  192000000 cyc:  113548204 now IPC :1.71866: AVG IPC :1.68788: L2-Pf-HR :0.80723: L2-HR :0.79584: (Sim:0h13m10s) 
CPU  0 inst:  193000000 cyc:  114128227 now IPC :1.72407: AVG IPC :1.68806: L2-Pf-HR :0.80716: L2-HR :0.79576: (Sim:0h13m15s) 
CPU  0 inst:  194000001 cyc:  114709662 now IPC :1.71988: AVG IPC :1.68822: L2-Pf-HR :0.80709: L2-HR :0.79569: (Sim:0h13m19s) 
CPU  0 inst:  195000001 cyc:  115293651 now IPC :1.71236: AVG IPC :1.68835: L2-Pf-HR :0.80704: L2-HR :0.79564: (Sim:0h13m23s) 
CPU  0 inst:  196000000 cyc:  115885613 now IPC :1.68930: AVG IPC :1.68835: L2-Pf-HR :0.80698: L2-HR :0.79558: (Sim:0h13m28s) 
CPU  0 inst:  197000001 cyc:  116472356 now IPC :1.70433: AVG IPC :1.68843: L2-Pf-HR :0.80693: L2-HR :0.79553: (Sim:0h13m31s) 
CPU  0 inst:  198000001 cyc:  117059726 now IPC :1.70250: AVG IPC :1.68850: L2-Pf-HR :0.80685: L2-HR :0.79545: (Sim:0h13m34s) 
CPU  0 inst:  199000003 cyc:  117648236 now IPC :1.69921: AVG IPC :1.68856: L2-Pf-HR :0.80679: L2-HR :0.79539: (Sim:0h13m37s) 
CPU  0 inst:  200000000 cyc:  118232504 now IPC :1.71154: AVG IPC :1.68867: L2-Pf-HR :0.80674: L2-HR :0.79533: (Sim:0h13m40s) 
CPU  0 inst:  201000002 cyc:  118830707 now IPC :1.67168: AVG IPC :1.68859: L2-Pf-HR :0.80676: L2-HR :0.79533: (Sim:0h13m43s) 
CPU  0 inst:  202000001 cyc:  119644746 now IPC :1.22844: AVG IPC :1.68543: L2-Pf-HR :0.80652: L2-HR :0.79513: (Sim:0h13m48s) 
CPU  0 inst:  203000003 cyc:  120222686 now IPC :1.73029: AVG IPC :1.68565: L2-Pf-HR :0.80649: L2-HR :0.79510: (Sim:0h13m52s) 
CPU  0 inst:  204000000 cyc:  120791632 now IPC :1.75763: AVG IPC :1.68599: L2-Pf-HR :0.80643: L2-HR :0.79505: (Sim:0h13m57s) 
CPU  0 inst:  205000000 cyc:  121362352 now IPC :1.75217: AVG IPC :1.68630: L2-Pf-HR :0.80639: L2-HR :0.79501: (Sim:0h14m0s) 
CPU  0 inst:  206000003 cyc:  121927929 now IPC :1.76811: AVG IPC :1.68669: L2-Pf-HR :0.80634: L2-HR :0.79497: (Sim:0h14m3s) 
CPU  0 inst:  207000000 cyc:  122495350 now IPC :1.76235: AVG IPC :1.68704: L2-Pf-HR :0.80630: L2-HR :0.79494: (Sim:0h14m6s) 
CPU  0 inst:  208000000 cyc:  123064227 now IPC :1.75785: AVG IPC :1.68737: L2-Pf-HR :0.80627: L2-HR :0.79492: (Sim:0h14m9s) 
CPU  0 inst:  209000003 cyc:  123630733 now IPC :1.76521: AVG IPC :1.68773: L2-Pf-HR :0.80622: L2-HR :0.79487: (Sim:0h14m13s) 
CPU  0 inst:  210000001 cyc:  124196789 now IPC :1.76661: AVG IPC :1.68809: L2-Pf-HR :0.80616: L2-HR :0.79483: (Sim:0h14m16s) 
CPU  0 inst:  211000000 cyc:  124760460 now IPC :1.77408: AVG IPC :1.68848: L2-Pf-HR :0.80612: L2-HR :0.79479: (Sim:0h14m19s) 
CPU  0 inst:  212000000 cyc:  125326992 now IPC :1.76513: AVG IPC :1.68883: L2-Pf-HR :0.80610: L2-HR :0.79477: (Sim:0h14m22s) 
CPU  0 inst:  213000000 cyc:  125889642 now IPC :1.77730: AVG IPC :1.68923: L2-Pf-HR :0.80614: L2-HR :0.79481: (Sim:0h14m26s) 
CPU  0 inst:  214000001 cyc:  126602476 now IPC :1.40285: AVG IPC :1.68760: L2-Pf-HR :0.80608: L2-HR :0.79476: (Sim:0h14m31s) 
CPU  0 inst:  215000003 cyc:  127171215 now IPC :1.75828: AVG IPC :1.68792: L2-Pf-HR :0.80615: L2-HR :0.79483: (Sim:0h14m35s) 
CPU  0 inst:  216000000 cyc:  127740686 now IPC :1.75601: AVG IPC :1.68823: L2-Pf-HR :0.80636: L2-HR :0.79503: (Sim:0h14m39s) 
CPU  0 inst:  217000003 cyc:  128307475 now IPC :1.76433: AVG IPC :1.68857: L2-Pf-HR :0.80657: L2-HR :0.79523: (Sim:0h14m43s) 
CPU  0 inst:  218000003 cyc:  128868331 now IPC :1.78299: AVG IPC :1.68898: L2-Pf-HR :0.80678: L2-HR :0.79543: (Sim:0h14m48s) 
CPU  0 inst:  219000002 cyc:  129430359 now IPC :1.77927: AVG IPC :1.68938: L2-Pf-HR :0.80699: L2-HR :0.79562: (Sim:0h14m52s) 
CPU  0 inst:  220000000 cyc:  129994627 now IPC :1.77220: AVG IPC :1.68974: L2-Pf-HR :0.80716: L2-HR :0.79578: (Sim:0h14m57s) 
CPU  0 inst:  221000002 cyc:  130549511 now IPC :1.80218: AVG IPC :1.69022: L2-Pf-HR :0.80747: L2-HR :0.79606: (Sim:0h15m0s) 
CPU  0 inst:  222000003 cyc:  131370232 now IPC :1.21844: AVG IPC :1.68725: L2-Pf-HR :0.80724: L2-HR :0.79585: (Sim:0h15m5s) 
CPU  0 inst:  223000002 cyc:  131954628 now IPC :1.71117: AVG IPC :1.68736: L2-Pf-HR :0.80717: L2-HR :0.79578: (Sim:0h15m10s) 
CPU  0 inst:  224000000 cyc:  132537815 now IPC :1.71471: AVG IPC :1.68748: L2-Pf-HR :0.80711: L2-HR :0.79570: (Sim:0h15m15s) 
CPU  0 inst:  225000001 cyc:  133117993 now IPC :1.72361: AVG IPC :1.68764: L2-Pf-HR :0.80705: L2-HR :0.79564: (Sim:0h15m19s) 
CPU  0 inst:  226000001 cyc:  133698352 now IPC :1.72307: AVG IPC :1.68779: L2-Pf-HR :0.80699: L2-HR :0.79559: (Sim:0h15m24s) 
CPU  0 inst:  227000000 cyc:  134292300 now IPC :1.68365: AVG IPC :1.68777: L2-Pf-HR :0.80696: L2-HR :0.79555: (Sim:0h15m28s) 
CPU  0 inst:  228000000 cyc:  134873753 now IPC :1.71983: AVG IPC :1.68791: L2-Pf-HR :0.80691: L2-HR :0.79551: (Sim:0h15m33s) 
CPU  0 inst:  229000003 cyc:  135456675 now IPC :1.71550: AVG IPC :1.68803: L2-Pf-HR :0.80685: L2-HR :0.79545: (Sim:0h15m37s) 
CPU  0 inst:  230000002 cyc:  136047900 now IPC :1.69140: AVG IPC :1.68805: L2-Pf-HR :0.80680: L2-HR :0.79540: (Sim:0h15m42s) 
CPU  0 inst:  231000000 cyc:  136638213 now IPC :1.69401: AVG IPC :1.68807: L2-Pf-HR :0.80675: L2-HR :0.79534: (Sim:0h15m47s) 
CPU  0 inst:  232000000 cyc:  137237192 now IPC :1.66951: AVG IPC :1.68799: L2-Pf-HR :0.80673: L2-HR :0.79531: (Sim:0h15m51s) 
CPU  0 inst:  233000001 cyc:  137889322 now IPC :1.53344: AVG IPC :1.68726: L2-Pf-HR :0.80670: L2-HR :0.79528: (Sim:0h15m56s) 
CPU  0 inst:  234000001 cyc:  138635608 now IPC :1.33997: AVG IPC :1.68537: L2-Pf-HR :0.80654: L2-HR :0.79515: (Sim:0h16m1s) 
CPU  0 inst:  235000002 cyc:  139208307 now IPC :1.74612: AVG IPC :1.68562: L2-Pf-HR :0.80650: L2-HR :0.79511: (Sim:0h16m5s) 
CPU  0 inst:  236000000 cyc:  139769309 now IPC :1.78252: AVG IPC :1.68602: L2-Pf-HR :0.80645: L2-HR :0.79507: (Sim:0h16m10s) 
CPU  0 inst:  237000000 cyc:  140333268 now IPC :1.77318: AVG IPC :1.68637: L2-Pf-HR :0.80642: L2-HR :0.79504: (Sim:0h16m15s) 
CPU  0 inst:  238000003 cyc:  140899286 now IPC :1.76673: AVG IPC :1.68669: L2-Pf-HR :0.80639: L2-HR :0.79501: (Sim:0h16m19s) 
CPU  0 inst:  239000001 cyc:  141465966 now IPC :1.76466: AVG IPC :1.68701: L2-Pf-HR :0.80636: L2-HR :0.79499: (Sim:0h16m24s) 
CPU  0 inst:  240000000 cyc:  142029964 now IPC :1.77305: AVG IPC :1.68735: L2-Pf-HR :0.80633: L2-HR :0.79498: (Sim:0h16m28s) 
CPU  0 inst:  241000001 cyc:  142596738 now IPC :1.76437: AVG IPC :1.68766: L2-Pf-HR :0.80629: L2-HR :0.79494: (Sim:0h16m33s) 
CPU  0 inst:  242000001 cyc:  143159200 now IPC :1.77790: AVG IPC :1.68802: L2-Pf-HR :0.80626: L2-HR :0.79491: (Sim:0h16m37s) 
CPU  0 inst:  243000003 cyc:  143721317 now IPC :1.77899: AVG IPC :1.68838: L2-Pf-HR :0.80621: L2-HR :0.79487: (Sim:0h16m42s) 
CPU  0 inst:  244000000 cyc:  144279085 now IPC :1.79285: AVG IPC :1.68878: L2-Pf-HR :0.80621: L2-HR :0.79487: (Sim:0h16m46s) 
CPU  0 inst:  245000001 cyc:  144979391 now IPC :1.42795: AVG IPC :1.68751: L2-Pf-HR :0.80612: L2-HR :0.79480: (Sim:0h16m51s) 
CPU  0 inst:  246000000 cyc:  145558651 now IPC :1.72634: AVG IPC :1.68767: L2-Pf-HR :0.80622: L2-HR :0.79488: (Sim:0h16m56s) 
CPU  0 inst:  247000003 cyc:  146122071 now IPC :1.77488: AVG IPC :1.68801: L2-Pf-HR :0.80634: L2-HR :0.79500: (Sim:0h16m59s) 
CPU  0 inst:  248000000 cyc:  146689369 now IPC :1.76274: AVG IPC :1.68830: L2-Pf-HR :0.80653: L2-HR :0.79518: (Sim:0h17m2s) 
CPU  0 inst:  249000003 cyc:  147253983 now IPC :1.77113: AVG IPC :1.68862: L2-Pf-HR :0.80673: L2-HR :0.79537: (Sim:0h17m6s) 
CPU  0 inst:  250000000 cyc:  147811482 now IPC :1.79372: AVG IPC :1.68902: L2-Pf-HR :0.80691: L2-HR :0.79555: (Sim:0h17m10s) 
CPU  0 inst:  251000000 cyc:  148371381 now IPC :1.78604: AVG IPC :1.68939: L2-Pf-HR :0.80711: L2-HR :0.79573: (Sim:0h17m15s) 
CPU  0 inst:  252000000 cyc:  148932051 now IPC :1.78358: AVG IPC :1.68974: L2-Pf-HR :0.80728: L2-HR :0.79589: (Sim:0h17m20s) 
CPU  0 inst:  253000000 cyc:  149720113 now IPC :1.26894: AVG IPC :1.68751: L2-Pf-HR :0.80729: L2-HR :0.79591: (Sim:0h17m25s) 
CPU  0 inst:  254000002 cyc:  150312126 now IPC :1.68916: AVG IPC :1.68752: L2-Pf-HR :0.80724: L2-HR :0.79584: (Sim:0h17m30s) 
CPU  0 inst:  255000000 cyc:  150901188 now IPC :1.69761: AVG IPC :1.68756: L2-Pf-HR :0.80718: L2-HR :0.79577: (Sim:0h17m34s) 
CPU  0 inst:  256000000 cyc:  151476863 now IPC :1.73709: AVG IPC :1.68775: L2-Pf-HR :0.80714: L2-HR :0.79573: (Sim:0h17m39s) 
CPU  0 inst:  257000003 cyc:  152059305 now IPC :1.71691: AVG IPC :1.68786: L2-Pf-HR :0.80709: L2-HR :0.79568: (Sim:0h17m43s) 
CPU  0 inst:  258000002 cyc:  152649369 now IPC :1.69473: AVG IPC :1.68789: L2-Pf-HR :0.80705: L2-HR :0.79564: (Sim:0h17m48s) 
CPU  0 inst:  259000001 cyc:  153229031 now IPC :1.72514: AVG IPC :1.68803: L2-Pf-HR :0.80701: L2-HR :0.79560: (Sim:0h17m52s) 
CPU  0 inst:  260000000 cyc:  153818412 now IPC :1.69669: AVG IPC :1.68806: L2-Pf-HR :0.80698: L2-HR :0.79557: (Sim:0h17m57s) 
CPU  0 inst:  261000002 cyc:  154412671 now IPC :1.68277: AVG IPC :1.68804: L2-Pf-HR :0.80692: L2-HR :0.79551: (Sim:0h18m1s) 
CPU  0 inst:  262000001 cyc:  155000822 now IPC :1.70024: AVG IPC :1.68809: L2-Pf-HR :0.80689: L2-HR :0.79547: (Sim:0h18m6s) 
CPU  0 inst:  263000001 cyc:  155600348 now IPC :1.66798: AVG IPC :1.68801: L2-Pf-HR :0.80684: L2-HR :0.79541: (Sim:0h18m10s) 
CPU  0 inst:  264000000 cyc:  156187078 now IPC :1.70436: AVG IPC :1.68807: L2-Pf-HR :0.80683: L2-HR :0.79540: (Sim:0h18m15s) 
CPU  0 inst:  265000000 cyc:  157000231 now IPC :1.22978: AVG IPC :1.68569: L2-Pf-HR :0.80669: L2-HR :0.79527: (Sim:0h18m20s) 
CPU  0 inst:  266000001 cyc:  157576103 now IPC :1.73650: AVG IPC :1.68587: L2-Pf-HR :0.80664: L2-HR :0.79524: (Sim:0h18m24s) 
CPU  0 inst:  267000001 cyc:  158142523 now IPC :1.76547: AVG IPC :1.68616: L2-Pf-HR :0.80661: L2-HR :0.79521: (Sim:0h18m29s) 
CPU  0 inst:  268000000 cyc:  158704117 now IPC :1.78064: AVG IPC :1.68650: L2-Pf-HR :0.80659: L2-HR :0.79519: (Sim:0h18m33s) 
CPU  0 inst:  269000001 cyc:  159264733 now IPC :1.78375: AVG IPC :1.68684: L2-Pf-HR :0.80656: L2-HR :0.79516: (Sim:0h18m37s) 
CPU  0 inst:  270000002 cyc:  159830551 now IPC :1.76735: AVG IPC :1.68713: L2-Pf-HR :0.80654: L2-HR :0.79515: (Sim:0h18m41s) 
CPU  0 inst:  271000002 cyc:  160393363 now IPC :1.77679: AVG IPC :1.68744: L2-Pf-HR :0.80652: L2-HR :0.79514: (Sim:0h18m45s) 
CPU  0 inst:  272000000 cyc:  160962251 now IPC :1.75781: AVG IPC :1.68769: L2-Pf-HR :0.80648: L2-HR :0.79511: (Sim:0h18m49s) 
CPU  0 inst:  273000000 cyc:  161523231 now IPC :1.78259: AVG IPC :1.68803: L2-Pf-HR :0.80644: L2-HR :0.79507: (Sim:0h18m54s) 
CPU  0 inst:  274000001 cyc:  162082087 now IPC :1.78937: AVG IPC :1.68838: L2-Pf-HR :0.80640: L2-HR :0.79504: (Sim:0h18m58s) 
CPU  0 inst:  275000000 cyc:  162642081 now IPC :1.78573: AVG IPC :1.68871: L2-Pf-HR :0.80637: L2-HR :0.79501: (Sim:0h19m2s) 
CPU  0 inst:  276000000 cyc:  163201422 now IPC :1.78782: AVG IPC :1.68906: L2-Pf-HR :0.80640: L2-HR :0.79504: (Sim:0h19m6s) 
CPU  0 inst:  277000003 cyc:  163921266 now IPC :1.38919: AVG IPC :1.68773: L2-Pf-HR :0.80635: L2-HR :0.79500: (Sim:0h19m10s) 
CPU  0 inst:  278000003 cyc:  164491400 now IPC :1.75397: AVG IPC :1.68796: L2-Pf-HR :0.80641: L2-HR :0.79506: (Sim:0h19m14s) 
CPU  0 inst:  279000003 cyc:  165054182 now IPC :1.77689: AVG IPC :1.68827: L2-Pf-HR :0.80656: L2-HR :0.79520: (Sim:0h19m18s) 
CPU  0 inst:  280000000 cyc:  165617826 now IPC :1.77416: AVG IPC :1.68856: L2-Pf-HR :0.80673: L2-HR :0.79536: (Sim:0h19m22s) 
CPU  0 inst:  281000000 cyc:  166185452 now IPC :1.76172: AVG IPC :1.68881: L2-Pf-HR :0.80688: L2-HR :0.79551: (Sim:0h19m26s) 
CPU  0 inst:  282000001 cyc:  166750077 now IPC :1.77109: AVG IPC :1.68909: L2-Pf-HR :0.80704: L2-HR :0.79566: (Sim:0h19m30s) 
CPU  0 inst:  283000001 cyc:  167308954 now IPC :1.78930: AVG IPC :1.68943: L2-Pf-HR :0.80717: L2-HR :0.79578: (Sim:0h19m34s) 
CPU  0 inst:  284000000 cyc:  167862605 now IPC :1.80619: AVG IPC :1.68982: L2-Pf-HR :0.80742: L2-HR :0.79600: (Sim:0h19m38s) 
CPU  0 inst:  285000002 cyc:  168668297 now IPC :1.24117: AVG IPC :1.68766: L2-Pf-HR :0.80726: L2-HR :0.79587: (Sim:0h19m41s) 
CPU  0 inst:  286000000 cyc:  169255439 now IPC :1.70316: AVG IPC :1.68772: L2-Pf-HR :0.80720: L2-HR :0.79580: (Sim:0h19m45s) 
CPU  0 inst:  287000002 cyc:  169841311 now IPC :1.70686: AVG IPC :1.68778: L2-Pf-HR :0.80716: L2-HR :0.79575: (Sim:0h19m49s) 
CPU  0 inst:  288000000 cyc:  170431044 now IPC :1.69568: AVG IPC :1.68781: L2-Pf-HR :0.80712: L2-HR :0.79571: (Sim:0h19m53s) 
CPU  0 inst:  289000003 cyc:  171015920 now IPC :1.70977: AVG IPC :1.68789: L2-Pf-HR :0.80707: L2-HR :0.79566: (Sim:0h19m57s) 
CPU  0 inst:  290000001 cyc:  171603937 now IPC :1.70063: AVG IPC :1.68793: L2-Pf-HR :0.80704: L2-HR :0.79563: (Sim:0h20m2s) 
CPU  0 inst:  291000003 cyc:  172189085 now IPC :1.70897: AVG IPC :1.68800: L2-Pf-HR :0.80700: L2-HR :0.79559: (Sim:0h20m5s) 
CPU  0 inst:  292000000 cyc:  172770613 now IPC :1.71960: AVG IPC :1.68811: L2-Pf-HR :0.80696: L2-HR :0.79555: (Sim:0h20m9s) 
CPU  0 inst:  293000000 cyc:  173367852 now IPC :1.67437: AVG IPC :1.68806: L2-Pf-HR :0.80692: L2-HR :0.79551: (Sim:0h20m14s) 
CPU  0 inst:  294000002 cyc:  173960339 now IPC :1.68780: AVG IPC :1.68806: L2-Pf-HR :0.80688: L2-HR :0.79546: (Sim:0h20m18s) 
CPU  0 inst:  295000001 cyc:  174550074 now IPC :1.69568: AVG IPC :1.68809: L2-Pf-HR :0.80685: L2-HR :0.79543: (Sim:0h20m23s) 
CPU  0 inst:  296000000 cyc:  175151442 now IPC :1.66287: AVG IPC :1.68800: L2-Pf-HR :0.80686: L2-HR :0.79543: (Sim:0h20m27s) 
CPU  0 inst:  297000002 cyc:  175962360 now IPC :1.23317: AVG IPC :1.68589: L2-Pf-HR :0.80671: L2-HR :0.79530: (Sim:0h20m32s) 
CPU  0 inst:  298000003 cyc:  176532599 now IPC :1.75365: AVG IPC :1.68611: L2-Pf-HR :0.80668: L2-HR :0.79528: (Sim:0h20m36s) 
CPU  0 inst:  299000001 cyc:  177101624 now IPC :1.75739: AVG IPC :1.68634: L2-Pf-HR :0.80666: L2-HR :0.79526: (Sim:0h20m39s) 
CPU  0 inst:  300000000 cyc:  177666880 now IPC :1.76911: AVG IPC :1.68661: L2-Pf-HR :0.80662: L2-HR :0.79523: (Sim:0h20m42s) 
CPU  0 inst:  301000001 cyc:  178234758 now IPC :1.76094: AVG IPC :1.68684: L2-Pf-HR :0.80660: L2-HR :0.79521: (Sim:0h20m46s) 
CPU  0 inst:  302000003 cyc:  178801620 now IPC :1.76410: AVG IPC :1.68709: L2-Pf-HR :0.80658: L2-HR :0.79520: (Sim:0h20m51s) 
CPU  0 inst:  303000003 cyc:  179366595 now IPC :1.76999: AVG IPC :1.68735: L2-Pf-HR :0.80655: L2-HR :0.79518: (Sim:0h20m55s) 
CPU  0 inst:  304000000 cyc:  179929269 now IPC :1.77722: AVG IPC :1.68764: L2-Pf-HR :0.80652: L2-HR :0.79515: (Sim:0h20m59s) 
CPU  0 inst:  305000002 cyc:  180494599 now IPC :1.76888: AVG IPC :1.68789: L2-Pf-HR :0.80649: L2-HR :0.79512: (Sim:0h21m2s) 
CPU  0 inst:  306000000 cyc:  181063428 now IPC :1.75799: AVG IPC :1.68811: L2-Pf-HR :0.80646: L2-HR :0.79510: (Sim:0h21m6s) 
CPU  0 inst:  307000001 cyc:  181632568 now IPC :1.75704: AVG IPC :1.68833: L2-Pf-HR :0.80645: L2-HR :0.79509: (Sim:0h21m9s) 
CPU  0 inst:  308000000 cyc:  182305468 now IPC :1.48610: AVG IPC :1.68758: L2-Pf-HR :0.80639: L2-HR :0.79504: (Sim:0h21m14s) 
CPU  0 inst:  309000003 cyc:  182907683 now IPC :1.66054: AVG IPC :1.68749: L2-Pf-HR :0.80645: L2-HR :0.79509: (Sim:0h21m18s) 
CPU  0 inst:  310000002 cyc:  183477345 now IPC :1.75543: AVG IPC :1.68770: L2-Pf-HR :0.80652: L2-HR :0.79516: (Sim:0h21m23s) 
CPU  0 inst:  311000001 cyc:  184042597 now IPC :1.76912: AVG IPC :1.68795: L2-Pf-HR :0.80666: L2-HR :0.79530: (Sim:0h21m26s) 
CPU  0 inst:  312000000 cyc:  184602405 now IPC :1.78632: AVG IPC :1.68825: L2-Pf-HR :0.80681: L2-HR :0.79544: (Sim:0h21m29s) 
CPU  0 inst:  313000003 cyc:  185163919 now IPC :1.78090: AVG IPC :1.68854: L2-Pf-HR :0.80695: L2-HR :0.79558: (Sim:0h21m33s) 
CPU  0 inst:  314000003 cyc:  185725207 now IPC :1.78162: AVG IPC :1.68882: L2-Pf-HR :0.80710: L2-HR :0.79572: (Sim:0h21m37s) 
CPU  0 inst:  315000003 cyc:  186284328 now IPC :1.78852: AVG IPC :1.68912: L2-Pf-HR :0.80723: L2-HR :0.79584: (Sim:0h21m42s) 
CPU  0 inst:  316000000 cyc:  187056707 now IPC :1.29470: AVG IPC :1.68748: L2-Pf-HR :0.80726: L2-HR :0.79588: (Sim:0h21m47s) 
CPU  0 inst:  317000002 cyc:  187672065 now IPC :1.62507: AVG IPC :1.68728: L2-Pf-HR :0.80722: L2-HR :0.79582: (Sim:0h21m51s) 
CPU  0 inst:  318000002 cyc:  188257321 now IPC :1.70865: AVG IPC :1.68734: L2-Pf-HR :0.80717: L2-HR :0.79577: (Sim:0h21m56s) 
CPU  0 inst:  319000000 cyc:  188846508 now IPC :1.69725: AVG IPC :1.68737: L2-Pf-HR :0.80713: L2-HR :0.79573: (Sim:0h22m1s) 
CPU  0 inst:  320000000 cyc:  189436856 now IPC :1.69392: AVG IPC :1.68739: L2-Pf-HR :0.80709: L2-HR :0.79568: (Sim:0h22m5s) 
CPU  0 inst:  321000000 cyc:  190022313 now IPC :1.70807: AVG IPC :1.68746: L2-Pf-HR :0.80706: L2-HR :0.79565: (Sim:0h22m10s) 
CPU  0 inst:  322000000 cyc:  190613211 now IPC :1.69234: AVG IPC :1.68747: L2-Pf-HR :0.80704: L2-HR :0.79563: (Sim:0h22m15s) 
CPU  0 inst:  323000001 cyc:  191193176 now IPC :1.72424: AVG IPC :1.68759: L2-Pf-HR :0.80701: L2-HR :0.79560: (Sim:0h22m19s) 
CPU  0 inst:  324000000 cyc:  191788628 now IPC :1.67939: AVG IPC :1.68756: L2-Pf-HR :0.80696: L2-HR :0.79556: (Sim:0h22m24s) 
CPU  0 inst:  325000002 cyc:  192387650 now IPC :1.66939: AVG IPC :1.68750: L2-Pf-HR :0.80694: L2-HR :0.79553: (Sim:0h22m29s) 
CPU  0 inst:  326000001 cyc:  192979034 now IPC :1.69095: AVG IPC :1.68751: L2-Pf-HR :0.80690: L2-HR :0.79549: (Sim:0h22m33s) 
CPU  0 inst:  327000000 cyc:  193571535 now IPC :1.68776: AVG IPC :1.68751: L2-Pf-HR :0.80690: L2-HR :0.79548: (Sim:0h22m38s) 
CPU  0 inst:  328000000 cyc:  194389348 now IPC :1.22277: AVG IPC :1.68555: L2-Pf-HR :0.80678: L2-HR :0.79538: (Sim:0h22m43s) 
CPU  0 inst:  329000000 cyc:  194975923 now IPC :1.70481: AVG IPC :1.68561: L2-Pf-HR :0.80676: L2-HR :0.79536: (Sim:0h22m47s) 
CPU  0 inst:  330000000 cyc:  195553154 now IPC :1.73241: AVG IPC :1.68575: L2-Pf-HR :0.80673: L2-HR :0.79533: (Sim:0h22m52s) 
CPU  0 inst:  331000003 cyc:  196120712 now IPC :1.76194: AVG IPC :1.68597: L2-Pf-HR :0.80671: L2-HR :0.79532: (Sim:0h22m57s) 
CPU  0 inst:  332000000 cyc:  196694301 now IPC :1.74340: AVG IPC :1.68614: L2-Pf-HR :0.80669: L2-HR :0.79530: (Sim:0h23m1s) 
CPU  0 inst:  333000003 cyc:  197267982 now IPC :1.74313: AVG IPC :1.68630: L2-Pf-HR :0.80668: L2-HR :0.79530: (Sim:0h23m6s) 
CPU  0 inst:  334000001 cyc:  197840736 now IPC :1.74595: AVG IPC :1.68648: L2-Pf-HR :0.80666: L2-HR :0.79528: (Sim:0h23m11s) 
CPU  0 inst:  335000003 cyc:  198406760 now IPC :1.76671: AVG IPC :1.68671: L2-Pf-HR :0.80665: L2-HR :0.79528: (Sim:0h23m15s) 
CPU  0 inst:  336000000 cyc:  198971257 now IPC :1.77148: AVG IPC :1.68695: L2-Pf-HR :0.80661: L2-HR :0.79525: (Sim:0h23m20s) 
CPU  0 inst:  337000003 cyc:  199535769 now IPC :1.77145: AVG IPC :1.68719: L2-Pf-HR :0.80658: L2-HR :0.79522: (Sim:0h23m24s) 
CPU  0 inst:  338000002 cyc:  200106461 now IPC :1.75226: AVG IPC :1.68738: L2-Pf-HR :0.80657: L2-HR :0.79521: (Sim:0h23m28s) 
CPU  0 inst:  339000000 cyc:  200670233 now IPC :1.77376: AVG IPC :1.68762: L2-Pf-HR :0.80658: L2-HR :0.79522: (Sim:0h23m31s) 
CPU  0 inst:  340000000 cyc:  201379311 now IPC :1.41028: AVG IPC :1.68664: L2-Pf-HR :0.80655: L2-HR :0.79520: (Sim:0h23m35s) 
CPU  0 inst:  341000002 cyc:  201947784 now IPC :1.75910: AVG IPC :1.68684: L2-Pf-HR :0.80659: L2-HR :0.79524: (Sim:0h23m40s) 
CPU  0 inst:  342000001 cyc:  202511739 now IPC :1.77319: AVG IPC :1.68708: L2-Pf-HR :0.80671: L2-HR :0.79535: (Sim:0h23m44s) 
CPU  0 inst:  343000000 cyc:  203081961 now IPC :1.75370: AVG IPC :1.68727: L2-Pf-HR :0.80685: L2-HR :0.79549: (Sim:0h23m48s) 
CPU  0 inst:  344000000 cyc:  203642061 now IPC :1.78540: AVG IPC :1.68754: L2-Pf-HR :0.80699: L2-HR :0.79562: (Sim:0h23m52s) 
CPU  0 inst:  345000000 cyc:  204200793 now IPC :1.78977: AVG IPC :1.68782: L2-Pf-HR :0.80713: L2-HR :0.79575: (Sim:0h23m57s) 
CPU  0 inst:  346000000 cyc:  204759445 now IPC :1.79002: AVG IPC :1.68810: L2-Pf-HR :0.80724: L2-HR :0.79585: (Sim:0h24m1s) 
CPU  0 inst:  347000000 cyc:  205321767 now IPC :1.77834: AVG IPC :1.68835: L2-Pf-HR :0.80740: L2-HR :0.79600: (Sim:0h24m5s) 
CPU  0 inst:  348000000 cyc:  206112792 now IPC :1.26418: AVG IPC :1.68672: L2-Pf-HR :0.80732: L2-HR :0.79594: (Sim:0h24m9s) 
CPU  0 inst:  349000001 cyc:  206699594 now IPC :1.70415: AVG IPC :1.68677: L2-Pf-HR :0.80728: L2-HR :0.79589: (Sim:0h24m14s) 
CPU  0 inst:  350000003 cyc:  207287559 now IPC :1.70078: AVG IPC :1.68681: L2-Pf-HR :0.80725: L2-HR :0.79585: (Sim:0h24m18s) 
CPU  0 inst:  351000002 cyc:  207868707 now IPC :1.72073: AVG IPC :1.68690: L2-Pf-HR :0.80721: L2-HR :0.79581: (Sim:0h24m23s) 
CPU  0 inst:  352000000 cyc:  208440772 now IPC :1.74805: AVG IPC :1.68707: L2-Pf-HR :0.80718: L2-HR :0.79578: (Sim:0h24m27s) 
CPU  0 inst:  353000003 cyc:  209029435 now IPC :1.69877: AVG IPC :1.68710: L2-Pf-HR :0.80716: L2-HR :0.79575: (Sim:0h24m32s) 
CPU  0 inst:  354000000 cyc:  209603847 now IPC :1.74091: AVG IPC :1.68725: L2-Pf-HR :0.80712: L2-HR :0.79572: (Sim:0h24m37s) 
CPU  0 inst:  355000003 cyc:  210193903 now IPC :1.69476: AVG IPC :1.68727: L2-Pf-HR :0.80709: L2-HR :0.79569: (Sim:0h24m41s) 
CPU  0 inst:  356000000 cyc:  210786780 now IPC :1.68669: AVG IPC :1.68727: L2-Pf-HR :0.80705: L2-HR :0.79565: (Sim:0h24m46s) 
CPU  0 inst:  357000000 cyc:  211367613 now IPC :1.72167: AVG IPC :1.68737: L2-Pf-HR :0.80702: L2-HR :0.79562: (Sim:0h24m50s) 
CPU  0 inst:  358000000 cyc:  211958262 now IPC :1.69305: AVG IPC :1.68738: L2-Pf-HR :0.80700: L2-HR :0.79559: (Sim:0h24m53s) 
CPU  0 inst:  359000002 cyc:  212541870 now IPC :1.71348: AVG IPC :1.68745: L2-Pf-HR :0.80702: L2-HR :0.79560: (Sim:0h24m58s) 
CPU  0 inst:  360000000 cyc:  213363202 now IPC :1.21753: AVG IPC :1.68564: L2-Pf-HR :0.80686: L2-HR :0.79547: (Sim:0h25m3s) 
CPU  0 inst:  361000003 cyc:  213928577 now IPC :1.76874: AVG IPC :1.68586: L2-Pf-HR :0.80683: L2-HR :0.79544: (Sim:0h25m7s) 
CPU  0 inst:  362000000 cyc:  214494550 now IPC :1.76686: AVG IPC :1.68607: L2-Pf-HR :0.80680: L2-HR :0.79541: (Sim:0h25m12s) 
CPU  0 inst:  363000001 cyc:  215061363 now IPC :1.76425: AVG IPC :1.68628: L2-Pf-HR :0.80677: L2-HR :0.79538: (Sim:0h25m15s) 
CPU  0 inst:  364000000 cyc:  215627879 now IPC :1.76517: AVG IPC :1.68649: L2-Pf-HR :0.80674: L2-HR :0.79536: (Sim:0h25m18s) 
CPU  0 inst:  365000002 cyc:  216197058 now IPC :1.75692: AVG IPC :1.68667: L2-Pf-HR :0.80672: L2-HR :0.79535: (Sim:0h25m22s) 
CPU  0 inst:  366000001 cyc:  216756957 now IPC :1.78603: AVG IPC :1.68693: L2-Pf-HR :0.80671: L2-HR :0.79534: (Sim:0h25m26s) 
CPU  0 inst:  367000000 cyc:  217315522 now IPC :1.79030: AVG IPC :1.68720: L2-Pf-HR :0.80668: L2-HR :0.79532: (Sim:0h25m29s) 
CPU  0 inst:  368000000 cyc:  217880536 now IPC :1.76987: AVG IPC :1.68741: L2-Pf-HR :0.80665: L2-HR :0.79529: (Sim:0h25m32s) 
CPU  0 inst:  369000000 cyc:  218448840 now IPC :1.75962: AVG IPC :1.68760: L2-Pf-HR :0.80663: L2-HR :0.79527: (Sim:0h25m35s) 
CPU  0 inst:  370000002 cyc:  219012509 now IPC :1.77409: AVG IPC :1.68783: L2-Pf-HR :0.80662: L2-HR :0.79526: (Sim:0h25m38s) 
CPU  0 inst:  371000001 cyc:  219599502 now IPC :1.70360: AVG IPC :1.68787: L2-Pf-HR :0.80660: L2-HR :0.79525: (Sim:0h25m42s) 
CPU  0 inst:  372000000 cyc:  220290360 now IPC :1.44747: AVG IPC :1.68711: L2-Pf-HR :0.80661: L2-HR :0.79525: (Sim:0h25m45s) 
CPU  0 inst:  373000000 cyc:  220857161 now IPC :1.76429: AVG IPC :1.68731: L2-Pf-HR :0.80666: L2-HR :0.79531: (Sim:0h25m49s) 
CPU  0 inst:  374000000 cyc:  221420318 now IPC :1.77570: AVG IPC :1.68754: L2-Pf-HR :0.80677: L2-HR :0.79541: (Sim:0h25m54s) 
CPU  0 inst:  375000000 cyc:  221983488 now IPC :1.77566: AVG IPC :1.68776: L2-Pf-HR :0.80689: L2-HR :0.79552: (Sim:0h25m58s) 
CPU  0 inst:  376000000 cyc:  222546771 now IPC :1.77531: AVG IPC :1.68798: L2-Pf-HR :0.80701: L2-HR :0.79564: (Sim:0h26m3s) 
CPU  0 inst:  377000003 cyc:  223108467 now IPC :1.78033: AVG IPC :1.68822: L2-Pf-HR :0.80713: L2-HR :0.79576: (Sim:0h26m7s) 
CPU  0 inst:  378000002 cyc:  223667323 now IPC :1.78937: AVG IPC :1.68847: L2-Pf-HR :0.80723: L2-HR :0.79585: (Sim:0h26m10s) 
CPU  0 inst:  379000002 cyc:  224396753 now IPC :1.37093: AVG IPC :1.68743: L2-Pf-HR :0.80729: L2-HR :0.79591: (Sim:0h26m13s) 
CPU  0 inst:  380000000 cyc:  225044051 now IPC :1.54488: AVG IPC :1.68702: L2-Pf-HR :0.80725: L2-HR :0.79586: (Sim:0h26m18s) 
CPU  0 inst:  381000000 cyc:  225642346 now IPC :1.67142: AVG IPC :1.68698: L2-Pf-HR :0.80720: L2-HR :0.79581: (Sim:0h26m21s) 
CPU  0 inst:  382000002 cyc:  226241538 now IPC :1.66892: AVG IPC :1.68693: L2-Pf-HR :0.80717: L2-HR :0.79578: (Sim:0h26m24s) 
CPU  0 inst:  383000000 cyc:  226831233 now IPC :1.69579: AVG IPC :1.68696: L2-Pf-HR :0.80714: L2-HR :0.79575: (Sim:0h26m27s) 
CPU  0 inst:  384000000 cyc:  227427273 now IPC :1.67774: AVG IPC :1.68693: L2-Pf-HR :0.80711: L2-HR :0.79572: (Sim:0h26m30s) 
CPU  0 inst:  385000003 cyc:  228018495 now IPC :1.69142: AVG IPC :1.68694: L2-Pf-HR :0.80708: L2-HR :0.79569: (Sim:0h26m34s) 
CPU  0 inst:  386000000 cyc:  228621566 now IPC :1.65817: AVG IPC :1.68687: L2-Pf-HR :0.80706: L2-HR :0.79566: (Sim:0h26m38s) 
CPU  0 inst:  387000001 cyc:  229225896 now IPC :1.65473: AVG IPC :1.68678: L2-Pf-HR :0.80702: L2-HR :0.79562: (Sim:0h26m43s) 
CPU  0 inst:  388000000 cyc:  229821585 now IPC :1.67873: AVG IPC :1.68676: L2-Pf-HR :0.80700: L2-HR :0.79560: (Sim:0h26m47s) 
CPU  0 inst:  389000000 cyc:  230420733 now IPC :1.66904: AVG IPC :1.68671: L2-Pf-HR :0.80697: L2-HR :0.79557: (Sim:0h26m50s) 
CPU  0 inst:  390000001 cyc:  231014015 now IPC :1.68554: AVG IPC :1.68671: L2-Pf-HR :0.80696: L2-HR :0.79555: (Sim:0h26m53s) 
CPU  0 inst:  391000003 cyc:  231799692 now IPC :1.27279: AVG IPC :1.68530: L2-Pf-HR :0.80687: L2-HR :0.79548: (Sim:0h26m57s) 
CPU  0 inst:  392000000 cyc:  232413610 now IPC :1.62888: AVG IPC :1.68515: L2-Pf-HR :0.80684: L2-HR :0.79545: (Sim:0h27m0s) 
CPU  0 inst:  393000002 cyc:  232984204 now IPC :1.75256: AVG IPC :1.68532: L2-Pf-HR :0.80683: L2-HR :0.79544: (Sim:0h27m3s) 
CPU  0 inst:  394000003 cyc:  233554189 now IPC :1.75443: AVG IPC :1.68549: L2-Pf-HR :0.80681: L2-HR :0.79542: (Sim:0h27m6s) 
CPU  0 inst:  395000001 cyc:  234122588 now IPC :1.75932: AVG IPC :1.68567: L2-Pf-HR :0.80678: L2-HR :0.79540: (Sim:0h27m9s) 
CPU  0 inst:  396000000 cyc:  234689866 now IPC :1.76280: AVG IPC :1.68586: L2-Pf-HR :0.80677: L2-HR :0.79539: (Sim:0h27m12s) 
CPU  0 inst:  397000002 cyc:  235255832 now IPC :1.76689: AVG IPC :1.68605: L2-Pf-HR :0.80675: L2-HR :0.79538: (Sim:0h27m15s) 
CPU  0 inst:  398000001 cyc:  235820403 now IPC :1.77125: AVG IPC :1.68626: L2-Pf-HR :0.80674: L2-HR :0.79537: (Sim:0h27m19s) 
CPU  0 inst:  399000000 cyc:  236385828 now IPC :1.76858: AVG IPC :1.68645: L2-Pf-HR :0.80670: L2-HR :0.79534: (Sim:0h27m23s) 
CPU  0 inst:  400000000 cyc:  236953480 now IPC :1.76164: AVG IPC :1.68663: L2-Pf-HR :0.80668: L2-HR :0.79532: (Sim:0h27m27s) 
CPU  0 inst:  401000000 cyc:  237521805 now IPC :1.75956: AVG IPC :1.68681: L2-Pf-HR :0.80666: L2-HR :0.79530: (Sim:0h27m32s) 
CPU  0 inst:  402000003 cyc:  238086288 now IPC :1.77154: AVG IPC :1.68701: L2-Pf-HR :0.80667: L2-HR :0.79531: (Sim:0h27m36s) 
CPU  0 inst:  403000003 cyc:  238791780 now IPC :1.41745: AVG IPC :1.68621: L2-Pf-HR :0.80662: L2-HR :0.79527: (Sim:0h27m39s) 
CPU  0 inst:  404000000 cyc:  239365568 now IPC :1.74280: AVG IPC :1.68635: L2-Pf-HR :0.80667: L2-HR :0.79532: (Sim:0h27m44s) 
CPU  0 inst:  405000000 cyc:  239932450 now IPC :1.76404: AVG IPC :1.68653: L2-Pf-HR :0.80676: L2-HR :0.79540: (Sim:0h27m49s) 
CPU  0 inst:  406000003 cyc:  240494717 now IPC :1.77852: AVG IPC :1.68675: L2-Pf-HR :0.80688: L2-HR :0.79551: (Sim:0h27m53s) 
CPU  0 inst:  407000001 cyc:  241054365 now IPC :1.78683: AVG IPC :1.68698: L2-Pf-HR :0.80699: L2-HR :0.79563: (Sim:0h27m58s) 
CPU  0 inst:  408000000 cyc:  241614841 now IPC :1.78420: AVG IPC :1.68721: L2-Pf-HR :0.80710: L2-HR :0.79573: (Sim:0h28m2s) 
CPU  0 inst:  409000001 cyc:  242177409 now IPC :1.77756: AVG IPC :1.68742: L2-Pf-HR :0.80722: L2-HR :0.79584: (Sim:0h28m7s) 
CPU  0 inst:  410000001 cyc:  242735079 now IPC :1.79318: AVG IPC :1.68766: L2-Pf-HR :0.80733: L2-HR :0.79594: (Sim:0h28m11s) 
CPU  0 inst:  411000001 cyc:  243517804 now IPC :1.27759: AVG IPC :1.68634: L2-Pf-HR :0.80729: L2-HR :0.79591: (Sim:0h28m16s) 
CPU  0 inst:  412000000 cyc:  244114125 now IPC :1.67695: AVG IPC :1.68632: L2-Pf-HR :0.80726: L2-HR :0.79587: (Sim:0h28m20s) 
CPU  0 inst:  413000000 cyc:  244705523 now IPC :1.69091: AVG IPC :1.68633: L2-Pf-HR :0.80722: L2-HR :0.79582: (Sim:0h28m25s) 
CPU  0 inst:  414000003 cyc:  245289945 now IPC :1.71110: AVG IPC :1.68639: L2-Pf-HR :0.80719: L2-HR :0.79580: (Sim:0h28m29s) 
CPU  0 inst:  415000003 cyc:  245877683 now IPC :1.70144: AVG IPC :1.68642: L2-Pf-HR :0.80717: L2-HR :0.79577: (Sim:0h28m33s) 
CPU  0 inst:  416000000 cyc:  246469582 now IPC :1.68947: AVG IPC :1.68643: L2-Pf-HR :0.80714: L2-HR :0.79575: (Sim:0h28m38s) 
CPU  0 inst:  417000000 cyc:  247067975 now IPC :1.67114: AVG IPC :1.68639: L2-Pf-HR :0.80712: L2-HR :0.79573: (Sim:0h28m42s) 
CPU  0 inst:  418000000 cyc:  247661872 now IPC :1.68379: AVG IPC :1.68639: L2-Pf-HR :0.80710: L2-HR :0.79570: (Sim:0h28m47s) 
CPU  0 inst:  419000003 cyc:  248253268 now IPC :1.69092: AVG IPC :1.68640: L2-Pf-HR :0.80706: L2-HR :0.79566: (Sim:0h28m51s) 
CPU  0 inst:  420000000 cyc:  248843291 now IPC :1.69484: AVG IPC :1.68642: L2-Pf-HR :0.80704: L2-HR :0.79564: (Sim:0h28m55s) 
CPU  0 inst:  421000003 cyc:  249430706 now IPC :1.70238: AVG IPC :1.68646: L2-Pf-HR :0.80702: L2-HR :0.79561: (Sim:0h29m0s) 
CPU  0 inst:  422000000 cyc:  250030111 now IPC :1.66832: AVG IPC :1.68641: L2-Pf-HR :0.80703: L2-HR :0.79562: (Sim:0h29m3s) 
CPU  0 inst:  423000003 cyc:  250850778 now IPC :1.21852: AVG IPC :1.68488: L2-Pf-HR :0.80692: L2-HR :0.79552: (Sim:0h29m7s) 
CPU  0 inst:  424000000 cyc:  251431387 now IPC :1.72232: AVG IPC :1.68496: L2-Pf-HR :0.80690: L2-HR :0.79550: (Sim:0h29m12s) 
CPU  0 inst:  425000002 cyc:  252005614 now IPC :1.74148: AVG IPC :1.68509: L2-Pf-HR :0.80687: L2-HR :0.79548: (Sim:0h29m16s) 
CPU  0 inst:  426000003 cyc:  252579435 now IPC :1.74271: AVG IPC :1.68522: L2-Pf-HR :0.80685: L2-HR :0.79546: (Sim:0h29m21s) 
CPU  0 inst:  427000002 cyc:  253151597 now IPC :1.74776: AVG IPC :1.68536: L2-Pf-HR :0.80684: L2-HR :0.79545: (Sim:0h29m25s) 
CPU  0 inst:  428000000 cyc:  253725460 now IPC :1.74257: AVG IPC :1.68549: L2-Pf-HR :0.80682: L2-HR :0.79544: (Sim:0h29m29s) 
CPU  0 inst:  429000003 cyc:  254297403 now IPC :1.74843: AVG IPC :1.68564: L2-Pf-HR :0.80680: L2-HR :0.79543: (Sim:0h29m33s) 
CPU  0 inst:  430000000 cyc:  254866677 now IPC :1.75662: AVG IPC :1.68580: L2-Pf-HR :0.80678: L2-HR :0.79541: (Sim:0h29m38s) 
CPU  0 inst:  431000003 cyc:  255432297 now IPC :1.76798: AVG IPC :1.68598: L2-Pf-HR :0.80675: L2-HR :0.79538: (Sim:0h29m42s) 
CPU  0 inst:  432000000 cyc:  256004924 now IPC :1.74633: AVG IPC :1.68611: L2-Pf-HR :0.80673: L2-HR :0.79537: (Sim:0h29m46s) 
CPU  0 inst:  433000002 cyc:  256571590 now IPC :1.76471: AVG IPC :1.68629: L2-Pf-HR :0.80672: L2-HR :0.79536: (Sim:0h29m51s) 
CPU  0 inst:  434000001 cyc:  257139222 now IPC :1.76170: AVG IPC :1.68646: L2-Pf-HR :0.80674: L2-HR :0.79537: (Sim:0h29m55s) 
CPU  0 inst:  435000000 cyc:  257849200 now IPC :1.40849: AVG IPC :1.68569: L2-Pf-HR :0.80672: L2-HR :0.79536: (Sim:0h30m0s) 
CPU  0 inst:  436000000 cyc:  258414068 now IPC :1.77033: AVG IPC :1.68587: L2-Pf-HR :0.80675: L2-HR :0.79539: (Sim:0h30m3s) 
CPU  0 inst:  437000002 cyc:  258981097 now IPC :1.76358: AVG IPC :1.68604: L2-Pf-HR :0.80685: L2-HR :0.79548: (Sim:0h30m7s) 
CPU  0 inst:  438000003 cyc:  259546197 now IPC :1.76960: AVG IPC :1.68623: L2-Pf-HR :0.80695: L2-HR :0.79558: (Sim:0h30m10s) 
CPU  0 inst:  439000001 cyc:  260102955 now IPC :1.79611: AVG IPC :1.68646: L2-Pf-HR :0.80705: L2-HR :0.79568: (Sim:0h30m15s) 
CPU  0 inst:  440000000 cyc:  260663543 now IPC :1.78384: AVG IPC :1.68667: L2-Pf-HR :0.80716: L2-HR :0.79578: (Sim:0h30m18s) 
CPU  0 inst:  441000001 cyc:  261225059 now IPC :1.78089: AVG IPC :1.68688: L2-Pf-HR :0.80724: L2-HR :0.79585: (Sim:0h30m22s) 
CPU  0 inst:  442000000 cyc:  261847540 now IPC :1.60647: AVG IPC :1.68668: L2-Pf-HR :0.80735: L2-HR :0.79596: (Sim:0h30m26s) 
CPU  0 inst:  443000003 cyc:  262592473 now IPC :1.34241: AVG IPC :1.68570: L2-Pf-HR :0.80727: L2-HR :0.79588: (Sim:0h30m30s) 
CPU  0 inst:  444000000 cyc:  263188135 now IPC :1.67880: AVG IPC :1.68569: L2-Pf-HR :0.80723: L2-HR :0.79584: (Sim:0h30m35s) 
CPU  0 inst:  445000003 cyc:  263771370 now IPC :1.71458: AVG IPC :1.68575: L2-Pf-HR :0.80720: L2-HR :0.79581: (Sim:0h30m40s) 
CPU  0 inst:  446000003 cyc:  264356683 now IPC :1.70849: AVG IPC :1.68580: L2-Pf-HR :0.80717: L2-HR :0.79577: (Sim:0h30m44s) 
CPU  0 inst:  447000000 cyc:  264936967 now IPC :1.72329: AVG IPC :1.68588: L2-Pf-HR :0.80715: L2-HR :0.79576: (Sim:0h30m49s) 
CPU  0 inst:  448000000 cyc:  265536347 now IPC :1.66839: AVG IPC :1.68585: L2-Pf-HR :0.80714: L2-HR :0.79574: (Sim:0h30m54s) 
CPU  0 inst:  449000001 cyc:  266129964 now IPC :1.68459: AVG IPC :1.68584: L2-Pf-HR :0.80711: L2-HR :0.79572: (Sim:0h30m59s) 
CPU  0 inst:  450000003 cyc:  266710644 now IPC :1.72212: AVG IPC :1.68592: L2-Pf-HR :0.80709: L2-HR :0.79569: (Sim:0h31m3s) 
CPU  0 inst:  451000001 cyc:  267304169 now IPC :1.68485: AVG IPC :1.68592: L2-Pf-HR :0.80706: L2-HR :0.79566: (Sim:0h31m7s) 
CPU  0 inst:  452000000 cyc:  267896414 now IPC :1.68849: AVG IPC :1.68593: L2-Pf-HR :0.80703: L2-HR :0.79563: (Sim:0h31m11s) 
CPU  0 inst:  453000003 cyc:  268497854 now IPC :1.66268: AVG IPC :1.68587: L2-Pf-HR :0.80702: L2-HR :0.79561: (Sim:0h31m15s) 
CPU  0 inst:  454000001 cyc:  269249648 now IPC :1.33015: AVG IPC :1.68488: L2-Pf-HR :0.80695: L2-HR :0.79555: (Sim:0h31m20s) 
CPU  0 inst:  455000002 cyc:  269894739 now IPC :1.55017: AVG IPC :1.68455: L2-Pf-HR :0.80692: L2-HR :0.79552: (Sim:0h31m24s) 
CPU  0 inst:  456000000 cyc:  270471146 now IPC :1.73488: AVG IPC :1.68466: L2-Pf-HR :0.80690: L2-HR :0.79551: (Sim:0h31m28s) 
CPU  0 inst:  457000001 cyc:  271043096 now IPC :1.74841: AVG IPC :1.68480: L2-Pf-HR :0.80688: L2-HR :0.79549: (Sim:0h31m33s) 
CPU  0 inst:  458000000 cyc:  271609285 now IPC :1.76619: AVG IPC :1.68497: L2-Pf-HR :0.80686: L2-HR :0.79547: (Sim:0h31m37s) 
CPU  0 inst:  459000002 cyc:  272175723 now IPC :1.76542: AVG IPC :1.68513: L2-Pf-HR :0.80684: L2-HR :0.79546: (Sim:0h31m42s) 
CPU  0 inst:  460000000 cyc:  272745834 now IPC :1.75404: AVG IPC :1.68528: L2-Pf-HR :0.80683: L2-HR :0.79545: (Sim:0h31m45s) 
CPU  0 inst:  461000000 cyc:  273313078 now IPC :1.76291: AVG IPC :1.68544: L2-Pf-HR :0.80681: L2-HR :0.79543: (Sim:0h31m49s) 
CPU  0 inst:  462000001 cyc:  273885035 now IPC :1.74838: AVG IPC :1.68557: L2-Pf-HR :0.80679: L2-HR :0.79542: (Sim:0h31m53s) 
CPU  0 inst:  463000002 cyc:  274453479 now IPC :1.75919: AVG IPC :1.68572: L2-Pf-HR :0.80677: L2-HR :0.79540: (Sim:0h31m58s) 
CPU  0 inst:  464000000 cyc:  275015630 now IPC :1.77888: AVG IPC :1.68592: L2-Pf-HR :0.80674: L2-HR :0.79538: (Sim:0h32m2s) 
CPU  0 inst:  465000000 cyc:  275580009 now IPC :1.77186: AVG IPC :1.68609: L2-Pf-HR :0.80675: L2-HR :0.79538: (Sim:0h32m6s) 
CPU  0 inst:  466000002 cyc:  276288612 now IPC :1.41123: AVG IPC :1.68539: L2-Pf-HR :0.80671: L2-HR :0.79535: (Sim:0h32m11s) 
CPU  0 inst:  467000003 cyc:  276865485 now IPC :1.73349: AVG IPC :1.68549: L2-Pf-HR :0.80674: L2-HR :0.79538: (Sim:0h32m14s) 
CPU  0 inst:  468000000 cyc:  277429370 now IPC :1.77341: AVG IPC :1.68567: L2-Pf-HR :0.80681: L2-HR :0.79544: (Sim:0h32m17s) 
CPU  0 inst:  469000001 cyc:  277992137 now IPC :1.77694: AVG IPC :1.68585: L2-Pf-HR :0.80689: L2-HR :0.79552: (Sim:0h32m20s) 
CPU  0 inst:  470000001 cyc:  278554156 now IPC :1.77930: AVG IPC :1.68604: L2-Pf-HR :0.80699: L2-HR :0.79562: (Sim:0h32m23s) 
CPU  0 inst:  471000001 cyc:  279114853 now IPC :1.78349: AVG IPC :1.68624: L2-Pf-HR :0.80710: L2-HR :0.79572: (Sim:0h32m27s) 
CPU  0 inst:  472000000 cyc:  279670858 now IPC :1.79854: AVG IPC :1.68646: L2-Pf-HR :0.80720: L2-HR :0.79582: (Sim:0h32m31s) 
CPU  0 inst:  473000000 cyc:  280231425 now IPC :1.78391: AVG IPC :1.68666: L2-Pf-HR :0.80729: L2-HR :0.79589: (Sim:0h32m34s) 
CPU  0 inst:  474000002 cyc:  281015244 now IPC :1.27581: AVG IPC :1.68551: L2-Pf-HR :0.80728: L2-HR :0.79589: (Sim:0h32m39s) 
CPU  0 inst:  475000003 cyc:  281604094 now IPC :1.69823: AVG IPC :1.68553: L2-Pf-HR :0.80724: L2-HR :0.79585: (Sim:0h32m43s) 
CPU  0 inst:  476000000 cyc:  282185341 now IPC :1.72043: AVG IPC :1.68560: L2-Pf-HR :0.80721: L2-HR :0.79582: (Sim:0h32m48s) 
CPU  0 inst:  477000000 cyc:  282769158 now IPC :1.71287: AVG IPC :1.68566: L2-Pf-HR :0.80720: L2-HR :0.79580: (Sim:0h32m52s) 
CPU  0 inst:  478000000 cyc:  283355119 now IPC :1.70660: AVG IPC :1.68570: L2-Pf-HR :0.80717: L2-HR :0.79577: (Sim:0h32m57s) 
CPU  0 inst:  479000002 cyc:  283939844 now IPC :1.71021: AVG IPC :1.68576: L2-Pf-HR :0.80715: L2-HR :0.79574: (Sim:0h33m1s) 
CPU  0 inst:  480000000 cyc:  284528754 now IPC :1.69805: AVG IPC :1.68578: L2-Pf-HR :0.80713: L2-HR :0.79573: (Sim:0h33m6s) 
CPU  0 inst:  481000002 cyc:  285109589 now IPC :1.72166: AVG IPC :1.68585: L2-Pf-HR :0.80711: L2-HR :0.79571: (Sim:0h33m9s) 
CPU  0 inst:  482000001 cyc:  285700324 now IPC :1.69280: AVG IPC :1.68587: L2-Pf-HR :0.80708: L2-HR :0.79568: (Sim:0h33m12s) 
CPU  0 inst:  483000000 cyc:  286283950 now IPC :1.71342: AVG IPC :1.68593: L2-Pf-HR :0.80705: L2-HR :0.79565: (Sim:0h33m16s) 
CPU  0 inst:  484000000 cyc:  286880863 now IPC :1.67529: AVG IPC :1.68590: L2-Pf-HR :0.80703: L2-HR :0.79562: (Sim:0h33m20s) 
CPU  0 inst:  485000003 cyc:  287475296 now IPC :1.68228: AVG IPC :1.68590: L2-Pf-HR :0.80703: L2-HR :0.79562: (Sim:0h33m25s) 
CPU  0 inst:  486000000 cyc:  288285347 now IPC :1.23449: AVG IPC :1.68462: L2-Pf-HR :0.80694: L2-HR :0.79555: (Sim:0h33m30s) 
CPU  0 inst:  487000001 cyc:  288868970 now IPC :1.71344: AVG IPC :1.68468: L2-Pf-HR :0.80693: L2-HR :0.79553: (Sim:0h33m34s) 
CPU  0 inst:  488000000 cyc:  289449352 now IPC :1.72300: AVG IPC :1.68476: L2-Pf-HR :0.80691: L2-HR :0.79551: (Sim:0h33m39s) 
CPU  0 inst:  489000002 cyc:  290018219 now IPC :1.75788: AVG IPC :1.68490: L2-Pf-HR :0.80690: L2-HR :0.79551: (Sim:0h33m41s) 
CPU  0 inst:  490000000 cyc:  290583782 now IPC :1.76815: AVG IPC :1.68506: L2-Pf-HR :0.80688: L2-HR :0.79549: (Sim:0h33m44s) 
CPU  0 inst:  491000003 cyc:  291156626 now IPC :1.74568: AVG IPC :1.68518: L2-Pf-HR :0.80687: L2-HR :0.79549: (Sim:0h33m47s) 
CPU  0 inst:  492000000 cyc:  291728590 now IPC :1.74836: AVG IPC :1.68531: L2-Pf-HR :0.80686: L2-HR :0.79548: (Sim:0h33m50s) 
CPU  0 inst:  493000000 cyc:  292298773 now IPC :1.75382: AVG IPC :1.68544: L2-Pf-HR :0.80684: L2-HR :0.79546: (Sim:0h33m54s) 
CPU  0 inst:  494000002 cyc:  292871605 now IPC :1.74572: AVG IPC :1.68556: L2-Pf-HR :0.80681: L2-HR :0.79544: (Sim:0h33m57s) 
CPU  0 inst:  495000001 cyc:  293440458 now IPC :1.75792: AVG IPC :1.68570: L2-Pf-HR :0.80680: L2-HR :0.79543: (Sim:0h34m0s) 
CPU  0 inst:  496000000 cyc:  294006811 now IPC :1.76568: AVG IPC :1.68586: L2-Pf-HR :0.80679: L2-HR :0.79542: (Sim:0h34m4s) 
CPU  0 inst:  497000002 cyc:  294569395 now IPC :1.77752: AVG IPC :1.68603: L2-Pf-HR :0.80681: L2-HR :0.79543: (Sim:0h34m8s) 
CPU  0 inst:  498000000 cyc:  295280589 now IPC :1.40608: AVG IPC :1.68536: L2-Pf-HR :0.80677: L2-HR :0.79541: (Sim:0h34m11s) 
CPU  0 inst:  499000000 cyc:  295852574 now IPC :1.74830: AVG IPC :1.68548: L2-Pf-HR :0.80681: L2-HR :0.79544: (Sim:0h34m14s) 
CPU  0 inst:  500000000 cyc:  296418155 now IPC :1.76809: AVG IPC :1.68564: L2-Pf-HR :0.80690: L2-HR :0.79553: (Sim:0h34m17s) 
CPU  0 inst:  501000001 cyc:  296983847 now IPC :1.76775: AVG IPC :1.68579: L2-Pf-HR :0.80700: L2-HR :0.79562: (Sim:0h34m21s) 
CPU  0 inst:  502000000 cyc:  297543381 now IPC :1.78720: AVG IPC :1.68598: L2-Pf-HR :0.80709: L2-HR :0.79571: (Sim:0h34m26s) 
CPU  0 inst:  503000000 cyc:  298109246 now IPC :1.76721: AVG IPC :1.68614: L2-Pf-HR :0.80718: L2-HR :0.79580: (Sim:0h34m30s) 
CPU  0 inst:  504000000 cyc:  298668315 now IPC :1.78869: AVG IPC :1.68633: L2-Pf-HR :0.80726: L2-HR :0.79587: (Sim:0h34m33s) 
CPU  0 inst:  505000002 cyc:  299223821 now IPC :1.80016: AVG IPC :1.68654: L2-Pf-HR :0.80739: L2-HR :0.79599: (Sim:0h34m36s) 
CPU  0 inst:  506000002 cyc:  304648276 now IPC :0.18435: AVG IPC :1.65971: L2-Pf-HR :0.80573: L2-HR :0.79479: (Sim:0h34m50s) 
CPU  0 inst:  507000001 cyc:  311042603 now IPC :0.15639: AVG IPC :1.62871: L2-Pf-HR :0.80387: L2-HR :0.79351: (Sim:0h35m6s) 
CPU  0 inst:  508000000 cyc:  317445926 now IPC :0.15617: AVG IPC :1.59891: L2-Pf-HR :0.80203: L2-HR :0.79224: (Sim:0h35m16s) 
CPU  0 inst:  509000001 cyc:  323845206 now IPC :0.15627: AVG IPC :1.57032: L2-Pf-HR :0.80019: L2-HR :0.79098: (Sim:0h35m32s) 
CPU  0 inst:  510000000 cyc:  330246827 now IPC :0.15621: AVG IPC :1.54282: L2-Pf-HR :0.79836: L2-HR :0.78973: (Sim:0h35m48s) 
CPU  0 inst:  511000003 cyc:  336652377 now IPC :0.15612: AVG IPC :1.51636: L2-Pf-HR :0.79655: L2-HR :0.78850: (Sim:0h36m5s) 
CPU  0 inst:  512000000 cyc:  343056946 now IPC :0.15614: AVG IPC :1.49090: L2-Pf-HR :0.79474: L2-HR :0.78727: (Sim:0h36m21s) 
CPU  0 inst:  513000001 cyc:  349463884 now IPC :0.15608: AVG IPC :1.46635: L2-Pf-HR :0.79294: L2-HR :0.78606: (Sim:0h36m38s) 
CPU  0 inst:  514000003 cyc:  355873934 now IPC :0.15601: AVG IPC :1.44269: L2-Pf-HR :0.79115: L2-HR :0.78486: (Sim:0h36m54s) 
CPU  0 inst:  515000003 cyc:  361074265 now IPC :0.19230: AVG IPC :1.42463: L2-Pf-HR :0.79015: L2-HR :0.78414: (Sim:0h37m8s) 
CPU  0 inst:  516000000 cyc:  364623779 now IPC :0.28173: AVG IPC :1.41347: L2-Pf-HR :0.79022: L2-HR :0.78412: (Sim:0h37m18s) 
CPU  0 inst:  517000003 cyc:  368171011 now IPC :0.28191: AVG IPC :1.40254: L2-Pf-HR :0.79031: L2-HR :0.78412: (Sim:0h37m27s) 
CPU  0 inst:  518000000 cyc:  371717160 now IPC :0.28200: AVG IPC :1.39182: L2-Pf-HR :0.79042: L2-HR :0.78413: (Sim:0h37m37s) 
CPU  0 inst:  519000001 cyc:  375262666 now IPC :0.28205: AVG IPC :1.38131: L2-Pf-HR :0.79053: L2-HR :0.78415: (Sim:0h37m47s) 
CPU  0 inst:  520000000 cyc:  378808266 now IPC :0.28204: AVG IPC :1.37100: L2-Pf-HR :0.79065: L2-HR :0.78417: (Sim:0h37m56s) 
CPU  0 inst:  521000000 cyc:  382352389 now IPC :0.28216: AVG IPC :1.36088: L2-Pf-HR :0.79078: L2-HR :0.78420: (Sim:0h38m6s) 
CPU  0 inst:  522000003 cyc:  385898007 now IPC :0.28204: AVG IPC :1.35094: L2-Pf-HR :0.79090: L2-HR :0.78422: (Sim:0h38m15s) 
CPU  0 inst:  523000001 cyc:  389444891 now IPC :0.28194: AVG IPC :1.34118: L2-Pf-HR :0.79102: L2-HR :0.78425: (Sim:0h38m22s) 
CPU  0 inst:  524000000 cyc:  392988575 now IPC :0.28219: AVG IPC :1.33161: L2-Pf-HR :0.79115: L2-HR :0.78428: (Sim:0h38m28s) 
CPU  0 inst:  525000000 cyc:  396532597 now IPC :0.28217: AVG IPC :1.32220: L2-Pf-HR :0.79127: L2-HR :0.78430: (Sim:0h38m34s) 
CPU  0 inst:  526000000 cyc:  400077112 now IPC :0.28213: AVG IPC :1.31297: L2-Pf-HR :0.79138: L2-HR :0.78432: (Sim:0h38m44s) 
CPU  0 inst:  527000000 cyc:  403621669 now IPC :0.28212: AVG IPC :1.30389: L2-Pf-HR :0.79149: L2-HR :0.78434: (Sim:0h38m54s) 
CPU  0 inst:  528000000 cyc:  407163534 now IPC :0.28234: AVG IPC :1.29498: L2-Pf-HR :0.79164: L2-HR :0.78438: (Sim:0h39m3s) 
CPU  0 inst:  529000000 cyc:  410707711 now IPC :0.28215: AVG IPC :1.28622: L2-Pf-HR :0.79177: L2-HR :0.78442: (Sim:0h39m9s) 
CPU  0 inst:  530000001 cyc:  414257213 now IPC :0.28173: AVG IPC :1.27759: L2-Pf-HR :0.79187: L2-HR :0.78443: (Sim:0h39m16s) 
CPU  0 inst:  531000000 cyc:  417802584 now IPC :0.28206: AVG IPC :1.26913: L2-Pf-HR :0.79198: L2-HR :0.78444: (Sim:0h39m23s) 
CPU  0 inst:  532000000 cyc:  421345788 now IPC :0.28223: AVG IPC :1.26081: L2-Pf-HR :0.79210: L2-HR :0.78447: (Sim:0h39m33s) 
CPU  0 inst:  533000003 cyc:  424892946 now IPC :0.28192: AVG IPC :1.25262: L2-Pf-HR :0.79219: L2-HR :0.78447: (Sim:0h39m42s) 
CPU  0 inst:  534000003 cyc:  428438824 now IPC :0.28202: AVG IPC :1.24457: L2-Pf-HR :0.79228: L2-HR :0.78448: (Sim:0h39m52s) 
CPU  0 inst:  535000000 cyc:  431982793 now IPC :0.28217: AVG IPC :1.23665: L2-Pf-HR :0.79240: L2-HR :0.78450: (Sim:0h40m2s) 
CPU  0 inst:  536000000 cyc:  435528821 now IPC :0.28201: AVG IPC :1.22886: L2-Pf-HR :0.79250: L2-HR :0.78451: (Sim:0h40m12s) 
CPU  0 inst:  537000003 cyc:  439074524 now IPC :0.28203: AVG IPC :1.22120: L2-Pf-HR :0.79262: L2-HR :0.78454: (Sim:0h40m22s) 
CPU  0 inst:  538000003 cyc:  442618123 now IPC :0.28220: AVG IPC :1.21367: L2-Pf-HR :0.79277: L2-HR :0.78459: (Sim:0h40m31s) 
CPU  0 inst:  539000000 cyc:  446161082 now IPC :0.28225: AVG IPC :1.20625: L2-Pf-HR :0.79289: L2-HR :0.78462: (Sim:0h40m41s) 
CPU  0 inst:  540000000 cyc:  449707569 now IPC :0.28197: AVG IPC :1.19895: L2-Pf-HR :0.79298: L2-HR :0.78462: (Sim:0h40m51s) 
CPU  0 inst:  541000002 cyc:  453251044 now IPC :0.28221: AVG IPC :1.19176: L2-Pf-HR :0.79311: L2-HR :0.78465: (Sim:0h41m1s) 
CPU  0 inst:  542000000 cyc:  456795404 now IPC :0.28214: AVG IPC :1.18469: L2-Pf-HR :0.79322: L2-HR :0.78467: (Sim:0h41m10s) 
CPU  0 inst:  543000000 cyc:  460339604 now IPC :0.28215: AVG IPC :1.17773: L2-Pf-HR :0.79333: L2-HR :0.78469: (Sim:0h41m20s) 
CPU  0 inst:  544000000 cyc:  463884738 now IPC :0.28208: AVG IPC :1.17087: L2-Pf-HR :0.79345: L2-HR :0.78472: (Sim:0h41m30s) 
CPU  0 inst:  545000001 cyc:  467433750 now IPC :0.28177: AVG IPC :1.16410: L2-Pf-HR :0.79354: L2-HR :0.78473: (Sim:0h41m40s) 
CPU  0 inst:  546000000 cyc:  470977673 now IPC :0.28217: AVG IPC :1.15745: L2-Pf-HR :0.79366: L2-HR :0.78476: (Sim:0h41m49s) 
CPU  0 inst:  547000000 cyc:  474522231 now IPC :0.28212: AVG IPC :1.15090: L2-Pf-HR :0.79377: L2-HR :0.78477: (Sim:0h41m59s) 
CPU  0 inst:  548000000 cyc:  478066813 now IPC :0.28212: AVG IPC :1.14445: L2-Pf-HR :0.79389: L2-HR :0.78480: (Sim:0h42m9s) 
CPU  0 inst:  549000002 cyc:  481612119 now IPC :0.28206: AVG IPC :1.13809: L2-Pf-HR :0.79399: L2-HR :0.78481: (Sim:0h42m19s) 
CPU  0 inst:  550000003 cyc:  485157441 now IPC :0.28206: AVG IPC :1.13182: L2-Pf-HR :0.79409: L2-HR :0.78483: (Sim:0h42m29s) 
CPU  0 inst:  551000002 cyc:  488701645 now IPC :0.28215: AVG IPC :1.12564: L2-Pf-HR :0.79419: L2-HR :0.78485: (Sim:0h42m38s) 
CPU  0 inst:  552000000 cyc:  492248495 now IPC :0.28194: AVG IPC :1.11955: L2-Pf-HR :0.79430: L2-HR :0.78487: (Sim:0h42m48s) 
CPU  0 inst:  553000002 cyc:  495794068 now IPC :0.28204: AVG IPC :1.11355: L2-Pf-HR :0.79441: L2-HR :0.78489: (Sim:0h42m58s) 
CPU  0 inst:  554000003 cyc:  499337592 now IPC :0.28221: AVG IPC :1.10764: L2-Pf-HR :0.79453: L2-HR :0.78491: (Sim:0h43m8s) 
CPU  0 inst:  555000003 cyc:  502881711 now IPC :0.28216: AVG IPC :1.10181: L2-Pf-HR :0.79463: L2-HR :0.78493: (Sim:0h43m17s) 
CPU  0 inst:  556000000 cyc:  506425376 now IPC :0.28219: AVG IPC :1.09606: L2-Pf-HR :0.79474: L2-HR :0.78495: (Sim:0h43m27s) 
CPU  0 inst:  557000001 cyc:  509968920 now IPC :0.28220: AVG IPC :1.09040: L2-Pf-HR :0.79486: L2-HR :0.78498: (Sim:0h43m37s) 
CPU  0 inst:  558000002 cyc:  513512348 now IPC :0.28221: AVG IPC :1.08481: L2-Pf-HR :0.79497: L2-HR :0.78501: (Sim:0h43m47s) 
CPU  0 inst:  559000001 cyc:  517055526 now IPC :0.28223: AVG IPC :1.07930: L2-Pf-HR :0.79509: L2-HR :0.78504: (Sim:0h43m56s) 
CPU  0 inst:  560000000 cyc:  520599204 now IPC :0.28219: AVG IPC :1.07386: L2-Pf-HR :0.79523: L2-HR :0.78509: (Sim:0h44m6s) 
CPU  0 inst:  561000001 cyc:  524141710 now IPC :0.28229: AVG IPC :1.06850: L2-Pf-HR :0.79536: L2-HR :0.78513: (Sim:0h44m16s) 
CPU  0 inst:  562000002 cyc:  527688221 now IPC :0.28197: AVG IPC :1.06321: L2-Pf-HR :0.79546: L2-HR :0.78514: (Sim:0h44m26s) 
CPU  0 inst:  563000000 cyc:  531233353 now IPC :0.28208: AVG IPC :1.05799: L2-Pf-HR :0.79557: L2-HR :0.78517: (Sim:0h44m35s) 
CPU  0 inst:  564000000 cyc:  534777560 now IPC :0.28215: AVG IPC :1.05283: L2-Pf-HR :0.79568: L2-HR :0.78519: (Sim:0h44m45s) 
CPU  0 inst:  565000000 cyc:  538322949 now IPC :0.28206: AVG IPC :1.04775: L2-Pf-HR :0.79578: L2-HR :0.78520: (Sim:0h44m55s) 
CPU  0 inst:  566000001 cyc:  541867636 now IPC :0.28211: AVG IPC :1.04273: L2-Pf-HR :0.79588: L2-HR :0.78522: (Sim:0h45m5s) 
CPU  0 inst:  567000003 cyc:  545415149 now IPC :0.28189: AVG IPC :1.03777: L2-Pf-HR :0.79597: L2-HR :0.78523: (Sim:0h45m15s) 
CPU  0 inst:  568000000 cyc:  548960423 now IPC :0.28206: AVG IPC :1.03288: L2-Pf-HR :0.79609: L2-HR :0.78526: (Sim:0h45m24s) 
CPU  0 inst:  569000000 cyc:  552503915 now IPC :0.28221: AVG IPC :1.02806: L2-Pf-HR :0.79621: L2-HR :0.78530: (Sim:0h45m34s) 
CPU  0 inst:  570000002 cyc:  556048958 now IPC :0.28208: AVG IPC :1.02330: L2-Pf-HR :0.79631: L2-HR :0.78531: (Sim:0h45m44s) 
CPU  0 inst:  571000003 cyc:  559593861 now IPC :0.28210: AVG IPC :1.01859: L2-Pf-HR :0.79640: L2-HR :0.78533: (Sim:0h45m54s) 
CPU  0 inst:  572000000 cyc:  563138065 now IPC :0.28215: AVG IPC :1.01395: L2-Pf-HR :0.79651: L2-HR :0.78535: (Sim:0h46m3s) 
CPU  0 inst:  573000000 cyc:  566682515 now IPC :0.28213: AVG IPC :1.00937: L2-Pf-HR :0.79662: L2-HR :0.78537: (Sim:0h46m13s) 
CPU  0 inst:  574000000 cyc:  570228694 now IPC :0.28199: AVG IPC :1.00483: L2-Pf-HR :0.79671: L2-HR :0.78538: (Sim:0h46m23s) 
CPU  0 inst:  575000001 cyc:  573774060 now IPC :0.28206: AVG IPC :1.00036: L2-Pf-HR :0.79683: L2-HR :0.78542: (Sim:0h46m33s) 
CPU  0 inst:  576000000 cyc:  577317694 now IPC :0.28220: AVG IPC :0.99594: L2-Pf-HR :0.79693: L2-HR :0.78544: (Sim:0h46m42s) 
CPU  0 inst:  577000000 cyc:  580862664 now IPC :0.28209: AVG IPC :0.99158: L2-Pf-HR :0.79703: L2-HR :0.78546: (Sim:0h46m52s) 
CPU  0 inst:  578000001 cyc:  584406602 now IPC :0.28217: AVG IPC :0.98727: L2-Pf-HR :0.79713: L2-HR :0.78548: (Sim:0h47m2s) 
CPU  0 inst:  579000002 cyc:  587951277 now IPC :0.28211: AVG IPC :0.98301: L2-Pf-HR :0.79723: L2-HR :0.78549: (Sim:0h47m12s) 
CPU  0 inst:  580000000 cyc:  591497250 now IPC :0.28201: AVG IPC :0.97880: L2-Pf-HR :0.79732: L2-HR :0.78550: (Sim:0h47m21s) 
CPU  0 inst:  581000000 cyc:  595039553 now IPC :0.28230: AVG IPC :0.97465: L2-Pf-HR :0.79744: L2-HR :0.78553: (Sim:0h47m31s) 
CPU  0 inst:  582000003 cyc:  598588492 now IPC :0.28178: AVG IPC :0.97054: L2-Pf-HR :0.79753: L2-HR :0.78554: (Sim:0h47m41s) 
CPU  0 inst:  583000002 cyc:  602135161 now IPC :0.28195: AVG IPC :0.96647: L2-Pf-HR :0.79761: L2-HR :0.78555: (Sim:0h47m51s) 
CPU  0 inst:  584000000 cyc:  605680354 now IPC :0.28207: AVG IPC :0.96246: L2-Pf-HR :0.79771: L2-HR :0.78557: (Sim:0h48m1s) 
CPU  0 inst:  585000000 cyc:  609224593 now IPC :0.28215: AVG IPC :0.95850: L2-Pf-HR :0.79782: L2-HR :0.78560: (Sim:0h48m10s) 
CPU  0 inst:  586000000 cyc:  612769066 now IPC :0.28213: AVG IPC :0.95458: L2-Pf-HR :0.79792: L2-HR :0.78561: (Sim:0h48m20s) 
CPU  0 inst:  587000002 cyc:  616314197 now IPC :0.28208: AVG IPC :0.95070: L2-Pf-HR :0.79802: L2-HR :0.78563: (Sim:0h48m30s) 
CPU  0 inst:  588000000 cyc:  619859497 now IPC :0.28206: AVG IPC :0.94687: L2-Pf-HR :0.79812: L2-HR :0.78565: (Sim:0h48m40s) 
CPU  0 inst:  589000002 cyc:  623401391 now IPC :0.28234: AVG IPC :0.94309: L2-Pf-HR :0.79825: L2-HR :0.78570: (Sim:0h48m50s) 
CPU  0 inst:  590000001 cyc:  626948479 now IPC :0.28192: AVG IPC :0.93935: L2-Pf-HR :0.79835: L2-HR :0.78572: (Sim:0h48m59s) 
CPU  0 inst:  591000002 cyc:  630494122 now IPC :0.28204: AVG IPC :0.93564: L2-Pf-HR :0.79843: L2-HR :0.78573: (Sim:0h49m9s) 
CPU  0 inst:  592000000 cyc:  634037767 now IPC :0.28219: AVG IPC :0.93199: L2-Pf-HR :0.79854: L2-HR :0.78575: (Sim:0h49m19s) 
CPU  0 inst:  593000003 cyc:  637582750 now IPC :0.28209: AVG IPC :0.92837: L2-Pf-HR :0.79863: L2-HR :0.78576: (Sim:0h49m29s) 
CPU  0 inst:  594000000 cyc:  641128249 now IPC :0.28205: AVG IPC :0.92479: L2-Pf-HR :0.79872: L2-HR :0.78577: (Sim:0h49m39s) 
CPU  0 inst:  595000001 cyc:  644673500 now IPC :0.28207: AVG IPC :0.92125: L2-Pf-HR :0.79881: L2-HR :0.78579: (Sim:0h49m48s) 
CPU  0 inst:  596000000 cyc:  648217414 now IPC :0.28217: AVG IPC :0.91775: L2-Pf-HR :0.79892: L2-HR :0.78582: (Sim:0h49m58s) 
CPU  0 inst:  597000003 cyc:  651763307 now IPC :0.28202: AVG IPC :0.91428: L2-Pf-HR :0.79902: L2-HR :0.78584: (Sim:0h50m8s) 
CPU  0 inst:  598000000 cyc:  655307272 now IPC :0.28217: AVG IPC :0.91086: L2-Pf-HR :0.79912: L2-HR :0.78587: (Sim:0h50m18s) 
CPU  0 inst:  599000001 cyc:  658851063 now IPC :0.28218: AVG IPC :0.90747: L2-Pf-HR :0.79922: L2-HR :0.78589: (Sim:0h50m28s) 
CPU  0 inst:  600000000 cyc:  662396247 now IPC :0.28207: AVG IPC :0.90412: L2-Pf-HR :0.79931: L2-HR :0.78590: (Sim:0h50m37s) 
CPU  0 inst:  601000000 cyc:  665940503 now IPC :0.28215: AVG IPC :0.90081: L2-Pf-HR :0.79941: L2-HR :0.78592: (Sim:0h50m47s) 
CPU  0 inst:  602000000 cyc:  669483392 now IPC :0.28226: AVG IPC :0.89753: L2-Pf-HR :0.79952: L2-HR :0.78595: (Sim:0h50m57s) 
CPU  0 inst:  603000000 cyc:  673026932 now IPC :0.28220: AVG IPC :0.89428: L2-Pf-HR :0.79962: L2-HR :0.78597: (Sim:0h51m7s) 
CPU  0 inst:  604000000 cyc:  676570858 now IPC :0.28217: AVG IPC :0.89107: L2-Pf-HR :0.79972: L2-HR :0.78600: (Sim:0h51m17s) 
CPU  0 inst:  605000001 cyc:  680114615 now IPC :0.28219: AVG IPC :0.88790: L2-Pf-HR :0.79985: L2-HR :0.78605: (Sim:0h51m26s) 
CPU  0 inst:  606000000 cyc:  683660595 now IPC :0.28201: AVG IPC :0.88475: L2-Pf-HR :0.79993: L2-HR :0.78606: (Sim:0h51m36s) 
CPU  0 inst:  607000000 cyc:  687205694 now IPC :0.28208: AVG IPC :0.88163: L2-Pf-HR :0.80002: L2-HR :0.78607: (Sim:0h51m46s) 
CPU  0 inst:  608000000 cyc:  690747217 now IPC :0.28236: AVG IPC :0.87856: L2-Pf-HR :0.80014: L2-HR :0.78611: (Sim:0h51m56s) 
CPU  0 inst:  609000003 cyc:  694291880 now IPC :0.28212: AVG IPC :0.87551: L2-Pf-HR :0.80024: L2-HR :0.78613: (Sim:0h52m6s) 
CPU  0 inst:  610000003 cyc:  697835412 now IPC :0.28220: AVG IPC :0.87249: L2-Pf-HR :0.80034: L2-HR :0.78615: (Sim:0h52m15s) 
CPU  0 inst:  611000001 cyc:  701379830 now IPC :0.28213: AVG IPC :0.86950: L2-Pf-HR :0.80043: L2-HR :0.78617: (Sim:0h52m25s) 
CPU  0 inst:  612000000 cyc:  704927342 now IPC :0.28189: AVG IPC :0.86654: L2-Pf-HR :0.80052: L2-HR :0.78619: (Sim:0h52m35s) 
CPU  0 inst:  613000003 cyc:  708471598 now IPC :0.28215: AVG IPC :0.86362: L2-Pf-HR :0.80062: L2-HR :0.78621: (Sim:0h52m45s) 
CPU  0 inst:  614000003 cyc:  712016696 now IPC :0.28208: AVG IPC :0.86072: L2-Pf-HR :0.80071: L2-HR :0.78623: (Sim:0h52m55s) 
CPU  0 inst:  615000000 cyc:  715560855 now IPC :0.28215: AVG IPC :0.85785: L2-Pf-HR :0.80080: L2-HR :0.78624: (Sim:0h53m4s) 
CPU  0 inst:  616000000 cyc:  719105115 now IPC :0.28215: AVG IPC :0.85500: L2-Pf-HR :0.80090: L2-HR :0.78627: (Sim:0h53m14s) 
CPU  0 inst:  617000002 cyc:  722649024 now IPC :0.28217: AVG IPC :0.85219: L2-Pf-HR :0.80099: L2-HR :0.78629: (Sim:0h53m24s) 
CPU  0 inst:  618000000 cyc:  726194814 now IPC :0.28202: AVG IPC :0.84940: L2-Pf-HR :0.80108: L2-HR :0.78630: (Sim:0h53m34s) 
CPU  0 inst:  619000003 cyc:  729741305 now IPC :0.28197: AVG IPC :0.84664: L2-Pf-HR :0.80116: L2-HR :0.78631: (Sim:0h53m44s) 
CPU  0 inst:  620000000 cyc:  733288397 now IPC :0.28192: AVG IPC :0.84391: L2-Pf-HR :0.80124: L2-HR :0.78632: (Sim:0h53m53s) 
CPU  0 inst:  621000002 cyc:  736833438 now IPC :0.28208: AVG IPC :0.84120: L2-Pf-HR :0.80133: L2-HR :0.78633: (Sim:0h54m3s) 
CPU  0 inst:  622000000 cyc:  740377924 now IPC :0.28213: AVG IPC :0.83852: L2-Pf-HR :0.80142: L2-HR :0.78635: (Sim:0h54m13s) 
CPU  0 inst:  623000000 cyc:  743922743 now IPC :0.28210: AVG IPC :0.83587: L2-Pf-HR :0.80150: L2-HR :0.78636: (Sim:0h54m23s) 
CPU  0 inst:  624000000 cyc:  747466907 now IPC :0.28215: AVG IPC :0.83324: L2-Pf-HR :0.80160: L2-HR :0.78638: (Sim:0h54m33s) 
[...]
CPU  0 inst: 1063000001 cyc: 1069216503 now IPC :1.51929: AVG IPC :0.99323: L2-Pf-HR :0.78364: L2-HR :0.77564: (Sim:1h25m57s) 
CPU  0 inst: 1064000000 cyc: 1069792182 now IPC :1.73708: AVG IPC :0.99363: L2-Pf-HR :0.78363: L2-HR :0.77564: (Sim:1h25m59s) 
CPU  0 inst: 1065000000 cyc: 1070303214 now IPC :1.95682: AVG IPC :0.99409: L2-Pf-HR :0.78364: L2-HR :0.77567: (Sim:1h26m2s) 
CPU  0 inst: 1066000001 cyc: 1070940275 now IPC :1.56971: AVG IPC :0.99443: L2-Pf-HR :0.78359: L2-HR :0.77563: (Sim:1h26m5s) 
CPU  0 inst: 1067000000 cyc: 1071697684 now IPC :1.32029: AVG IPC :0.99466: L2-Pf-HR :0.78353: L2-HR :0.77559: (Sim:1h26m8s) 
CPU  0 inst: 1068000000 cyc: 1072237459 now IPC :1.85262: AVG IPC :0.99509: L2-Pf-HR :0.78352: L2-HR :0.77559: (Sim:1h26m11s) 
CPU  0 inst: 1069000001 cyc: 1072753699 now IPC :1.93709: AVG IPC :0.99555: L2-Pf-HR :0.78353: L2-HR :0.77560: (Sim:1h26m13s) 
CPU  0 inst: 1070000003 cyc: 1073449675 now IPC :1.43683: AVG IPC :0.99583: L2-Pf-HR :0.78346: L2-HR :0.77555: (Sim:1h26m16s) 
CPU  0 inst: 1071000002 cyc: 1073958893 now IPC :1.96379: AVG IPC :0.99629: L2-Pf-HR :0.78347: L2-HR :0.77557: (Sim:1h26m19s) 
CPU  0 inst: 1072000000 cyc: 1074588910 now IPC :1.58726: AVG IPC :0.99664: L2-Pf-HR :0.78342: L2-HR :0.77553: (Sim:1h26m22s) 
CPU  0 inst: 1073000002 cyc: 1075097389 now IPC :1.96665: AVG IPC :0.99710: L2-Pf-HR :0.78344: L2-HR :0.77557: (Sim:1h26m24s) 
CPU  0 inst: 1074000003 cyc: 1075801914 now IPC :1.41940: AVG IPC :0.99738: L2-Pf-HR :0.78339: L2-HR :0.77552: (Sim:1h26m27s) 
CPU  0 inst: 1075000000 cyc: 1076322583 now IPC :1.92060: AVG IPC :0.99782: L2-Pf-HR :0.78339: L2-HR :0.77553: (Sim:1h26m30s) 
CPU  0 inst: 1076000000 cyc: 1076978732 now IPC :1.52404: AVG IPC :0.99814: L2-Pf-HR :0.78333: L2-HR :0.77548: (Sim:1h26m33s) 
CPU  0 inst: 1077000001 cyc: 1077490786 now IPC :1.95292: AVG IPC :0.99860: L2-Pf-HR :0.78334: L2-HR :0.77551: (Sim:1h26m35s) 
CPU  0 inst: 1078000002 cyc: 1078072545 now IPC :1.71893: AVG IPC :0.99899: L2-Pf-HR :0.78332: L2-HR :0.77550: (Sim:1h26m38s) 
CPU  0 inst: 1079000001 cyc: 1078608151 now IPC :1.86704: AVG IPC :0.99942: L2-Pf-HR :0.78332: L2-HR :0.77552: (Sim:1h26m40s) 
CPU  0 inst: 1080000000 cyc: 1079288771 now IPC :1.46925: AVG IPC :0.99971: L2-Pf-HR :0.78328: L2-HR :0.77549: (Sim:1h26m43s) 
CPU  0 inst: 1081000002 cyc: 1079947623 now IPC :1.51779: AVG IPC :1.00003: L2-Pf-HR :0.78325: L2-HR :0.77547: (Sim:1h26m46s) 
CPU  0 inst: 1082000000 cyc: 1080821320 now IPC :1.14456: AVG IPC :1.00015: L2-Pf-HR :0.78324: L2-HR :0.77547: (Sim:1h26m49s) 
CPU  0 inst: 1083000000 cyc: 1081374619 now IPC :1.80734: AVG IPC :1.00056: L2-Pf-HR :0.78324: L2-HR :0.77548: (Sim:1h26m52s) 
CPU  0 inst: 1084000000 cyc: 1081916720 now IPC :1.84467: AVG IPC :1.00098: L2-Pf-HR :0.78324: L2-HR :0.77548: (Sim:1h26m54s) 
CPU  0 inst: 1085000000 cyc: 1082626833 now IPC :1.40823: AVG IPC :1.00125: L2-Pf-HR :0.78317: L2-HR :0.77543: (Sim:1h26m57s) 
CPU  0 inst: 1086000003 cyc: 1083144148 now IPC :1.93306: AVG IPC :1.00170: L2-Pf-HR :0.78319: L2-HR :0.77546: (Sim:1h27m0s) 
CPU  0 inst: 1087000002 cyc: 1083798799 now IPC :1.52753: AVG IPC :1.00201: L2-Pf-HR :0.78313: L2-HR :0.77542: (Sim:1h27m3s) 
CPU  0 inst: 1088000000 cyc: 1084327096 now IPC :1.89287: AVG IPC :1.00245: L2-Pf-HR :0.78315: L2-HR :0.77544: (Sim:1h27m6s) 
CPU  0 inst: 1089000001 cyc: 1085130912 now IPC :1.24407: AVG IPC :1.00263: L2-Pf-HR :0.78307: L2-HR :0.77537: (Sim:1h27m9s) 
CPU  0 inst: 1090000002 cyc: 1085647024 now IPC :1.93757: AVG IPC :1.00307: L2-Pf-HR :0.78307: L2-HR :0.77538: (Sim:1h27m11s) 
CPU  0 inst: 1091000002 cyc: 1086362714 now IPC :1.39725: AVG IPC :1.00333: L2-Pf-HR :0.78300: L2-HR :0.77532: (Sim:1h27m14s) 
CPU  0 inst: 1092000000 cyc: 1086874829 now IPC :1.95268: AVG IPC :1.00378: L2-Pf-HR :0.78301: L2-HR :0.77535: (Sim:1h27m17s) 
CPU  0 inst: 1093000001 cyc: 1087510421 now IPC :1.57334: AVG IPC :1.00411: L2-Pf-HR :0.78297: L2-HR :0.77532: (Sim:1h27m19s) 
CPU  0 inst: 1094000000 cyc: 1088024411 now IPC :1.94556: AVG IPC :1.00456: L2-Pf-HR :0.78299: L2-HR :0.77535: (Sim:1h27m22s) 
CPU  0 inst: 1095000001 cyc: 1088843675 now IPC :1.22061: AVG IPC :1.00472: L2-Pf-HR :0.78292: L2-HR :0.77529: (Sim:1h27m25s) 
CPU  0 inst: 1096000000 cyc: 1089360081 now IPC :1.93646: AVG IPC :1.00516: L2-Pf-HR :0.78292: L2-HR :0.77530: (Sim:1h27m27s) 
CPU  0 inst: 1097000003 cyc: 1090076108 now IPC :1.39660: AVG IPC :1.00542: L2-Pf-HR :0.78284: L2-HR :0.77524: (Sim:1h27m30s) 
CPU  0 inst: 1098000003 cyc: 1090598014 now IPC :1.91605: AVG IPC :1.00586: L2-Pf-HR :0.78284: L2-HR :0.77525: (Sim:1h27m33s) 
CPU  0 inst: 1099000001 cyc: 1091118989 now IPC :1.91947: AVG IPC :1.00629: L2-Pf-HR :0.78284: L2-HR :0.77526: (Sim:1h27m35s) 
CPU  0 inst: 1100000000 cyc: 1091747536 now IPC :1.59097: AVG IPC :1.00663: L2-Pf-HR :0.78279: L2-HR :0.77522: (Sim:1h27m38s) 
CPU  0 inst: 1101000001 cyc: 1092517689 now IPC :1.29844: AVG IPC :1.00684: L2-Pf-HR :0.78272: L2-HR :0.77517: (Sim:1h27m41s) 
CPU  0 inst: 1102000003 cyc: 1093047779 now IPC :1.88648: AVG IPC :1.00726: L2-Pf-HR :0.78271: L2-HR :0.77516: (Sim:1h27m43s) 
CPU  0 inst: 1103000001 cyc: 1093579457 now IPC :1.88083: AVG IPC :1.00769: L2-Pf-HR :0.78268: L2-HR :0.77514: (Sim:1h27m46s) 
CPU  0 inst: 1104000000 cyc: 1094265734 now IPC :1.45714: AVG IPC :1.00797: L2-Pf-HR :0.78261: L2-HR :0.77509: (Sim:1h27m49s) 
CPU  0 inst: 1105000003 cyc: 1094778516 now IPC :1.95015: AVG IPC :1.00841: L2-Pf-HR :0.78261: L2-HR :0.77510: (Sim:1h27m51s) 
CPU  0 inst: 1106000000 cyc: 1095403762 now IPC :1.59937: AVG IPC :1.00875: L2-Pf-HR :0.78255: L2-HR :0.77506: (Sim:1h27m54s) 
CPU  0 inst: 1107000003 cyc: 1095925136 now IPC :1.91801: AVG IPC :1.00918: L2-Pf-HR :0.78256: L2-HR :0.77509: (Sim:1h27m57s) 
CPU  0 inst: 1108000000 cyc: 1096628379 now IPC :1.42198: AVG IPC :1.00945: L2-Pf-HR :0.78249: L2-HR :0.77503: (Sim:1h27m59s) 
CPU  0 inst: 1109000003 cyc: 1097143315 now IPC :1.94199: AVG IPC :1.00989: L2-Pf-HR :0.78248: L2-HR :0.77502: (Sim:1h28m2s) 
CPU  0 inst: 1110000003 cyc: 1097804232 now IPC :1.51305: AVG IPC :1.01019: L2-Pf-HR :0.78242: L2-HR :0.77497: (Sim:1h28m5s) 
CPU  0 inst: 1111000000 cyc: 1098315167 now IPC :1.95719: AVG IPC :1.01063: L2-Pf-HR :0.78242: L2-HR :0.77499: (Sim:1h28m7s) 
CPU  0 inst: 1112000000 cyc: 1098922447 now IPC :1.64669: AVG IPC :1.01098: L2-Pf-HR :0.78238: L2-HR :0.77496: (Sim:1h28m10s) 
CPU  0 inst: 1113000003 cyc: 1099433099 now IPC :1.95829: AVG IPC :1.01142: L2-Pf-HR :0.78238: L2-HR :0.77498: (Sim:1h28m12s) 
CPU  0 inst: 1114000000 cyc: 1100113331 now IPC :1.47008: AVG IPC :1.01171: L2-Pf-HR :0.78234: L2-HR :0.77495: (Sim:1h28m15s) 
CPU  0 inst: 1115000003 cyc: 1100775181 now IPC :1.51092: AVG IPC :1.01201: L2-Pf-HR :0.78232: L2-HR :0.77494: (Sim:1h28m18s) 
CPU  0 inst: 1116000000 cyc: 1101646256 now IPC :1.14800: AVG IPC :1.01211: L2-Pf-HR :0.78232: L2-HR :0.77494: (Sim:1h28m21s) 
CPU  0 inst: 1117000001 cyc: 1102184643 now IPC :1.85740: AVG IPC :1.01253: L2-Pf-HR :0.78231: L2-HR :0.77494: (Sim:1h28m24s) 
CPU  0 inst: 1118000002 cyc: 1102803125 now IPC :1.61686: AVG IPC :1.01287: L2-Pf-HR :0.78228: L2-HR :0.77491: (Sim:1h28m26s) 
CPU  0 inst: 1119000001 cyc: 1103439248 now IPC :1.57202: AVG IPC :1.01319: L2-Pf-HR :0.78225: L2-HR :0.77489: (Sim:1h28m29s) 
CPU  0 inst: 1120000000 cyc: 1103959241 now IPC :1.92310: AVG IPC :1.01362: L2-Pf-HR :0.78226: L2-HR :0.77491: (Sim:1h28m32s) 
CPU  0 inst: 1121000003 cyc: 1104616185 now IPC :1.52220: AVG IPC :1.01392: L2-Pf-HR :0.78221: L2-HR :0.77488: (Sim:1h28m34s) 
CPU  0 inst: 1122000000 cyc: 1105405363 now IPC :1.26714: AVG IPC :1.01410: L2-Pf-HR :0.78214: L2-HR :0.77483: (Sim:1h28m37s) 
CPU  0 inst: 1123000000 cyc: 1105947244 now IPC :1.84542: AVG IPC :1.01451: L2-Pf-HR :0.78216: L2-HR :0.77485: (Sim:1h28m40s) 
CPU  0 inst: 1124000000 cyc: 1106464235 now IPC :1.93427: AVG IPC :1.01494: L2-Pf-HR :0.78218: L2-HR :0.77487: (Sim:1h28m43s) 
CPU  0 inst: 1125000003 cyc: 1107193032 now IPC :1.37213: AVG IPC :1.01518: L2-Pf-HR :0.78212: L2-HR :0.77483: (Sim:1h28m46s) 
CPU  0 inst: 1126000000 cyc: 1107703208 now IPC :1.96010: AVG IPC :1.01561: L2-Pf-HR :0.78216: L2-HR :0.77487: (Sim:1h28m48s) 
CPU  0 inst: 1127000001 cyc: 1108347934 now IPC :1.55105: AVG IPC :1.01592: L2-Pf-HR :0.78212: L2-HR :0.77485: (Sim:1h28m51s) 
CPU  0 inst: 1128000000 cyc: 1108856725 now IPC :1.96544: AVG IPC :1.01636: L2-Pf-HR :0.78215: L2-HR :0.77489: (Sim:1h28m53s) 
CPU  0 inst: 1129000003 cyc: 1109667341 now IPC :1.23363: AVG IPC :1.01652: L2-Pf-HR :0.78208: L2-HR :0.77483: (Sim:1h28m56s) 
CPU  0 inst: 1130000003 cyc: 1110187463 now IPC :1.92263: AVG IPC :1.01694: L2-Pf-HR :0.78208: L2-HR :0.77483: (Sim:1h28m59s) 
CPU  0 inst: 1131000000 cyc: 1110906691 now IPC :1.39038: AVG IPC :1.01718: L2-Pf-HR :0.78200: L2-HR :0.77476: (Sim:1h29m2s) 
CPU  0 inst: 1132000000 cyc: 1111423543 now IPC :1.93479: AVG IPC :1.01761: L2-Pf-HR :0.78201: L2-HR :0.77478: (Sim:1h29m4s) 
CPU  0 inst: 1133000003 cyc: 1112003414 now IPC :1.72453: AVG IPC :1.01798: L2-Pf-HR :0.78199: L2-HR :0.77477: (Sim:1h29m7s) 
CPU  0 inst: 1134000002 cyc: 1112568394 now IPC :1.76997: AVG IPC :1.01836: L2-Pf-HR :0.78197: L2-HR :0.77477: (Sim:1h29m10s) 
CPU  0 inst: 1135000003 cyc: 1113342486 now IPC :1.29184: AVG IPC :1.01855: L2-Pf-HR :0.78190: L2-HR :0.77472: (Sim:1h29m13s) 
CPU  0 inst: 1136000000 cyc: 1113873940 now IPC :1.88162: AVG IPC :1.01897: L2-Pf-HR :0.78190: L2-HR :0.77472: (Sim:1h29m15s) 
CPU  0 inst: 1137000000 cyc: 1114496653 now IPC :1.60588: AVG IPC :1.01929: L2-Pf-HR :0.78185: L2-HR :0.77468: (Sim:1h29m18s) 
CPU  0 inst: 1138000000 cyc: 1115094794 now IPC :1.67185: AVG IPC :1.01964: L2-Pf-HR :0.78183: L2-HR :0.77467: (Sim:1h29m21s) 
CPU  0 inst: 1139000003 cyc: 1115606319 now IPC :1.95494: AVG IPC :1.02007: L2-Pf-HR :0.78184: L2-HR :0.77469: (Sim:1h29m23s) 
CPU  0 inst: 1140000000 cyc: 1116230282 now IPC :1.60265: AVG IPC :1.02040: L2-Pf-HR :0.78180: L2-HR :0.77466: (Sim:1h29m26s) 
CPU  0 inst: 1141000002 cyc: 1116903498 now IPC :1.48541: AVG IPC :1.02068: L2-Pf-HR :0.78175: L2-HR :0.77464: (Sim:1h29m29s) 
CPU  0 inst: 1142000003 cyc: 1117456165 now IPC :1.80941: AVG IPC :1.02107: L2-Pf-HR :0.78175: L2-HR :0.77463: (Sim:1h29m32s) 
CPU  0 inst: 1143000000 cyc: 1117971554 now IPC :1.94028: AVG IPC :1.02149: L2-Pf-HR :0.78174: L2-HR :0.77464: (Sim:1h29m34s) 
CPU  0 inst: 1144000000 cyc: 1118630487 now IPC :1.51760: AVG IPC :1.02179: L2-Pf-HR :0.78169: L2-HR :0.77459: (Sim:1h29m37s) 
CPU  0 inst: 1145000002 cyc: 1119140374 now IPC :1.96122: AVG IPC :1.02222: L2-Pf-HR :0.78170: L2-HR :0.77462: (Sim:1h29m39s) 
CPU  0 inst: 1146000002 cyc: 1119751207 now IPC :1.63711: AVG IPC :1.02255: L2-Pf-HR :0.78167: L2-HR :0.77460: (Sim:1h29m42s) 
CPU  0 inst: 1147000002 cyc: 1120260763 now IPC :1.96249: AVG IPC :1.02298: L2-Pf-HR :0.78168: L2-HR :0.77463: (Sim:1h29m45s) 
CPU  0 inst: 1148000000 cyc: 1120945724 now IPC :1.45993: AVG IPC :1.02325: L2-Pf-HR :0.78163: L2-HR :0.77459: (Sim:1h29m48s) 
CPU  0 inst: 1149000002 cyc: 1121693270 now IPC :1.33771: AVG IPC :1.02346: L2-Pf-HR :0.78159: L2-HR :0.77455: (Sim:1h29m51s) 
CPU  0 inst: 1150000003 cyc: 1122495516 now IPC :1.24650: AVG IPC :1.02362: L2-Pf-HR :0.78159: L2-HR :0.77456: (Sim:1h29m54s) 
CPU  0 inst: 1151000001 cyc: 1123022785 now IPC :1.89656: AVG IPC :1.02403: L2-Pf-HR :0.78159: L2-HR :0.77456: (Sim:1h29m56s) 
CPU  0 inst: 1152000000 cyc: 1123731919 now IPC :1.41017: AVG IPC :1.02427: L2-Pf-HR :0.78152: L2-HR :0.77451: (Sim:1h29m59s) 
CPU  0 inst: 1153000001 cyc: 1124271310 now IPC :1.85394: AVG IPC :1.02467: L2-Pf-HR :0.78153: L2-HR :0.77453: (Sim:1h30m2s) 
CPU  0 inst: 1154000002 cyc: 1124796914 now IPC :1.90257: AVG IPC :1.02508: L2-Pf-HR :0.78155: L2-HR :0.77456: (Sim:1h30m4s) 
CPU  0 inst: 1155000003 cyc: 1125437291 now IPC :1.56158: AVG IPC :1.02538: L2-Pf-HR :0.78150: L2-HR :0.77453: (Sim:1h30m7s) 
CPU  0 inst: 1156000000 cyc: 1126241943 now IPC :1.24277: AVG IPC :1.02554: L2-Pf-HR :0.78144: L2-HR :0.77448: (Sim:1h30m10s) 
CPU  0 inst: 1157000000 cyc: 1126781239 now IPC :1.85427: AVG IPC :1.02594: L2-Pf-HR :0.78144: L2-HR :0.77448: (Sim:1h30m12s) 
CPU  0 inst: 1158000001 cyc: 1127314813 now IPC :1.87416: AVG IPC :1.02634: L2-Pf-HR :0.78144: L2-HR :0.77448: (Sim:1h30m15s) 
CPU  0 inst: 1159000001 cyc: 1128022524 now IPC :1.41301: AVG IPC :1.02658: L2-Pf-HR :0.78138: L2-HR :0.77444: (Sim:1h30m18s) 
CPU  0 inst: 1160000000 cyc: 1128534484 now IPC :1.95328: AVG IPC :1.02700: L2-Pf-HR :0.78141: L2-HR :0.77447: (Sim:1h30m20s) 
CPU  0 inst: 1161000001 cyc: 1129175703 now IPC :1.55953: AVG IPC :1.02730: L2-Pf-HR :0.78138: L2-HR :0.77446: (Sim:1h30m23s) 
CPU  0 inst: 1162000003 cyc: 1129694246 now IPC :1.92848: AVG IPC :1.02772: L2-Pf-HR :0.78141: L2-HR :0.77450: (Sim:1h30m26s) 
CPU  0 inst: 1163000000 cyc: 1130489470 now IPC :1.25750: AVG IPC :1.02788: L2-Pf-HR :0.78134: L2-HR :0.77444: (Sim:1h30m29s) 
CPU  0 inst: 1164000000 cyc: 1131005498 now IPC :1.93788: AVG IPC :1.02830: L2-Pf-HR :0.78134: L2-HR :0.77444: (Sim:1h30m31s) 
CPU  0 inst: 1165000002 cyc: 1131722368 now IPC :1.39496: AVG IPC :1.02853: L2-Pf-HR :0.78126: L2-HR :0.77437: (Sim:1h30m34s) 
CPU  0 inst: 1166000001 cyc: 1132233286 now IPC :1.95726: AVG IPC :1.02895: L2-Pf-HR :0.78126: L2-HR :0.77439: (Sim:1h30m36s) 
CPU  0 inst: 1167000001 cyc: 1132864490 now IPC :1.58427: AVG IPC :1.02926: L2-Pf-HR :0.78122: L2-HR :0.77436: (Sim:1h30m39s) 
CPU  0 inst: 1168000000 cyc: 1133378905 now IPC :1.94395: AVG IPC :1.02967: L2-Pf-HR :0.78123: L2-HR :0.77438: (Sim:1h30m42s) 
CPU  0 inst: 1169000001 cyc: 1134170487 now IPC :1.26329: AVG IPC :1.02984: L2-Pf-HR :0.78117: L2-HR :0.77433: (Sim:1h30m45s) 
CPU  0 inst: 1170000000 cyc: 1134687442 now IPC :1.93440: AVG IPC :1.03025: L2-Pf-HR :0.78117: L2-HR :0.77433: (Sim:1h30m47s) 
CPU  0 inst: 1171000000 cyc: 1135377768 now IPC :1.44859: AVG IPC :1.03050: L2-Pf-HR :0.78109: L2-HR :0.77427: (Sim:1h30m50s) 
CPU  0 inst: 1172000000 cyc: 1135897453 now IPC :1.92424: AVG IPC :1.03091: L2-Pf-HR :0.78110: L2-HR :0.77429: (Sim:1h30m53s) 
CPU  0 inst: 1173000000 cyc: 1136415632 now IPC :1.92984: AVG IPC :1.03132: L2-Pf-HR :0.78111: L2-HR :0.77431: (Sim:1h30m55s) 
CPU  0 inst: 1174000003 cyc: 1137027104 now IPC :1.63540: AVG IPC :1.03165: L2-Pf-HR :0.78107: L2-HR :0.77428: (Sim:1h30m58s) 
CPU  0 inst: 1175000000 cyc: 1137723997 now IPC :1.43494: AVG IPC :1.03190: L2-Pf-HR :0.78103: L2-HR :0.77426: (Sim:1h31m1s) 
CPU  0 inst: 1176000000 cyc: 1138248402 now IPC :1.90692: AVG IPC :1.03230: L2-Pf-HR :0.78104: L2-HR :0.77427: (Sim:1h31m3s) 
CPU  0 inst: 1177000001 cyc: 1138777450 now IPC :1.89019: AVG IPC :1.03270: L2-Pf-HR :0.78104: L2-HR :0.77427: (Sim:1h31m6s) 
CPU  0 inst: 1178000002 cyc: 1139422949 now IPC :1.54919: AVG IPC :1.03299: L2-Pf-HR :0.78100: L2-HR :0.77424: (Sim:1h31m9s) 
CPU  0 inst: 1179000002 cyc: 1139932061 now IPC :1.96420: AVG IPC :1.03341: L2-Pf-HR :0.78102: L2-HR :0.77427: (Sim:1h31m11s) 
CPU  0 inst: 1180000000 cyc: 1140539791 now IPC :1.64546: AVG IPC :1.03373: L2-Pf-HR :0.78098: L2-HR :0.77425: (Sim:1h31m14s) 
Finished CPU 0 instr: 1178000000 cyc: 1139559190 AVG IPC: 1.03373 (Sim time: 1h31m14s)

ChampSim completed all CPUs

[ROI Statistics]
Core_0_instructions 1178000000
Core_0_cycles 1139559190
Core_0_IPC 1.03373

Core_0_branch_prediction_accuracy 98.59145
Core_0_branch_MPKI 0.33782
Core_0_average_ROB_occupancy_at_mispredict 250.63149

Core_0_L1D_total_access 698045387
Core_0_L1D_total_hit 672147700 L1D_total_Hit Ratio: 0.96290
Core_0_L1D_total_miss 25897687
Core_0_L1D_loads 268207173
Core_0_L1D_load_hit 257329214 L1D_load_Hit Ratio: 0.95944
Core_0_L1D_load_miss 10877959
Core_0_L1D_RFOs 22859600
Core_0_L1D_RFO_hit 21626099 L1D_RFO_Hit Ratio: 0.94604
Core_0_L1D_RFO_miss 1233501
Core_0_L1D_prefetches 406978614
Core_0_L1D_prefetch_hit 393192387 L1D_prefetch_Hit Ratio: 0.96613
Core_0_L1D_prefetch_miss 13786227
Core_0_L1D_writebacks 0
Core_0_L1D_writeback_hit 0 L1D_writeback_Hit Ratio: -nan
Core_0_L1D_writeback_miss 0
Core_0_L1D_prefetch_requested 808670310
Core_0_L1D_prefetch_issued 488964883
Core_0_L1D_prefetch_useful 11158288 L1D_Useful Ratio: 0.02282
Core_0_L1D_prefetch_useless 2656400
Core_0_L1D_prefetch_late 2330048
Core_0_L1D_average_miss_latency 44758585.45969

Core_0_L1I_total_access 271510375
Core_0_L1I_total_hit 271505496 L1I_total_Hit Ratio: 0.99998
Core_0_L1I_total_miss 4879
Core_0_L1I_loads 271510375
Core_0_L1I_load_hit 271505496 L1I_load_Hit Ratio: 0.99998
Core_0_L1I_load_miss 4879
Core_0_L1I_RFOs 0
Core_0_L1I_RFO_hit 0 L1I_RFO_Hit Ratio: -nan
Core_0_L1I_RFO_miss 0
Core_0_L1I_prefetches 0
Core_0_L1I_prefetch_hit 0 L1I_prefetch_Hit Ratio: -nan
Core_0_L1I_prefetch_miss 0
Core_0_L1I_writebacks 0
Core_0_L1I_writeback_hit 0 L1I_writeback_Hit Ratio: -nan
Core_0_L1I_writeback_miss 0
Core_0_L1I_prefetch_requested 0
Core_0_L1I_prefetch_issued 0
Core_0_L1I_prefetch_useful 0 L1I_Useful Ratio: -nan
Core_0_L1I_prefetch_useless 0
Core_0_L1I_prefetch_late 0
Core_0_L1I_average_miss_latency 330.30088

Core_0_L2C_total_access 112767040
Core_0_L2C_total_hit 87309754 L2C_total_Hit Ratio: 0.77425
Core_0_L2C_total_miss 25457286
Core_0_L2C_loads 8553787
Core_0_L2C_load_hit 5538755 L2C_load_Hit Ratio: 0.64752
Core_0_L2C_load_miss 3015032
Core_0_L2C_RFOs 1233469
Core_0_L2C_RFO_hit 161956 L2C_RFO_Hit Ratio: 0.13130
Core_0_L2C_RFO_miss 1071513
Core_0_L2C_prefetches 96975149
Core_0_L2C_prefetch_hit 75735373 L2C_prefetch_Hit Ratio: 0.78098
Core_0_L2C_prefetch_miss 21239776
Core_0_L2C_writebacks 6004635
Core_0_L2C_writeback_hit 5873670 L2C_writeback_Hit Ratio: 0.97819
Core_0_L2C_writeback_miss 130965
Core_0_L2C_prefetch_requested 161754976
Core_0_L2C_prefetch_issued 127667072
Core_0_L2C_prefetch_useful 4978339 L2C_Useful Ratio: 0.03899
Core_0_L2C_prefetch_useless 16301704
Core_0_L2C_prefetch_late 146923
Core_0_L2C_average_miss_latency 123.72452

Core_0_LLC_total_access 31735625
Core_0_LLC_total_hit 24363970 LLC_total_Hit Ratio: 0.76772
Core_0_LLC_total_miss 7371655
Core_0_LLC_loads 2868125
Core_0_LLC_load_hit 2128927 LLC_load_Hit Ratio: 0.74227
Core_0_LLC_load_miss 739198
Core_0_LLC_RFOs 1071491
Core_0_LLC_RFO_hit 68938 LLC_RFO_Hit Ratio: 0.06434
Core_0_LLC_RFO_miss 1002553
Core_0_LLC_prefetches 21855783
Core_0_LLC_prefetch_hit 16226639 LLC_prefetch_Hit Ratio: 0.74244
Core_0_LLC_prefetch_miss 5629144
Core_0_LLC_writebacks 5940226
Core_0_LLC_writeback_hit 5939466 LLC_writeback_Hit Ratio: 0.99987
Core_0_LLC_writeback_miss 760
Core_0_LLC_prefetch_requested 0
Core_0_LLC_prefetch_issued 0
Core_0_LLC_prefetch_useful 1135519 LLC_Useful Ratio: inf
Core_0_LLC_prefetch_useless 4493544
Core_0_LLC_prefetch_late 39288
Core_0_LLC_average_miss_latency 341.55781

Core_0_major_page_fault 0
Core_0_minor_page_fault 42073

CPU 0 L1D next line prefetcher final stats
CPU 0 L2C PC-based stride prefetcher final stats
Stride Degree: 15
MK1  MARKOV_LRU_SIZE: 128
MK1  MARKOV_PREDICTION_PERCENTTHRESHOLD: 40.00000
MK1  OUTLIERS_THRESHOLD_Max: 64
MK1  OUTLIERS_THRESHOLD_Min: 32
MK2  MARKOV_LRU_SIZE: 256
MK2  MARKOV_PREDICTION_PERCENTTHRESHOLD: 30.00000
MK2  OUTLIERS_THRESHOLD_Max: 32
MK2  OUTLIERS_THRESHOLD_Min: 16
MK3  MARKOV_LRU_SIZE: 384
MK3  MARKOV_PREDICTION_PERCENTTHRESHOLD: 25.00000
MK3  OUTLIERS_THRESHOLD_Max: 16
MK3  OUTLIERS_THRESHOLD_Min: 8
MK4  MARKOV_LRU_SIZE: 512
MK4  MARKOV_PREDICTION_PERCENTTHRESHOLD: 20.00000
MK4  OUTLIERS_THRESHOLD_Max: 8
MK4  OUTLIERS_THRESHOLD_Min: 0
IPStride Degree/Access Ratio: 4.82770
MK1 IPDEltaMarkov  Degree/Access Ratio: 0.20549
MK2 IPDEltaMarkov  Degree/Access Ratio: 0.18114
MK3 IPDEltaMarkov  Degree/Access Ratio: 0.48764
MK4 IPDEltaMarkov  Degree/Access Ratio: 1.41985
Channel_0_RQ_row_buffer_hit 3859347
Channel_0_RQ_row_buffer_miss 3510205
Channel_0_WQ_row_buffer_hit 866379
Channel_0_WQ_row_buffer_miss 2909581
Channel_0_WQ_full 0
Channel_0_dbus_congested 7297415

avg_congested_cycle 11

EzSearch AVG IPC :1.03373: L2-Pf-HR :0.78098 : L2-HR :0.77425 Uful:0.03899
     > Finished combination: TraceType=770-tot Sim:1178000000 Prefetcher=L2029-SecTOP-L2-MultiMarkovDelta_ip_stride_v4-MK2-P30 L1=next_line
