TRACE: [167000000][OPT-350M]_[h16][s512][d64] Warmup: 2000000 NumTraces: 167000000
L1:bingo_dpc3:L2:bingo_dpc3
*************************************************
   ChampSim Multicore Out-of-Order Simulator
   Last compiled: Oct 26 2024 13:13:11
*************************************************

trace_0 770-tot_memTraces_v3/memTraces[167000000][OPT-350M]_[h16][s512][d64].champsim.xz
Bingo PHT WAYS: 16 and PHT_SIZE: 16384
Bingo2 PHT WAYS: 16 and PHT_SIZE: 16384
MAIN.cc ln 751 stats print skipped
CPU  0 inst:    1000002 cyc:     501908 now IPC :1.99240: AVG IPC :1.99240: L2-Pf-HR :0.65285: L2-HR :0.59665: (Sim:0h0m3s) 
CPU  0 inst:    2000002 cyc:     976174 now IPC :2.10852: AVG IPC :2.04882: L2-Pf-HR :0.70549: L2-HR :0.64456: (Sim:0h0m5s) 

Warmup complete CPU  0 instructions:    2000002 cycles:     976174 (Simulation time: 0 hr 0 min 5 sec) 

CPU  0 inst:    3000001 cyc:    1657900 now IPC :1.46686: AVG IPC :1.46686: L2-Pf-HR :0.76781: L2-HR :0.68634: (Sim:0h0m8s) 
CPU  0 inst:    4000000 cyc:    2330432 now IPC :1.48692: AVG IPC :1.47682: L2-Pf-HR :0.77063: L2-HR :0.70172: (Sim:0h0m11s) 
CPU  0 inst:    5000000 cyc:    3053674 now IPC :1.38266: AVG IPC :1.44404: L2-Pf-HR :0.70914: L2-HR :0.66968: (Sim:0h0m14s) 
CPU  0 inst:    6000002 cyc:    3733531 now IPC :1.47090: AVG IPC :1.45066: L2-Pf-HR :0.70331: L2-HR :0.66303: (Sim:0h0m17s) 
CPU  0 inst:    7000000 cyc:    4401252 now IPC :1.49763: AVG IPC :1.45982: L2-Pf-HR :0.70167: L2-HR :0.66030: (Sim:0h0m19s) 
CPU  0 inst:    8000000 cyc:    5130895 now IPC :1.37053: AVG IPC :1.44414: L2-Pf-HR :0.70941: L2-HR :0.66609: (Sim:0h0m22s) 
CPU  0 inst:    9000002 cyc:    5924860 now IPC :1.25950: AVG IPC :1.41452: L2-Pf-HR :0.68789: L2-HR :0.65513: (Sim:0h0m25s) 
CPU  0 inst:   10000002 cyc:    6637836 now IPC :1.40257: AVG IPC :1.41301: L2-Pf-HR :0.67377: L2-HR :0.64541: (Sim:0h0m28s) 
CPU  0 inst:   11000003 cyc:    7351689 now IPC :1.40085: AVG IPC :1.41165: L2-Pf-HR :0.66902: L2-HR :0.64120: (Sim:0h0m31s) 
CPU  0 inst:   12000000 cyc:    8102914 now IPC :1.33116: AVG IPC :1.40317: L2-Pf-HR :0.67647: L2-HR :0.64592: (Sim:0h0m34s) 
CPU  0 inst:   13000000 cyc:    8895293 now IPC :1.26202: AVG IPC :1.38904: L2-Pf-HR :0.66972: L2-HR :0.64344: (Sim:0h0m37s) 
CPU  0 inst:   14000000 cyc:    9623169 now IPC :1.37386: AVG IPC :1.38777: L2-Pf-HR :0.67215: L2-HR :0.64422: (Sim:0h0m40s) 
CPU  0 inst:   15000000 cyc:   10344502 now IPC :1.38632: AVG IPC :1.38765: L2-Pf-HR :0.67133: L2-HR :0.64309: (Sim:0h0m42s) 
CPU  0 inst:   16000000 cyc:   11085540 now IPC :1.34946: AVG IPC :1.38485: L2-Pf-HR :0.67888: L2-HR :0.64790: (Sim:0h0m45s) 
CPU  0 inst:   17000002 cyc:   11889530 now IPC :1.24380: AVG IPC :1.37446: L2-Pf-HR :0.67356: L2-HR :0.64594: (Sim:0h0m48s) 
CPU  0 inst:   18000001 cyc:   12609390 now IPC :1.38916: AVG IPC :1.37537: L2-Pf-HR :0.67385: L2-HR :0.64566: (Sim:0h0m51s) 
CPU  0 inst:   19000001 cyc:   13330683 now IPC :1.38640: AVG IPC :1.37602: L2-Pf-HR :0.67220: L2-HR :0.64395: (Sim:0h0m54s) 
CPU  0 inst:   20000000 cyc:   14068877 now IPC :1.35466: AVG IPC :1.37481: L2-Pf-HR :0.67856: L2-HR :0.64778: (Sim:0h0m57s) 
CPU  0 inst:   21000000 cyc:   14867095 now IPC :1.25279: AVG IPC :1.36780: L2-Pf-HR :0.67608: L2-HR :0.64747: (Sim:0h1m0s) 
CPU  0 inst:   22000003 cyc:   15581850 now IPC :1.39909: AVG IPC :1.36933: L2-Pf-HR :0.67760: L2-HR :0.64810: (Sim:0h1m3s) 
CPU  0 inst:   23000003 cyc:   16289381 now IPC :1.41337: AVG IPC :1.37137: L2-Pf-HR :0.67720: L2-HR :0.64754: (Sim:0h1m5s) 
CPU  0 inst:   24000000 cyc:   17026716 now IPC :1.35623: AVG IPC :1.37067: L2-Pf-HR :0.68141: L2-HR :0.64989: (Sim:0h1m8s) 
CPU  0 inst:   25000001 cyc:   17824481 now IPC :1.25350: AVG IPC :1.36512: L2-Pf-HR :0.67804: L2-HR :0.64870: (Sim:0h1m11s) 
CPU  0 inst:   26000001 cyc:   18525129 now IPC :1.42725: AVG IPC :1.36760: L2-Pf-HR :0.67765: L2-HR :0.64808: (Sim:0h1m14s) 
CPU  0 inst:   27000001 cyc:   19236970 now IPC :1.40481: AVG IPC :1.36905: L2-Pf-HR :0.67661: L2-HR :0.64713: (Sim:0h1m17s) 
CPU  0 inst:   28000000 cyc:   19973709 now IPC :1.35733: AVG IPC :1.36860: L2-Pf-HR :0.67871: L2-HR :0.64818: (Sim:0h1m20s) 
CPU  0 inst:   29000001 cyc:   20775783 now IPC :1.24677: AVG IPC :1.36366: L2-Pf-HR :0.67549: L2-HR :0.64725: (Sim:0h1m22s) 
CPU  0 inst:   30000003 cyc:   21509251 now IPC :1.36339: AVG IPC :1.36365: L2-Pf-HR :0.67831: L2-HR :0.64866: (Sim:0h1m25s) 
CPU  0 inst:   31000000 cyc:   22226922 now IPC :1.39339: AVG IPC :1.36466: L2-Pf-HR :0.67919: L2-HR :0.64897: (Sim:0h1m28s) 
CPU  0 inst:   32000000 cyc:   22966472 now IPC :1.35217: AVG IPC :1.36424: L2-Pf-HR :0.68073: L2-HR :0.64959: (Sim:0h1m31s) 
CPU  0 inst:   33000002 cyc:   23738082 now IPC :1.29599: AVG IPC :1.36192: L2-Pf-HR :0.68246: L2-HR :0.65135: (Sim:0h1m34s) 
CPU  0 inst:   34000002 cyc:   24480696 now IPC :1.34659: AVG IPC :1.36144: L2-Pf-HR :0.67813: L2-HR :0.64846: (Sim:0h1m37s) 
CPU  0 inst:   35000002 cyc:   25169171 now IPC :1.45249: AVG IPC :1.36403: L2-Pf-HR :0.67522: L2-HR :0.64636: (Sim:0h1m39s) 
CPU  0 inst:   36000000 cyc:   25856012 now IPC :1.45594: AVG IPC :1.36657: L2-Pf-HR :0.67476: L2-HR :0.64560: (Sim:0h1m42s) 
CPU  0 inst:   37000003 cyc:   26589257 now IPC :1.36380: AVG IPC :1.36649: L2-Pf-HR :0.67676: L2-HR :0.64725: (Sim:0h1m45s) 
CPU  0 inst:   38000003 cyc:   27382310 now IPC :1.26095: AVG IPC :1.36332: L2-Pf-HR :0.67242: L2-HR :0.64475: (Sim:0h1m48s) 
CPU  0 inst:   39000002 cyc:   28095430 now IPC :1.40229: AVG IPC :1.36434: L2-Pf-HR :0.67094: L2-HR :0.64361: (Sim:0h1m51s) 
CPU  0 inst:   40000000 cyc:   28815715 now IPC :1.38834: AVG IPC :1.36496: L2-Pf-HR :0.67022: L2-HR :0.64275: (Sim:0h1m54s) 
CPU  0 inst:   41000003 cyc:   29555439 now IPC :1.35186: AVG IPC :1.36463: L2-Pf-HR :0.67301: L2-HR :0.64485: (Sim:0h1m57s) 
CPU  0 inst:   42000000 cyc:   30342345 now IPC :1.27080: AVG IPC :1.36211: L2-Pf-HR :0.66953: L2-HR :0.64302: (Sim:0h2m0s) 
CPU  0 inst:   43000001 cyc:   31028179 now IPC :1.45808: AVG IPC :1.36430: L2-Pf-HR :0.66669: L2-HR :0.64110: (Sim:0h2m3s) 
CPU  0 inst:   44000000 cyc:   31719253 now IPC :1.44702: AVG IPC :1.36616: L2-Pf-HR :0.66508: L2-HR :0.63975: (Sim:0h2m6s) 
CPU  0 inst:   45000002 cyc:   32469641 now IPC :1.33265: AVG IPC :1.36536: L2-Pf-HR :0.66723: L2-HR :0.64121: (Sim:0h2m8s) 
CPU  0 inst:   46000002 cyc:   33255806 now IPC :1.27200: AVG IPC :1.36309: L2-Pf-HR :0.66466: L2-HR :0.63991: (Sim:0h2m11s) 
CPU  0 inst:   47000000 cyc:   33970805 now IPC :1.39860: AVG IPC :1.36386: L2-Pf-HR :0.66258: L2-HR :0.63841: (Sim:0h2m14s) 
CPU  0 inst:   48000000 cyc:   34688847 now IPC :1.39268: AVG IPC :1.36447: L2-Pf-HR :0.66166: L2-HR :0.63748: (Sim:0h2m17s) 
CPU  0 inst:   49000002 cyc:   35421616 now IPC :1.36469: AVG IPC :1.36448: L2-Pf-HR :0.66339: L2-HR :0.63862: (Sim:0h2m20s) 
CPU  0 inst:   50000000 cyc:   36222109 now IPC :1.24923: AVG IPC :1.36186: L2-Pf-HR :0.66125: L2-HR :0.63760: (Sim:0h2m23s) 
CPU  0 inst:   51000003 cyc:   36936678 now IPC :1.39945: AVG IPC :1.36261: L2-Pf-HR :0.66043: L2-HR :0.63688: (Sim:0h2m27s) 
CPU  0 inst:   52000000 cyc:   37653020 now IPC :1.39598: AVG IPC :1.36326: L2-Pf-HR :0.65953: L2-HR :0.63611: (Sim:0h2m30s) 
CPU  0 inst:   53000001 cyc:   38400510 now IPC :1.33781: AVG IPC :1.36275: L2-Pf-HR :0.66141: L2-HR :0.63728: (Sim:0h2m34s) 
CPU  0 inst:   54000002 cyc:   39202921 now IPC :1.24625: AVG IPC :1.36030: L2-Pf-HR :0.65969: L2-HR :0.63657: (Sim:0h2m37s) 
CPU  0 inst:   55000001 cyc:   39916717 now IPC :1.40096: AVG IPC :1.36105: L2-Pf-HR :0.65878: L2-HR :0.63584: (Sim:0h2m40s) 
CPU  0 inst:   56000000 cyc:   40632533 now IPC :1.39701: AVG IPC :1.36170: L2-Pf-HR :0.65828: L2-HR :0.63533: (Sim:0h2m43s) 
CPU  0 inst:   57000003 cyc:   41382656 now IPC :1.33312: AVG IPC :1.36117: L2-Pf-HR :0.65969: L2-HR :0.63610: (Sim:0h2m46s) 
CPU  0 inst:   58000000 cyc:   42175243 now IPC :1.26169: AVG IPC :1.35925: L2-Pf-HR :0.65841: L2-HR :0.63564: (Sim:0h2m49s) 
CPU  0 inst:   59000003 cyc:   42891904 now IPC :1.39536: AVG IPC :1.35987: L2-Pf-HR :0.65833: L2-HR :0.63537: (Sim:0h2m52s) 
CPU  0 inst:   60000000 cyc:   43609321 now IPC :1.39389: AVG IPC :1.36044: L2-Pf-HR :0.65811: L2-HR :0.63503: (Sim:0h2m54s) 
CPU  0 inst:   61000003 cyc:   44347494 now IPC :1.35470: AVG IPC :1.36035: L2-Pf-HR :0.65934: L2-HR :0.63570: (Sim:0h2m57s) 
CPU  0 inst:   62000001 cyc:   45149657 now IPC :1.24663: AVG IPC :1.35828: L2-Pf-HR :0.65814: L2-HR :0.63535: (Sim:0h3m0s) 
CPU  0 inst:   63000001 cyc:   45861344 now IPC :1.40511: AVG IPC :1.35902: L2-Pf-HR :0.65742: L2-HR :0.63472: (Sim:0h3m3s) 
CPU  0 inst:   64000000 cyc:   46578725 now IPC :1.39396: AVG IPC :1.35957: L2-Pf-HR :0.65646: L2-HR :0.63397: (Sim:0h3m6s) 
CPU  0 inst:   65000001 cyc:   47320138 now IPC :1.34878: AVG IPC :1.35940: L2-Pf-HR :0.65740: L2-HR :0.63442: (Sim:0h3m9s) 
CPU  0 inst:   66000003 cyc:   48725914 now IPC :0.71135: AVG IPC :1.34032: L2-Pf-HR :0.65400: L2-HR :0.63332: (Sim:0h3m13s) 
CPU  0 inst:   67000000 cyc:   55078152 now IPC :0.15742: AVG IPC :1.20143: L2-Pf-HR :0.60857: L2-HR :0.62082: (Sim:0h3m22s) 
CPU  0 inst:   68000000 cyc:   61587632 now IPC :0.15362: AVG IPC :1.08890: L2-Pf-HR :0.56920: L2-HR :0.61054: (Sim:0h3m32s) 
CPU  0 inst:   69000000 cyc:   65942816 now IPC :0.22961: AVG IPC :1.03130: L2-Pf-HR :0.55702: L2-HR :0.60634: (Sim:0h3m38s) 
CPU  0 inst:   70000000 cyc:   69470530 now IPC :0.28347: AVG IPC :0.99278: L2-Pf-HR :0.55370: L2-HR :0.60436: (Sim:0h3m44s) 
CPU  0 inst:   71000002 cyc:   72997677 now IPC :0.28352: AVG IPC :0.95805: L2-Pf-HR :0.55034: L2-HR :0.60241: (Sim:0h3m49s) 
CPU  0 inst:   72000000 cyc:   76524973 now IPC :0.28350: AVG IPC :0.92655: L2-Pf-HR :0.54710: L2-HR :0.60051: (Sim:0h3m54s) 
CPU  0 inst:   73000003 cyc:   80052449 now IPC :0.28349: AVG IPC :0.89787: L2-Pf-HR :0.54382: L2-HR :0.59864: (Sim:0h4m0s) 
CPU  0 inst:   74000000 cyc:   83578681 now IPC :0.28359: AVG IPC :0.87164: L2-Pf-HR :0.54057: L2-HR :0.59681: (Sim:0h4m5s) 
CPU  0 inst:   75000003 cyc:   87105575 now IPC :0.28354: AVG IPC :0.84756: L2-Pf-HR :0.53740: L2-HR :0.59502: (Sim:0h4m10s) 
CPU  0 inst:   76000000 cyc:   90632835 now IPC :0.28351: AVG IPC :0.82537: L2-Pf-HR :0.53428: L2-HR :0.59326: (Sim:0h4m16s) 
CPU  0 inst:   77000000 cyc:   94160273 now IPC :0.28349: AVG IPC :0.80486: L2-Pf-HR :0.53110: L2-HR :0.59154: (Sim:0h4m21s) 
CPU  0 inst:   78000000 cyc:   97687861 now IPC :0.28348: AVG IPC :0.78584: L2-Pf-HR :0.52802: L2-HR :0.58985: (Sim:0h4m27s) 
CPU  0 inst:   79000002 cyc:  101215094 now IPC :0.28351: AVG IPC :0.76816: L2-Pf-HR :0.52506: L2-HR :0.58820: (Sim:0h4m32s) 
CPU  0 inst:   80000000 cyc:  104742605 now IPC :0.28349: AVG IPC :0.75169: L2-Pf-HR :0.52215: L2-HR :0.58657: (Sim:0h4m38s) 
CPU  0 inst:   81000003 cyc:  108270273 now IPC :0.28347: AVG IPC :0.73629: L2-Pf-HR :0.51935: L2-HR :0.58498: (Sim:0h4m43s) 
CPU  0 inst:   82000000 cyc:  111797484 now IPC :0.28351: AVG IPC :0.72188: L2-Pf-HR :0.51665: L2-HR :0.58342: (Sim:0h4m49s) 
CPU  0 inst:   83000002 cyc:  115324290 now IPC :0.28354: AVG IPC :0.70836: L2-Pf-HR :0.51385: L2-HR :0.58188: (Sim:0h4m54s) 
CPU  0 inst:   84000000 cyc:  118850757 now IPC :0.28357: AVG IPC :0.69565: L2-Pf-HR :0.51109: L2-HR :0.58038: (Sim:0h5m0s) 
CPU  0 inst:   85000000 cyc:  122377783 now IPC :0.28352: AVG IPC :0.68368: L2-Pf-HR :0.50843: L2-HR :0.57890: (Sim:0h5m5s) 
CPU  0 inst:   86000000 cyc:  125904920 now IPC :0.28352: AVG IPC :0.67238: L2-Pf-HR :0.50575: L2-HR :0.57744: (Sim:0h5m13s) 
CPU  0 inst:   87000002 cyc:  129432254 now IPC :0.28350: AVG IPC :0.66170: L2-Pf-HR :0.50322: L2-HR :0.57602: (Sim:0h5m19s) 
CPU  0 inst:   88000000 cyc:  132959983 now IPC :0.28347: AVG IPC :0.65160: L2-Pf-HR :0.50082: L2-HR :0.57462: (Sim:0h5m24s) 
CPU  0 inst:   89000003 cyc:  136487132 now IPC :0.28352: AVG IPC :0.64201: L2-Pf-HR :0.49833: L2-HR :0.57324: (Sim:0h5m29s) 
CPU  0 inst:   90000000 cyc:  140014390 now IPC :0.28351: AVG IPC :0.63292: L2-Pf-HR :0.49589: L2-HR :0.57189: (Sim:0h5m35s) 
CPU  0 inst:   91000001 cyc:  143542150 now IPC :0.28347: AVG IPC :0.62427: L2-Pf-HR :0.49350: L2-HR :0.57056: (Sim:0h5m40s) 
CPU  0 inst:   92000000 cyc:  147069587 now IPC :0.28349: AVG IPC :0.61604: L2-Pf-HR :0.49115: L2-HR :0.56926: (Sim:0h5m46s) 
CPU  0 inst:   93000001 cyc:  150596186 now IPC :0.28356: AVG IPC :0.60821: L2-Pf-HR :0.48881: L2-HR :0.56797: (Sim:0h5m51s) 
CPU  0 inst:   94000002 cyc:  154122435 now IPC :0.28359: AVG IPC :0.60073: L2-Pf-HR :0.48655: L2-HR :0.56671: (Sim:0h5m56s) 
CPU  0 inst:   95000002 cyc:  157649646 now IPC :0.28351: AVG IPC :0.59359: L2-Pf-HR :0.48437: L2-HR :0.56547: (Sim:0h6m2s) 
CPU  0 inst:   96000000 cyc:  161177275 now IPC :0.28348: AVG IPC :0.58676: L2-Pf-HR :0.48233: L2-HR :0.56425: (Sim:0h6m8s) 
CPU  0 inst:   97000003 cyc:  164704528 now IPC :0.28351: AVG IPC :0.58023: L2-Pf-HR :0.48016: L2-HR :0.56305: (Sim:0h6m17s) 
CPU  0 inst:   98000000 cyc:  168232024 now IPC :0.28349: AVG IPC :0.57397: L2-Pf-HR :0.47806: L2-HR :0.56187: (Sim:0h6m25s) 
CPU  0 inst:   99000001 cyc:  171759683 now IPC :0.28347: AVG IPC :0.56797: L2-Pf-HR :0.47597: L2-HR :0.56071: (Sim:0h6m34s) 
CPU  0 inst:  100000000 cyc:  175286878 now IPC :0.28351: AVG IPC :0.56221: L2-Pf-HR :0.47394: L2-HR :0.55956: (Sim:0h6m43s) 
CPU  0 inst:  101000000 cyc:  177377304 now IPC :0.47837: AVG IPC :0.56122: L2-Pf-HR :0.47905: L2-HR :0.56285: (Sim:0h6m49s) 
CPU  0 inst:  102000003 cyc:  177983550 now IPC :1.64950: AVG IPC :0.56495: L2-Pf-HR :0.49084: L2-HR :0.57062: (Sim:0h6m54s) 
CPU  0 inst:  103000000 cyc:  178692395 now IPC :1.41074: AVG IPC :0.56832: L2-Pf-HR :0.50103: L2-HR :0.57747: (Sim:0h6m59s) 
CPU  0 inst:  104000000 cyc:  179270821 now IPC :1.72883: AVG IPC :0.57209: L2-Pf-HR :0.51166: L2-HR :0.58460: (Sim:0h7m4s) 
CPU  0 inst:  105000003 cyc:  179913619 now IPC :1.55570: AVG IPC :0.57562: L2-Pf-HR :0.52138: L2-HR :0.59135: (Sim:0h7m9s) 
CPU  0 inst:  106000001 cyc:  180521954 now IPC :1.64383: AVG IPC :0.57924: L2-Pf-HR :0.53092: L2-HR :0.59790: (Sim:0h7m14s) 
CPU  0 inst:  107000002 cyc:  181151865 now IPC :1.58753: AVG IPC :0.58276: L2-Pf-HR :0.53960: L2-HR :0.60406: (Sim:0h7m18s) 
CPU  0 inst:  108000000 cyc:  181719598 now IPC :1.76139: AVG IPC :0.58647: L2-Pf-HR :0.54842: L2-HR :0.61019: (Sim:0h7m22s) 
CPU  0 inst:  109000003 cyc:  182310175 now IPC :1.69326: AVG IPC :0.59007: L2-Pf-HR :0.55643: L2-HR :0.61596: (Sim:0h7m25s) 
CPU  0 inst:  110000000 cyc:  182926397 now IPC :1.62279: AVG IPC :0.59357: L2-Pf-HR :0.56434: L2-HR :0.62156: (Sim:0h7m28s) 
CPU  0 inst:  111000000 cyc:  183538273 now IPC :1.63432: AVG IPC :0.59706: L2-Pf-HR :0.57165: L2-HR :0.62689: (Sim:0h7m31s) 
CPU  0 inst:  112000000 cyc:  184106653 now IPC :1.75939: AVG IPC :0.60066: L2-Pf-HR :0.57897: L2-HR :0.63218: (Sim:0h7m34s) 
CPU  0 inst:  113000002 cyc:  184691006 now IPC :1.71130: AVG IPC :0.60420: L2-Pf-HR :0.58570: L2-HR :0.63714: (Sim:0h7m38s) 
CPU  0 inst:  114000003 cyc:  185304348 now IPC :1.63041: AVG IPC :0.60761: L2-Pf-HR :0.59229: L2-HR :0.64201: (Sim:0h7m41s) 
CPU  0 inst:  115000000 cyc:  185901929 now IPC :1.67341: AVG IPC :0.61106: L2-Pf-HR :0.59878: L2-HR :0.64686: (Sim:0h7m44s) 
CPU  0 inst:  116000000 cyc:  186486654 now IPC :1.71021: AVG IPC :0.61452: L2-Pf-HR :0.60478: L2-HR :0.65133: (Sim:0h7m47s) 
CPU  0 inst:  117000003 cyc:  187055010 now IPC :1.75947: AVG IPC :0.61802: L2-Pf-HR :0.61073: L2-HR :0.65582: (Sim:0h7m50s) 
CPU  0 inst:  118000001 cyc:  187679475 now IPC :1.60137: AVG IPC :0.62131: L2-Pf-HR :0.61616: L2-HR :0.65994: (Sim:0h7m53s) 
CPU  0 inst:  119000003 cyc:  188280653 now IPC :1.66340: AVG IPC :0.62465: L2-Pf-HR :0.62168: L2-HR :0.66415: (Sim:0h7m56s) 
CPU  0 inst:  120000000 cyc:  188872358 now IPC :1.69003: AVG IPC :0.62801: L2-Pf-HR :0.62681: L2-HR :0.66812: (Sim:0h7m59s) 
CPU  0 inst:  121000003 cyc:  189442241 now IPC :1.75475: AVG IPC :0.63141: L2-Pf-HR :0.63199: L2-HR :0.67207: (Sim:0h8m2s) 
CPU  0 inst:  122000000 cyc:  190058487 now IPC :1.62272: AVG IPC :0.63464: L2-Pf-HR :0.63658: L2-HR :0.67570: (Sim:0h8m6s) 
CPU  0 inst:  123000001 cyc:  190660904 now IPC :1.65998: AVG IPC :0.63790: L2-Pf-HR :0.64141: L2-HR :0.67942: (Sim:0h8m11s) 
CPU  0 inst:  124000000 cyc:  191255393 now IPC :1.68212: AVG IPC :0.64116: L2-Pf-HR :0.64582: L2-HR :0.68295: (Sim:0h8m16s) 
CPU  0 inst:  125000002 cyc:  191823000 now IPC :1.76179: AVG IPC :0.64450: L2-Pf-HR :0.65026: L2-HR :0.68641: (Sim:0h8m21s) 
CPU  0 inst:  126000003 cyc:  192430591 now IPC :1.64585: AVG IPC :0.64767: L2-Pf-HR :0.65434: L2-HR :0.68968: (Sim:0h8m26s) 
CPU  0 inst:  127000000 cyc:  193034952 now IPC :1.65464: AVG IPC :0.65084: L2-Pf-HR :0.65855: L2-HR :0.69301: (Sim:0h8m31s) 
CPU  0 inst:  128000000 cyc:  193638998 now IPC :1.65550: AVG IPC :0.65399: L2-Pf-HR :0.66234: L2-HR :0.69611: (Sim:0h8m36s) 
CPU  0 inst:  129000001 cyc:  194207862 now IPC :1.75789: AVG IPC :0.65724: L2-Pf-HR :0.66625: L2-HR :0.69921: (Sim:0h8m41s) 
CPU  0 inst:  130000000 cyc:  194805050 now IPC :1.67451: AVG IPC :0.66038: L2-Pf-HR :0.66987: L2-HR :0.70217: (Sim:0h8m46s) 
CPU  0 inst:  131000000 cyc:  195410725 now IPC :1.65105: AVG IPC :0.66346: L2-Pf-HR :0.67357: L2-HR :0.70514: (Sim:0h8m51s) 
CPU  0 inst:  132000000 cyc:  196022993 now IPC :1.63327: AVG IPC :0.66651: L2-Pf-HR :0.67684: L2-HR :0.70787: (Sim:0h8m56s) 
CPU  0 inst:  133000001 cyc:  196591588 now IPC :1.75872: AVG IPC :0.66968: L2-Pf-HR :0.68028: L2-HR :0.71066: (Sim:0h8m59s) 
CPU  0 inst:  134000001 cyc:  197178413 now IPC :1.70409: AVG IPC :0.67278: L2-Pf-HR :0.68352: L2-HR :0.71335: (Sim:0h9m2s) 
CPU  0 inst:  135000000 cyc:  197783571 now IPC :1.65246: AVG IPC :0.67579: L2-Pf-HR :0.68683: L2-HR :0.71603: (Sim:0h9m6s) 
CPU  0 inst:  136000000 cyc:  198404727 now IPC :1.60990: AVG IPC :0.67873: L2-Pf-HR :0.68971: L2-HR :0.71846: (Sim:0h9m9s) 
CPU  0 inst:  137000002 cyc:  198972445 now IPC :1.76144: AVG IPC :0.68183: L2-Pf-HR :0.69282: L2-HR :0.72103: (Sim:0h9m12s) 
CPU  0 inst:  138000001 cyc:  199537974 now IPC :1.76825: AVG IPC :0.68493: L2-Pf-HR :0.69591: L2-HR :0.72358: (Sim:0h9m16s) 
CPU  0 inst:  139000001 cyc:  200155848 now IPC :1.61845: AVG IPC :0.68782: L2-Pf-HR :0.69869: L2-HR :0.72591: (Sim:0h9m19s) 
CPU  0 inst:  140000000 cyc:  200774088 now IPC :1.61749: AVG IPC :0.69070: L2-Pf-HR :0.70146: L2-HR :0.72823: (Sim:0h9m22s) 
CPU  0 inst:  141000003 cyc:  201361013 now IPC :1.70380: AVG IPC :0.69367: L2-Pf-HR :0.70406: L2-HR :0.73044: (Sim:0h9m25s) 
CPU  0 inst:  142000002 cyc:  201927518 now IPC :1.76521: AVG IPC :0.69669: L2-Pf-HR :0.70681: L2-HR :0.73273: (Sim:0h9m28s) 
CPU  0 inst:  143000001 cyc:  202540122 now IPC :1.63237: AVG IPC :0.69953: L2-Pf-HR :0.70932: L2-HR :0.73487: (Sim:0h9m31s) 
CPU  0 inst:  144000000 cyc:  203148814 now IPC :1.64287: AVG IPC :0.70237: L2-Pf-HR :0.71184: L2-HR :0.73698: (Sim:0h9m35s) 
CPU  0 inst:  145000000 cyc:  203747415 now IPC :1.67056: AVG IPC :0.70523: L2-Pf-HR :0.71414: L2-HR :0.73898: (Sim:0h9m38s) 
CPU  0 inst:  146000001 cyc:  204313103 now IPC :1.76776: AVG IPC :0.70818: L2-Pf-HR :0.71660: L2-HR :0.74106: (Sim:0h9m41s) 
CPU  0 inst:  147000000 cyc:  204924487 now IPC :1.63563: AVG IPC :0.71096: L2-Pf-HR :0.71882: L2-HR :0.74300: (Sim:0h9m44s) 
CPU  0 inst:  148000000 cyc:  205532080 now IPC :1.64584: AVG IPC :0.71374: L2-Pf-HR :0.72111: L2-HR :0.74494: (Sim:0h9m47s) 
CPU  0 inst:  149000002 cyc:  206130711 now IPC :1.67048: AVG IPC :0.71653: L2-Pf-HR :0.72325: L2-HR :0.74682: (Sim:0h9m51s) 
CPU  0 inst:  150000002 cyc:  206696513 now IPC :1.76740: AVG IPC :0.71942: L2-Pf-HR :0.72550: L2-HR :0.74873: (Sim:0h9m54s) 
CPU  0 inst:  151000002 cyc:  207303250 now IPC :1.64816: AVG IPC :0.72215: L2-Pf-HR :0.72746: L2-HR :0.75048: (Sim:0h9m57s) 
CPU  0 inst:  152000000 cyc:  207911608 now IPC :1.64377: AVG IPC :0.72486: L2-Pf-HR :0.72958: L2-HR :0.75229: (Sim:0h10m0s) 
CPU  0 inst:  153000000 cyc:  208514047 now IPC :1.65992: AVG IPC :0.72758: L2-Pf-HR :0.73153: L2-HR :0.75402: (Sim:0h10m3s) 
CPU  0 inst:  154000002 cyc:  209080552 now IPC :1.76521: AVG IPC :0.73040: L2-Pf-HR :0.73355: L2-HR :0.75576: (Sim:0h10m7s) 
CPU  0 inst:  155000000 cyc:  209682749 now IPC :1.66058: AVG IPC :0.73309: L2-Pf-HR :0.73531: L2-HR :0.75734: (Sim:0h10m10s) 
CPU  0 inst:  156000000 cyc:  210286572 now IPC :1.65611: AVG IPC :0.73575: L2-Pf-HR :0.73728: L2-HR :0.75903: (Sim:0h10m13s) 
CPU  0 inst:  157000003 cyc:  210896361 now IPC :1.63992: AVG IPC :0.73838: L2-Pf-HR :0.73908: L2-HR :0.76063: (Sim:0h10m16s) 
CPU  0 inst:  158000000 cyc:  211462629 now IPC :1.76594: AVG IPC :0.74114: L2-Pf-HR :0.74096: L2-HR :0.76227: (Sim:0h10m20s) 
CPU  0 inst:  159000000 cyc:  212057898 now IPC :1.67991: AVG IPC :0.74379: L2-Pf-HR :0.74256: L2-HR :0.76372: (Sim:0h10m23s) 
CPU  0 inst:  160000000 cyc:  212665510 now IPC :1.64579: AVG IPC :0.74638: L2-Pf-HR :0.74437: L2-HR :0.76529: (Sim:0h10m27s) 
CPU  0 inst:  161000000 cyc:  213266678 now IPC :1.66343: AVG IPC :0.74897: L2-Pf-HR :0.74617: L2-HR :0.76688: (Sim:0h10m30s) 
CPU  0 inst:  162000002 cyc:  213852981 now IPC :1.70561: AVG IPC :0.75161: L2-Pf-HR :0.74772: L2-HR :0.76828: (Sim:0h10m33s) 
CPU  0 inst:  163000002 cyc:  214423462 now IPC :1.75291: AVG IPC :0.75428: L2-Pf-HR :0.74934: L2-HR :0.76972: (Sim:0h10m37s) 
CPU  0 inst:  164000000 cyc:  215045759 now IPC :1.60695: AVG IPC :0.75676: L2-Pf-HR :0.75087: L2-HR :0.77108: (Sim:0h10m41s) 
Finished CPU 0 instr: 162000000 cyc: 214069624 AVG IPC: 0.75676 (Sim time: 0h10m41s)

ChampSim completed all CPUs

[ROI Statistics]
Core_0_instructions 162000000
Core_0_cycles 214069624
Core_0_IPC 0.75676

Core_0_branch_prediction_accuracy 99.21038
Core_0_branch_MPKI 0.23475
Core_0_average_ROB_occupancy_at_mispredict 238.89532

Core_0_L1D_total_access 53409821
Core_0_L1D_total_hit 46931423 L1D_total_Hit Ratio: 0.87870
Core_0_L1D_total_miss 6478398
Core_0_L1D_loads 44504168
Core_0_L1D_load_hit 42104292 L1D_load_Hit Ratio: 0.94608
Core_0_L1D_load_miss 2399876
Core_0_L1D_RFOs 4410132
Core_0_L1D_RFO_hit 4263863 L1D_RFO_Hit Ratio: 0.96683
Core_0_L1D_RFO_miss 146269
Core_0_L1D_prefetches 4495521
Core_0_L1D_prefetch_hit 563268 L1D_prefetch_Hit Ratio: 0.12530
Core_0_L1D_prefetch_miss 3932253
Core_0_L1D_writebacks 0
Core_0_L1D_writeback_hit 0 L1D_writeback_Hit Ratio: -nan
Core_0_L1D_writeback_miss 0
Core_0_L1D_prefetch_requested 5812225
Core_0_L1D_prefetch_issued 5812225
Core_0_L1D_prefetch_useful 3855349 L1D_Useful Ratio: 0.66332
Core_0_L1D_prefetch_useless 103686
Core_0_L1D_prefetch_late 642604
Core_0_L1D_average_miss_latency 13384880.12805

Core_0_L1I_total_access 41316687
Core_0_L1I_total_hit 41311652 L1I_total_Hit Ratio: 0.99988
Core_0_L1I_total_miss 5035
Core_0_L1I_loads 41316687
Core_0_L1I_load_hit 41311652 L1I_load_Hit Ratio: 0.99988
Core_0_L1I_load_miss 5035
Core_0_L1I_RFOs 0
Core_0_L1I_RFO_hit 0 L1I_RFO_Hit Ratio: -nan
Core_0_L1I_RFO_miss 0
Core_0_L1I_prefetches 0
Core_0_L1I_prefetch_hit 0 L1I_prefetch_Hit Ratio: -nan
Core_0_L1I_prefetch_miss 0
Core_0_L1I_writebacks 0
Core_0_L1I_writeback_hit 0 L1I_writeback_Hit Ratio: -nan
Core_0_L1I_writeback_miss 0
Core_0_L1I_prefetch_requested 0
Core_0_L1I_prefetch_issued 0
Core_0_L1I_prefetch_useful 0 L1I_Useful Ratio: -nan
Core_0_L1I_prefetch_useless 0
Core_0_L1I_prefetch_late 0
Core_0_L1I_average_miss_latency 236.03237

Core_0_L2C_total_access 8447141
Core_0_L2C_total_hit 6513449 L2C_total_Hit Ratio: 0.77108
Core_0_L2C_total_miss 1933692
Core_0_L2C_loads 1763458
Core_0_L2C_load_hit 1340038 L2C_load_Hit Ratio: 0.75989
Core_0_L2C_load_miss 423420
Core_0_L2C_RFOs 146269
Core_0_L2C_RFO_hit 23927 L2C_RFO_Hit Ratio: 0.16358
Core_0_L2C_RFO_miss 122342
Core_0_L2C_prefetches 5536630
Core_0_L2C_prefetch_hit 4157311 L2C_prefetch_Hit Ratio: 0.75087
Core_0_L2C_prefetch_miss 1379319
Core_0_L2C_writebacks 1000784
Core_0_L2C_writeback_hit 992173 L2C_writeback_Hit Ratio: 0.99140
Core_0_L2C_writeback_miss 8611
Core_0_L2C_prefetch_requested 1174422
Core_0_L2C_prefetch_issued 1174422
Core_0_L2C_prefetch_useful 278924 L2C_Useful Ratio: 0.23750
Core_0_L2C_prefetch_useless 1109349
Core_0_L2C_prefetch_late 9514
Core_0_L2C_average_miss_latency 281.97052

Core_0_LLC_total_access 2912325
Core_0_LLC_total_hit 1488980 LLC_total_Hit Ratio: 0.51127
Core_0_LLC_total_miss 1423345
Core_0_LLC_loads 414121
Core_0_LLC_load_hit 160102 LLC_load_Hit Ratio: 0.38661
Core_0_LLC_load_miss 254019
Core_0_LLC_RFOs 122342
Core_0_LLC_RFO_hit 591 LLC_RFO_Hit Ratio: 0.00483
Core_0_LLC_RFO_miss 121751
Core_0_LLC_prefetches 1388608
Core_0_LLC_prefetch_hit 341039 LLC_prefetch_Hit Ratio: 0.24560
Core_0_LLC_prefetch_miss 1047569
Core_0_LLC_writebacks 987254
Core_0_LLC_writeback_hit 987248 LLC_writeback_Hit Ratio: 0.99999
Core_0_LLC_writeback_miss 6
Core_0_LLC_prefetch_requested 0
Core_0_LLC_prefetch_issued 0
Core_0_LLC_prefetch_useful 78336 LLC_Useful Ratio: inf
Core_0_LLC_prefetch_useless 947113
Core_0_LLC_prefetch_late 0
Core_0_LLC_average_miss_latency 342.73635

Core_0_major_page_fault 0
Core_0_minor_page_fault 11197

[Bingo] PHT Access: 922744
[Bingo] PHT Hit PC+Addr: 420537
[Bingo] PHT Hit PC+Offs: 469572
[Bingo] PHT Miss: 32635
[Bingo] Prefetch PC+Addr: 0
[Bingo] Prefetch PC+Offs: 0
[Bingo] Useful PC+Addr: 0
[Bingo] Useful PC+Offs: 0
[Bingo] Useless PC+Addr: 0
[Bingo] Useless PC+Offs: 0
[Bingo] L1 Prefetch per Region: 7.54354
[Bingo] L2 Prefetch per Region: 0.27330
[Bingo] L3 Prefetch per Region: 0.00000
[Bingo] No Prefetch per Region: 24.18316
[Bingo] Number of Voters Mean: 12.94802
[Bingo] Number of Voters SD: 4.96037
PHT read accesses: 11727969
PHT write accesses: 881996
AT read accesses: 41484922
AT write accesses: 41484918
FT read accesses: 8903493
FT write accesses: 922744
PS read accesses: 3042169
PS write accesses: 890109
PHT tag read accesses: 33214022
PHT tag write accesses: 1302533
AT tag read accesses: 847903645
AT tag write accesses: 42366914
FT tag read accesses: 212349967
FT tag write accesses: 5835793
PS tag read accesses: 743631538
PS tag write accesses: 3922049
[Bingo2] PHT Access: 230901
[Bingo2] PHT Hit PC+Addr: 14615
[Bingo2] PHT Hit PC+Offs: 204830
[Bingo2] PHT Miss: 11456
[Bingo2] Prefetch PC+Addr: 0
[Bingo2] Prefetch PC+Offs: 0
[Bingo2] Useful PC+Addr: 0
[Bingo2] Useful PC+Offs: 0
[Bingo2] Useless PC+Addr: 0
[Bingo2] Useless PC+Offs: 0
[Bingo2] L1 Prefetch per Region: 0.00000
[Bingo2] L2 Prefetch per Region: 6.56622
[Bingo2] L3 Prefetch per Region: 0.00000
[Bingo2] No Prefetch per Region: 25.43378
[Bingo2] Number of Voters Mean: 14.56612
[Bingo2] Number of Voters SD: 3.86382
PHT read accesses: 3185603
PHT write accesses: 154446
AT read accesses: 1666626
AT write accesses: 1680375
FT read accesses: 537051
FT write accesses: 230901
PS read accesses: 479554
PS write accesses: 219445
PHT tag read accesses: 8319822
PHT tag write accesses: 169061
AT tag read accesses: 65387907
AT tag write accesses: 1821113
FT tag read accesses: 44994640
FT tag write accesses: 606796
PS tag read accesses: 35864018
PS tag write accesses: 695227
Channel_0_RQ_row_buffer_hit 820135
Channel_0_RQ_row_buffer_miss 603204
Channel_0_WQ_row_buffer_hit 304027
Channel_0_WQ_row_buffer_miss 514382
Channel_0_WQ_full 0
Channel_0_dbus_congested 1535952

avg_congested_cycle 11

EzSearch AVG IPC :0.75676: L2-Pf-HR :0.75087 : L2-HR :0.77108 Uful:0.23750
     > Finished combination: TraceType=770-tot Sim:162000000 Prefetcher=L2bingo_dpc3 L1=bingo_dpc3
