TRACE: [1622000000][GPT-Neo-2_7B]_[h32][s1024][d80] Warmup: 2000000 NumTraces: 1622000000
L1:next_line:L2:029-SecTOP-L2-MultiMarkovDelta_ip_stride_v4
*************************************************
   ChampSim Multicore Out-of-Order Simulator
   Last compiled: Oct 21 2024 08:08:12
*************************************************

trace_0 770-tot_memTraces_v3/memTraces[1622000000][GPT-Neo-2_7B]_[h32][s1024][d80].champsim.xz
CPU 0 L1D next line prefetcher
MK1: Size: 128 TMAX: 64 TMIN: 32 MKPTHRESH: 20
MK2: Size: 256 TMAX: 32 TMIN: 16 MKPTHRESH: 20
MK3: Size: 384 TMAX: 16 TMIN: 8 MKPTHRESH: 20
MK4: Size: 512 TMAX: 8 TMIN: 0 MKPTHRESH: 15
Stride Size: 512 Prefetch Degree: 14

CPU 0 L2C prefetcher
MAIN.cc ln 751 stats print skipped
CPU 0 L2C prefetcher initialized


Cache Size: 512
number of cache lines: 8192
CPU  0 inst:    1000003 cyc:     502713 now IPC :1.98921: AVG IPC :1.98921: L2-Pf-HR :0.83973: L2-HR :0.80279: (Sim:0h0m4s) 
CPU  0 inst:    2000000 cyc:     978617 now IPC :2.10126: AVG IPC :2.04370: L2-Pf-HR :0.87123: L2-HR :0.83636: (Sim:0h0m8s) 

Warmup complete CPU  0 instructions:    2000003 cycles:     978618 (Simulation time: 0 hr 0 min 8 sec) 

CPU  0 inst:    3000003 cyc:    1548879 now IPC :1.75359: AVG IPC :1.75358: L2-Pf-HR :0.85535: L2-HR :0.83181: (Sim:0h0m13s) 
CPU  0 inst:    4000000 cyc:    2106260 now IPC :1.79410: AVG IPC :1.77361: L2-Pf-HR :0.85358: L2-HR :0.83059: (Sim:0h0m17s) 
CPU  0 inst:    5000001 cyc:    2658064 now IPC :1.81224: AVG IPC :1.78630: L2-Pf-HR :0.85733: L2-HR :0.83380: (Sim:0h0m22s) 
CPU  0 inst:    6000002 cyc:    3220627 now IPC :1.77758: AVG IPC :1.78411: L2-Pf-HR :0.85917: L2-HR :0.83551: (Sim:0h0m26s) 
CPU  0 inst:    7000000 cyc:    3780857 now IPC :1.78498: AVG IPC :1.78429: L2-Pf-HR :0.86271: L2-HR :0.83862: (Sim:0h0m30s) 
CPU  0 inst:    8000000 cyc:    4533003 now IPC :1.32953: AVG IPC :1.68805: L2-Pf-HR :0.86829: L2-HR :0.84337: (Sim:0h0m35s) 
CPU  0 inst:    9000000 cyc:    5118046 now IPC :1.70928: AVG IPC :1.69105: L2-Pf-HR :0.86807: L2-HR :0.84324: (Sim:0h0m39s) 
CPU  0 inst:   10000002 cyc:    5682933 now IPC :1.77027: AVG IPC :1.70057: L2-Pf-HR :0.86798: L2-HR :0.84328: (Sim:0h0m44s) 
CPU  0 inst:   11000001 cyc:    6249505 now IPC :1.76500: AVG IPC :1.70749: L2-Pf-HR :0.86849: L2-HR :0.84385: (Sim:0h0m48s) 
CPU  0 inst:   12000000 cyc:    6816181 now IPC :1.76468: AVG IPC :1.71304: L2-Pf-HR :0.86919: L2-HR :0.84453: (Sim:0h0m52s) 
CPU  0 inst:   13000000 cyc:    7377103 now IPC :1.78278: AVG IPC :1.71916: L2-Pf-HR :0.86958: L2-HR :0.84490: (Sim:0h0m56s) 
CPU  0 inst:   14000001 cyc:    7940808 now IPC :1.77398: AVG IPC :1.72360: L2-Pf-HR :0.87014: L2-HR :0.84546: (Sim:0h1m1s) 
CPU  0 inst:   15000003 cyc:    8496002 now IPC :1.80118: AVG IPC :1.72932: L2-Pf-HR :0.87272: L2-HR :0.84764: (Sim:0h1m5s) 
CPU  0 inst:   16000000 cyc:    9173727 now IPC :1.47552: AVG IPC :1.70834: L2-Pf-HR :0.87409: L2-HR :0.84887: (Sim:0h1m10s) 
CPU  0 inst:   17000001 cyc:    9732905 now IPC :1.78834: AVG IPC :1.71345: L2-Pf-HR :0.87472: L2-HR :0.84949: (Sim:0h1m14s) 
CPU  0 inst:   18000000 cyc:   10295916 now IPC :1.77616: AVG IPC :1.71724: L2-Pf-HR :0.87565: L2-HR :0.85040: (Sim:0h1m17s) 
CPU  0 inst:   19000001 cyc:   10852949 now IPC :1.79523: AVG IPC :1.72164: L2-Pf-HR :0.87632: L2-HR :0.85099: (Sim:0h1m21s) 
CPU  0 inst:   20000000 cyc:   11408404 now IPC :1.80032: AVG IPC :1.72583: L2-Pf-HR :0.87780: L2-HR :0.85229: (Sim:0h1m26s) 
CPU  0 inst:   21000000 cyc:   12210947 now IPC :1.24604: AVG IPC :1.69155: L2-Pf-HR :0.87719: L2-HR :0.85169: (Sim:0h1m30s) 
CPU  0 inst:   22000001 cyc:   12789411 now IPC :1.72872: AVG IPC :1.69337: L2-Pf-HR :0.87703: L2-HR :0.85153: (Sim:0h1m35s) 
CPU  0 inst:   23000002 cyc:   13369003 now IPC :1.72535: AVG IPC :1.69486: L2-Pf-HR :0.87685: L2-HR :0.85137: (Sim:0h1m39s) 
CPU  0 inst:   24000000 cyc:   13945655 now IPC :1.73414: AVG IPC :1.69661: L2-Pf-HR :0.87672: L2-HR :0.85123: (Sim:0h1m42s) 
CPU  0 inst:   25000000 cyc:   14525164 now IPC :1.72560: AVG IPC :1.69785: L2-Pf-HR :0.87662: L2-HR :0.85111: (Sim:0h1m45s) 
CPU  0 inst:   26000003 cyc:   15103156 now IPC :1.73013: AVG IPC :1.69917: L2-Pf-HR :0.87666: L2-HR :0.85112: (Sim:0h1m49s) 
CPU  0 inst:   27000001 cyc:   15687457 now IPC :1.71144: AVG IPC :1.69966: L2-Pf-HR :0.87664: L2-HR :0.85108: (Sim:0h1m52s) 
CPU  0 inst:   28000000 cyc:   16440283 now IPC :1.32833: AVG IPC :1.68158: L2-Pf-HR :0.87768: L2-HR :0.85196: (Sim:0h1m55s) 
CPU  0 inst:   29000002 cyc:   17024958 now IPC :1.71036: AVG IPC :1.68263: L2-Pf-HR :0.87763: L2-HR :0.85191: (Sim:0h1m59s) 
CPU  0 inst:   30000001 cyc:   17594387 now IPC :1.75614: AVG IPC :1.68515: L2-Pf-HR :0.87747: L2-HR :0.85180: (Sim:0h2m4s) 
CPU  0 inst:   31000002 cyc:   18158646 now IPC :1.77224: AVG IPC :1.68801: L2-Pf-HR :0.87741: L2-HR :0.85178: (Sim:0h2m9s) 
CPU  0 inst:   32000000 cyc:   18725786 now IPC :1.76323: AVG IPC :1.69041: L2-Pf-HR :0.87737: L2-HR :0.85175: (Sim:0h2m13s) 
CPU  0 inst:   33000001 cyc:   19291580 now IPC :1.76743: AVG IPC :1.69279: L2-Pf-HR :0.87735: L2-HR :0.85176: (Sim:0h2m18s) 
CPU  0 inst:   34000002 cyc:   19854314 now IPC :1.77704: AVG IPC :1.69530: L2-Pf-HR :0.87738: L2-HR :0.85181: (Sim:0h2m22s) 
CPU  0 inst:   35000001 cyc:   20415058 now IPC :1.78334: AVG IPC :1.69784: L2-Pf-HR :0.87817: L2-HR :0.85246: (Sim:0h2m27s) 
CPU  0 inst:   36000000 cyc:   21090956 now IPC :1.47951: AVG IPC :1.69050: L2-Pf-HR :0.87846: L2-HR :0.85273: (Sim:0h2m32s) 
CPU  0 inst:   37000002 cyc:   21653831 now IPC :1.77660: AVG IPC :1.69285: L2-Pf-HR :0.87867: L2-HR :0.85293: (Sim:0h2m36s) 
CPU  0 inst:   38000001 cyc:   22222227 now IPC :1.75934: AVG IPC :1.69463: L2-Pf-HR :0.87903: L2-HR :0.85325: (Sim:0h2m41s) 
CPU  0 inst:   39000002 cyc:   22790971 now IPC :1.75826: AVG IPC :1.69629: L2-Pf-HR :0.87928: L2-HR :0.85349: (Sim:0h2m45s) 
CPU  0 inst:   40000000 cyc:   23345615 now IPC :1.80295: AVG IPC :1.69893: L2-Pf-HR :0.87984: L2-HR :0.85399: (Sim:0h2m49s) 
CPU  0 inst:   41000000 cyc:   24132099 now IPC :1.27148: AVG IPC :1.68441: L2-Pf-HR :0.87952: L2-HR :0.85367: (Sim:0h2m54s) 
CPU  0 inst:   42000000 cyc:   24717837 now IPC :1.70725: AVG IPC :1.68498: L2-Pf-HR :0.87942: L2-HR :0.85357: (Sim:0h2m58s) 
CPU  0 inst:   43000000 cyc:   25289439 now IPC :1.74947: AVG IPC :1.68649: L2-Pf-HR :0.87929: L2-HR :0.85344: (Sim:0h3m3s) 
CPU  0 inst:   44000000 cyc:   25862390 now IPC :1.74535: AVG IPC :1.68785: L2-Pf-HR :0.87918: L2-HR :0.85332: (Sim:0h3m7s) 
CPU  0 inst:   45000002 cyc:   26444686 now IPC :1.71734: AVG IPC :1.68852: L2-Pf-HR :0.87907: L2-HR :0.85322: (Sim:0h3m12s) 
CPU  0 inst:   46000000 cyc:   27018841 now IPC :1.74169: AVG IPC :1.68969: L2-Pf-HR :0.87889: L2-HR :0.85305: (Sim:0h3m16s) 
CPU  0 inst:   47000000 cyc:   27598459 now IPC :1.72527: AVG IPC :1.69047: L2-Pf-HR :0.87886: L2-HR :0.85301: (Sim:0h3m21s) 
CPU  0 inst:   48000000 cyc:   28355142 now IPC :1.32156: AVG IPC :1.68027: L2-Pf-HR :0.87937: L2-HR :0.85344: (Sim:0h3m25s) 
CPU  0 inst:   49000000 cyc:   28936654 now IPC :1.71965: AVG IPC :1.68109: L2-Pf-HR :0.87931: L2-HR :0.85337: (Sim:0h3m30s) 
CPU  0 inst:   50000001 cyc:   29506374 now IPC :1.75525: AVG IPC :1.68257: L2-Pf-HR :0.87917: L2-HR :0.85327: (Sim:0h3m34s) 
CPU  0 inst:   51000001 cyc:   30074837 now IPC :1.75913: AVG IPC :1.68407: L2-Pf-HR :0.87911: L2-HR :0.85323: (Sim:0h3m39s) 
CPU  0 inst:   52000000 cyc:   30640228 now IPC :1.76869: AVG IPC :1.68568: L2-Pf-HR :0.87910: L2-HR :0.85322: (Sim:0h3m43s) 
CPU  0 inst:   53000000 cyc:   31203673 now IPC :1.77480: AVG IPC :1.68734: L2-Pf-HR :0.87910: L2-HR :0.85323: (Sim:0h3m48s) 
CPU  0 inst:   54000002 cyc:   31768819 now IPC :1.76946: AVG IPC :1.68885: L2-Pf-HR :0.87912: L2-HR :0.85324: (Sim:0h3m50s) 
CPU  0 inst:   55000002 cyc:   32326521 now IPC :1.79307: AVG IPC :1.69070: L2-Pf-HR :0.87956: L2-HR :0.85360: (Sim:0h3m53s) 
CPU  0 inst:   56000000 cyc:   33011478 now IPC :1.45994: AVG IPC :1.68577: L2-Pf-HR :0.87984: L2-HR :0.85386: (Sim:0h3m57s) 
CPU  0 inst:   57000000 cyc:   33585409 now IPC :1.74237: AVG IPC :1.68677: L2-Pf-HR :0.88007: L2-HR :0.85406: (Sim:0h4m0s) 
CPU  0 inst:   58000000 cyc:   34162079 now IPC :1.73409: AVG IPC :1.68759: L2-Pf-HR :0.88035: L2-HR :0.85431: (Sim:0h4m3s) 
CPU  0 inst:   59000002 cyc:   34746922 now IPC :1.70986: AVG IPC :1.68797: L2-Pf-HR :0.88059: L2-HR :0.85451: (Sim:0h4m6s) 
CPU  0 inst:   60000000 cyc:   35319571 now IPC :1.74627: AVG IPC :1.68895: L2-Pf-HR :0.88110: L2-HR :0.85496: (Sim:0h4m11s) 
CPU  0 inst:   61000000 cyc:   36122982 now IPC :1.24469: AVG IPC :1.67879: L2-Pf-HR :0.88084: L2-HR :0.85469: (Sim:0h4m15s) 
CPU  0 inst:   62000003 cyc:   36719848 now IPC :1.67542: AVG IPC :1.67873: L2-Pf-HR :0.88081: L2-HR :0.85465: (Sim:0h4m20s) 
CPU  0 inst:   63000002 cyc:   37316866 now IPC :1.67499: AVG IPC :1.67867: L2-Pf-HR :0.88077: L2-HR :0.85461: (Sim:0h4m24s) 
CPU  0 inst:   64000000 cyc:   37906421 now IPC :1.69619: AVG IPC :1.67895: L2-Pf-HR :0.88071: L2-HR :0.85454: (Sim:0h4m29s) 
CPU  0 inst:   65000001 cyc:   38500605 now IPC :1.68298: AVG IPC :1.67902: L2-Pf-HR :0.88069: L2-HR :0.85450: (Sim:0h4m33s) 
CPU  0 inst:   66000000 cyc:   39096519 now IPC :1.67809: AVG IPC :1.67900: L2-Pf-HR :0.88061: L2-HR :0.85443: (Sim:0h4m38s) 
CPU  0 inst:   67000003 cyc:   39685617 now IPC :1.69752: AVG IPC :1.67928: L2-Pf-HR :0.88062: L2-HR :0.85443: (Sim:0h4m42s) 
CPU  0 inst:   68000000 cyc:   40444204 now IPC :1.31824: AVG IPC :1.67234: L2-Pf-HR :0.88096: L2-HR :0.85471: (Sim:0h4m47s) 
CPU  0 inst:   69000002 cyc:   41041370 now IPC :1.67458: AVG IPC :1.67238: L2-Pf-HR :0.88105: L2-HR :0.85478: (Sim:0h4m51s) 
CPU  0 inst:   70000001 cyc:   41619817 now IPC :1.72877: AVG IPC :1.67318: L2-Pf-HR :0.88107: L2-HR :0.85480: (Sim:0h4m56s) 
CPU  0 inst:   71000003 cyc:   42197072 now IPC :1.73234: AVG IPC :1.67401: L2-Pf-HR :0.88114: L2-HR :0.85488: (Sim:0h5m0s) 
CPU  0 inst:   72000000 cyc:   42779837 now IPC :1.71595: AVG IPC :1.67459: L2-Pf-HR :0.88123: L2-HR :0.85497: (Sim:0h5m5s) 
CPU  0 inst:   73000001 cyc:   43359052 now IPC :1.72648: AVG IPC :1.67530: L2-Pf-HR :0.88129: L2-HR :0.85502: (Sim:0h5m9s) 
CPU  0 inst:   74000000 cyc:   43934851 now IPC :1.73672: AVG IPC :1.67612: L2-Pf-HR :0.88133: L2-HR :0.85506: (Sim:0h5m14s) 
CPU  0 inst:   75000000 cyc:   44501044 now IPC :1.76618: AVG IPC :1.67730: L2-Pf-HR :0.88171: L2-HR :0.85538: (Sim:0h5m18s) 
CPU  0 inst:   76000000 cyc:   45176341 now IPC :1.48083: AVG IPC :1.67429: L2-Pf-HR :0.88186: L2-HR :0.85552: (Sim:0h5m23s) 
CPU  0 inst:   77000000 cyc:   45752254 now IPC :1.73637: AVG IPC :1.67509: L2-Pf-HR :0.88197: L2-HR :0.85563: (Sim:0h5m27s) 
CPU  0 inst:   78000000 cyc:   46337838 now IPC :1.70770: AVG IPC :1.67551: L2-Pf-HR :0.88214: L2-HR :0.85578: (Sim:0h5m31s) 
CPU  0 inst:   79000001 cyc:   46912524 now IPC :1.74008: AVG IPC :1.67632: L2-Pf-HR :0.88227: L2-HR :0.85590: (Sim:0h5m36s) 
CPU  0 inst:   80000000 cyc:   47485144 now IPC :1.74636: AVG IPC :1.67718: L2-Pf-HR :0.88256: L2-HR :0.85616: (Sim:0h5m40s) 
CPU  0 inst:   81000000 cyc:   48294542 now IPC :1.23549: AVG IPC :1.66963: L2-Pf-HR :0.88238: L2-HR :0.85598: (Sim:0h5m45s) 
CPU  0 inst:   82000000 cyc:   48880175 now IPC :1.70755: AVG IPC :1.67009: L2-Pf-HR :0.88233: L2-HR :0.85592: (Sim:0h5m50s) 
CPU  0 inst:   83000001 cyc:   49472535 now IPC :1.68816: AVG IPC :1.67031: L2-Pf-HR :0.88230: L2-HR :0.85588: (Sim:0h5m54s) 
CPU  0 inst:   84000000 cyc:   50061993 now IPC :1.69647: AVG IPC :1.67063: L2-Pf-HR :0.88226: L2-HR :0.85584: (Sim:0h5m58s) 
CPU  0 inst:   85000003 cyc:   50648585 now IPC :1.70477: AVG IPC :1.67103: L2-Pf-HR :0.88227: L2-HR :0.85584: (Sim:0h6m3s) 
CPU  0 inst:   86000000 cyc:   51240761 now IPC :1.68868: AVG IPC :1.67124: L2-Pf-HR :0.88223: L2-HR :0.85580: (Sim:0h6m7s) 
CPU  0 inst:   87000001 cyc:   51829805 now IPC :1.69767: AVG IPC :1.67154: L2-Pf-HR :0.88226: L2-HR :0.85581: (Sim:0h6m12s) 
CPU  0 inst:   88000000 cyc:   52588785 now IPC :1.31756: AVG IPC :1.66634: L2-Pf-HR :0.88247: L2-HR :0.85598: (Sim:0h6m17s) 
CPU  0 inst:   89000000 cyc:   53188630 now IPC :1.66710: AVG IPC :1.66635: L2-Pf-HR :0.88246: L2-HR :0.85596: (Sim:0h6m21s) 
CPU  0 inst:   90000003 cyc:   53773535 now IPC :1.70968: AVG IPC :1.66683: L2-Pf-HR :0.88245: L2-HR :0.85597: (Sim:0h6m26s) 
CPU  0 inst:   91000003 cyc:   54354093 now IPC :1.72248: AVG IPC :1.66743: L2-Pf-HR :0.88246: L2-HR :0.85598: (Sim:0h6m30s) 
CPU  0 inst:   92000000 cyc:   54938062 now IPC :1.71241: AVG IPC :1.66792: L2-Pf-HR :0.88246: L2-HR :0.85599: (Sim:0h6m34s) 
CPU  0 inst:   93000000 cyc:   55522306 now IPC :1.71161: AVG IPC :1.66839: L2-Pf-HR :0.88247: L2-HR :0.85600: (Sim:0h6m39s) 
CPU  0 inst:   94000003 cyc:   56100048 now IPC :1.73088: AVG IPC :1.66904: L2-Pf-HR :0.88249: L2-HR :0.85603: (Sim:0h6m43s) 
CPU  0 inst:   95000002 cyc:   56671164 now IPC :1.75096: AVG IPC :1.66988: L2-Pf-HR :0.88277: L2-HR :0.85626: (Sim:0h6m48s) 
CPU  0 inst:   96000000 cyc:   57358548 now IPC :1.45479: AVG IPC :1.66726: L2-Pf-HR :0.88282: L2-HR :0.85631: (Sim:0h6m52s) 
CPU  0 inst:   97000003 cyc:   57939073 now IPC :1.72258: AVG IPC :1.66782: L2-Pf-HR :0.88288: L2-HR :0.85638: (Sim:0h6m54s) 
CPU  0 inst:   98000001 cyc:   58524705 now IPC :1.70755: AVG IPC :1.66823: L2-Pf-HR :0.88298: L2-HR :0.85647: (Sim:0h6m57s) 
CPU  0 inst:   99000002 cyc:   59105777 now IPC :1.72096: AVG IPC :1.66876: L2-Pf-HR :0.88307: L2-HR :0.85656: (Sim:0h7m0s) 
CPU  0 inst:  100000000 cyc:   59674217 now IPC :1.75920: AVG IPC :1.66963: L2-Pf-HR :0.88328: L2-HR :0.85674: (Sim:0h7m3s) 
CPU  0 inst:  101000002 cyc:   60475877 now IPC :1.24741: AVG IPC :1.66394: L2-Pf-HR :0.88310: L2-HR :0.85656: (Sim:0h7m6s) 
CPU  0 inst:  102000000 cyc:   61068869 now IPC :1.68636: AVG IPC :1.66416: L2-Pf-HR :0.88307: L2-HR :0.85653: (Sim:0h7m9s) 
CPU  0 inst:  103000000 cyc:   61656674 now IPC :1.70124: AVG IPC :1.66452: L2-Pf-HR :0.88301: L2-HR :0.85647: (Sim:0h7m12s) 
CPU  0 inst:  104000000 cyc:   62250334 now IPC :1.68447: AVG IPC :1.66472: L2-Pf-HR :0.88301: L2-HR :0.85647: (Sim:0h7m15s) 
CPU  0 inst:  105000003 cyc:   62838679 now IPC :1.69969: AVG IPC :1.66505: L2-Pf-HR :0.88299: L2-HR :0.85644: (Sim:0h7m18s) 
CPU  0 inst:  106000003 cyc:   63435296 now IPC :1.67612: AVG IPC :1.66515: L2-Pf-HR :0.88296: L2-HR :0.85641: (Sim:0h7m22s) 
CPU  0 inst:  107000002 cyc:   64026854 now IPC :1.69045: AVG IPC :1.66539: L2-Pf-HR :0.88297: L2-HR :0.85641: (Sim:0h7m25s) 
CPU  0 inst:  108000000 cyc:   64783196 now IPC :1.32215: AVG IPC :1.66132: L2-Pf-HR :0.88316: L2-HR :0.85657: (Sim:0h7m28s) 
CPU  0 inst:  109000000 cyc:   65375173 now IPC :1.68925: AVG IPC :1.66158: L2-Pf-HR :0.88315: L2-HR :0.85657: (Sim:0h7m31s) 
CPU  0 inst:  110000002 cyc:   65961087 now IPC :1.70674: AVG IPC :1.66199: L2-Pf-HR :0.88316: L2-HR :0.85658: (Sim:0h7m34s) 
CPU  0 inst:  111000001 cyc:   66546436 now IPC :1.70838: AVG IPC :1.66240: L2-Pf-HR :0.88318: L2-HR :0.85660: (Sim:0h7m37s) 
CPU  0 inst:  112000000 cyc:   67132373 now IPC :1.70667: AVG IPC :1.66279: L2-Pf-HR :0.88319: L2-HR :0.85661: (Sim:0h7m40s) 
CPU  0 inst:  113000002 cyc:   67712830 now IPC :1.72278: AVG IPC :1.66331: L2-Pf-HR :0.88322: L2-HR :0.85664: (Sim:0h7m43s) 
CPU  0 inst:  114000001 cyc:   68293400 now IPC :1.72244: AVG IPC :1.66382: L2-Pf-HR :0.88326: L2-HR :0.85668: (Sim:0h7m46s) 
CPU  0 inst:  115000000 cyc:   68860537 now IPC :1.76324: AVG IPC :1.66466: L2-Pf-HR :0.88349: L2-HR :0.85687: (Sim:0h7m49s) 
CPU  0 inst:  116000000 cyc:   69540699 now IPC :1.47024: AVG IPC :1.66273: L2-Pf-HR :0.88356: L2-HR :0.85694: (Sim:0h7m52s) 
CPU  0 inst:  117000001 cyc:   70119610 now IPC :1.72738: AVG IPC :1.66327: L2-Pf-HR :0.88364: L2-HR :0.85702: (Sim:0h7m55s) 
CPU  0 inst:  118000002 cyc:   70702032 now IPC :1.71697: AVG IPC :1.66372: L2-Pf-HR :0.88372: L2-HR :0.85709: (Sim:0h7m58s) 
CPU  0 inst:  119000001 cyc:   71284174 now IPC :1.71779: AVG IPC :1.66416: L2-Pf-HR :0.88382: L2-HR :0.85718: (Sim:0h8m2s) 
CPU  0 inst:  120000000 cyc:   71859199 now IPC :1.73905: AVG IPC :1.66477: L2-Pf-HR :0.88402: L2-HR :0.85736: (Sim:0h8m7s) 
CPU  0 inst:  121000000 cyc:   72662618 now IPC :1.24468: AVG IPC :1.66006: L2-Pf-HR :0.88387: L2-HR :0.85720: (Sim:0h8m12s) 
CPU  0 inst:  122000002 cyc:   73268863 now IPC :1.64950: AVG IPC :1.65998: L2-Pf-HR :0.88382: L2-HR :0.85717: (Sim:0h8m16s) 
CPU  0 inst:  123000002 cyc:   73864884 now IPC :1.67779: AVG IPC :1.66012: L2-Pf-HR :0.88380: L2-HR :0.85714: (Sim:0h8m21s) 
CPU  0 inst:  124000000 cyc:   74467433 now IPC :1.65961: AVG IPC :1.66012: L2-Pf-HR :0.88377: L2-HR :0.85711: (Sim:0h8m25s) 
CPU  0 inst:  125000002 cyc:   75069295 now IPC :1.66151: AVG IPC :1.66013: L2-Pf-HR :0.88377: L2-HR :0.85710: (Sim:0h8m30s) 
CPU  0 inst:  126000002 cyc:   75668964 now IPC :1.66759: AVG IPC :1.66019: L2-Pf-HR :0.88373: L2-HR :0.85707: (Sim:0h8m34s) 
CPU  0 inst:  127000001 cyc:   76274329 now IPC :1.65189: AVG IPC :1.66012: L2-Pf-HR :0.88374: L2-HR :0.85706: (Sim:0h8m39s) 
CPU  0 inst:  128000000 cyc:   77036228 now IPC :1.31251: AVG IPC :1.65664: L2-Pf-HR :0.88390: L2-HR :0.85719: (Sim:0h8m43s) 
CPU  0 inst:  129000002 cyc:   77628824 now IPC :1.68749: AVG IPC :1.65688: L2-Pf-HR :0.88388: L2-HR :0.85718: (Sim:0h8m48s) 
CPU  0 inst:  130000001 cyc:   78209395 now IPC :1.72244: AVG IPC :1.65737: L2-Pf-HR :0.88384: L2-HR :0.85715: (Sim:0h8m52s) 
CPU  0 inst:  131000001 cyc:   78787689 now IPC :1.72922: AVG IPC :1.65790: L2-Pf-HR :0.88386: L2-HR :0.85717: (Sim:0h8m57s) 
CPU  0 inst:  132000000 cyc:   79369964 now IPC :1.71740: AVG IPC :1.65835: L2-Pf-HR :0.88386: L2-HR :0.85718: (Sim:0h9m1s) 
CPU  0 inst:  133000001 cyc:   79949118 now IPC :1.72666: AVG IPC :1.65885: L2-Pf-HR :0.88385: L2-HR :0.85717: (Sim:0h9m6s) 
CPU  0 inst:  134000003 cyc:   80528207 now IPC :1.72685: AVG IPC :1.65934: L2-Pf-HR :0.88386: L2-HR :0.85718: (Sim:0h9m10s) 
CPU  0 inst:  135000000 cyc:   81097903 now IPC :1.75532: AVG IPC :1.66002: L2-Pf-HR :0.88405: L2-HR :0.85734: (Sim:0h9m15s) 
CPU  0 inst:  136000000 cyc:   81778182 now IPC :1.46999: AVG IPC :1.65842: L2-Pf-HR :0.88411: L2-HR :0.85740: (Sim:0h9m20s) 
CPU  0 inst:  137000000 cyc:   82356755 now IPC :1.72839: AVG IPC :1.65892: L2-Pf-HR :0.88419: L2-HR :0.85747: (Sim:0h9m24s) 
CPU  0 inst:  138000002 cyc:   82938080 now IPC :1.72021: AVG IPC :1.65936: L2-Pf-HR :0.88426: L2-HR :0.85754: (Sim:0h9m29s) 
CPU  0 inst:  139000002 cyc:   83515163 now IPC :1.73285: AVG IPC :1.65987: L2-Pf-HR :0.88434: L2-HR :0.85761: (Sim:0h9m33s) 
CPU  0 inst:  140000000 cyc:   84088882 now IPC :1.74301: AVG IPC :1.66044: L2-Pf-HR :0.88453: L2-HR :0.85778: (Sim:0h9m38s) 
CPU  0 inst:  141000002 cyc:   84892384 now IPC :1.24455: AVG IPC :1.65646: L2-Pf-HR :0.88438: L2-HR :0.85763: (Sim:0h9m42s) 
CPU  0 inst:  142000002 cyc:   85490775 now IPC :1.67115: AVG IPC :1.65657: L2-Pf-HR :0.88433: L2-HR :0.85758: (Sim:0h9m47s) 
CPU  0 inst:  143000001 cyc:   86079835 now IPC :1.69762: AVG IPC :1.65685: L2-Pf-HR :0.88429: L2-HR :0.85754: (Sim:0h9m51s) 
CPU  0 inst:  144000000 cyc:   86662197 now IPC :1.71714: AVG IPC :1.65726: L2-Pf-HR :0.88424: L2-HR :0.85750: (Sim:0h9m56s) 
CPU  0 inst:  145000000 cyc:   87256834 now IPC :1.68170: AVG IPC :1.65743: L2-Pf-HR :0.88419: L2-HR :0.85745: (Sim:0h10m0s) 
CPU  0 inst:  146000000 cyc:   87848867 now IPC :1.68910: AVG IPC :1.65764: L2-Pf-HR :0.88416: L2-HR :0.85742: (Sim:0h10m5s) 
CPU  0 inst:  147000000 cyc:   88437130 now IPC :1.69992: AVG IPC :1.65793: L2-Pf-HR :0.88417: L2-HR :0.85742: (Sim:0h10m9s) 
CPU  0 inst:  148000000 cyc:   89202704 now IPC :1.30621: AVG IPC :1.65488: L2-Pf-HR :0.88429: L2-HR :0.85752: (Sim:0h10m14s) 
CPU  0 inst:  149000000 cyc:   89799499 now IPC :1.67562: AVG IPC :1.65502: L2-Pf-HR :0.88428: L2-HR :0.85752: (Sim:0h10m19s) 
CPU  0 inst:  150000001 cyc:   90382111 now IPC :1.71641: AVG IPC :1.65542: L2-Pf-HR :0.88428: L2-HR :0.85752: (Sim:0h10m23s) 
CPU  0 inst:  151000003 cyc:   90965905 now IPC :1.71294: AVG IPC :1.65579: L2-Pf-HR :0.88429: L2-HR :0.85753: (Sim:0h10m28s) 
CPU  0 inst:  152000000 cyc:   91548766 now IPC :1.71567: AVG IPC :1.65617: L2-Pf-HR :0.88427: L2-HR :0.85752: (Sim:0h10m32s) 
CPU  0 inst:  153000000 cyc:   92126446 now IPC :1.73106: AVG IPC :1.65665: L2-Pf-HR :0.88427: L2-HR :0.85752: (Sim:0h10m36s) 
CPU  0 inst:  154000001 cyc:   92701973 now IPC :1.73754: AVG IPC :1.65716: L2-Pf-HR :0.88430: L2-HR :0.85754: (Sim:0h10m41s) 
CPU  0 inst:  155000003 cyc:   93272356 now IPC :1.75321: AVG IPC :1.65775: L2-Pf-HR :0.88447: L2-HR :0.85769: (Sim:0h10m45s) 
CPU  0 inst:  156000000 cyc:   93940750 now IPC :1.49612: AVG IPC :1.65659: L2-Pf-HR :0.88449: L2-HR :0.85771: (Sim:0h10m50s) 
CPU  0 inst:  157000001 cyc:   94519482 now IPC :1.72792: AVG IPC :1.65703: L2-Pf-HR :0.88454: L2-HR :0.85775: (Sim:0h10m54s) 
CPU  0 inst:  158000003 cyc:   95105306 now IPC :1.70700: AVG IPC :1.65734: L2-Pf-HR :0.88460: L2-HR :0.85781: (Sim:0h10m59s) 
CPU  0 inst:  159000002 cyc:   95685249 now IPC :1.72431: AVG IPC :1.65775: L2-Pf-HR :0.88465: L2-HR :0.85787: (Sim:0h11m2s) 
CPU  0 inst:  160000000 cyc:   96262518 now IPC :1.73229: AVG IPC :1.65820: L2-Pf-HR :0.88479: L2-HR :0.85799: (Sim:0h11m5s) 
CPU  0 inst:  161000001 cyc:   97066538 now IPC :1.24375: AVG IPC :1.65473: L2-Pf-HR :0.88467: L2-HR :0.85787: (Sim:0h11m8s) 
CPU  0 inst:  162000002 cyc:   97662796 now IPC :1.67713: AVG IPC :1.65487: L2-Pf-HR :0.88464: L2-HR :0.85784: (Sim:0h11m11s) 
CPU  0 inst:  163000000 cyc:   98261169 now IPC :1.67120: AVG IPC :1.65497: L2-Pf-HR :0.88463: L2-HR :0.85783: (Sim:0h11m14s) 
CPU  0 inst:  164000000 cyc:   98862806 now IPC :1.66213: AVG IPC :1.65502: L2-Pf-HR :0.88462: L2-HR :0.85781: (Sim:0h11m17s) 
CPU  0 inst:  165000001 cyc:   99459634 now IPC :1.67553: AVG IPC :1.65514: L2-Pf-HR :0.88459: L2-HR :0.85778: (Sim:0h11m21s) 
CPU  0 inst:  166000000 cyc:  100058348 now IPC :1.67024: AVG IPC :1.65523: L2-Pf-HR :0.88458: L2-HR :0.85777: (Sim:0h11m24s) 
CPU  0 inst:  167000003 cyc:  100662659 now IPC :1.65478: AVG IPC :1.65523: L2-Pf-HR :0.88459: L2-HR :0.85778: (Sim:0h11m27s) 
CPU  0 inst:  168000000 cyc:  101422817 now IPC :1.31551: AVG IPC :1.65266: L2-Pf-HR :0.88469: L2-HR :0.85785: (Sim:0h11m30s) 
CPU  0 inst:  169000003 cyc:  102014112 now IPC :1.69121: AVG IPC :1.65288: L2-Pf-HR :0.88470: L2-HR :0.85786: (Sim:0h11m33s) 
CPU  0 inst:  170000002 cyc:  102599195 now IPC :1.70916: AVG IPC :1.65321: L2-Pf-HR :0.88471: L2-HR :0.85787: (Sim:0h11m36s) 
CPU  0 inst:  171000000 cyc:  103179825 now IPC :1.72226: AVG IPC :1.65360: L2-Pf-HR :0.88471: L2-HR :0.85787: (Sim:0h11m39s) 
CPU  0 inst:  172000000 cyc:  103764709 now IPC :1.70974: AVG IPC :1.65392: L2-Pf-HR :0.88471: L2-HR :0.85788: (Sim:0h11m42s) 
CPU  0 inst:  173000002 cyc:  104344253 now IPC :1.72550: AVG IPC :1.65432: L2-Pf-HR :0.88472: L2-HR :0.85789: (Sim:0h11m45s) 
CPU  0 inst:  174000001 cyc:  104919467 now IPC :1.73848: AVG IPC :1.65479: L2-Pf-HR :0.88474: L2-HR :0.85791: (Sim:0h11m50s) 
CPU  0 inst:  175000001 cyc:  105489085 now IPC :1.75556: AVG IPC :1.65534: L2-Pf-HR :0.88489: L2-HR :0.85804: (Sim:0h11m54s) 
CPU  0 inst:  176000000 cyc:  106172636 now IPC :1.46295: AVG IPC :1.65409: L2-Pf-HR :0.88492: L2-HR :0.85807: (Sim:0h11m59s) 
CPU  0 inst:  177000000 cyc:  106755722 now IPC :1.71501: AVG IPC :1.65442: L2-Pf-HR :0.88499: L2-HR :0.85813: (Sim:0h12m3s) 
CPU  0 inst:  178000001 cyc:  107333254 now IPC :1.73151: AVG IPC :1.65484: L2-Pf-HR :0.88505: L2-HR :0.85819: (Sim:0h12m8s) 
CPU  0 inst:  179000003 cyc:  107912211 now IPC :1.72725: AVG IPC :1.65523: L2-Pf-HR :0.88511: L2-HR :0.85824: (Sim:0h12m12s) 
CPU  0 inst:  180000000 cyc:  108487699 now IPC :1.73765: AVG IPC :1.65567: L2-Pf-HR :0.88524: L2-HR :0.85835: (Sim:0h12m17s) 
CPU  0 inst:  181000003 cyc:  109292130 now IPC :1.24312: AVG IPC :1.65261: L2-Pf-HR :0.88510: L2-HR :0.85822: (Sim:0h12m21s) 
CPU  0 inst:  182000002 cyc:  109881233 now IPC :1.69749: AVG IPC :1.65285: L2-Pf-HR :0.88506: L2-HR :0.85819: (Sim:0h12m26s) 
CPU  0 inst:  183000002 cyc:  110472629 now IPC :1.69091: AVG IPC :1.65306: L2-Pf-HR :0.88505: L2-HR :0.85817: (Sim:0h12m30s) 
CPU  0 inst:  184000000 cyc:  111068962 now IPC :1.67691: AVG IPC :1.65319: L2-Pf-HR :0.88501: L2-HR :0.85814: (Sim:0h12m35s) 
CPU  0 inst:  185000000 cyc:  111657567 now IPC :1.69893: AVG IPC :1.65343: L2-Pf-HR :0.88500: L2-HR :0.85812: (Sim:0h12m39s) 
CPU  0 inst:  186000001 cyc:  112253122 now IPC :1.67911: AVG IPC :1.65357: L2-Pf-HR :0.88497: L2-HR :0.85809: (Sim:0h12m44s) 
CPU  0 inst:  187000001 cyc:  112847932 now IPC :1.68121: AVG IPC :1.65372: L2-Pf-HR :0.88497: L2-HR :0.85808: (Sim:0h12m48s) 
CPU  0 inst:  188000000 cyc:  113609103 now IPC :1.31376: AVG IPC :1.65142: L2-Pf-HR :0.88506: L2-HR :0.85816: (Sim:0h12m53s) 
CPU  0 inst:  189000003 cyc:  114200699 now IPC :1.69035: AVG IPC :1.65162: L2-Pf-HR :0.88504: L2-HR :0.85814: (Sim:0h12m57s) 
CPU  0 inst:  190000003 cyc:  114785135 now IPC :1.71105: AVG IPC :1.65193: L2-Pf-HR :0.88501: L2-HR :0.85812: (Sim:0h13m2s) 
CPU  0 inst:  191000003 cyc:  115367945 now IPC :1.71583: AVG IPC :1.65225: L2-Pf-HR :0.88502: L2-HR :0.85813: (Sim:0h13m6s) 
CPU  0 inst:  192000000 cyc:  115954441 now IPC :1.70504: AVG IPC :1.65252: L2-Pf-HR :0.88501: L2-HR :0.85812: (Sim:0h13m11s) 
CPU  0 inst:  193000000 cyc:  116538348 now IPC :1.71260: AVG IPC :1.65282: L2-Pf-HR :0.88500: L2-HR :0.85812: (Sim:0h13m15s) 
CPU  0 inst:  194000001 cyc:  117117648 now IPC :1.72622: AVG IPC :1.65319: L2-Pf-HR :0.88500: L2-HR :0.85812: (Sim:0h13m20s) 
CPU  0 inst:  195000000 cyc:  117685941 now IPC :1.75965: AVG IPC :1.65371: L2-Pf-HR :0.88514: L2-HR :0.85824: (Sim:0h13m25s) 
CPU  0 inst:  196000000 cyc:  118372949 now IPC :1.45559: AVG IPC :1.65255: L2-Pf-HR :0.88515: L2-HR :0.85825: (Sim:0h13m29s) 
CPU  0 inst:  197000000 cyc:  118956369 now IPC :1.71403: AVG IPC :1.65285: L2-Pf-HR :0.88520: L2-HR :0.85830: (Sim:0h13m34s) 
CPU  0 inst:  198000000 cyc:  119534363 now IPC :1.73012: AVG IPC :1.65323: L2-Pf-HR :0.88524: L2-HR :0.85833: (Sim:0h13m39s) 
CPU  0 inst:  199000003 cyc:  120110181 now IPC :1.73667: AVG IPC :1.65363: L2-Pf-HR :0.88527: L2-HR :0.85836: (Sim:0h13m43s) 
CPU  0 inst:  200000000 cyc:  120687926 now IPC :1.73086: AVG IPC :1.65401: L2-Pf-HR :0.88540: L2-HR :0.85848: (Sim:0h13m48s) 
CPU  0 inst:  201000003 cyc:  121482528 now IPC :1.25850: AVG IPC :1.65140: L2-Pf-HR :0.88530: L2-HR :0.85838: (Sim:0h13m53s) 
CPU  0 inst:  202000002 cyc:  122077872 now IPC :1.67970: AVG IPC :1.65154: L2-Pf-HR :0.88526: L2-HR :0.85835: (Sim:0h13m57s) 
CPU  0 inst:  203000002 cyc:  122670749 now IPC :1.68669: AVG IPC :1.65171: L2-Pf-HR :0.88523: L2-HR :0.85832: (Sim:0h14m2s) 
CPU  0 inst:  204000000 cyc:  123267430 now IPC :1.67593: AVG IPC :1.65183: L2-Pf-HR :0.88521: L2-HR :0.85829: (Sim:0h14m5s) 
CPU  0 inst:  205000001 cyc:  123862948 now IPC :1.67921: AVG IPC :1.65196: L2-Pf-HR :0.88519: L2-HR :0.85827: (Sim:0h14m9s) 
CPU  0 inst:  206000000 cyc:  124451383 now IPC :1.69942: AVG IPC :1.65219: L2-Pf-HR :0.88515: L2-HR :0.85823: (Sim:0h14m12s) 
CPU  0 inst:  207000000 cyc:  125041837 now IPC :1.69361: AVG IPC :1.65238: L2-Pf-HR :0.88515: L2-HR :0.85824: (Sim:0h14m15s) 
CPU  0 inst:  208000000 cyc:  125804993 now IPC :1.31035: AVG IPC :1.65029: L2-Pf-HR :0.88522: L2-HR :0.85828: (Sim:0h14m19s) 
CPU  0 inst:  209000000 cyc:  126394474 now IPC :1.69641: AVG IPC :1.65051: L2-Pf-HR :0.88519: L2-HR :0.85826: (Sim:0h14m23s) 
CPU  0 inst:  210000001 cyc:  126978276 now IPC :1.71291: AVG IPC :1.65080: L2-Pf-HR :0.88517: L2-HR :0.85824: (Sim:0h14m28s) 
CPU  0 inst:  211000001 cyc:  127557634 now IPC :1.72605: AVG IPC :1.65114: L2-Pf-HR :0.88514: L2-HR :0.85822: (Sim:0h14m32s) 
CPU  0 inst:  212000000 cyc:  128139695 now IPC :1.71803: AVG IPC :1.65145: L2-Pf-HR :0.88513: L2-HR :0.85822: (Sim:0h14m37s) 
CPU  0 inst:  213000003 cyc:  128721743 now IPC :1.71808: AVG IPC :1.65175: L2-Pf-HR :0.88513: L2-HR :0.85822: (Sim:0h14m41s) 
CPU  0 inst:  214000002 cyc:  129298902 now IPC :1.73262: AVG IPC :1.65212: L2-Pf-HR :0.88512: L2-HR :0.85822: (Sim:0h14m45s) 
CPU  0 inst:  215000002 cyc:  129868778 now IPC :1.75477: AVG IPC :1.65257: L2-Pf-HR :0.88525: L2-HR :0.85833: (Sim:0h14m50s) 
CPU  0 inst:  216000000 cyc:  130547806 now IPC :1.47269: AVG IPC :1.65163: L2-Pf-HR :0.88528: L2-HR :0.85835: (Sim:0h14m54s) 
CPU  0 inst:  217000001 cyc:  131128924 now IPC :1.72082: AVG IPC :1.65194: L2-Pf-HR :0.88533: L2-HR :0.85840: (Sim:0h14m59s) 
CPU  0 inst:  218000002 cyc:  131710922 now IPC :1.71822: AVG IPC :1.65223: L2-Pf-HR :0.88539: L2-HR :0.85845: (Sim:0h15m3s) 
CPU  0 inst:  219000000 cyc:  132292213 now IPC :1.72031: AVG IPC :1.65253: L2-Pf-HR :0.88544: L2-HR :0.85850: (Sim:0h15m8s) 
CPU  0 inst:  220000000 cyc:  132868923 now IPC :1.73397: AVG IPC :1.65289: L2-Pf-HR :0.88556: L2-HR :0.85861: (Sim:0h15m12s) 
CPU  0 inst:  221000001 cyc:  133663355 now IPC :1.25876: AVG IPC :1.65053: L2-Pf-HR :0.88546: L2-HR :0.85850: (Sim:0h15m17s) 
CPU  0 inst:  222000001 cyc:  134263858 now IPC :1.66527: AVG IPC :1.65060: L2-Pf-HR :0.88544: L2-HR :0.85848: (Sim:0h15m21s) 
CPU  0 inst:  223000001 cyc:  134850461 now IPC :1.70473: AVG IPC :1.65083: L2-Pf-HR :0.88542: L2-HR :0.85847: (Sim:0h15m26s) 
CPU  0 inst:  224000000 cyc:  135439299 now IPC :1.69826: AVG IPC :1.65104: L2-Pf-HR :0.88539: L2-HR :0.85843: (Sim:0h15m30s) 
CPU  0 inst:  225000003 cyc:  136036139 now IPC :1.67550: AVG IPC :1.65115: L2-Pf-HR :0.88538: L2-HR :0.85842: (Sim:0h15m35s) 
CPU  0 inst:  226000001 cyc:  136622910 now IPC :1.70424: AVG IPC :1.65138: L2-Pf-HR :0.88536: L2-HR :0.85840: (Sim:0h15m39s) 
CPU  0 inst:  227000000 cyc:  137216776 now IPC :1.68388: AVG IPC :1.65152: L2-Pf-HR :0.88536: L2-HR :0.85841: (Sim:0h15m44s) 
CPU  0 inst:  228000000 cyc:  137987522 now IPC :1.29744: AVG IPC :1.64953: L2-Pf-HR :0.88544: L2-HR :0.85846: (Sim:0h15m48s) 
CPU  0 inst:  229000000 cyc:  138579923 now IPC :1.68805: AVG IPC :1.64969: L2-Pf-HR :0.88544: L2-HR :0.85846: (Sim:0h15m53s) 
CPU  0 inst:  230000003 cyc:  139154018 now IPC :1.74188: AVG IPC :1.65008: L2-Pf-HR :0.88543: L2-HR :0.85846: (Sim:0h15m57s) 
CPU  0 inst:  231000003 cyc:  139737392 now IPC :1.71417: AVG IPC :1.65035: L2-Pf-HR :0.88544: L2-HR :0.85847: (Sim:0h16m1s) 
CPU  0 inst:  232000000 cyc:  140322351 now IPC :1.70952: AVG IPC :1.65059: L2-Pf-HR :0.88545: L2-HR :0.85848: (Sim:0h16m6s) 
CPU  0 inst:  233000003 cyc:  140901928 now IPC :1.72540: AVG IPC :1.65090: L2-Pf-HR :0.88545: L2-HR :0.85849: (Sim:0h16m10s) 
CPU  0 inst:  234000001 cyc:  141477171 now IPC :1.73839: AVG IPC :1.65126: L2-Pf-HR :0.88546: L2-HR :0.85850: (Sim:0h16m15s) 
CPU  0 inst:  235000000 cyc:  142050104 now IPC :1.74540: AVG IPC :1.65164: L2-Pf-HR :0.88558: L2-HR :0.85860: (Sim:0h16m19s) 
CPU  0 inst:  236000000 cyc:  142729030 now IPC :1.47291: AVG IPC :1.65079: L2-Pf-HR :0.88559: L2-HR :0.85861: (Sim:0h16m24s) 
CPU  0 inst:  237000000 cyc:  143311744 now IPC :1.71611: AVG IPC :1.65106: L2-Pf-HR :0.88564: L2-HR :0.85866: (Sim:0h16m28s) 
CPU  0 inst:  238000003 cyc:  143889292 now IPC :1.73146: AVG IPC :1.65138: L2-Pf-HR :0.88568: L2-HR :0.85869: (Sim:0h16m33s) 
CPU  0 inst:  239000002 cyc:  144470764 now IPC :1.71977: AVG IPC :1.65166: L2-Pf-HR :0.88572: L2-HR :0.85873: (Sim:0h16m37s) 
CPU  0 inst:  240000000 cyc:  145048238 now IPC :1.73168: AVG IPC :1.65198: L2-Pf-HR :0.88582: L2-HR :0.85881: (Sim:0h16m42s) 
CPU  0 inst:  241000003 cyc:  145851253 now IPC :1.24531: AVG IPC :1.64972: L2-Pf-HR :0.88573: L2-HR :0.85873: (Sim:0h16m46s) 
CPU  0 inst:  242000000 cyc:  146449096 now IPC :1.67267: AVG IPC :1.64982: L2-Pf-HR :0.88570: L2-HR :0.85869: (Sim:0h16m51s) 
CPU  0 inst:  243000003 cyc:  147040115 now IPC :1.69200: AVG IPC :1.64999: L2-Pf-HR :0.88569: L2-HR :0.85869: (Sim:0h16m55s) 
CPU  0 inst:  244000000 cyc:  147627435 now IPC :1.70264: AVG IPC :1.65020: L2-Pf-HR :0.88567: L2-HR :0.85867: (Sim:0h17m0s) 
CPU  0 inst:  245000002 cyc:  148226184 now IPC :1.67015: AVG IPC :1.65028: L2-Pf-HR :0.88566: L2-HR :0.85866: (Sim:0h17m4s) 
CPU  0 inst:  246000001 cyc:  148818694 now IPC :1.68773: AVG IPC :1.65043: L2-Pf-HR :0.88564: L2-HR :0.85864: (Sim:0h17m9s) 
CPU  0 inst:  247000001 cyc:  149410209 now IPC :1.69057: AVG IPC :1.65059: L2-Pf-HR :0.88564: L2-HR :0.85864: (Sim:0h17m13s) 
CPU  0 inst:  248000000 cyc:  150173298 now IPC :1.31046: AVG IPC :1.64885: L2-Pf-HR :0.88571: L2-HR :0.85868: (Sim:0h17m18s) 
CPU  0 inst:  249000001 cyc:  150767209 now IPC :1.68376: AVG IPC :1.64899: L2-Pf-HR :0.88571: L2-HR :0.85869: (Sim:0h17m23s) 
CPU  0 inst:  250000001 cyc:  151350898 now IPC :1.71324: AVG IPC :1.64924: L2-Pf-HR :0.88570: L2-HR :0.85869: (Sim:0h17m27s) 
CPU  0 inst:  251000002 cyc:  151929616 now IPC :1.72796: AVG IPC :1.64954: L2-Pf-HR :0.88571: L2-HR :0.85869: (Sim:0h17m32s) 
CPU  0 inst:  252000000 cyc:  152514303 now IPC :1.71031: AVG IPC :1.64978: L2-Pf-HR :0.88570: L2-HR :0.85869: (Sim:0h17m36s) 
CPU  0 inst:  253000002 cyc:  153095520 now IPC :1.72053: AVG IPC :1.65005: L2-Pf-HR :0.88570: L2-HR :0.85869: (Sim:0h17m41s) 
CPU  0 inst:  254000003 cyc:  153674699 now IPC :1.72658: AVG IPC :1.65034: L2-Pf-HR :0.88571: L2-HR :0.85870: (Sim:0h17m45s) 
CPU  0 inst:  255000000 cyc:  154245703 now IPC :1.75130: AVG IPC :1.65071: L2-Pf-HR :0.88582: L2-HR :0.85880: (Sim:0h17m49s) 
CPU  0 inst:  256000000 cyc:  154923954 now IPC :1.47438: AVG IPC :1.64994: L2-Pf-HR :0.88583: L2-HR :0.85881: (Sim:0h17m54s) 
CPU  0 inst:  257000002 cyc:  155509675 now IPC :1.70730: AVG IPC :1.65015: L2-Pf-HR :0.88588: L2-HR :0.85885: (Sim:0h17m58s) 
CPU  0 inst:  258000000 cyc:  156090054 now IPC :1.72301: AVG IPC :1.65043: L2-Pf-HR :0.88591: L2-HR :0.85888: (Sim:0h18m3s) 
CPU  0 inst:  259000001 cyc:  156665617 now IPC :1.73743: AVG IPC :1.65075: L2-Pf-HR :0.88594: L2-HR :0.85891: (Sim:0h18m7s) 
CPU  0 inst:  260000000 cyc:  157267994 now IPC :1.66009: AVG IPC :1.65078: L2-Pf-HR :0.88603: L2-HR :0.85899: (Sim:0h18m12s) 
CPU  0 inst:  261000002 cyc:  158040000 now IPC :1.29533: AVG IPC :1.64904: L2-Pf-HR :0.88595: L2-HR :0.85891: (Sim:0h18m17s) 
CPU  0 inst:  262000003 cyc:  158634652 now IPC :1.68166: AVG IPC :1.64916: L2-Pf-HR :0.88591: L2-HR :0.85888: (Sim:0h18m21s) 
CPU  0 inst:  263000000 cyc:  159227805 now IPC :1.68590: AVG IPC :1.64930: L2-Pf-HR :0.88589: L2-HR :0.85886: (Sim:0h18m26s) 
CPU  0 inst:  264000000 cyc:  159816170 now IPC :1.69963: AVG IPC :1.64948: L2-Pf-HR :0.88585: L2-HR :0.85883: (Sim:0h18m30s) 
CPU  0 inst:  265000001 cyc:  160404498 now IPC :1.69973: AVG IPC :1.64967: L2-Pf-HR :0.88583: L2-HR :0.85881: (Sim:0h18m35s) 
CPU  0 inst:  266000003 cyc:  160998860 now IPC :1.68248: AVG IPC :1.64979: L2-Pf-HR :0.88581: L2-HR :0.85878: (Sim:0h18m39s) 
CPU  0 inst:  267000003 cyc:  161587570 now IPC :1.69863: AVG IPC :1.64997: L2-Pf-HR :0.88582: L2-HR :0.85879: (Sim:0h18m44s) 
CPU  0 inst:  268000000 cyc:  162352621 now IPC :1.30710: AVG IPC :1.64834: L2-Pf-HR :0.88587: L2-HR :0.85883: (Sim:0h18m48s) 
CPU  0 inst:  269000000 cyc:  162941475 now IPC :1.69821: AVG IPC :1.64853: L2-Pf-HR :0.88586: L2-HR :0.85882: (Sim:0h18m53s) 
CPU  0 inst:  270000003 cyc:  163525434 now IPC :1.71245: AVG IPC :1.64876: L2-Pf-HR :0.88586: L2-HR :0.85882: (Sim:0h18m57s) 
CPU  0 inst:  271000001 cyc:  164109998 now IPC :1.71067: AVG IPC :1.64898: L2-Pf-HR :0.88586: L2-HR :0.85883: (Sim:0h19m2s) 
CPU  0 inst:  272000000 cyc:  164697569 now IPC :1.70192: AVG IPC :1.64917: L2-Pf-HR :0.88585: L2-HR :0.85882: (Sim:0h19m6s) 
CPU  0 inst:  273000001 cyc:  165279595 now IPC :1.71814: AVG IPC :1.64941: L2-Pf-HR :0.88585: L2-HR :0.85882: (Sim:0h19m11s) 
CPU  0 inst:  274000002 cyc:  165858790 now IPC :1.72654: AVG IPC :1.64968: L2-Pf-HR :0.88586: L2-HR :0.85883: (Sim:0h19m15s) 
CPU  0 inst:  275000002 cyc:  166431529 now IPC :1.74600: AVG IPC :1.65002: L2-Pf-HR :0.88597: L2-HR :0.85892: (Sim:0h19m20s) 
CPU  0 inst:  276000000 cyc:  167113041 now IPC :1.46732: AVG IPC :1.64927: L2-Pf-HR :0.88598: L2-HR :0.85894: (Sim:0h19m24s) 
CPU  0 inst:  277000001 cyc:  167696176 now IPC :1.71487: AVG IPC :1.64950: L2-Pf-HR :0.88601: L2-HR :0.85896: (Sim:0h19m29s) 
CPU  0 inst:  278000003 cyc:  168278255 now IPC :1.71798: AVG IPC :1.64973: L2-Pf-HR :0.88604: L2-HR :0.85899: (Sim:0h19m33s) 
CPU  0 inst:  279000000 cyc:  168863435 now IPC :1.70887: AVG IPC :1.64994: L2-Pf-HR :0.88607: L2-HR :0.85902: (Sim:0h19m38s) 
CPU  0 inst:  280000000 cyc:  169482767 now IPC :1.61464: AVG IPC :1.64981: L2-Pf-HR :0.88613: L2-HR :0.85908: (Sim:0h19m42s) 
CPU  0 inst:  281000000 cyc:  170241785 now IPC :1.31749: AVG IPC :1.64832: L2-Pf-HR :0.88607: L2-HR :0.85901: (Sim:0h19m47s) 
CPU  0 inst:  282000003 cyc:  170843971 now IPC :1.66062: AVG IPC :1.64836: L2-Pf-HR :0.88604: L2-HR :0.85899: (Sim:0h19m51s) 
CPU  0 inst:  283000003 cyc:  171433875 now IPC :1.69519: AVG IPC :1.64853: L2-Pf-HR :0.88601: L2-HR :0.85896: (Sim:0h19m56s) 
CPU  0 inst:  284000000 cyc:  172031779 now IPC :1.67250: AVG IPC :1.64861: L2-Pf-HR :0.88599: L2-HR :0.85894: (Sim:0h20m0s) 
CPU  0 inst:  285000003 cyc:  172621372 now IPC :1.69609: AVG IPC :1.64877: L2-Pf-HR :0.88597: L2-HR :0.85892: (Sim:0h20m5s) 
CPU  0 inst:  286000002 cyc:  173207652 now IPC :1.70567: AVG IPC :1.64897: L2-Pf-HR :0.88595: L2-HR :0.85889: (Sim:0h20m9s) 
CPU  0 inst:  287000000 cyc:  173802247 now IPC :1.68181: AVG IPC :1.64908: L2-Pf-HR :0.88595: L2-HR :0.85889: (Sim:0h20m14s) 
CPU  0 inst:  288000000 cyc:  174558012 now IPC :1.32316: AVG IPC :1.64766: L2-Pf-HR :0.88600: L2-HR :0.85894: (Sim:0h20m18s) 
CPU  0 inst:  289000002 cyc:  175143973 now IPC :1.70660: AVG IPC :1.64786: L2-Pf-HR :0.88600: L2-HR :0.85894: (Sim:0h20m23s) 
CPU  0 inst:  290000001 cyc:  175728200 now IPC :1.71166: AVG IPC :1.64807: L2-Pf-HR :0.88597: L2-HR :0.85892: (Sim:0h20m27s) 
CPU  0 inst:  291000003 cyc:  176305508 now IPC :1.73218: AVG IPC :1.64835: L2-Pf-HR :0.88596: L2-HR :0.85891: (Sim:0h20m32s) 
CPU  0 inst:  292000000 cyc:  176887690 now IPC :1.71767: AVG IPC :1.64858: L2-Pf-HR :0.88596: L2-HR :0.85891: (Sim:0h20m36s) 
CPU  0 inst:  293000001 cyc:  177469245 now IPC :1.71953: AVG IPC :1.64881: L2-Pf-HR :0.88595: L2-HR :0.85891: (Sim:0h20m41s) 
CPU  0 inst:  294000001 cyc:  178048138 now IPC :1.72743: AVG IPC :1.64907: L2-Pf-HR :0.88595: L2-HR :0.85891: (Sim:0h20m45s) 
CPU  0 inst:  295000001 cyc:  178620108 now IPC :1.74834: AVG IPC :1.64939: L2-Pf-HR :0.88605: L2-HR :0.85899: (Sim:0h20m50s) 
CPU  0 inst:  296000000 cyc:  179306553 now IPC :1.45678: AVG IPC :1.64865: L2-Pf-HR :0.88606: L2-HR :0.85901: (Sim:0h20m54s) 
CPU  0 inst:  297000003 cyc:  179888018 now IPC :1.71980: AVG IPC :1.64888: L2-Pf-HR :0.88609: L2-HR :0.85904: (Sim:0h20m59s) 
CPU  0 inst:  298000000 cyc:  180464859 now IPC :1.73357: AVG IPC :1.64915: L2-Pf-HR :0.88612: L2-HR :0.85906: (Sim:0h21m3s) 
CPU  0 inst:  299000003 cyc:  181042773 now IPC :1.73037: AVG IPC :1.64941: L2-Pf-HR :0.88615: L2-HR :0.85910: (Sim:0h21m8s) 
CPU  0 inst:  300000000 cyc:  181671922 now IPC :1.58944: AVG IPC :1.64920: L2-Pf-HR :0.88621: L2-HR :0.85915: (Sim:0h21m12s) 
CPU  0 inst:  301000003 cyc:  182419328 now IPC :1.33796: AVG IPC :1.64792: L2-Pf-HR :0.88615: L2-HR :0.85909: (Sim:0h21m17s) 
CPU  0 inst:  302000000 cyc:  183018684 now IPC :1.66845: AVG IPC :1.64799: L2-Pf-HR :0.88613: L2-HR :0.85906: (Sim:0h21m21s) 
CPU  0 inst:  303000001 cyc:  183609167 now IPC :1.69353: AVG IPC :1.64814: L2-Pf-HR :0.88612: L2-HR :0.85906: (Sim:0h21m26s) 
CPU  0 inst:  304000000 cyc:  184194883 now IPC :1.70731: AVG IPC :1.64833: L2-Pf-HR :0.88610: L2-HR :0.85904: (Sim:0h21m30s) 
CPU  0 inst:  305000002 cyc:  184792521 now IPC :1.67326: AVG IPC :1.64841: L2-Pf-HR :0.88608: L2-HR :0.85902: (Sim:0h21m35s) 
CPU  0 inst:  306000003 cyc:  185384472 now IPC :1.68933: AVG IPC :1.64854: L2-Pf-HR :0.88606: L2-HR :0.85900: (Sim:0h21m39s) 
CPU  0 inst:  307000002 cyc:  185973275 now IPC :1.69836: AVG IPC :1.64870: L2-Pf-HR :0.88606: L2-HR :0.85900: (Sim:0h21m44s) 
CPU  0 inst:  308000000 cyc:  186746031 now IPC :1.29407: AVG IPC :1.64722: L2-Pf-HR :0.88611: L2-HR :0.85904: (Sim:0h21m48s) 
CPU  0 inst:  309000000 cyc:  187336225 now IPC :1.69436: AVG IPC :1.64737: L2-Pf-HR :0.88610: L2-HR :0.85903: (Sim:0h21m53s) 
CPU  0 inst:  310000000 cyc:  187914826 now IPC :1.72831: AVG IPC :1.64762: L2-Pf-HR :0.88608: L2-HR :0.85901: (Sim:0h21m57s) 
CPU  0 inst:  311000002 cyc:  188494068 now IPC :1.72640: AVG IPC :1.64786: L2-Pf-HR :0.88608: L2-HR :0.85902: (Sim:0h22m2s) 
CPU  0 inst:  312000000 cyc:  189073278 now IPC :1.72649: AVG IPC :1.64811: L2-Pf-HR :0.88607: L2-HR :0.85901: (Sim:0h22m6s) 
CPU  0 inst:  313000002 cyc:  189650585 now IPC :1.73218: AVG IPC :1.64836: L2-Pf-HR :0.88606: L2-HR :0.85901: (Sim:0h22m11s) 
CPU  0 inst:  314000003 cyc:  190230761 now IPC :1.72362: AVG IPC :1.64859: L2-Pf-HR :0.88605: L2-HR :0.85900: (Sim:0h22m15s) 
CPU  0 inst:  315000000 cyc:  190798077 now IPC :1.76268: AVG IPC :1.64894: L2-Pf-HR :0.88615: L2-HR :0.85908: (Sim:0h22m20s) 
CPU  0 inst:  316000000 cyc:  191469269 now IPC :1.48989: AVG IPC :1.64837: L2-Pf-HR :0.88615: L2-HR :0.85909: (Sim:0h22m24s) 
CPU  0 inst:  317000000 cyc:  192056585 now IPC :1.70266: AVG IPC :1.64854: L2-Pf-HR :0.88617: L2-HR :0.85911: (Sim:0h22m29s) 
CPU  0 inst:  318000000 cyc:  192638819 now IPC :1.71752: AVG IPC :1.64875: L2-Pf-HR :0.88620: L2-HR :0.85913: (Sim:0h22m33s) 
CPU  0 inst:  319000001 cyc:  193219628 now IPC :1.72174: AVG IPC :1.64897: L2-Pf-HR :0.88621: L2-HR :0.85915: (Sim:0h22m38s) 
CPU  0 inst:  320000000 cyc:  193861782 now IPC :1.55726: AVG IPC :1.64867: L2-Pf-HR :0.88627: L2-HR :0.85920: (Sim:0h22m42s) 
CPU  0 inst:  321000002 cyc:  194600148 now IPC :1.35434: AVG IPC :1.64754: L2-Pf-HR :0.88623: L2-HR :0.85916: (Sim:0h22m47s) 
CPU  0 inst:  322000000 cyc:  195191570 now IPC :1.69084: AVG IPC :1.64768: L2-Pf-HR :0.88621: L2-HR :0.85914: (Sim:0h22m51s) 
CPU  0 inst:  323000000 cyc:  195786050 now IPC :1.68214: AVG IPC :1.64778: L2-Pf-HR :0.88620: L2-HR :0.85914: (Sim:0h22m56s) 
CPU  0 inst:  324000000 cyc:  196378263 now IPC :1.68858: AVG IPC :1.64790: L2-Pf-HR :0.88620: L2-HR :0.85913: (Sim:0h23m0s) 
CPU  0 inst:  325000000 cyc:  196968452 now IPC :1.69437: AVG IPC :1.64804: L2-Pf-HR :0.88619: L2-HR :0.85912: (Sim:0h23m5s) 
CPU  0 inst:  326000000 cyc:  197562472 now IPC :1.68344: AVG IPC :1.64815: L2-Pf-HR :0.88618: L2-HR :0.85911: (Sim:0h23m9s) 
CPU  0 inst:  327000003 cyc:  198151822 now IPC :1.69679: AVG IPC :1.64830: L2-Pf-HR :0.88619: L2-HR :0.85912: (Sim:0h23m14s) 
CPU  0 inst:  328000000 cyc:  198918990 now IPC :1.30349: AVG IPC :1.64696: L2-Pf-HR :0.88623: L2-HR :0.85915: (Sim:0h23m19s) 
CPU  0 inst:  329000003 cyc:  199510601 now IPC :1.69030: AVG IPC :1.64709: L2-Pf-HR :0.88622: L2-HR :0.85914: (Sim:0h23m23s) 
CPU  0 inst:  330000000 cyc:  200091846 now IPC :1.72044: AVG IPC :1.64730: L2-Pf-HR :0.88621: L2-HR :0.85914: (Sim:0h23m27s) 
CPU  0 inst:  331000001 cyc:  200671153 now IPC :1.72620: AVG IPC :1.64753: L2-Pf-HR :0.88620: L2-HR :0.85913: (Sim:0h23m32s) 
CPU  0 inst:  332000000 cyc:  201257231 now IPC :1.70626: AVG IPC :1.64770: L2-Pf-HR :0.88618: L2-HR :0.85911: (Sim:0h23m36s) 
CPU  0 inst:  333000002 cyc:  201835840 now IPC :1.72829: AVG IPC :1.64794: L2-Pf-HR :0.88617: L2-HR :0.85911: (Sim:0h23m40s) 
CPU  0 inst:  334000002 cyc:  202415988 now IPC :1.72370: AVG IPC :1.64815: L2-Pf-HR :0.88617: L2-HR :0.85911: (Sim:0h23m43s) 
CPU  0 inst:  335000003 cyc:  202997578 now IPC :1.71943: AVG IPC :1.64836: L2-Pf-HR :0.88625: L2-HR :0.85918: (Sim:0h23m46s) 
CPU  0 inst:  336000000 cyc:  203666253 now IPC :1.49549: AVG IPC :1.64786: L2-Pf-HR :0.88627: L2-HR :0.85920: (Sim:0h23m49s) 
CPU  0 inst:  337000002 cyc:  204248063 now IPC :1.71878: AVG IPC :1.64806: L2-Pf-HR :0.88630: L2-HR :0.85923: (Sim:0h23m52s) 
CPU  0 inst:  338000002 cyc:  204828355 now IPC :1.72327: AVG IPC :1.64827: L2-Pf-HR :0.88634: L2-HR :0.85926: (Sim:0h23m55s) 
CPU  0 inst:  339000002 cyc:  205409465 now IPC :1.72084: AVG IPC :1.64848: L2-Pf-HR :0.88638: L2-HR :0.85930: (Sim:0h23m58s) 
CPU  0 inst:  340000000 cyc:  206066887 now IPC :1.52109: AVG IPC :1.64807: L2-Pf-HR :0.88642: L2-HR :0.85935: (Sim:0h24m1s) 
CPU  0 inst:  341000003 cyc:  206786186 now IPC :1.39025: AVG IPC :1.64717: L2-Pf-HR :0.88637: L2-HR :0.85929: (Sim:0h24m5s) 
CPU  0 inst:  342000002 cyc:  207381847 now IPC :1.67881: AVG IPC :1.64726: L2-Pf-HR :0.88635: L2-HR :0.85927: (Sim:0h24m8s) 
CPU  0 inst:  343000003 cyc:  207974104 now IPC :1.68846: AVG IPC :1.64738: L2-Pf-HR :0.88634: L2-HR :0.85926: (Sim:0h24m10s) 
CPU  0 inst:  344000000 cyc:  208568931 now IPC :1.68116: AVG IPC :1.64748: L2-Pf-HR :0.88631: L2-HR :0.85924: (Sim:0h24m13s) 
CPU  0 inst:  345000003 cyc:  209160558 now IPC :1.69026: AVG IPC :1.64760: L2-Pf-HR :0.88629: L2-HR :0.85922: (Sim:0h24m16s) 
CPU  0 inst:  346000001 cyc:  209752142 now IPC :1.69037: AVG IPC :1.64772: L2-Pf-HR :0.88629: L2-HR :0.85921: (Sim:0h24m19s) 
CPU  0 inst:  347000002 cyc:  210338477 now IPC :1.70551: AVG IPC :1.64788: L2-Pf-HR :0.88628: L2-HR :0.85921: (Sim:0h24m22s) 
CPU  0 inst:  348000000 cyc:  211100276 now IPC :1.31268: AVG IPC :1.64667: L2-Pf-HR :0.88632: L2-HR :0.85924: (Sim:0h24m25s) 
CPU  0 inst:  349000000 cyc:  211690903 now IPC :1.69312: AVG IPC :1.64680: L2-Pf-HR :0.88632: L2-HR :0.85924: (Sim:0h24m28s) 
CPU  0 inst:  350000001 cyc:  212274623 now IPC :1.71315: AVG IPC :1.64698: L2-Pf-HR :0.88631: L2-HR :0.85923: (Sim:0h24m31s) 
CPU  0 inst:  351000003 cyc:  212854794 now IPC :1.72363: AVG IPC :1.64719: L2-Pf-HR :0.88630: L2-HR :0.85922: (Sim:0h24m34s) 
CPU  0 inst:  352000000 cyc:  213436505 now IPC :1.71906: AVG IPC :1.64739: L2-Pf-HR :0.88630: L2-HR :0.85923: (Sim:0h24m37s) 
CPU  0 inst:  353000001 cyc:  214021344 now IPC :1.70987: AVG IPC :1.64756: L2-Pf-HR :0.88630: L2-HR :0.85923: (Sim:0h24m40s) 
CPU  0 inst:  354000001 cyc:  214603664 now IPC :1.71727: AVG IPC :1.64775: L2-Pf-HR :0.88630: L2-HR :0.85923: (Sim:0h24m43s) 
CPU  0 inst:  355000001 cyc:  215192957 now IPC :1.69695: AVG IPC :1.64788: L2-Pf-HR :0.88637: L2-HR :0.85929: (Sim:0h24m46s) 
CPU  0 inst:  356000000 cyc:  215859390 now IPC :1.50052: AVG IPC :1.64743: L2-Pf-HR :0.88639: L2-HR :0.85931: (Sim:0h24m50s) 
CPU  0 inst:  357000003 cyc:  216443018 now IPC :1.71343: AVG IPC :1.64760: L2-Pf-HR :0.88642: L2-HR :0.85934: (Sim:0h24m55s) 
CPU  0 inst:  358000001 cyc:  217023103 now IPC :1.72388: AVG IPC :1.64781: L2-Pf-HR :0.88645: L2-HR :0.85936: (Sim:0h24m59s) 
CPU  0 inst:  359000001 cyc:  217604698 now IPC :1.71941: AVG IPC :1.64800: L2-Pf-HR :0.88648: L2-HR :0.85939: (Sim:0h25m4s) 
CPU  0 inst:  360000000 cyc:  218279099 now IPC :1.48280: AVG IPC :1.64749: L2-Pf-HR :0.88652: L2-HR :0.85943: (Sim:0h25m9s) 
CPU  0 inst:  361000002 cyc:  218979492 now IPC :1.42777: AVG IPC :1.64678: L2-Pf-HR :0.88648: L2-HR :0.85939: (Sim:0h25m13s) 
CPU  0 inst:  362000001 cyc:  219580147 now IPC :1.66485: AVG IPC :1.64683: L2-Pf-HR :0.88646: L2-HR :0.85937: (Sim:0h25m18s) 
CPU  0 inst:  363000002 cyc:  220169776 now IPC :1.69598: AVG IPC :1.64696: L2-Pf-HR :0.88644: L2-HR :0.85935: (Sim:0h25m22s) 
CPU  0 inst:  364000000 cyc:  220760303 now IPC :1.69340: AVG IPC :1.64709: L2-Pf-HR :0.88642: L2-HR :0.85934: (Sim:0h25m27s) 
CPU  0 inst:  365000001 cyc:  221354927 now IPC :1.68174: AVG IPC :1.64718: L2-Pf-HR :0.88641: L2-HR :0.85933: (Sim:0h25m32s) 
CPU  0 inst:  366000000 cyc:  221949330 now IPC :1.68236: AVG IPC :1.64728: L2-Pf-HR :0.88639: L2-HR :0.85930: (Sim:0h25m35s) 
CPU  0 inst:  367000001 cyc:  222537324 now IPC :1.70070: AVG IPC :1.64742: L2-Pf-HR :0.88639: L2-HR :0.85930: (Sim:0h25m38s) 
CPU  0 inst:  368000000 cyc:  223299244 now IPC :1.31247: AVG IPC :1.64627: L2-Pf-HR :0.88643: L2-HR :0.85934: (Sim:0h25m41s) 
CPU  0 inst:  369000003 cyc:  223885265 now IPC :1.70643: AVG IPC :1.64643: L2-Pf-HR :0.88642: L2-HR :0.85933: (Sim:0h25m44s) 
CPU  0 inst:  370000000 cyc:  224466346 now IPC :1.72093: AVG IPC :1.64662: L2-Pf-HR :0.88640: L2-HR :0.85931: (Sim:0h25m48s) 
CPU  0 inst:  371000003 cyc:  225042334 now IPC :1.73615: AVG IPC :1.64685: L2-Pf-HR :0.88639: L2-HR :0.85931: (Sim:0h25m51s) 
CPU  0 inst:  372000000 cyc:  225621561 now IPC :1.72643: AVG IPC :1.64706: L2-Pf-HR :0.88638: L2-HR :0.85930: (Sim:0h25m53s) 
CPU  0 inst:  373000003 cyc:  226204267 now IPC :1.71614: AVG IPC :1.64724: L2-Pf-HR :0.88638: L2-HR :0.85930: (Sim:0h25m56s) 
CPU  0 inst:  374000001 cyc:  226785460 now IPC :1.72060: AVG IPC :1.64743: L2-Pf-HR :0.88637: L2-HR :0.85929: (Sim:0h25m59s) 
CPU  0 inst:  375000003 cyc:  227372980 now IPC :1.70207: AVG IPC :1.64757: L2-Pf-HR :0.88643: L2-HR :0.85935: (Sim:0h26m2s) 
CPU  0 inst:  376000000 cyc:  228031126 now IPC :1.51942: AVG IPC :1.64720: L2-Pf-HR :0.88645: L2-HR :0.85937: (Sim:0h26m5s) 
CPU  0 inst:  377000003 cyc:  228615068 now IPC :1.71250: AVG IPC :1.64736: L2-Pf-HR :0.88648: L2-HR :0.85939: (Sim:0h26m8s) 
CPU  0 inst:  378000002 cyc:  229196807 now IPC :1.71898: AVG IPC :1.64755: L2-Pf-HR :0.88651: L2-HR :0.85942: (Sim:0h26m11s) 
CPU  0 inst:  379000000 cyc:  229781389 now IPC :1.71062: AVG IPC :1.64771: L2-Pf-HR :0.88653: L2-HR :0.85944: (Sim:0h26m14s) 
CPU  0 inst:  380000000 cyc:  230462753 now IPC :1.46764: AVG IPC :1.64717: L2-Pf-HR :0.88655: L2-HR :0.85946: (Sim:0h26m18s) 
CPU  0 inst:  381000002 cyc:  231148422 now IPC :1.45843: AVG IPC :1.64661: L2-Pf-HR :0.88653: L2-HR :0.85944: (Sim:0h26m21s) 
CPU  0 inst:  382000001 cyc:  231750119 now IPC :1.66196: AVG IPC :1.64665: L2-Pf-HR :0.88651: L2-HR :0.85943: (Sim:0h26m24s) 
CPU  0 inst:  383000002 cyc:  232339465 now IPC :1.69680: AVG IPC :1.64678: L2-Pf-HR :0.88650: L2-HR :0.85941: (Sim:0h26m27s) 
CPU  0 inst:  384000000 cyc:  232927931 now IPC :1.69933: AVG IPC :1.64691: L2-Pf-HR :0.88649: L2-HR :0.85940: (Sim:0h26m30s) 
CPU  0 inst:  385000000 cyc:  233526287 now IPC :1.67125: AVG IPC :1.64697: L2-Pf-HR :0.88648: L2-HR :0.85939: (Sim:0h26m33s) 
CPU  0 inst:  386000001 cyc:  234114749 now IPC :1.69935: AVG IPC :1.64711: L2-Pf-HR :0.88646: L2-HR :0.85938: (Sim:0h26m36s) 
CPU  0 inst:  387000003 cyc:  234703247 now IPC :1.69924: AVG IPC :1.64724: L2-Pf-HR :0.88647: L2-HR :0.85938: (Sim:0h26m39s) 
CPU  0 inst:  388000000 cyc:  235473345 now IPC :1.29853: AVG IPC :1.64609: L2-Pf-HR :0.88651: L2-HR :0.85942: (Sim:0h26m42s) 
CPU  0 inst:  389000003 cyc:  236059677 now IPC :1.70552: AVG IPC :1.64624: L2-Pf-HR :0.88651: L2-HR :0.85942: (Sim:0h26m45s) 
CPU  0 inst:  390000000 cyc:  236636084 now IPC :1.73488: AVG IPC :1.64646: L2-Pf-HR :0.88651: L2-HR :0.85941: (Sim:0h26m48s) 
CPU  0 inst:  391000000 cyc:  237215125 now IPC :1.72699: AVG IPC :1.64665: L2-Pf-HR :0.88651: L2-HR :0.85942: (Sim:0h26m51s) 
CPU  0 inst:  392000000 cyc:  237794340 now IPC :1.72647: AVG IPC :1.64685: L2-Pf-HR :0.88651: L2-HR :0.85942: (Sim:0h26m54s) 
CPU  0 inst:  393000000 cyc:  238371403 now IPC :1.73291: AVG IPC :1.64706: L2-Pf-HR :0.88652: L2-HR :0.85943: (Sim:0h26m57s) 
CPU  0 inst:  394000002 cyc:  238951406 now IPC :1.72413: AVG IPC :1.64725: L2-Pf-HR :0.88651: L2-HR :0.85943: (Sim:0h26m59s) 
CPU  0 inst:  395000001 cyc:  239550603 now IPC :1.66890: AVG IPC :1.64730: L2-Pf-HR :0.88657: L2-HR :0.85948: (Sim:0h27m3s) 
CPU  0 inst:  396000000 cyc:  240200050 now IPC :1.53977: AVG IPC :1.64701: L2-Pf-HR :0.88659: L2-HR :0.85950: (Sim:0h27m6s) 
CPU  0 inst:  397000003 cyc:  240778754 now IPC :1.72800: AVG IPC :1.64721: L2-Pf-HR :0.88662: L2-HR :0.85952: (Sim:0h27m8s) 
CPU  0 inst:  398000001 cyc:  241359393 now IPC :1.72224: AVG IPC :1.64739: L2-Pf-HR :0.88664: L2-HR :0.85954: (Sim:0h27m11s) 
CPU  0 inst:  399000000 cyc:  241938942 now IPC :1.72548: AVG IPC :1.64757: L2-Pf-HR :0.88666: L2-HR :0.85956: (Sim:0h27m14s) 
CPU  0 inst:  400000000 cyc:  242629633 now IPC :1.44783: AVG IPC :1.64700: L2-Pf-HR :0.88668: L2-HR :0.85957: (Sim:0h27m17s) 
CPU  0 inst:  401000003 cyc:  243312335 now IPC :1.46477: AVG IPC :1.64649: L2-Pf-HR :0.88666: L2-HR :0.85955: (Sim:0h27m21s) 
CPU  0 inst:  402000001 cyc:  243910808 now IPC :1.67092: AVG IPC :1.64655: L2-Pf-HR :0.88664: L2-HR :0.85954: (Sim:0h27m24s) 
CPU  0 inst:  403000001 cyc:  244507221 now IPC :1.67669: AVG IPC :1.64662: L2-Pf-HR :0.88663: L2-HR :0.85952: (Sim:0h27m28s) 
CPU  0 inst:  404000000 cyc:  245093258 now IPC :1.70638: AVG IPC :1.64677: L2-Pf-HR :0.88661: L2-HR :0.85951: (Sim:0h27m31s) 
CPU  0 inst:  405000002 cyc:  245686220 now IPC :1.68645: AVG IPC :1.64686: L2-Pf-HR :0.88660: L2-HR :0.85950: (Sim:0h27m34s) 
CPU  0 inst:  406000000 cyc:  246274123 now IPC :1.70096: AVG IPC :1.64699: L2-Pf-HR :0.88658: L2-HR :0.85948: (Sim:0h27m37s) 
CPU  0 inst:  407000002 cyc:  246858942 now IPC :1.70993: AVG IPC :1.64714: L2-Pf-HR :0.88658: L2-HR :0.85948: (Sim:0h27m40s) 
CPU  0 inst:  408000000 cyc:  247629255 now IPC :1.29817: AVG IPC :1.64605: L2-Pf-HR :0.88662: L2-HR :0.85951: (Sim:0h27m45s) 
CPU  0 inst:  409000000 cyc:  248222475 now IPC :1.68572: AVG IPC :1.64615: L2-Pf-HR :0.88662: L2-HR :0.85951: (Sim:0h27m49s) 
CPU  0 inst:  410000001 cyc:  248802357 now IPC :1.72449: AVG IPC :1.64633: L2-Pf-HR :0.88660: L2-HR :0.85950: (Sim:0h27m54s) 
CPU  0 inst:  411000000 cyc:  249386301 now IPC :1.71249: AVG IPC :1.64649: L2-Pf-HR :0.88660: L2-HR :0.85950: (Sim:0h27m58s) 
CPU  0 inst:  412000000 cyc:  249974120 now IPC :1.70120: AVG IPC :1.64662: L2-Pf-HR :0.88661: L2-HR :0.85951: (Sim:0h28m3s) 
CPU  0 inst:  413000003 cyc:  250558634 now IPC :1.71083: AVG IPC :1.64677: L2-Pf-HR :0.88661: L2-HR :0.85951: (Sim:0h28m7s) 
CPU  0 inst:  414000002 cyc:  251140716 now IPC :1.71797: AVG IPC :1.64693: L2-Pf-HR :0.88660: L2-HR :0.85950: (Sim:0h28m12s) 
CPU  0 inst:  415000001 cyc:  251755125 now IPC :1.62758: AVG IPC :1.64688: L2-Pf-HR :0.88665: L2-HR :0.85955: (Sim:0h28m16s) 
CPU  0 inst:  416000000 cyc:  252403348 now IPC :1.54268: AVG IPC :1.64662: L2-Pf-HR :0.88667: L2-HR :0.85956: (Sim:0h28m21s) 
CPU  0 inst:  417000001 cyc:  252986408 now IPC :1.71509: AVG IPC :1.64677: L2-Pf-HR :0.88669: L2-HR :0.85959: (Sim:0h28m25s) 
CPU  0 inst:  418000003 cyc:  253561648 now IPC :1.73841: AVG IPC :1.64698: L2-Pf-HR :0.88670: L2-HR :0.85960: (Sim:0h28m29s) 
CPU  0 inst:  419000001 cyc:  254146913 now IPC :1.70862: AVG IPC :1.64713: L2-Pf-HR :0.88673: L2-HR :0.85963: (Sim:0h28m34s) 
CPU  0 inst:  420000000 cyc:  254848752 now IPC :1.42483: AVG IPC :1.64651: L2-Pf-HR :0.88675: L2-HR :0.85964: (Sim:0h28m39s) 
CPU  0 inst:  421000002 cyc:  255524838 now IPC :1.47910: AVG IPC :1.64607: L2-Pf-HR :0.88674: L2-HR :0.85962: (Sim:0h28m43s) 
CPU  0 inst:  422000003 cyc:  256117126 now IPC :1.68837: AVG IPC :1.64616: L2-Pf-HR :0.88672: L2-HR :0.85961: (Sim:0h28m48s) 
CPU  0 inst:  423000000 cyc:  256713208 now IPC :1.67762: AVG IPC :1.64624: L2-Pf-HR :0.88672: L2-HR :0.85961: (Sim:0h28m52s) 
CPU  0 inst:  424000000 cyc:  257304200 now IPC :1.69207: AVG IPC :1.64634: L2-Pf-HR :0.88671: L2-HR :0.85960: (Sim:0h28m57s) 
CPU  0 inst:  425000002 cyc:  257893776 now IPC :1.69614: AVG IPC :1.64646: L2-Pf-HR :0.88669: L2-HR :0.85959: (Sim:0h29m1s) 
CPU  0 inst:  426000000 cyc:  258486573 now IPC :1.68691: AVG IPC :1.64655: L2-Pf-HR :0.88669: L2-HR :0.85958: (Sim:0h29m6s) 
CPU  0 inst:  427000000 cyc:  259063752 now IPC :1.73256: AVG IPC :1.64674: L2-Pf-HR :0.88669: L2-HR :0.85958: (Sim:0h29m10s) 
CPU  0 inst:  428000000 cyc:  259827143 now IPC :1.30994: AVG IPC :1.64575: L2-Pf-HR :0.88672: L2-HR :0.85960: (Sim:0h29m15s) 
CPU  0 inst:  429000003 cyc:  260414224 now IPC :1.70335: AVG IPC :1.64588: L2-Pf-HR :0.88671: L2-HR :0.85960: (Sim:0h29m19s) 
CPU  0 inst:  430000000 cyc:  260991860 now IPC :1.73119: AVG IPC :1.64607: L2-Pf-HR :0.88671: L2-HR :0.85959: (Sim:0h29m24s) 
CPU  0 inst:  431000000 cyc:  261573372 now IPC :1.71965: AVG IPC :1.64623: L2-Pf-HR :0.88671: L2-HR :0.85960: (Sim:0h29m28s) 
CPU  0 inst:  432000000 cyc:  262151816 now IPC :1.72878: AVG IPC :1.64642: L2-Pf-HR :0.88671: L2-HR :0.85959: (Sim:0h29m33s) 
CPU  0 inst:  433000003 cyc:  262732573 now IPC :1.72190: AVG IPC :1.64658: L2-Pf-HR :0.88670: L2-HR :0.85959: (Sim:0h29m37s) 
CPU  0 inst:  434000002 cyc:  263310257 now IPC :1.73105: AVG IPC :1.64677: L2-Pf-HR :0.88671: L2-HR :0.85960: (Sim:0h29m42s) 
CPU  0 inst:  435000003 cyc:  263913837 now IPC :1.65678: AVG IPC :1.64679: L2-Pf-HR :0.88676: L2-HR :0.85964: (Sim:0h29m46s) 
CPU  0 inst:  436000000 cyc:  264549217 now IPC :1.57386: AVG IPC :1.64662: L2-Pf-HR :0.88677: L2-HR :0.85965: (Sim:0h29m51s) 
CPU  0 inst:  437000003 cyc:  265130923 now IPC :1.71909: AVG IPC :1.64678: L2-Pf-HR :0.88680: L2-HR :0.85968: (Sim:0h29m55s) 
CPU  0 inst:  438000001 cyc:  265715068 now IPC :1.71190: AVG IPC :1.64692: L2-Pf-HR :0.88682: L2-HR :0.85970: (Sim:0h30m0s) 
CPU  0 inst:  439000000 cyc:  266295504 now IPC :1.72284: AVG IPC :1.64709: L2-Pf-HR :0.88684: L2-HR :0.85972: (Sim:0h30m4s) 
CPU  0 inst:  440000000 cyc:  266998068 now IPC :1.42336: AVG IPC :1.64650: L2-Pf-HR :0.88685: L2-HR :0.85973: (Sim:0h30m9s) 
CPU  0 inst:  441000002 cyc:  267672499 now IPC :1.48273: AVG IPC :1.64608: L2-Pf-HR :0.88685: L2-HR :0.85972: (Sim:0h30m13s) 
CPU  0 inst:  442000002 cyc:  268274579 now IPC :1.66091: AVG IPC :1.64612: L2-Pf-HR :0.88684: L2-HR :0.85971: (Sim:0h30m18s) 
CPU  0 inst:  443000001 cyc:  268868524 now IPC :1.68366: AVG IPC :1.64620: L2-Pf-HR :0.88683: L2-HR :0.85970: (Sim:0h30m22s) 
CPU  0 inst:  444000000 cyc:  269467189 now IPC :1.67038: AVG IPC :1.64625: L2-Pf-HR :0.88682: L2-HR :0.85969: (Sim:0h30m27s) 
CPU  0 inst:  445000000 cyc:  270058343 now IPC :1.69161: AVG IPC :1.64635: L2-Pf-HR :0.88681: L2-HR :0.85969: (Sim:0h30m31s) 
CPU  0 inst:  446000000 cyc:  270647133 now IPC :1.69840: AVG IPC :1.64647: L2-Pf-HR :0.88680: L2-HR :0.85967: (Sim:0h30m36s) 
CPU  0 inst:  447000003 cyc:  271239266 now IPC :1.68881: AVG IPC :1.64656: L2-Pf-HR :0.88680: L2-HR :0.85967: (Sim:0h30m40s) 
CPU  0 inst:  448000000 cyc:  272004744 now IPC :1.30637: AVG IPC :1.64560: L2-Pf-HR :0.88683: L2-HR :0.85970: (Sim:0h30m45s) 
CPU  0 inst:  449000001 cyc:  272589237 now IPC :1.71089: AVG IPC :1.64574: L2-Pf-HR :0.88683: L2-HR :0.85970: (Sim:0h30m49s) 
CPU  0 inst:  450000002 cyc:  273172789 now IPC :1.71365: AVG IPC :1.64588: L2-Pf-HR :0.88682: L2-HR :0.85969: (Sim:0h30m54s) 
CPU  0 inst:  451000000 cyc:  273751930 now IPC :1.72669: AVG IPC :1.64606: L2-Pf-HR :0.88682: L2-HR :0.85969: (Sim:0h30m58s) 
CPU  0 inst:  452000000 cyc:  274333051 now IPC :1.72081: AVG IPC :1.64621: L2-Pf-HR :0.88682: L2-HR :0.85969: (Sim:0h31m2s) 
CPU  0 inst:  453000000 cyc:  274911701 now IPC :1.72816: AVG IPC :1.64639: L2-Pf-HR :0.88682: L2-HR :0.85970: (Sim:0h31m7s) 
CPU  0 inst:  454000001 cyc:  275489238 now IPC :1.73149: AVG IPC :1.64657: L2-Pf-HR :0.88682: L2-HR :0.85970: (Sim:0h31m11s) 
CPU  0 inst:  455000003 cyc:  276101973 now IPC :1.63203: AVG IPC :1.64653: L2-Pf-HR :0.88687: L2-HR :0.85974: (Sim:0h31m16s) 
CPU  0 inst:  456000000 cyc:  276738339 now IPC :1.57142: AVG IPC :1.64636: L2-Pf-HR :0.88689: L2-HR :0.85976: (Sim:0h31m21s) 
CPU  0 inst:  457000001 cyc:  277318053 now IPC :1.72499: AVG IPC :1.64653: L2-Pf-HR :0.88690: L2-HR :0.85977: (Sim:0h31m25s) 
CPU  0 inst:  458000000 cyc:  277898526 now IPC :1.72273: AVG IPC :1.64669: L2-Pf-HR :0.88692: L2-HR :0.85979: (Sim:0h31m29s) 
CPU  0 inst:  459000001 cyc:  278483577 now IPC :1.70925: AVG IPC :1.64682: L2-Pf-HR :0.88695: L2-HR :0.85981: (Sim:0h31m34s) 
CPU  0 inst:  460000000 cyc:  279188447 now IPC :1.41870: AVG IPC :1.64624: L2-Pf-HR :0.88696: L2-HR :0.85982: (Sim:0h31m39s) 
CPU  0 inst:  461000001 cyc:  279857530 now IPC :1.49458: AVG IPC :1.64588: L2-Pf-HR :0.88694: L2-HR :0.85980: (Sim:0h31m43s) 
CPU  0 inst:  462000001 cyc:  280459561 now IPC :1.66104: AVG IPC :1.64591: L2-Pf-HR :0.88693: L2-HR :0.85979: (Sim:0h31m48s) 
CPU  0 inst:  463000002 cyc:  281057224 now IPC :1.67319: AVG IPC :1.64597: L2-Pf-HR :0.88692: L2-HR :0.85978: (Sim:0h31m52s) 
CPU  0 inst:  464000000 cyc:  281645385 now IPC :1.70021: AVG IPC :1.64608: L2-Pf-HR :0.88690: L2-HR :0.85977: (Sim:0h31m57s) 
CPU  0 inst:  465000000 cyc:  282240820 now IPC :1.67944: AVG IPC :1.64615: L2-Pf-HR :0.88689: L2-HR :0.85976: (Sim:0h32m1s) 
CPU  0 inst:  466000002 cyc:  282828601 now IPC :1.70132: AVG IPC :1.64627: L2-Pf-HR :0.88687: L2-HR :0.85974: (Sim:0h32m6s) 
CPU  0 inst:  467000000 cyc:  283417610 now IPC :1.69776: AVG IPC :1.64637: L2-Pf-HR :0.88687: L2-HR :0.85974: (Sim:0h32m10s) 
CPU  0 inst:  468000000 cyc:  284186987 now IPC :1.29975: AVG IPC :1.64543: L2-Pf-HR :0.88690: L2-HR :0.85976: (Sim:0h32m15s) 
CPU  0 inst:  469000000 cyc:  284775286 now IPC :1.69982: AVG IPC :1.64554: L2-Pf-HR :0.88689: L2-HR :0.85975: (Sim:0h32m19s) 
CPU  0 inst:  470000002 cyc:  285358162 now IPC :1.71563: AVG IPC :1.64569: L2-Pf-HR :0.88688: L2-HR :0.85975: (Sim:0h32m24s) 
CPU  0 inst:  471000000 cyc:  285942628 now IPC :1.71096: AVG IPC :1.64582: L2-Pf-HR :0.88688: L2-HR :0.85975: (Sim:0h32m29s) 
CPU  0 inst:  472000000 cyc:  286522876 now IPC :1.72340: AVG IPC :1.64598: L2-Pf-HR :0.88688: L2-HR :0.85975: (Sim:0h32m33s) 
CPU  0 inst:  473000002 cyc:  287103654 now IPC :1.72183: AVG IPC :1.64613: L2-Pf-HR :0.88688: L2-HR :0.85975: (Sim:0h32m38s) 
CPU  0 inst:  474000001 cyc:  287688448 now IPC :1.71000: AVG IPC :1.64626: L2-Pf-HR :0.88688: L2-HR :0.85975: (Sim:0h32m42s) 
CPU  0 inst:  475000002 cyc:  288320575 now IPC :1.58196: AVG IPC :1.64612: L2-Pf-HR :0.88692: L2-HR :0.85979: (Sim:0h32m47s) 
CPU  0 inst:  476000000 cyc:  288958908 now IPC :1.56658: AVG IPC :1.64595: L2-Pf-HR :0.88694: L2-HR :0.85980: (Sim:0h32m52s) 
CPU  0 inst:  477000002 cyc:  289542219 now IPC :1.71435: AVG IPC :1.64608: L2-Pf-HR :0.88695: L2-HR :0.85982: (Sim:0h32m56s) 
CPU  0 inst:  478000003 cyc:  290124874 now IPC :1.71628: AVG IPC :1.64623: L2-Pf-HR :0.88697: L2-HR :0.85983: (Sim:0h33m1s) 
CPU  0 inst:  479000001 cyc:  290704078 now IPC :1.72650: AVG IPC :1.64639: L2-Pf-HR :0.88698: L2-HR :0.85985: (Sim:0h33m5s) 
CPU  0 inst:  480000000 cyc:  291409997 now IPC :1.41659: AVG IPC :1.64583: L2-Pf-HR :0.88700: L2-HR :0.85986: (Sim:0h33m10s) 
CPU  0 inst:  481000002 cyc:  292078548 now IPC :1.49578: AVG IPC :1.64548: L2-Pf-HR :0.88699: L2-HR :0.85984: (Sim:0h33m14s) 
CPU  0 inst:  482000003 cyc:  292677284 now IPC :1.67019: AVG IPC :1.64553: L2-Pf-HR :0.88698: L2-HR :0.85983: (Sim:0h33m19s) 
CPU  0 inst:  483000003 cyc:  293276978 now IPC :1.66752: AVG IPC :1.64558: L2-Pf-HR :0.88697: L2-HR :0.85983: (Sim:0h33m22s) 
CPU  0 inst:  484000000 cyc:  293864336 now IPC :1.70253: AVG IPC :1.64569: L2-Pf-HR :0.88695: L2-HR :0.85981: (Sim:0h33m26s) 
CPU  0 inst:  485000001 cyc:  294455255 now IPC :1.69228: AVG IPC :1.64579: L2-Pf-HR :0.88695: L2-HR :0.85981: (Sim:0h33m30s) 
CPU  0 inst:  486000000 cyc:  295053716 now IPC :1.67095: AVG IPC :1.64584: L2-Pf-HR :0.88693: L2-HR :0.85980: (Sim:0h33m33s) 
CPU  0 inst:  487000001 cyc:  295642560 now IPC :1.69824: AVG IPC :1.64594: L2-Pf-HR :0.88694: L2-HR :0.85980: (Sim:0h33m36s) 
CPU  0 inst:  488000000 cyc:  296409000 now IPC :1.30473: AVG IPC :1.64506: L2-Pf-HR :0.88696: L2-HR :0.85982: (Sim:0h33m39s) 
CPU  0 inst:  489000000 cyc:  296997552 now IPC :1.69909: AVG IPC :1.64516: L2-Pf-HR :0.88697: L2-HR :0.85982: (Sim:0h33m42s) 
CPU  0 inst:  490000001 cyc:  297578179 now IPC :1.72228: AVG IPC :1.64532: L2-Pf-HR :0.88696: L2-HR :0.85981: (Sim:0h33m45s) 
CPU  0 inst:  491000003 cyc:  298155594 now IPC :1.73186: AVG IPC :1.64548: L2-Pf-HR :0.88696: L2-HR :0.85982: (Sim:0h33m50s) 
CPU  0 inst:  492000000 cyc:  298734773 now IPC :1.72658: AVG IPC :1.64564: L2-Pf-HR :0.88695: L2-HR :0.85981: (Sim:0h33m54s) 
CPU  0 inst:  493000001 cyc:  299313033 now IPC :1.72933: AVG IPC :1.64580: L2-Pf-HR :0.88695: L2-HR :0.85981: (Sim:0h33m59s) 
CPU  0 inst:  494000000 cyc:  299891153 now IPC :1.72974: AVG IPC :1.64597: L2-Pf-HR :0.88695: L2-HR :0.85981: (Sim:0h34m3s) 
CPU  0 inst:  495000000 cyc:  300504847 now IPC :1.62948: AVG IPC :1.64593: L2-Pf-HR :0.88699: L2-HR :0.85985: (Sim:0h34m7s) 
CPU  0 inst:  496000000 cyc:  301133125 now IPC :1.59165: AVG IPC :1.64582: L2-Pf-HR :0.88701: L2-HR :0.85986: (Sim:0h34m12s) 
CPU  0 inst:  497000003 cyc:  301716913 now IPC :1.71296: AVG IPC :1.64595: L2-Pf-HR :0.88703: L2-HR :0.85988: (Sim:0h34m17s) 
CPU  0 inst:  498000001 cyc:  302298061 now IPC :1.72073: AVG IPC :1.64609: L2-Pf-HR :0.88704: L2-HR :0.85990: (Sim:0h34m21s) 
CPU  0 inst:  499000000 cyc:  302874691 now IPC :1.73421: AVG IPC :1.64626: L2-Pf-HR :0.88705: L2-HR :0.85991: (Sim:0h34m26s) 
CPU  0 inst:  500000000 cyc:  303583217 now IPC :1.41138: AVG IPC :1.64571: L2-Pf-HR :0.88707: L2-HR :0.85993: (Sim:0h34m31s) 
CPU  0 inst:  501000000 cyc:  304253740 now IPC :1.49137: AVG IPC :1.64537: L2-Pf-HR :0.88705: L2-HR :0.85991: (Sim:0h34m35s) 
CPU  0 inst:  502000003 cyc:  304853585 now IPC :1.66710: AVG IPC :1.64541: L2-Pf-HR :0.88704: L2-HR :0.85989: (Sim:0h34m40s) 
CPU  0 inst:  503000001 cyc:  305453502 now IPC :1.66689: AVG IPC :1.64546: L2-Pf-HR :0.88703: L2-HR :0.85988: (Sim:0h34m44s) 
CPU  0 inst:  504000000 cyc:  306050801 now IPC :1.67420: AVG IPC :1.64551: L2-Pf-HR :0.88701: L2-HR :0.85987: (Sim:0h34m47s) 
CPU  0 inst:  505000000 cyc:  306642072 now IPC :1.69127: AVG IPC :1.64560: L2-Pf-HR :0.88700: L2-HR :0.85986: (Sim:0h34m51s) 
CPU  0 inst:  506000003 cyc:  307239522 now IPC :1.67379: AVG IPC :1.64566: L2-Pf-HR :0.88700: L2-HR :0.85985: (Sim:0h34m54s) 
CPU  0 inst:  507000001 cyc:  307830989 now IPC :1.69071: AVG IPC :1.64574: L2-Pf-HR :0.88700: L2-HR :0.85985: (Sim:0h34m57s) 
CPU  0 inst:  508000000 cyc:  308600105 now IPC :1.30019: AVG IPC :1.64488: L2-Pf-HR :0.88702: L2-HR :0.85987: (Sim:0h35m0s) 
CPU  0 inst:  509000001 cyc:  309183892 now IPC :1.71296: AVG IPC :1.64501: L2-Pf-HR :0.88701: L2-HR :0.85986: (Sim:0h35m3s) 
CPU  0 inst:  510000003 cyc:  309765124 now IPC :1.72049: AVG IPC :1.64515: L2-Pf-HR :0.88701: L2-HR :0.85986: (Sim:0h35m6s) 
CPU  0 inst:  511000000 cyc:  310342273 now IPC :1.73265: AVG IPC :1.64531: L2-Pf-HR :0.88701: L2-HR :0.85986: (Sim:0h35m10s) 
CPU  0 inst:  512000000 cyc:  310924361 now IPC :1.71795: AVG IPC :1.64545: L2-Pf-HR :0.88700: L2-HR :0.85986: (Sim:0h35m13s) 
CPU  0 inst:  513000001 cyc:  311503322 now IPC :1.72723: AVG IPC :1.64560: L2-Pf-HR :0.88701: L2-HR :0.85986: (Sim:0h35m16s) 
CPU  0 inst:  514000002 cyc:  312081179 now IPC :1.73053: AVG IPC :1.64576: L2-Pf-HR :0.88701: L2-HR :0.85987: (Sim:0h35m19s) 
CPU  0 inst:  515000000 cyc:  312704857 now IPC :1.60339: AVG IPC :1.64567: L2-Pf-HR :0.88705: L2-HR :0.85990: (Sim:0h35m22s) 
CPU  0 inst:  516000000 cyc:  313330869 now IPC :1.59741: AVG IPC :1.64558: L2-Pf-HR :0.88706: L2-HR :0.85992: (Sim:0h35m25s) 
CPU  0 inst:  517000003 cyc:  313908835 now IPC :1.73021: AVG IPC :1.64573: L2-Pf-HR :0.88707: L2-HR :0.85992: (Sim:0h35m28s) 
CPU  0 inst:  518000000 cyc:  314490358 now IPC :1.71962: AVG IPC :1.64587: L2-Pf-HR :0.88709: L2-HR :0.85995: (Sim:0h35m31s) 
CPU  0 inst:  519000000 cyc:  315072649 now IPC :1.71735: AVG IPC :1.64600: L2-Pf-HR :0.88711: L2-HR :0.85996: (Sim:0h35m34s) 
CPU  0 inst:  520000000 cyc:  315785689 now IPC :1.40245: AVG IPC :1.64545: L2-Pf-HR :0.88712: L2-HR :0.85996: (Sim:0h35m38s) 
CPU  0 inst:  521000000 cyc:  316448318 now IPC :1.50914: AVG IPC :1.64517: L2-Pf-HR :0.88710: L2-HR :0.85995: (Sim:0h35m41s) 
CPU  0 inst:  522000000 cyc:  317043867 now IPC :1.67912: AVG IPC :1.64523: L2-Pf-HR :0.88709: L2-HR :0.85994: (Sim:0h35m46s) 
CPU  0 inst:  523000001 cyc:  317637435 now IPC :1.68473: AVG IPC :1.64530: L2-Pf-HR :0.88708: L2-HR :0.85993: (Sim:0h35m50s) 
CPU  0 inst:  524000000 cyc:  318232041 now IPC :1.68178: AVG IPC :1.64537: L2-Pf-HR :0.88706: L2-HR :0.85991: (Sim:0h35m55s) 
CPU  0 inst:  525000002 cyc:  318821101 now IPC :1.69762: AVG IPC :1.64547: L2-Pf-HR :0.88706: L2-HR :0.85991: (Sim:0h35m59s) 
CPU  0 inst:  526000003 cyc:  319411329 now IPC :1.69426: AVG IPC :1.64556: L2-Pf-HR :0.88705: L2-HR :0.85990: (Sim:0h36m4s) 
CPU  0 inst:  527000000 cyc:  319999557 now IPC :1.70002: AVG IPC :1.64566: L2-Pf-HR :0.88705: L2-HR :0.85990: (Sim:0h36m8s) 
CPU  0 inst:  528000000 cyc:  320768549 now IPC :1.30040: AVG IPC :1.64483: L2-Pf-HR :0.88708: L2-HR :0.85992: (Sim:0h36m13s) 
CPU  0 inst:  529000001 cyc:  321354329 now IPC :1.70713: AVG IPC :1.64494: L2-Pf-HR :0.88707: L2-HR :0.85991: (Sim:0h36m18s) 
CPU  0 inst:  530000000 cyc:  321932453 now IPC :1.72973: AVG IPC :1.64510: L2-Pf-HR :0.88705: L2-HR :0.85990: (Sim:0h36m22s) 
CPU  0 inst:  531000002 cyc:  322510138 now IPC :1.73105: AVG IPC :1.64525: L2-Pf-HR :0.88705: L2-HR :0.85990: (Sim:0h36m27s) 
CPU  0 inst:  532000000 cyc:  323092185 now IPC :1.71807: AVG IPC :1.64538: L2-Pf-HR :0.88704: L2-HR :0.85990: (Sim:0h36m31s) 
CPU  0 inst:  533000000 cyc:  323674684 now IPC :1.71674: AVG IPC :1.64551: L2-Pf-HR :0.88704: L2-HR :0.85990: (Sim:0h36m36s) 
CPU  0 inst:  534000001 cyc:  324253936 now IPC :1.72637: AVG IPC :1.64566: L2-Pf-HR :0.88704: L2-HR :0.85989: (Sim:0h36m40s) 
CPU  0 inst:  535000001 cyc:  324879089 now IPC :1.59961: AVG IPC :1.64557: L2-Pf-HR :0.88707: L2-HR :0.85993: (Sim:0h36m45s) 
CPU  0 inst:  536000000 cyc:  325506772 now IPC :1.59316: AVG IPC :1.64547: L2-Pf-HR :0.88709: L2-HR :0.85994: (Sim:0h36m49s) 
CPU  0 inst:  537000000 cyc:  326087744 now IPC :1.72125: AVG IPC :1.64560: L2-Pf-HR :0.88710: L2-HR :0.85995: (Sim:0h36m54s) 
CPU  0 inst:  538000002 cyc:  326666048 now IPC :1.72920: AVG IPC :1.64575: L2-Pf-HR :0.88712: L2-HR :0.85997: (Sim:0h36m58s) 
CPU  0 inst:  539000003 cyc:  327246016 now IPC :1.72423: AVG IPC :1.64589: L2-Pf-HR :0.88713: L2-HR :0.85999: (Sim:0h37m3s) 
CPU  0 inst:  540000000 cyc:  327962842 now IPC :1.39503: AVG IPC :1.64534: L2-Pf-HR :0.88714: L2-HR :0.85999: (Sim:0h37m7s) 
CPU  0 inst:  541000000 cyc:  328625136 now IPC :1.50990: AVG IPC :1.64507: L2-Pf-HR :0.88713: L2-HR :0.85998: (Sim:0h37m12s) 
CPU  0 inst:  542000003 cyc:  329220523 now IPC :1.67958: AVG IPC :1.64513: L2-Pf-HR :0.88712: L2-HR :0.85996: (Sim:0h37m16s) 
CPU  0 inst:  543000003 cyc:  329819645 now IPC :1.66911: AVG IPC :1.64517: L2-Pf-HR :0.88711: L2-HR :0.85995: (Sim:0h37m21s) 
CPU  0 inst:  544000000 cyc:  330413886 now IPC :1.68281: AVG IPC :1.64524: L2-Pf-HR :0.88709: L2-HR :0.85994: (Sim:0h37m25s) 
CPU  0 inst:  545000002 cyc:  331005103 now IPC :1.69143: AVG IPC :1.64532: L2-Pf-HR :0.88709: L2-HR :0.85994: (Sim:0h37m30s) 
CPU  0 inst:  546000002 cyc:  331602745 now IPC :1.67324: AVG IPC :1.64537: L2-Pf-HR :0.88708: L2-HR :0.85993: (Sim:0h37m34s) 
CPU  0 inst:  547000002 cyc:  332193750 now IPC :1.69203: AVG IPC :1.64546: L2-Pf-HR :0.88708: L2-HR :0.85993: (Sim:0h37m39s) 
CPU  0 inst:  548000000 cyc:  332960960 now IPC :1.30342: AVG IPC :1.64467: L2-Pf-HR :0.88711: L2-HR :0.85995: (Sim:0h37m43s) 
CPU  0 inst:  549000003 cyc:  333545126 now IPC :1.71185: AVG IPC :1.64478: L2-Pf-HR :0.88711: L2-HR :0.85995: (Sim:0h37m48s) 
CPU  0 inst:  550000001 cyc:  334124817 now IPC :1.72505: AVG IPC :1.64492: L2-Pf-HR :0.88710: L2-HR :0.85995: (Sim:0h37m52s) 
CPU  0 inst:  551000002 cyc:  334702513 now IPC :1.73102: AVG IPC :1.64507: L2-Pf-HR :0.88710: L2-HR :0.85995: (Sim:0h37m55s) 
CPU  0 inst:  552000000 cyc:  335279438 now IPC :1.73332: AVG IPC :1.64522: L2-Pf-HR :0.88710: L2-HR :0.85995: (Sim:0h37m58s) 
CPU  0 inst:  553000001 cyc:  335857328 now IPC :1.73043: AVG IPC :1.64537: L2-Pf-HR :0.88710: L2-HR :0.85995: (Sim:0h38m1s) 
CPU  0 inst:  554000003 cyc:  336438283 now IPC :1.72131: AVG IPC :1.64550: L2-Pf-HR :0.88710: L2-HR :0.85995: (Sim:0h38m4s) 
CPU  0 inst:  555000000 cyc:  337063909 now IPC :1.59839: AVG IPC :1.64542: L2-Pf-HR :0.88714: L2-HR :0.85998: (Sim:0h38m7s) 
CPU  0 inst:  556000000 cyc:  337678709 now IPC :1.62655: AVG IPC :1.64538: L2-Pf-HR :0.88715: L2-HR :0.85999: (Sim:0h38m10s) 
CPU  0 inst:  557000003 cyc:  338259686 now IPC :1.72124: AVG IPC :1.64551: L2-Pf-HR :0.88716: L2-HR :0.86000: (Sim:0h38m14s) 
CPU  0 inst:  558000001 cyc:  338836761 now IPC :1.73287: AVG IPC :1.64566: L2-Pf-HR :0.88716: L2-HR :0.86001: (Sim:0h38m17s) 
CPU  0 inst:  559000003 cyc:  339414027 now IPC :1.73231: AVG IPC :1.64581: L2-Pf-HR :0.88718: L2-HR :0.86003: (Sim:0h38m19s) 
CPU  0 inst:  560000000 cyc:  340131309 now IPC :1.39415: AVG IPC :1.64528: L2-Pf-HR :0.88719: L2-HR :0.86004: (Sim:0h38m23s) 
CPU  0 inst:  561000002 cyc:  340786818 now IPC :1.52554: AVG IPC :1.64505: L2-Pf-HR :0.88718: L2-HR :0.86003: (Sim:0h38m26s) 
CPU  0 inst:  562000002 cyc:  341384112 now IPC :1.67422: AVG IPC :1.64510: L2-Pf-HR :0.88717: L2-HR :0.86001: (Sim:0h38m29s) 
CPU  0 inst:  563000003 cyc:  341974303 now IPC :1.69437: AVG IPC :1.64518: L2-Pf-HR :0.88717: L2-HR :0.86001: (Sim:0h38m32s) 
CPU  0 inst:  564000000 cyc:  342566082 now IPC :1.68981: AVG IPC :1.64526: L2-Pf-HR :0.88715: L2-HR :0.86000: (Sim:0h38m35s) 
CPU  0 inst:  565000003 cyc:  343157793 now IPC :1.69002: AVG IPC :1.64534: L2-Pf-HR :0.88715: L2-HR :0.85999: (Sim:0h38m39s) 
CPU  0 inst:  566000003 cyc:  343747204 now IPC :1.69661: AVG IPC :1.64542: L2-Pf-HR :0.88714: L2-HR :0.85999: (Sim:0h38m43s) 
CPU  0 inst:  567000001 cyc:  344335572 now IPC :1.69961: AVG IPC :1.64552: L2-Pf-HR :0.88714: L2-HR :0.85998: (Sim:0h38m48s) 
CPU  0 inst:  568000000 cyc:  345109222 now IPC :1.29257: AVG IPC :1.64472: L2-Pf-HR :0.88716: L2-HR :0.86000: (Sim:0h38m53s) 
CPU  0 inst:  569000000 cyc:  345697119 now IPC :1.70098: AVG IPC :1.64482: L2-Pf-HR :0.88716: L2-HR :0.86000: (Sim:0h38m57s) 
CPU  0 inst:  570000002 cyc:  346279928 now IPC :1.71583: AVG IPC :1.64494: L2-Pf-HR :0.88715: L2-HR :0.85999: (Sim:0h39m2s) 
CPU  0 inst:  571000002 cyc:  346863288 now IPC :1.71421: AVG IPC :1.64506: L2-Pf-HR :0.88715: L2-HR :0.85999: (Sim:0h39m6s) 
CPU  0 inst:  572000000 cyc:  347446844 now IPC :1.71363: AVG IPC :1.64517: L2-Pf-HR :0.88715: L2-HR :0.85999: (Sim:0h39m11s) 
CPU  0 inst:  573000000 cyc:  348031325 now IPC :1.71092: AVG IPC :1.64528: L2-Pf-HR :0.88715: L2-HR :0.86000: (Sim:0h39m15s) 
CPU  0 inst:  574000000 cyc:  348609861 now IPC :1.72850: AVG IPC :1.64542: L2-Pf-HR :0.88715: L2-HR :0.86000: (Sim:0h39m20s) 
CPU  0 inst:  575000002 cyc:  349249800 now IPC :1.56265: AVG IPC :1.64527: L2-Pf-HR :0.88719: L2-HR :0.86003: (Sim:0h39m24s) 
CPU  0 inst:  576000000 cyc:  349863883 now IPC :1.62844: AVG IPC :1.64524: L2-Pf-HR :0.88720: L2-HR :0.86004: (Sim:0h39m29s) 
CPU  0 inst:  577000003 cyc:  350438108 now IPC :1.74148: AVG IPC :1.64540: L2-Pf-HR :0.88721: L2-HR :0.86005: (Sim:0h39m33s) 
CPU  0 inst:  578000003 cyc:  351027028 now IPC :1.69802: AVG IPC :1.64549: L2-Pf-HR :0.88722: L2-HR :0.86007: (Sim:0h39m38s) 
CPU  0 inst:  579000003 cyc:  351613173 now IPC :1.70606: AVG IPC :1.64559: L2-Pf-HR :0.88723: L2-HR :0.86008: (Sim:0h39m42s) 
CPU  0 inst:  580000000 cyc:  352331564 now IPC :1.39200: AVG IPC :1.64507: L2-Pf-HR :0.88724: L2-HR :0.86008: (Sim:0h39m47s) 
CPU  0 inst:  581000001 cyc:  352986663 now IPC :1.52649: AVG IPC :1.64485: L2-Pf-HR :0.88723: L2-HR :0.86007: (Sim:0h39m51s) 
CPU  0 inst:  582000000 cyc:  353579828 now IPC :1.68587: AVG IPC :1.64492: L2-Pf-HR :0.88722: L2-HR :0.86006: (Sim:0h39m56s) 
CPU  0 inst:  583000000 cyc:  354177860 now IPC :1.67215: AVG IPC :1.64496: L2-Pf-HR :0.88721: L2-HR :0.86005: (Sim:0h40m1s) 
CPU  0 inst:  584000000 cyc:  354767329 now IPC :1.69644: AVG IPC :1.64505: L2-Pf-HR :0.88720: L2-HR :0.86004: (Sim:0h40m5s) 
CPU  0 inst:  585000003 cyc:  355351902 now IPC :1.71066: AVG IPC :1.64516: L2-Pf-HR :0.88719: L2-HR :0.86003: (Sim:0h40m10s) 
CPU  0 inst:  586000000 cyc:  355944445 now IPC :1.68764: AVG IPC :1.64523: L2-Pf-HR :0.88718: L2-HR :0.86002: (Sim:0h40m14s) 
CPU  0 inst:  587000000 cyc:  356530160 now IPC :1.70731: AVG IPC :1.64533: L2-Pf-HR :0.88718: L2-HR :0.86002: (Sim:0h40m19s) 
CPU  0 inst:  588000000 cyc:  357297781 now IPC :1.30273: AVG IPC :1.64459: L2-Pf-HR :0.88720: L2-HR :0.86004: (Sim:0h40m23s) 
CPU  0 inst:  589000003 cyc:  357882980 now IPC :1.70883: AVG IPC :1.64470: L2-Pf-HR :0.88720: L2-HR :0.86003: (Sim:0h40m28s) 
CPU  0 inst:  590000000 cyc:  358462542 now IPC :1.72544: AVG IPC :1.64483: L2-Pf-HR :0.88719: L2-HR :0.86003: (Sim:0h40m32s) 
CPU  0 inst:  591000000 cyc:  359043102 now IPC :1.72247: AVG IPC :1.64496: L2-Pf-HR :0.88719: L2-HR :0.86003: (Sim:0h40m37s) 
CPU  0 inst:  592000000 cyc:  359623140 now IPC :1.72403: AVG IPC :1.64508: L2-Pf-HR :0.88719: L2-HR :0.86003: (Sim:0h40m41s) 
CPU  0 inst:  593000002 cyc:  360203768 now IPC :1.72228: AVG IPC :1.64521: L2-Pf-HR :0.88719: L2-HR :0.86003: (Sim:0h40m46s) 
CPU  0 inst:  594000001 cyc:  360782130 now IPC :1.72902: AVG IPC :1.64534: L2-Pf-HR :0.88719: L2-HR :0.86003: (Sim:0h40m50s) 
CPU  0 inst:  595000001 cyc:  361417416 now IPC :1.57409: AVG IPC :1.64522: L2-Pf-HR :0.88722: L2-HR :0.86006: (Sim:0h40m55s) 
CPU  0 inst:  596000000 cyc:  362027047 now IPC :1.64033: AVG IPC :1.64521: L2-Pf-HR :0.88723: L2-HR :0.86007: (Sim:0h40m59s) 
CPU  0 inst:  597000000 cyc:  362607890 now IPC :1.72164: AVG IPC :1.64533: L2-Pf-HR :0.88724: L2-HR :0.86008: (Sim:0h41m4s) 
CPU  0 inst:  598000001 cyc:  363189488 now IPC :1.71940: AVG IPC :1.64545: L2-Pf-HR :0.88725: L2-HR :0.86009: (Sim:0h41m8s) 
CPU  0 inst:  599000000 cyc:  363770645 now IPC :1.72070: AVG IPC :1.64557: L2-Pf-HR :0.88726: L2-HR :0.86010: (Sim:0h41m13s) 
CPU  0 inst:  600000000 cyc:  364499665 now IPC :1.37170: AVG IPC :1.64502: L2-Pf-HR :0.88726: L2-HR :0.86010: (Sim:0h41m18s) 
CPU  0 inst:  601000001 cyc:  365150412 now IPC :1.53670: AVG IPC :1.64483: L2-Pf-HR :0.88726: L2-HR :0.86009: (Sim:0h41m22s) 
CPU  0 inst:  602000003 cyc:  365739057 now IPC :1.69882: AVG IPC :1.64492: L2-Pf-HR :0.88725: L2-HR :0.86009: (Sim:0h41m27s) 
CPU  0 inst:  603000002 cyc:  366329054 now IPC :1.69492: AVG IPC :1.64500: L2-Pf-HR :0.88724: L2-HR :0.86008: (Sim:0h41m31s) 
CPU  0 inst:  604000000 cyc:  366926683 now IPC :1.67328: AVG IPC :1.64504: L2-Pf-HR :0.88724: L2-HR :0.86008: (Sim:0h41m36s) 
CPU  0 inst:  605000002 cyc:  367517604 now IPC :1.69228: AVG IPC :1.64512: L2-Pf-HR :0.88724: L2-HR :0.86007: (Sim:0h41m40s) 
CPU  0 inst:  606000000 cyc:  368108563 now IPC :1.69216: AVG IPC :1.64519: L2-Pf-HR :0.88723: L2-HR :0.86007: (Sim:0h41m45s) 
CPU  0 inst:  607000002 cyc:  368692979 now IPC :1.71111: AVG IPC :1.64530: L2-Pf-HR :0.88724: L2-HR :0.86007: (Sim:0h41m49s) 
CPU  0 inst:  608000000 cyc:  369458347 now IPC :1.30656: AVG IPC :1.64460: L2-Pf-HR :0.88726: L2-HR :0.86009: (Sim:0h41m54s) 
CPU  0 inst:  609000003 cyc:  370046082 now IPC :1.70145: AVG IPC :1.64469: L2-Pf-HR :0.88725: L2-HR :0.86008: (Sim:0h41m59s) 
CPU  0 inst:  610000002 cyc:  370626286 now IPC :1.72353: AVG IPC :1.64481: L2-Pf-HR :0.88725: L2-HR :0.86008: (Sim:0h42m3s) 
CPU  0 inst:  611000003 cyc:  371204881 now IPC :1.72833: AVG IPC :1.64494: L2-Pf-HR :0.88725: L2-HR :0.86008: (Sim:0h42m8s) 
CPU  0 inst:  612000000 cyc:  371787868 now IPC :1.71530: AVG IPC :1.64505: L2-Pf-HR :0.88725: L2-HR :0.86008: (Sim:0h42m13s) 
CPU  0 inst:  613000000 cyc:  372364328 now IPC :1.73473: AVG IPC :1.64519: L2-Pf-HR :0.88724: L2-HR :0.86008: (Sim:0h42m18s) 
CPU  0 inst:  614000000 cyc:  372945397 now IPC :1.72097: AVG IPC :1.64531: L2-Pf-HR :0.88725: L2-HR :0.86009: (Sim:0h42m22s) 
CPU  0 inst:  615000001 cyc:  373584661 now IPC :1.56430: AVG IPC :1.64517: L2-Pf-HR :0.88728: L2-HR :0.86012: (Sim:0h42m27s) 
CPU  0 inst:  616000000 cyc:  374193665 now IPC :1.64202: AVG IPC :1.64516: L2-Pf-HR :0.88729: L2-HR :0.86013: (Sim:0h42m31s) 
CPU  0 inst:  617000000 cyc:  374773270 now IPC :1.72531: AVG IPC :1.64529: L2-Pf-HR :0.88730: L2-HR :0.86014: (Sim:0h42m35s) 
CPU  0 inst:  618000001 cyc:  375356376 now IPC :1.71496: AVG IPC :1.64540: L2-Pf-HR :0.88732: L2-HR :0.86015: (Sim:0h42m40s) 
CPU  0 inst:  619000003 cyc:  375930789 now IPC :1.74091: AVG IPC :1.64554: L2-Pf-HR :0.88733: L2-HR :0.86016: (Sim:0h42m44s) 
CPU  0 inst:  620000000 cyc:  376654736 now IPC :1.38131: AVG IPC :1.64503: L2-Pf-HR :0.88733: L2-HR :0.86016: (Sim:0h42m47s) 
CPU  0 inst:  621000000 cyc:  377299221 now IPC :1.55163: AVG IPC :1.64487: L2-Pf-HR :0.88733: L2-HR :0.86015: (Sim:0h42m50s) 
CPU  0 inst:  622000003 cyc:  377898322 now IPC :1.66917: AVG IPC :1.64491: L2-Pf-HR :0.88732: L2-HR :0.86015: (Sim:0h42m53s) 
CPU  0 inst:  623000000 cyc:  378494343 now IPC :1.67779: AVG IPC :1.64496: L2-Pf-HR :0.88731: L2-HR :0.86014: (Sim:0h42m56s) 
CPU  0 inst:  624000000 cyc:  379093357 now IPC :1.66941: AVG IPC :1.64500: L2-Pf-HR :0.88730: L2-HR :0.86013: (Sim:0h42m59s) 
[...]
CPU  0 inst: 1501000003 cyc: 1784229898 now IPC :1.63836: AVG IPC :0.84060: L2-Pf-HR :0.86199: L2-HR :0.84344: (Sim:2h3m55s) 
CPU  0 inst: 1502000000 cyc: 1784949683 now IPC :1.38930: AVG IPC :0.84082: L2-Pf-HR :0.86200: L2-HR :0.84347: (Sim:2h3m59s) 
CPU  0 inst: 1503000003 cyc: 1785463376 now IPC :1.94669: AVG IPC :0.84114: L2-Pf-HR :0.86202: L2-HR :0.84350: (Sim:2h4m4s) 
CPU  0 inst: 1504000000 cyc: 1786136762 now IPC :1.48503: AVG IPC :0.84138: L2-Pf-HR :0.86199: L2-HR :0.84349: (Sim:2h4m8s) 
CPU  0 inst: 1505000000 cyc: 1786743218 now IPC :1.64892: AVG IPC :0.84166: L2-Pf-HR :0.86199: L2-HR :0.84350: (Sim:2h4m13s) 
CPU  0 inst: 1506000001 cyc: 1787418068 now IPC :1.48181: AVG IPC :0.84190: L2-Pf-HR :0.86202: L2-HR :0.84354: (Sim:2h4m17s) 
CPU  0 inst: 1507000001 cyc: 1787934124 now IPC :1.93777: AVG IPC :0.84221: L2-Pf-HR :0.86203: L2-HR :0.84357: (Sim:2h4m22s) 
CPU  0 inst: 1508000000 cyc: 1788576835 now IPC :1.55591: AVG IPC :0.84247: L2-Pf-HR :0.86202: L2-HR :0.84357: (Sim:2h4m26s) 
CPU  0 inst: 1509000003 cyc: 1789152403 now IPC :1.73742: AVG IPC :0.84276: L2-Pf-HR :0.86204: L2-HR :0.84360: (Sim:2h4m31s) 
CPU  0 inst: 1510000001 cyc: 1789743295 now IPC :1.69235: AVG IPC :0.84304: L2-Pf-HR :0.86209: L2-HR :0.84366: (Sim:2h4m35s) 
CPU  0 inst: 1511000001 cyc: 1790426625 now IPC :1.46342: AVG IPC :0.84328: L2-Pf-HR :0.86212: L2-HR :0.84369: (Sim:2h4m40s) 
CPU  0 inst: 1512000000 cyc: 1791246667 now IPC :1.21945: AVG IPC :0.84345: L2-Pf-HR :0.86208: L2-HR :0.84367: (Sim:2h4m45s) 
CPU  0 inst: 1513000003 cyc: 1791825633 now IPC :1.72722: AVG IPC :0.84373: L2-Pf-HR :0.86210: L2-HR :0.84370: (Sim:2h4m49s) 
CPU  0 inst: 1514000003 cyc: 1792452598 now IPC :1.59499: AVG IPC :0.84400: L2-Pf-HR :0.86208: L2-HR :0.84370: (Sim:2h4m53s) 
CPU  0 inst: 1515000002 cyc: 1793083262 now IPC :1.58563: AVG IPC :0.84426: L2-Pf-HR :0.86209: L2-HR :0.84372: (Sim:2h4m58s) 
CPU  0 inst: 1516000000 cyc: 1793809398 now IPC :1.37715: AVG IPC :0.84447: L2-Pf-HR :0.86209: L2-HR :0.84373: (Sim:2h5m3s) 
CPU  0 inst: 1517000002 cyc: 1794332990 now IPC :1.90989: AVG IPC :0.84479: L2-Pf-HR :0.86211: L2-HR :0.84376: (Sim:2h5m7s) 
CPU  0 inst: 1518000000 cyc: 1794992627 now IPC :1.51598: AVG IPC :0.84503: L2-Pf-HR :0.86208: L2-HR :0.84375: (Sim:2h5m11s) 
CPU  0 inst: 1519000000 cyc: 1795605324 now IPC :1.63213: AVG IPC :0.84530: L2-Pf-HR :0.86209: L2-HR :0.84377: (Sim:2h5m16s) 
CPU  0 inst: 1520000000 cyc: 1796325594 now IPC :1.38837: AVG IPC :0.84552: L2-Pf-HR :0.86209: L2-HR :0.84379: (Sim:2h5m21s) 
CPU  0 inst: 1521000002 cyc: 1796838801 now IPC :1.94854: AVG IPC :0.84583: L2-Pf-HR :0.86211: L2-HR :0.84382: (Sim:2h5m25s) 
CPU  0 inst: 1522000001 cyc: 1797510478 now IPC :1.48881: AVG IPC :0.84607: L2-Pf-HR :0.86208: L2-HR :0.84381: (Sim:2h5m29s) 
CPU  0 inst: 1523000003 cyc: 1798111287 now IPC :1.66443: AVG IPC :0.84635: L2-Pf-HR :0.86209: L2-HR :0.84383: (Sim:2h5m34s) 
CPU  0 inst: 1524000000 cyc: 1798826538 now IPC :1.39811: AVG IPC :0.84657: L2-Pf-HR :0.86210: L2-HR :0.84385: (Sim:2h5m39s) 
CPU  0 inst: 1525000002 cyc: 1799342562 now IPC :1.93790: AVG IPC :0.84688: L2-Pf-HR :0.86212: L2-HR :0.84388: (Sim:2h5m43s) 
CPU  0 inst: 1526000003 cyc: 1800013728 now IPC :1.48995: AVG IPC :0.84712: L2-Pf-HR :0.86209: L2-HR :0.84387: (Sim:2h5m47s) 
CPU  0 inst: 1527000002 cyc: 1800588573 now IPC :1.73960: AVG IPC :0.84741: L2-Pf-HR :0.86212: L2-HR :0.84391: (Sim:2h5m52s) 
CPU  0 inst: 1528000000 cyc: 1801142444 now IPC :1.80547: AVG IPC :0.84770: L2-Pf-HR :0.86216: L2-HR :0.84396: (Sim:2h5m56s) 
CPU  0 inst: 1529000002 cyc: 1801802090 now IPC :1.51597: AVG IPC :0.84795: L2-Pf-HR :0.86214: L2-HR :0.84396: (Sim:2h6m1s) 
CPU  0 inst: 1530000000 cyc: 1802439223 now IPC :1.56953: AVG IPC :0.84820: L2-Pf-HR :0.86213: L2-HR :0.84396: (Sim:2h6m5s) 
CPU  0 inst: 1531000003 cyc: 1802953374 now IPC :1.94496: AVG IPC :0.84851: L2-Pf-HR :0.86217: L2-HR :0.84401: (Sim:2h6m9s) 
CPU  0 inst: 1532000000 cyc: 1803529877 now IPC :1.73459: AVG IPC :0.84880: L2-Pf-HR :0.86221: L2-HR :0.84406: (Sim:2h6m14s) 
CPU  0 inst: 1533000002 cyc: 1804294319 now IPC :1.30815: AVG IPC :0.84899: L2-Pf-HR :0.86223: L2-HR :0.84408: (Sim:2h6m19s) 
CPU  0 inst: 1534000002 cyc: 1805116070 now IPC :1.21691: AVG IPC :0.84916: L2-Pf-HR :0.86220: L2-HR :0.84407: (Sim:2h6m24s) 
CPU  0 inst: 1535000002 cyc: 1805653332 now IPC :1.86129: AVG IPC :0.84946: L2-Pf-HR :0.86222: L2-HR :0.84410: (Sim:2h6m28s) 
CPU  0 inst: 1536000000 cyc: 1806338434 now IPC :1.45963: AVG IPC :0.84969: L2-Pf-HR :0.86220: L2-HR :0.84409: (Sim:2h6m32s) 
CPU  0 inst: 1537000002 cyc: 1806968562 now IPC :1.58698: AVG IPC :0.84995: L2-Pf-HR :0.86220: L2-HR :0.84411: (Sim:2h6m37s) 
CPU  0 inst: 1538000001 cyc: 1807701320 now IPC :1.36471: AVG IPC :0.85016: L2-Pf-HR :0.86221: L2-HR :0.84413: (Sim:2h6m42s) 
CPU  0 inst: 1539000003 cyc: 1808218150 now IPC :1.93488: AVG IPC :0.85047: L2-Pf-HR :0.86223: L2-HR :0.84415: (Sim:2h6m46s) 
CPU  0 inst: 1540000000 cyc: 1808889910 now IPC :1.48862: AVG IPC :0.85071: L2-Pf-HR :0.86220: L2-HR :0.84414: (Sim:2h6m50s) 
CPU  0 inst: 1541000002 cyc: 1809503419 now IPC :1.62997: AVG IPC :0.85097: L2-Pf-HR :0.86220: L2-HR :0.84416: (Sim:2h6m55s) 
CPU  0 inst: 1542000002 cyc: 1810216421 now IPC :1.40252: AVG IPC :0.85119: L2-Pf-HR :0.86222: L2-HR :0.84419: (Sim:2h7m0s) 
CPU  0 inst: 1543000003 cyc: 1810738092 now IPC :1.91692: AVG IPC :0.85149: L2-Pf-HR :0.86223: L2-HR :0.84421: (Sim:2h7m4s) 
CPU  0 inst: 1544000000 cyc: 1811408243 now IPC :1.49220: AVG IPC :0.85173: L2-Pf-HR :0.86221: L2-HR :0.84420: (Sim:2h7m8s) 
CPU  0 inst: 1545000001 cyc: 1811972814 now IPC :1.77126: AVG IPC :0.85202: L2-Pf-HR :0.86223: L2-HR :0.84424: (Sim:2h7m13s) 
CPU  0 inst: 1546000000 cyc: 1812534500 now IPC :1.78035: AVG IPC :0.85231: L2-Pf-HR :0.86228: L2-HR :0.84429: (Sim:2h7m17s) 
CPU  0 inst: 1547000001 cyc: 1813251702 now IPC :1.39431: AVG IPC :0.85252: L2-Pf-HR :0.86224: L2-HR :0.84428: (Sim:2h7m22s) 
CPU  0 inst: 1548000000 cyc: 1813914001 now IPC :1.50989: AVG IPC :0.85276: L2-Pf-HR :0.86222: L2-HR :0.84427: (Sim:2h7m26s) 
CPU  0 inst: 1549000000 cyc: 1814428111 now IPC :1.94511: AVG IPC :0.85307: L2-Pf-HR :0.86226: L2-HR :0.84432: (Sim:2h7m31s) 
CPU  0 inst: 1550000002 cyc: 1815025063 now IPC :1.67518: AVG IPC :0.85334: L2-Pf-HR :0.86228: L2-HR :0.84435: (Sim:2h7m35s) 
CPU  0 inst: 1551000001 cyc: 1815710032 now IPC :1.45992: AVG IPC :0.85357: L2-Pf-HR :0.86227: L2-HR :0.84435: (Sim:2h7m40s) 
CPU  0 inst: 1552000000 cyc: 1816346338 now IPC :1.57157: AVG IPC :0.85382: L2-Pf-HR :0.86226: L2-HR :0.84436: (Sim:2h7m44s) 
CPU  0 inst: 1553000003 cyc: 1816851603 now IPC :1.97917: AVG IPC :0.85413: L2-Pf-HR :0.86229: L2-HR :0.84440: (Sim:2h7m48s) 
CPU  0 inst: 1554000003 cyc: 1817443791 now IPC :1.68865: AVG IPC :0.85441: L2-Pf-HR :0.86232: L2-HR :0.84444: (Sim:2h7m53s) 
CPU  0 inst: 1555000001 cyc: 1818208419 now IPC :1.30782: AVG IPC :0.85460: L2-Pf-HR :0.86235: L2-HR :0.84447: (Sim:2h7m58s) 
CPU  0 inst: 1556000000 cyc: 1819022750 now IPC :1.22800: AVG IPC :0.85476: L2-Pf-HR :0.86233: L2-HR :0.84447: (Sim:2h8m3s) 
CPU  0 inst: 1557000001 cyc: 1819556141 now IPC :1.87480: AVG IPC :0.85506: L2-Pf-HR :0.86235: L2-HR :0.84449: (Sim:2h8m7s) 
CPU  0 inst: 1558000002 cyc: 1820242223 now IPC :1.45755: AVG IPC :0.85529: L2-Pf-HR :0.86232: L2-HR :0.84448: (Sim:2h8m11s) 
CPU  0 inst: 1559000001 cyc: 1820869080 now IPC :1.59526: AVG IPC :0.85555: L2-Pf-HR :0.86234: L2-HR :0.84451: (Sim:2h8m16s) 
CPU  0 inst: 1560000000 cyc: 1821600343 now IPC :1.36750: AVG IPC :0.85575: L2-Pf-HR :0.86235: L2-HR :0.84453: (Sim:2h8m21s) 
CPU  0 inst: 1561000001 cyc: 1822123491 now IPC :1.91151: AVG IPC :0.85605: L2-Pf-HR :0.86236: L2-HR :0.84455: (Sim:2h8m25s) 
CPU  0 inst: 1562000002 cyc: 1822796992 now IPC :1.48478: AVG IPC :0.85629: L2-Pf-HR :0.86233: L2-HR :0.84454: (Sim:2h8m29s) 
CPU  0 inst: 1563000002 cyc: 1823356371 now IPC :1.78770: AVG IPC :0.85657: L2-Pf-HR :0.86236: L2-HR :0.84458: (Sim:2h8m34s) 
CPU  0 inst: 1564000000 cyc: 1823925149 now IPC :1.75815: AVG IPC :0.85685: L2-Pf-HR :0.86240: L2-HR :0.84463: (Sim:2h8m38s) 
CPU  0 inst: 1565000002 cyc: 1824650357 now IPC :1.37892: AVG IPC :0.85706: L2-Pf-HR :0.86237: L2-HR :0.84461: (Sim:2h8m43s) 
CPU  0 inst: 1566000002 cyc: 1825313810 now IPC :1.50727: AVG IPC :0.85730: L2-Pf-HR :0.86234: L2-HR :0.84460: (Sim:2h8m47s) 
CPU  0 inst: 1567000002 cyc: 1825826734 now IPC :1.94961: AVG IPC :0.85761: L2-Pf-HR :0.86238: L2-HR :0.84465: (Sim:2h8m52s) 
CPU  0 inst: 1568000000 cyc: 1826424388 now IPC :1.67321: AVG IPC :0.85787: L2-Pf-HR :0.86240: L2-HR :0.84468: (Sim:2h8m56s) 
CPU  0 inst: 1569000003 cyc: 1827157065 now IPC :1.36486: AVG IPC :0.85808: L2-Pf-HR :0.86238: L2-HR :0.84467: (Sim:2h9m1s) 
CPU  0 inst: 1570000001 cyc: 1827822101 now IPC :1.50367: AVG IPC :0.85831: L2-Pf-HR :0.86236: L2-HR :0.84467: (Sim:2h9m5s) 
CPU  0 inst: 1571000001 cyc: 1828328892 now IPC :1.97320: AVG IPC :0.85862: L2-Pf-HR :0.86239: L2-HR :0.84471: (Sim:2h9m10s) 
CPU  0 inst: 1572000000 cyc: 1828935821 now IPC :1.64764: AVG IPC :0.85888: L2-Pf-HR :0.86241: L2-HR :0.84474: (Sim:2h9m14s) 
CPU  0 inst: 1573000000 cyc: 1829624027 now IPC :1.45305: AVG IPC :0.85911: L2-Pf-HR :0.86241: L2-HR :0.84475: (Sim:2h9m19s) 
CPU  0 inst: 1574000002 cyc: 1830256847 now IPC :1.58023: AVG IPC :0.85936: L2-Pf-HR :0.86240: L2-HR :0.84476: (Sim:2h9m23s) 
CPU  0 inst: 1575000003 cyc: 1830768516 now IPC :1.95439: AVG IPC :0.85966: L2-Pf-HR :0.86243: L2-HR :0.84480: (Sim:2h9m27s) 
CPU  0 inst: 1576000000 cyc: 1831360328 now IPC :1.68972: AVG IPC :0.85993: L2-Pf-HR :0.86246: L2-HR :0.84484: (Sim:2h9m32s) 
CPU  0 inst: 1577000002 cyc: 1832038768 now IPC :1.47397: AVG IPC :0.86016: L2-Pf-HR :0.86251: L2-HR :0.84489: (Sim:2h9m37s) 
CPU  0 inst: 1578000002 cyc: 1832879651 now IPC :1.18923: AVG IPC :0.86031: L2-Pf-HR :0.86249: L2-HR :0.84488: (Sim:2h9m42s) 
CPU  0 inst: 1579000001 cyc: 1833467596 now IPC :1.70084: AVG IPC :0.86058: L2-Pf-HR :0.86249: L2-HR :0.84489: (Sim:2h9m46s) 
CPU  0 inst: 1580000000 cyc: 1834162999 now IPC :1.43801: AVG IPC :0.86080: L2-Pf-HR :0.86245: L2-HR :0.84487: (Sim:2h9m50s) 
CPU  0 inst: 1581000002 cyc: 1834710727 now IPC :1.82573: AVG IPC :0.86109: L2-Pf-HR :0.86250: L2-HR :0.84492: (Sim:2h9m55s) 
CPU  0 inst: 1582000003 cyc: 1835316395 now IPC :1.65107: AVG IPC :0.86135: L2-Pf-HR :0.86253: L2-HR :0.84496: (Sim:2h9m59s) 
CPU  0 inst: 1583000003 cyc: 1836051976 now IPC :1.35947: AVG IPC :0.86155: L2-Pf-HR :0.86248: L2-HR :0.84493: (Sim:2h10m4s) 
CPU  0 inst: 1584000000 cyc: 1836724019 now IPC :1.48800: AVG IPC :0.86178: L2-Pf-HR :0.86245: L2-HR :0.84491: (Sim:2h10m8s) 
CPU  0 inst: 1585000001 cyc: 1837236427 now IPC :1.95157: AVG IPC :0.86208: L2-Pf-HR :0.86249: L2-HR :0.84497: (Sim:2h10m13s) 
CPU  0 inst: 1586000000 cyc: 1837841034 now IPC :1.65397: AVG IPC :0.86234: L2-Pf-HR :0.86251: L2-HR :0.84500: (Sim:2h10m17s) 
CPU  0 inst: 1587000000 cyc: 1838580248 now IPC :1.35279: AVG IPC :0.86254: L2-Pf-HR :0.86249: L2-HR :0.84499: (Sim:2h10m22s) 
CPU  0 inst: 1588000000 cyc: 1839246951 now IPC :1.49992: AVG IPC :0.86277: L2-Pf-HR :0.86245: L2-HR :0.84497: (Sim:2h10m27s) 
CPU  0 inst: 1589000003 cyc: 1839752936 now IPC :1.97635: AVG IPC :0.86307: L2-Pf-HR :0.86249: L2-HR :0.84502: (Sim:2h10m31s) 
CPU  0 inst: 1590000000 cyc: 1840362277 now IPC :1.64111: AVG IPC :0.86333: L2-Pf-HR :0.86251: L2-HR :0.84504: (Sim:2h10m35s) 
CPU  0 inst: 1591000001 cyc: 1841096240 now IPC :1.36247: AVG IPC :0.86353: L2-Pf-HR :0.86249: L2-HR :0.84504: (Sim:2h10m40s) 
CPU  0 inst: 1592000000 cyc: 1841756036 now IPC :1.51562: AVG IPC :0.86377: L2-Pf-HR :0.86246: L2-HR :0.84503: (Sim:2h10m45s) 
CPU  0 inst: 1593000000 cyc: 1842266096 now IPC :1.96055: AVG IPC :0.86407: L2-Pf-HR :0.86249: L2-HR :0.84507: (Sim:2h10m49s) 
CPU  0 inst: 1594000002 cyc: 1842875731 now IPC :1.64033: AVG IPC :0.86433: L2-Pf-HR :0.86250: L2-HR :0.84509: (Sim:2h10m53s) 
CPU  0 inst: 1595000003 cyc: 1843566303 now IPC :1.44808: AVG IPC :0.86454: L2-Pf-HR :0.86251: L2-HR :0.84511: (Sim:2h10m58s) 
CPU  0 inst: 1596000000 cyc: 1844093796 now IPC :1.89575: AVG IPC :0.86484: L2-Pf-HR :0.86253: L2-HR :0.84513: (Sim:2h11m2s) 
CPU  0 inst: 1597000002 cyc: 1844715078 now IPC :1.60958: AVG IPC :0.86509: L2-Pf-HR :0.86252: L2-HR :0.84514: (Sim:2h11m7s) 
CPU  0 inst: 1598000001 cyc: 1845309378 now IPC :1.68265: AVG IPC :0.86535: L2-Pf-HR :0.86254: L2-HR :0.84517: (Sim:2h11m11s) 
CPU  0 inst: 1599000000 cyc: 1845949429 now IPC :1.56237: AVG IPC :0.86560: L2-Pf-HR :0.86259: L2-HR :0.84522: (Sim:2h11m16s) 
CPU  0 inst: 1600000000 cyc: 1846648369 now IPC :1.43074: AVG IPC :0.86581: L2-Pf-HR :0.86262: L2-HR :0.84527: (Sim:2h11m20s) 
CPU  0 inst: 1601000002 cyc: 1847417881 now IPC :1.29953: AVG IPC :0.86599: L2-Pf-HR :0.86258: L2-HR :0.84523: (Sim:2h11m25s) 
CPU  0 inst: 1602000002 cyc: 1848100905 now IPC :1.46408: AVG IPC :0.86621: L2-Pf-HR :0.86255: L2-HR :0.84522: (Sim:2h11m29s) 
CPU  0 inst: 1603000000 cyc: 1848623636 now IPC :1.91303: AVG IPC :0.86651: L2-Pf-HR :0.86259: L2-HR :0.84527: (Sim:2h11m34s) 
CPU  0 inst: 1604000000 cyc: 1849244176 now IPC :1.61150: AVG IPC :0.86676: L2-Pf-HR :0.86260: L2-HR :0.84529: (Sim:2h11m38s) 
CPU  0 inst: 1605000003 cyc: 1849982949 now IPC :1.35360: AVG IPC :0.86695: L2-Pf-HR :0.86258: L2-HR :0.84528: (Sim:2h11m43s) 
CPU  0 inst: 1606000002 cyc: 1850654119 now IPC :1.48993: AVG IPC :0.86718: L2-Pf-HR :0.86255: L2-HR :0.84527: (Sim:2h11m47s) 
CPU  0 inst: 1607000002 cyc: 1851162837 now IPC :1.96573: AVG IPC :0.86748: L2-Pf-HR :0.86258: L2-HR :0.84531: (Sim:2h11m52s) 
CPU  0 inst: 1608000000 cyc: 1851771891 now IPC :1.64189: AVG IPC :0.86774: L2-Pf-HR :0.86259: L2-HR :0.84533: (Sim:2h11m56s) 
CPU  0 inst: 1609000003 cyc: 1852507944 now IPC :1.35860: AVG IPC :0.86793: L2-Pf-HR :0.86258: L2-HR :0.84533: (Sim:2h12m1s) 
CPU  0 inst: 1610000003 cyc: 1853162515 now IPC :1.52772: AVG IPC :0.86816: L2-Pf-HR :0.86255: L2-HR :0.84532: (Sim:2h12m5s) 
CPU  0 inst: 1611000003 cyc: 1853683398 now IPC :1.91982: AVG IPC :0.86846: L2-Pf-HR :0.86257: L2-HR :0.84535: (Sim:2h12m10s) 
CPU  0 inst: 1612000000 cyc: 1854293141 now IPC :1.64003: AVG IPC :0.86871: L2-Pf-HR :0.86258: L2-HR :0.84537: (Sim:2h12m14s) 
CPU  0 inst: 1613000001 cyc: 1855019254 now IPC :1.37720: AVG IPC :0.86891: L2-Pf-HR :0.86258: L2-HR :0.84538: (Sim:2h12m19s) 
CPU  0 inst: 1614000003 cyc: 1855546975 now IPC :1.89494: AVG IPC :0.86920: L2-Pf-HR :0.86261: L2-HR :0.84542: (Sim:2h12m23s) 
CPU  0 inst: 1615000003 cyc: 1856196243 now IPC :1.54020: AVG IPC :0.86944: L2-Pf-HR :0.86258: L2-HR :0.84541: (Sim:2h12m28s) 
CPU  0 inst: 1616000000 cyc: 1856806575 now IPC :1.63845: AVG IPC :0.86969: L2-Pf-HR :0.86259: L2-HR :0.84543: (Sim:2h12m32s) 
CPU  0 inst: 1617000001 cyc: 1857486242 now IPC :1.47131: AVG IPC :0.86991: L2-Pf-HR :0.86261: L2-HR :0.84546: (Sim:2h12m37s) 
CPU  0 inst: 1618000000 cyc: 1857999728 now IPC :1.94747: AVG IPC :0.87021: L2-Pf-HR :0.86262: L2-HR :0.84548: (Sim:2h12m41s) 
CPU  0 inst: 1619000000 cyc: 1858632240 now IPC :1.58100: AVG IPC :0.87045: L2-Pf-HR :0.86262: L2-HR :0.84549: (Sim:2h12m46s) 
Finished CPU 0 instr: 1617000001 cyc: 1857653623 AVG IPC: 0.87045 (Sim time: 2h12m46s)

ChampSim completed all CPUs

[ROI Statistics]
Core_0_instructions 1617000001
Core_0_cycles 1857653623
Core_0_IPC 0.87045

Core_0_branch_prediction_accuracy 99.26547
Core_0_branch_MPKI 0.21633
Core_0_average_ROB_occupancy_at_mispredict 250.58321

Core_0_L1D_total_access 1024379799
Core_0_L1D_total_hit 985159410 L1D_total_Hit Ratio: 0.96171
Core_0_L1D_total_miss 39220389
Core_0_L1D_loads 376981828
Core_0_L1D_load_hit 360349015 L1D_load_Hit Ratio: 0.95588
Core_0_L1D_load_miss 16632813
Core_0_L1D_RFOs 43858704
Core_0_L1D_RFO_hit 41602162 L1D_RFO_Hit Ratio: 0.94855
Core_0_L1D_RFO_miss 2256542
Core_0_L1D_prefetches 603539267
Core_0_L1D_prefetch_hit 583208233 L1D_prefetch_Hit Ratio: 0.96631
Core_0_L1D_prefetch_miss 20331034
Core_0_L1D_writebacks 0
Core_0_L1D_writeback_hit 0 L1D_writeback_Hit Ratio: -nan
Core_0_L1D_writeback_miss 0
Core_0_L1D_prefetch_requested 1137693246
Core_0_L1D_prefetch_issued 712574688
Core_0_L1D_prefetch_useful 16172360 L1D_Useful Ratio: 0.02270
Core_0_L1D_prefetch_useless 4186477
Core_0_L1D_prefetch_late 3782239
Core_0_L1D_average_miss_latency 75462984.50184

Core_0_L1I_total_access 399527379
Core_0_L1I_total_hit 399522473 L1I_total_Hit Ratio: 0.99999
Core_0_L1I_total_miss 4906
Core_0_L1I_loads 399527379
Core_0_L1I_load_hit 399522473 L1I_load_Hit Ratio: 0.99999
Core_0_L1I_load_miss 4906
Core_0_L1I_RFOs 0
Core_0_L1I_RFO_hit 0 L1I_RFO_Hit Ratio: -nan
Core_0_L1I_RFO_miss 0
Core_0_L1I_prefetches 0
Core_0_L1I_prefetch_hit 0 L1I_prefetch_Hit Ratio: -nan
Core_0_L1I_prefetch_miss 0
Core_0_L1I_writebacks 0
Core_0_L1I_writeback_hit 0 L1I_writeback_Hit Ratio: -nan
Core_0_L1I_writeback_miss 0
Core_0_L1I_prefetch_requested 0
Core_0_L1I_prefetch_issued 0
Core_0_L1I_prefetch_useful 0 L1I_Useful Ratio: -nan
Core_0_L1I_prefetch_useless 0
Core_0_L1I_prefetch_late 0
Core_0_L1I_average_miss_latency 342.59886

Core_0_L2C_total_access 153655768
Core_0_L2C_total_hit 129914311 L2C_total_Hit Ratio: 0.84549
Core_0_L2C_total_miss 23741457
Core_0_L2C_loads 12856133
Core_0_L2C_load_hit 8726696 L2C_load_Hit Ratio: 0.67880
Core_0_L2C_load_miss 4129437
Core_0_L2C_RFOs 2256461
Core_0_L2C_RFO_hit 215378 L2C_RFO_Hit Ratio: 0.09545
Core_0_L2C_RFO_miss 2041083
Core_0_L2C_prefetches 127593642
Core_0_L2C_prefetch_hit 110064446 L2C_prefetch_Hit Ratio: 0.86262
Core_0_L2C_prefetch_miss 17529196
Core_0_L2C_writebacks 10949532
Core_0_L2C_writeback_hit 10907791 L2C_writeback_Hit Ratio: 0.99619
Core_0_L2C_writeback_miss 41741
Core_0_L2C_prefetch_requested 289935818
Core_0_L2C_prefetch_issued 189211843
Core_0_L2C_prefetch_useful 3209438 L2C_Useful Ratio: 0.01696
Core_0_L2C_prefetch_useless 14338493
Core_0_L2C_prefetch_late 142554
Core_0_L2C_average_miss_latency 194.79341

Core_0_LLC_total_access 33861346
Core_0_LLC_total_hit 20523493 LLC_total_Hit Ratio: 0.60610
Core_0_LLC_total_miss 13337853
Core_0_LLC_loads 3986848
Core_0_LLC_load_hit 2652777 LLC_load_Hit Ratio: 0.66538
Core_0_LLC_load_miss 1334071
Core_0_LLC_RFOs 2041067
Core_0_LLC_RFO_hit 32201 LLC_RFO_Hit Ratio: 0.01578
Core_0_LLC_RFO_miss 2008866
Core_0_LLC_prefetches 18094874
Core_0_LLC_prefetch_hit 8111917 LLC_prefetch_Hit Ratio: 0.44830
Core_0_LLC_prefetch_miss 9982957
Core_0_LLC_writebacks 9738557
Core_0_LLC_writeback_hit 9726598 LLC_writeback_Hit Ratio: 0.99877
Core_0_LLC_writeback_miss 11959
Core_0_LLC_prefetch_requested 0
Core_0_LLC_prefetch_issued 0
Core_0_LLC_prefetch_useful 1830611 LLC_Useful Ratio: inf
Core_0_LLC_prefetch_useless 8144423
Core_0_LLC_prefetch_late 50966
Core_0_LLC_average_miss_latency 310.09157

Core_0_major_page_fault 0
Core_0_minor_page_fault 76848

CPU 0 L1D next line prefetcher final stats
CPU 0 L2C PC-based stride prefetcher final stats
Stride Degree: 14
MK1  MARKOV_LRU_SIZE: 128
MK1  MARKOV_PREDICTION_PERCENTTHRESHOLD: 20.00000
MK1  OUTLIERS_THRESHOLD_Max: 64
MK1  OUTLIERS_THRESHOLD_Min: 32
MK2  MARKOV_LRU_SIZE: 512
MK2  MARKOV_PREDICTION_PERCENTTHRESHOLD: 15.00000
MK2  OUTLIERS_THRESHOLD_Max: 8
MK2  OUTLIERS_THRESHOLD_Min: 0
MK3  MARKOV_LRU_SIZE: 384
MK3  MARKOV_PREDICTION_PERCENTTHRESHOLD: 20.00000
MK3  OUTLIERS_THRESHOLD_Max: 16
MK3  OUTLIERS_THRESHOLD_Min: 8
MK4  MARKOV_LRU_SIZE: 512
MK4  MARKOV_PREDICTION_PERCENTTHRESHOLD: 15.00000
MK4  OUTLIERS_THRESHOLD_Max: 8
MK4  OUTLIERS_THRESHOLD_Min: 0
IPStride Degree/Access Ratio: 4.71044
MK1 IPDEltaMarkov  Degree/Access Ratio: 0.29788
MK2 IPDEltaMarkov  Degree/Access Ratio: 1.47875
MK3 IPDEltaMarkov  Degree/Access Ratio: 0.51883
MK4 IPDEltaMarkov  Degree/Access Ratio: 1.60481
Channel_0_RQ_row_buffer_hit 6820382
Channel_0_RQ_row_buffer_miss 6500036
Channel_0_WQ_row_buffer_hit 1588420
Channel_0_WQ_row_buffer_miss 5465098
Channel_0_WQ_full 116
Channel_0_dbus_congested 13083826

avg_congested_cycle 11

EzSearch AVG IPC :0.87045: L2-Pf-HR :0.86262 : L2-HR :0.84549 Uful:0.01696
     > Finished combination: TraceType=770-tot Sim:1617000000 Prefetcher=L2029-SecTOP-L2-MultiMarkovDelta_ip_stride_v4 L1=next_line
