TRACE: [42000000]_FE_[OPT-350M]_[h16]_[s256]_[d64] Warmup: 2000000 NumTraces: 42000000
L1:berti:L2:berti
*************************************************
   ChampSim Multicore Out-of-Order Simulator
   Last compiled: Oct 26 2024 16:00:38
*************************************************

trace_0 770-tot_memTraces_v3/memTraces[42000000]_FE_[OPT-350M]_[h16]_[s256]_[d64].champsim.xz
CPU 0 L1D Berti prefetcher
CPU 0 L2C Berti prefetcher
MAIN.cc ln 751 stats print skipped
CPU  0 inst:    1000002 cyc:     499515 now IPC :2.00195: AVG IPC :2.00195: L2-Pf-HR :0.68379: L2-HR :0.68607: (Sim:0h0m16s) 
CPU  0 inst:    2000000 cyc:     986933 now IPC :2.05162: AVG IPC :2.02648: L2-Pf-HR :0.74219: L2-HR :0.74913: (Sim:0h0m33s) 

Warmup complete CPU  0 instructions:    2000002 cycles:     986934 (Simulation time: 0 hr 0 min 33 sec) 

CPU  0 inst:    3000004 cyc:    1539391 now IPC :1.81010: AVG IPC :1.81010: L2-Pf-HR :0.84117: L2-HR :0.81102: (Sim:0h0m47s) 
CPU  0 inst:    4000003 cyc:    2086011 now IPC :1.82942: AVG IPC :1.81971: L2-Pf-HR :0.83336: L2-HR :0.80865: (Sim:0h1m1s) 
CPU  0 inst:    5000005 cyc:    2633948 now IPC :1.82503: AVG IPC :1.82148: L2-Pf-HR :0.83293: L2-HR :0.81093: (Sim:0h1m15s) 
CPU  0 inst:    6000000 cyc:    3181663 now IPC :1.82576: AVG IPC :1.82255: L2-Pf-HR :0.83393: L2-HR :0.81109: (Sim:0h1m29s) 
CPU  0 inst:    7000002 cyc:    3728284 now IPC :1.82942: AVG IPC :1.82392: L2-Pf-HR :0.83193: L2-HR :0.81011: (Sim:0h1m43s) 
CPU  0 inst:    8000003 cyc:    4276699 now IPC :1.82344: AVG IPC :1.82384: L2-Pf-HR :0.83222: L2-HR :0.81037: (Sim:0h1m57s) 
CPU  0 inst:    9000005 cyc:    4822772 now IPC :1.83126: AVG IPC :1.82490: L2-Pf-HR :0.83141: L2-HR :0.80976: (Sim:0h2m12s) 
CPU  0 inst:   10000004 cyc:    5370519 now IPC :1.82566: AVG IPC :1.82499: L2-Pf-HR :0.83202: L2-HR :0.81038: (Sim:0h2m26s) 
CPU  0 inst:   11000002 cyc:    5916039 now IPC :1.83311: AVG IPC :1.82589: L2-Pf-HR :0.83372: L2-HR :0.81144: (Sim:0h2m40s) 
CPU  0 inst:   12000002 cyc:    6466575 now IPC :1.81641: AVG IPC :1.82494: L2-Pf-HR :0.83428: L2-HR :0.81134: (Sim:0h2m54s) 
CPU  0 inst:   13000005 cyc:    7012966 now IPC :1.83020: AVG IPC :1.82541: L2-Pf-HR :0.83547: L2-HR :0.81204: (Sim:0h3m8s) 
CPU  0 inst:   14000001 cyc:    7555238 now IPC :1.84409: AVG IPC :1.82696: L2-Pf-HR :0.83643: L2-HR :0.81291: (Sim:0h3m22s) 
CPU  0 inst:   15000000 cyc:    8103457 now IPC :1.82409: AVG IPC :1.82673: L2-Pf-HR :0.83741: L2-HR :0.81338: (Sim:0h3m37s) 
CPU  0 inst:   16000002 cyc:    8645519 now IPC :1.84481: AVG IPC :1.82801: L2-Pf-HR :0.83792: L2-HR :0.81389: (Sim:0h3m52s) 
CPU  0 inst:   17000002 cyc:    9223810 now IPC :1.72923: AVG IPC :1.82108: L2-Pf-HR :0.83831: L2-HR :0.81388: (Sim:0h4m6s) 
CPU  0 inst:   18000000 cyc:   10681253 now IPC :0.68613: AVG IPC :1.65045: L2-Pf-HR :0.75246: L2-HR :0.75420: (Sim:0h4m24s) 
CPU  0 inst:   19000000 cyc:   13646577 now IPC :0.33723: AVG IPC :1.34285: L2-Pf-HR :0.73540: L2-HR :0.74386: (Sim:0h4m44s) 
CPU  0 inst:   20000000 cyc:   16611675 now IPC :0.33726: AVG IPC :1.15202: L2-Pf-HR :0.71821: L2-HR :0.73346: (Sim:0h5m4s) 
CPU  0 inst:   21000000 cyc:   19576819 now IPC :0.33725: AVG IPC :1.02206: L2-Pf-HR :0.70229: L2-HR :0.72369: (Sim:0h5m24s) 
CPU  0 inst:   22000000 cyc:   22542128 now IPC :0.33723: AVG IPC :0.92785: L2-Pf-HR :0.68795: L2-HR :0.71479: (Sim:0h5m45s) 
CPU  0 inst:   23000000 cyc:   25507373 now IPC :0.33724: AVG IPC :0.85643: L2-Pf-HR :0.67510: L2-HR :0.70658: (Sim:0h6m1s) 
CPU  0 inst:   24000000 cyc:   28472326 now IPC :0.33727: AVG IPC :0.80043: L2-Pf-HR :0.66337: L2-HR :0.69908: (Sim:0h6m15s) 
CPU  0 inst:   25000000 cyc:   31438911 now IPC :0.33709: AVG IPC :0.75529: L2-Pf-HR :0.65245: L2-HR :0.69199: (Sim:0h6m30s) 
CPU  0 inst:   26000002 cyc:   34179789 now IPC :0.36485: AVG IPC :0.72305: L2-Pf-HR :0.64118: L2-HR :0.68435: (Sim:0h6m48s) 
CPU  0 inst:   27000003 cyc:   34763235 now IPC :1.71396: AVG IPC :0.74016: L2-Pf-HR :0.63815: L2-HR :0.68345: (Sim:0h7m8s) 
CPU  0 inst:   28000001 cyc:   35331436 now IPC :1.75994: AVG IPC :0.75704: L2-Pf-HR :0.63515: L2-HR :0.68252: (Sim:0h7m25s) 
CPU  0 inst:   29000004 cyc:   35898482 now IPC :1.76353: AVG IPC :0.77338: L2-Pf-HR :0.63337: L2-HR :0.68218: (Sim:0h7m47s) 
CPU  0 inst:   30000003 cyc:   36441692 now IPC :1.84091: AVG IPC :0.78974: L2-Pf-HR :0.63039: L2-HR :0.68154: (Sim:0h8m8s) 
CPU  0 inst:   31000003 cyc:   37015671 now IPC :1.74222: AVG IPC :0.80491: L2-Pf-HR :0.62726: L2-HR :0.68038: (Sim:0h8m30s) 
CPU  0 inst:   32000003 cyc:   37555848 now IPC :1.85125: AVG IPC :0.82037: L2-Pf-HR :0.62452: L2-HR :0.67988: (Sim:0h8m51s) 
CPU  0 inst:   33000002 cyc:   38108532 now IPC :1.80935: AVG IPC :0.83509: L2-Pf-HR :0.62174: L2-HR :0.67923: (Sim:0h9m13s) 
CPU  0 inst:   34000001 cyc:   38645784 now IPC :1.86132: AVG IPC :0.84973: L2-Pf-HR :0.61897: L2-HR :0.67853: (Sim:0h9m34s) 
CPU  0 inst:   35000005 cyc:   39187365 now IPC :1.84645: AVG IPC :0.86386: L2-Pf-HR :0.61680: L2-HR :0.67839: (Sim:0h9m55s) 
CPU  0 inst:   36000000 cyc:   39731436 now IPC :1.83799: AVG IPC :0.87754: L2-Pf-HR :0.61457: L2-HR :0.67809: (Sim:0h10m16s) 
CPU  0 inst:   37000000 cyc:   40270904 now IPC :1.85368: AVG IPC :0.89095: L2-Pf-HR :0.61205: L2-HR :0.67759: (Sim:0h10m33s) 
CPU  0 inst:   38000001 cyc:   40815556 now IPC :1.83604: AVG IPC :0.90387: L2-Pf-HR :0.60972: L2-HR :0.67715: (Sim:0h10m48s) 
CPU  0 inst:   39000005 cyc:   41354341 now IPC :1.85604: AVG IPC :0.91658: L2-Pf-HR :0.60742: L2-HR :0.67673: (Sim:0h11m2s) 
Finished CPU 0 instr: 37000003 cyc: 40367407 AVG IPC: 0.91658 (Sim time: 0h11m2s)

ChampSim completed all CPUs

[ROI Statistics]
Core_0_instructions 37000003
Core_0_cycles 40367407
Core_0_IPC 0.91658

Core_0_branch_prediction_accuracy 98.43855
Core_0_branch_MPKI 0.50535
Core_0_average_ROB_occupancy_at_mispredict 336.24463

Core_0_L1D_total_access 17480328
Core_0_L1D_total_hit 16852500 L1D_total_Hit Ratio: 0.96408
Core_0_L1D_total_miss 627828
Core_0_L1D_loads 10633784
Core_0_L1D_load_hit 10388813 L1D_load_Hit Ratio: 0.97696
Core_0_L1D_load_miss 244971
Core_0_L1D_RFOs 1163098
Core_0_L1D_RFO_hit 1129742 L1D_RFO_Hit Ratio: 0.97132
Core_0_L1D_RFO_miss 33356
Core_0_L1D_prefetches 5683446
Core_0_L1D_prefetch_hit 5333945 L1D_prefetch_Hit Ratio: 0.93851
Core_0_L1D_prefetch_miss 349501
Core_0_L1D_writebacks 0
Core_0_L1D_writeback_hit 0 L1D_writeback_Hit Ratio: -nan
Core_0_L1D_writeback_miss 0
Core_0_L1D_prefetch_requested 6847176
Core_0_L1D_prefetch_issued 6847176
Core_0_L1D_prefetch_useful 297162 L1D_Useful Ratio: 0.04340
Core_0_L1D_prefetch_useless 75355
Core_0_L1D_prefetch_late 31245
Core_0_L1D_average_miss_latency 518046.92026

Core_0_L1I_total_access 5451295
Core_0_L1I_total_hit 5449464 L1I_total_Hit Ratio: 0.99966
Core_0_L1I_total_miss 1831
Core_0_L1I_loads 5451295
Core_0_L1I_load_hit 5449464 L1I_load_Hit Ratio: 0.99966
Core_0_L1I_load_miss 1831
Core_0_L1I_RFOs 0
Core_0_L1I_RFO_hit 0 L1I_RFO_Hit Ratio: -nan
Core_0_L1I_RFO_miss 0
Core_0_L1I_prefetches 0
Core_0_L1I_prefetch_hit 0 L1I_prefetch_Hit Ratio: -nan
Core_0_L1I_prefetch_miss 0
Core_0_L1I_writebacks 0
Core_0_L1I_writeback_hit 0 L1I_writeback_Hit Ratio: -nan
Core_0_L1I_writeback_miss 0
Core_0_L1I_prefetch_requested 0
Core_0_L1I_prefetch_issued 0
Core_0_L1I_prefetch_useful 0 L1I_Useful Ratio: -nan
Core_0_L1I_prefetch_useless 0
Core_0_L1I_prefetch_late 0
Core_0_L1I_average_miss_latency 220.86729

Core_0_L2C_total_access 1108582
Core_0_L2C_total_hit 750214 L2C_total_Hit Ratio: 0.67673
Core_0_L2C_total_miss 358368
Core_0_L2C_loads 216032
Core_0_L2C_load_hit 131500 L2C_load_Hit Ratio: 0.60871
Core_0_L2C_load_miss 84532
Core_0_L2C_RFOs 33353
Core_0_L2C_RFO_hit 3337 L2C_RFO_Hit Ratio: 0.10005
Core_0_L2C_RFO_miss 30016
Core_0_L2C_prefetches 621042
Core_0_L2C_prefetch_hit 377231 L2C_prefetch_Hit Ratio: 0.60742
Core_0_L2C_prefetch_miss 243811
Core_0_L2C_writebacks 238155
Core_0_L2C_writeback_hit 238146 L2C_writeback_Hit Ratio: 0.99996
Core_0_L2C_writeback_miss 9
Core_0_L2C_prefetch_requested 405886
Core_0_L2C_prefetch_issued 345554
Core_0_L2C_prefetch_useful 86293 L2C_Useful Ratio: 0.24972
Core_0_L2C_prefetch_useless 148026
Core_0_L2C_prefetch_late 15797
Core_0_L2C_average_miss_latency 136.33819

Core_0_LLC_total_access 553268
Core_0_LLC_total_hit 359097 LLC_total_Hit Ratio: 0.64905
Core_0_LLC_total_miss 194171
Core_0_LLC_loads 68825
Core_0_LLC_load_hit 21040 LLC_load_Hit Ratio: 0.30570
Core_0_LLC_load_miss 47785
Core_0_LLC_RFOs 30015
Core_0_LLC_RFO_hit 23 LLC_RFO_Hit Ratio: 0.00077
Core_0_LLC_RFO_miss 29992
Core_0_LLC_prefetches 259519
Core_0_LLC_prefetch_hit 143134 LLC_prefetch_Hit Ratio: 0.55154
Core_0_LLC_prefetch_miss 116385
Core_0_LLC_writebacks 194909
Core_0_LLC_writeback_hit 194900 LLC_writeback_Hit Ratio: 0.99995
Core_0_LLC_writeback_miss 9
Core_0_LLC_prefetch_requested 0
Core_0_LLC_prefetch_issued 0
Core_0_LLC_prefetch_useful 13436 LLC_Useful Ratio: inf
Core_0_LLC_prefetch_useless 39963
Core_0_LLC_prefetch_late 0
Core_0_LLC_average_miss_latency 180.70140

Core_0_major_page_fault 0
Core_0_minor_page_fault 3913

CPU 0 L1D berti prefetcher final stats
0-> Hits: 31, Late: 5, Early: 0, Misses: 0
1-> Hits: 3, Late: 0, Early: 0, Misses: 0
3-> Hits: 5, Late: 0, Early: 0, Misses: 0
4-> Hits: 2, Late: 0, Early: 0, Misses: 0
5-> Hits: 3, Late: 1, Early: 0, Misses: 0
6-> Hits: 1, Late: 0, Early: 0, Misses: 0
7-> Hits: 2, Late: 0, Early: 0, Misses: 0
8-> Hits: 130, Late: 68, Early: 0, Misses: 0
9-> Hits: 2, Late: 0, Early: 0, Misses: 0
a-> Hits: 0, Late: 2, Early: 0, Misses: 0
b-> Hits: 5, Late: 0, Early: 0, Misses: 0
d-> Hits: 159, Late: 31, Early: 0, Misses: 0
e-> Hits: 8, Late: 0, Early: 0, Misses: 0
10-> Hits: 2, Late: 0, Early: 0, Misses: 0
11-> Hits: 0, Late: 1, Early: 0, Misses: 0
12-> Hits: 138, Late: 56, Early: 0, Misses: 0
13-> Hits: 1, Late: 0, Early: 0, Misses: 0
14-> Hits: 2, Late: 0, Early: 0, Misses: 0
16-> Hits: 12, Late: 0, Early: 0, Misses: 0
17-> Hits: 3, Late: 0, Early: 0, Misses: 0
18-> Hits: 164, Late: 28, Early: 0, Misses: 0
1a-> Hits: 175, Late: 2, Early: 0, Misses: 0
1b-> Hits: 1, Late: 0, Early: 0, Misses: 0
1c-> Hits: 21, Late: 0, Early: 0, Misses: 0
1d-> Hits: 3, Late: 1, Early: 0, Misses: 0
1e-> Hits: 3, Late: 0, Early: 0, Misses: 0
1f-> Hits: 1, Late: 0, Early: 0, Misses: 0
20-> Hits: 2, Late: 1, Early: 0, Misses: 0
21-> Hits: 175, Late: 0, Early: 0, Misses: 0
22-> Hits: 2, Late: 2, Early: 0, Misses: 0
24-> Hits: 21, Late: 0, Early: 0, Misses: 0
25-> Hits: 3, Late: 0, Early: 0, Misses: 0
27-> Hits: 153, Late: 65, Early: 0, Misses: 0
28-> Hits: 10, Late: 0, Early: 0, Misses: 0
2a-> Hits: 191, Late: 1, Early: 0, Misses: 0
2b-> Hits: 6, Late: 0, Early: 0, Misses: 0
2c-> Hits: 162, Late: 27, Early: 0, Misses: 0
2d-> Hits: 1, Late: 0, Early: 0, Misses: 0
2f-> Hits: 19, Late: 0, Early: 0, Misses: 0
30-> Hits: 7, Late: 2, Early: 0, Misses: 0
31-> Hits: 125, Late: 68, Early: 0, Misses: 0
33-> Hits: 11, Late: 0, Early: 0, Misses: 0
34-> Hits: 11, Late: 1, Early: 0, Misses: 0
35-> Hits: 138, Late: 38, Early: 0, Misses: 2
36-> Hits: 2, Late: 0, Early: 0, Misses: 0
37-> Hits: 162, Late: 26, Early: 0, Misses: 0
38-> Hits: 4, Late: 0, Early: 0, Misses: 0
39-> Hits: 2, Late: 0, Early: 0, Misses: 0
3a-> Hits: 2, Late: 0, Early: 0, Misses: 0
3c-> Hits: 2, Late: 0, Early: 0, Misses: 0
3d-> Hits: 0, Late: 29, Early: 0, Misses: 0
3e-> Hits: 2, Late: 0, Early: 0, Misses: 0
3f-> Hits: 1, Late: 0, Early: 0, Misses: 0
40-> Hits: 2, Late: 2, Early: 0, Misses: 0
43-> Hits: 2, Late: 0, Early: 0, Misses: 0
44-> Hits: 3, Late: 0, Early: 0, Misses: 0
45-> Hits: 2, Late: 0, Early: 0, Misses: 0
46-> Hits: 136, Late: 59, Early: 0, Misses: 0
47-> Hits: 2, Late: 0, Early: 0, Misses: 0
48-> Hits: 34, Late: 0, Early: 0, Misses: 0
49-> Hits: 36, Late: 0, Early: 0, Misses: 0
4a-> Hits: 31, Late: 0, Early: 0, Misses: 0
4b-> Hits: 194, Late: 23, Early: 0, Misses: 0
4d-> Hits: 31, Late: 0, Early: 0, Misses: 0
4e-> Hits: 1, Late: 0, Early: 0, Misses: 0
4f-> Hits: 29, Late: 0, Early: 0, Misses: 0
50-> Hits: 116, Late: 86, Early: 0, Misses: 0
51-> Hits: 29, Late: 0, Early: 0, Misses: 0
52-> Hits: 16, Late: 0, Early: 0, Misses: 0
53-> Hits: 32, Late: 0, Early: 0, Misses: 0
54-> Hits: 3, Late: 0, Early: 0, Misses: 0
56-> Hits: 313, Late: 29, Early: 0, Misses: 0
58-> Hits: 16, Late: 0, Early: 0, Misses: 0
5a-> Hits: 2, Late: 0, Early: 0, Misses: 0
5c-> Hits: 9, Late: 1, Early: 0, Misses: 0
5d-> Hits: 4, Late: 0, Early: 0, Misses: 0
61-> Hits: 3, Late: 0, Early: 0, Misses: 0
62-> Hits: 2, Late: 0, Early: 0, Misses: 0
63-> Hits: 0, Late: 2, Early: 0, Misses: 0
64-> Hits: 177, Late: 2, Early: 0, Misses: 0
69-> Hits: 2, Late: 0, Early: 0, Misses: 0
6a-> Hits: 2, Late: 0, Early: 0, Misses: 0
6b-> Hits: 1, Late: 13, Early: 0, Misses: 0
6f-> Hits: 1, Late: 0, Early: 0, Misses: 0
70-> Hits: 222, Late: 1, Early: 0, Misses: 0
76-> Hits: 2, Late: 1, Early: 0, Misses: 0
77-> Hits: 2, Late: 0, Early: 0, Misses: 0
78-> Hits: 178, Late: 0, Early: 0, Misses: 0
79-> Hits: 1, Late: 0, Early: 0, Misses: 0
7a-> Hits: 3, Late: 0, Early: 0, Misses: 0
7b-> Hits: 3, Late: 2, Early: 0, Misses: 0
7c-> Hits: 1, Late: 0, Early: 0, Misses: 0
7d-> Hits: 1, Late: 0, Early: 0, Misses: 0
7e-> Hits: 3, Late: 0, Early: 0, Misses: 0
7f-> Hits: 5, Late: 0, Early: 0, Misses: 0
80-> Hits: 10247, Late: 1, Early: 0, Misses: 5
81-> Hits: 1, Late: 0, Early: 0, Misses: 0
82-> Hits: 2, Late: 0, Early: 0, Misses: 0
84-> Hits: 4, Late: 1, Early: 0, Misses: 0
86-> Hits: 1, Late: 0, Early: 0, Misses: 0
88-> Hits: 1473, Late: 144, Early: 0, Misses: 16
89-> Hits: 272, Late: 1, Early: 0, Misses: 0
8a-> Hits: 2, Late: 0, Early: 0, Misses: 0
8f-> Hits: 24, Late: 0, Early: 0, Misses: 0
90-> Hits: 0, Late: 1, Early: 0, Misses: 0
91-> Hits: 2, Late: 0, Early: 0, Misses: 0
92-> Hits: 10241, Late: 0, Early: 0, Misses: 0
94-> Hits: 23, Late: 0, Early: 0, Misses: 0
95-> Hits: 1, Late: 0, Early: 0, Misses: 0
96-> Hits: 3, Late: 0, Early: 0, Misses: 0
98-> Hits: 3, Late: 0, Early: 0, Misses: 0
99-> Hits: 1, Late: 0, Early: 0, Misses: 0
9a-> Hits: 5, Late: 0, Early: 0, Misses: 0
9b-> Hits: 3, Late: 0, Early: 0, Misses: 0
9c-> Hits: 1455, Late: 0, Early: 0, Misses: 0
9d-> Hits: 258, Late: 0, Early: 0, Misses: 0
9e-> Hits: 2, Late: 0, Early: 0, Misses: 0
9f-> Hits: 4, Late: 0, Early: 0, Misses: 0
a0-> Hits: 1, Late: 0, Early: 0, Misses: 0
a1-> Hits: 5, Late: 0, Early: 0, Misses: 0
a2-> Hits: 1, Late: 0, Early: 0, Misses: 0
a3-> Hits: 3, Late: 0, Early: 0, Misses: 0
a4-> Hits: 21, Late: 0, Early: 0, Misses: 0
a5-> Hits: 4, Late: 0, Early: 0, Misses: 0
a6-> Hits: 10242, Late: 0, Early: 0, Misses: 0
a7-> Hits: 4, Late: 0, Early: 0, Misses: 0
a8-> Hits: 3, Late: 0, Early: 0, Misses: 0
a9-> Hits: 4, Late: 0, Early: 0, Misses: 0
aa-> Hits: 3, Late: 0, Early: 0, Misses: 0
ab-> Hits: 5, Late: 0, Early: 0, Misses: 0
ac-> Hits: 4, Late: 1, Early: 0, Misses: 0
ad-> Hits: 4, Late: 0, Early: 0, Misses: 0
ae-> Hits: 7, Late: 0, Early: 0, Misses: 0
af-> Hits: 3, Late: 0, Early: 0, Misses: 0
b0-> Hits: 15, Late: 6, Early: 0, Misses: 0
b1-> Hits: 1, Late: 1, Early: 0, Misses: 0
b3-> Hits: 6, Late: 0, Early: 0, Misses: 0
b4-> Hits: 4, Late: 0, Early: 0, Misses: 0
b6-> Hits: 8911, Late: 1336, Early: 0, Misses: 0
b7-> Hits: 4, Late: 1, Early: 0, Misses: 0
b8-> Hits: 2, Late: 1, Early: 0, Misses: 0
ba-> Hits: 2, Late: 0, Early: 0, Misses: 0
bb-> Hits: 143, Late: 10098, Early: 0, Misses: 0
bc-> Hits: 2, Late: 0, Early: 0, Misses: 0
bf-> Hits: 1, Late: 0, Early: 0, Misses: 0
c0-> Hits: 11, Late: 31, Early: 0, Misses: 0
c1-> Hits: 1, Late: 0, Early: 0, Misses: 0
c2-> Hits: 5, Late: 1, Early: 0, Misses: 0
c3-> Hits: 6, Late: 0, Early: 0, Misses: 0
c4-> Hits: 180, Late: 0, Early: 0, Misses: 0
c5-> Hits: 1, Late: 0, Early: 0, Misses: 0
c6-> Hits: 4, Late: 0, Early: 0, Misses: 0
c7-> Hits: 5, Late: 0, Early: 0, Misses: 0
c8-> Hits: 10, Late: 0, Early: 0, Misses: 0
c9-> Hits: 1, Late: 0, Early: 0, Misses: 0
ca-> Hits: 0, Late: 1, Early: 0, Misses: 0
cb-> Hits: 218, Late: 10184, Early: 0, Misses: 15
cc-> Hits: 1, Late: 0, Early: 0, Misses: 0
cf-> Hits: 1, Late: 0, Early: 0, Misses: 0
d0-> Hits: 546, Late: 9694, Early: 0, Misses: 0
d1-> Hits: 4, Late: 0, Early: 0, Misses: 0
d2-> Hits: 6, Late: 0, Early: 0, Misses: 0
d3-> Hits: 29, Late: 0, Early: 0, Misses: 0
d4-> Hits: 1, Late: 0, Early: 0, Misses: 0
d5-> Hits: 2, Late: 0, Early: 0, Misses: 0
d6-> Hits: 2, Late: 0, Early: 0, Misses: 0
d7-> Hits: 1, Late: 0, Early: 0, Misses: 0
d8-> Hits: 1, Late: 0, Early: 0, Misses: 0
d9-> Hits: 119, Late: 47, Early: 0, Misses: 15
db-> Hits: 2, Late: 0, Early: 0, Misses: 0
dd-> Hits: 2, Late: 0, Early: 0, Misses: 0
df-> Hits: 1, Late: 0, Early: 0, Misses: 0
e0-> Hits: 12, Late: 6, Early: 0, Misses: 0
e1-> Hits: 1, Late: 0, Early: 0, Misses: 0
ea-> Hits: 2, Late: 0, Early: 0, Misses: 0
f3-> Hits: 177, Late: 1, Early: 0, Misses: 0
f4-> Hits: 1, Late: 0, Early: 0, Misses: 0
f6-> Hits: 2, Late: 0, Early: 0, Misses: 0
f7-> Hits: 4, Late: 0, Early: 0, Misses: 0
f8-> Hits: 3, Late: 0, Early: 0, Misses: 0
fa-> Hits: 2, Late: 0, Early: 0, Misses: 0
fb-> Hits: 21, Late: 0, Early: 0, Misses: 0
fc-> Hits: 1, Late: 0, Early: 0, Misses: 0
fd-> Hits: 2, Late: 0, Early: 0, Misses: 0
fe-> Hits: 1, Late: 0, Early: 0, Misses: 0
ff-> Hits: 4, Late: 0, Early: 0, Misses: 0
100-> Hits: 10, Late: 3, Early: 0, Misses: 0
101-> Hits: 1, Late: 0, Early: 0, Misses: 0
103-> Hits: 1, Late: 0, Early: 0, Misses: 0
104-> Hits: 0, Late: 1, Early: 0, Misses: 0
106-> Hits: 1, Late: 0, Early: 0, Misses: 0
107-> Hits: 1, Late: 0, Early: 0, Misses: 0
10a-> Hits: 1, Late: 0, Early: 0, Misses: 0
10b-> Hits: 3, Late: 0, Early: 0, Misses: 0
10d-> Hits: 3, Late: 0, Early: 0, Misses: 0
10e-> Hits: 1, Late: 0, Early: 0, Misses: 0
110-> Hits: 1, Late: 1, Early: 0, Misses: 0
112-> Hits: 12, Late: 1, Early: 0, Misses: 0
114-> Hits: 1, Late: 0, Early: 0, Misses: 0
115-> Hits: 1, Late: 0, Early: 0, Misses: 0
116-> Hits: 1, Late: 0, Early: 0, Misses: 0
117-> Hits: 3, Late: 0, Early: 0, Misses: 0
118-> Hits: 0, Late: 1, Early: 0, Misses: 0
11a-> Hits: 4, Late: 0, Early: 0, Misses: 0
11b-> Hits: 3, Late: 0, Early: 0, Misses: 0
11c-> Hits: 3, Late: 0, Early: 0, Misses: 0
11d-> Hits: 1, Late: 0, Early: 0, Misses: 0
11e-> Hits: 2, Late: 0, Early: 0, Misses: 0
11f-> Hits: 1, Late: 0, Early: 0, Misses: 0
120-> Hits: 2, Late: 2, Early: 0, Misses: 0
121-> Hits: 1, Late: 0, Early: 0, Misses: 0
122-> Hits: 2, Late: 0, Early: 0, Misses: 0
123-> Hits: 1, Late: 0, Early: 0, Misses: 0
124-> Hits: 3, Late: 0, Early: 0, Misses: 0
125-> Hits: 1, Late: 0, Early: 0, Misses: 0
126-> Hits: 1, Late: 0, Early: 0, Misses: 0
127-> Hits: 1, Late: 0, Early: 0, Misses: 0
128-> Hits: 177, Late: 0, Early: 0, Misses: 0
129-> Hits: 1, Late: 0, Early: 0, Misses: 0
12b-> Hits: 7, Late: 0, Early: 0, Misses: 0
12c-> Hits: 5, Late: 0, Early: 0, Misses: 0
12d-> Hits: 2, Late: 0, Early: 0, Misses: 0
12f-> Hits: 1, Late: 0, Early: 0, Misses: 0
130-> Hits: 2, Late: 1, Early: 0, Misses: 0
132-> Hits: 1, Late: 0, Early: 0, Misses: 0
133-> Hits: 1, Late: 0, Early: 0, Misses: 0
134-> Hits: 0, Late: 1, Early: 0, Misses: 0
136-> Hits: 1, Late: 0, Early: 0, Misses: 0
137-> Hits: 1, Late: 0, Early: 0, Misses: 0
138-> Hits: 1, Late: 0, Early: 0, Misses: 0
13a-> Hits: 3, Late: 0, Early: 0, Misses: 0
13c-> Hits: 1, Late: 0, Early: 0, Misses: 0
13e-> Hits: 1, Late: 0, Early: 0, Misses: 0
13f-> Hits: 1, Late: 0, Early: 0, Misses: 0
140-> Hits: 1, Late: 3, Early: 0, Misses: 0
142-> Hits: 4, Late: 0, Early: 0, Misses: 0
143-> Hits: 1, Late: 0, Early: 0, Misses: 0
144-> Hits: 0, Late: 2, Early: 0, Misses: 0
145-> Hits: 1, Late: 0, Early: 0, Misses: 0
147-> Hits: 18, Late: 0, Early: 0, Misses: 0
148-> Hits: 2, Late: 0, Early: 0, Misses: 0
149-> Hits: 4, Late: 0, Early: 0, Misses: 0
14a-> Hits: 5, Late: 0, Early: 0, Misses: 0
14d-> Hits: 0, Late: 1, Early: 0, Misses: 0
14f-> Hits: 17, Late: 0, Early: 0, Misses: 0
154-> Hits: 16, Late: 0, Early: 0, Misses: 0
155-> Hits: 2, Late: 2, Early: 0, Misses: 0
156-> Hits: 0, Late: 1, Early: 0, Misses: 0
159-> Hits: 20, Late: 0, Early: 0, Misses: 0
15b-> Hits: 2, Late: 0, Early: 0, Misses: 0
15d-> Hits: 3, Late: 0, Early: 0, Misses: 0
15f-> Hits: 1, Late: 0, Early: 0, Misses: 0
160-> Hits: 1, Late: 0, Early: 0, Misses: 0
163-> Hits: 1, Late: 0, Early: 0, Misses: 0
164-> Hits: 177, Late: 0, Early: 0, Misses: 0
165-> Hits: 2, Late: 0, Early: 0, Misses: 0
168-> Hits: 1, Late: 0, Early: 0, Misses: 0
169-> Hits: 16, Late: 0, Early: 0, Misses: 0
16a-> Hits: 16, Late: 1, Early: 0, Misses: 0
16b-> Hits: 18, Late: 0, Early: 0, Misses: 0
16d-> Hits: 32, Late: 0, Early: 0, Misses: 0
16e-> Hits: 149, Late: 28, Early: 0, Misses: 0
16f-> Hits: 18, Late: 0, Early: 0, Misses: 0
171-> Hits: 16, Late: 0, Early: 0, Misses: 0
172-> Hits: 2, Late: 0, Early: 0, Misses: 0
176-> Hits: 17, Late: 0, Early: 0, Misses: 0
177-> Hits: 17, Late: 0, Early: 0, Misses: 0
178-> Hits: 1, Late: 0, Early: 0, Misses: 0
17a-> Hits: 0, Late: 1, Early: 0, Misses: 0
17c-> Hits: 27, Late: 1, Early: 0, Misses: 0
17d-> Hits: 2, Late: 0, Early: 0, Misses: 0
17e-> Hits: 1, Late: 0, Early: 0, Misses: 0
180-> Hits: 13, Late: 6, Early: 0, Misses: 0
181-> Hits: 9, Late: 0, Early: 0, Misses: 0
184-> Hits: 5, Late: 0, Early: 0, Misses: 0
185-> Hits: 5, Late: 0, Early: 0, Misses: 0
188-> Hits: 2, Late: 0, Early: 0, Misses: 0
189-> Hits: 3, Late: 0, Early: 0, Misses: 0
18b-> Hits: 3, Late: 0, Early: 0, Misses: 0
18c-> Hits: 2, Late: 0, Early: 0, Misses: 0
18e-> Hits: 1, Late: 0, Early: 0, Misses: 0
18f-> Hits: 1, Late: 0, Early: 0, Misses: 0
190-> Hits: 10, Late: 1, Early: 0, Misses: 0
192-> Hits: 2, Late: 0, Early: 0, Misses: 0
194-> Hits: 16, Late: 1, Early: 0, Misses: 0
195-> Hits: 2, Late: 0, Early: 0, Misses: 0
197-> Hits: 9, Late: 0, Early: 0, Misses: 0
198-> Hits: 5, Late: 0, Early: 0, Misses: 0
199-> Hits: 6, Late: 16, Early: 0, Misses: 0
19a-> Hits: 3, Late: 0, Early: 0, Misses: 0
19b-> Hits: 8, Late: 0, Early: 0, Misses: 0
19c-> Hits: 3, Late: 0, Early: 0, Misses: 0
19d-> Hits: 12, Late: 1, Early: 0, Misses: 0
19e-> Hits: 2, Late: 0, Early: 0, Misses: 0
19f-> Hits: 4, Late: 0, Early: 0, Misses: 0
1a0-> Hits: 4, Late: 0, Early: 0, Misses: 0
1a1-> Hits: 5, Late: 0, Early: 0, Misses: 0
1a2-> Hits: 8, Late: 0, Early: 0, Misses: 0
1a4-> Hits: 7, Late: 1, Early: 0, Misses: 0
1a5-> Hits: 1, Late: 0, Early: 0, Misses: 0
1a6-> Hits: 2, Late: 0, Early: 0, Misses: 0
1a7-> Hits: 4, Late: 0, Early: 0, Misses: 0
1a8-> Hits: 3, Late: 0, Early: 0, Misses: 0
1a9-> Hits: 9, Late: 0, Early: 0, Misses: 0
1ad-> Hits: 15, Late: 1, Early: 0, Misses: 0
1ae-> Hits: 2, Late: 0, Early: 0, Misses: 0
1af-> Hits: 7, Late: 0, Early: 0, Misses: 0
1b0-> Hits: 5, Late: 2, Early: 0, Misses: 0
1b1-> Hits: 5, Late: 0, Early: 0, Misses: 0
1b2-> Hits: 1, Late: 0, Early: 0, Misses: 0
1b3-> Hits: 3, Late: 0, Early: 0, Misses: 0
1b5-> Hits: 2, Late: 2, Early: 0, Misses: 0
1b6-> Hits: 2, Late: 1, Early: 0, Misses: 0
1b7-> Hits: 9, Late: 18, Early: 0, Misses: 0
1b8-> Hits: 2, Late: 2, Early: 0, Misses: 0
1b9-> Hits: 1, Late: 0, Early: 0, Misses: 0
1ba-> Hits: 4, Late: 0, Early: 0, Misses: 0
1bd-> Hits: 5, Late: 0, Early: 0, Misses: 0
1be-> Hits: 5, Late: 0, Early: 0, Misses: 0
1bf-> Hits: 7, Late: 0, Early: 0, Misses: 0
1c0-> Hits: 3, Late: 3, Early: 0, Misses: 0
1c2-> Hits: 16, Late: 2, Early: 0, Misses: 0
1c3-> Hits: 6, Late: 0, Early: 0, Misses: 0
1c4-> Hits: 3, Late: 0, Early: 0, Misses: 0
1c5-> Hits: 1, Late: 1, Early: 0, Misses: 0
1c6-> Hits: 4, Late: 0, Early: 0, Misses: 0
1c7-> Hits: 18, Late: 2, Early: 0, Misses: 0
1c8-> Hits: 4, Late: 0, Early: 0, Misses: 0
1c9-> Hits: 1, Late: 0, Early: 0, Misses: 0
1ca-> Hits: 2, Late: 0, Early: 0, Misses: 0
1cc-> Hits: 1, Late: 2, Early: 0, Misses: 0
1cd-> Hits: 8, Late: 0, Early: 0, Misses: 0
1ce-> Hits: 3, Late: 0, Early: 0, Misses: 0
1d0-> Hits: 12, Late: 1, Early: 0, Misses: 0
1d4-> Hits: 1, Late: 0, Early: 0, Misses: 0
1d6-> Hits: 5, Late: 0, Early: 0, Misses: 0
1d7-> Hits: 1, Late: 0, Early: 0, Misses: 0
1d8-> Hits: 7, Late: 0, Early: 0, Misses: 0
1da-> Hits: 3, Late: 0, Early: 0, Misses: 0
1db-> Hits: 5, Late: 1, Early: 0, Misses: 0
1dd-> Hits: 1, Late: 0, Early: 0, Misses: 0
1de-> Hits: 10, Late: 1, Early: 0, Misses: 0
1df-> Hits: 13, Late: 0, Early: 0, Misses: 0
1e0-> Hits: 6, Late: 1, Early: 0, Misses: 0
1e1-> Hits: 8, Late: 1, Early: 0, Misses: 0
1e2-> Hits: 1, Late: 1, Early: 0, Misses: 0
1e4-> Hits: 0, Late: 1, Early: 0, Misses: 0
1e5-> Hits: 1, Late: 1, Early: 0, Misses: 0
1e8-> Hits: 0, Late: 1, Early: 0, Misses: 0
1ea-> Hits: 0, Late: 1, Early: 0, Misses: 0
1eb-> Hits: 5, Late: 0, Early: 0, Misses: 0
1ec-> Hits: 2, Late: 0, Early: 0, Misses: 0
1ef-> Hits: 19, Late: 0, Early: 0, Misses: 0
1f0-> Hits: 140, Late: 52, Early: 0, Misses: 0
1f1-> Hits: 1, Late: 1, Early: 0, Misses: 0
1f2-> Hits: 1, Late: 0, Early: 0, Misses: 0
1f4-> Hits: 118, Late: 53, Early: 0, Misses: 0
1f6-> Hits: 1, Late: 0, Early: 0, Misses: 0
1f7-> Hits: 15, Late: 1, Early: 0, Misses: 0
1f8-> Hits: 3, Late: 1, Early: 0, Misses: 0
1f9-> Hits: 2, Late: 0, Early: 0, Misses: 0
1fa-> Hits: 1, Late: 0, Early: 0, Misses: 0
1fc-> Hits: 17, Late: 1, Early: 0, Misses: 0
1fd-> Hits: 0, Late: 1, Early: 0, Misses: 0
1fe-> Hits: 25, Late: 0, Early: 0, Misses: 0
200-> Hits: 1, Late: 0, Early: 0, Misses: 0
201-> Hits: 4, Late: 0, Early: 0, Misses: 0
202-> Hits: 0, Late: 1, Early: 0, Misses: 0
203-> Hits: 15, Late: 0, Early: 0, Misses: 0
205-> Hits: 3, Late: 0, Early: 0, Misses: 0
206-> Hits: 4, Late: 1, Early: 0, Misses: 0
207-> Hits: 11, Late: 0, Early: 0, Misses: 0
208-> Hits: 24, Late: 1, Early: 0, Misses: 0
20a-> Hits: 5, Late: 0, Early: 0, Misses: 0
20c-> Hits: 5, Late: 0, Early: 0, Misses: 0
20e-> Hits: 6, Late: 0, Early: 0, Misses: 0
20f-> Hits: 13, Late: 3, Early: 0, Misses: 0
210-> Hits: 3, Late: 3, Early: 0, Misses: 0
212-> Hits: 5, Late: 0, Early: 0, Misses: 0
214-> Hits: 33, Late: 14, Early: 0, Misses: 0
216-> Hits: 3, Late: 0, Early: 0, Misses: 0
217-> Hits: 12, Late: 1, Early: 0, Misses: 0
218-> Hits: 3, Late: 0, Early: 0, Misses: 0
219-> Hits: 0, Late: 1, Early: 0, Misses: 0
21a-> Hits: 8, Late: 1, Early: 0, Misses: 0
21d-> Hits: 2, Late: 0, Early: 0, Misses: 0
21f-> Hits: 8, Late: 1, Early: 0, Misses: 0
220-> Hits: 6, Late: 4, Early: 0, Misses: 0
221-> Hits: 4, Late: 1, Early: 0, Misses: 0
224-> Hits: 2, Late: 1, Early: 0, Misses: 0
225-> Hits: 7, Late: 0, Early: 0, Misses: 0
226-> Hits: 1, Late: 0, Early: 0, Misses: 0
227-> Hits: 0, Late: 1, Early: 0, Misses: 0
228-> Hits: 1, Late: 0, Early: 0, Misses: 0
22a-> Hits: 3, Late: 0, Early: 0, Misses: 0
22b-> Hits: 7, Late: 1, Early: 0, Misses: 0
22c-> Hits: 5, Late: 0, Early: 0, Misses: 0
22d-> Hits: 3, Late: 0, Early: 0, Misses: 0
22e-> Hits: 1, Late: 0, Early: 0, Misses: 0
22f-> Hits: 3, Late: 0, Early: 0, Misses: 0
230-> Hits: 4, Late: 1, Early: 0, Misses: 0
231-> Hits: 7, Late: 0, Early: 0, Misses: 0
232-> Hits: 4, Late: 0, Early: 0, Misses: 0
233-> Hits: 4, Late: 0, Early: 0, Misses: 0
234-> Hits: 1, Late: 0, Early: 0, Misses: 0
235-> Hits: 1, Late: 0, Early: 0, Misses: 0
236-> Hits: 1, Late: 0, Early: 0, Misses: 0
23a-> Hits: 4, Late: 8, Early: 0, Misses: 0
23b-> Hits: 4, Late: 0, Early: 0, Misses: 0
23c-> Hits: 5, Late: 0, Early: 0, Misses: 0
23d-> Hits: 21, Late: 0, Early: 0, Misses: 0
23e-> Hits: 6, Late: 0, Early: 0, Misses: 0
23f-> Hits: 9, Late: 0, Early: 0, Misses: 0
240-> Hits: 11, Late: 5, Early: 0, Misses: 0
241-> Hits: 2, Late: 0, Early: 0, Misses: 0
245-> Hits: 4, Late: 0, Early: 0, Misses: 1
246-> Hits: 4, Late: 0, Early: 0, Misses: 0
247-> Hits: 1, Late: 0, Early: 0, Misses: 0
248-> Hits: 4, Late: 0, Early: 0, Misses: 0
249-> Hits: 2, Late: 0, Early: 0, Misses: 0
24a-> Hits: 1, Late: 1, Early: 0, Misses: 0
24b-> Hits: 1, Late: 0, Early: 0, Misses: 0
24d-> Hits: 2, Late: 0, Early: 0, Misses: 0
24e-> Hits: 1, Late: 0, Early: 0, Misses: 0
24f-> Hits: 6, Late: 0, Early: 0, Misses: 0
250-> Hits: 4, Late: 1, Early: 0, Misses: 0
251-> Hits: 4, Late: 0, Early: 0, Misses: 0
252-> Hits: 4, Late: 1, Early: 0, Misses: 0
253-> Hits: 1, Late: 0, Early: 0, Misses: 0
254-> Hits: 4, Late: 0, Early: 0, Misses: 0
255-> Hits: 2, Late: 1, Early: 0, Misses: 0
256-> Hits: 3, Late: 0, Early: 0, Misses: 0
258-> Hits: 4, Late: 0, Early: 0, Misses: 0
25a-> Hits: 3, Late: 0, Early: 0, Misses: 0
25c-> Hits: 1, Late: 0, Early: 0, Misses: 0
25d-> Hits: 1, Late: 0, Early: 0, Misses: 0
25e-> Hits: 1, Late: 0, Early: 0, Misses: 0
25f-> Hits: 1, Late: 2, Early: 0, Misses: 0
260-> Hits: 9, Late: 3, Early: 0, Misses: 0
261-> Hits: 1, Late: 0, Early: 0, Misses: 0
263-> Hits: 9, Late: 1, Early: 0, Misses: 0
264-> Hits: 2, Late: 0, Early: 0, Misses: 0
265-> Hits: 3, Late: 0, Early: 0, Misses: 0
266-> Hits: 4, Late: 0, Early: 0, Misses: 0
267-> Hits: 6, Late: 0, Early: 0, Misses: 0
268-> Hits: 5, Late: 0, Early: 0, Misses: 0
269-> Hits: 1, Late: 0, Early: 0, Misses: 0
26a-> Hits: 2, Late: 0, Early: 0, Misses: 0
26b-> Hits: 1, Late: 0, Early: 0, Misses: 0
26d-> Hits: 16, Late: 0, Early: 0, Misses: 0
26e-> Hits: 0, Late: 0, Early: 0, Misses: 16
270-> Hits: 18, Late: 1, Early: 0, Misses: 0
271-> Hits: 1, Late: 0, Early: 0, Misses: 0
274-> Hits: 1, Late: 0, Early: 0, Misses: 0
275-> Hits: 16, Late: 0, Early: 0, Misses: 0
276-> Hits: 1, Late: 0, Early: 0, Misses: 0
278-> Hits: 1, Late: 0, Early: 0, Misses: 0
27a-> Hits: 16, Late: 0, Early: 0, Misses: 0
27b-> Hits: 5, Late: 0, Early: 0, Misses: 0
27c-> Hits: 2, Late: 0, Early: 0, Misses: 0
27d-> Hits: 175, Late: 1, Early: 0, Misses: 1
27e-> Hits: 6, Late: 0, Early: 0, Misses: 0
27f-> Hits: 16, Late: 0, Early: 0, Misses: 0
280-> Hits: 0, Late: 2, Early: 0, Misses: 0
281-> Hits: 1, Late: 0, Early: 0, Misses: 0
282-> Hits: 5, Late: 0, Early: 0, Misses: 0
284-> Hits: 4, Late: 0, Early: 0, Misses: 0
285-> Hits: 20, Late: 1, Early: 0, Misses: 0
289-> Hits: 0, Late: 1, Early: 0, Misses: 0
28a-> Hits: 3, Late: 0, Early: 0, Misses: 0
28f-> Hits: 10, Late: 0, Early: 0, Misses: 0
290-> Hits: 1, Late: 0, Early: 0, Misses: 0
291-> Hits: 1, Late: 0, Early: 0, Misses: 0
293-> Hits: 1, Late: 0, Early: 0, Misses: 0
294-> Hits: 1, Late: 0, Early: 0, Misses: 0
297-> Hits: 1, Late: 0, Early: 0, Misses: 0
298-> Hits: 1, Late: 0, Early: 0, Misses: 0
299-> Hits: 1, Late: 0, Early: 0, Misses: 0
29a-> Hits: 1, Late: 0, Early: 0, Misses: 0
29d-> Hits: 11, Late: 2, Early: 0, Misses: 0
29e-> Hits: 2, Late: 0, Early: 0, Misses: 0
29f-> Hits: 5, Late: 0, Early: 0, Misses: 0
2a0-> Hits: 2, Late: 1, Early: 0, Misses: 0
2a1-> Hits: 2, Late: 0, Early: 0, Misses: 0
2a2-> Hits: 6, Late: 0, Early: 0, Misses: 0
2a4-> Hits: 4, Late: 0, Early: 0, Misses: 0
2a5-> Hits: 1, Late: 0, Early: 0, Misses: 0
2a6-> Hits: 3, Late: 0, Early: 0, Misses: 0
2a7-> Hits: 5, Late: 0, Early: 0, Misses: 0
2a8-> Hits: 1, Late: 0, Early: 0, Misses: 0
2a9-> Hits: 7, Late: 0, Early: 0, Misses: 0
2aa-> Hits: 5, Late: 0, Early: 0, Misses: 0
2ad-> Hits: 1, Late: 1, Early: 0, Misses: 0
2ae-> Hits: 176, Late: 0, Early: 0, Misses: 0
2af-> Hits: 1, Late: 1, Early: 0, Misses: 0
2b1-> Hits: 1, Late: 1, Early: 0, Misses: 0
2b3-> Hits: 1, Late: 1, Early: 0, Misses: 0
2b6-> Hits: 1, Late: 1, Early: 0, Misses: 0
2b7-> Hits: 0, Late: 1, Early: 0, Misses: 0
2bd-> Hits: 16, Late: 0, Early: 0, Misses: 0
2c0-> Hits: 3, Late: 1, Early: 0, Misses: 0
2c1-> Hits: 2, Late: 1, Early: 0, Misses: 0
2c3-> Hits: 1, Late: 0, Early: 0, Misses: 0
2c5-> Hits: 9, Late: 2, Early: 0, Misses: 0
2c6-> Hits: 3, Late: 0, Early: 0, Misses: 0
2c7-> Hits: 1, Late: 0, Early: 0, Misses: 0
2c8-> Hits: 2, Late: 0, Early: 0, Misses: 0
2c9-> Hits: 6, Late: 0, Early: 0, Misses: 0
2ca-> Hits: 2, Late: 0, Early: 0, Misses: 0
2cc-> Hits: 2, Late: 1, Early: 0, Misses: 0
2cd-> Hits: 1, Late: 2, Early: 0, Misses: 0
2d1-> Hits: 1, Late: 1, Early: 0, Misses: 0
2d3-> Hits: 0, Late: 1, Early: 0, Misses: 0
2d6-> Hits: 2, Late: 1, Early: 0, Misses: 0
2d8-> Hits: 1, Late: 0, Early: 0, Misses: 0
2da-> Hits: 2, Late: 0, Early: 0, Misses: 0
2db-> Hits: 3, Late: 0, Early: 0, Misses: 0
2dc-> Hits: 4, Late: 0, Early: 0, Misses: 0
2de-> Hits: 2, Late: 0, Early: 0, Misses: 0
2df-> Hits: 3, Late: 1, Early: 0, Misses: 0
2e0-> Hits: 4, Late: 1, Early: 0, Misses: 0
2e2-> Hits: 3, Late: 0, Early: 0, Misses: 0
2e4-> Hits: 2, Late: 0, Early: 0, Misses: 0
2e5-> Hits: 2, Late: 0, Early: 0, Misses: 0
2e6-> Hits: 5, Late: 1, Early: 0, Misses: 0
2e9-> Hits: 2, Late: 0, Early: 0, Misses: 0
2ea-> Hits: 1, Late: 0, Early: 0, Misses: 0
2ed-> Hits: 1, Late: 0, Early: 0, Misses: 0
2ee-> Hits: 1, Late: 0, Early: 0, Misses: 0
2ef-> Hits: 1, Late: 0, Early: 0, Misses: 0
2f0-> Hits: 1, Late: 1, Early: 0, Misses: 0
2f1-> Hits: 2, Late: 0, Early: 0, Misses: 0
2f2-> Hits: 2, Late: 0, Early: 0, Misses: 0
2f3-> Hits: 29, Late: 0, Early: 0, Misses: 0
2f4-> Hits: 10, Late: 0, Early: 0, Misses: 0
2f5-> Hits: 13, Late: 0, Early: 0, Misses: 0
2f6-> Hits: 10, Late: 0, Early: 0, Misses: 0
2f7-> Hits: 18, Late: 0, Early: 0, Misses: 0
2f8-> Hits: 10, Late: 0, Early: 0, Misses: 0
2fa-> Hits: 10, Late: 0, Early: 0, Misses: 0
2fb-> Hits: 30, Late: 1, Early: 0, Misses: 0
300-> Hits: 10237, Late: 1, Early: 0, Misses: 3
301-> Hits: 2, Late: 0, Early: 0, Misses: 0
302-> Hits: 2, Late: 0, Early: 0, Misses: 0
304-> Hits: 5340, Late: 326, Early: 0, Misses: 0
305-> Hits: 10, Late: 0, Early: 0, Misses: 0
306-> Hits: 2, Late: 0, Early: 0, Misses: 0
308-> Hits: 1, Late: 1, Early: 0, Misses: 0
309-> Hits: 1399, Late: 4295, Early: 0, Misses: 0
30a-> Hits: 2, Late: 0, Early: 0, Misses: 0
30b-> Hits: 2, Late: 0, Early: 0, Misses: 0
30c-> Hits: 1, Late: 0, Early: 0, Misses: 0
30f-> Hits: 1313, Late: 3814, Early: 0, Misses: 0
310-> Hits: 1, Late: 1, Early: 0, Misses: 0
312-> Hits: 3, Late: 0, Early: 0, Misses: 0
313-> Hits: 1, Late: 0, Early: 0, Misses: 0
314-> Hits: 1427, Late: 4027, Early: 0, Misses: 16
315-> Hits: 352, Late: 0, Early: 0, Misses: 0
316-> Hits: 3, Late: 0, Early: 0, Misses: 0
317-> Hits: 8, Late: 3, Early: 0, Misses: 0
318-> Hits: 13, Late: 1, Early: 0, Misses: 0
319-> Hits: 7, Late: 0, Early: 0, Misses: 0
31a-> Hits: 763, Late: 9829, Early: 0, Misses: 0
31b-> Hits: 5, Late: 0, Early: 0, Misses: 0
31d-> Hits: 5, Late: 0, Early: 0, Misses: 0
31f-> Hits: 548, Late: 9702, Early: 0, Misses: 0
320-> Hits: 274, Late: 0, Early: 0, Misses: 0
324-> Hits: 1, Late: 0, Early: 0, Misses: 0
325-> Hits: 293, Late: 9948, Early: 0, Misses: 0
326-> Hits: 2, Late: 0, Early: 0, Misses: 0
327-> Hits: 1, Late: 0, Early: 0, Misses: 0
32a-> Hits: 344, Late: 9896, Early: 0, Misses: 0
32c-> Hits: 1, Late: 0, Early: 0, Misses: 0
32d-> Hits: 1, Late: 0, Early: 0, Misses: 0
32f-> Hits: 1, Late: 0, Early: 0, Misses: 0
330-> Hits: 4, Late: 1, Early: 0, Misses: 0
332-> Hits: 5, Late: 0, Early: 0, Misses: 0
333-> Hits: 2, Late: 0, Early: 0, Misses: 0
334-> Hits: 10239, Late: 0, Early: 0, Misses: 5
335-> Hits: 5, Late: 0, Early: 0, Misses: 0
336-> Hits: 1, Late: 0, Early: 0, Misses: 0
338-> Hits: 4, Late: 0, Early: 0, Misses: 0
339-> Hits: 1, Late: 0, Early: 0, Misses: 0
33a-> Hits: 6, Late: 0, Early: 0, Misses: 0
33c-> Hits: 1, Late: 0, Early: 0, Misses: 0
33d-> Hits: 2, Late: 0, Early: 0, Misses: 0
33f-> Hits: 1, Late: 0, Early: 0, Misses: 0
340-> Hits: 2, Late: 2, Early: 0, Misses: 0
341-> Hits: 3, Late: 0, Early: 0, Misses: 0
344-> Hits: 2, Late: 2, Early: 0, Misses: 0
347-> Hits: 4, Late: 2, Early: 0, Misses: 0
34a-> Hits: 4, Late: 0, Early: 0, Misses: 0
34b-> Hits: 2, Late: 0, Early: 0, Misses: 0
34c-> Hits: 4, Late: 0, Early: 0, Misses: 0
34d-> Hits: 3, Late: 2, Early: 0, Misses: 0
34e-> Hits: 1, Late: 0, Early: 0, Misses: 0
34f-> Hits: 160801, Late: 3024, Early: 0, Misses: 196
350-> Hits: 197, Late: 2, Early: 0, Misses: 0
351-> Hits: 1, Late: 0, Early: 0, Misses: 0
352-> Hits: 0, Late: 1, Early: 0, Misses: 0
353-> Hits: 3, Late: 0, Early: 0, Misses: 0
355-> Hits: 0, Late: 1, Early: 0, Misses: 0
356-> Hits: 27753, Late: 37, Early: 0, Misses: 5
357-> Hits: 176, Late: 0, Early: 0, Misses: 0
358-> Hits: 2, Late: 0, Early: 0, Misses: 0
359-> Hits: 5, Late: 1, Early: 0, Misses: 0
35a-> Hits: 172, Late: 0, Early: 0, Misses: 0
35c-> Hits: 163841, Late: 1, Early: 0, Misses: 0
35d-> Hits: 135, Late: 41, Early: 0, Misses: 0
360-> Hits: 15, Late: 0, Early: 0, Misses: 0
361-> Hits: 4, Late: 0, Early: 0, Misses: 0
362-> Hits: 4, Late: 0, Early: 0, Misses: 0
363-> Hits: 9, Late: 0, Early: 0, Misses: 0
364-> Hits: 4, Late: 0, Early: 0, Misses: 0
366-> Hits: 4, Late: 1, Early: 0, Misses: 0
367-> Hits: 1, Late: 0, Early: 0, Misses: 0
368-> Hits: 6, Late: 0, Early: 0, Misses: 0
36a-> Hits: 4, Late: 0, Early: 0, Misses: 0
36c-> Hits: 9, Late: 0, Early: 0, Misses: 0
36d-> Hits: 0, Late: 1, Early: 0, Misses: 0
36e-> Hits: 0, Late: 1, Early: 0, Misses: 0
36f-> Hits: 1, Late: 0, Early: 0, Misses: 0
370-> Hits: 3, Late: 0, Early: 0, Misses: 0
372-> Hits: 41671, Late: 7, Early: 0, Misses: 4
374-> Hits: 2, Late: 0, Early: 0, Misses: 0
375-> Hits: 3, Late: 0, Early: 0, Misses: 0
376-> Hits: 3, Late: 1, Early: 0, Misses: 0
377-> Hits: 2, Late: 0, Early: 0, Misses: 0
379-> Hits: 2, Late: 1, Early: 0, Misses: 0
37a-> Hits: 8, Late: 1, Early: 0, Misses: 0
37b-> Hits: 3, Late: 0, Early: 0, Misses: 0
37d-> Hits: 3, Late: 1, Early: 0, Misses: 0
37f-> Hits: 2, Late: 2, Early: 0, Misses: 0
380-> Hits: 2, Late: 0, Early: 0, Misses: 0
382-> Hits: 1, Late: 0, Early: 0, Misses: 0
383-> Hits: 0, Late: 2, Early: 0, Misses: 0
385-> Hits: 3, Late: 2, Early: 0, Misses: 0
386-> Hits: 3, Late: 0, Early: 0, Misses: 0
387-> Hits: 24658, Late: 59, Early: 0, Misses: 12
388-> Hits: 1, Late: 0, Early: 0, Misses: 0
389-> Hits: 6, Late: 1, Early: 0, Misses: 0
38b-> Hits: 5, Late: 0, Early: 0, Misses: 0
38d-> Hits: 163827, Late: 16, Early: 0, Misses: 0
38e-> Hits: 1, Late: 0, Early: 0, Misses: 0
38f-> Hits: 3, Late: 0, Early: 0, Misses: 0
390-> Hits: 1, Late: 2, Early: 0, Misses: 0
391-> Hits: 5, Late: 0, Early: 0, Misses: 0
392-> Hits: 1, Late: 0, Early: 0, Misses: 0
393-> Hits: 2, Late: 0, Early: 0, Misses: 0
394-> Hits: 4, Late: 0, Early: 0, Misses: 0
395-> Hits: 1, Late: 0, Early: 0, Misses: 0
396-> Hits: 5, Late: 1, Early: 0, Misses: 0
398-> Hits: 1, Late: 0, Early: 0, Misses: 0
399-> Hits: 163610, Late: 0, Early: 0, Misses: 0
39a-> Hits: 1, Late: 1, Early: 0, Misses: 0
39b-> Hits: 1, Late: 0, Early: 0, Misses: 0
39c-> Hits: 1, Late: 0, Early: 0, Misses: 0
39d-> Hits: 1, Late: 0, Early: 0, Misses: 0
3a0-> Hits: 1, Late: 2, Early: 0, Misses: 0
3a2-> Hits: 1, Late: 0, Early: 0, Misses: 0
3a3-> Hits: 162270, Late: 0, Early: 0, Misses: 0
3a7-> Hits: 3, Late: 0, Early: 0, Misses: 0
3aa-> Hits: 3, Late: 0, Early: 0, Misses: 0
3ab-> Hits: 1, Late: 0, Early: 0, Misses: 0
3ac-> Hits: 17001, Late: 0, Early: 0, Misses: 0
3af-> Hits: 1, Late: 0, Early: 0, Misses: 0
3b0-> Hits: 3, Late: 0, Early: 0, Misses: 0
3b1-> Hits: 130647, Late: 48, Early: 0, Misses: 30
3b2-> Hits: 2, Late: 0, Early: 0, Misses: 0
3b3-> Hits: 1, Late: 0, Early: 0, Misses: 0
3b5-> Hits: 1, Late: 0, Early: 0, Misses: 0
3b7-> Hits: 1, Late: 0, Early: 0, Misses: 0
3b9-> Hits: 3, Late: 0, Early: 0, Misses: 0
3c0-> Hits: 13, Late: 0, Early: 0, Misses: 0
3c6-> Hits: 20074, Late: 16, Early: 0, Misses: 5
3c8-> Hits: 1, Late: 0, Early: 0, Misses: 0
3ca-> Hits: 5, Late: 0, Early: 0, Misses: 0
3cb-> Hits: 1, Late: 0, Early: 0, Misses: 0
3cd-> Hits: 6, Late: 0, Early: 0, Misses: 0
3ce-> Hits: 1, Late: 0, Early: 0, Misses: 0
3cf-> Hits: 1, Late: 1, Early: 0, Misses: 0
3d0-> Hits: 4, Late: 0, Early: 0, Misses: 0
3d6-> Hits: 2, Late: 0, Early: 0, Misses: 0
3db-> Hits: 33436, Late: 94, Early: 0, Misses: 18
3dc-> Hits: 1, Late: 0, Early: 0, Misses: 0
3dd-> Hits: 4, Late: 0, Early: 0, Misses: 0
3e0-> Hits: 131080, Late: 1, Early: 0, Misses: 0
3e1-> Hits: 163825, Late: 16, Early: 0, Misses: 0
3e4-> Hits: 2, Late: 0, Early: 0, Misses: 0
3e5-> Hits: 2, Late: 0, Early: 0, Misses: 0
3e6-> Hits: 2, Late: 0, Early: 0, Misses: 0
3e8-> Hits: 2, Late: 0, Early: 0, Misses: 0
3ea-> Hits: 2, Late: 0, Early: 0, Misses: 0
3eb-> Hits: 1, Late: 0, Early: 0, Misses: 0
3ec-> Hits: 2, Late: 0, Early: 0, Misses: 0
3ed-> Hits: 1, Late: 0, Early: 0, Misses: 0
3ee-> Hits: 2, Late: 0, Early: 0, Misses: 0
3ef-> Hits: 7, Late: 0, Early: 0, Misses: 0
3f0-> Hits: 11, Late: 4, Early: 0, Misses: 0
3f5-> Hits: 1, Late: 0, Early: 0, Misses: 0
3f7-> Hits: 49423, Late: 75, Early: 0, Misses: 26
3fe-> Hits: 2, Late: 0, Early: 0, Misses: 0
3ff-> Hits: 1, Late: 0, Early: 0, Misses: 0
400-> Hits: 5, Late: 0, Early: 0, Misses: 0
401-> Hits: 4, Late: 0, Early: 0, Misses: 0
402-> Hits: 162926, Late: 0, Early: 0, Misses: 0
403-> Hits: 5, Late: 0, Early: 0, Misses: 8
404-> Hits: 16, Late: 0, Early: 0, Misses: 0
405-> Hits: 1, Late: 1, Early: 0, Misses: 0
406-> Hits: 16, Late: 0, Early: 0, Misses: 0
408-> Hits: 17, Late: 0, Early: 0, Misses: 0
40a-> Hits: 16, Late: 0, Early: 0, Misses: 0
40b-> Hits: 2, Late: 2, Early: 0, Misses: 0
40c-> Hits: 18120, Late: 0, Early: 0, Misses: 0
40d-> Hits: 1, Late: 0, Early: 0, Misses: 0
40e-> Hits: 2, Late: 0, Early: 0, Misses: 0
40f-> Hits: 0, Late: 0, Early: 0, Misses: 12
410-> Hits: 18, Late: 0, Early: 0, Misses: 0
413-> Hits: 1, Late: 0, Early: 0, Misses: 0
416-> Hits: 163834, Late: 0, Early: 0, Misses: 0
419-> Hits: 3, Late: 0, Early: 0, Misses: 0
41a-> Hits: 2, Late: 0, Early: 0, Misses: 0
41c-> Hits: 2, Late: 0, Early: 0, Misses: 0
41e-> Hits: 121602, Late: 28, Early: 0, Misses: 25
420-> Hits: 6, Late: 0, Early: 0, Misses: 0
422-> Hits: 2, Late: 0, Early: 0, Misses: 0
424-> Hits: 9, Late: 0, Early: 0, Misses: 0
426-> Hits: 2, Late: 0, Early: 0, Misses: 0
427-> Hits: 2, Late: 0, Early: 0, Misses: 0
428-> Hits: 5, Late: 2, Early: 0, Misses: 0
42a-> Hits: 2, Late: 0, Early: 0, Misses: 0
42b-> Hits: 3, Late: 0, Early: 0, Misses: 0
42c-> Hits: 2, Late: 0, Early: 0, Misses: 0
42d-> Hits: 1, Late: 0, Early: 0, Misses: 0
42e-> Hits: 163826, Late: 16, Early: 0, Misses: 0
430-> Hits: 37476, Late: 203, Early: 0, Misses: 454
434-> Hits: 37366, Late: 93, Early: 0, Misses: 229
437-> Hits: 1, Late: 0, Early: 0, Misses: 0
438-> Hits: 3, Late: 0, Early: 0, Misses: 0
439-> Hits: 495, Late: 2, Early: 0, Misses: 2
43a-> Hits: 36438, Late: 5, Early: 0, Misses: 1
43b-> Hits: 3, Late: 1, Early: 0, Misses: 0
43f-> Hits: 1, Late: 0, Early: 0, Misses: 0
440-> Hits: 9, Late: 4, Early: 0, Misses: 0
441-> Hits: 37946, Late: 24, Early: 0, Misses: 26
443-> Hits: 7, Late: 1, Early: 0, Misses: 0
444-> Hits: 1, Late: 0, Early: 0, Misses: 0
447-> Hits: 4, Late: 0, Early: 0, Misses: 0
448-> Hits: 6, Late: 0, Early: 0, Misses: 0
44a-> Hits: 3, Late: 0, Early: 0, Misses: 0
44b-> Hits: 3, Late: 0, Early: 0, Misses: 0
44c-> Hits: 1, Late: 1, Early: 0, Misses: 0
44f-> Hits: 22380, Late: 29, Early: 0, Misses: 4
450-> Hits: 8, Late: 0, Early: 0, Misses: 0
451-> Hits: 33891, Late: 2940, Early: 0, Misses: 1302
453-> Hits: 4, Late: 0, Early: 0, Misses: 0
454-> Hits: 30, Late: 28, Early: 0, Misses: 0
455-> Hits: 37257, Late: 506, Early: 0, Misses: 234
457-> Hits: 1, Late: 0, Early: 0, Misses: 0
458-> Hits: 2, Late: 0, Early: 0, Misses: 0
459-> Hits: 10, Late: 1, Early: 0, Misses: 0
45a-> Hits: 11, Late: 0, Early: 0, Misses: 0
45b-> Hits: 26, Late: 0, Early: 0, Misses: 0
45d-> Hits: 23, Late: 0, Early: 0, Misses: 0
45e-> Hits: 1, Late: 0, Early: 0, Misses: 0
45f-> Hits: 3, Late: 0, Early: 0, Misses: 0
460-> Hits: 4, Late: 0, Early: 0, Misses: 0
461-> Hits: 1, Late: 0, Early: 0, Misses: 0
463-> Hits: 3, Late: 0, Early: 0, Misses: 0
464-> Hits: 30926, Late: 9, Early: 0, Misses: 2
466-> Hits: 37136, Late: 633, Early: 0, Misses: 232
468-> Hits: 8, Late: 0, Early: 0, Misses: 0
46a-> Hits: 163828, Late: 16, Early: 0, Misses: 0
46d-> Hits: 4, Late: 0, Early: 0, Misses: 0
470-> Hits: 131249, Late: 2, Early: 0, Misses: 0
471-> Hits: 27, Late: 0, Early: 0, Misses: 0
472-> Hits: 1, Late: 0, Early: 0, Misses: 0
473-> Hits: 3, Late: 0, Early: 0, Misses: 0
475-> Hits: 3, Late: 0, Early: 0, Misses: 0
476-> Hits: 106767, Late: 0, Early: 0, Misses: 0
477-> Hits: 37229, Late: 646, Early: 0, Misses: 121
478-> Hits: 196, Late: 0, Early: 0, Misses: 0
47a-> Hits: 1, Late: 0, Early: 0, Misses: 0
47b-> Hits: 1, Late: 0, Early: 0, Misses: 0
47c-> Hits: 3, Late: 0, Early: 0, Misses: 0
47d-> Hits: 198, Late: 0, Early: 0, Misses: 0
47e-> Hits: 4, Late: 0, Early: 0, Misses: 0
47f-> Hits: 10, Late: 0, Early: 0, Misses: 0
480-> Hits: 7, Late: 3, Early: 0, Misses: 0
481-> Hits: 1, Late: 0, Early: 0, Misses: 0
482-> Hits: 5, Late: 0, Early: 0, Misses: 0
483-> Hits: 163003, Late: 0, Early: 0, Misses: 0
484-> Hits: 2, Late: 0, Early: 0, Misses: 0
486-> Hits: 62, Late: 0, Early: 0, Misses: 0
487-> Hits: 37061, Late: 911, Early: 0, Misses: 24
488-> Hits: 20, Late: 0, Early: 0, Misses: 0
489-> Hits: 9, Late: 0, Early: 0, Misses: 0
48a-> Hits: 1, Late: 0, Early: 0, Misses: 0
48b-> Hits: 5, Late: 0, Early: 0, Misses: 0
48d-> Hits: 9, Late: 2, Early: 0, Misses: 0
48e-> Hits: 2, Late: 0, Early: 0, Misses: 0
48f-> Hits: 5, Late: 0, Early: 0, Misses: 0
490-> Hits: 18743, Late: 3, Early: 0, Misses: 0
491-> Hits: 5, Late: 0, Early: 0, Misses: 0
493-> Hits: 56, Late: 1, Early: 0, Misses: 0
494-> Hits: 59, Late: 0, Early: 0, Misses: 0
495-> Hits: 57, Late: 0, Early: 0, Misses: 0
496-> Hits: 4, Late: 0, Early: 0, Misses: 0
497-> Hits: 60, Late: 0, Early: 0, Misses: 0
498-> Hits: 171721, Late: 1018, Early: 0, Misses: 70
499-> Hits: 57, Late: 0, Early: 0, Misses: 0
49b-> Hits: 60, Late: 0, Early: 0, Misses: 0
49c-> Hits: 1, Late: 0, Early: 0, Misses: 0
49d-> Hits: 233, Late: 1, Early: 0, Misses: 0
4a0-> Hits: 2, Late: 1, Early: 0, Misses: 0
4a2-> Hits: 3, Late: 0, Early: 0, Misses: 0
4a3-> Hits: 128, Late: 0, Early: 0, Misses: 0
4a5-> Hits: 16, Late: 0, Early: 0, Misses: 0
4a6-> Hits: 2, Late: 0, Early: 0, Misses: 0
4a9-> Hits: 37651, Late: 155, Early: 0, Misses: 326
4ab-> Hits: 4, Late: 0, Early: 0, Misses: 0
4ac-> Hits: 3, Late: 1, Early: 0, Misses: 0
4ad-> Hits: 65570, Late: 84, Early: 0, Misses: 227
4ae-> Hits: 5, Late: 0, Early: 0, Misses: 0
4b0-> Hits: 22, Late: 0, Early: 0, Misses: 0
4b1-> Hits: 3, Late: 0, Early: 0, Misses: 0
4b2-> Hits: 454, Late: 2, Early: 0, Misses: 18
4b3-> Hits: 163824, Late: 19, Early: 0, Misses: 0
4b4-> Hits: 4, Late: 1, Early: 0, Misses: 0
4b7-> Hits: 16, Late: 0, Early: 0, Misses: 0
4b8-> Hits: 29, Late: 0, Early: 0, Misses: 0
4ba-> Hits: 34220, Late: 16, Early: 0, Misses: 2
4bb-> Hits: 13, Late: 0, Early: 0, Misses: 0
4bd-> Hits: 1, Late: 0, Early: 0, Misses: 0
4be-> Hits: 1, Late: 1, Early: 0, Misses: 0
4c0-> Hits: 2, Late: 1, Early: 0, Misses: 0
4c1-> Hits: 1, Late: 0, Early: 0, Misses: 0
4c2-> Hits: 2, Late: 0, Early: 0, Misses: 0
4c4-> Hits: 2, Late: 0, Early: 0, Misses: 0
4c5-> Hits: 18, Late: 0, Early: 0, Misses: 0
4c6-> Hits: 5, Late: 0, Early: 0, Misses: 0
4c7-> Hits: 0, Late: 1, Early: 0, Misses: 0
4c8-> Hits: 2, Late: 0, Early: 0, Misses: 0
4c9-> Hits: 34417, Late: 77, Early: 0, Misses: 13
4ca-> Hits: 31290, Late: 4216, Early: 0, Misses: 2624
4cb-> Hits: 3, Late: 0, Early: 0, Misses: 0
4cc-> Hits: 1, Late: 0, Early: 0, Misses: 0
4cd-> Hits: 4, Late: 0, Early: 0, Misses: 0
4ce-> Hits: 4, Late: 2, Early: 0, Misses: 0
4cf-> Hits: 33851, Late: 201, Early: 0, Misses: 174
4d0-> Hits: 4, Late: 0, Early: 0, Misses: 0
4d1-> Hits: 27, Late: 0, Early: 0, Misses: 0
4d2-> Hits: 4, Late: 0, Early: 0, Misses: 0
4d3-> Hits: 1, Late: 0, Early: 0, Misses: 0
4d4-> Hits: 6, Late: 0, Early: 0, Misses: 0
4d5-> Hits: 1, Late: 1, Early: 0, Misses: 0
4d6-> Hits: 22, Late: 14, Early: 0, Misses: 0
4d7-> Hits: 4, Late: 0, Early: 0, Misses: 0
4da-> Hits: 1, Late: 0, Early: 0, Misses: 0
4dc-> Hits: 3, Late: 2, Early: 0, Misses: 0
4dd-> Hits: 4, Late: 1, Early: 0, Misses: 0
4de-> Hits: 27887, Late: 77, Early: 0, Misses: 26
4df-> Hits: 3, Late: 0, Early: 0, Misses: 0
4e0-> Hits: 33941, Late: 256, Early: 0, Misses: 157
4e2-> Hits: 7, Late: 0, Early: 0, Misses: 0
4e4-> Hits: 831, Late: 0, Early: 0, Misses: 0
4e5-> Hits: 7, Late: 0, Early: 0, Misses: 0
4e6-> Hits: 1, Late: 0, Early: 0, Misses: 0
4e7-> Hits: 3, Late: 0, Early: 0, Misses: 0
4e8-> Hits: 6, Late: 0, Early: 0, Misses: 0
4e9-> Hits: 43, Late: 0, Early: 0, Misses: 0
4ea-> Hits: 2, Late: 0, Early: 0, Misses: 0
4eb-> Hits: 27, Late: 0, Early: 0, Misses: 0
4ec-> Hits: 1, Late: 0, Early: 0, Misses: 0
4ed-> Hits: 163838, Late: 0, Early: 0, Misses: 0
4ef-> Hits: 2, Late: 0, Early: 0, Misses: 0
4f1-> Hits: 34686, Late: 287, Early: 0, Misses: 83
4f2-> Hits: 14, Late: 0, Early: 0, Misses: 0
4f3-> Hits: 5, Late: 1, Early: 0, Misses: 0
4f6-> Hits: 1, Late: 0, Early: 0, Misses: 0
4f7-> Hits: 4, Late: 0, Early: 0, Misses: 0
4f8-> Hits: 25, Late: 0, Early: 0, Misses: 0
4f9-> Hits: 19, Late: 0, Early: 0, Misses: 0
4fa-> Hits: 17609, Late: 0, Early: 0, Misses: 0
4fb-> Hits: 16, Late: 0, Early: 0, Misses: 0
4fc-> Hits: 1, Late: 0, Early: 0, Misses: 0
4fd-> Hits: 57, Late: 0, Early: 0, Misses: 0
4fe-> Hits: 1, Late: 0, Early: 0, Misses: 0
4ff-> Hits: 29, Late: 0, Early: 0, Misses: 0
500-> Hits: 3, Late: 1, Early: 0, Misses: 0
501-> Hits: 34388, Late: 359, Early: 0, Misses: 45
502-> Hits: 2, Late: 0, Early: 0, Misses: 0
503-> Hits: 2, Late: 0, Early: 0, Misses: 0
504-> Hits: 2, Late: 18, Early: 0, Misses: 0
505-> Hits: 857, Late: 9, Early: 0, Misses: 13
506-> Hits: 4, Late: 0, Early: 0, Misses: 0
507-> Hits: 163834, Late: 0, Early: 0, Misses: 0
508-> Hits: 1, Late: 0, Early: 0, Misses: 0
509-> Hits: 1, Late: 0, Early: 0, Misses: 0
50b-> Hits: 0, Late: 1, Early: 0, Misses: 0
50c-> Hits: 1, Late: 1, Early: 0, Misses: 0
50d-> Hits: 2, Late: 0, Early: 0, Misses: 0
510-> Hits: 2, Late: 0, Early: 0, Misses: 0
511-> Hits: 1, Late: 0, Early: 0, Misses: 0
512-> Hits: 33828, Late: 377, Early: 0, Misses: 35
514-> Hits: 3, Late: 1, Early: 0, Misses: 0
515-> Hits: 1, Late: 0, Early: 0, Misses: 0
516-> Hits: 164351, Late: 235, Early: 0, Misses: 91
518-> Hits: 1, Late: 0, Early: 0, Misses: 0
519-> Hits: 2, Late: 0, Early: 0, Misses: 0
51a-> Hits: 1, Late: 0, Early: 0, Misses: 0
51b-> Hits: 4, Late: 0, Early: 0, Misses: 0
51c-> Hits: 12, Late: 0, Early: 0, Misses: 44
51d-> Hits: 29, Late: 0, Early: 0, Misses: 0
51f-> Hits: 2, Late: 0, Early: 0, Misses: 0
520-> Hits: 131179, Late: 72, Early: 0, Misses: 0
521-> Hits: 29, Late: 0, Early: 0, Misses: 0
522-> Hits: 1, Late: 0, Early: 0, Misses: 0
523-> Hits: 37552, Late: 161, Early: 0, Misses: 420
524-> Hits: 9, Late: 0, Early: 0, Misses: 0
527-> Hits: 38271, Late: 93, Early: 0, Misses: 243
528-> Hits: 131090, Late: 1, Early: 0, Misses: 0
529-> Hits: 29, Late: 0, Early: 0, Misses: 0
52a-> Hits: 1, Late: 0, Early: 0, Misses: 0
52b-> Hits: 2, Late: 0, Early: 0, Misses: 0
52c-> Hits: 416, Late: 2, Early: 0, Misses: 4
52e-> Hits: 2, Late: 0, Early: 0, Misses: 0
530-> Hits: 8, Late: 1, Early: 0, Misses: 0
532-> Hits: 1, Late: 0, Early: 0, Misses: 0
534-> Hits: 34495, Late: 17, Early: 0, Misses: 2
535-> Hits: 1, Late: 0, Early: 0, Misses: 0
536-> Hits: 1, Late: 0, Early: 0, Misses: 0
537-> Hits: 864, Late: 0, Early: 0, Misses: 0
538-> Hits: 19, Late: 0, Early: 0, Misses: 0
539-> Hits: 1, Late: 0, Early: 0, Misses: 0
53a-> Hits: 9, Late: 0, Early: 0, Misses: 0
53b-> Hits: 814, Late: 0, Early: 0, Misses: 0
53c-> Hits: 131100, Late: 1, Early: 0, Misses: 0
53d-> Hits: 1, Late: 0, Early: 0, Misses: 0
53e-> Hits: 0, Late: 1, Early: 0, Misses: 0
53f-> Hits: 4, Late: 0, Early: 0, Misses: 0
540-> Hits: 67, Late: 1, Early: 0, Misses: 0
541-> Hits: 2, Late: 0, Early: 0, Misses: 0
544-> Hits: 32075, Late: 282, Early: 0, Misses: 150
545-> Hits: 131087, Late: 0, Early: 0, Misses: 0
547-> Hits: 0, Late: 1, Early: 0, Misses: 0
548-> Hits: 412, Late: 0, Early: 0, Misses: 0
549-> Hits: 1, Late: 0, Early: 0, Misses: 0
54a-> Hits: 1, Late: 0, Early: 0, Misses: 0
54b-> Hits: 1, Late: 0, Early: 0, Misses: 0
54c-> Hits: 1, Late: 0, Early: 0, Misses: 0
54d-> Hits: 2, Late: 27, Early: 0, Misses: 0
54e-> Hits: 131107, Late: 0, Early: 0, Misses: 14
550-> Hits: 0, Late: 2, Early: 0, Misses: 0
553-> Hits: 8, Late: 1, Early: 0, Misses: 0
554-> Hits: 2, Late: 0, Early: 0, Misses: 0
555-> Hits: 32436, Late: 3539, Early: 0, Misses: 2160
556-> Hits: 9, Late: 0, Early: 0, Misses: 0
557-> Hits: 131074, Late: 1, Early: 0, Misses: 0
558-> Hits: 680, Late: 105, Early: 0, Misses: 82
559-> Hits: 2, Late: 0, Early: 0, Misses: 0
55a-> Hits: 35176, Late: 492, Early: 0, Misses: 164
55b-> Hits: 2, Late: 0, Early: 0, Misses: 0
55c-> Hits: 4, Late: 2, Early: 0, Misses: 0
55d-> Hits: 432, Late: 3, Early: 0, Misses: 47
55e-> Hits: 6, Late: 0, Early: 0, Misses: 0
55f-> Hits: 3, Late: 0, Early: 0, Misses: 0
560-> Hits: 131082, Late: 2, Early: 0, Misses: 0
561-> Hits: 30, Late: 0, Early: 0, Misses: 0
562-> Hits: 5, Late: 0, Early: 0, Misses: 0
563-> Hits: 3, Late: 4, Early: 0, Misses: 0
564-> Hits: 62, Late: 1, Early: 0, Misses: 0
565-> Hits: 5, Late: 0, Early: 0, Misses: 0
566-> Hits: 2, Late: 0, Early: 0, Misses: 0
567-> Hits: 2, Late: 0, Early: 0, Misses: 0
568-> Hits: 10, Late: 0, Early: 0, Misses: 0
569-> Hits: 131071, Late: 1, Early: 0, Misses: 0
56a-> Hits: 11, Late: 0, Early: 0, Misses: 47
56b-> Hits: 34903, Late: 420, Early: 0, Misses: 91
56d-> Hits: 52, Late: 0, Early: 0, Misses: 0
56e-> Hits: 423, Late: 5, Early: 0, Misses: 2
56f-> Hits: 1, Late: 0, Early: 0, Misses: 0
570-> Hits: 233, Late: 0, Early: 0, Misses: 0
572-> Hits: 131074, Late: 1, Early: 0, Misses: 0
574-> Hits: 12, Late: 1, Early: 0, Misses: 15
576-> Hits: 3, Late: 0, Early: 0, Misses: 0
577-> Hits: 26, Late: 16, Early: 0, Misses: 0
578-> Hits: 14, Late: 0, Early: 0, Misses: 0
579-> Hits: 4, Late: 0, Early: 0, Misses: 0
57a-> Hits: 6, Late: 0, Early: 0, Misses: 0
57b-> Hits: 34563, Late: 513, Early: 0, Misses: 19
57c-> Hits: 1, Late: 3, Early: 0, Misses: 0
57d-> Hits: 4, Late: 0, Early: 0, Misses: 0
57f-> Hits: 476, Late: 6, Early: 0, Misses: 0
580-> Hits: 6, Late: 2, Early: 0, Misses: 0
581-> Hits: 3, Late: 3, Early: 0, Misses: 0
582-> Hits: 2, Late: 0, Early: 0, Misses: 0
583-> Hits: 29, Late: 0, Early: 0, Misses: 0
584-> Hits: 131076, Late: 2, Early: 0, Misses: 0
586-> Hits: 1, Late: 2, Early: 0, Misses: 0
587-> Hits: 3, Late: 0, Early: 0, Misses: 0
588-> Hits: 6, Late: 1, Early: 0, Misses: 0
58b-> Hits: 3, Late: 0, Early: 0, Misses: 0
58c-> Hits: 34947, Late: 555, Early: 0, Misses: 39
58e-> Hits: 9, Late: 0, Early: 0, Misses: 0
58f-> Hits: 864, Late: 0, Early: 0, Misses: 0
590-> Hits: 17, Late: 5, Early: 0, Misses: 0
591-> Hits: 131071, Late: 2, Early: 0, Misses: 0
593-> Hits: 809, Late: 0, Early: 0, Misses: 0
594-> Hits: 1, Late: 0, Early: 0, Misses: 0
595-> Hits: 3, Late: 0, Early: 0, Misses: 0
598-> Hits: 79, Late: 0, Early: 0, Misses: 0
599-> Hits: 8, Late: 1, Early: 0, Misses: 0
59a-> Hits: 2, Late: 0, Early: 0, Misses: 0
59b-> Hits: 10, Late: 0, Early: 0, Misses: 0
59d-> Hits: 37574, Late: 145, Early: 0, Misses: 425
59e-> Hits: 3, Late: 1, Early: 0, Misses: 0
59f-> Hits: 3, Late: 0, Early: 0, Misses: 0
5a0-> Hits: 745, Late: 3, Early: 0, Misses: 58
5a1-> Hits: 37197, Late: 92, Early: 0, Misses: 236
5a2-> Hits: 7, Late: 0, Early: 0, Misses: 0
5a3-> Hits: 2, Late: 0, Early: 0, Misses: 0
5a5-> Hits: 131072, Late: 1, Early: 0, Misses: 0
5a6-> Hits: 616, Late: 2, Early: 0, Misses: 11
5a7-> Hits: 1, Late: 0, Early: 0, Misses: 0
5a9-> Hits: 3, Late: 0, Early: 0, Misses: 0
5aa-> Hits: 10, Late: 6, Early: 0, Misses: 0
5ab-> Hits: 4, Late: 1, Early: 0, Misses: 58
5ac-> Hits: 1, Late: 0, Early: 0, Misses: 0
5ae-> Hits: 34360, Late: 14, Early: 0, Misses: 3
5af-> Hits: 8, Late: 0, Early: 0, Misses: 0
5b0-> Hits: 641, Late: 8, Early: 0, Misses: 10
5b1-> Hits: 2, Late: 0, Early: 0, Misses: 0
5b2-> Hits: 4, Late: 0, Early: 0, Misses: 0
5b4-> Hits: 0, Late: 2, Early: 0, Misses: 0
5b6-> Hits: 5, Late: 0, Early: 0, Misses: 0
5b8-> Hits: 3, Late: 0, Early: 0, Misses: 0
5b9-> Hits: 5, Late: 0, Early: 0, Misses: 59
5bb-> Hits: 1, Late: 0, Early: 0, Misses: 0
5bc-> Hits: 2, Late: 0, Early: 0, Misses: 0
5bd-> Hits: 1, Late: 0, Early: 0, Misses: 0
5be-> Hits: 35007, Late: 355, Early: 0, Misses: 148
5bf-> Hits: 8, Late: 0, Early: 0, Misses: 0
5c0-> Hits: 1036, Late: 0, Early: 0, Misses: 0
5c1-> Hits: 10681, Late: 163, Early: 0, Misses: 264
5c2-> Hits: 5, Late: 0, Early: 0, Misses: 0
5c3-> Hits: 9, Late: 0, Early: 0, Misses: 0
5c4-> Hits: 8, Late: 0, Early: 0, Misses: 0
5c5-> Hits: 1, Late: 0, Early: 0, Misses: 0
5c6-> Hits: 733, Late: 8, Early: 0, Misses: 13
5c7-> Hits: 5, Late: 0, Early: 0, Misses: 0
5c8-> Hits: 7, Late: 0, Early: 0, Misses: 0
5c9-> Hits: 2, Late: 0, Early: 0, Misses: 0
5ca-> Hits: 38, Late: 0, Early: 0, Misses: 0
5cb-> Hits: 2, Late: 0, Early: 0, Misses: 0
5cc-> Hits: 51, Late: 0, Early: 0, Misses: 0
5ce-> Hits: 0, Late: 1, Early: 0, Misses: 0
5cf-> Hits: 30573, Late: 264, Early: 0, Misses: 126
5d0-> Hits: 22, Late: 20, Early: 0, Misses: 0
5d1-> Hits: 131084, Late: 1, Early: 0, Misses: 0
5d2-> Hits: 2, Late: 0, Early: 0, Misses: 0
5d5-> Hits: 3, Late: 0, Early: 0, Misses: 0
5d6-> Hits: 3, Late: 2, Early: 0, Misses: 0
5d7-> Hits: 723, Late: 6, Early: 0, Misses: 11
5d8-> Hits: 3, Late: 4, Early: 0, Misses: 0
5db-> Hits: 120309, Late: 2, Early: 0, Misses: 0
5dc-> Hits: 49, Late: 2, Early: 0, Misses: 0
5dd-> Hits: 9998, Late: 103, Early: 0, Misses: 127
5de-> Hits: 4, Late: 0, Early: 0, Misses: 0
5df-> Hits: 7, Late: 6, Early: 0, Misses: 0
5e0-> Hits: 33083, Late: 4018, Early: 0, Misses: 1027
5e1-> Hits: 5, Late: 0, Early: 0, Misses: 0
5e2-> Hits: 2, Late: 0, Early: 0, Misses: 0
5e3-> Hits: 6, Late: 0, Early: 0, Misses: 0
5e4-> Hits: 35374, Late: 391, Early: 0, Misses: 62
5e5-> Hits: 3, Late: 0, Early: 0, Misses: 0
5e6-> Hits: 3, Late: 3, Early: 0, Misses: 0
5e7-> Hits: 867, Late: 1, Early: 0, Misses: 0
5e9-> Hits: 2, Late: 0, Early: 0, Misses: 0
5ea-> Hits: 31, Late: 0, Early: 0, Misses: 0
5eb-> Hits: 832, Late: 0, Early: 0, Misses: 0
5ed-> Hits: 2, Late: 0, Early: 0, Misses: 0
5ee-> Hits: 3, Late: 0, Early: 0, Misses: 0
5f0-> Hits: 47, Late: 1, Early: 0, Misses: 0
5f1-> Hits: 1, Late: 0, Early: 0, Misses: 0
5f2-> Hits: 5, Late: 0, Early: 0, Misses: 0
5f3-> Hits: 7, Late: 0, Early: 0, Misses: 0
5f4-> Hits: 35119, Late: 601, Early: 0, Misses: 7
5f5-> Hits: 10012, Late: 100, Early: 0, Misses: 131
5f6-> Hits: 1, Late: 0, Early: 0, Misses: 0
5f7-> Hits: 6, Late: 0, Early: 0, Misses: 0
5f8-> Hits: 695, Late: 1, Early: 0, Misses: 0
5f9-> Hits: 7, Late: 0, Early: 0, Misses: 0
5fa-> Hits: 1, Late: 0, Early: 0, Misses: 0
5fb-> Hits: 6, Late: 0, Early: 0, Misses: 0
5fc-> Hits: 1, Late: 0, Early: 0, Misses: 0
5fd-> Hits: 1, Late: 0, Early: 0, Misses: 0
5fe-> Hits: 18, Late: 0, Early: 0, Misses: 56
5ff-> Hits: 3, Late: 0, Early: 0, Misses: 1
600-> Hits: 1, Late: 2, Early: 0, Misses: 0
602-> Hits: 6, Late: 0, Early: 0, Misses: 0
604-> Hits: 5, Late: 0, Early: 0, Misses: 0
605-> Hits: 35065, Late: 623, Early: 0, Misses: 19
606-> Hits: 22, Late: 0, Early: 0, Misses: 0
607-> Hits: 16, Late: 0, Early: 0, Misses: 0
608-> Hits: 732, Late: 4, Early: 0, Misses: 9
609-> Hits: 16, Late: 0, Early: 0, Misses: 0
60a-> Hits: 3, Late: 0, Early: 0, Misses: 0
60b-> Hits: 20, Late: 0, Early: 0, Misses: 0
60c-> Hits: 3, Late: 0, Early: 0, Misses: 0
60e-> Hits: 5, Late: 0, Early: 0, Misses: 0
60f-> Hits: 0, Late: 0, Early: 0, Misses: 12
610-> Hits: 2, Late: 1, Early: 0, Misses: 0
611-> Hits: 1, Late: 0, Early: 0, Misses: 0
614-> Hits: 2, Late: 0, Early: 0, Misses: 12
616-> Hits: 37525, Late: 161, Early: 0, Misses: 449
619-> Hits: 585, Late: 2, Early: 0, Misses: 2
61a-> Hits: 36962, Late: 90, Early: 0, Misses: 243
61c-> Hits: 3, Late: 0, Early: 0, Misses: 0
61d-> Hits: 16, Late: 0, Early: 0, Misses: 0
61e-> Hits: 1, Late: 0, Early: 0, Misses: 0
61f-> Hits: 833, Late: 1, Early: 0, Misses: 9
620-> Hits: 8, Late: 1, Early: 0, Misses: 0
621-> Hits: 4, Late: 1, Early: 0, Misses: 0
622-> Hits: 0, Late: 0, Early: 0, Misses: 12
623-> Hits: 3, Late: 0, Early: 0, Misses: 0
625-> Hits: 18, Late: 3, Early: 0, Misses: 0
626-> Hits: 1, Late: 0, Early: 0, Misses: 0
627-> Hits: 34103, Late: 10, Early: 0, Misses: 2
628-> Hits: 4, Late: 1, Early: 0, Misses: 0
62a-> Hits: 688, Late: 85, Early: 0, Misses: 93
62b-> Hits: 9, Late: 0, Early: 0, Misses: 0
62c-> Hits: 1, Late: 0, Early: 0, Misses: 0
62e-> Hits: 726, Late: 7, Early: 0, Misses: 7
62f-> Hits: 3, Late: 1, Early: 0, Misses: 0
630-> Hits: 3, Late: 0, Early: 0, Misses: 0
631-> Hits: 3, Late: 0, Early: 0, Misses: 0
634-> Hits: 2, Late: 0, Early: 0, Misses: 0
635-> Hits: 1, Late: 1, Early: 0, Misses: 0
636-> Hits: 5, Late: 1, Early: 0, Misses: 0
637-> Hits: 34466, Late: 223, Early: 0, Misses: 37
638-> Hits: 3, Late: 0, Early: 0, Misses: 0
639-> Hits: 3, Late: 0, Early: 0, Misses: 0
63b-> Hits: 3, Late: 0, Early: 0, Misses: 0
63c-> Hits: 7, Late: 0, Early: 0, Misses: 0
63d-> Hits: 13, Late: 0, Early: 0, Misses: 0
63e-> Hits: 866, Late: 0, Early: 0, Misses: 0
63f-> Hits: 3, Late: 0, Early: 0, Misses: 0
640-> Hits: 6, Late: 0, Early: 0, Misses: 0
641-> Hits: 6, Late: 0, Early: 0, Misses: 0
642-> Hits: 807, Late: 0, Early: 0, Misses: 0
643-> Hits: 3, Late: 0, Early: 0, Misses: 0
644-> Hits: 2, Late: 0, Early: 0, Misses: 0
646-> Hits: 5, Late: 0, Early: 0, Misses: 0
647-> Hits: 72, Late: 0, Early: 0, Misses: 0
648-> Hits: 35347, Late: 291, Early: 0, Misses: 62
64b-> Hits: 1, Late: 0, Early: 0, Misses: 0
64c-> Hits: 2, Late: 0, Early: 0, Misses: 0
64f-> Hits: 719, Late: 0, Early: 0, Misses: 0
653-> Hits: 3, Late: 0, Early: 0, Misses: 0
654-> Hits: 4, Late: 2, Early: 0, Misses: 0
655-> Hits: 1, Late: 0, Early: 0, Misses: 0
656-> Hits: 7, Late: 1, Early: 0, Misses: 0
657-> Hits: 1, Late: 0, Early: 0, Misses: 0
658-> Hits: 33, Late: 0, Early: 0, Misses: 0
659-> Hits: 32567, Late: 238, Early: 0, Misses: 30
65a-> Hits: 2, Late: 0, Early: 0, Misses: 0
65b-> Hits: 2, Late: 0, Early: 0, Misses: 0
65c-> Hits: 3, Late: 0, Early: 0, Misses: 0
65d-> Hits: 52, Late: 0, Early: 0, Misses: 0
65e-> Hits: 7, Late: 0, Early: 0, Misses: 0
65f-> Hits: 649, Late: 2, Early: 0, Misses: 6
660-> Hits: 2, Late: 2, Early: 0, Misses: 0
662-> Hits: 9, Late: 0, Early: 0, Misses: 0
666-> Hits: 29, Late: 0, Early: 0, Misses: 0
667-> Hits: 32, Late: 0, Early: 0, Misses: 0
668-> Hits: 40, Late: 1, Early: 0, Misses: 0
669-> Hits: 34025, Late: 3849, Early: 0, Misses: 246
66a-> Hits: 29, Late: 0, Early: 0, Misses: 0
66c-> Hits: 39, Late: 0, Early: 0, Misses: 0
66d-> Hits: 1, Late: 0, Early: 0, Misses: 0
66e-> Hits: 34032, Late: 478, Early: 0, Misses: 5
66f-> Hits: 1, Late: 0, Early: 0, Misses: 0
670-> Hits: 773, Late: 8, Early: 0, Misses: 11
671-> Hits: 49, Late: 0, Early: 0, Misses: 0
672-> Hits: 45, Late: 0, Early: 0, Misses: 0
674-> Hits: 45, Late: 0, Early: 0, Misses: 0
678-> Hits: 1, Late: 0, Early: 0, Misses: 0
679-> Hits: 6, Late: 0, Early: 0, Misses: 0
67a-> Hits: 4, Late: 0, Early: 0, Misses: 0
67b-> Hits: 10, Late: 0, Early: 0, Misses: 0
67c-> Hits: 1, Late: 0, Early: 0, Misses: 0
67d-> Hits: 3, Late: 0, Early: 0, Misses: 0
67f-> Hits: 34146, Late: 520, Early: 0, Misses: 10
680-> Hits: 12, Late: 17, Early: 0, Misses: 0
681-> Hits: 553, Late: 5, Early: 0, Misses: 5
683-> Hits: 180, Late: 1, Early: 0, Misses: 0
685-> Hits: 5, Late: 0, Early: 0, Misses: 0
686-> Hits: 10, Late: 0, Early: 0, Misses: 0
688-> Hits: 1, Late: 0, Early: 0, Misses: 0
689-> Hits: 9, Late: 0, Early: 0, Misses: 0
68a-> Hits: 17, Late: 0, Early: 0, Misses: 0
68c-> Hits: 2, Late: 0, Early: 0, Misses: 0
68d-> Hits: 6, Late: 0, Early: 0, Misses: 0
68e-> Hits: 2, Late: 0, Early: 0, Misses: 0
690-> Hits: 37630, Late: 171, Early: 0, Misses: 334
691-> Hits: 864, Late: 0, Early: 0, Misses: 0
693-> Hits: 1, Late: 0, Early: 0, Misses: 0
694-> Hits: 36913, Late: 91, Early: 0, Misses: 243
695-> Hits: 813, Late: 0, Early: 0, Misses: 0
698-> Hits: 2, Late: 1, Early: 0, Misses: 0
699-> Hits: 907, Late: 1, Early: 0, Misses: 5
69a-> Hits: 55, Late: 1, Early: 0, Misses: 0
69c-> Hits: 3, Late: 0, Early: 0, Misses: 0
69f-> Hits: 1, Late: 0, Early: 0, Misses: 0
6a0-> Hits: 3, Late: 0, Early: 0, Misses: 0
6a1-> Hits: 35492, Late: 11, Early: 0, Misses: 1
6a2-> Hits: 486, Late: 0, Early: 0, Misses: 0
6a3-> Hits: 6, Late: 0, Early: 0, Misses: 0
6a4-> Hits: 10, Late: 1, Early: 0, Misses: 0
6a5-> Hits: 2, Late: 0, Early: 0, Misses: 0
6a6-> Hits: 1, Late: 0, Early: 0, Misses: 0
6a7-> Hits: 8, Late: 0, Early: 0, Misses: 0
6ac-> Hits: 1, Late: 0, Early: 0, Misses: 0
6ad-> Hits: 5, Late: 0, Early: 0, Misses: 0
6ae-> Hits: 1, Late: 0, Early: 0, Misses: 0
6af-> Hits: 2, Late: 0, Early: 0, Misses: 0
6b0-> Hits: 1, Late: 0, Early: 0, Misses: 0
6b1-> Hits: 34709, Late: 184, Early: 0, Misses: 13
6b2-> Hits: 515, Late: 3, Early: 0, Misses: 2
6b3-> Hits: 3, Late: 0, Early: 0, Misses: 0
6b4-> Hits: 10, Late: 1, Early: 0, Misses: 0
6b5-> Hits: 1, Late: 16, Early: 0, Misses: 0
6b6-> Hits: 2, Late: 0, Early: 0, Misses: 0
6b7-> Hits: 9, Late: 1, Early: 0, Misses: 0
6b9-> Hits: 1, Late: 0, Early: 0, Misses: 0
6ba-> Hits: 5, Late: 0, Early: 0, Misses: 0
6bb-> Hits: 2, Late: 0, Early: 0, Misses: 0
6bc-> Hits: 2, Late: 0, Early: 0, Misses: 0
6bd-> Hits: 1, Late: 0, Early: 0, Misses: 0
6be-> Hits: 1, Late: 0, Early: 0, Misses: 0
6bf-> Hits: 1, Late: 0, Early: 0, Misses: 0
6c0-> Hits: 3, Late: 2, Early: 0, Misses: 0
6c2-> Hits: 34900, Late: 253, Early: 0, Misses: 7
6c3-> Hits: 473, Late: 4, Early: 0, Misses: 5
6c4-> Hits: 9, Late: 0, Early: 0, Misses: 0
6c5-> Hits: 1, Late: 0, Early: 0, Misses: 0
6c7-> Hits: 1, Late: 0, Early: 0, Misses: 0
6c9-> Hits: 3, Late: 0, Early: 0, Misses: 0
6ca-> Hits: 1, Late: 1, Early: 0, Misses: 0
6cc-> Hits: 2, Late: 0, Early: 0, Misses: 0
6cd-> Hits: 0, Late: 1, Early: 0, Misses: 0
6ce-> Hits: 7, Late: 0, Early: 0, Misses: 0
6d0-> Hits: 3, Late: 2, Early: 0, Misses: 0
6d1-> Hits: 2, Late: 14, Early: 0, Misses: 0
6d2-> Hits: 1, Late: 0, Early: 0, Misses: 0
6d3-> Hits: 36005, Late: 319, Early: 0, Misses: 12
6d4-> Hits: 551, Late: 6, Early: 0, Misses: 5
6d5-> Hits: 11, Late: 0, Early: 0, Misses: 0
6d6-> Hits: 3, Late: 0, Early: 0, Misses: 0
6d7-> Hits: 15, Late: 0, Early: 0, Misses: 0
6d9-> Hits: 12, Late: 0, Early: 0, Misses: 0
6da-> Hits: 2, Late: 0, Early: 0, Misses: 0
6db-> Hits: 11, Late: 0, Early: 0, Misses: 0
6dc-> Hits: 1, Late: 0, Early: 0, Misses: 0
6dd-> Hits: 10, Late: 0, Early: 0, Misses: 0
6de-> Hits: 2, Late: 0, Early: 0, Misses: 0
6df-> Hits: 2, Late: 0, Early: 0, Misses: 0
6e0-> Hits: 0, Late: 1, Early: 0, Misses: 0
6e1-> Hits: 1, Late: 0, Early: 0, Misses: 0
6e2-> Hits: 3, Late: 0, Early: 0, Misses: 0
6e3-> Hits: 33378, Late: 357, Early: 0, Misses: 3
6e4-> Hits: 864, Late: 0, Early: 0, Misses: 0
6e5-> Hits: 1, Late: 0, Early: 0, Misses: 0
6e6-> Hits: 1, Late: 0, Early: 0, Misses: 0
6e7-> Hits: 2, Late: 2, Early: 0, Misses: 0
6e8-> Hits: 823, Late: 0, Early: 0, Misses: 0
6eb-> Hits: 1, Late: 3, Early: 0, Misses: 0
6ed-> Hits: 54, Late: 14, Early: 0, Misses: 0
6ee-> Hits: 1, Late: 1, Early: 0, Misses: 0
6ef-> Hits: 1, Late: 0, Early: 0, Misses: 0
6f0-> Hits: 5, Late: 6, Early: 0, Misses: 0
6f1-> Hits: 0, Late: 1, Early: 0, Misses: 0
6f2-> Hits: 2, Late: 0, Early: 0, Misses: 0
6f3-> Hits: 2, Late: 0, Early: 0, Misses: 0
6f4-> Hits: 34299, Late: 3395, Early: 0, Misses: 398
6f5-> Hits: 610, Late: 0, Early: 0, Misses: 0
6f6-> Hits: 4, Late: 0, Early: 0, Misses: 0
6f8-> Hits: 2, Late: 1, Early: 0, Misses: 0
6f9-> Hits: 35666, Late: 465, Early: 0, Misses: 6
6fa-> Hits: 3, Late: 0, Early: 0, Misses: 0
6fb-> Hits: 1, Late: 15, Early: 0, Misses: 0
6fc-> Hits: 3, Late: 0, Early: 0, Misses: 0
6fe-> Hits: 5, Late: 0, Early: 0, Misses: 0
700-> Hits: 6, Late: 0, Early: 0, Misses: 0
701-> Hits: 0, Late: 1, Early: 0, Misses: 0
702-> Hits: 4, Late: 0, Early: 0, Misses: 0
703-> Hits: 4, Late: 0, Early: 0, Misses: 0
705-> Hits: 600, Late: 2, Early: 0, Misses: 0
706-> Hits: 4, Late: 0, Early: 0, Misses: 0
708-> Hits: 1, Late: 1, Early: 0, Misses: 0
709-> Hits: 0, Late: 2, Early: 0, Misses: 0
70a-> Hits: 37671, Late: 165, Early: 0, Misses: 297
70b-> Hits: 3, Late: 1, Early: 0, Misses: 0
70d-> Hits: 6, Late: 2, Early: 0, Misses: 0
70e-> Hits: 37132, Late: 96, Early: 0, Misses: 191
70f-> Hits: 1, Late: 0, Early: 0, Misses: 0
710-> Hits: 0, Late: 1, Early: 0, Misses: 0
711-> Hits: 1, Late: 1, Early: 0, Misses: 0
713-> Hits: 1229, Late: 5, Early: 0, Misses: 3
716-> Hits: 579, Late: 3, Early: 0, Misses: 0
718-> Hits: 3, Late: 0, Early: 0, Misses: 0
719-> Hits: 4, Late: 0, Early: 0, Misses: 0
71b-> Hits: 35344, Late: 10, Early: 0, Misses: 0
71d-> Hits: 1, Late: 0, Early: 0, Misses: 0
71e-> Hits: 4, Late: 0, Early: 0, Misses: 0
720-> Hits: 5, Late: 1, Early: 0, Misses: 0
721-> Hits: 1, Late: 0, Early: 0, Misses: 0
722-> Hits: 3, Late: 0, Early: 0, Misses: 0
723-> Hits: 7, Late: 2, Early: 0, Misses: 0
724-> Hits: 2, Late: 0, Early: 0, Misses: 0
725-> Hits: 1, Late: 0, Early: 0, Misses: 0
726-> Hits: 4, Late: 0, Early: 0, Misses: 0
727-> Hits: 518, Late: 3, Early: 0, Misses: 0
729-> Hits: 4, Late: 16, Early: 0, Misses: 0
72b-> Hits: 34689, Late: 156, Early: 0, Misses: 3
72c-> Hits: 3, Late: 0, Early: 0, Misses: 0
72d-> Hits: 3, Late: 0, Early: 0, Misses: 0
72e-> Hits: 1, Late: 0, Early: 0, Misses: 0
72f-> Hits: 1, Late: 0, Early: 0, Misses: 0
730-> Hits: 4, Late: 0, Early: 0, Misses: 0
733-> Hits: 5, Late: 1, Early: 0, Misses: 0
734-> Hits: 1, Late: 0, Early: 0, Misses: 0
736-> Hits: 1, Late: 0, Early: 0, Misses: 0
737-> Hits: 865, Late: 15, Early: 0, Misses: 0
73a-> Hits: 1, Late: 0, Early: 0, Misses: 0
73b-> Hits: 806, Late: 0, Early: 0, Misses: 0
73c-> Hits: 33696, Late: 197, Early: 0, Misses: 4
73e-> Hits: 3, Late: 1, Early: 0, Misses: 0
740-> Hits: 75, Late: 1, Early: 0, Misses: 0
741-> Hits: 4, Late: 0, Early: 0, Misses: 0
742-> Hits: 1, Late: 0, Early: 0, Misses: 0
744-> Hits: 6, Late: 0, Early: 0, Misses: 0
745-> Hits: 2, Late: 0, Early: 0, Misses: 0
747-> Hits: 2, Late: 0, Early: 0, Misses: 0
748-> Hits: 542, Late: 0, Early: 0, Misses: 0
74b-> Hits: 1, Late: 2, Early: 0, Misses: 0
74c-> Hits: 1, Late: 0, Early: 0, Misses: 0
74d-> Hits: 34649, Late: 278, Early: 0, Misses: 0
74e-> Hits: 3, Late: 0, Early: 0, Misses: 0
74f-> Hits: 2, Late: 0, Early: 0, Misses: 0
750-> Hits: 4, Late: 0, Early: 0, Misses: 0
751-> Hits: 4, Late: 0, Early: 0, Misses: 0
752-> Hits: 5, Late: 0, Early: 0, Misses: 0
753-> Hits: 2, Late: 0, Early: 0, Misses: 0
754-> Hits: 5, Late: 0, Early: 0, Misses: 0
755-> Hits: 3, Late: 0, Early: 0, Misses: 0
756-> Hits: 4, Late: 0, Early: 0, Misses: 0
758-> Hits: 553, Late: 2, Early: 0, Misses: 0
75a-> Hits: 5, Late: 1, Early: 0, Misses: 0
75b-> Hits: 4, Late: 0, Early: 0, Misses: 0
75c-> Hits: 5, Late: 2, Early: 0, Misses: 0
75d-> Hits: 35975, Late: 408, Early: 0, Misses: 0
75f-> Hits: 1, Late: 0, Early: 0, Misses: 0
760-> Hits: 4, Late: 0, Early: 0, Misses: 0
761-> Hits: 5, Late: 0, Early: 0, Misses: 0
762-> Hits: 1, Late: 0, Early: 0, Misses: 0
763-> Hits: 1, Late: 0, Early: 0, Misses: 0
765-> Hits: 1, Late: 0, Early: 0, Misses: 0
766-> Hits: 2, Late: 2, Early: 0, Misses: 0
768-> Hits: 6, Late: 0, Early: 0, Misses: 0
769-> Hits: 599, Late: 4, Early: 0, Misses: 0
76a-> Hits: 1, Late: 0, Early: 0, Misses: 0
76b-> Hits: 1, Late: 1, Early: 0, Misses: 0
76c-> Hits: 2, Late: 0, Early: 0, Misses: 0
76e-> Hits: 32663, Late: 346, Early: 0, Misses: 0
76f-> Hits: 1, Late: 0, Early: 0, Misses: 0
770-> Hits: 2, Late: 2, Early: 0, Misses: 0
771-> Hits: 1, Late: 0, Early: 0, Misses: 0
772-> Hits: 1, Late: 1, Early: 0, Misses: 0
774-> Hits: 7, Late: 0, Early: 0, Misses: 0
775-> Hits: 3, Late: 2, Early: 0, Misses: 0
776-> Hits: 1, Late: 0, Early: 0, Misses: 0
77a-> Hits: 1, Late: 1, Early: 0, Misses: 0
77c-> Hits: 4, Late: 0, Early: 0, Misses: 0
77e-> Hits: 632, Late: 5, Early: 0, Misses: 0
77f-> Hits: 37679, Late: 173, Early: 0, Misses: 280
780-> Hits: 5, Late: 3, Early: 0, Misses: 0
781-> Hits: 1, Late: 1, Early: 0, Misses: 0
783-> Hits: 37198, Late: 100, Early: 0, Misses: 184
784-> Hits: 5, Late: 1, Early: 0, Misses: 0
785-> Hits: 18, Late: 0, Early: 0, Misses: 0
788-> Hits: 864, Late: 1, Early: 0, Misses: 2
78a-> Hits: 2, Late: 1, Early: 0, Misses: 0
78b-> Hits: 2, Late: 0, Early: 0, Misses: 0
78f-> Hits: 1, Late: 0, Early: 0, Misses: 0
790-> Hits: 31904, Late: 10, Early: 0, Misses: 0
792-> Hits: 131, Late: 743, Early: 0, Misses: 0
793-> Hits: 10, Late: 0, Early: 0, Misses: 0
794-> Hits: 4, Late: 0, Early: 0, Misses: 0
796-> Hits: 4, Late: 0, Early: 0, Misses: 0
797-> Hits: 1, Late: 0, Early: 0, Misses: 0
798-> Hits: 3, Late: 0, Early: 0, Misses: 0
79a-> Hits: 3, Late: 0, Early: 0, Misses: 0
79b-> Hits: 0, Late: 1, Early: 0, Misses: 0
79c-> Hits: 3, Late: 0, Early: 0, Misses: 0
79f-> Hits: 2, Late: 1, Early: 0, Misses: 0
7a0-> Hits: 32281, Late: 117, Early: 0, Misses: 2
7a5-> Hits: 1, Late: 0, Early: 0, Misses: 0
7a6-> Hits: 13, Late: 0, Early: 0, Misses: 0
7a7-> Hits: 3, Late: 0, Early: 0, Misses: 0
7a8-> Hits: 3, Late: 0, Early: 0, Misses: 0
7aa-> Hits: 2, Late: 0, Early: 0, Misses: 0
7ab-> Hits: 3, Late: 0, Early: 0, Misses: 0
7ac-> Hits: 2, Late: 0, Early: 0, Misses: 0
7af-> Hits: 2, Late: 0, Early: 0, Misses: 0
7b0-> Hits: 9, Late: 42, Early: 0, Misses: 0
7b1-> Hits: 32938, Late: 187, Early: 0, Misses: 2
7b4-> Hits: 1, Late: 0, Early: 0, Misses: 0
7b5-> Hits: 10, Late: 50, Early: 0, Misses: 0
7b8-> Hits: 2, Late: 0, Early: 0, Misses: 0
7ba-> Hits: 8, Late: 0, Early: 0, Misses: 0
7bb-> Hits: 3, Late: 45, Early: 0, Misses: 0
7bc-> Hits: 7, Late: 0, Early: 0, Misses: 0
7c1-> Hits: 16, Late: 34, Early: 0, Misses: 0
7c3-> Hits: 1, Late: 0, Early: 0, Misses: 0
7c4-> Hits: 1, Late: 0, Early: 0, Misses: 0
7c6-> Hits: 32567, Late: 173, Early: 0, Misses: 0
7c8-> Hits: 48, Late: 1, Early: 0, Misses: 0
7d0-> Hits: 675, Late: 2, Early: 0, Misses: 0
7d4-> Hits: 644, Late: 0, Early: 0, Misses: 0
7d6-> Hits: 31963, Late: 283, Early: 0, Misses: 0
7d7-> Hits: 12, Late: 0, Early: 0, Misses: 0
7d9-> Hits: 36, Late: 0, Early: 0, Misses: 0
7da-> Hits: 2, Late: 0, Early: 0, Misses: 0
7db-> Hits: 3, Late: 0, Early: 0, Misses: 0
7dd-> Hits: 7, Late: 0, Early: 0, Misses: 0
7de-> Hits: 2, Late: 1, Early: 0, Misses: 0
7df-> Hits: 7, Late: 3, Early: 0, Misses: 0
7e0-> Hits: 4101, Late: 3, Early: 0, Misses: 0
7e1-> Hits: 683, Late: 0, Early: 0, Misses: 0
7e2-> Hits: 3, Late: 1, Early: 0, Misses: 0
7e4-> Hits: 1, Late: 0, Early: 0, Misses: 0
7e5-> Hits: 5, Late: 5, Early: 0, Misses: 0
7e6-> Hits: 2, Late: 0, Early: 0, Misses: 0
7e7-> Hits: 37935, Late: 297, Early: 0, Misses: 0
7e8-> Hits: 1, Late: 0, Early: 0, Misses: 0
7e9-> Hits: 5, Late: 0, Early: 0, Misses: 0
7ea-> Hits: 1, Late: 1, Early: 0, Misses: 0
7eb-> Hits: 3, Late: 0, Early: 0, Misses: 0
7ec-> Hits: 2, Late: 0, Early: 0, Misses: 0
7ed-> Hits: 1, Late: 0, Early: 0, Misses: 0
7ee-> Hits: 4, Late: 0, Early: 0, Misses: 0
7ef-> Hits: 1, Late: 1, Early: 0, Misses: 0
7f0-> Hits: 7, Late: 2, Early: 0, Misses: 0
7f1-> Hits: 635, Late: 18, Early: 0, Misses: 19
7f2-> Hits: 2, Late: 0, Early: 0, Misses: 0
7f3-> Hits: 9, Late: 0, Early: 0, Misses: 0
7f4-> Hits: 53, Late: 0, Early: 0, Misses: 0
7f5-> Hits: 670, Late: 0, Early: 0, Misses: 0
7f6-> Hits: 1, Late: 0, Early: 0, Misses: 0
7f7-> Hits: 1, Late: 0, Early: 0, Misses: 0
7f8-> Hits: 54, Late: 0, Early: 0, Misses: 0
7fa-> Hits: 8, Late: 1, Early: 0, Misses: 0
7fb-> Hits: 4, Late: 1, Early: 0, Misses: 0
7fc-> Hits: 27912, Late: 2092, Early: 0, Misses: 8132
7fd-> Hits: 2, Late: 0, Early: 0, Misses: 0
7ff-> Hits: 2, Late: 0, Early: 0, Misses: 0
800-> Hits: 4, Late: 0, Early: 0, Misses: 0
801-> Hits: 5, Late: 1, Early: 0, Misses: 0
803-> Hits: 0, Late: 1, Early: 0, Misses: 0
804-> Hits: 3, Late: 0, Early: 0, Misses: 0
805-> Hits: 17, Late: 0, Early: 0, Misses: 0
806-> Hits: 672, Late: 0, Early: 0, Misses: 0
808-> Hits: 2, Late: 1, Early: 0, Misses: 0
809-> Hits: 9, Late: 0, Early: 0, Misses: 0
80a-> Hits: 5, Late: 0, Early: 0, Misses: 0
810-> Hits: 778, Late: 1344, Early: 0, Misses: 0
811-> Hits: 1, Late: 0, Early: 0, Misses: 0
812-> Hits: 4099, Late: 0, Early: 0, Misses: 0
813-> Hits: 3, Late: 0, Early: 0, Misses: 0
814-> Hits: 16, Late: 0, Early: 0, Misses: 0
815-> Hits: 860, Late: 1261, Early: 0, Misses: 0
816-> Hits: 19, Late: 0, Early: 0, Misses: 0
817-> Hits: 657, Late: 15, Early: 0, Misses: 0
819-> Hits: 3, Late: 0, Early: 0, Misses: 0
81a-> Hits: 6, Late: 0, Early: 0, Misses: 0
81b-> Hits: 795, Late: 1323, Early: 0, Misses: 0
81c-> Hits: 1, Late: 0, Early: 0, Misses: 0
81d-> Hits: 3, Late: 1, Early: 0, Misses: 1
81e-> Hits: 14, Late: 0, Early: 0, Misses: 0
81f-> Hits: 5, Late: 0, Early: 0, Misses: 0
820-> Hits: 12, Late: 2, Early: 0, Misses: 0
821-> Hits: 830, Late: 1297, Early: 0, Misses: 0
822-> Hits: 4, Late: 0, Early: 0, Misses: 0
823-> Hits: 1, Late: 0, Early: 0, Misses: 0
824-> Hits: 4, Late: 0, Early: 0, Misses: 0
825-> Hits: 6, Late: 0, Early: 0, Misses: 0
826-> Hits: 732, Late: 1392, Early: 0, Misses: 0
827-> Hits: 675, Late: 0, Early: 0, Misses: 0
828-> Hits: 9, Late: 0, Early: 0, Misses: 0
829-> Hits: 1, Late: 0, Early: 0, Misses: 0
82a-> Hits: 3, Late: 16, Early: 0, Misses: 0
82b-> Hits: 631, Late: 0, Early: 0, Misses: 0
82c-> Hits: 713, Late: 1409, Early: 0, Misses: 0
82d-> Hits: 4, Late: 0, Early: 0, Misses: 0
82e-> Hits: 4, Late: 0, Early: 0, Misses: 0
82f-> Hits: 5, Late: 0, Early: 0, Misses: 0
830-> Hits: 126636, Late: 406, Early: 0, Misses: 0
831-> Hits: 16, Late: 2, Early: 0, Misses: 0
832-> Hits: 4, Late: 0, Early: 0, Misses: 0
834-> Hits: 4, Late: 0, Early: 0, Misses: 0
835-> Hits: 3, Late: 0, Early: 0, Misses: 0
836-> Hits: 4, Late: 0, Early: 0, Misses: 0
838-> Hits: 366, Late: 2, Early: 0, Misses: 0
839-> Hits: 1, Late: 0, Early: 0, Misses: 0
83a-> Hits: 5, Late: 0, Early: 0, Misses: 0
83c-> Hits: 2, Late: 0, Early: 0, Misses: 0
83d-> Hits: 1, Late: 1, Early: 0, Misses: 0
83e-> Hits: 1, Late: 0, Early: 0, Misses: 0
840-> Hits: 29272, Late: 217, Early: 0, Misses: 164
841-> Hits: 2, Late: 0, Early: 0, Misses: 0
842-> Hits: 3, Late: 0, Early: 0, Misses: 0
844-> Hits: 29157, Late: 79, Early: 0, Misses: 24
847-> Hits: 5, Late: 0, Early: 0, Misses: 1
848-> Hits: 576, Late: 59, Early: 0, Misses: 37
849-> Hits: 418, Late: 2, Early: 0, Misses: 0
84a-> Hits: 2, Late: 0, Early: 0, Misses: 0
84b-> Hits: 21, Late: 0, Early: 0, Misses: 0
84d-> Hits: 377, Late: 0, Early: 0, Misses: 0
84e-> Hits: 3, Late: 1, Early: 0, Misses: 0
84f-> Hits: 3, Late: 0, Early: 0, Misses: 0
850-> Hits: 3, Late: 0, Early: 0, Misses: 0
851-> Hits: 29618, Late: 12, Early: 0, Misses: 0
852-> Hits: 1, Late: 0, Early: 0, Misses: 0
853-> Hits: 6, Late: 0, Early: 0, Misses: 0
854-> Hits: 2, Late: 2, Early: 0, Misses: 0
855-> Hits: 3, Late: 18, Early: 0, Misses: 0
856-> Hits: 1, Late: 0, Early: 0, Misses: 0
857-> Hits: 5, Late: 0, Early: 0, Misses: 0
859-> Hits: 1, Late: 0, Early: 0, Misses: 0
85b-> Hits: 2, Late: 0, Early: 0, Misses: 0
85c-> Hits: 10, Late: 0, Early: 0, Misses: 0
85d-> Hits: 4, Late: 0, Early: 0, Misses: 0
85e-> Hits: 394, Late: 1, Early: 0, Misses: 0
85f-> Hits: 3, Late: 0, Early: 0, Misses: 0
861-> Hits: 26761, Late: 1978, Early: 0, Misses: 916
862-> Hits: 16, Late: 1, Early: 0, Misses: 0
864-> Hits: 3, Late: 0, Early: 0, Misses: 0
865-> Hits: 29585, Late: 43, Early: 0, Misses: 0
866-> Hits: 1, Late: 0, Early: 0, Misses: 0
867-> Hits: 1, Late: 0, Early: 0, Misses: 0
868-> Hits: 1, Late: 0, Early: 0, Misses: 0
869-> Hits: 1, Late: 1, Early: 0, Misses: 0
86a-> Hits: 2, Late: 0, Early: 0, Misses: 0
86b-> Hits: 1, Late: 0, Early: 0, Misses: 0
86c-> Hits: 5, Late: 0, Early: 0, Misses: 0
86d-> Hits: 1, Late: 1, Early: 0, Misses: 0
86e-> Hits: 3, Late: 0, Early: 0, Misses: 0
86f-> Hits: 405, Late: 9, Early: 0, Misses: 0
870-> Hits: 3, Late: 3, Early: 0, Misses: 0
871-> Hits: 18, Late: 0, Early: 0, Misses: 0
872-> Hits: 3, Late: 0, Early: 0, Misses: 0
873-> Hits: 5, Late: 0, Early: 0, Misses: 0
874-> Hits: 5, Late: 1, Early: 0, Misses: 0
875-> Hits: 1, Late: 0, Early: 0, Misses: 0
876-> Hits: 29604, Late: 24, Early: 0, Misses: 0
878-> Hits: 1, Late: 1, Early: 0, Misses: 0
87a-> Hits: 12, Late: 1, Early: 0, Misses: 0
87b-> Hits: 4, Late: 0, Early: 0, Misses: 0
87c-> Hits: 1, Late: 1, Early: 0, Misses: 0
87d-> Hits: 6, Late: 0, Early: 0, Misses: 0
87f-> Hits: 679, Late: 0, Early: 0, Misses: 0
880-> Hits: 2, Late: 0, Early: 0, Misses: 0
881-> Hits: 5, Late: 0, Early: 0, Misses: 0
882-> Hits: 1, Late: 1, Early: 0, Misses: 0
883-> Hits: 617, Late: 0, Early: 0, Misses: 0
884-> Hits: 1, Late: 0, Early: 0, Misses: 0
885-> Hits: 11, Late: 2, Early: 0, Misses: 0
886-> Hits: 2, Late: 0, Early: 0, Misses: 0
887-> Hits: 29587, Late: 37, Early: 0, Misses: 0
888-> Hits: 61, Late: 2, Early: 0, Misses: 0
889-> Hits: 2, Late: 1, Early: 0, Misses: 0
[...]
dab-> Hits: 12, Late: 0, Early: 0, Misses: 0
dac-> Hits: 10, Late: 0, Early: 0, Misses: 0
dad-> Hits: 12, Late: 0, Early: 0, Misses: 0
dae-> Hits: 1, Late: 0, Early: 0, Misses: 0
daf-> Hits: 3, Late: 0, Early: 0, Misses: 0
db0-> Hits: 6, Late: 4, Early: 0, Misses: 0
db1-> Hits: 12, Late: 0, Early: 0, Misses: 0
db2-> Hits: 0, Late: 1, Early: 0, Misses: 0
db3-> Hits: 2, Late: 0, Early: 0, Misses: 0
db5-> Hits: 3, Late: 0, Early: 0, Misses: 0
db7-> Hits: 3, Late: 0, Early: 0, Misses: 0
db8-> Hits: 3, Late: 0, Early: 0, Misses: 0
db9-> Hits: 2, Late: 0, Early: 0, Misses: 0
dba-> Hits: 14, Late: 3, Early: 0, Misses: 10
dbb-> Hits: 2, Late: 0, Early: 0, Misses: 0
dbc-> Hits: 1, Late: 0, Early: 0, Misses: 0
dbd-> Hits: 1, Late: 0, Early: 0, Misses: 0
dbe-> Hits: 5, Late: 0, Early: 0, Misses: 0
dbf-> Hits: 7, Late: 1, Early: 0, Misses: 0
dc0-> Hits: 25, Late: 6, Early: 0, Misses: 0
dc2-> Hits: 3, Late: 2, Early: 0, Misses: 0
dc3-> Hits: 1, Late: 0, Early: 0, Misses: 0
dc7-> Hits: 24, Late: 1, Early: 0, Misses: 0
dc8-> Hits: 3, Late: 1, Early: 0, Misses: 0
dca-> Hits: 3, Late: 0, Early: 0, Misses: 0
dcb-> Hits: 6, Late: 0, Early: 0, Misses: 0
dcc-> Hits: 22, Late: 2, Early: 0, Misses: 0
dcd-> Hits: 22, Late: 0, Early: 0, Misses: 0
dcf-> Hits: 16, Late: 0, Early: 0, Misses: 0
dd0-> Hits: 2, Late: 0, Early: 0, Misses: 0
dd1-> Hits: 17, Late: 0, Early: 0, Misses: 0
dd2-> Hits: 5, Late: 13, Early: 0, Misses: 10
dd3-> Hits: 22, Late: 0, Early: 0, Misses: 0
dd5-> Hits: 4, Late: 0, Early: 0, Misses: 0
dd6-> Hits: 4, Late: 0, Early: 0, Misses: 0
dd8-> Hits: 23, Late: 0, Early: 0, Misses: 0
dd9-> Hits: 16, Late: 0, Early: 0, Misses: 0
dda-> Hits: 4, Late: 0, Early: 0, Misses: 0
ddc-> Hits: 6, Late: 0, Early: 0, Misses: 2
dde-> Hits: 4, Late: 0, Early: 0, Misses: 0
ddf-> Hits: 4, Late: 0, Early: 0, Misses: 0
de0-> Hits: 86, Late: 0, Early: 0, Misses: 0
de2-> Hits: 2, Late: 0, Early: 0, Misses: 0
de3-> Hits: 4, Late: 0, Early: 0, Misses: 0
de4-> Hits: 2, Late: 0, Early: 0, Misses: 0
de7-> Hits: 1, Late: 0, Early: 0, Misses: 0
de9-> Hits: 1, Late: 0, Early: 0, Misses: 0
deb-> Hits: 1, Late: 0, Early: 0, Misses: 0
dec-> Hits: 4, Late: 0, Early: 0, Misses: 0
ded-> Hits: 5, Late: 0, Early: 0, Misses: 0
dee-> Hits: 6, Late: 0, Early: 0, Misses: 0
def-> Hits: 5, Late: 0, Early: 0, Misses: 0
df0-> Hits: 1, Late: 0, Early: 0, Misses: 0
df1-> Hits: 17, Late: 0, Early: 0, Misses: 0
df2-> Hits: 3, Late: 0, Early: 0, Misses: 0
df3-> Hits: 6, Late: 0, Early: 0, Misses: 0
df4-> Hits: 1, Late: 0, Early: 0, Misses: 0
df5-> Hits: 6, Late: 0, Early: 0, Misses: 0
df7-> Hits: 7, Late: 0, Early: 0, Misses: 0
df8-> Hits: 1, Late: 0, Early: 0, Misses: 0
df9-> Hits: 2, Late: 0, Early: 0, Misses: 0
dfb-> Hits: 1, Late: 0, Early: 0, Misses: 0
dfd-> Hits: 4, Late: 0, Early: 0, Misses: 0
e00-> Hits: 5, Late: 0, Early: 0, Misses: 0
e01-> Hits: 2, Late: 0, Early: 0, Misses: 0
e02-> Hits: 3, Late: 0, Early: 0, Misses: 0
e03-> Hits: 2, Late: 0, Early: 0, Misses: 0
e04-> Hits: 8, Late: 0, Early: 0, Misses: 55
e05-> Hits: 4, Late: 1, Early: 0, Misses: 0
e06-> Hits: 2, Late: 0, Early: 0, Misses: 0
e07-> Hits: 0, Late: 28, Early: 0, Misses: 0
e0e-> Hits: 72, Late: 1, Early: 0, Misses: 0
e0f-> Hits: 3, Late: 15, Early: 0, Misses: 12
e10-> Hits: 1, Late: 0, Early: 0, Misses: 0
e12-> Hits: 6, Late: 0, Early: 0, Misses: 0
e13-> Hits: 6, Late: 0, Early: 0, Misses: 0
e14-> Hits: 3, Late: 0, Early: 0, Misses: 0
e15-> Hits: 2, Late: 0, Early: 0, Misses: 0
e16-> Hits: 2, Late: 0, Early: 0, Misses: 0
e17-> Hits: 1, Late: 0, Early: 0, Misses: 0
e18-> Hits: 4, Late: 0, Early: 0, Misses: 0
e19-> Hits: 19, Late: 0, Early: 0, Misses: 0
e1a-> Hits: 2, Late: 0, Early: 0, Misses: 0
e1b-> Hits: 16, Late: 0, Early: 0, Misses: 0
e1c-> Hits: 5, Late: 0, Early: 0, Misses: 0
e1d-> Hits: 1, Late: 2, Early: 0, Misses: 0
e1e-> Hits: 0, Late: 16, Early: 0, Misses: 0
e20-> Hits: 14, Late: 2, Early: 0, Misses: 0
e22-> Hits: 80, Late: 0, Early: 0, Misses: 0
e23-> Hits: 20, Late: 16, Early: 0, Misses: 0
e25-> Hits: 1, Late: 0, Early: 0, Misses: 0
e26-> Hits: 2, Late: 0, Early: 0, Misses: 0
e27-> Hits: 1, Late: 0, Early: 0, Misses: 0
e28-> Hits: 8, Late: 16, Early: 0, Misses: 0
e29-> Hits: 1, Late: 0, Early: 0, Misses: 0
e2a-> Hits: 2, Late: 1, Early: 0, Misses: 0
e2c-> Hits: 1, Late: 16, Early: 0, Misses: 0
e2d-> Hits: 2, Late: 0, Early: 0, Misses: 0
e2f-> Hits: 1, Late: 0, Early: 0, Misses: 0
e30-> Hits: 18, Late: 0, Early: 0, Misses: 0
e31-> Hits: 0, Late: 16, Early: 0, Misses: 0
e33-> Hits: 3, Late: 0, Early: 0, Misses: 0
e34-> Hits: 1, Late: 0, Early: 0, Misses: 0
e35-> Hits: 16, Late: 0, Early: 0, Misses: 0
e36-> Hits: 2, Late: 0, Early: 0, Misses: 0
e38-> Hits: 1, Late: 0, Early: 0, Misses: 0
e39-> Hits: 8, Late: 16, Early: 0, Misses: 0
e3a-> Hits: 1, Late: 0, Early: 0, Misses: 0
e3b-> Hits: 0, Late: 1, Early: 0, Misses: 0
e3c-> Hits: 8, Late: 1, Early: 0, Misses: 0
e3d-> Hits: 13, Late: 4, Early: 0, Misses: 0
e3e-> Hits: 2, Late: 0, Early: 0, Misses: 0
e3f-> Hits: 1, Late: 0, Early: 0, Misses: 0
e40-> Hits: 6, Late: 1, Early: 0, Misses: 0
e41-> Hits: 4, Late: 16, Early: 0, Misses: 0
e42-> Hits: 2, Late: 0, Early: 0, Misses: 0
e44-> Hits: 3, Late: 0, Early: 0, Misses: 0
e45-> Hits: 1, Late: 1, Early: 0, Misses: 0
e47-> Hits: 2, Late: 0, Early: 0, Misses: 0
e48-> Hits: 3, Late: 0, Early: 0, Misses: 0
e49-> Hits: 1, Late: 15, Early: 0, Misses: 0
e4a-> Hits: 1, Late: 0, Early: 0, Misses: 0
e4c-> Hits: 0, Late: 1, Early: 0, Misses: 0
e4d-> Hits: 2, Late: 0, Early: 0, Misses: 0
e4f-> Hits: 2, Late: 0, Early: 0, Misses: 0
e50-> Hits: 0, Late: 3, Early: 0, Misses: 0
e51-> Hits: 2, Late: 0, Early: 0, Misses: 0
e54-> Hits: 1, Late: 0, Early: 0, Misses: 0
e55-> Hits: 2, Late: 0, Early: 0, Misses: 0
e57-> Hits: 8, Late: 0, Early: 0, Misses: 0
e58-> Hits: 2, Late: 0, Early: 0, Misses: 0
e59-> Hits: 20, Late: 0, Early: 0, Misses: 0
e5a-> Hits: 22, Late: 0, Early: 0, Misses: 0
e5b-> Hits: 22, Late: 0, Early: 0, Misses: 0
e5c-> Hits: 2, Late: 0, Early: 0, Misses: 0
e5d-> Hits: 20, Late: 0, Early: 0, Misses: 0
e5e-> Hits: 7, Late: 0, Early: 0, Misses: 0
e5f-> Hits: 20, Late: 0, Early: 0, Misses: 0
e60-> Hits: 6, Late: 2, Early: 0, Misses: 0
e61-> Hits: 22, Late: 0, Early: 0, Misses: 0
e62-> Hits: 2, Late: 0, Early: 0, Misses: 0
e63-> Hits: 26, Late: 0, Early: 0, Misses: 0
e64-> Hits: 0, Late: 1, Early: 0, Misses: 0
e65-> Hits: 6, Late: 0, Early: 0, Misses: 0
e68-> Hits: 2, Late: 0, Early: 0, Misses: 0
e6b-> Hits: 1, Late: 0, Early: 0, Misses: 0
e6c-> Hits: 1, Late: 0, Early: 0, Misses: 0
e6f-> Hits: 2, Late: 0, Early: 0, Misses: 0
e70-> Hits: 4, Late: 1, Early: 0, Misses: 0
e71-> Hits: 5, Late: 1, Early: 0, Misses: 0
e72-> Hits: 34, Late: 0, Early: 0, Misses: 0
e73-> Hits: 2, Late: 0, Early: 0, Misses: 0
e74-> Hits: 5, Late: 0, Early: 0, Misses: 0
e75-> Hits: 5, Late: 0, Early: 0, Misses: 0
e76-> Hits: 6, Late: 0, Early: 0, Misses: 0
e77-> Hits: 1, Late: 0, Early: 0, Misses: 0
e79-> Hits: 2, Late: 0, Early: 0, Misses: 0
e7a-> Hits: 1, Late: 0, Early: 0, Misses: 0
e7b-> Hits: 1, Late: 0, Early: 0, Misses: 0
e7d-> Hits: 15, Late: 1, Early: 0, Misses: 12
e7e-> Hits: 28, Late: 0, Early: 0, Misses: 0
e7f-> Hits: 30, Late: 0, Early: 0, Misses: 0
e80-> Hits: 1, Late: 0, Early: 0, Misses: 0
e81-> Hits: 21, Late: 1, Early: 0, Misses: 12
e82-> Hits: 4, Late: 0, Early: 0, Misses: 0
e83-> Hits: 31, Late: 0, Early: 0, Misses: 0
e84-> Hits: 18, Late: 0, Early: 0, Misses: 0
e85-> Hits: 28, Late: 0, Early: 0, Misses: 0
e86-> Hits: 3, Late: 0, Early: 0, Misses: 0
e87-> Hits: 28, Late: 0, Early: 0, Misses: 0
e88-> Hits: 18, Late: 0, Early: 0, Misses: 0
e8a-> Hits: 3, Late: 0, Early: 0, Misses: 0
e8b-> Hits: 2, Late: 0, Early: 0, Misses: 0
e8d-> Hits: 1, Late: 0, Early: 0, Misses: 0
e90-> Hits: 2, Late: 0, Early: 0, Misses: 0
e91-> Hits: 2, Late: 0, Early: 0, Misses: 0
e92-> Hits: 4, Late: 0, Early: 0, Misses: 0
e94-> Hits: 4, Late: 0, Early: 0, Misses: 0
e95-> Hits: 1, Late: 0, Early: 0, Misses: 0
e96-> Hits: 1, Late: 0, Early: 0, Misses: 0
e97-> Hits: 2, Late: 0, Early: 0, Misses: 0
e98-> Hits: 2, Late: 0, Early: 0, Misses: 0
e99-> Hits: 17, Late: 0, Early: 0, Misses: 0
e9a-> Hits: 2, Late: 0, Early: 0, Misses: 0
e9b-> Hits: 1, Late: 0, Early: 0, Misses: 0
e9d-> Hits: 1, Late: 0, Early: 0, Misses: 0
e9f-> Hits: 1, Late: 0, Early: 0, Misses: 0
ea0-> Hits: 2, Late: 1, Early: 0, Misses: 0
ea1-> Hits: 4, Late: 0, Early: 0, Misses: 0
ea2-> Hits: 2, Late: 0, Early: 0, Misses: 0
ea5-> Hits: 1, Late: 0, Early: 0, Misses: 0
ea6-> Hits: 0, Late: 1, Early: 0, Misses: 0
ea7-> Hits: 1, Late: 0, Early: 0, Misses: 0
ea8-> Hits: 1, Late: 0, Early: 0, Misses: 0
ea9-> Hits: 3, Late: 0, Early: 0, Misses: 0
eaa-> Hits: 1, Late: 0, Early: 0, Misses: 0
eab-> Hits: 5, Late: 0, Early: 0, Misses: 0
eac-> Hits: 1, Late: 0, Early: 0, Misses: 0
eaf-> Hits: 0, Late: 1, Early: 0, Misses: 0
eb0-> Hits: 8006, Late: 4651, Early: 0, Misses: 0
eb3-> Hits: 1, Late: 0, Early: 0, Misses: 0
eb4-> Hits: 1, Late: 0, Early: 0, Misses: 0
eb5-> Hits: 8628, Late: 2890, Early: 0, Misses: 0
eb6-> Hits: 4, Late: 1, Early: 0, Misses: 0
eb8-> Hits: 1, Late: 0, Early: 0, Misses: 0
eba-> Hits: 7256, Late: 5314, Early: 0, Misses: 0
ebc-> Hits: 3, Late: 0, Early: 0, Misses: 0
ebd-> Hits: 1, Late: 0, Early: 0, Misses: 0
ebe-> Hits: 2, Late: 0, Early: 0, Misses: 0
ebf-> Hits: 2, Late: 1, Early: 0, Misses: 0
ec0-> Hits: 7804, Late: 4065, Early: 0, Misses: 0
ec1-> Hits: 13, Late: 0, Early: 0, Misses: 0
ec2-> Hits: 1, Late: 1, Early: 0, Misses: 0
ec3-> Hits: 2, Late: 0, Early: 0, Misses: 0
ec4-> Hits: 1, Late: 1, Early: 0, Misses: 0
ec5-> Hits: 7, Late: 0, Early: 0, Misses: 0
ec6-> Hits: 6375, Late: 6086, Early: 0, Misses: 0
ec7-> Hits: 1, Late: 1, Early: 0, Misses: 0
ec8-> Hits: 1, Late: 0, Early: 0, Misses: 0
eca-> Hits: 1, Late: 0, Early: 0, Misses: 0
ecb-> Hits: 0, Late: 1, Early: 0, Misses: 0
ecc-> Hits: 7075, Late: 4721, Early: 0, Misses: 0
ecd-> Hits: 1, Late: 0, Early: 0, Misses: 0
ece-> Hits: 0, Late: 1, Early: 0, Misses: 0
ecf-> Hits: 4, Late: 0, Early: 0, Misses: 0
ed0-> Hits: 3, Late: 0, Early: 0, Misses: 0
ed1-> Hits: 19, Late: 0, Early: 0, Misses: 0
ed2-> Hits: 4681, Late: 7529, Early: 0, Misses: 0
ed3-> Hits: 2, Late: 0, Early: 0, Misses: 0
ed5-> Hits: 5, Late: 1, Early: 0, Misses: 0
ed6-> Hits: 1, Late: 1, Early: 0, Misses: 0
ed7-> Hits: 2, Late: 1, Early: 0, Misses: 0
ed8-> Hits: 6067, Late: 5665, Early: 0, Misses: 16
ed9-> Hits: 7, Late: 0, Early: 0, Misses: 0
edb-> Hits: 2, Late: 0, Early: 0, Misses: 0
edc-> Hits: 3, Late: 0, Early: 0, Misses: 0
edd-> Hits: 0, Late: 1, Early: 0, Misses: 0
edf-> Hits: 0, Late: 1, Early: 0, Misses: 0
ee0-> Hits: 6, Late: 1, Early: 0, Misses: 16
ee1-> Hits: 6, Late: 16, Early: 0, Misses: 0
ee2-> Hits: 3, Late: 0, Early: 0, Misses: 0
ee3-> Hits: 5, Late: 0, Early: 0, Misses: 0
ee4-> Hits: 8, Late: 0, Early: 0, Misses: 0
ee5-> Hits: 5, Late: 0, Early: 0, Misses: 0
ee7-> Hits: 5, Late: 0, Early: 0, Misses: 0
ee8-> Hits: 1, Late: 0, Early: 0, Misses: 0
ee9-> Hits: 6, Late: 0, Early: 0, Misses: 0
eea-> Hits: 5, Late: 0, Early: 0, Misses: 0
eeb-> Hits: 2, Late: 0, Early: 0, Misses: 0
eec-> Hits: 2, Late: 0, Early: 0, Misses: 0
eed-> Hits: 2, Late: 0, Early: 0, Misses: 0
eee-> Hits: 2, Late: 0, Early: 0, Misses: 0
eef-> Hits: 16, Late: 0, Early: 0, Misses: 0
ef0-> Hits: 5, Late: 0, Early: 0, Misses: 0
ef1-> Hits: 2, Late: 0, Early: 0, Misses: 0
ef2-> Hits: 3, Late: 0, Early: 0, Misses: 0
ef3-> Hits: 1, Late: 0, Early: 0, Misses: 0
ef4-> Hits: 10, Late: 0, Early: 0, Misses: 0
ef5-> Hits: 1, Late: 0, Early: 0, Misses: 0
ef6-> Hits: 2, Late: 0, Early: 0, Misses: 0
ef7-> Hits: 2, Late: 0, Early: 0, Misses: 0
ef8-> Hits: 3, Late: 2, Early: 0, Misses: 0
ef9-> Hits: 1, Late: 0, Early: 0, Misses: 0
efa-> Hits: 8, Late: 0, Early: 0, Misses: 0
efb-> Hits: 5, Late: 0, Early: 0, Misses: 0
efc-> Hits: 4, Late: 0, Early: 0, Misses: 0
efd-> Hits: 2, Late: 0, Early: 0, Misses: 0
efe-> Hits: 10368, Late: 5900, Early: 0, Misses: 75
eff-> Hits: 6, Late: 0, Early: 0, Misses: 0
f00-> Hits: 4, Late: 0, Early: 0, Misses: 0
f01-> Hits: 4, Late: 0, Early: 0, Misses: 0
f02-> Hits: 4, Late: 0, Early: 0, Misses: 0
f03-> Hits: 2, Late: 0, Early: 0, Misses: 0
f04-> Hits: 6, Late: 0, Early: 0, Misses: 0
f05-> Hits: 3, Late: 0, Early: 0, Misses: 0
f06-> Hits: 8, Late: 0, Early: 0, Misses: 0
f07-> Hits: 2, Late: 0, Early: 0, Misses: 0
f08-> Hits: 4, Late: 0, Early: 0, Misses: 0
f09-> Hits: 9, Late: 0, Early: 0, Misses: 0
f0b-> Hits: 2, Late: 0, Early: 0, Misses: 0
f0c-> Hits: 4, Late: 4, Early: 0, Misses: 0
f0d-> Hits: 2, Late: 0, Early: 0, Misses: 0
f0e-> Hits: 2, Late: 0, Early: 0, Misses: 0
f10-> Hits: 34, Late: 4, Early: 0, Misses: 0
f13-> Hits: 30, Late: 0, Early: 0, Misses: 0
f15-> Hits: 1, Late: 0, Early: 0, Misses: 0
f16-> Hits: 4, Late: 0, Early: 0, Misses: 0
f17-> Hits: 22, Late: 0, Early: 0, Misses: 0
f18-> Hits: 1, Late: 0, Early: 0, Misses: 0
f19-> Hits: 4, Late: 1, Early: 0, Misses: 0
f1c-> Hits: 1, Late: 0, Early: 0, Misses: 0
f1e-> Hits: 2, Late: 0, Early: 0, Misses: 0
f20-> Hits: 180, Late: 58, Early: 0, Misses: 0
f21-> Hits: 19, Late: 4, Early: 0, Misses: 0
f22-> Hits: 7, Late: 0, Early: 0, Misses: 2
f23-> Hits: 3, Late: 0, Early: 0, Misses: 0
f24-> Hits: 35, Late: 0, Early: 0, Misses: 0
f25-> Hits: 225, Late: 8, Early: 0, Misses: 0
f26-> Hits: 1, Late: 0, Early: 0, Misses: 0
f27-> Hits: 23, Late: 0, Early: 0, Misses: 0
f28-> Hits: 3, Late: 0, Early: 0, Misses: 0
f29-> Hits: 6, Late: 3, Early: 0, Misses: 0
f2a-> Hits: 133, Late: 109, Early: 0, Misses: 0
f2b-> Hits: 16, Late: 1, Early: 0, Misses: 0
f2f-> Hits: 5, Late: 0, Early: 0, Misses: 0
f30-> Hits: 188, Late: 56, Early: 0, Misses: 0
f31-> Hits: 163, Late: 0, Early: 0, Misses: 0
f32-> Hits: 36, Late: 0, Early: 0, Misses: 0
f33-> Hits: 9, Late: 0, Early: 0, Misses: 0
f34-> Hits: 1, Late: 2, Early: 0, Misses: 0
f37-> Hits: 17, Late: 0, Early: 0, Misses: 0
f39-> Hits: 3, Late: 0, Early: 0, Misses: 0
f3b-> Hits: 8, Late: 0, Early: 0, Misses: 0
f3c-> Hits: 8, Late: 0, Early: 0, Misses: 0
f3d-> Hits: 43, Late: 9, Early: 0, Misses: 0
f3e-> Hits: 2, Late: 0, Early: 0, Misses: 0
f3f-> Hits: 15, Late: 0, Early: 0, Misses: 0
f40-> Hits: 188, Late: 47, Early: 0, Misses: 0
f41-> Hits: 8, Late: 0, Early: 0, Misses: 0
f43-> Hits: 9, Late: 0, Early: 0, Misses: 0
f44-> Hits: 5, Late: 0, Early: 0, Misses: 0
f45-> Hits: 212, Late: 26, Early: 0, Misses: 0
f49-> Hits: 2, Late: 0, Early: 0, Misses: 0
f4a-> Hits: 131, Late: 103, Early: 0, Misses: 0
f4c-> Hits: 0, Late: 1, Early: 0, Misses: 0
f50-> Hits: 182, Late: 47, Early: 0, Misses: 0
f53-> Hits: 7, Late: 0, Early: 0, Misses: 0
f54-> Hits: 2, Late: 0, Early: 0, Misses: 0
f59-> Hits: 114, Late: 62, Early: 0, Misses: 1
f5a-> Hits: 20, Late: 0, Early: 0, Misses: 0
f5b-> Hits: 1, Late: 0, Early: 0, Misses: 0
f5d-> Hits: 1, Late: 0, Early: 0, Misses: 0
f5e-> Hits: 1, Late: 0, Early: 0, Misses: 0
f5f-> Hits: 159, Late: 65, Early: 0, Misses: 0
f60-> Hits: 13, Late: 2, Early: 0, Misses: 0
f61-> Hits: 0, Late: 0, Early: 0, Misses: 1
f63-> Hits: 2, Late: 0, Early: 0, Misses: 0
f64-> Hits: 297, Late: 79, Early: 0, Misses: 16
f65-> Hits: 5, Late: 0, Early: 0, Misses: 0
f66-> Hits: 2, Late: 0, Early: 0, Misses: 0
f68-> Hits: 2, Late: 0, Early: 0, Misses: 0
f69-> Hits: 114, Late: 109, Early: 0, Misses: 0
f6c-> Hits: 23, Late: 1, Early: 0, Misses: 0
f6d-> Hits: 8, Late: 0, Early: 0, Misses: 0
f6f-> Hits: 178, Late: 51, Early: 0, Misses: 0
f70-> Hits: 0, Late: 18, Early: 0, Misses: 0
f73-> Hits: 1, Late: 1, Early: 0, Misses: 0
f74-> Hits: 124, Late: 37, Early: 0, Misses: 16
f78-> Hits: 118, Late: 42, Early: 0, Misses: 16
f7a-> Hits: 4, Late: 0, Early: 0, Misses: 0
f7d-> Hits: 13, Late: 2, Early: 0, Misses: 0
f7e-> Hits: 125, Late: 91, Early: 0, Misses: 0
f7f-> Hits: 3, Late: 1, Early: 0, Misses: 0
f80-> Hits: 4, Late: 1, Early: 0, Misses: 0
f83-> Hits: 169, Late: 41, Early: 0, Misses: 0
f85-> Hits: 3, Late: 0, Early: 0, Misses: 0
f86-> Hits: 3, Late: 0, Early: 0, Misses: 0
f87-> Hits: 15, Late: 0, Early: 0, Misses: 0
f88-> Hits: 114, Late: 103, Early: 0, Misses: 0
f89-> Hits: 1, Late: 0, Early: 0, Misses: 0
f8b-> Hits: 116, Late: 13, Early: 0, Misses: 0
f8c-> Hits: 6, Late: 0, Early: 0, Misses: 0
f8d-> Hits: 3, Late: 0, Early: 0, Misses: 0
f8e-> Hits: 161, Late: 48, Early: 0, Misses: 0
f8f-> Hits: 1, Late: 0, Early: 0, Misses: 0
f90-> Hits: 7, Late: 0, Early: 0, Misses: 0
f91-> Hits: 1, Late: 0, Early: 0, Misses: 0
f92-> Hits: 2, Late: 0, Early: 0, Misses: 0
f93-> Hits: 6, Late: 0, Early: 0, Misses: 0
f94-> Hits: 1, Late: 0, Early: 0, Misses: 0
f95-> Hits: 0, Late: 2, Early: 0, Misses: 0
f96-> Hits: 1, Late: 0, Early: 0, Misses: 0
f98-> Hits: 1, Late: 0, Early: 0, Misses: 0
f9a-> Hits: 15, Late: 0, Early: 0, Misses: 0
f9c-> Hits: 3, Late: 0, Early: 0, Misses: 0
f9d-> Hits: 17, Late: 3, Early: 0, Misses: 0
f9e-> Hits: 1, Late: 0, Early: 0, Misses: 0
f9f-> Hits: 7, Late: 0, Early: 0, Misses: 0
fa0-> Hits: 5, Late: 1, Early: 0, Misses: 0
fa1-> Hits: 1, Late: 0, Early: 0, Misses: 0
fa4-> Hits: 1, Late: 0, Early: 0, Misses: 0
faa-> Hits: 3, Late: 0, Early: 0, Misses: 0
fb0-> Hits: 2256, Late: 44, Early: 0, Misses: 16
fb1-> Hits: 3, Late: 3, Early: 0, Misses: 0
fb3-> Hits: 10, Late: 0, Early: 0, Misses: 0
fb6-> Hits: 1, Late: 0, Early: 0, Misses: 0
fb8-> Hits: 5, Late: 0, Early: 0, Misses: 0
fba-> Hits: 27, Late: 1, Early: 0, Misses: 0
fbb-> Hits: 15, Late: 1, Early: 0, Misses: 0
fbd-> Hits: 1, Late: 0, Early: 0, Misses: 0
fbe-> Hits: 1, Late: 0, Early: 0, Misses: 0
fbf-> Hits: 2, Late: 0, Early: 0, Misses: 0
fc0-> Hits: 4, Late: 0, Early: 0, Misses: 0
fc1-> Hits: 256, Late: 0, Early: 0, Misses: 0
fc4-> Hits: 9, Late: 1, Early: 0, Misses: 0
fc5-> Hits: 2, Late: 0, Early: 0, Misses: 0
fc6-> Hits: 2, Late: 0, Early: 0, Misses: 0
fc7-> Hits: 2, Late: 0, Early: 0, Misses: 0
fc8-> Hits: 9, Late: 0, Early: 0, Misses: 0
fca-> Hits: 2, Late: 0, Early: 0, Misses: 0
fcb-> Hits: 1, Late: 0, Early: 0, Misses: 0
fcd-> Hits: 1, Late: 1, Early: 0, Misses: 0
fce-> Hits: 1, Late: 0, Early: 0, Misses: 0
fd0-> Hits: 4, Late: 0, Early: 0, Misses: 0
fd2-> Hits: 1, Late: 0, Early: 0, Misses: 0
fd5-> Hits: 256, Late: 0, Early: 0, Misses: 0
fd6-> Hits: 6, Late: 0, Early: 0, Misses: 0
fd7-> Hits: 6, Late: 0, Early: 0, Misses: 0
fd8-> Hits: 10, Late: 0, Early: 0, Misses: 0
fda-> Hits: 6, Late: 0, Early: 0, Misses: 0
fdc-> Hits: 7, Late: 1, Early: 0, Misses: 0
fde-> Hits: 8, Late: 0, Early: 0, Misses: 0
fdf-> Hits: 35, Late: 0, Early: 0, Misses: 12
fe0-> Hits: 8, Late: 0, Early: 0, Misses: 0
fe1-> Hits: 4, Late: 0, Early: 0, Misses: 0
fe2-> Hits: 2, Late: 0, Early: 0, Misses: 0
fe3-> Hits: 4, Late: 0, Early: 0, Misses: 0
fe4-> Hits: 16, Late: 1, Early: 0, Misses: 0
fe5-> Hits: 7, Late: 6, Early: 0, Misses: 0
fe6-> Hits: 2, Late: 0, Early: 0, Misses: 0
fe7-> Hits: 1, Late: 1, Early: 0, Misses: 0
fe8-> Hits: 131, Late: 74, Early: 0, Misses: 0
feb-> Hits: 1, Late: 2, Early: 0, Misses: 0
fec-> Hits: 5, Late: 0, Early: 0, Misses: 0
fed-> Hits: 174, Late: 29, Early: 0, Misses: 0
fee-> Hits: 1, Late: 0, Early: 0, Misses: 0
fef-> Hits: 0, Late: 1, Early: 0, Misses: 0
ff0-> Hits: 8, Late: 0, Early: 0, Misses: 0
ff2-> Hits: 266, Late: 117, Early: 0, Misses: 2
ff3-> Hits: 14, Late: 0, Early: 0, Misses: 0
ff5-> Hits: 2, Late: 0, Early: 0, Misses: 0
ff7-> Hits: 4, Late: 0, Early: 0, Misses: 0
ff8-> Hits: 165, Late: 30, Early: 0, Misses: 0
ff9-> Hits: 29, Late: 0, Early: 0, Misses: 0
ffd-> Hits: 2, Late: 0, Early: 0, Misses: 0
ffe-> Hits: 20, Late: 0, Early: 0, Misses: 0
fff-> Hits: 12, Late: 0, Early: 0, Misses: 0
Total misses (from ip) 330340
Total accesses (misses) 11404630 330340
Pref: Addr 0 IP 0 Current 0
CPU 0 L2C berti prefetcher final stats
Channel_0_RQ_row_buffer_hit 161757
Channel_0_RQ_row_buffer_miss 32397
Channel_0_WQ_row_buffer_hit 19792
Channel_0_WQ_row_buffer_miss 21485
Channel_0_WQ_full 0
Channel_0_dbus_congested 78866

avg_congested_cycle 8

EzSearch AVG IPC :0.91658: L2-Pf-HR :0.60742 : L2-HR :0.67673 Uful:0.24972
     > Finished combination: TraceType=770-tot Sim:37000000 Prefetcher=L2berti L1=berti
