TRACE: [409000000][GPT-Neo_2_7B]_[h32][s512][d80] Warmup: 2000000 NumTraces: 409000000
L1:ipcp:L2:ipcp
*************************************************
   ChampSim Multicore Out-of-Order Simulator
   Last compiled: Oct 26 2024 15:40:08
*************************************************

trace_0 770-tot_memTraces_v3/memTraces[409000000][GPT-Neo_2_7B]_[h32][s512][d80].champsim.xz
MAIN.cc ln 751 stats print skipped
CPU  0 inst:    1000003 cyc:     498768 now IPC :2.00495: AVG IPC :2.00495: L2-Pf-HR :0.85523: L2-HR :0.78431: (Sim:0h0m14s) 
CPU  0 inst:    2000002 cyc:     982267 now IPC :2.06825: AVG IPC :2.03611: L2-Pf-HR :0.90583: L2-HR :0.83595: (Sim:0h0m28s) 

Warmup complete CPU  0 instructions:    2000002 cycles:     982267 (Simulation time: 0 hr 0 min 28 sec) 

CPU  0 inst:    3000000 cyc:    1563102 now IPC :1.72166: AVG IPC :1.72166: L2-Pf-HR :0.94264: L2-HR :0.87494: (Sim:0h0m40s) 
CPU  0 inst:    4000000 cyc:    2152136 now IPC :1.69769: AVG IPC :1.70959: L2-Pf-HR :0.94189: L2-HR :0.87125: (Sim:0h0m52s) 
CPU  0 inst:    5000004 cyc:    2694697 now IPC :1.84312: AVG IPC :1.75190: L2-Pf-HR :0.94187: L2-HR :0.85920: (Sim:0h1m3s) 
CPU  0 inst:    6000002 cyc:    3291168 now IPC :1.67652: AVG IPC :1.73243: L2-Pf-HR :0.93899: L2-HR :0.85715: (Sim:0h1m15s) 
CPU  0 inst:    7000001 cyc:    3852444 now IPC :1.78165: AVG IPC :1.74205: L2-Pf-HR :0.94608: L2-HR :0.86497: (Sim:0h1m27s) 
CPU  0 inst:    8000000 cyc:    4409596 now IPC :1.79484: AVG IPC :1.75063: L2-Pf-HR :0.95127: L2-HR :0.87047: (Sim:0h1m39s) 
CPU  0 inst:    9000002 cyc:    4971922 now IPC :1.77833: AVG IPC :1.75454: L2-Pf-HR :0.95562: L2-HR :0.87480: (Sim:0h1m50s) 
CPU  0 inst:   10000003 cyc:    5533204 now IPC :1.78164: AVG IPC :1.75788: L2-Pf-HR :0.95319: L2-HR :0.86902: (Sim:0h2m2s) 
CPU  0 inst:   11000004 cyc:    6128717 now IPC :1.67923: AVG IPC :1.74878: L2-Pf-HR :0.95047: L2-HR :0.86665: (Sim:0h2m14s) 
CPU  0 inst:   12000000 cyc:    6688336 now IPC :1.78692: AVG IPC :1.75252: L2-Pf-HR :0.95215: L2-HR :0.86916: (Sim:0h2m26s) 
CPU  0 inst:   13000005 cyc:    7253389 now IPC :1.76975: AVG IPC :1.75407: L2-Pf-HR :0.95462: L2-HR :0.87158: (Sim:0h2m37s) 
CPU  0 inst:   14000001 cyc:    7812896 now IPC :1.78728: AVG IPC :1.75679: L2-Pf-HR :0.95678: L2-HR :0.87364: (Sim:0h2m49s) 
CPU  0 inst:   15000002 cyc:    8368113 now IPC :1.80110: AVG IPC :1.76012: L2-Pf-HR :0.95587: L2-HR :0.87153: (Sim:0h3m0s) 
CPU  0 inst:   16000000 cyc:    8965565 now IPC :1.67377: AVG IPC :1.75366: L2-Pf-HR :0.95425: L2-HR :0.86935: (Sim:0h3m12s) 
CPU  0 inst:   17000001 cyc:    9524949 now IPC :1.78768: AVG IPC :1.75589: L2-Pf-HR :0.95573: L2-HR :0.87114: (Sim:0h3m25s) 
CPU  0 inst:   18000003 cyc:   10088793 now IPC :1.77354: AVG IPC :1.75698: L2-Pf-HR :0.95705: L2-HR :0.87267: (Sim:0h3m43s) 
CPU  0 inst:   19000005 cyc:   10650286 now IPC :1.78097: AVG IPC :1.75838: L2-Pf-HR :0.95810: L2-HR :0.87404: (Sim:0h4m0s) 
CPU  0 inst:   20000004 cyc:   11210306 now IPC :1.78565: AVG IPC :1.75987: L2-Pf-HR :0.95774: L2-HR :0.87273: (Sim:0h4m18s) 
CPU  0 inst:   21000003 cyc:   11800913 now IPC :1.69317: AVG IPC :1.75623: L2-Pf-HR :0.95572: L2-HR :0.87062: (Sim:0h4m35s) 
CPU  0 inst:   22000001 cyc:   12359253 now IPC :1.79102: AVG IPC :1.75793: L2-Pf-HR :0.95641: L2-HR :0.87186: (Sim:0h4m52s) 
CPU  0 inst:   23000004 cyc:   12919154 now IPC :1.78604: AVG IPC :1.75925: L2-Pf-HR :0.95722: L2-HR :0.87306: (Sim:0h5m9s) 
CPU  0 inst:   24000005 cyc:   13478359 now IPC :1.78825: AVG IPC :1.76055: L2-Pf-HR :0.95816: L2-HR :0.87418: (Sim:0h5m27s) 
CPU  0 inst:   25000004 cyc:   14039878 now IPC :1.78088: AVG IPC :1.76143: L2-Pf-HR :0.95796: L2-HR :0.87334: (Sim:0h5m44s) 
CPU  0 inst:   26000004 cyc:   14630513 now IPC :1.69309: AVG IPC :1.75847: L2-Pf-HR :0.95630: L2-HR :0.87156: (Sim:0h6m2s) 
CPU  0 inst:   27000001 cyc:   15191087 now IPC :1.78388: AVG IPC :1.75947: L2-Pf-HR :0.95692: L2-HR :0.87255: (Sim:0h6m19s) 
CPU  0 inst:   28000004 cyc:   15757570 now IPC :1.76528: AVG IPC :1.75969: L2-Pf-HR :0.95760: L2-HR :0.87338: (Sim:0h6m36s) 
CPU  0 inst:   29000002 cyc:   16324137 now IPC :1.76501: AVG IPC :1.75989: L2-Pf-HR :0.95811: L2-HR :0.87406: (Sim:0h6m54s) 
CPU  0 inst:   30000002 cyc:   16908933 now IPC :1.71000: AVG IPC :1.75806: L2-Pf-HR :0.95803: L2-HR :0.87369: (Sim:0h7m12s) 
CPU  0 inst:   31000001 cyc:   17528691 now IPC :1.61353: AVG IPC :1.75264: L2-Pf-HR :0.95673: L2-HR :0.87219: (Sim:0h7m29s) 
CPU  0 inst:   32000001 cyc:   18135914 now IPC :1.64684: AVG IPC :1.74890: L2-Pf-HR :0.95703: L2-HR :0.87285: (Sim:0h7m47s) 
CPU  0 inst:   33000000 cyc:   18738769 now IPC :1.65877: AVG IPC :1.74584: L2-Pf-HR :0.95747: L2-HR :0.87351: (Sim:0h8m5s) 
CPU  0 inst:   34000002 cyc:   19344054 now IPC :1.65212: AVG IPC :1.74275: L2-Pf-HR :0.95801: L2-HR :0.87429: (Sim:0h8m22s) 
CPU  0 inst:   35000004 cyc:   19945149 now IPC :1.66363: AVG IPC :1.74024: L2-Pf-HR :0.95753: L2-HR :0.87404: (Sim:0h8m40s) 
CPU  0 inst:   36000001 cyc:   20592527 now IPC :1.54469: AVG IPC :1.73379: L2-Pf-HR :0.95606: L2-HR :0.87260: (Sim:0h8m58s) 
CPU  0 inst:   37000001 cyc:   21204099 now IPC :1.63513: AVG IPC :1.73080: L2-Pf-HR :0.95629: L2-HR :0.87319: (Sim:0h9m16s) 
CPU  0 inst:   38000003 cyc:   21814357 now IPC :1.63865: AVG IPC :1.72810: L2-Pf-HR :0.95651: L2-HR :0.87390: (Sim:0h9m34s) 
CPU  0 inst:   39000001 cyc:   22425663 now IPC :1.63584: AVG IPC :1.72547: L2-Pf-HR :0.95686: L2-HR :0.87457: (Sim:0h9m52s) 
CPU  0 inst:   40000002 cyc:   23038716 now IPC :1.63118: AVG IPC :1.72285: L2-Pf-HR :0.95666: L2-HR :0.87441: (Sim:0h10m10s) 
CPU  0 inst:   41000000 cyc:   23688503 now IPC :1.53896: AVG IPC :1.71759: L2-Pf-HR :0.95560: L2-HR :0.87301: (Sim:0h10m28s) 
CPU  0 inst:   42000004 cyc:   24299528 now IPC :1.63660: AVG IPC :1.71547: L2-Pf-HR :0.95595: L2-HR :0.87342: (Sim:0h10m45s) 
CPU  0 inst:   43000003 cyc:   24904554 now IPC :1.65282: AVG IPC :1.71388: L2-Pf-HR :0.95613: L2-HR :0.87395: (Sim:0h10m57s) 
CPU  0 inst:   44000004 cyc:   25509582 now IPC :1.65282: AVG IPC :1.71238: L2-Pf-HR :0.95659: L2-HR :0.87461: (Sim:0h11m11s) 
CPU  0 inst:   45000005 cyc:   26126925 now IPC :1.61985: AVG IPC :1.71010: L2-Pf-HR :0.95667: L2-HR :0.87462: (Sim:0h11m20s) 
CPU  0 inst:   46000002 cyc:   26758762 now IPC :1.58268: AVG IPC :1.70698: L2-Pf-HR :0.95556: L2-HR :0.87323: (Sim:0h11m29s) 
CPU  0 inst:   47000004 cyc:   27385950 now IPC :1.59442: AVG IPC :1.70431: L2-Pf-HR :0.95588: L2-HR :0.87372: (Sim:0h11m38s) 
CPU  0 inst:   48000005 cyc:   27991299 now IPC :1.65194: AVG IPC :1.70313: L2-Pf-HR :0.95604: L2-HR :0.87408: (Sim:0h11m46s) 
CPU  0 inst:   49000005 cyc:   28601126 now IPC :1.63981: AVG IPC :1.70174: L2-Pf-HR :0.95642: L2-HR :0.87455: (Sim:0h11m58s) 
CPU  0 inst:   50000002 cyc:   29226024 now IPC :1.60026: AVG IPC :1.69949: L2-Pf-HR :0.95649: L2-HR :0.87466: (Sim:0h12m10s) 
CPU  0 inst:   51000003 cyc:   29801606 now IPC :1.73737: AVG IPC :1.70025: L2-Pf-HR :0.95641: L2-HR :0.87402: (Sim:0h12m22s) 
CPU  0 inst:   52000001 cyc:   30480614 now IPC :1.47273: AVG IPC :1.69501: L2-Pf-HR :0.95567: L2-HR :0.87367: (Sim:0h12m35s) 
CPU  0 inst:   53000000 cyc:   31091903 now IPC :1.63589: AVG IPC :1.69381: L2-Pf-HR :0.95579: L2-HR :0.87404: (Sim:0h12m45s) 
CPU  0 inst:   54000002 cyc:   31703876 now IPC :1.63406: AVG IPC :1.69262: L2-Pf-HR :0.95613: L2-HR :0.87463: (Sim:0h12m54s) 
CPU  0 inst:   55000001 cyc:   32326926 now IPC :1.60501: AVG IPC :1.69088: L2-Pf-HR :0.95614: L2-HR :0.87482: (Sim:0h13m2s) 
CPU  0 inst:   56000002 cyc:   32910842 now IPC :1.71258: AVG IPC :1.69128: L2-Pf-HR :0.95599: L2-HR :0.87422: (Sim:0h13m11s) 
CPU  0 inst:   57000003 cyc:   33576375 now IPC :1.50256: AVG IPC :1.68742: L2-Pf-HR :0.95545: L2-HR :0.87387: (Sim:0h13m20s) 
CPU  0 inst:   58000003 cyc:   34180959 now IPC :1.65403: AVG IPC :1.68681: L2-Pf-HR :0.95560: L2-HR :0.87425: (Sim:0h13m28s) 
CPU  0 inst:   59000000 cyc:   34780557 now IPC :1.66778: AVG IPC :1.68648: L2-Pf-HR :0.95586: L2-HR :0.87474: (Sim:0h13m37s) 
CPU  0 inst:   60000005 cyc:   35402294 now IPC :1.60841: AVG IPC :1.68507: L2-Pf-HR :0.95597: L2-HR :0.87498: (Sim:0h13m49s) 
CPU  0 inst:   61000005 cyc:   35992349 now IPC :1.69476: AVG IPC :1.68523: L2-Pf-HR :0.95572: L2-HR :0.87444: (Sim:0h13m59s) 
CPU  0 inst:   62000004 cyc:   36650601 now IPC :1.51917: AVG IPC :1.68216: L2-Pf-HR :0.95523: L2-HR :0.87407: (Sim:0h14m14s) 
CPU  0 inst:   63000005 cyc:   37256101 now IPC :1.65153: AVG IPC :1.68165: L2-Pf-HR :0.95543: L2-HR :0.87439: (Sim:0h14m23s) 
CPU  0 inst:   64000001 cyc:   37863466 now IPC :1.64645: AVG IPC :1.68107: L2-Pf-HR :0.95579: L2-HR :0.87482: (Sim:0h14m32s) 
CPU  0 inst:   65000004 cyc:   38469625 now IPC :1.64974: AVG IPC :1.68057: L2-Pf-HR :0.95608: L2-HR :0.87525: (Sim:0h14m42s) 
CPU  0 inst:   66000003 cyc:   39079706 now IPC :1.63912: AVG IPC :1.67990: L2-Pf-HR :0.95574: L2-HR :0.87458: (Sim:0h14m53s) 
CPU  0 inst:   67000001 cyc:   39744507 now IPC :1.50421: AVG IPC :1.67689: L2-Pf-HR :0.95531: L2-HR :0.87422: (Sim:0h15m4s) 
CPU  0 inst:   68000001 cyc:   40355634 now IPC :1.63632: AVG IPC :1.67626: L2-Pf-HR :0.95549: L2-HR :0.87448: (Sim:0h15m13s) 
CPU  0 inst:   69000001 cyc:   40971589 now IPC :1.62350: AVG IPC :1.67545: L2-Pf-HR :0.95575: L2-HR :0.87477: (Sim:0h15m22s) 
CPU  0 inst:   70000001 cyc:   41582242 now IPC :1.63759: AVG IPC :1.67488: L2-Pf-HR :0.95607: L2-HR :0.87509: (Sim:0h15m30s) 
CPU  0 inst:   71000001 cyc:   42174221 now IPC :1.68925: AVG IPC :1.67508: L2-Pf-HR :0.95569: L2-HR :0.87469: (Sim:0h15m41s) 
CPU  0 inst:   72000004 cyc:   42841628 now IPC :1.49834: AVG IPC :1.67227: L2-Pf-HR :0.95520: L2-HR :0.87421: (Sim:0h15m53s) 
CPU  0 inst:   73000000 cyc:   43441270 now IPC :1.66765: AVG IPC :1.67220: L2-Pf-HR :0.95540: L2-HR :0.87449: (Sim:0h16m1s) 
CPU  0 inst:   74000005 cyc:   44042468 now IPC :1.66335: AVG IPC :1.67208: L2-Pf-HR :0.95562: L2-HR :0.87480: (Sim:0h16m10s) 
CPU  0 inst:   75000001 cyc:   44645526 now IPC :1.65821: AVG IPC :1.67189: L2-Pf-HR :0.95578: L2-HR :0.87508: (Sim:0h16m19s) 
CPU  0 inst:   76000005 cyc:   45255395 now IPC :1.63970: AVG IPC :1.67144: L2-Pf-HR :0.95565: L2-HR :0.87478: (Sim:0h16m30s) 
CPU  0 inst:   77000004 cyc:   45918257 now IPC :1.50861: AVG IPC :1.66904: L2-Pf-HR :0.95517: L2-HR :0.87426: (Sim:0h16m43s) 
CPU  0 inst:   78000001 cyc:   46531022 now IPC :1.63194: AVG IPC :1.66854: L2-Pf-HR :0.95541: L2-HR :0.87453: (Sim:0h16m56s) 
CPU  0 inst:   79000000 cyc:   47142888 now IPC :1.63434: AVG IPC :1.66809: L2-Pf-HR :0.95563: L2-HR :0.87482: (Sim:0h17m8s) 
CPU  0 inst:   80000001 cyc:   47756443 now IPC :1.62985: AVG IPC :1.66759: L2-Pf-HR :0.95589: L2-HR :0.87510: (Sim:0h17m20s) 
CPU  0 inst:   81000005 cyc:   48364747 now IPC :1.64392: AVG IPC :1.66728: L2-Pf-HR :0.95575: L2-HR :0.87486: (Sim:0h17m31s) 
CPU  0 inst:   82000001 cyc:   49026604 now IPC :1.51089: AVG IPC :1.66513: L2-Pf-HR :0.95531: L2-HR :0.87433: (Sim:0h17m43s) 
CPU  0 inst:   83000003 cyc:   49636444 now IPC :1.63978: AVG IPC :1.66481: L2-Pf-HR :0.95556: L2-HR :0.87458: (Sim:0h17m54s) 
CPU  0 inst:   84000004 cyc:   50249264 now IPC :1.63180: AVG IPC :1.66440: L2-Pf-HR :0.95575: L2-HR :0.87481: (Sim:0h18m6s) 
CPU  0 inst:   85000005 cyc:   50858500 now IPC :1.64140: AVG IPC :1.66412: L2-Pf-HR :0.95594: L2-HR :0.87502: (Sim:0h18m18s) 
CPU  0 inst:   86000000 cyc:   51464296 now IPC :1.65071: AVG IPC :1.66396: L2-Pf-HR :0.95587: L2-HR :0.87486: (Sim:0h18m28s) 
CPU  0 inst:   87000005 cyc:   52114330 now IPC :1.53839: AVG IPC :1.66236: L2-Pf-HR :0.95538: L2-HR :0.87432: (Sim:0h18m40s) 
CPU  0 inst:   88000003 cyc:   52714655 now IPC :1.66576: AVG IPC :1.66240: L2-Pf-HR :0.95539: L2-HR :0.87455: (Sim:0h18m53s) 
CPU  0 inst:   89000002 cyc:   53324438 now IPC :1.63993: AVG IPC :1.66214: L2-Pf-HR :0.95552: L2-HR :0.87478: (Sim:0h19m5s) 
CPU  0 inst:   90000004 cyc:   53935337 now IPC :1.63694: AVG IPC :1.66185: L2-Pf-HR :0.95573: L2-HR :0.87504: (Sim:0h19m18s) 
CPU  0 inst:   91000000 cyc:   54538452 now IPC :1.65805: AVG IPC :1.66181: L2-Pf-HR :0.95566: L2-HR :0.87493: (Sim:0h19m30s) 
CPU  0 inst:   92000001 cyc:   55180552 now IPC :1.55739: AVG IPC :1.66057: L2-Pf-HR :0.95519: L2-HR :0.87435: (Sim:0h19m43s) 
CPU  0 inst:   93000003 cyc:   55777971 now IPC :1.67387: AVG IPC :1.66071: L2-Pf-HR :0.95525: L2-HR :0.87456: (Sim:0h19m55s) 
CPU  0 inst:   94000004 cyc:   56383817 now IPC :1.65059: AVG IPC :1.66060: L2-Pf-HR :0.95532: L2-HR :0.87473: (Sim:0h20m7s) 
CPU  0 inst:   95000004 cyc:   56993723 now IPC :1.63960: AVG IPC :1.66037: L2-Pf-HR :0.95542: L2-HR :0.87494: (Sim:0h20m19s) 
CPU  0 inst:   96000002 cyc:   57612680 now IPC :1.61562: AVG IPC :1.65989: L2-Pf-HR :0.95538: L2-HR :0.87483: (Sim:0h20m32s) 
CPU  0 inst:   97000001 cyc:   58251999 now IPC :1.56416: AVG IPC :1.65882: L2-Pf-HR :0.95493: L2-HR :0.87426: (Sim:0h20m44s) 
CPU  0 inst:   98000003 cyc:   58862338 now IPC :1.63844: AVG IPC :1.65860: L2-Pf-HR :0.95502: L2-HR :0.87446: (Sim:0h20m56s) 
CPU  0 inst:   99000002 cyc:   59465416 now IPC :1.65816: AVG IPC :1.65860: L2-Pf-HR :0.95513: L2-HR :0.87461: (Sim:0h21m8s) 
CPU  0 inst:  100000004 cyc:   60067840 now IPC :1.65996: AVG IPC :1.65861: L2-Pf-HR :0.95520: L2-HR :0.87479: (Sim:0h21m20s) 
CPU  0 inst:  101000000 cyc:   60671780 now IPC :1.65579: AVG IPC :1.65858: L2-Pf-HR :0.95516: L2-HR :0.87476: (Sim:0h21m31s) 
CPU  0 inst:  102000001 cyc:   61312386 now IPC :1.56102: AVG IPC :1.65755: L2-Pf-HR :0.95471: L2-HR :0.87415: (Sim:0h21m44s) 
CPU  0 inst:  103000002 cyc:   61947567 now IPC :1.57436: AVG IPC :1.65668: L2-Pf-HR :0.95479: L2-HR :0.87433: (Sim:0h21m56s) 
CPU  0 inst:  104000002 cyc:   62570816 now IPC :1.60450: AVG IPC :1.65615: L2-Pf-HR :0.95489: L2-HR :0.87444: (Sim:0h22m8s) 
CPU  0 inst:  105000005 cyc:   63187713 now IPC :1.62102: AVG IPC :1.65580: L2-Pf-HR :0.95491: L2-HR :0.87458: (Sim:0h22m21s) 
CPU  0 inst:  106000005 cyc:   63814452 now IPC :1.59556: AVG IPC :1.65520: L2-Pf-HR :0.95493: L2-HR :0.87462: (Sim:0h22m33s) 
CPU  0 inst:  107000000 cyc:   64402139 now IPC :1.70158: AVG IPC :1.65563: L2-Pf-HR :0.95485: L2-HR :0.87431: (Sim:0h22m45s) 
CPU  0 inst:  108000000 cyc:   65086401 now IPC :1.46143: AVG IPC :1.65356: L2-Pf-HR :0.95466: L2-HR :0.87416: (Sim:0h22m58s) 
CPU  0 inst:  109000003 cyc:   65707645 now IPC :1.60968: AVG IPC :1.65314: L2-Pf-HR :0.95476: L2-HR :0.87427: (Sim:0h23m10s) 
CPU  0 inst:  110000005 cyc:   66321834 now IPC :1.62817: AVG IPC :1.65290: L2-Pf-HR :0.95493: L2-HR :0.87448: (Sim:0h23m22s) 
CPU  0 inst:  111000003 cyc:   66949634 now IPC :1.59286: AVG IPC :1.65233: L2-Pf-HR :0.95494: L2-HR :0.87452: (Sim:0h23m34s) 
CPU  0 inst:  112000003 cyc:   67512640 now IPC :1.77618: AVG IPC :1.65338: L2-Pf-HR :0.95489: L2-HR :0.87422: (Sim:0h23m46s) 
CPU  0 inst:  113000002 cyc:   68178990 now IPC :1.50071: AVG IPC :1.65187: L2-Pf-HR :0.95456: L2-HR :0.87405: (Sim:0h23m59s) 
CPU  0 inst:  114000001 cyc:   68787648 now IPC :1.64296: AVG IPC :1.65179: L2-Pf-HR :0.95459: L2-HR :0.87416: (Sim:0h24m11s) 
CPU  0 inst:  115000004 cyc:   69386295 now IPC :1.67044: AVG IPC :1.65195: L2-Pf-HR :0.95468: L2-HR :0.87435: (Sim:0h24m24s) 
CPU  0 inst:  116000004 cyc:   69996566 now IPC :1.63862: AVG IPC :1.65183: L2-Pf-HR :0.95477: L2-HR :0.87444: (Sim:0h24m36s) 
CPU  0 inst:  117000000 cyc:   70567231 now IPC :1.75233: AVG IPC :1.65266: L2-Pf-HR :0.95473: L2-HR :0.87415: (Sim:0h24m48s) 
CPU  0 inst:  118000002 cyc:   71232756 now IPC :1.50258: AVG IPC :1.65123: L2-Pf-HR :0.95445: L2-HR :0.87393: (Sim:0h25m1s) 
CPU  0 inst:  119000005 cyc:   71834887 now IPC :1.66077: AVG IPC :1.65132: L2-Pf-HR :0.95455: L2-HR :0.87406: (Sim:0h25m13s) 
CPU  0 inst:  120000004 cyc:   72428031 now IPC :1.68593: AVG IPC :1.65160: L2-Pf-HR :0.95466: L2-HR :0.87421: (Sim:0h25m25s) 
CPU  0 inst:  121000004 cyc:   73033332 now IPC :1.65207: AVG IPC :1.65161: L2-Pf-HR :0.95486: L2-HR :0.87440: (Sim:0h25m38s) 
CPU  0 inst:  122000004 cyc:   73633131 now IPC :1.66723: AVG IPC :1.65174: L2-Pf-HR :0.95474: L2-HR :0.87403: (Sim:0h25m47s) 
CPU  0 inst:  123000001 cyc:   74293388 now IPC :1.51456: AVG IPC :1.65050: L2-Pf-HR :0.95451: L2-HR :0.87383: (Sim:0h25m57s) 
CPU  0 inst:  124000005 cyc:   74904708 now IPC :1.63581: AVG IPC :1.65038: L2-Pf-HR :0.95464: L2-HR :0.87397: (Sim:0h26m9s) 
CPU  0 inst:  125000001 cyc:   75513802 now IPC :1.64178: AVG IPC :1.65031: L2-Pf-HR :0.95475: L2-HR :0.87412: (Sim:0h26m21s) 
CPU  0 inst:  126000003 cyc:   76120741 now IPC :1.64762: AVG IPC :1.65029: L2-Pf-HR :0.95489: L2-HR :0.87433: (Sim:0h26m33s) 
CPU  0 inst:  127000000 cyc:   76733793 now IPC :1.63118: AVG IPC :1.65013: L2-Pf-HR :0.95479: L2-HR :0.87409: (Sim:0h26m45s) 
CPU  0 inst:  128000003 cyc:   77408011 now IPC :1.48320: AVG IPC :1.64866: L2-Pf-HR :0.95450: L2-HR :0.87382: (Sim:0h26m58s) 
CPU  0 inst:  129000002 cyc:   78010827 now IPC :1.65888: AVG IPC :1.64874: L2-Pf-HR :0.95467: L2-HR :0.87400: (Sim:0h27m10s) 
CPU  0 inst:  130000002 cyc:   78615966 now IPC :1.65251: AVG IPC :1.64877: L2-Pf-HR :0.95477: L2-HR :0.87417: (Sim:0h27m22s) 
CPU  0 inst:  131000005 cyc:   79215815 now IPC :1.66709: AVG IPC :1.64891: L2-Pf-HR :0.95487: L2-HR :0.87435: (Sim:0h27m34s) 
CPU  0 inst:  132000000 cyc:   79817571 now IPC :1.66179: AVG IPC :1.64901: L2-Pf-HR :0.95479: L2-HR :0.87418: (Sim:0h27m45s) 
CPU  0 inst:  133000005 cyc:   80473343 now IPC :1.52493: AVG IPC :1.64798: L2-Pf-HR :0.95453: L2-HR :0.87390: (Sim:0h27m53s) 
CPU  0 inst:  134000002 cyc:   81086812 now IPC :1.63007: AVG IPC :1.64785: L2-Pf-HR :0.95464: L2-HR :0.87405: (Sim:0h28m1s) 
CPU  0 inst:  135000000 cyc:   81693100 now IPC :1.64938: AVG IPC :1.64786: L2-Pf-HR :0.95476: L2-HR :0.87424: (Sim:0h28m9s) 
CPU  0 inst:  136000002 cyc:   82311617 now IPC :1.61677: AVG IPC :1.64762: L2-Pf-HR :0.95491: L2-HR :0.87442: (Sim:0h28m17s) 
CPU  0 inst:  137000003 cyc:   82904478 now IPC :1.68674: AVG IPC :1.64790: L2-Pf-HR :0.95484: L2-HR :0.87425: (Sim:0h28m25s) 
CPU  0 inst:  138000000 cyc:   83554393 now IPC :1.53866: AVG IPC :1.64704: L2-Pf-HR :0.95453: L2-HR :0.87394: (Sim:0h28m34s) 
CPU  0 inst:  139000005 cyc:   84165334 now IPC :1.63683: AVG IPC :1.64697: L2-Pf-HR :0.95463: L2-HR :0.87412: (Sim:0h28m43s) 
CPU  0 inst:  140000003 cyc:   84778437 now IPC :1.63104: AVG IPC :1.64685: L2-Pf-HR :0.95472: L2-HR :0.87427: (Sim:0h28m50s) 
CPU  0 inst:  141000000 cyc:   85389131 now IPC :1.63748: AVG IPC :1.64679: L2-Pf-HR :0.95483: L2-HR :0.87440: (Sim:0h28m58s) 
CPU  0 inst:  142000001 cyc:   85997997 now IPC :1.64240: AVG IPC :1.64675: L2-Pf-HR :0.95480: L2-HR :0.87431: (Sim:0h29m7s) 
CPU  0 inst:  143000000 cyc:   86650057 now IPC :1.53360: AVG IPC :1.64589: L2-Pf-HR :0.95456: L2-HR :0.87399: (Sim:0h29m16s) 
CPU  0 inst:  144000005 cyc:   87259395 now IPC :1.64113: AVG IPC :1.64586: L2-Pf-HR :0.95462: L2-HR :0.87411: (Sim:0h29m24s) 
CPU  0 inst:  145000001 cyc:   87870001 now IPC :1.63771: AVG IPC :1.64580: L2-Pf-HR :0.95469: L2-HR :0.87425: (Sim:0h29m31s) 
CPU  0 inst:  146000003 cyc:   88484977 now IPC :1.62608: AVG IPC :1.64566: L2-Pf-HR :0.95479: L2-HR :0.87442: (Sim:0h29m39s) 
CPU  0 inst:  147000005 cyc:   89096879 now IPC :1.63425: AVG IPC :1.64558: L2-Pf-HR :0.95474: L2-HR :0.87437: (Sim:0h29m48s) 
CPU  0 inst:  148000000 cyc:   89752110 now IPC :1.52617: AVG IPC :1.64470: L2-Pf-HR :0.95444: L2-HR :0.87403: (Sim:0h29m56s) 
CPU  0 inst:  149000001 cyc:   90357064 now IPC :1.65302: AVG IPC :1.64476: L2-Pf-HR :0.95454: L2-HR :0.87418: (Sim:0h30m3s) 
CPU  0 inst:  150000001 cyc:   90974420 now IPC :1.61981: AVG IPC :1.64459: L2-Pf-HR :0.95462: L2-HR :0.87431: (Sim:0h30m11s) 
CPU  0 inst:  151000000 cyc:   91588999 now IPC :1.62713: AVG IPC :1.64447: L2-Pf-HR :0.95470: L2-HR :0.87449: (Sim:0h30m18s) 
CPU  0 inst:  152000001 cyc:   92206594 now IPC :1.61919: AVG IPC :1.64430: L2-Pf-HR :0.95470: L2-HR :0.87445: (Sim:0h30m25s) 
CPU  0 inst:  153000003 cyc:   92855084 now IPC :1.54205: AVG IPC :1.64358: L2-Pf-HR :0.95445: L2-HR :0.87409: (Sim:0h30m33s) 
CPU  0 inst:  154000002 cyc:   93473083 now IPC :1.61812: AVG IPC :1.64341: L2-Pf-HR :0.95454: L2-HR :0.87421: (Sim:0h30m41s) 
CPU  0 inst:  155000003 cyc:   94079834 now IPC :1.64812: AVG IPC :1.64344: L2-Pf-HR :0.95463: L2-HR :0.87434: (Sim:0h30m49s) 
CPU  0 inst:  156000005 cyc:   94691048 now IPC :1.63609: AVG IPC :1.64339: L2-Pf-HR :0.95475: L2-HR :0.87452: (Sim:0h30m59s) 
CPU  0 inst:  157000000 cyc:   95317147 now IPC :1.59718: AVG IPC :1.64308: L2-Pf-HR :0.95475: L2-HR :0.87450: (Sim:0h31m7s) 
CPU  0 inst:  158000000 cyc:   95953295 now IPC :1.57196: AVG IPC :1.64261: L2-Pf-HR :0.95449: L2-HR :0.87410: (Sim:0h31m14s) 
CPU  0 inst:  159000003 cyc:   96574316 now IPC :1.61026: AVG IPC :1.64240: L2-Pf-HR :0.95460: L2-HR :0.87423: (Sim:0h31m21s) 
CPU  0 inst:  160000002 cyc:   97190465 now IPC :1.62298: AVG IPC :1.64227: L2-Pf-HR :0.95467: L2-HR :0.87433: (Sim:0h31m30s) 
CPU  0 inst:  161000000 cyc:   97812592 now IPC :1.60739: AVG IPC :1.64205: L2-Pf-HR :0.95481: L2-HR :0.87447: (Sim:0h31m38s) 
CPU  0 inst:  162000002 cyc:   98429729 now IPC :1.62039: AVG IPC :1.64191: L2-Pf-HR :0.95482: L2-HR :0.87453: (Sim:0h31m46s) 
CPU  0 inst:  163000004 cyc:   99005677 now IPC :1.73627: AVG IPC :1.64246: L2-Pf-HR :0.95473: L2-HR :0.87433: (Sim:0h31m53s) 
CPU  0 inst:  164000004 cyc:  103235800 now IPC :0.23640: AVG IPC :1.58430: L2-Pf-HR :0.94567: L2-HR :0.86004: (Sim:0h32m12s) 
CPU  0 inst:  165000004 cyc:  108189448 now IPC :0.20187: AVG IPC :1.52042: L2-Pf-HR :0.93679: L2-HR :0.84638: (Sim:0h32m32s) 
CPU  0 inst:  166000003 cyc:  113294394 now IPC :0.19589: AVG IPC :1.46022: L2-Pf-HR :0.92813: L2-HR :0.83373: (Sim:0h32m53s) 
CPU  0 inst:  167000002 cyc:  118399057 now IPC :0.19590: AVG IPC :1.40525: L2-Pf-HR :0.91966: L2-HR :0.82197: (Sim:0h33m13s) 
CPU  0 inst:  168000001 cyc:  123020226 now IPC :0.21640: AVG IPC :1.36023: L2-Pf-HR :0.91260: L2-HR :0.81302: (Sim:0h33m32s) 
CPU  0 inst:  169000000 cyc:  126193173 now IPC :0.31516: AVG IPC :1.33375: L2-Pf-HR :0.90999: L2-HR :0.81127: (Sim:0h33m45s) 
CPU  0 inst:  170000000 cyc:  129365244 now IPC :0.31525: AVG IPC :1.30858: L2-Pf-HR :0.90740: L2-HR :0.80955: (Sim:0h33m59s) 
CPU  0 inst:  171000000 cyc:  132536690 now IPC :0.31531: AVG IPC :1.28464: L2-Pf-HR :0.90483: L2-HR :0.80783: (Sim:0h34m12s) 
CPU  0 inst:  172000001 cyc:  135710743 now IPC :0.31505: AVG IPC :1.26180: L2-Pf-HR :0.90227: L2-HR :0.80613: (Sim:0h34m25s) 
CPU  0 inst:  173000003 cyc:  138881825 now IPC :0.31535: AVG IPC :1.24003: L2-Pf-HR :0.89973: L2-HR :0.80445: (Sim:0h34m39s) 
CPU  0 inst:  174000002 cyc:  142053301 now IPC :0.31531: AVG IPC :1.21924: L2-Pf-HR :0.89722: L2-HR :0.80277: (Sim:0h34m53s) 
CPU  0 inst:  175000001 cyc:  145223533 now IPC :0.31543: AVG IPC :1.19938: L2-Pf-HR :0.89471: L2-HR :0.80111: (Sim:0h35m7s) 
CPU  0 inst:  176000001 cyc:  148394823 now IPC :0.31533: AVG IPC :1.18036: L2-Pf-HR :0.89221: L2-HR :0.79946: (Sim:0h35m20s) 
CPU  0 inst:  177000000 cyc:  151562826 now IPC :0.31566: AVG IPC :1.16217: L2-Pf-HR :0.88974: L2-HR :0.79783: (Sim:0h35m34s) 
CPU  0 inst:  178000000 cyc:  154728661 now IPC :0.31587: AVG IPC :1.14474: L2-Pf-HR :0.88728: L2-HR :0.79621: (Sim:0h35m47s) 
CPU  0 inst:  179000000 cyc:  157897198 now IPC :0.31560: AVG IPC :1.12800: L2-Pf-HR :0.88484: L2-HR :0.79460: (Sim:0h36m1s) 
CPU  0 inst:  180000001 cyc:  161062810 now IPC :0.31589: AVG IPC :1.11194: L2-Pf-HR :0.88242: L2-HR :0.79300: (Sim:0h36m14s) 
CPU  0 inst:  181000003 cyc:  164228528 now IPC :0.31588: AVG IPC :1.09650: L2-Pf-HR :0.88000: L2-HR :0.79142: (Sim:0h36m28s) 
CPU  0 inst:  182000003 cyc:  167394195 now IPC :0.31589: AVG IPC :1.08165: L2-Pf-HR :0.87761: L2-HR :0.78985: (Sim:0h36m41s) 
CPU  0 inst:  183000002 cyc:  170559765 now IPC :0.31590: AVG IPC :1.06736: L2-Pf-HR :0.87523: L2-HR :0.78829: (Sim:0h36m55s) 
CPU  0 inst:  184000004 cyc:  173729056 now IPC :0.31553: AVG IPC :1.05357: L2-Pf-HR :0.87287: L2-HR :0.78674: (Sim:0h37m8s) 
CPU  0 inst:  185000000 cyc:  176894254 now IPC :0.31593: AVG IPC :1.04029: L2-Pf-HR :0.87052: L2-HR :0.78520: (Sim:0h37m21s) 
CPU  0 inst:  186000004 cyc:  180058901 now IPC :0.31599: AVG IPC :1.02749: L2-Pf-HR :0.86819: L2-HR :0.78368: (Sim:0h37m35s) 
CPU  0 inst:  187000000 cyc:  183222458 now IPC :0.31610: AVG IPC :1.01514: L2-Pf-HR :0.86587: L2-HR :0.78216: (Sim:0h37m48s) 
CPU  0 inst:  188000001 cyc:  186391492 now IPC :0.31555: AVG IPC :1.00319: L2-Pf-HR :0.86357: L2-HR :0.78066: (Sim:0h38m1s) 
CPU  0 inst:  189000003 cyc:  189558814 now IPC :0.31572: AVG IPC :0.99164: L2-Pf-HR :0.86128: L2-HR :0.77917: (Sim:0h38m15s) 
CPU  0 inst:  190000003 cyc:  192725203 now IPC :0.31582: AVG IPC :0.98048: L2-Pf-HR :0.85901: L2-HR :0.77769: (Sim:0h38m28s) 
CPU  0 inst:  191000002 cyc:  195890679 now IPC :0.31591: AVG IPC :0.96969: L2-Pf-HR :0.85675: L2-HR :0.77623: (Sim:0h38m42s) 
CPU  0 inst:  192000002 cyc:  199056739 now IPC :0.31585: AVG IPC :0.95924: L2-Pf-HR :0.85450: L2-HR :0.77477: (Sim:0h38m55s) 
CPU  0 inst:  193000001 cyc:  202224667 now IPC :0.31566: AVG IPC :0.94910: L2-Pf-HR :0.85227: L2-HR :0.77333: (Sim:0h39m8s) 
CPU  0 inst:  194000002 cyc:  205391574 now IPC :0.31577: AVG IPC :0.93929: L2-Pf-HR :0.85005: L2-HR :0.77189: (Sim:0h39m21s) 
CPU  0 inst:  195000001 cyc:  208553669 now IPC :0.31625: AVG IPC :0.92980: L2-Pf-HR :0.84784: L2-HR :0.77047: (Sim:0h39m34s) 
CPU  0 inst:  196000001 cyc:  211720438 now IPC :0.31578: AVG IPC :0.92057: L2-Pf-HR :0.84565: L2-HR :0.76905: (Sim:0h39m47s) 
CPU  0 inst:  197000003 cyc:  214887874 now IPC :0.31571: AVG IPC :0.91162: L2-Pf-HR :0.84347: L2-HR :0.76765: (Sim:0h40m0s) 
CPU  0 inst:  198000003 cyc:  218054301 now IPC :0.31581: AVG IPC :0.90293: L2-Pf-HR :0.84131: L2-HR :0.76626: (Sim:0h40m13s) 
CPU  0 inst:  199000002 cyc:  221219294 now IPC :0.31596: AVG IPC :0.89449: L2-Pf-HR :0.83916: L2-HR :0.76487: (Sim:0h40m26s) 
CPU  0 inst:  200000002 cyc:  224387458 now IPC :0.31564: AVG IPC :0.88628: L2-Pf-HR :0.83702: L2-HR :0.76350: (Sim:0h40m39s) 
CPU  0 inst:  201000001 cyc:  227551824 now IPC :0.31602: AVG IPC :0.87832: L2-Pf-HR :0.83490: L2-HR :0.76214: (Sim:0h40m52s) 
CPU  0 inst:  202000000 cyc:  230719902 now IPC :0.31565: AVG IPC :0.87056: L2-Pf-HR :0.83278: L2-HR :0.76079: (Sim:0h41m5s) 
CPU  0 inst:  203000004 cyc:  233885940 now IPC :0.31585: AVG IPC :0.86302: L2-Pf-HR :0.83069: L2-HR :0.75944: (Sim:0h41m18s) 
CPU  0 inst:  204000005 cyc:  237051200 now IPC :0.31593: AVG IPC :0.85568: L2-Pf-HR :0.82860: L2-HR :0.75811: (Sim:0h41m31s) 
CPU  0 inst:  205000002 cyc:  240217129 now IPC :0.31586: AVG IPC :0.84854: L2-Pf-HR :0.82653: L2-HR :0.75678: (Sim:0h41m44s) 
CPU  0 inst:  206000003 cyc:  243382141 now IPC :0.31595: AVG IPC :0.84158: L2-Pf-HR :0.82446: L2-HR :0.75547: (Sim:0h41m57s) 
CPU  0 inst:  207000002 cyc:  246547677 now IPC :0.31590: AVG IPC :0.83481: L2-Pf-HR :0.82241: L2-HR :0.75416: (Sim:0h42m10s) 
CPU  0 inst:  208000002 cyc:  249713450 now IPC :0.31588: AVG IPC :0.82820: L2-Pf-HR :0.82037: L2-HR :0.75286: (Sim:0h42m23s) 
CPU  0 inst:  209000001 cyc:  252879959 now IPC :0.31580: AVG IPC :0.82176: L2-Pf-HR :0.81836: L2-HR :0.75158: (Sim:0h42m36s) 
CPU  0 inst:  210000000 cyc:  256047007 now IPC :0.31575: AVG IPC :0.81548: L2-Pf-HR :0.81634: L2-HR :0.75030: (Sim:0h42m49s) 
CPU  0 inst:  211000000 cyc:  259216340 now IPC :0.31552: AVG IPC :0.80934: L2-Pf-HR :0.81435: L2-HR :0.74903: (Sim:0h43m2s) 
CPU  0 inst:  212000000 cyc:  262381407 now IPC :0.31595: AVG IPC :0.80337: L2-Pf-HR :0.81236: L2-HR :0.74777: (Sim:0h43m14s) 
CPU  0 inst:  213000002 cyc:  265548482 now IPC :0.31575: AVG IPC :0.79753: L2-Pf-HR :0.81038: L2-HR :0.74653: (Sim:0h43m27s) 
CPU  0 inst:  214000003 cyc:  268713493 now IPC :0.31595: AVG IPC :0.79184: L2-Pf-HR :0.80842: L2-HR :0.74528: (Sim:0h43m40s) 
CPU  0 inst:  215000000 cyc:  271876172 now IPC :0.31619: AVG IPC :0.78629: L2-Pf-HR :0.80646: L2-HR :0.74405: (Sim:0h43m53s) 
CPU  0 inst:  216000002 cyc:  275042278 now IPC :0.31585: AVG IPC :0.78085: L2-Pf-HR :0.80452: L2-HR :0.74282: (Sim:0h44m6s) 
CPU  0 inst:  217000001 cyc:  278209324 now IPC :0.31575: AVG IPC :0.77554: L2-Pf-HR :0.80260: L2-HR :0.74160: (Sim:0h44m19s) 
CPU  0 inst:  218000000 cyc:  281375437 now IPC :0.31584: AVG IPC :0.77035: L2-Pf-HR :0.80068: L2-HR :0.74039: (Sim:0h44m31s) 
CPU  0 inst:  219000000 cyc:  284541350 now IPC :0.31586: AVG IPC :0.76527: L2-Pf-HR :0.79877: L2-HR :0.73919: (Sim:0h44m44s) 
CPU  0 inst:  220000000 cyc:  287707526 now IPC :0.31584: AVG IPC :0.76031: L2-Pf-HR :0.79687: L2-HR :0.73800: (Sim:0h44m57s) 
CPU  0 inst:  221000001 cyc:  290872912 now IPC :0.31592: AVG IPC :0.75546: L2-Pf-HR :0.79499: L2-HR :0.73681: (Sim:0h45m10s) 
CPU  0 inst:  222000003 cyc:  294039641 now IPC :0.31578: AVG IPC :0.75071: L2-Pf-HR :0.79311: L2-HR :0.73564: (Sim:0h45m23s) 
CPU  0 inst:  223000002 cyc:  297208209 now IPC :0.31560: AVG IPC :0.74605: L2-Pf-HR :0.79125: L2-HR :0.73447: (Sim:0h45m36s) 
CPU  0 inst:  224000001 cyc:  300372151 now IPC :0.31606: AVG IPC :0.74151: L2-Pf-HR :0.78939: L2-HR :0.73331: (Sim:0h45m49s) 
CPU  0 inst:  225000004 cyc:  303538190 now IPC :0.31585: AVG IPC :0.73705: L2-Pf-HR :0.78754: L2-HR :0.73215: (Sim:0h46m1s) 
CPU  0 inst:  226000000 cyc:  306706702 now IPC :0.31560: AVG IPC :0.73269: L2-Pf-HR :0.78571: L2-HR :0.73101: (Sim:0h46m14s) 
CPU  0 inst:  227000000 cyc:  309872597 now IPC :0.31587: AVG IPC :0.72841: L2-Pf-HR :0.78389: L2-HR :0.72987: (Sim:0h46m27s) 
CPU  0 inst:  228000000 cyc:  313039231 now IPC :0.31579: AVG IPC :0.72423: L2-Pf-HR :0.78207: L2-HR :0.72874: (Sim:0h46m40s) 
CPU  0 inst:  229000001 cyc:  316205387 now IPC :0.31584: AVG IPC :0.72012: L2-Pf-HR :0.78027: L2-HR :0.72762: (Sim:0h46m53s) 
CPU  0 inst:  230000003 cyc:  319371469 now IPC :0.31585: AVG IPC :0.71610: L2-Pf-HR :0.77848: L2-HR :0.72650: (Sim:0h47m6s) 
CPU  0 inst:  231000003 cyc:  322536683 now IPC :0.31593: AVG IPC :0.71217: L2-Pf-HR :0.77669: L2-HR :0.72540: (Sim:0h47m19s) 
CPU  0 inst:  232000002 cyc:  325703851 now IPC :0.31574: AVG IPC :0.70830: L2-Pf-HR :0.77493: L2-HR :0.72430: (Sim:0h47m32s) 
CPU  0 inst:  233000001 cyc:  326748490 now IPC :0.95727: AVG IPC :0.70910: L2-Pf-HR :0.77448: L2-HR :0.72418: (Sim:0h47m41s) 
CPU  0 inst:  234000000 cyc:  327302292 now IPC :1.80570: AVG IPC :0.71096: L2-Pf-HR :0.77583: L2-HR :0.72529: (Sim:0h47m48s) 
CPU  0 inst:  235000004 cyc:  327860134 now IPC :1.79263: AVG IPC :0.71280: L2-Pf-HR :0.77704: L2-HR :0.72652: (Sim:0h47m55s) 
CPU  0 inst:  236000003 cyc:  328365890 now IPC :1.97724: AVG IPC :0.71476: L2-Pf-HR :0.77859: L2-HR :0.72782: (Sim:0h48m2s) 
CPU  0 inst:  237000000 cyc:  328859274 now IPC :2.02681: AVG IPC :0.71673: L2-Pf-HR :0.78032: L2-HR :0.72931: (Sim:0h48m8s) 
CPU  0 inst:  238000003 cyc:  329518913 now IPC :1.51599: AVG IPC :0.71834: L2-Pf-HR :0.78106: L2-HR :0.73024: (Sim:0h48m16s) 
CPU  0 inst:  239000000 cyc:  330008333 now IPC :2.04323: AVG IPC :0.72031: L2-Pf-HR :0.78240: L2-HR :0.73133: (Sim:0h48m22s) 
CPU  0 inst:  240000004 cyc:  330636509 now IPC :1.59192: AVG IPC :0.72197: L2-Pf-HR :0.78338: L2-HR :0.73240: (Sim:0h48m29s) 
CPU  0 inst:  241000000 cyc:  331086555 now IPC :2.22199: AVG IPC :0.72401: L2-Pf-HR :0.78468: L2-HR :0.73342: (Sim:0h48m36s) 
CPU  0 inst:  242000005 cyc:  331629606 now IPC :1.84146: AVG IPC :0.72585: L2-Pf-HR :0.78620: L2-HR :0.73484: (Sim:0h48m43s) 
CPU  0 inst:  243000001 cyc:  332103107 now IPC :2.11192: AVG IPC :0.72783: L2-Pf-HR :0.78765: L2-HR :0.73604: (Sim:0h48m49s) 
CPU  0 inst:  244000004 cyc:  332747992 now IPC :1.55067: AVG IPC :0.72943: L2-Pf-HR :0.78807: L2-HR :0.73671: (Sim:0h48m56s) 
CPU  0 inst:  245000002 cyc:  333294885 now IPC :1.82851: AVG IPC :0.73124: L2-Pf-HR :0.78930: L2-HR :0.73774: (Sim:0h49m3s) 
CPU  0 inst:  246000000 cyc:  333858168 now IPC :1.77530: AVG IPC :0.73301: L2-Pf-HR :0.79017: L2-HR :0.73872: (Sim:0h49m11s) 
CPU  0 inst:  247000004 cyc:  334366241 now IPC :1.96823: AVG IPC :0.73489: L2-Pf-HR :0.79145: L2-HR :0.73984: (Sim:0h49m17s) 
CPU  0 inst:  248000000 cyc:  334857758 now IPC :2.03451: AVG IPC :0.73680: L2-Pf-HR :0.79281: L2-HR :0.74105: (Sim:0h49m24s) 
CPU  0 inst:  249000004 cyc:  335500716 now IPC :1.55532: AVG IPC :0.73837: L2-Pf-HR :0.79342: L2-HR :0.74185: (Sim:0h49m31s) 
CPU  0 inst:  250000005 cyc:  335975012 now IPC :2.10839: AVG IPC :0.74031: L2-Pf-HR :0.79448: L2-HR :0.74275: (Sim:0h49m38s) 
CPU  0 inst:  251000002 cyc:  336613364 now IPC :1.56653: AVG IPC :0.74189: L2-Pf-HR :0.79528: L2-HR :0.74371: (Sim:0h49m45s) 
CPU  0 inst:  252000001 cyc:  337068592 now IPC :2.19670: AVG IPC :0.74386: L2-Pf-HR :0.79640: L2-HR :0.74463: (Sim:0h49m52s) 
CPU  0 inst:  253000000 cyc:  337616053 now IPC :1.82661: AVG IPC :0.74562: L2-Pf-HR :0.79771: L2-HR :0.74589: (Sim:0h49m59s) 
CPU  0 inst:  254000000 cyc:  338097567 now IPC :2.07678: AVG IPC :0.74752: L2-Pf-HR :0.79901: L2-HR :0.74701: (Sim:0h50m5s) 
CPU  0 inst:  255000001 cyc:  338725867 now IPC :1.59160: AVG IPC :0.74909: L2-Pf-HR :0.79935: L2-HR :0.74754: (Sim:0h50m13s) 
CPU  0 inst:  256000004 cyc:  339274277 now IPC :1.82346: AVG IPC :0.75083: L2-Pf-HR :0.80040: L2-HR :0.74847: (Sim:0h50m19s) 
CPU  0 inst:  257000002 cyc:  339836943 now IPC :1.77725: AVG IPC :0.75253: L2-Pf-HR :0.80107: L2-HR :0.74929: (Sim:0h50m27s) 
CPU  0 inst:  258000002 cyc:  340340305 now IPC :1.98664: AVG IPC :0.75437: L2-Pf-HR :0.80219: L2-HR :0.75029: (Sim:0h50m33s) 
CPU  0 inst:  259000003 cyc:  340826487 now IPC :2.05684: AVG IPC :0.75623: L2-Pf-HR :0.80336: L2-HR :0.75138: (Sim:0h50m40s) 
CPU  0 inst:  260000000 cyc:  341457327 now IPC :1.58518: AVG IPC :0.75776: L2-Pf-HR :0.80394: L2-HR :0.75208: (Sim:0h50m47s) 
CPU  0 inst:  261000002 cyc:  341930073 now IPC :2.11530: AVG IPC :0.75965: L2-Pf-HR :0.80485: L2-HR :0.75288: (Sim:0h50m54s) 
CPU  0 inst:  262000000 cyc:  342559918 now IPC :1.58769: AVG IPC :0.76117: L2-Pf-HR :0.80544: L2-HR :0.75368: (Sim:0h51m1s) 
CPU  0 inst:  263000002 cyc:  343010865 now IPC :2.21756: AVG IPC :0.76309: L2-Pf-HR :0.80643: L2-HR :0.75451: (Sim:0h51m7s) 
CPU  0 inst:  264000004 cyc:  343531292 now IPC :1.92150: AVG IPC :0.76485: L2-Pf-HR :0.80757: L2-HR :0.75563: (Sim:0h51m14s) 
CPU  0 inst:  265000002 cyc:  344008443 now IPC :2.09577: AVG IPC :0.76671: L2-Pf-HR :0.80875: L2-HR :0.75668: (Sim:0h51m20s) 
CPU  0 inst:  266000002 cyc:  344553585 now IPC :1.83438: AVG IPC :0.76840: L2-Pf-HR :0.80898: L2-HR :0.75712: (Sim:0h51m27s) 
CPU  0 inst:  267000002 cyc:  345065062 now IPC :1.95512: AVG IPC :0.77016: L2-Pf-HR :0.80989: L2-HR :0.75796: (Sim:0h51m34s) 
CPU  0 inst:  268000005 cyc:  345589905 now IPC :1.90534: AVG IPC :0.77189: L2-Pf-HR :0.81043: L2-HR :0.75869: (Sim:0h51m41s) 
CPU  0 inst:  269000003 cyc:  346070579 now IPC :2.08041: AVG IPC :0.77372: L2-Pf-HR :0.81143: L2-HR :0.75961: (Sim:0h51m47s) 
CPU  0 inst:  270000002 cyc:  346549920 now IPC :2.08620: AVG IPC :0.77554: L2-Pf-HR :0.81243: L2-HR :0.76058: (Sim:0h51m54s) 
CPU  0 inst:  271000002 cyc:  347130346 now IPC :1.72287: AVG IPC :0.77712: L2-Pf-HR :0.81291: L2-HR :0.76121: (Sim:0h52m1s) 
CPU  0 inst:  272000003 cyc:  347604828 now IPC :2.10756: AVG IPC :0.77895: L2-Pf-HR :0.81370: L2-HR :0.76193: (Sim:0h52m7s) 
CPU  0 inst:  273000004 cyc:  348143136 now IPC :1.85767: AVG IPC :0.78062: L2-Pf-HR :0.81435: L2-HR :0.76266: (Sim:0h52m14s) 
CPU  0 inst:  274000000 cyc:  348635977 now IPC :2.02904: AVG IPC :0.78239: L2-Pf-HR :0.81509: L2-HR :0.76342: (Sim:0h52m21s) 
CPU  0 inst:  275000001 cyc:  349120328 now IPC :2.06462: AVG IPC :0.78417: L2-Pf-HR :0.81599: L2-HR :0.76429: (Sim:0h52m27s) 
CPU  0 inst:  276000004 cyc:  349606143 now IPC :2.05840: AVG IPC :0.78595: L2-Pf-HR :0.81707: L2-HR :0.76531: (Sim:0h52m34s) 
CPU  0 inst:  277000001 cyc:  350196363 now IPC :1.69428: AVG IPC :0.78748: L2-Pf-HR :0.81735: L2-HR :0.76577: (Sim:0h52m41s) 
CPU  0 inst:  278000003 cyc:  350704020 now IPC :1.96984: AVG IPC :0.78920: L2-Pf-HR :0.81818: L2-HR :0.76654: (Sim:0h52m48s) 
CPU  0 inst:  279000002 cyc:  351204123 now IPC :1.99959: AVG IPC :0.79093: L2-Pf-HR :0.81866: L2-HR :0.76720: (Sim:0h52m54s) 
CPU  0 inst:  280000000 cyc:  351672412 now IPC :2.13543: AVG IPC :0.79272: L2-Pf-HR :0.81964: L2-HR :0.76806: (Sim:0h53m1s) 
CPU  0 inst:  281000005 cyc:  352161350 now IPC :2.04526: AVG IPC :0.79447: L2-Pf-HR :0.82048: L2-HR :0.76895: (Sim:0h53m7s) 
CPU  0 inst:  282000001 cyc:  352673399 now IPC :1.95293: AVG IPC :0.79615: L2-Pf-HR :0.82114: L2-HR :0.76961: (Sim:0h53m14s) 
CPU  0 inst:  283000004 cyc:  353196549 now IPC :1.91150: AVG IPC :0.79781: L2-Pf-HR :0.82158: L2-HR :0.77013: (Sim:0h53m21s) 
CPU  0 inst:  284000003 cyc:  353716204 now IPC :1.92435: AVG IPC :0.79947: L2-Pf-HR :0.82231: L2-HR :0.77084: (Sim:0h53m27s) 
CPU  0 inst:  285000004 cyc:  354221262 now IPC :1.97997: AVG IPC :0.80116: L2-Pf-HR :0.82282: L2-HR :0.77149: (Sim:0h53m34s) 
CPU  0 inst:  286000005 cyc:  354699529 now IPC :2.09088: AVG IPC :0.80290: L2-Pf-HR :0.82363: L2-HR :0.77228: (Sim:0h53m40s) 
CPU  0 inst:  287000000 cyc:  355183114 now IPC :2.06788: AVG IPC :0.80463: L2-Pf-HR :0.82453: L2-HR :0.77316: (Sim:0h53m47s) 
CPU  0 inst:  288000003 cyc:  355775362 now IPC :1.68849: AVG IPC :0.80610: L2-Pf-HR :0.82482: L2-HR :0.77361: (Sim:0h53m54s) 
CPU  0 inst:  289000000 cyc:  356254053 now IPC :2.08902: AVG IPC :0.80783: L2-Pf-HR :0.82563: L2-HR :0.77434: (Sim:0h54m0s) 
CPU  0 inst:  290000005 cyc:  356798509 now IPC :1.83670: AVG IPC :0.80941: L2-Pf-HR :0.82593: L2-HR :0.77487: (Sim:0h54m7s) 
CPU  0 inst:  291000001 cyc:  357256880 now IPC :2.18163: AVG IPC :0.81117: L2-Pf-HR :0.82675: L2-HR :0.77561: (Sim:0h54m13s) 
CPU  0 inst:  292000000 cyc:  357760797 now IPC :1.98445: AVG IPC :0.81283: L2-Pf-HR :0.82753: L2-HR :0.77646: (Sim:0h54m20s) 
CPU  0 inst:  293000000 cyc:  358228901 now IPC :2.13628: AVG IPC :0.81456: L2-Pf-HR :0.82833: L2-HR :0.77720: (Sim:0h54m26s) 
CPU  0 inst:  294000004 cyc:  358791742 now IPC :1.77671: AVG IPC :0.81608: L2-Pf-HR :0.82851: L2-HR :0.77754: (Sim:0h54m33s) 
CPU  0 inst:  295000005 cyc:  359296483 now IPC :1.98122: AVG IPC :0.81772: L2-Pf-HR :0.82913: L2-HR :0.77817: (Sim:0h54m40s) 
CPU  0 inst:  296000002 cyc:  359802551 now IPC :1.97601: AVG IPC :0.81935: L2-Pf-HR :0.82958: L2-HR :0.77877: (Sim:0h54m46s) 
CPU  0 inst:  297000003 cyc:  360285635 now IPC :2.07004: AVG IPC :0.82103: L2-Pf-HR :0.83031: L2-HR :0.77949: (Sim:0h54m53s) 
CPU  0 inst:  298000002 cyc:  360768786 now IPC :2.06974: AVG IPC :0.82271: L2-Pf-HR :0.83111: L2-HR :0.78028: (Sim:0h55m0s) 
CPU  0 inst:  299000002 cyc:  361379672 now IPC :1.63697: AVG IPC :0.82409: L2-Pf-HR :0.83135: L2-HR :0.78068: (Sim:0h55m7s) 
CPU  0 inst:  300000000 cyc:  361864490 now IPC :2.06263: AVG IPC :0.82575: L2-Pf-HR :0.83202: L2-HR :0.78131: (Sim:0h55m14s) 
CPU  0 inst:  301000001 cyc:  362403638 now IPC :1.85478: AVG IPC :0.82729: L2-Pf-HR :0.83230: L2-HR :0.78183: (Sim:0h55m21s) 
CPU  0 inst:  302000004 cyc:  362852171 now IPC :2.22950: AVG IPC :0.82903: L2-Pf-HR :0.83298: L2-HR :0.78245: (Sim:0h55m27s) 
CPU  0 inst:  303000004 cyc:  363361630 now IPC :1.96287: AVG IPC :0.83062: L2-Pf-HR :0.83374: L2-HR :0.78327: (Sim:0h55m34s) 
CPU  0 inst:  304000002 cyc:  363830290 now IPC :2.13374: AVG IPC :0.83230: L2-Pf-HR :0.83449: L2-HR :0.78398: (Sim:0h55m40s) 
CPU  0 inst:  305000005 cyc:  364394627 now IPC :1.77200: AVG IPC :0.83376: L2-Pf-HR :0.83462: L2-HR :0.78427: (Sim:0h55m47s) 
CPU  0 inst:  306000001 cyc:  364922542 now IPC :1.89424: AVG IPC :0.83530: L2-Pf-HR :0.83520: L2-HR :0.78485: (Sim:0h55m54s) 
CPU  0 inst:  307000005 cyc:  365423825 now IPC :1.99489: AVG IPC :0.83690: L2-Pf-HR :0.83556: L2-HR :0.78537: (Sim:0h56m1s) 
CPU  0 inst:  308000004 cyc:  365904762 now IPC :2.07927: AVG IPC :0.83853: L2-Pf-HR :0.83621: L2-HR :0.78602: (Sim:0h56m7s) 
CPU  0 inst:  309000002 cyc:  366384600 now IPC :2.08403: AVG IPC :0.84017: L2-Pf-HR :0.83693: L2-HR :0.78676: (Sim:0h56m14s) 
CPU  0 inst:  310000005 cyc:  366956665 now IPC :1.74806: AVG IPC :0.84159: L2-Pf-HR :0.83716: L2-HR :0.78713: (Sim:0h56m20s) 
CPU  0 inst:  311000002 cyc:  367421169 now IPC :2.15283: AVG IPC :0.84325: L2-Pf-HR :0.83771: L2-HR :0.78765: (Sim:0h56m27s) 
CPU  0 inst:  312000004 cyc:  368001997 now IPC :1.72168: AVG IPC :0.84464: L2-Pf-HR :0.83796: L2-HR :0.78814: (Sim:0h56m34s) 
CPU  0 inst:  313000001 cyc:  368453481 now IPC :2.21491: AVG IPC :0.84632: L2-Pf-HR :0.83857: L2-HR :0.78871: (Sim:0h56m40s) 
CPU  0 inst:  314000002 cyc:  368966788 now IPC :1.94815: AVG IPC :0.84786: L2-Pf-HR :0.83925: L2-HR :0.78947: (Sim:0h56m47s) 
CPU  0 inst:  315000001 cyc:  369435316 now IPC :2.13434: AVG IPC :0.84950: L2-Pf-HR :0.83996: L2-HR :0.79015: (Sim:0h56m53s) 
CPU  0 inst:  316000000 cyc:  370006605 now IPC :1.75043: AVG IPC :0.85089: L2-Pf-HR :0.84001: L2-HR :0.79037: (Sim:0h57m0s) 
CPU  0 inst:  317000005 cyc:  370519453 now IPC :1.94991: AVG IPC :0.85242: L2-Pf-HR :0.84052: L2-HR :0.79090: (Sim:0h57m7s) 
CPU  0 inst:  318000001 cyc:  371016308 now IPC :2.01265: AVG IPC :0.85398: L2-Pf-HR :0.84082: L2-HR :0.79138: (Sim:0h57m13s) 
CPU  0 inst:  319000005 cyc:  371494986 now IPC :2.08910: AVG IPC :0.85557: L2-Pf-HR :0.84142: L2-HR :0.79200: (Sim:0h57m20s) 
CPU  0 inst:  320000000 cyc:  371975558 now IPC :2.08084: AVG IPC :0.85716: L2-Pf-HR :0.84205: L2-HR :0.79266: (Sim:0h57m27s) 
CPU  0 inst:  321000005 cyc:  372557258 now IPC :1.71911: AVG IPC :0.85851: L2-Pf-HR :0.84226: L2-HR :0.79301: (Sim:0h57m33s) 
CPU  0 inst:  322000002 cyc:  373024041 now IPC :2.14232: AVG IPC :0.86012: L2-Pf-HR :0.84275: L2-HR :0.79349: (Sim:0h57m40s) 
CPU  0 inst:  323000000 cyc:  373603044 now IPC :1.72710: AVG IPC :0.86147: L2-Pf-HR :0.84290: L2-HR :0.79391: (Sim:0h57m47s) 
CPU  0 inst:  324000003 cyc:  374050396 now IPC :2.23538: AVG IPC :0.86311: L2-Pf-HR :0.84347: L2-HR :0.79444: (Sim:0h57m54s) 
CPU  0 inst:  325000002 cyc:  374570115 now IPC :1.92411: AVG IPC :0.86459: L2-Pf-HR :0.84412: L2-HR :0.79517: (Sim:0h58m0s) 
CPU  0 inst:  326000004 cyc:  375040870 now IPC :2.12425: AVG IPC :0.86617: L2-Pf-HR :0.84479: L2-HR :0.79583: (Sim:0h58m7s) 
CPU  0 inst:  327000004 cyc:  375621217 now IPC :1.72311: AVG IPC :0.86750: L2-Pf-HR :0.84482: L2-HR :0.79602: (Sim:0h58m14s) 
CPU  0 inst:  328000004 cyc:  376149766 now IPC :1.89197: AVG IPC :0.86895: L2-Pf-HR :0.84529: L2-HR :0.79651: (Sim:0h58m20s) 
CPU  0 inst:  329000004 cyc:  376653874 now IPC :1.98370: AVG IPC :0.87044: L2-Pf-HR :0.84551: L2-HR :0.79693: (Sim:0h58m27s) 
CPU  0 inst:  330000000 cyc:  377134902 now IPC :2.07887: AVG IPC :0.87199: L2-Pf-HR :0.84606: L2-HR :0.79750: (Sim:0h58m34s) 
CPU  0 inst:  331000003 cyc:  377611741 now IPC :2.09715: AVG IPC :0.87354: L2-Pf-HR :0.84663: L2-HR :0.79811: (Sim:0h58m41s) 
CPU  0 inst:  332000000 cyc:  378187212 now IPC :1.73770: AVG IPC :0.87486: L2-Pf-HR :0.84682: L2-HR :0.79843: (Sim:0h58m48s) 
CPU  0 inst:  333000004 cyc:  378654070 now IPC :2.14199: AVG IPC :0.87642: L2-Pf-HR :0.84726: L2-HR :0.79887: (Sim:0h58m54s) 
CPU  0 inst:  334000003 cyc:  379205554 now IPC :1.81329: AVG IPC :0.87779: L2-Pf-HR :0.84749: L2-HR :0.79926: (Sim:0h59m1s) 
CPU  0 inst:  335000000 cyc:  379663473 now IPC :2.18379: AVG IPC :0.87937: L2-Pf-HR :0.84797: L2-HR :0.79974: (Sim:0h59m8s) 
CPU  0 inst:  336000002 cyc:  380159475 now IPC :2.01612: AVG IPC :0.88085: L2-Pf-HR :0.84848: L2-HR :0.80030: (Sim:0h59m14s) 
CPU  0 inst:  337000001 cyc:  380637774 now IPC :2.09074: AVG IPC :0.88238: L2-Pf-HR :0.84911: L2-HR :0.80095: (Sim:0h59m21s) 
CPU  0 inst:  338000000 cyc:  381224799 now IPC :1.70350: AVG IPC :0.88365: L2-Pf-HR :0.84912: L2-HR :0.80115: (Sim:0h59m28s) 
CPU  0 inst:  339000005 cyc:  381744156 now IPC :1.92547: AVG IPC :0.88507: L2-Pf-HR :0.84956: L2-HR :0.80162: (Sim:0h59m34s) 
CPU  0 inst:  340000000 cyc:  382235469 now IPC :2.03535: AVG IPC :0.88655: L2-Pf-HR :0.84974: L2-HR :0.80196: (Sim:0h59m41s) 
CPU  0 inst:  341000000 cyc:  382704625 now IPC :2.13149: AVG IPC :0.88808: L2-Pf-HR :0.85033: L2-HR :0.80251: (Sim:0h59m48s) 
CPU  0 inst:  342000004 cyc:  383185456 now IPC :2.07974: AVG IPC :0.88958: L2-Pf-HR :0.85081: L2-HR :0.80309: (Sim:0h59m54s) 
CPU  0 inst:  343000000 cyc:  383717857 now IPC :1.87828: AVG IPC :0.89095: L2-Pf-HR :0.85109: L2-HR :0.80346: (Sim:1h0m1s) 
CPU  0 inst:  344000002 cyc:  384228796 now IPC :1.95718: AVG IPC :0.89238: L2-Pf-HR :0.85138: L2-HR :0.80380: (Sim:1h0m8s) 
CPU  0 inst:  345000000 cyc:  384756862 now IPC :1.89370: AVG IPC :0.89375: L2-Pf-HR :0.85174: L2-HR :0.80421: (Sim:1h0m14s) 
CPU  0 inst:  346000004 cyc:  385248774 now IPC :2.03289: AVG IPC :0.89521: L2-Pf-HR :0.85199: L2-HR :0.80459: (Sim:1h0m21s) 
CPU  0 inst:  347000001 cyc:  385734368 now IPC :2.05933: AVG IPC :0.89668: L2-Pf-HR :0.85246: L2-HR :0.80510: (Sim:1h0m28s) 
CPU  0 inst:  348000003 cyc:  386220507 now IPC :2.05703: AVG IPC :0.89815: L2-Pf-HR :0.85305: L2-HR :0.80572: (Sim:1h0m34s) 
CPU  0 inst:  349000001 cyc:  386823172 now IPC :1.65929: AVG IPC :0.89933: L2-Pf-HR :0.85312: L2-HR :0.80592: (Sim:1h0m42s) 
CPU  0 inst:  350000000 cyc:  387302694 now IPC :2.08541: AVG IPC :0.90081: L2-Pf-HR :0.85364: L2-HR :0.80643: (Sim:1h0m48s) 
CPU  0 inst:  351000002 cyc:  387831234 now IPC :1.89201: AVG IPC :0.90216: L2-Pf-HR :0.85369: L2-HR :0.80670: (Sim:1h0m55s) 
CPU  0 inst:  352000000 cyc:  388293645 now IPC :2.16257: AVG IPC :0.90367: L2-Pf-HR :0.85421: L2-HR :0.80719: (Sim:1h1m1s) 
CPU  0 inst:  353000001 cyc:  388794043 now IPC :1.99841: AVG IPC :0.90508: L2-Pf-HR :0.85466: L2-HR :0.80774: (Sim:1h1m8s) 
CPU  0 inst:  354000000 cyc:  389265037 now IPC :2.12317: AVG IPC :0.90656: L2-Pf-HR :0.85515: L2-HR :0.80823: (Sim:1h1m14s) 
CPU  0 inst:  355000004 cyc:  389839220 now IPC :1.74161: AVG IPC :0.90779: L2-Pf-HR :0.85517: L2-HR :0.80838: (Sim:1h1m21s) 
CPU  0 inst:  356000002 cyc:  390359272 now IPC :1.92288: AVG IPC :0.90914: L2-Pf-HR :0.85552: L2-HR :0.80877: (Sim:1h1m28s) 
CPU  0 inst:  357000001 cyc:  390875292 now IPC :1.93791: AVG IPC :0.91051: L2-Pf-HR :0.85573: L2-HR :0.80915: (Sim:1h1m35s) 
CPU  0 inst:  358000005 cyc:  391357658 now IPC :2.07312: AVG IPC :0.91194: L2-Pf-HR :0.85615: L2-HR :0.80960: (Sim:1h1m41s) 
CPU  0 inst:  359000000 cyc:  391841234 now IPC :2.06792: AVG IPC :0.91337: L2-Pf-HR :0.85664: L2-HR :0.81013: (Sim:1h1m48s) 
CPU  0 inst:  360000005 cyc:  392434807 now IPC :1.68472: AVG IPC :0.91454: L2-Pf-HR :0.85671: L2-HR :0.81033: (Sim:1h1m54s) 
CPU  0 inst:  361000003 cyc:  392912494 now IPC :2.09342: AVG IPC :0.91598: L2-Pf-HR :0.85714: L2-HR :0.81076: (Sim:1h2m1s) 
CPU  0 inst:  362000002 cyc:  393456686 now IPC :1.83758: AVG IPC :0.91726: L2-Pf-HR :0.85721: L2-HR :0.81104: (Sim:1h2m7s) 
CPU  0 inst:  363000003 cyc:  393907345 now IPC :2.21897: AVG IPC :0.91875: L2-Pf-HR :0.85765: L2-HR :0.81148: (Sim:1h2m13s) 
CPU  0 inst:  364000002 cyc:  394416583 now IPC :1.96372: AVG IPC :0.92010: L2-Pf-HR :0.85808: L2-HR :0.81199: (Sim:1h2m20s) 
CPU  0 inst:  365000004 cyc:  394885372 now IPC :2.13316: AVG IPC :0.92155: L2-Pf-HR :0.85856: L2-HR :0.81247: (Sim:1h2m26s) 
CPU  0 inst:  366000002 cyc:  395453372 now IPC :1.76056: AVG IPC :0.92275: L2-Pf-HR :0.85855: L2-HR :0.81260: (Sim:1h2m33s) 
CPU  0 inst:  367000003 cyc:  395971936 now IPC :1.92840: AVG IPC :0.92407: L2-Pf-HR :0.85887: L2-HR :0.81295: (Sim:1h2m39s) 
CPU  0 inst:  368000001 cyc:  396487412 now IPC :1.93995: AVG IPC :0.92540: L2-Pf-HR :0.85903: L2-HR :0.81329: (Sim:1h2m45s) 
CPU  0 inst:  369000000 cyc:  396971962 now IPC :2.06377: AVG IPC :0.92679: L2-Pf-HR :0.85944: L2-HR :0.81373: (Sim:1h2m52s) 
CPU  0 inst:  370000001 cyc:  397453587 now IPC :2.07631: AVG IPC :0.92819: L2-Pf-HR :0.85990: L2-HR :0.81423: (Sim:1h2m58s) 
CPU  0 inst:  371000001 cyc:  398035481 now IPC :1.71853: AVG IPC :0.92935: L2-Pf-HR :0.85996: L2-HR :0.81442: (Sim:1h3m5s) 
CPU  0 inst:  372000005 cyc:  398503665 now IPC :2.13592: AVG IPC :0.93077: L2-Pf-HR :0.86033: L2-HR :0.81479: (Sim:1h3m11s) 
CPU  0 inst:  373000005 cyc:  399063004 now IPC :1.78782: AVG IPC :0.93197: L2-Pf-HR :0.86039: L2-HR :0.81506: (Sim:1h3m18s) 
CPU  0 inst:  374000003 cyc:  399509788 now IPC :2.23821: AVG IPC :0.93344: L2-Pf-HR :0.86080: L2-HR :0.81546: (Sim:1h3m24s) 
CPU  0 inst:  375000000 cyc:  400029045 now IPC :1.92582: AVG IPC :0.93473: L2-Pf-HR :0.86123: L2-HR :0.81596: (Sim:1h3m30s) 
CPU  0 inst:  376000001 cyc:  400499201 now IPC :2.12696: AVG IPC :0.93613: L2-Pf-HR :0.86168: L2-HR :0.81643: (Sim:1h3m36s) 
CPU  0 inst:  377000000 cyc:  401074251 now IPC :1.73898: AVG IPC :0.93728: L2-Pf-HR :0.86168: L2-HR :0.81653: (Sim:1h3m43s) 
CPU  0 inst:  378000005 cyc:  401595951 now IPC :1.91682: AVG IPC :0.93856: L2-Pf-HR :0.86197: L2-HR :0.81687: (Sim:1h3m50s) 
CPU  0 inst:  379000005 cyc:  402104580 now IPC :1.96607: AVG IPC :0.93986: L2-Pf-HR :0.86206: L2-HR :0.81715: (Sim:1h3m56s) 
CPU  0 inst:  380000001 cyc:  402586347 now IPC :2.07568: AVG IPC :0.94123: L2-Pf-HR :0.86245: L2-HR :0.81758: (Sim:1h4m2s) 
CPU  0 inst:  381000002 cyc:  403063220 now IPC :2.09700: AVG IPC :0.94260: L2-Pf-HR :0.86287: L2-HR :0.81803: (Sim:1h4m9s) 
CPU  0 inst:  382000000 cyc:  403637341 now IPC :1.74179: AVG IPC :0.94374: L2-Pf-HR :0.86293: L2-HR :0.81821: (Sim:1h4m15s) 
CPU  0 inst:  383000004 cyc:  404102487 now IPC :2.14987: AVG IPC :0.94513: L2-Pf-HR :0.86325: L2-HR :0.81853: (Sim:1h4m21s) 
CPU  0 inst:  384000000 cyc:  404666170 now IPC :1.77404: AVG IPC :0.94628: L2-Pf-HR :0.86328: L2-HR :0.81877: (Sim:1h4m28s) 
CPU  0 inst:  385000004 cyc:  405115784 now IPC :2.22414: AVG IPC :0.94771: L2-Pf-HR :0.86365: L2-HR :0.81914: (Sim:1h4m34s) 
CPU  0 inst:  386000004 cyc:  405633245 now IPC :1.93251: AVG IPC :0.94897: L2-Pf-HR :0.86407: L2-HR :0.81964: (Sim:1h4m41s) 
CPU  0 inst:  387000002 cyc:  406105814 now IPC :2.11609: AVG IPC :0.95033: L2-Pf-HR :0.86452: L2-HR :0.82010: (Sim:1h4m47s) 
CPU  0 inst:  388000003 cyc:  406672021 now IPC :1.76614: AVG IPC :0.95147: L2-Pf-HR :0.86449: L2-HR :0.82017: (Sim:1h4m53s) 
CPU  0 inst:  389000005 cyc:  407188960 now IPC :1.93447: AVG IPC :0.95272: L2-Pf-HR :0.86476: L2-HR :0.82050: (Sim:1h4m59s) 
CPU  0 inst:  390000000 cyc:  407717737 now IPC :1.89115: AVG IPC :0.95394: L2-Pf-HR :0.86482: L2-HR :0.82073: (Sim:1h5m6s) 
CPU  0 inst:  391000005 cyc:  408200279 now IPC :2.07237: AVG IPC :0.95526: L2-Pf-HR :0.86519: L2-HR :0.82114: (Sim:1h5m12s) 
CPU  0 inst:  392000003 cyc:  408676180 now IPC :2.10127: AVG IPC :0.95660: L2-Pf-HR :0.86560: L2-HR :0.82159: (Sim:1h5m18s) 
CPU  0 inst:  393000004 cyc:  409255425 now IPC :1.72639: AVG IPC :0.95769: L2-Pf-HR :0.86563: L2-HR :0.82175: (Sim:1h5m24s) 
CPU  0 inst:  394000002 cyc:  409721050 now IPC :2.14765: AVG IPC :0.95905: L2-Pf-HR :0.86592: L2-HR :0.82205: (Sim:1h5m29s) 
CPU  0 inst:  395000000 cyc:  410278405 now IPC :1.79419: AVG IPC :0.96018: L2-Pf-HR :0.86592: L2-HR :0.82225: (Sim:1h5m35s) 
CPU  0 inst:  396000005 cyc:  410731393 now IPC :2.20758: AVG IPC :0.96156: L2-Pf-HR :0.86627: L2-HR :0.82261: (Sim:1h5m41s) 
CPU  0 inst:  397000005 cyc:  411225148 now IPC :2.02530: AVG IPC :0.96284: L2-Pf-HR :0.86666: L2-HR :0.82306: (Sim:1h5m46s) 
CPU  0 inst:  398000004 cyc:  411697227 now IPC :2.11829: AVG IPC :0.96417: L2-Pf-HR :0.86710: L2-HR :0.82352: (Sim:1h5m52s) 
CPU  0 inst:  399000002 cyc:  412264558 now IPC :1.76264: AVG IPC :0.96527: L2-Pf-HR :0.86702: L2-HR :0.82359: (Sim:1h5m57s) 
CPU  0 inst:  400000003 cyc:  412774878 now IPC :1.95956: AVG IPC :0.96651: L2-Pf-HR :0.86728: L2-HR :0.82389: (Sim:1h6m2s) 
CPU  0 inst:  401000004 cyc:  413293533 now IPC :1.92807: AVG IPC :0.96772: L2-Pf-HR :0.86735: L2-HR :0.82410: (Sim:1h6m8s) 
CPU  0 inst:  402000000 cyc:  413769722 now IPC :2.10000: AVG IPC :0.96902: L2-Pf-HR :0.86770: L2-HR :0.82447: (Sim:1h6m13s) 
CPU  0 inst:  403000003 cyc:  414254310 now IPC :2.06361: AVG IPC :0.97031: L2-Pf-HR :0.86808: L2-HR :0.82492: (Sim:1h6m18s) 
CPU  0 inst:  404000001 cyc:  414836948 now IPC :1.71633: AVG IPC :0.97136: L2-Pf-HR :0.86815: L2-HR :0.82509: (Sim:1h6m24s) 
CPU  0 inst:  405000003 cyc:  415315869 now IPC :2.08803: AVG IPC :0.97265: L2-Pf-HR :0.86839: L2-HR :0.82536: (Sim:1h6m29s) 
CPU  0 inst:  406000005 cyc:  415853520 now IPC :1.85995: AVG IPC :0.97380: L2-Pf-HR :0.86853: L2-HR :0.82560: (Sim:1h6m34s) 
Finished CPU 0 instr: 404000003 cyc: 414871253 AVG IPC: 0.97380 (Sim time: 1h6m34s)

ChampSim completed all CPUs

[ROI Statistics]
Core_0_instructions 404000003
Core_0_cycles 414871253
Core_0_IPC 0.97380

Core_0_branch_prediction_accuracy 98.90148
Core_0_branch_MPKI 0.32729
Core_0_average_ROB_occupancy_at_mispredict 534.69146

Core_0_L1D_total_access 207062752
Core_0_L1D_total_hit 199475869 L1D_total_Hit Ratio: 0.96336
Core_0_L1D_total_miss 7586883
Core_0_L1D_loads 96682874
Core_0_L1D_load_hit 92989175 L1D_load_Hit Ratio: 0.96180
Core_0_L1D_load_miss 3693699
Core_0_L1D_RFOs 11289133
Core_0_L1D_RFO_hit 10790274 L1D_RFO_Hit Ratio: 0.95581
Core_0_L1D_RFO_miss 498859
Core_0_L1D_prefetches 99090745
Core_0_L1D_prefetch_hit 95696420 L1D_prefetch_Hit Ratio: 0.96575
Core_0_L1D_prefetch_miss 3394325
Core_0_L1D_writebacks 0
Core_0_L1D_writeback_hit 0 L1D_writeback_Hit Ratio: -nan
Core_0_L1D_writeback_miss 0
Core_0_L1D_prefetch_requested 265808512
Core_0_L1D_prefetch_issued 136333711
Core_0_L1D_prefetch_useful 3305846 L1D_Useful Ratio: 0.02425
Core_0_L1D_prefetch_useless 101594
Core_0_L1D_prefetch_late 609161
Core_0_L1D_average_miss_latency 19992832.87525

Core_0_L1I_total_access 61397407
Core_0_L1I_total_hit 61395473 L1I_total_Hit Ratio: 0.99997
Core_0_L1I_total_miss 1934
Core_0_L1I_loads 61397407
Core_0_L1I_load_hit 61395473 L1I_load_Hit Ratio: 0.99997
Core_0_L1I_load_miss 1934
Core_0_L1I_RFOs 0
Core_0_L1I_RFO_hit 0 L1I_RFO_Hit Ratio: -nan
Core_0_L1I_RFO_miss 0
Core_0_L1I_prefetches 0
Core_0_L1I_prefetch_hit 0 L1I_prefetch_Hit Ratio: -nan
Core_0_L1I_prefetch_miss 0
Core_0_L1I_writebacks 0
Core_0_L1I_writeback_hit 0 L1I_writeback_Hit Ratio: -nan
Core_0_L1I_writeback_miss 0
Core_0_L1I_prefetch_requested 0
Core_0_L1I_prefetch_issued 0
Core_0_L1I_prefetch_useful 0 L1I_Useful Ratio: -nan
Core_0_L1I_prefetch_useless 0
Core_0_L1I_prefetch_late 0
Core_0_L1I_average_miss_latency 250.38935

Core_0_L2C_total_access 16886179
Core_0_L2C_total_hit 13941157 L2C_total_Hit Ratio: 0.82560
Core_0_L2C_total_miss 2945022
Core_0_L2C_loads 3086509
Core_0_L2C_load_hit 1913565 L2C_load_Hit Ratio: 0.61998
Core_0_L2C_load_miss 1172944
Core_0_L2C_RFOs 498854
Core_0_L2C_RFO_hit 104241 L2C_RFO_Hit Ratio: 0.20896
Core_0_L2C_RFO_miss 394613
Core_0_L2C_prefetches 10477738
Core_0_L2C_prefetch_hit 9100278 L2C_prefetch_Hit Ratio: 0.86853
Core_0_L2C_prefetch_miss 1377460
Core_0_L2C_writebacks 2823078
Core_0_L2C_writeback_hit 2823073 L2C_writeback_Hit Ratio: 1.00000
Core_0_L2C_writeback_miss 5
Core_0_L2C_prefetch_requested 16465106
Core_0_L2C_prefetch_issued 15797517
Core_0_L2C_prefetch_useful 356716 L2C_Useful Ratio: 0.02258
Core_0_L2C_prefetch_useless 1006244
Core_0_L2C_prefetch_late 466925
Core_0_L2C_average_miss_latency 312.23788

Core_0_LLC_total_access 4596056
Core_0_LLC_total_hit 1646709 LLC_total_Hit Ratio: 0.35829
Core_0_LLC_total_miss 2949347
Core_0_LLC_loads 706082
Core_0_LLC_load_hit 0 LLC_load_Hit Ratio: 0.00000
Core_0_LLC_load_miss 706082
Core_0_LLC_RFOs 394613
Core_0_LLC_RFO_hit 0 LLC_RFO_Hit Ratio: 0.00000
Core_0_LLC_RFO_miss 394613
Core_0_LLC_prefetches 1844322
Core_0_LLC_prefetch_hit 231 LLC_prefetch_Hit Ratio: 0.00013
Core_0_LLC_prefetch_miss 1844091
Core_0_LLC_writebacks 1651039
Core_0_LLC_writeback_hit 1646478 LLC_writeback_Hit Ratio: 0.99724
Core_0_LLC_writeback_miss 4561
Core_0_LLC_prefetch_requested 0
Core_0_LLC_prefetch_issued 0
Core_0_LLC_prefetch_useful 0 LLC_Useful Ratio: -nan
Core_0_LLC_prefetch_useless 1747633
Core_0_LLC_prefetch_late 0
Core_0_LLC_average_miss_latency 292.27258

Core_0_major_page_fault 0
Core_0_minor_page_fault 22520


Channel_0_RQ_row_buffer_hit 1587524
Channel_0_RQ_row_buffer_miss 1357262
Channel_0_WQ_row_buffer_hit 583403
Channel_0_WQ_row_buffer_miss 1060351
Channel_0_WQ_full 1729
Channel_0_dbus_congested 2576678

avg_congested_cycle 8

EzSearch AVG IPC :0.97380: L2-Pf-HR :0.86853 : L2-HR :0.82560 Uful:0.02258
     > Finished combination: TraceType=770-tot Sim:404000000 Prefetcher=L2ipcp L1=ipcp
