TRACE: [1622000000][GPT-Neo-2_7B]_[h32][s1024][d80] Warmup: 2000000 NumTraces: 1622000000
L1:no:L2:spp_berti_src
Initialize SIGNATURE TABLE
ST_SET: 1
ST_WAY: 256
ST_TAG_BIT: 16
ST_TAG_MASK: ffff

Initialize PATTERN TABLE
PT_SET: 512
PT_WAY: 4
SIG_DELTA_BIT: 7
C_SIG_BIT: 4
C_DELTA_BIT: 4

Initialize PREFETCH FILTER
FILTER_SET: 1024
*************************************************
   ChampSim Multicore Out-of-Order Simulator
   Last compiled: Oct 26 2024 13:21:24
*************************************************

trace_0 770-tot_memTraces_v3/memTraces[1622000000][GPT-Neo-2_7B]_[h32][s1024][d80].champsim.xz
ST_WAYS: 256
PT_SETS: 512
MAIN.cc ln 751 stats print skipped
CPU  0 inst:    1000003 cyc:     503488 now IPC :1.98615: AVG IPC :1.98615: L2-Pf-HR :0.89137: L2-HR :0.77401: (Sim:0h0m5s) 
CPU  0 inst:    2000000 cyc:     980749 now IPC :2.09528: AVG IPC :2.03926: L2-Pf-HR :0.95580: L2-HR :0.87171: (Sim:0h0m9s) 

Warmup complete CPU  0 instructions:    2000003 cycles:     980750 (Simulation time: 0 hr 0 min 9 sec) 

CPU  0 inst:    3000003 cyc:    1619282 now IPC :1.56609: AVG IPC :1.56609: L2-Pf-HR :0.97916: L2-HR :0.90563: (Sim:0h0m13s) 
CPU  0 inst:    4000000 cyc:    2232350 now IPC :1.63114: AVG IPC :1.59795: L2-Pf-HR :0.98366: L2-HR :0.91824: (Sim:0h0m17s) 
CPU  0 inst:    5000001 cyc:    2821558 now IPC :1.69720: AVG IPC :1.62972: L2-Pf-HR :0.98696: L2-HR :0.92661: (Sim:0h0m22s) 
CPU  0 inst:    6000002 cyc:    3406145 now IPC :1.71061: AVG IPC :1.64922: L2-Pf-HR :0.98445: L2-HR :0.92000: (Sim:0h0m26s) 
CPU  0 inst:    7000003 cyc:    3973661 now IPC :1.76207: AVG IPC :1.67061: L2-Pf-HR :0.98603: L2-HR :0.92405: (Sim:0h0m30s) 
CPU  0 inst:    8000000 cyc:    4762350 now IPC :1.26792: AVG IPC :1.58663: L2-Pf-HR :0.98372: L2-HR :0.91825: (Sim:0h0m34s) 
CPU  0 inst:    9000003 cyc:    5334603 now IPC :1.74748: AVG IPC :1.60777: L2-Pf-HR :0.98347: L2-HR :0.91867: (Sim:0h0m38s) 
CPU  0 inst:   10000002 cyc:    5972430 now IPC :1.56782: AVG IPC :1.60267: L2-Pf-HR :0.98453: L2-HR :0.92173: (Sim:0h0m43s) 
CPU  0 inst:   11000001 cyc:    6525303 now IPC :1.80873: AVG IPC :1.62321: L2-Pf-HR :0.98536: L2-HR :0.92429: (Sim:0h0m47s) 
CPU  0 inst:   12000000 cyc:    7074754 now IPC :1.82000: AVG IPC :1.64096: L2-Pf-HR :0.98663: L2-HR :0.92771: (Sim:0h0m51s) 
CPU  0 inst:   13000000 cyc:    7626929 now IPC :1.81102: AVG IPC :1.65509: L2-Pf-HR :0.98697: L2-HR :0.92885: (Sim:0h0m55s) 
CPU  0 inst:   14000001 cyc:    8178977 now IPC :1.81144: AVG IPC :1.66708: L2-Pf-HR :0.98690: L2-HR :0.92930: (Sim:0h1m0s) 
CPU  0 inst:   15000003 cyc:    8732433 now IPC :1.80683: AVG IPC :1.67706: L2-Pf-HR :0.98758: L2-HR :0.93124: (Sim:0h1m4s) 
CPU  0 inst:   16000000 cyc:    9421679 now IPC :1.45086: AVG IPC :1.65858: L2-Pf-HR :0.98693: L2-HR :0.92952: (Sim:0h1m8s) 
CPU  0 inst:   17000003 cyc:    9964531 now IPC :1.84213: AVG IPC :1.66968: L2-Pf-HR :0.98745: L2-HR :0.93070: (Sim:0h1m12s) 
CPU  0 inst:   18000000 cyc:   10506349 now IPC :1.84563: AVG IPC :1.67968: L2-Pf-HR :0.98793: L2-HR :0.93189: (Sim:0h1m17s) 
CPU  0 inst:   19000001 cyc:   11047731 now IPC :1.84713: AVG IPC :1.68869: L2-Pf-HR :0.98838: L2-HR :0.93294: (Sim:0h1m21s) 
CPU  0 inst:   20000000 cyc:   11589030 now IPC :1.84741: AVG IPC :1.69679: L2-Pf-HR :0.98875: L2-HR :0.93383: (Sim:0h1m25s) 
CPU  0 inst:   21000000 cyc:   12395841 now IPC :1.23945: AVG IPC :1.66446: L2-Pf-HR :0.98716: L2-HR :0.92958: (Sim:0h1m30s) 
CPU  0 inst:   22000001 cyc:   13005930 now IPC :1.63911: AVG IPC :1.66318: L2-Pf-HR :0.98721: L2-HR :0.92947: (Sim:0h1m34s) 
CPU  0 inst:   23000001 cyc:   13668947 now IPC :1.50826: AVG IPC :1.65508: L2-Pf-HR :0.98672: L2-HR :0.92810: (Sim:0h1m38s) 
CPU  0 inst:   24000000 cyc:   14300391 now IPC :1.58367: AVG IPC :1.65170: L2-Pf-HR :0.98681: L2-HR :0.92828: (Sim:0h1m43s) 
CPU  0 inst:   25000000 cyc:   14900906 now IPC :1.66524: AVG IPC :1.65228: L2-Pf-HR :0.98684: L2-HR :0.92842: (Sim:0h1m47s) 
CPU  0 inst:   26000001 cyc:   15513346 now IPC :1.63281: AVG IPC :1.65146: L2-Pf-HR :0.98626: L2-HR :0.92705: (Sim:0h1m52s) 
CPU  0 inst:   27000002 cyc:   16116784 now IPC :1.65717: AVG IPC :1.65169: L2-Pf-HR :0.98639: L2-HR :0.92744: (Sim:0h1m56s) 
CPU  0 inst:   28000000 cyc:   16914350 now IPC :1.25381: AVG IPC :1.63177: L2-Pf-HR :0.98575: L2-HR :0.92577: (Sim:0h2m0s) 
CPU  0 inst:   29000001 cyc:   17468639 now IPC :1.80411: AVG IPC :1.63757: L2-Pf-HR :0.98569: L2-HR :0.92597: (Sim:0h2m4s) 
CPU  0 inst:   30000001 cyc:   18017990 now IPC :1.82033: AVG IPC :1.64346: L2-Pf-HR :0.98578: L2-HR :0.92650: (Sim:0h2m8s) 
CPU  0 inst:   31000002 cyc:   18565495 now IPC :1.82647: AVG IPC :1.64916: L2-Pf-HR :0.98592: L2-HR :0.92712: (Sim:0h2m13s) 
CPU  0 inst:   32000000 cyc:   19111908 now IPC :1.83011: AVG IPC :1.65461: L2-Pf-HR :0.98624: L2-HR :0.92817: (Sim:0h2m17s) 
CPU  0 inst:   33000000 cyc:   19661237 now IPC :1.82040: AVG IPC :1.65949: L2-Pf-HR :0.98630: L2-HR :0.92854: (Sim:0h2m21s) 
CPU  0 inst:   34000002 cyc:   20206971 now IPC :1.83240: AVG IPC :1.66439: L2-Pf-HR :0.98648: L2-HR :0.92923: (Sim:0h2m25s) 
CPU  0 inst:   35000001 cyc:   20762933 now IPC :1.79868: AVG IPC :1.66817: L2-Pf-HR :0.98671: L2-HR :0.93001: (Sim:0h2m29s) 
CPU  0 inst:   36000000 cyc:   21446510 now IPC :1.46289: AVG IPC :1.66131: L2-Pf-HR :0.98648: L2-HR :0.92944: (Sim:0h2m33s) 
CPU  0 inst:   37000002 cyc:   21986615 now IPC :1.85150: AVG IPC :1.66620: L2-Pf-HR :0.98667: L2-HR :0.93000: (Sim:0h2m36s) 
CPU  0 inst:   38000002 cyc:   22530643 now IPC :1.83814: AVG IPC :1.67054: L2-Pf-HR :0.98691: L2-HR :0.93053: (Sim:0h2m40s) 
CPU  0 inst:   39000002 cyc:   23072218 now IPC :1.84647: AVG IPC :1.67485: L2-Pf-HR :0.98709: L2-HR :0.93107: (Sim:0h2m44s) 
CPU  0 inst:   40000000 cyc:   23636451 now IPC :1.77231: AVG IPC :1.67728: L2-Pf-HR :0.98725: L2-HR :0.93156: (Sim:0h2m48s) 
CPU  0 inst:   41000003 cyc:   24433487 now IPC :1.25465: AVG IPC :1.66292: L2-Pf-HR :0.98647: L2-HR :0.92957: (Sim:0h2m53s) 
CPU  0 inst:   42000000 cyc:   25041155 now IPC :1.64563: AVG IPC :1.66248: L2-Pf-HR :0.98645: L2-HR :0.92948: (Sim:0h2m57s) 
CPU  0 inst:   43000000 cyc:   25718601 now IPC :1.47613: AVG IPC :1.65738: L2-Pf-HR :0.98619: L2-HR :0.92881: (Sim:0h3m1s) 
CPU  0 inst:   44000000 cyc:   26389516 now IPC :1.49050: AVG IPC :1.65297: L2-Pf-HR :0.98620: L2-HR :0.92883: (Sim:0h3m6s) 
CPU  0 inst:   45000002 cyc:   26981709 now IPC :1.68864: AVG IPC :1.65379: L2-Pf-HR :0.98620: L2-HR :0.92886: (Sim:0h3m10s) 
CPU  0 inst:   46000000 cyc:   27577389 now IPC :1.67875: AVG IPC :1.65434: L2-Pf-HR :0.98589: L2-HR :0.92812: (Sim:0h3m14s) 
CPU  0 inst:   47000003 cyc:   28180050 now IPC :1.65931: AVG IPC :1.65445: L2-Pf-HR :0.98597: L2-HR :0.92831: (Sim:0h3m18s) 
CPU  0 inst:   48000000 cyc:   28980631 now IPC :1.24909: AVG IPC :1.64286: L2-Pf-HR :0.98558: L2-HR :0.92730: (Sim:0h3m22s) 
CPU  0 inst:   49000000 cyc:   29543089 now IPC :1.77791: AVG IPC :1.64552: L2-Pf-HR :0.98549: L2-HR :0.92724: (Sim:0h3m26s) 
CPU  0 inst:   50000000 cyc:   30159951 now IPC :1.62111: AVG IPC :1.64501: L2-Pf-HR :0.98559: L2-HR :0.92756: (Sim:0h3m30s) 
CPU  0 inst:   51000001 cyc:   30715962 now IPC :1.79853: AVG IPC :1.64788: L2-Pf-HR :0.98570: L2-HR :0.92790: (Sim:0h3m35s) 
CPU  0 inst:   52000000 cyc:   31258793 now IPC :1.84219: AVG IPC :1.65136: L2-Pf-HR :0.98594: L2-HR :0.92850: (Sim:0h3m39s) 
CPU  0 inst:   53000003 cyc:   31806534 now IPC :1.82569: AVG IPC :1.65446: L2-Pf-HR :0.98598: L2-HR :0.92874: (Sim:0h3m43s) 
CPU  0 inst:   54000002 cyc:   32366594 now IPC :1.78552: AVG IPC :1.65680: L2-Pf-HR :0.98610: L2-HR :0.92915: (Sim:0h3m47s) 
CPU  0 inst:   55000001 cyc:   32939229 now IPC :1.74631: AVG IPC :1.65840: L2-Pf-HR :0.98612: L2-HR :0.92939: (Sim:0h3m52s) 
CPU  0 inst:   56000000 cyc:   33621694 now IPC :1.46528: AVG IPC :1.65436: L2-Pf-HR :0.98596: L2-HR :0.92898: (Sim:0h3m56s) 
CPU  0 inst:   57000001 cyc:   34161464 now IPC :1.85264: AVG IPC :1.65759: L2-Pf-HR :0.98610: L2-HR :0.92935: (Sim:0h4m0s) 
CPU  0 inst:   58000000 cyc:   34702938 now IPC :1.84681: AVG IPC :1.66063: L2-Pf-HR :0.98623: L2-HR :0.92971: (Sim:0h4m4s) 
CPU  0 inst:   59000002 cyc:   35241941 now IPC :1.85528: AVG IPC :1.66369: L2-Pf-HR :0.98636: L2-HR :0.93007: (Sim:0h4m9s) 
CPU  0 inst:   60000000 cyc:   35786049 now IPC :1.83787: AVG IPC :1.66641: L2-Pf-HR :0.98648: L2-HR :0.93042: (Sim:0h4m13s) 
CPU  0 inst:   61000003 cyc:   36581451 now IPC :1.25723: AVG IPC :1.65727: L2-Pf-HR :0.98596: L2-HR :0.92912: (Sim:0h4m17s) 
CPU  0 inst:   62000003 cyc:   37199857 now IPC :1.61706: AVG IPC :1.65658: L2-Pf-HR :0.98596: L2-HR :0.92908: (Sim:0h4m21s) 
CPU  0 inst:   63000002 cyc:   37863976 now IPC :1.50575: AVG IPC :1.65387: L2-Pf-HR :0.98580: L2-HR :0.92863: (Sim:0h4m26s) 
CPU  0 inst:   64000000 cyc:   38511082 now IPC :1.54534: AVG IPC :1.65200: L2-Pf-HR :0.98584: L2-HR :0.92865: (Sim:0h4m30s) 
CPU  0 inst:   65000001 cyc:   39110247 now IPC :1.66899: AVG IPC :1.65226: L2-Pf-HR :0.98589: L2-HR :0.92874: (Sim:0h4m34s) 
CPU  0 inst:   66000002 cyc:   39691413 now IPC :1.72068: AVG IPC :1.65329: L2-Pf-HR :0.98570: L2-HR :0.92829: (Sim:0h4m39s) 
CPU  0 inst:   67000003 cyc:   40260963 now IPC :1.75577: AVG IPC :1.65478: L2-Pf-HR :0.98575: L2-HR :0.92840: (Sim:0h4m43s) 
CPU  0 inst:   68000000 cyc:   41054096 now IPC :1.26082: AVG IPC :1.64698: L2-Pf-HR :0.98547: L2-HR :0.92768: (Sim:0h4m47s) 
CPU  0 inst:   69000002 cyc:   41640963 now IPC :1.70397: AVG IPC :1.64780: L2-Pf-HR :0.98551: L2-HR :0.92784: (Sim:0h4m51s) 
CPU  0 inst:   70000001 cyc:   42269626 now IPC :1.59068: AVG IPC :1.64693: L2-Pf-HR :0.98556: L2-HR :0.92803: (Sim:0h4m56s) 
CPU  0 inst:   71000002 cyc:   42818688 now IPC :1.82129: AVG IPC :1.64922: L2-Pf-HR :0.98562: L2-HR :0.92826: (Sim:0h5m0s) 
CPU  0 inst:   72000000 cyc:   43362132 now IPC :1.84011: AVG IPC :1.65167: L2-Pf-HR :0.98577: L2-HR :0.92869: (Sim:0h5m4s) 
CPU  0 inst:   73000001 cyc:   43909519 now IPC :1.82686: AVG IPC :1.65390: L2-Pf-HR :0.98581: L2-HR :0.92886: (Sim:0h5m9s) 
CPU  0 inst:   74000000 cyc:   44454416 now IPC :1.83521: AVG IPC :1.65618: L2-Pf-HR :0.98589: L2-HR :0.92915: (Sim:0h5m13s) 
CPU  0 inst:   75000000 cyc:   45006996 now IPC :1.80969: AVG IPC :1.65810: L2-Pf-HR :0.98590: L2-HR :0.92930: (Sim:0h5m17s) 
CPU  0 inst:   76000000 cyc:   45684111 now IPC :1.47685: AVG IPC :1.65536: L2-Pf-HR :0.98579: L2-HR :0.92900: (Sim:0h5m21s) 
CPU  0 inst:   77000003 cyc:   46224403 now IPC :1.85086: AVG IPC :1.65769: L2-Pf-HR :0.98589: L2-HR :0.92928: (Sim:0h5m26s) 
CPU  0 inst:   78000003 cyc:   46786853 now IPC :1.77794: AVG IPC :1.65917: L2-Pf-HR :0.98601: L2-HR :0.92954: (Sim:0h5m30s) 
CPU  0 inst:   79000003 cyc:   47327222 now IPC :1.85059: AVG IPC :1.66140: L2-Pf-HR :0.98611: L2-HR :0.92982: (Sim:0h5m34s) 
CPU  0 inst:   80000000 cyc:   47875593 now IPC :1.82358: AVG IPC :1.66330: L2-Pf-HR :0.98620: L2-HR :0.93008: (Sim:0h5m38s) 
CPU  0 inst:   81000003 cyc:   48666556 now IPC :1.26429: AVG IPC :1.65668: L2-Pf-HR :0.98580: L2-HR :0.92908: (Sim:0h5m43s) 
CPU  0 inst:   82000001 cyc:   49269775 now IPC :1.65777: AVG IPC :1.65669: L2-Pf-HR :0.98581: L2-HR :0.92907: (Sim:0h5m47s) 
CPU  0 inst:   83000001 cyc:   49948209 now IPC :1.47398: AVG IPC :1.65416: L2-Pf-HR :0.98566: L2-HR :0.92868: (Sim:0h5m52s) 
CPU  0 inst:   84000000 cyc:   50578672 now IPC :1.58613: AVG IPC :1.65330: L2-Pf-HR :0.98568: L2-HR :0.92870: (Sim:0h5m56s) 
CPU  0 inst:   85000003 cyc:   51228110 now IPC :1.53980: AVG IPC :1.65183: L2-Pf-HR :0.98572: L2-HR :0.92879: (Sim:0h6m1s) 
CPU  0 inst:   86000000 cyc:   51807807 now IPC :1.72503: AVG IPC :1.65266: L2-Pf-HR :0.98557: L2-HR :0.92844: (Sim:0h6m5s) 
CPU  0 inst:   87000000 cyc:   52389426 now IPC :1.71934: AVG IPC :1.65342: L2-Pf-HR :0.98562: L2-HR :0.92855: (Sim:0h6m9s) 
CPU  0 inst:   88000000 cyc:   53179286 now IPC :1.26605: AVG IPC :1.64756: L2-Pf-HR :0.98541: L2-HR :0.92800: (Sim:0h6m13s) 
CPU  0 inst:   89000001 cyc:   53738459 now IPC :1.78836: AVG IPC :1.64905: L2-Pf-HR :0.98543: L2-HR :0.92810: (Sim:0h6m18s) 
CPU  0 inst:   90000003 cyc:   54288538 now IPC :1.81792: AVG IPC :1.65079: L2-Pf-HR :0.98547: L2-HR :0.92826: (Sim:0h6m22s) 
CPU  0 inst:   91000003 cyc:   54836785 now IPC :1.82400: AVG IPC :1.65255: L2-Pf-HR :0.98554: L2-HR :0.92844: (Sim:0h6m26s) 
CPU  0 inst:   92000000 cyc:   55380678 now IPC :1.83859: AVG IPC :1.65441: L2-Pf-HR :0.98567: L2-HR :0.92877: (Sim:0h6m30s) 
CPU  0 inst:   93000000 cyc:   55931960 now IPC :1.81395: AVG IPC :1.65601: L2-Pf-HR :0.98569: L2-HR :0.92890: (Sim:0h6m34s) 
CPU  0 inst:   94000000 cyc:   56475536 now IPC :1.83967: AVG IPC :1.65781: L2-Pf-HR :0.98577: L2-HR :0.92914: (Sim:0h6m39s) 
CPU  0 inst:   95000002 cyc:   57029686 now IPC :1.80457: AVG IPC :1.65926: L2-Pf-HR :0.98577: L2-HR :0.92927: (Sim:0h6m43s) 
CPU  0 inst:   96000000 cyc:   57709423 now IPC :1.47115: AVG IPC :1.65701: L2-Pf-HR :0.98576: L2-HR :0.92916: (Sim:0h6m47s) 
CPU  0 inst:   97000002 cyc:   58249403 now IPC :1.85192: AVG IPC :1.65885: L2-Pf-HR :0.98584: L2-HR :0.92937: (Sim:0h6m51s) 
CPU  0 inst:   98000001 cyc:   58792103 now IPC :1.84264: AVG IPC :1.66057: L2-Pf-HR :0.98592: L2-HR :0.92958: (Sim:0h6m55s) 
CPU  0 inst:   99000002 cyc:   59332622 now IPC :1.85008: AVG IPC :1.66233: L2-Pf-HR :0.98600: L2-HR :0.92980: (Sim:0h6m59s) 
CPU  0 inst:  100000000 cyc:   59882521 now IPC :1.81851: AVG IPC :1.66379: L2-Pf-HR :0.98607: L2-HR :0.93000: (Sim:0h7m2s) 
CPU  0 inst:  101000001 cyc:   60678835 now IPC :1.25579: AVG IPC :1.65834: L2-Pf-HR :0.98575: L2-HR :0.92919: (Sim:0h7m6s) 
CPU  0 inst:  102000000 cyc:   61296667 now IPC :1.61856: AVG IPC :1.65794: L2-Pf-HR :0.98575: L2-HR :0.92917: (Sim:0h7m9s) 
CPU  0 inst:  103000000 cyc:   62029634 now IPC :1.36432: AVG IPC :1.65441: L2-Pf-HR :0.98566: L2-HR :0.92890: (Sim:0h7m12s) 
CPU  0 inst:  104000000 cyc:   62717839 now IPC :1.45306: AVG IPC :1.65217: L2-Pf-HR :0.98570: L2-HR :0.92893: (Sim:0h7m17s) 
CPU  0 inst:  105000002 cyc:   63308647 now IPC :1.69260: AVG IPC :1.65255: L2-Pf-HR :0.98573: L2-HR :0.92896: (Sim:0h7m21s) 
CPU  0 inst:  106000003 cyc:   63896880 now IPC :1.70001: AVG IPC :1.65299: L2-Pf-HR :0.98563: L2-HR :0.92867: (Sim:0h7m26s) 
CPU  0 inst:  107000003 cyc:   64467766 now IPC :1.75166: AVG IPC :1.65388: L2-Pf-HR :0.98569: L2-HR :0.92874: (Sim:0h7m30s) 
CPU  0 inst:  108000000 cyc:   65262153 now IPC :1.25883: AVG IPC :1.64900: L2-Pf-HR :0.98552: L2-HR :0.92827: (Sim:0h7m35s) 
CPU  0 inst:  109000000 cyc:   65817246 now IPC :1.80150: AVG IPC :1.65031: L2-Pf-HR :0.98550: L2-HR :0.92826: (Sim:0h7m39s) 
CPU  0 inst:  110000002 cyc:   66368002 now IPC :1.81569: AVG IPC :1.65170: L2-Pf-HR :0.98556: L2-HR :0.92838: (Sim:0h7m43s) 
CPU  0 inst:  111000000 cyc:   66919414 now IPC :1.81352: AVG IPC :1.65305: L2-Pf-HR :0.98562: L2-HR :0.92852: (Sim:0h7m47s) 
CPU  0 inst:  112000000 cyc:   67462787 now IPC :1.84036: AVG IPC :1.65458: L2-Pf-HR :0.98573: L2-HR :0.92879: (Sim:0h7m52s) 
CPU  0 inst:  113000002 cyc:   68012636 now IPC :1.81868: AVG IPC :1.65593: L2-Pf-HR :0.98577: L2-HR :0.92888: (Sim:0h7m56s) 
CPU  0 inst:  114000001 cyc:   68561041 now IPC :1.82347: AVG IPC :1.65729: L2-Pf-HR :0.98585: L2-HR :0.92908: (Sim:0h8m0s) 
CPU  0 inst:  115000000 cyc:   69122326 now IPC :1.78162: AVG IPC :1.65831: L2-Pf-HR :0.98594: L2-HR :0.92931: (Sim:0h8m4s) 
CPU  0 inst:  116000000 cyc:   69795315 now IPC :1.48591: AVG IPC :1.65663: L2-Pf-HR :0.98587: L2-HR :0.92910: (Sim:0h8m9s) 
CPU  0 inst:  117000000 cyc:   70337621 now IPC :1.84398: AVG IPC :1.65809: L2-Pf-HR :0.98595: L2-HR :0.92927: (Sim:0h8m13s) 
CPU  0 inst:  118000000 cyc:   70882532 now IPC :1.83516: AVG IPC :1.65947: L2-Pf-HR :0.98603: L2-HR :0.92944: (Sim:0h8m17s) 
CPU  0 inst:  119000001 cyc:   71423493 now IPC :1.84856: AVG IPC :1.66092: L2-Pf-HR :0.98612: L2-HR :0.92962: (Sim:0h8m22s) 
CPU  0 inst:  120000000 cyc:   71977893 now IPC :1.80375: AVG IPC :1.66204: L2-Pf-HR :0.98619: L2-HR :0.92979: (Sim:0h8m26s) 
CPU  0 inst:  121000000 cyc:   72775362 now IPC :1.25397: AVG IPC :1.65751: L2-Pf-HR :0.98594: L2-HR :0.92913: (Sim:0h8m30s) 
CPU  0 inst:  122000002 cyc:   73402055 now IPC :1.59568: AVG IPC :1.65697: L2-Pf-HR :0.98596: L2-HR :0.92911: (Sim:0h8m35s) 
CPU  0 inst:  123000003 cyc:   74084774 now IPC :1.46473: AVG IPC :1.65518: L2-Pf-HR :0.98588: L2-HR :0.92885: (Sim:0h8m39s) 
CPU  0 inst:  124000000 cyc:   74742451 now IPC :1.52050: AVG IPC :1.65397: L2-Pf-HR :0.98590: L2-HR :0.92888: (Sim:0h8m44s) 
CPU  0 inst:  125000003 cyc:   75395741 now IPC :1.53072: AVG IPC :1.65289: L2-Pf-HR :0.98594: L2-HR :0.92894: (Sim:0h8m48s) 
CPU  0 inst:  126000002 cyc:   76003029 now IPC :1.64666: AVG IPC :1.65284: L2-Pf-HR :0.98587: L2-HR :0.92871: (Sim:0h8m52s) 
CPU  0 inst:  127000001 cyc:   76593165 now IPC :1.69452: AVG IPC :1.65317: L2-Pf-HR :0.98592: L2-HR :0.92878: (Sim:0h8m56s) 
CPU  0 inst:  128000000 cyc:   77393734 now IPC :1.24911: AVG IPC :1.64893: L2-Pf-HR :0.98579: L2-HR :0.92841: (Sim:0h9m1s) 
CPU  0 inst:  129000002 cyc:   77971575 now IPC :1.73058: AVG IPC :1.64955: L2-Pf-HR :0.98583: L2-HR :0.92849: (Sim:0h9m5s) 
CPU  0 inst:  130000000 cyc:   78572346 now IPC :1.66452: AVG IPC :1.64966: L2-Pf-HR :0.98587: L2-HR :0.92861: (Sim:0h9m9s) 
CPU  0 inst:  131000001 cyc:   79120795 now IPC :1.82333: AVG IPC :1.65088: L2-Pf-HR :0.98591: L2-HR :0.92873: (Sim:0h9m14s) 
CPU  0 inst:  132000000 cyc:   79663165 now IPC :1.84376: AVG IPC :1.65221: L2-Pf-HR :0.98598: L2-HR :0.92895: (Sim:0h9m18s) 
CPU  0 inst:  133000001 cyc:   80212577 now IPC :1.82013: AVG IPC :1.65338: L2-Pf-HR :0.98600: L2-HR :0.92904: (Sim:0h9m22s) 
CPU  0 inst:  134000003 cyc:   80754804 now IPC :1.84425: AVG IPC :1.65467: L2-Pf-HR :0.98605: L2-HR :0.92921: (Sim:0h9m27s) 
CPU  0 inst:  135000000 cyc:   81318537 now IPC :1.77388: AVG IPC :1.65551: L2-Pf-HR :0.98605: L2-HR :0.92929: (Sim:0h9m31s) 
CPU  0 inst:  136000000 cyc:   81988950 now IPC :1.49162: AVG IPC :1.65415: L2-Pf-HR :0.98599: L2-HR :0.92912: (Sim:0h9m35s) 
CPU  0 inst:  137000003 cyc:   82530156 now IPC :1.84773: AVG IPC :1.65544: L2-Pf-HR :0.98604: L2-HR :0.92927: (Sim:0h9m39s) 
CPU  0 inst:  138000002 cyc:   83072983 now IPC :1.84221: AVG IPC :1.65667: L2-Pf-HR :0.98610: L2-HR :0.92941: (Sim:0h9m44s) 
CPU  0 inst:  139000003 cyc:   83613767 now IPC :1.84917: AVG IPC :1.65793: L2-Pf-HR :0.98617: L2-HR :0.92956: (Sim:0h9m48s) 
CPU  0 inst:  140000000 cyc:   84171134 now IPC :1.79414: AVG IPC :1.65885: L2-Pf-HR :0.98623: L2-HR :0.92970: (Sim:0h9m52s) 
CPU  0 inst:  141000002 cyc:   84957853 now IPC :1.27110: AVG IPC :1.65521: L2-Pf-HR :0.98602: L2-HR :0.92913: (Sim:0h9m57s) 
CPU  0 inst:  142000002 cyc:   85577289 now IPC :1.61437: AVG IPC :1.65491: L2-Pf-HR :0.98603: L2-HR :0.92913: (Sim:0h10m0s) 
CPU  0 inst:  143000000 cyc:   86350806 now IPC :1.29279: AVG IPC :1.65163: L2-Pf-HR :0.98597: L2-HR :0.92893: (Sim:0h10m3s) 
CPU  0 inst:  144000000 cyc:   87032178 now IPC :1.46763: AVG IPC :1.65018: L2-Pf-HR :0.98599: L2-HR :0.92895: (Sim:0h10m6s) 
CPU  0 inst:  145000003 cyc:   87672590 now IPC :1.56150: AVG IPC :1.64952: L2-Pf-HR :0.98600: L2-HR :0.92900: (Sim:0h10m9s) 
CPU  0 inst:  146000000 cyc:   88253284 now IPC :1.72207: AVG IPC :1.65000: L2-Pf-HR :0.98592: L2-HR :0.92880: (Sim:0h10m12s) 
CPU  0 inst:  147000000 cyc:   88852974 now IPC :1.66753: AVG IPC :1.65012: L2-Pf-HR :0.98594: L2-HR :0.92884: (Sim:0h10m16s) 
CPU  0 inst:  148000000 cyc:   89650251 now IPC :1.25427: AVG IPC :1.64656: L2-Pf-HR :0.98581: L2-HR :0.92852: (Sim:0h10m19s) 
CPU  0 inst:  149000000 cyc:   90209185 now IPC :1.78912: AVG IPC :1.64746: L2-Pf-HR :0.98580: L2-HR :0.92852: (Sim:0h10m22s) 
CPU  0 inst:  150000000 cyc:   90801856 now IPC :1.68728: AVG IPC :1.64772: L2-Pf-HR :0.98582: L2-HR :0.92862: (Sim:0h10m25s) 
CPU  0 inst:  151000001 cyc:   91348578 now IPC :1.82908: AVG IPC :1.64882: L2-Pf-HR :0.98585: L2-HR :0.92872: (Sim:0h10m28s) 
CPU  0 inst:  152000000 cyc:   91893277 now IPC :1.83587: AVG IPC :1.64994: L2-Pf-HR :0.98592: L2-HR :0.92892: (Sim:0h10m31s) 
CPU  0 inst:  153000000 cyc:   92442905 now IPC :1.81941: AVG IPC :1.65096: L2-Pf-HR :0.98594: L2-HR :0.92899: (Sim:0h10m34s) 
CPU  0 inst:  154000002 cyc:   92987451 now IPC :1.83640: AVG IPC :1.65205: L2-Pf-HR :0.98601: L2-HR :0.92914: (Sim:0h10m36s) 
CPU  0 inst:  155000003 cyc:   93552473 now IPC :1.76984: AVG IPC :1.65277: L2-Pf-HR :0.98606: L2-HR :0.92930: (Sim:0h10m39s) 
CPU  0 inst:  156000000 cyc:   94213065 now IPC :1.51379: AVG IPC :1.65179: L2-Pf-HR :0.98602: L2-HR :0.92916: (Sim:0h10m42s) 
CPU  0 inst:  157000002 cyc:   94755982 now IPC :1.84191: AVG IPC :1.65289: L2-Pf-HR :0.98608: L2-HR :0.92928: (Sim:0h10m45s) 
CPU  0 inst:  158000003 cyc:   95298149 now IPC :1.84445: AVG IPC :1.65399: L2-Pf-HR :0.98612: L2-HR :0.92941: (Sim:0h10m48s) 
CPU  0 inst:  159000002 cyc:   95837989 now IPC :1.85240: AVG IPC :1.65512: L2-Pf-HR :0.98617: L2-HR :0.92954: (Sim:0h10m51s) 
CPU  0 inst:  160000000 cyc:   96415898 now IPC :1.73037: AVG IPC :1.65557: L2-Pf-HR :0.98621: L2-HR :0.92967: (Sim:0h10m54s) 
CPU  0 inst:  161000001 cyc:   97221275 now IPC :1.24166: AVG IPC :1.65211: L2-Pf-HR :0.98604: L2-HR :0.92917: (Sim:0h10m58s) 
CPU  0 inst:  162000003 cyc:   97925663 now IPC :1.41967: AVG IPC :1.65042: L2-Pf-HR :0.98602: L2-HR :0.92909: (Sim:0h11m3s) 
CPU  0 inst:  163000000 cyc:   98683261 now IPC :1.31996: AVG IPC :1.64786: L2-Pf-HR :0.98594: L2-HR :0.92882: (Sim:0h11m7s) 
CPU  0 inst:  164000000 cyc:   99431946 now IPC :1.33568: AVG IPC :1.64549: L2-Pf-HR :0.98592: L2-HR :0.92871: (Sim:0h11m11s) 
CPU  0 inst:  165000001 cyc:  100178317 now IPC :1.33982: AVG IPC :1.64319: L2-Pf-HR :0.98589: L2-HR :0.92858: (Sim:0h11m16s) 
CPU  0 inst:  166000003 cyc:  100902217 now IPC :1.38141: AVG IPC :1.64129: L2-Pf-HR :0.98579: L2-HR :0.92826: (Sim:0h11m20s) 
CPU  0 inst:  167000003 cyc:  101657608 now IPC :1.32382: AVG IPC :1.63891: L2-Pf-HR :0.98578: L2-HR :0.92815: (Sim:0h11m25s) 
CPU  0 inst:  168000000 cyc:  102529965 now IPC :1.14632: AVG IPC :1.63468: L2-Pf-HR :0.98566: L2-HR :0.92782: (Sim:0h11m29s) 
CPU  0 inst:  169000003 cyc:  103095325 now IPC :1.76879: AVG IPC :1.63542: L2-Pf-HR :0.98567: L2-HR :0.92783: (Sim:0h11m33s) 
CPU  0 inst:  170000002 cyc:  103725327 now IPC :1.58729: AVG IPC :1.63512: L2-Pf-HR :0.98571: L2-HR :0.92792: (Sim:0h11m38s) 
CPU  0 inst:  171000000 cyc:  104374954 now IPC :1.53934: AVG IPC :1.63452: L2-Pf-HR :0.98574: L2-HR :0.92802: (Sim:0h11m42s) 
CPU  0 inst:  172000000 cyc:  104917364 now IPC :1.84362: AVG IPC :1.63561: L2-Pf-HR :0.98580: L2-HR :0.92820: (Sim:0h11m46s) 
CPU  0 inst:  173000002 cyc:  105467357 now IPC :1.81821: AVG IPC :1.63657: L2-Pf-HR :0.98581: L2-HR :0.92826: (Sim:0h11m50s) 
CPU  0 inst:  174000000 cyc:  106011444 now IPC :1.83794: AVG IPC :1.63762: L2-Pf-HR :0.98581: L2-HR :0.92832: (Sim:0h11m55s) 
CPU  0 inst:  175000001 cyc:  106578247 now IPC :1.76428: AVG IPC :1.63830: L2-Pf-HR :0.98585: L2-HR :0.92846: (Sim:0h11m59s) 
CPU  0 inst:  176000000 cyc:  107245237 now IPC :1.49927: AVG IPC :1.63742: L2-Pf-HR :0.98583: L2-HR :0.92840: (Sim:0h12m3s) 
CPU  0 inst:  177000000 cyc:  107785893 now IPC :1.84960: AVG IPC :1.63850: L2-Pf-HR :0.98588: L2-HR :0.92852: (Sim:0h12m8s) 
CPU  0 inst:  178000001 cyc:  108329978 now IPC :1.83795: AVG IPC :1.63951: L2-Pf-HR :0.98593: L2-HR :0.92864: (Sim:0h12m12s) 
CPU  0 inst:  179000000 cyc:  108872735 now IPC :1.84244: AVG IPC :1.64053: L2-Pf-HR :0.98599: L2-HR :0.92876: (Sim:0h12m16s) 
CPU  0 inst:  180000000 cyc:  109432414 now IPC :1.78674: AVG IPC :1.64128: L2-Pf-HR :0.98603: L2-HR :0.92887: (Sim:0h12m20s) 
CPU  0 inst:  181000003 cyc:  110230802 now IPC :1.25253: AVG IPC :1.63844: L2-Pf-HR :0.98586: L2-HR :0.92841: (Sim:0h12m25s) 
CPU  0 inst:  182000001 cyc:  110857180 now IPC :1.59648: AVG IPC :1.63820: L2-Pf-HR :0.98587: L2-HR :0.92840: (Sim:0h12m29s) 
CPU  0 inst:  183000002 cyc:  111522721 now IPC :1.50254: AVG IPC :1.63739: L2-Pf-HR :0.98582: L2-HR :0.92825: (Sim:0h12m34s) 
CPU  0 inst:  184000000 cyc:  112171983 now IPC :1.54021: AVG IPC :1.63682: L2-Pf-HR :0.98583: L2-HR :0.92829: (Sim:0h12m38s) 
CPU  0 inst:  185000000 cyc:  112786101 now IPC :1.62835: AVG IPC :1.63677: L2-Pf-HR :0.98583: L2-HR :0.92829: (Sim:0h12m42s) 
CPU  0 inst:  186000001 cyc:  113364505 now IPC :1.72890: AVG IPC :1.63725: L2-Pf-HR :0.98577: L2-HR :0.92814: (Sim:0h12m47s) 
CPU  0 inst:  187000001 cyc:  113958933 now IPC :1.68229: AVG IPC :1.63748: L2-Pf-HR :0.98579: L2-HR :0.92820: (Sim:0h12m51s) 
CPU  0 inst:  188000000 cyc:  114757601 now IPC :1.25208: AVG IPC :1.63478: L2-Pf-HR :0.98569: L2-HR :0.92793: (Sim:0h12m54s) 
CPU  0 inst:  189000003 cyc:  115344760 now IPC :1.70312: AVG IPC :1.63513: L2-Pf-HR :0.98572: L2-HR :0.92801: (Sim:0h12m57s) 
CPU  0 inst:  190000000 cyc:  115939948 now IPC :1.68014: AVG IPC :1.63536: L2-Pf-HR :0.98574: L2-HR :0.92809: (Sim:0h13m0s) 
CPU  0 inst:  191000003 cyc:  116488810 now IPC :1.82196: AVG IPC :1.63625: L2-Pf-HR :0.98576: L2-HR :0.92818: (Sim:0h13m4s) 
CPU  0 inst:  192000000 cyc:  117036029 now IPC :1.82742: AVG IPC :1.63715: L2-Pf-HR :0.98582: L2-HR :0.92833: (Sim:0h13m6s) 
CPU  0 inst:  193000000 cyc:  117587243 now IPC :1.81418: AVG IPC :1.63799: L2-Pf-HR :0.98584: L2-HR :0.92838: (Sim:0h13m9s) 
CPU  0 inst:  194000000 cyc:  118154973 now IPC :1.76140: AVG IPC :1.63859: L2-Pf-HR :0.98589: L2-HR :0.92851: (Sim:0h13m12s) 
CPU  0 inst:  195000003 cyc:  118735740 now IPC :1.72187: AVG IPC :1.63900: L2-Pf-HR :0.98593: L2-HR :0.92864: (Sim:0h13m15s) 
CPU  0 inst:  196000000 cyc:  119406221 now IPC :1.49146: AVG IPC :1.63816: L2-Pf-HR :0.98590: L2-HR :0.92852: (Sim:0h13m18s) 
CPU  0 inst:  197000003 cyc:  119948407 now IPC :1.84439: AVG IPC :1.63910: L2-Pf-HR :0.98595: L2-HR :0.92863: (Sim:0h13m22s) 
CPU  0 inst:  198000001 cyc:  120488823 now IPC :1.85042: AVG IPC :1.64006: L2-Pf-HR :0.98599: L2-HR :0.92874: (Sim:0h13m25s) 
CPU  0 inst:  199000003 cyc:  121027942 now IPC :1.85488: AVG IPC :1.64102: L2-Pf-HR :0.98603: L2-HR :0.92885: (Sim:0h13m28s) 
CPU  0 inst:  200000000 cyc:  121588681 now IPC :1.78336: AVG IPC :1.64168: L2-Pf-HR :0.98606: L2-HR :0.92895: (Sim:0h13m31s) 
CPU  0 inst:  201000002 cyc:  122367477 now IPC :1.28404: AVG IPC :1.63939: L2-Pf-HR :0.98592: L2-HR :0.92859: (Sim:0h13m34s) 
CPU  0 inst:  202000002 cyc:  122979721 now IPC :1.63334: AVG IPC :1.63936: L2-Pf-HR :0.98592: L2-HR :0.92858: (Sim:0h13m37s) 
CPU  0 inst:  203000001 cyc:  123658570 now IPC :1.47308: AVG IPC :1.63844: L2-Pf-HR :0.98587: L2-HR :0.92845: (Sim:0h13m40s) 
CPU  0 inst:  204000000 cyc:  124328537 now IPC :1.49261: AVG IPC :1.63765: L2-Pf-HR :0.98588: L2-HR :0.92848: (Sim:0h13m43s) 
CPU  0 inst:  205000001 cyc:  124929429 now IPC :1.66419: AVG IPC :1.63777: L2-Pf-HR :0.98589: L2-HR :0.92847: (Sim:0h13m46s) 
CPU  0 inst:  206000001 cyc:  125509788 now IPC :1.72307: AVG IPC :1.63817: L2-Pf-HR :0.98585: L2-HR :0.92834: (Sim:0h13m49s) 
CPU  0 inst:  207000000 cyc:  126083024 now IPC :1.74448: AVG IPC :1.63866: L2-Pf-HR :0.98588: L2-HR :0.92840: (Sim:0h13m52s) 
CPU  0 inst:  208000000 cyc:  126878858 now IPC :1.25654: AVG IPC :1.63624: L2-Pf-HR :0.98578: L2-HR :0.92814: (Sim:0h13m55s) 
CPU  0 inst:  209000000 cyc:  127462877 now IPC :1.71227: AVG IPC :1.63659: L2-Pf-HR :0.98580: L2-HR :0.92817: (Sim:0h13m59s) 
CPU  0 inst:  210000003 cyc:  128025129 now IPC :1.77857: AVG IPC :1.63722: L2-Pf-HR :0.98583: L2-HR :0.92824: (Sim:0h14m4s) 
CPU  0 inst:  211000001 cyc:  128572488 now IPC :1.82695: AVG IPC :1.63804: L2-Pf-HR :0.98584: L2-HR :0.92832: (Sim:0h14m8s) 
CPU  0 inst:  212000000 cyc:  129115286 now IPC :1.84230: AVG IPC :1.63890: L2-Pf-HR :0.98589: L2-HR :0.92846: (Sim:0h14m12s) 
CPU  0 inst:  213000003 cyc:  129663135 now IPC :1.82533: AVG IPC :1.63970: L2-Pf-HR :0.98589: L2-HR :0.92850: (Sim:0h14m17s) 
CPU  0 inst:  214000002 cyc:  130204042 now IPC :1.84874: AVG IPC :1.64057: L2-Pf-HR :0.98589: L2-HR :0.92855: (Sim:0h14m21s) 
CPU  0 inst:  215000002 cyc:  130774175 now IPC :1.75398: AVG IPC :1.64107: L2-Pf-HR :0.98589: L2-HR :0.92860: (Sim:0h14m25s) 
CPU  0 inst:  216000000 cyc:  131435194 now IPC :1.51281: AVG IPC :1.64042: L2-Pf-HR :0.98586: L2-HR :0.92850: (Sim:0h14m30s) 
CPU  0 inst:  217000001 cyc:  131976497 now IPC :1.84740: AVG IPC :1.64127: L2-Pf-HR :0.98589: L2-HR :0.92860: (Sim:0h14m34s) 
CPU  0 inst:  218000002 cyc:  132521815 now IPC :1.83379: AVG IPC :1.64207: L2-Pf-HR :0.98593: L2-HR :0.92870: (Sim:0h14m38s) 
CPU  0 inst:  219000000 cyc:  133065546 now IPC :1.83914: AVG IPC :1.64288: L2-Pf-HR :0.98598: L2-HR :0.92879: (Sim:0h14m42s) 
CPU  0 inst:  220000000 cyc:  133635040 now IPC :1.75594: AVG IPC :1.64337: L2-Pf-HR :0.98601: L2-HR :0.92888: (Sim:0h14m47s) 
CPU  0 inst:  221000001 cyc:  134416041 now IPC :1.28041: AVG IPC :1.64125: L2-Pf-HR :0.98589: L2-HR :0.92853: (Sim:0h14m51s) 
CPU  0 inst:  222000001 cyc:  135055560 now IPC :1.56368: AVG IPC :1.64087: L2-Pf-HR :0.98590: L2-HR :0.92854: (Sim:0h14m55s) 
CPU  0 inst:  223000001 cyc:  135721170 now IPC :1.50238: AVG IPC :1.64019: L2-Pf-HR :0.98586: L2-HR :0.92841: (Sim:0h15m0s) 
CPU  0 inst:  224000000 cyc:  136348847 now IPC :1.59317: AVG IPC :1.63997: L2-Pf-HR :0.98588: L2-HR :0.92843: (Sim:0h15m4s) 
CPU  0 inst:  225000000 cyc:  136935210 now IPC :1.70543: AVG IPC :1.64026: L2-Pf-HR :0.98589: L2-HR :0.92845: (Sim:0h15m9s) 
CPU  0 inst:  226000002 cyc:  137512428 now IPC :1.73245: AVG IPC :1.64064: L2-Pf-HR :0.98585: L2-HR :0.92832: (Sim:0h15m13s) 
CPU  0 inst:  227000000 cyc:  138114498 now IPC :1.66093: AVG IPC :1.64073: L2-Pf-HR :0.98588: L2-HR :0.92837: (Sim:0h15m17s) 
CPU  0 inst:  228000000 cyc:  138908417 now IPC :1.25957: AVG IPC :1.63854: L2-Pf-HR :0.98580: L2-HR :0.92814: (Sim:0h15m22s) 
CPU  0 inst:  229000003 cyc:  139471277 now IPC :1.77665: AVG IPC :1.63910: L2-Pf-HR :0.98582: L2-HR :0.92819: (Sim:0h15m26s) 
CPU  0 inst:  230000000 cyc:  140022260 now IPC :1.81493: AVG IPC :1.63980: L2-Pf-HR :0.98584: L2-HR :0.92825: (Sim:0h15m30s) 
CPU  0 inst:  231000000 cyc:  140570672 now IPC :1.82345: AVG IPC :1.64052: L2-Pf-HR :0.98587: L2-HR :0.92832: (Sim:0h15m35s) 
CPU  0 inst:  232000000 cyc:  141114010 now IPC :1.84047: AVG IPC :1.64129: L2-Pf-HR :0.98591: L2-HR :0.92845: (Sim:0h15m39s) 
CPU  0 inst:  233000000 cyc:  141663163 now IPC :1.82099: AVG IPC :1.64200: L2-Pf-HR :0.98592: L2-HR :0.92849: (Sim:0h15m43s) 
CPU  0 inst:  234000001 cyc:  142204990 now IPC :1.84561: AVG IPC :1.64278: L2-Pf-HR :0.98595: L2-HR :0.92860: (Sim:0h15m48s) 
CPU  0 inst:  235000000 cyc:  142777660 now IPC :1.74620: AVG IPC :1.64320: L2-Pf-HR :0.98598: L2-HR :0.92870: (Sim:0h15m52s) 
CPU  0 inst:  236000000 cyc:  143437545 now IPC :1.51542: AVG IPC :1.64260: L2-Pf-HR :0.98597: L2-HR :0.92866: (Sim:0h15m56s) 
CPU  0 inst:  237000000 cyc:  143977369 now IPC :1.85246: AVG IPC :1.64340: L2-Pf-HR :0.98600: L2-HR :0.92875: (Sim:0h16m1s) 
CPU  0 inst:  238000002 cyc:  144521908 now IPC :1.83642: AVG IPC :1.64413: L2-Pf-HR :0.98604: L2-HR :0.92885: (Sim:0h16m5s) 
CPU  0 inst:  239000002 cyc:  145061217 now IPC :1.85422: AVG IPC :1.64491: L2-Pf-HR :0.98607: L2-HR :0.92894: (Sim:0h16m9s) 
CPU  0 inst:  240000000 cyc:  145626681 now IPC :1.76846: AVG IPC :1.64540: L2-Pf-HR :0.98609: L2-HR :0.92902: (Sim:0h16m13s) 
CPU  0 inst:  241000003 cyc:  146403869 now IPC :1.28669: AVG IPC :1.64348: L2-Pf-HR :0.98596: L2-HR :0.92869: (Sim:0h16m18s) 
CPU  0 inst:  242000000 cyc:  147023113 now IPC :1.61487: AVG IPC :1.64336: L2-Pf-HR :0.98596: L2-HR :0.92869: (Sim:0h16m22s) 
CPU  0 inst:  243000002 cyc:  147700133 now IPC :1.47706: AVG IPC :1.64259: L2-Pf-HR :0.98592: L2-HR :0.92857: (Sim:0h16m27s) 
CPU  0 inst:  244000000 cyc:  148422985 now IPC :1.38341: AVG IPC :1.64132: L2-Pf-HR :0.98593: L2-HR :0.92860: (Sim:0h16m31s) 
CPU  0 inst:  245000002 cyc:  149023186 now IPC :1.66611: AVG IPC :1.64142: L2-Pf-HR :0.98594: L2-HR :0.92859: (Sim:0h16m34s) 
CPU  0 inst:  246000000 cyc:  149598562 now IPC :1.73799: AVG IPC :1.64180: L2-Pf-HR :0.98590: L2-HR :0.92848: (Sim:0h16m37s) 
CPU  0 inst:  247000001 cyc:  150169687 now IPC :1.75093: AVG IPC :1.64221: L2-Pf-HR :0.98593: L2-HR :0.92852: (Sim:0h16m40s) 
CPU  0 inst:  248000000 cyc:  150965252 now IPC :1.25697: AVG IPC :1.64017: L2-Pf-HR :0.98584: L2-HR :0.92830: (Sim:0h16m43s) 
CPU  0 inst:  249000001 cyc:  151513622 now IPC :1.82359: AVG IPC :1.64084: L2-Pf-HR :0.98586: L2-HR :0.92834: (Sim:0h16m46s) 
CPU  0 inst:  250000001 cyc:  152061597 now IPC :1.82490: AVG IPC :1.64151: L2-Pf-HR :0.98588: L2-HR :0.92839: (Sim:0h16m49s) 
CPU  0 inst:  251000002 cyc:  152609040 now IPC :1.82668: AVG IPC :1.64217: L2-Pf-HR :0.98589: L2-HR :0.92846: (Sim:0h16m52s) 
CPU  0 inst:  252000000 cyc:  153152136 now IPC :1.84129: AVG IPC :1.64288: L2-Pf-HR :0.98593: L2-HR :0.92857: (Sim:0h16m56s) 
CPU  0 inst:  253000002 cyc:  153703529 now IPC :1.81359: AVG IPC :1.64350: L2-Pf-HR :0.98594: L2-HR :0.92861: (Sim:0h17m0s) 
CPU  0 inst:  254000003 cyc:  154246295 now IPC :1.84242: AVG IPC :1.64421: L2-Pf-HR :0.98597: L2-HR :0.92871: (Sim:0h17m4s) 
CPU  0 inst:  255000000 cyc:  154819598 now IPC :1.74427: AVG IPC :1.64458: L2-Pf-HR :0.98596: L2-HR :0.92875: (Sim:0h17m9s) 
CPU  0 inst:  256000000 cyc:  155469700 now IPC :1.53822: AVG IPC :1.64413: L2-Pf-HR :0.98594: L2-HR :0.92867: (Sim:0h17m13s) 
CPU  0 inst:  257000002 cyc:  156010829 now IPC :1.84799: AVG IPC :1.64484: L2-Pf-HR :0.98597: L2-HR :0.92875: (Sim:0h17m17s) 
CPU  0 inst:  258000000 cyc:  156554063 now IPC :1.84082: AVG IPC :1.64553: L2-Pf-HR :0.98600: L2-HR :0.92884: (Sim:0h17m21s) 
CPU  0 inst:  259000001 cyc:  157095833 now IPC :1.84580: AVG IPC :1.64622: L2-Pf-HR :0.98604: L2-HR :0.92892: (Sim:0h17m25s) 
CPU  0 inst:  260000000 cyc:  157684377 now IPC :1.69911: AVG IPC :1.64642: L2-Pf-HR :0.98607: L2-HR :0.92898: (Sim:0h17m30s) 
CPU  0 inst:  261000002 cyc:  158440522 now IPC :1.32250: AVG IPC :1.64486: L2-Pf-HR :0.98596: L2-HR :0.92870: (Sim:0h17m34s) 
CPU  0 inst:  262000003 cyc:  159067387 now IPC :1.59524: AVG IPC :1.64467: L2-Pf-HR :0.98597: L2-HR :0.92869: (Sim:0h17m38s) 
CPU  0 inst:  263000001 cyc:  159813976 now IPC :1.33942: AVG IPC :1.64323: L2-Pf-HR :0.98593: L2-HR :0.92857: (Sim:0h17m43s) 
CPU  0 inst:  264000000 cyc:  160474023 now IPC :1.51504: AVG IPC :1.64270: L2-Pf-HR :0.98594: L2-HR :0.92859: (Sim:0h17m47s) 
CPU  0 inst:  265000002 cyc:  161046268 now IPC :1.74751: AVG IPC :1.64308: L2-Pf-HR :0.98594: L2-HR :0.92860: (Sim:0h17m52s) 
CPU  0 inst:  266000003 cyc:  161621585 now IPC :1.73817: AVG IPC :1.64342: L2-Pf-HR :0.98589: L2-HR :0.92849: (Sim:0h17m56s) 
CPU  0 inst:  267000000 cyc:  162187332 now IPC :1.76757: AVG IPC :1.64385: L2-Pf-HR :0.98591: L2-HR :0.92853: (Sim:0h18m0s) 
CPU  0 inst:  268000000 cyc:  163015599 now IPC :1.20734: AVG IPC :1.64162: L2-Pf-HR :0.98583: L2-HR :0.92832: (Sim:0h18m4s) 
CPU  0 inst:  269000000 cyc:  163576095 now IPC :1.78413: AVG IPC :1.64211: L2-Pf-HR :0.98582: L2-HR :0.92833: (Sim:0h18m8s) 
CPU  0 inst:  270000003 cyc:  164174361 now IPC :1.67150: AVG IPC :1.64222: L2-Pf-HR :0.98583: L2-HR :0.92838: (Sim:0h18m12s) 
CPU  0 inst:  271000001 cyc:  164721487 now IPC :1.82773: AVG IPC :1.64284: L2-Pf-HR :0.98585: L2-HR :0.92844: (Sim:0h18m15s) 
CPU  0 inst:  272000000 cyc:  165265486 now IPC :1.83824: AVG IPC :1.64349: L2-Pf-HR :0.98589: L2-HR :0.92855: (Sim:0h18m19s) 
CPU  0 inst:  273000001 cyc:  165817247 now IPC :1.81238: AVG IPC :1.64405: L2-Pf-HR :0.98590: L2-HR :0.92859: (Sim:0h18m24s) 
CPU  0 inst:  274000002 cyc:  166360913 now IPC :1.83937: AVG IPC :1.64470: L2-Pf-HR :0.98594: L2-HR :0.92868: (Sim:0h18m28s) 
CPU  0 inst:  275000002 cyc:  166944120 now IPC :1.71466: AVG IPC :1.64494: L2-Pf-HR :0.98596: L2-HR :0.92876: (Sim:0h18m31s) 
CPU  0 inst:  276000000 cyc:  167600648 now IPC :1.52316: AVG IPC :1.64446: L2-Pf-HR :0.98596: L2-HR :0.92872: (Sim:0h18m36s) 
CPU  0 inst:  277000001 cyc:  168144671 now IPC :1.83816: AVG IPC :1.64509: L2-Pf-HR :0.98600: L2-HR :0.92880: (Sim:0h18m39s) 
CPU  0 inst:  278000003 cyc:  168686874 now IPC :1.84433: AVG IPC :1.64574: L2-Pf-HR :0.98602: L2-HR :0.92887: (Sim:0h18m43s) 
CPU  0 inst:  279000000 cyc:  169227729 now IPC :1.84892: AVG IPC :1.64639: L2-Pf-HR :0.98605: L2-HR :0.92895: (Sim:0h18m46s) 
CPU  0 inst:  280000000 cyc:  169854186 now IPC :1.59628: AVG IPC :1.64620: L2-Pf-HR :0.98607: L2-HR :0.92900: (Sim:0h18m49s) 
CPU  0 inst:  281000000 cyc:  170599877 now IPC :1.34104: AVG IPC :1.64486: L2-Pf-HR :0.98596: L2-HR :0.92873: (Sim:0h18m52s) 
CPU  0 inst:  282000003 cyc:  171214594 now IPC :1.62677: AVG IPC :1.64480: L2-Pf-HR :0.98596: L2-HR :0.92872: (Sim:0h18m55s) 
CPU  0 inst:  283000000 cyc:  171892169 now IPC :1.47585: AVG IPC :1.64413: L2-Pf-HR :0.98592: L2-HR :0.92861: (Sim:0h18m59s) 
CPU  0 inst:  284000000 cyc:  172550435 now IPC :1.51914: AVG IPC :1.64365: L2-Pf-HR :0.98593: L2-HR :0.92864: (Sim:0h19m2s) 
CPU  0 inst:  285000003 cyc:  173137827 now IPC :1.70245: AVG IPC :1.64385: L2-Pf-HR :0.98594: L2-HR :0.92863: (Sim:0h19m5s) 
CPU  0 inst:  286000002 cyc:  173715040 now IPC :1.73246: AVG IPC :1.64414: L2-Pf-HR :0.98590: L2-HR :0.92854: (Sim:0h19m8s) 
CPU  0 inst:  287000003 cyc:  174317962 now IPC :1.65859: AVG IPC :1.64419: L2-Pf-HR :0.98593: L2-HR :0.92858: (Sim:0h19m11s) 
CPU  0 inst:  288000000 cyc:  175112425 now IPC :1.25871: AVG IPC :1.64244: L2-Pf-HR :0.98583: L2-HR :0.92834: (Sim:0h19m14s) 
CPU  0 inst:  289000001 cyc:  175660622 now IPC :1.82416: AVG IPC :1.64301: L2-Pf-HR :0.98583: L2-HR :0.92835: (Sim:0h19m17s) 
CPU  0 inst:  290000001 cyc:  176209781 now IPC :1.82097: AVG IPC :1.64356: L2-Pf-HR :0.98585: L2-HR :0.92839: (Sim:0h19m20s) 
CPU  0 inst:  291000003 cyc:  176757045 now IPC :1.82728: AVG IPC :1.64414: L2-Pf-HR :0.98586: L2-HR :0.92845: (Sim:0h19m24s) 
CPU  0 inst:  292000000 cyc:  177298473 now IPC :1.84696: AVG IPC :1.64476: L2-Pf-HR :0.98590: L2-HR :0.92855: (Sim:0h19m28s) 
CPU  0 inst:  293000001 cyc:  177847500 now IPC :1.82141: AVG IPC :1.64531: L2-Pf-HR :0.98590: L2-HR :0.92858: (Sim:0h19m33s) 
CPU  0 inst:  294000001 cyc:  178389971 now IPC :1.84342: AVG IPC :1.64591: L2-Pf-HR :0.98593: L2-HR :0.92866: (Sim:0h19m37s) 
CPU  0 inst:  295000001 cyc:  178971674 now IPC :1.71909: AVG IPC :1.64615: L2-Pf-HR :0.98595: L2-HR :0.92874: (Sim:0h19m41s) 
CPU  0 inst:  296000000 cyc:  179625800 now IPC :1.52876: AVG IPC :1.64572: L2-Pf-HR :0.98592: L2-HR :0.92867: (Sim:0h19m45s) 
CPU  0 inst:  297000003 cyc:  180166366 now IPC :1.84992: AVG IPC :1.64634: L2-Pf-HR :0.98595: L2-HR :0.92874: (Sim:0h19m50s) 
CPU  0 inst:  298000000 cyc:  180709528 now IPC :1.84107: AVG IPC :1.64693: L2-Pf-HR :0.98598: L2-HR :0.92881: (Sim:0h19m54s) 
CPU  0 inst:  299000003 cyc:  181252019 now IPC :1.84335: AVG IPC :1.64752: L2-Pf-HR :0.98601: L2-HR :0.92888: (Sim:0h19m58s) 
CPU  0 inst:  300000000 cyc:  181867333 now IPC :1.62518: AVG IPC :1.64744: L2-Pf-HR :0.98604: L2-HR :0.92893: (Sim:0h20m3s) 
CPU  0 inst:  301000003 cyc:  182597713 now IPC :1.36915: AVG IPC :1.64632: L2-Pf-HR :0.98594: L2-HR :0.92868: (Sim:0h20m7s) 
CPU  0 inst:  302000003 cyc:  183220521 now IPC :1.60563: AVG IPC :1.64618: L2-Pf-HR :0.98595: L2-HR :0.92868: (Sim:0h20m12s) 
CPU  0 inst:  303000001 cyc:  183895675 now IPC :1.48114: AVG IPC :1.64557: L2-Pf-HR :0.98591: L2-HR :0.92857: (Sim:0h20m16s) 
CPU  0 inst:  304000000 cyc:  184562201 now IPC :1.50032: AVG IPC :1.64505: L2-Pf-HR :0.98592: L2-HR :0.92859: (Sim:0h20m20s) 
CPU  0 inst:  305000002 cyc:  185127317 now IPC :1.76955: AVG IPC :1.64543: L2-Pf-HR :0.98592: L2-HR :0.92860: (Sim:0h20m23s) 
CPU  0 inst:  306000000 cyc:  185702266 now IPC :1.73928: AVG IPC :1.64572: L2-Pf-HR :0.98588: L2-HR :0.92851: (Sim:0h20m26s) 
CPU  0 inst:  307000002 cyc:  186293261 now IPC :1.69207: AVG IPC :1.64587: L2-Pf-HR :0.98590: L2-HR :0.92855: (Sim:0h20m29s) 
CPU  0 inst:  308000000 cyc:  187090499 now IPC :1.25433: AVG IPC :1.64419: L2-Pf-HR :0.98583: L2-HR :0.92838: (Sim:0h20m32s) 
CPU  0 inst:  309000003 cyc:  187650912 now IPC :1.78440: AVG IPC :1.64461: L2-Pf-HR :0.98583: L2-HR :0.92839: (Sim:0h20m37s) 
CPU  0 inst:  310000000 cyc:  188277238 now IPC :1.59661: AVG IPC :1.64445: L2-Pf-HR :0.98584: L2-HR :0.92843: (Sim:0h20m41s) 
CPU  0 inst:  311000002 cyc:  188824651 now IPC :1.82678: AVG IPC :1.64498: L2-Pf-HR :0.98586: L2-HR :0.92849: (Sim:0h20m45s) 
CPU  0 inst:  312000000 cyc:  189368381 now IPC :1.83914: AVG IPC :1.64554: L2-Pf-HR :0.98590: L2-HR :0.92859: (Sim:0h20m49s) 
CPU  0 inst:  313000002 cyc:  189919686 now IPC :1.81388: AVG IPC :1.64603: L2-Pf-HR :0.98590: L2-HR :0.92861: (Sim:0h20m54s) 
CPU  0 inst:  314000003 cyc:  190464224 now IPC :1.83642: AVG IPC :1.64658: L2-Pf-HR :0.98593: L2-HR :0.92869: (Sim:0h20m58s) 
CPU  0 inst:  315000001 cyc:  191049756 now IPC :1.70785: AVG IPC :1.64677: L2-Pf-HR :0.98593: L2-HR :0.92871: (Sim:0h21m2s) 
CPU  0 inst:  316000000 cyc:  191696109 now IPC :1.54714: AVG IPC :1.64643: L2-Pf-HR :0.98592: L2-HR :0.92865: (Sim:0h21m6s) 
CPU  0 inst:  317000000 cyc:  192238007 now IPC :1.84537: AVG IPC :1.64700: L2-Pf-HR :0.98595: L2-HR :0.92872: (Sim:0h21m11s) 
CPU  0 inst:  318000000 cyc:  192777412 now IPC :1.85389: AVG IPC :1.64758: L2-Pf-HR :0.98597: L2-HR :0.92878: (Sim:0h21m15s) 
CPU  0 inst:  319000000 cyc:  193318632 now IPC :1.84768: AVG IPC :1.64814: L2-Pf-HR :0.98599: L2-HR :0.92885: (Sim:0h21m19s) 
CPU  0 inst:  320000000 cyc:  193949881 now IPC :1.58416: AVG IPC :1.64793: L2-Pf-HR :0.98601: L2-HR :0.92889: (Sim:0h21m24s) 
CPU  0 inst:  321000001 cyc:  194659273 now IPC :1.40966: AVG IPC :1.64706: L2-Pf-HR :0.98594: L2-HR :0.92871: (Sim:0h21m28s) 
CPU  0 inst:  322000003 cyc:  195275785 now IPC :1.62203: AVG IPC :1.64698: L2-Pf-HR :0.98595: L2-HR :0.92872: (Sim:0h21m32s) 
CPU  0 inst:  323000000 cyc:  195972513 now IPC :1.43528: AVG IPC :1.64622: L2-Pf-HR :0.98591: L2-HR :0.92863: (Sim:0h21m37s) 
CPU  0 inst:  324000000 cyc:  196679868 now IPC :1.41372: AVG IPC :1.64538: L2-Pf-HR :0.98592: L2-HR :0.92864: (Sim:0h21m41s) 
CPU  0 inst:  325000000 cyc:  197309438 now IPC :1.58839: AVG IPC :1.64520: L2-Pf-HR :0.98593: L2-HR :0.92864: (Sim:0h21m46s) 
CPU  0 inst:  326000000 cyc:  197887515 now IPC :1.72987: AVG IPC :1.64545: L2-Pf-HR :0.98590: L2-HR :0.92856: (Sim:0h21m50s) 
CPU  0 inst:  327000003 cyc:  198461532 now IPC :1.74211: AVG IPC :1.64573: L2-Pf-HR :0.98592: L2-HR :0.92859: (Sim:0h21m54s) 
CPU  0 inst:  328000000 cyc:  199256587 now IPC :1.25777: AVG IPC :1.64417: L2-Pf-HR :0.98586: L2-HR :0.92842: (Sim:0h21m59s) 
CPU  0 inst:  329000002 cyc:  199803414 now IPC :1.82874: AVG IPC :1.64468: L2-Pf-HR :0.98588: L2-HR :0.92847: (Sim:0h22m3s) 
CPU  0 inst:  330000000 cyc:  200352840 now IPC :1.82008: AVG IPC :1.64517: L2-Pf-HR :0.98589: L2-HR :0.92851: (Sim:0h22m7s) 
CPU  0 inst:  331000000 cyc:  200900314 now IPC :1.82657: AVG IPC :1.64566: L2-Pf-HR :0.98591: L2-HR :0.92856: (Sim:0h22m11s) 
CPU  0 inst:  332000000 cyc:  201443661 now IPC :1.84044: AVG IPC :1.64619: L2-Pf-HR :0.98594: L2-HR :0.92866: (Sim:0h22m15s) 
CPU  0 inst:  333000001 cyc:  201994714 now IPC :1.81471: AVG IPC :1.64665: L2-Pf-HR :0.98594: L2-HR :0.92868: (Sim:0h22m18s) 
CPU  0 inst:  334000001 cyc:  202537103 now IPC :1.84370: AVG IPC :1.64718: L2-Pf-HR :0.98596: L2-HR :0.92876: (Sim:0h22m21s) 
CPU  0 inst:  335000003 cyc:  203134040 now IPC :1.67522: AVG IPC :1.64726: L2-Pf-HR :0.98595: L2-HR :0.92877: (Sim:0h22m26s) 
CPU  0 inst:  336000000 cyc:  203770877 now IPC :1.57026: AVG IPC :1.64702: L2-Pf-HR :0.98594: L2-HR :0.92872: (Sim:0h22m30s) 
CPU  0 inst:  337000000 cyc:  204311070 now IPC :1.85119: AVG IPC :1.64757: L2-Pf-HR :0.98596: L2-HR :0.92878: (Sim:0h22m34s) 
CPU  0 inst:  338000002 cyc:  204853525 now IPC :1.84347: AVG IPC :1.64809: L2-Pf-HR :0.98598: L2-HR :0.92884: (Sim:0h22m38s) 
CPU  0 inst:  339000002 cyc:  205394347 now IPC :1.84904: AVG IPC :1.64862: L2-Pf-HR :0.98601: L2-HR :0.92890: (Sim:0h22m43s) 
CPU  0 inst:  340000000 cyc:  206039758 now IPC :1.54940: AVG IPC :1.64831: L2-Pf-HR :0.98602: L2-HR :0.92890: (Sim:0h22m46s) 
CPU  0 inst:  341000000 cyc:  206740902 now IPC :1.42624: AVG IPC :1.64755: L2-Pf-HR :0.98594: L2-HR :0.92870: (Sim:0h22m50s) 
CPU  0 inst:  342000002 cyc:  207367349 now IPC :1.59631: AVG IPC :1.64739: L2-Pf-HR :0.98594: L2-HR :0.92869: (Sim:0h22m53s) 
CPU  0 inst:  343000002 cyc:  208035919 now IPC :1.49573: AVG IPC :1.64690: L2-Pf-HR :0.98591: L2-HR :0.92861: (Sim:0h22m56s) 
CPU  0 inst:  344000000 cyc:  208648122 now IPC :1.63344: AVG IPC :1.64686: L2-Pf-HR :0.98592: L2-HR :0.92863: (Sim:0h22m59s) 
CPU  0 inst:  345000003 cyc:  209259255 now IPC :1.63631: AVG IPC :1.64683: L2-Pf-HR :0.98592: L2-HR :0.92863: (Sim:0h23m2s) 
CPU  0 inst:  346000001 cyc:  209840183 now IPC :1.72138: AVG IPC :1.64704: L2-Pf-HR :0.98589: L2-HR :0.92855: (Sim:0h23m6s) 
CPU  0 inst:  347000002 cyc:  210433407 now IPC :1.68571: AVG IPC :1.64715: L2-Pf-HR :0.98590: L2-HR :0.92859: (Sim:0h23m10s) 
CPU  0 inst:  348000000 cyc:  211224767 now IPC :1.26364: AVG IPC :1.64571: L2-Pf-HR :0.98585: L2-HR :0.92844: (Sim:0h23m15s) 
CPU  0 inst:  349000001 cyc:  211785145 now IPC :1.78451: AVG IPC :1.64608: L2-Pf-HR :0.98585: L2-HR :0.92846: (Sim:0h23m19s) 
CPU  0 inst:  350000001 cyc:  212413427 now IPC :1.59164: AVG IPC :1.64591: L2-Pf-HR :0.98586: L2-HR :0.92849: (Sim:0h23m23s) 
CPU  0 inst:  351000003 cyc:  212959865 now IPC :1.83004: AVG IPC :1.64639: L2-Pf-HR :0.98587: L2-HR :0.92854: (Sim:0h23m28s) 
CPU  0 inst:  352000000 cyc:  213504660 now IPC :1.83555: AVG IPC :1.64687: L2-Pf-HR :0.98590: L2-HR :0.92863: (Sim:0h23m32s) 
CPU  0 inst:  353000003 cyc:  214057239 now IPC :1.80970: AVG IPC :1.64730: L2-Pf-HR :0.98591: L2-HR :0.92865: (Sim:0h23m35s) 
CPU  0 inst:  354000003 cyc:  214635400 now IPC :1.72962: AVG IPC :1.64752: L2-Pf-HR :0.98594: L2-HR :0.92872: (Sim:0h23m39s) 
CPU  0 inst:  355000001 cyc:  215240758 now IPC :1.65191: AVG IPC :1.64753: L2-Pf-HR :0.98596: L2-HR :0.92877: (Sim:0h23m43s) 
CPU  0 inst:  356000000 cyc:  215871258 now IPC :1.58604: AVG IPC :1.64735: L2-Pf-HR :0.98595: L2-HR :0.92873: (Sim:0h23m47s) 
CPU  0 inst:  357000003 cyc:  216412089 now IPC :1.84901: AVG IPC :1.64786: L2-Pf-HR :0.98597: L2-HR :0.92879: (Sim:0h23m52s) 
CPU  0 inst:  358000001 cyc:  216954658 now IPC :1.84308: AVG IPC :1.64835: L2-Pf-HR :0.98599: L2-HR :0.92884: (Sim:0h23m56s) 
CPU  0 inst:  359000001 cyc:  217496896 now IPC :1.84421: AVG IPC :1.64884: L2-Pf-HR :0.98601: L2-HR :0.92891: (Sim:0h24m0s) 
CPU  0 inst:  360000000 cyc:  218155836 now IPC :1.51759: AVG IPC :1.64844: L2-Pf-HR :0.98602: L2-HR :0.92892: (Sim:0h24m4s) 
CPU  0 inst:  361000003 cyc:  218849077 now IPC :1.44250: AVG IPC :1.64778: L2-Pf-HR :0.98594: L2-HR :0.92874: (Sim:0h24m9s) 
CPU  0 inst:  362000003 cyc:  219476884 now IPC :1.59285: AVG IPC :1.64763: L2-Pf-HR :0.98595: L2-HR :0.92874: (Sim:0h24m13s) 
CPU  0 inst:  363000002 cyc:  220163250 now IPC :1.45695: AVG IPC :1.64703: L2-Pf-HR :0.98591: L2-HR :0.92866: (Sim:0h24m17s) 
CPU  0 inst:  364000000 cyc:  220789301 now IPC :1.59731: AVG IPC :1.64689: L2-Pf-HR :0.98592: L2-HR :0.92867: (Sim:0h24m22s) 
CPU  0 inst:  365000002 cyc:  221410589 now IPC :1.60956: AVG IPC :1.64678: L2-Pf-HR :0.98593: L2-HR :0.92868: (Sim:0h24m26s) 
CPU  0 inst:  366000002 cyc:  222006970 now IPC :1.67678: AVG IPC :1.64686: L2-Pf-HR :0.98590: L2-HR :0.92860: (Sim:0h24m30s) 
CPU  0 inst:  367000000 cyc:  222607098 now IPC :1.66631: AVG IPC :1.64692: L2-Pf-HR :0.98592: L2-HR :0.92863: (Sim:0h24m34s) 
CPU  0 inst:  368000000 cyc:  223403853 now IPC :1.25509: AVG IPC :1.64551: L2-Pf-HR :0.98586: L2-HR :0.92849: (Sim:0h24m39s) 
CPU  0 inst:  369000003 cyc:  223973066 now IPC :1.75682: AVG IPC :1.64580: L2-Pf-HR :0.98587: L2-HR :0.92849: (Sim:0h24m43s) 
CPU  0 inst:  370000000 cyc:  224594189 now IPC :1.60998: AVG IPC :1.64570: L2-Pf-HR :0.98588: L2-HR :0.92852: (Sim:0h24m47s) 
CPU  0 inst:  371000002 cyc:  225140917 now IPC :1.82907: AVG IPC :1.64614: L2-Pf-HR :0.98589: L2-HR :0.92857: (Sim:0h24m51s) 
CPU  0 inst:  372000000 cyc:  225683658 now IPC :1.84250: AVG IPC :1.64662: L2-Pf-HR :0.98592: L2-HR :0.92866: (Sim:0h24m56s) 
CPU  0 inst:  373000002 cyc:  226234475 now IPC :1.81549: AVG IPC :1.64703: L2-Pf-HR :0.98592: L2-HR :0.92868: (Sim:0h25m0s) 
CPU  0 inst:  374000001 cyc:  226776874 now IPC :1.84366: AVG IPC :1.64750: L2-Pf-HR :0.98594: L2-HR :0.92875: (Sim:0h25m4s) 
CPU  0 inst:  375000002 cyc:  227389672 now IPC :1.63186: AVG IPC :1.64746: L2-Pf-HR :0.98595: L2-HR :0.92878: (Sim:0h25m9s) 
CPU  0 inst:  376000000 cyc:  228005857 now IPC :1.62289: AVG IPC :1.64739: L2-Pf-HR :0.98594: L2-HR :0.92875: (Sim:0h25m13s) 
CPU  0 inst:  377000000 cyc:  228548147 now IPC :1.84403: AVG IPC :1.64786: L2-Pf-HR :0.98596: L2-HR :0.92881: (Sim:0h25m18s) 
CPU  0 inst:  378000003 cyc:  229088687 now IPC :1.85001: AVG IPC :1.64834: L2-Pf-HR :0.98598: L2-HR :0.92886: (Sim:0h25m22s) 
CPU  0 inst:  379000002 cyc:  229630987 now IPC :1.84400: AVG IPC :1.64881: L2-Pf-HR :0.98601: L2-HR :0.92891: (Sim:0h25m26s) 
CPU  0 inst:  380000000 cyc:  230329440 now IPC :1.43173: AVG IPC :1.64815: L2-Pf-HR :0.98602: L2-HR :0.92891: (Sim:0h25m31s) 
CPU  0 inst:  381000001 cyc:  231000274 now IPC :1.49068: AVG IPC :1.64769: L2-Pf-HR :0.98595: L2-HR :0.92876: (Sim:0h25m35s) 
CPU  0 inst:  382000002 cyc:  231633656 now IPC :1.57883: AVG IPC :1.64750: L2-Pf-HR :0.98596: L2-HR :0.92876: (Sim:0h25m39s) 
CPU  0 inst:  383000002 cyc:  232305958 now IPC :1.48743: AVG IPC :1.64703: L2-Pf-HR :0.98593: L2-HR :0.92869: (Sim:0h25m43s) 
CPU  0 inst:  384000000 cyc:  232957535 now IPC :1.53473: AVG IPC :1.64672: L2-Pf-HR :0.98594: L2-HR :0.92870: (Sim:0h25m48s) 
CPU  0 inst:  385000000 cyc:  233562678 now IPC :1.65250: AVG IPC :1.64673: L2-Pf-HR :0.98594: L2-HR :0.92871: (Sim:0h25m52s) 
CPU  0 inst:  386000001 cyc:  234143707 now IPC :1.72109: AVG IPC :1.64692: L2-Pf-HR :0.98591: L2-HR :0.92864: (Sim:0h25m55s) 
CPU  0 inst:  387000003 cyc:  234715066 now IPC :1.75022: AVG IPC :1.64717: L2-Pf-HR :0.98593: L2-HR :0.92867: (Sim:0h25m58s) 
CPU  0 inst:  388000000 cyc:  235513029 now IPC :1.25319: AVG IPC :1.64583: L2-Pf-HR :0.98587: L2-HR :0.92853: (Sim:0h26m2s) 
CPU  0 inst:  389000002 cyc:  236081455 now IPC :1.75925: AVG IPC :1.64610: L2-Pf-HR :0.98587: L2-HR :0.92854: (Sim:0h26m6s) 
CPU  0 inst:  390000001 cyc:  236702262 now IPC :1.61080: AVG IPC :1.64601: L2-Pf-HR :0.98588: L2-HR :0.92857: (Sim:0h26m9s) 
CPU  0 inst:  391000000 cyc:  237250568 now IPC :1.82380: AVG IPC :1.64642: L2-Pf-HR :0.98589: L2-HR :0.92862: (Sim:0h26m12s) 
CPU  0 inst:  392000000 cyc:  237794912 now IPC :1.83707: AVG IPC :1.64686: L2-Pf-HR :0.98592: L2-HR :0.92869: (Sim:0h26m16s) 
CPU  0 inst:  393000001 cyc:  238346536 now IPC :1.81283: AVG IPC :1.64725: L2-Pf-HR :0.98592: L2-HR :0.92871: (Sim:0h26m20s) 
CPU  0 inst:  394000003 cyc:  238890732 now IPC :1.83758: AVG IPC :1.64768: L2-Pf-HR :0.98595: L2-HR :0.92877: (Sim:0h26m24s) 
CPU  0 inst:  395000001 cyc:  239518297 now IPC :1.59346: AVG IPC :1.64754: L2-Pf-HR :0.98596: L2-HR :0.92880: (Sim:0h26m28s) 
CPU  0 inst:  396000000 cyc:  240123628 now IPC :1.65199: AVG IPC :1.64755: L2-Pf-HR :0.98595: L2-HR :0.92878: (Sim:0h26m33s) 
CPU  0 inst:  397000003 cyc:  240667060 now IPC :1.84016: AVG IPC :1.64799: L2-Pf-HR :0.98598: L2-HR :0.92883: (Sim:0h26m37s) 
CPU  0 inst:  398000001 cyc:  241208338 now IPC :1.84748: AVG IPC :1.64844: L2-Pf-HR :0.98600: L2-HR :0.92889: (Sim:0h26m41s) 
CPU  0 inst:  399000003 cyc:  241750587 now IPC :1.84417: AVG IPC :1.64888: L2-Pf-HR :0.98601: L2-HR :0.92893: (Sim:0h26m45s) 
CPU  0 inst:  400000000 cyc:  242433304 now IPC :1.46473: AVG IPC :1.64836: L2-Pf-HR :0.98601: L2-HR :0.92891: (Sim:0h26m50s) 
CPU  0 inst:  401000000 cyc:  243091735 now IPC :1.51876: AVG IPC :1.64800: L2-Pf-HR :0.98595: L2-HR :0.92877: (Sim:0h26m55s) 
CPU  0 inst:  402000000 cyc:  243709226 now IPC :1.61946: AVG IPC :1.64793: L2-Pf-HR :0.98594: L2-HR :0.92877: (Sim:0h26m59s) 
CPU  0 inst:  403000001 cyc:  244395868 now IPC :1.45636: AVG IPC :1.64739: L2-Pf-HR :0.98591: L2-HR :0.92869: (Sim:0h27m4s) 
CPU  0 inst:  404000000 cyc:  245013974 now IPC :1.61784: AVG IPC :1.64732: L2-Pf-HR :0.98592: L2-HR :0.92871: (Sim:0h27m7s) 
CPU  0 inst:  405000003 cyc:  245618603 now IPC :1.65391: AVG IPC :1.64733: L2-Pf-HR :0.98593: L2-HR :0.92872: (Sim:0h27m11s) 
CPU  0 inst:  406000001 cyc:  246237474 now IPC :1.61584: AVG IPC :1.64725: L2-Pf-HR :0.98591: L2-HR :0.92866: (Sim:0h27m15s) 
CPU  0 inst:  407000001 cyc:  246829018 now IPC :1.69049: AVG IPC :1.64736: L2-Pf-HR :0.98592: L2-HR :0.92868: (Sim:0h27m19s) 
CPU  0 inst:  408000000 cyc:  247651285 now IPC :1.21615: AVG IPC :1.64592: L2-Pf-HR :0.98588: L2-HR :0.92856: (Sim:0h27m22s) 
CPU  0 inst:  409000000 cyc:  248206676 now IPC :1.80053: AVG IPC :1.64627: L2-Pf-HR :0.98588: L2-HR :0.92856: (Sim:0h27m25s) 
CPU  0 inst:  410000001 cyc:  248757076 now IPC :1.81686: AVG IPC :1.64665: L2-Pf-HR :0.98589: L2-HR :0.92859: (Sim:0h27m28s) 
CPU  0 inst:  411000000 cyc:  249303566 now IPC :1.82986: AVG IPC :1.64705: L2-Pf-HR :0.98590: L2-HR :0.92863: (Sim:0h27m31s) 
CPU  0 inst:  412000000 cyc:  249878805 now IPC :1.73841: AVG IPC :1.64726: L2-Pf-HR :0.98593: L2-HR :0.92871: (Sim:0h27m34s) 
CPU  0 inst:  413000003 cyc:  250428194 now IPC :1.82021: AVG IPC :1.64764: L2-Pf-HR :0.98593: L2-HR :0.92873: (Sim:0h27m37s) 
CPU  0 inst:  414000002 cyc:  250970641 now IPC :1.84350: AVG IPC :1.64807: L2-Pf-HR :0.98595: L2-HR :0.92879: (Sim:0h27m40s) 
CPU  0 inst:  415000001 cyc:  251611314 now IPC :1.56086: AVG IPC :1.64784: L2-Pf-HR :0.98596: L2-HR :0.92880: (Sim:0h27m44s) 
CPU  0 inst:  416000000 cyc:  252207564 now IPC :1.67715: AVG IPC :1.64791: L2-Pf-HR :0.98596: L2-HR :0.92881: (Sim:0h27m48s) 
CPU  0 inst:  417000001 cyc:  252748472 now IPC :1.84875: AVG IPC :1.64834: L2-Pf-HR :0.98597: L2-HR :0.92886: (Sim:0h27m53s) 
CPU  0 inst:  418000003 cyc:  253289786 now IPC :1.84736: AVG IPC :1.64877: L2-Pf-HR :0.98599: L2-HR :0.92892: (Sim:0h27m57s) 
CPU  0 inst:  419000001 cyc:  253828519 now IPC :1.85620: AVG IPC :1.64921: L2-Pf-HR :0.98600: L2-HR :0.92896: (Sim:0h28m2s) 
CPU  0 inst:  420000000 cyc:  254533669 now IPC :1.41814: AVG IPC :1.64857: L2-Pf-HR :0.98600: L2-HR :0.92893: (Sim:0h28m7s) 
CPU  0 inst:  421000002 cyc:  255190613 now IPC :1.52220: AVG IPC :1.64824: L2-Pf-HR :0.98595: L2-HR :0.92883: (Sim:0h28m11s) 
CPU  0 inst:  422000003 cyc:  255813220 now IPC :1.60615: AVG IPC :1.64814: L2-Pf-HR :0.98595: L2-HR :0.92883: (Sim:0h28m16s) 
CPU  0 inst:  423000001 cyc:  256504957 now IPC :1.44563: AVG IPC :1.64759: L2-Pf-HR :0.98593: L2-HR :0.92875: (Sim:0h28m20s) 
CPU  0 inst:  424000000 cyc:  257103548 now IPC :1.67059: AVG IPC :1.64765: L2-Pf-HR :0.98594: L2-HR :0.92877: (Sim:0h28m23s) 
CPU  0 inst:  425000002 cyc:  257687756 now IPC :1.71172: AVG IPC :1.64779: L2-Pf-HR :0.98594: L2-HR :0.92877: (Sim:0h28m27s) 
CPU  0 inst:  426000003 cyc:  258309546 now IPC :1.60826: AVG IPC :1.64770: L2-Pf-HR :0.98592: L2-HR :0.92871: (Sim:0h28m31s) 
CPU  0 inst:  427000000 cyc:  258898219 now IPC :1.69873: AVG IPC :1.64781: L2-Pf-HR :0.98593: L2-HR :0.92874: (Sim:0h28m36s) 
CPU  0 inst:  428000000 cyc:  259682805 now IPC :1.27456: AVG IPC :1.64668: L2-Pf-HR :0.98588: L2-HR :0.92862: (Sim:0h28m40s) 
CPU  0 inst:  429000003 cyc:  260276523 now IPC :1.68431: AVG IPC :1.64677: L2-Pf-HR :0.98589: L2-HR :0.92866: (Sim:0h28m44s) 
CPU  0 inst:  430000002 cyc:  260897038 now IPC :1.61156: AVG IPC :1.64668: L2-Pf-HR :0.98590: L2-HR :0.92869: (Sim:0h28m49s) 
CPU  0 inst:  431000001 cyc:  261443919 now IPC :1.82855: AVG IPC :1.64707: L2-Pf-HR :0.98591: L2-HR :0.92873: (Sim:0h28m54s) 
CPU  0 inst:  432000000 cyc:  261987640 now IPC :1.83918: AVG IPC :1.64747: L2-Pf-HR :0.98594: L2-HR :0.92880: (Sim:0h28m58s) 
CPU  0 inst:  433000002 cyc:  262536910 now IPC :1.82060: AVG IPC :1.64783: L2-Pf-HR :0.98594: L2-HR :0.92882: (Sim:0h29m1s) 
CPU  0 inst:  434000002 cyc:  263080366 now IPC :1.84008: AVG IPC :1.64823: L2-Pf-HR :0.98596: L2-HR :0.92888: (Sim:0h29m5s) 
CPU  0 inst:  435000001 cyc:  263713717 now IPC :1.57890: AVG IPC :1.64806: L2-Pf-HR :0.98596: L2-HR :0.92889: (Sim:0h29m10s) 
CPU  0 inst:  436000000 cyc:  264308927 now IPC :1.68008: AVG IPC :1.64813: L2-Pf-HR :0.98597: L2-HR :0.92890: (Sim:0h29m14s) 
CPU  0 inst:  437000000 cyc:  264850410 now IPC :1.84678: AVG IPC :1.64854: L2-Pf-HR :0.98599: L2-HR :0.92895: (Sim:0h29m18s) 
CPU  0 inst:  438000001 cyc:  265392415 now IPC :1.84500: AVG IPC :1.64894: L2-Pf-HR :0.98600: L2-HR :0.92900: (Sim:0h29m22s) 
CPU  0 inst:  439000000 cyc:  265933823 now IPC :1.84703: AVG IPC :1.64935: L2-Pf-HR :0.98602: L2-HR :0.92904: (Sim:0h29m27s) 
CPU  0 inst:  440000000 cyc:  266646775 now IPC :1.40262: AVG IPC :1.64869: L2-Pf-HR :0.98602: L2-HR :0.92901: (Sim:0h29m31s) 
CPU  0 inst:  441000001 cyc:  267297207 now IPC :1.53744: AVG IPC :1.64841: L2-Pf-HR :0.98597: L2-HR :0.92891: (Sim:0h29m35s) 
CPU  0 inst:  442000002 cyc:  267930438 now IPC :1.57920: AVG IPC :1.64825: L2-Pf-HR :0.98597: L2-HR :0.92891: (Sim:0h29m40s) 
CPU  0 inst:  443000002 cyc:  268639139 now IPC :1.41103: AVG IPC :1.64762: L2-Pf-HR :0.98594: L2-HR :0.92883: (Sim:0h29m44s) 
CPU  0 inst:  444000000 cyc:  269291941 now IPC :1.53185: AVG IPC :1.64734: L2-Pf-HR :0.98593: L2-HR :0.92882: (Sim:0h29m49s) 
CPU  0 inst:  445000000 cyc:  269948434 now IPC :1.52325: AVG IPC :1.64704: L2-Pf-HR :0.98593: L2-HR :0.92881: (Sim:0h29m53s) 
CPU  0 inst:  446000001 cyc:  270534539 now IPC :1.70618: AVG IPC :1.64717: L2-Pf-HR :0.98591: L2-HR :0.92876: (Sim:0h29m57s) 
CPU  0 inst:  447000003 cyc:  271100404 now IPC :1.76721: AVG IPC :1.64742: L2-Pf-HR :0.98592: L2-HR :0.92878: (Sim:0h30m2s) 
CPU  0 inst:  448000000 cyc:  271897917 now IPC :1.25389: AVG IPC :1.64626: L2-Pf-HR :0.98587: L2-HR :0.92865: (Sim:0h30m6s) 
CPU  0 inst:  449000001 cyc:  272451524 now IPC :1.80634: AVG IPC :1.64659: L2-Pf-HR :0.98588: L2-HR :0.92870: (Sim:0h30m9s) 
CPU  0 inst:  450000002 cyc:  273000934 now IPC :1.82014: AVG IPC :1.64694: L2-Pf-HR :0.98589: L2-HR :0.92873: (Sim:0h30m13s) 
CPU  0 inst:  451000000 cyc:  273550083 now IPC :1.82100: AVG IPC :1.64729: L2-Pf-HR :0.98590: L2-HR :0.92877: (Sim:0h30m18s) 
CPU  0 inst:  452000000 cyc:  274093089 now IPC :1.84160: AVG IPC :1.64767: L2-Pf-HR :0.98593: L2-HR :0.92883: (Sim:0h30m22s) 
CPU  0 inst:  453000000 cyc:  274644165 now IPC :1.81463: AVG IPC :1.64801: L2-Pf-HR :0.98593: L2-HR :0.92885: (Sim:0h30m26s) 
CPU  0 inst:  454000001 cyc:  275184921 now IPC :1.84926: AVG IPC :1.64841: L2-Pf-HR :0.98595: L2-HR :0.92890: (Sim:0h30m31s) 
CPU  0 inst:  455000001 cyc:  275825268 now IPC :1.56165: AVG IPC :1.64820: L2-Pf-HR :0.98594: L2-HR :0.92889: (Sim:0h30m35s) 
CPU  0 inst:  456000000 cyc:  276412386 now IPC :1.70323: AVG IPC :1.64832: L2-Pf-HR :0.98592: L2-HR :0.92887: (Sim:0h30m39s) 
CPU  0 inst:  457000002 cyc:  276955161 now IPC :1.84239: AVG IPC :1.64870: L2-Pf-HR :0.98594: L2-HR :0.92892: (Sim:0h30m43s) 
CPU  0 inst:  458000000 cyc:  277498179 now IPC :1.84156: AVG IPC :1.64908: L2-Pf-HR :0.98596: L2-HR :0.92897: (Sim:0h30m46s) 
CPU  0 inst:  459000003 cyc:  278040323 now IPC :1.84453: AVG IPC :1.64946: L2-Pf-HR :0.98598: L2-HR :0.92901: (Sim:0h30m49s) 
CPU  0 inst:  460000000 cyc:  278735570 now IPC :1.43833: AVG IPC :1.64894: L2-Pf-HR :0.98598: L2-HR :0.92900: (Sim:0h30m52s) 
CPU  0 inst:  461000001 cyc:  279380884 now IPC :1.54963: AVG IPC :1.64871: L2-Pf-HR :0.98592: L2-HR :0.92888: (Sim:0h30m56s) 
CPU  0 inst:  462000001 cyc:  280002553 now IPC :1.60857: AVG IPC :1.64862: L2-Pf-HR :0.98592: L2-HR :0.92888: (Sim:0h31m1s) 
CPU  0 inst:  463000001 cyc:  280710217 now IPC :1.41310: AVG IPC :1.64802: L2-Pf-HR :0.98590: L2-HR :0.92881: (Sim:0h31m5s) 
CPU  0 inst:  464000000 cyc:  281374753 now IPC :1.50481: AVG IPC :1.64768: L2-Pf-HR :0.98591: L2-HR :0.92882: (Sim:0h31m10s) 
CPU  0 inst:  465000003 cyc:  281998408 now IPC :1.60346: AVG IPC :1.64758: L2-Pf-HR :0.98591: L2-HR :0.92882: (Sim:0h31m14s) 
CPU  0 inst:  466000000 cyc:  282586556 now IPC :1.70025: AVG IPC :1.64769: L2-Pf-HR :0.98589: L2-HR :0.92878: (Sim:0h31m18s) 
CPU  0 inst:  467000000 cyc:  283176098 now IPC :1.69623: AVG IPC :1.64779: L2-Pf-HR :0.98590: L2-HR :0.92880: (Sim:0h31m21s) 
CPU  0 inst:  468000000 cyc:  283974303 now IPC :1.25281: AVG IPC :1.64668: L2-Pf-HR :0.98585: L2-HR :0.92868: (Sim:0h31m25s) 
CPU  0 inst:  469000000 cyc:  284561160 now IPC :1.70399: AVG IPC :1.64680: L2-Pf-HR :0.98587: L2-HR :0.92872: (Sim:0h31m29s) 
CPU  0 inst:  470000002 cyc:  285148032 now IPC :1.70395: AVG IPC :1.64692: L2-Pf-HR :0.98587: L2-HR :0.92874: (Sim:0h31m33s) 
CPU  0 inst:  471000003 cyc:  285698949 now IPC :1.81516: AVG IPC :1.64724: L2-Pf-HR :0.98588: L2-HR :0.92878: (Sim:0h31m38s) 
CPU  0 inst:  472000000 cyc:  286241985 now IPC :1.84149: AVG IPC :1.64761: L2-Pf-HR :0.98591: L2-HR :0.92885: (Sim:0h31m42s) 
CPU  0 inst:  473000003 cyc:  286794727 now IPC :1.80917: AVG IPC :1.64793: L2-Pf-HR :0.98591: L2-HR :0.92887: (Sim:0h31m46s) 
CPU  0 inst:  474000002 cyc:  287335652 now IPC :1.84868: AVG IPC :1.64830: L2-Pf-HR :0.98592: L2-HR :0.92892: (Sim:0h31m50s) 
CPU  0 inst:  475000001 cyc:  287987803 now IPC :1.53339: AVG IPC :1.64804: L2-Pf-HR :0.98591: L2-HR :0.92890: (Sim:0h31m55s) 
CPU  0 inst:  476000000 cyc:  288571256 now IPC :1.71393: AVG IPC :1.64818: L2-Pf-HR :0.98590: L2-HR :0.92887: (Sim:0h31m59s) 
CPU  0 inst:  477000000 cyc:  289111835 now IPC :1.84987: AVG IPC :1.64856: L2-Pf-HR :0.98591: L2-HR :0.92892: (Sim:0h32m3s) 
CPU  0 inst:  478000000 cyc:  289654504 now IPC :1.84274: AVG IPC :1.64892: L2-Pf-HR :0.98593: L2-HR :0.92896: (Sim:0h32m7s) 
CPU  0 inst:  479000001 cyc:  290195583 now IPC :1.84816: AVG IPC :1.64929: L2-Pf-HR :0.98595: L2-HR :0.92901: (Sim:0h32m12s) 
CPU  0 inst:  480000000 cyc:  290894745 now IPC :1.43028: AVG IPC :1.64876: L2-Pf-HR :0.98595: L2-HR :0.92899: (Sim:0h32m16s) 
CPU  0 inst:  481000003 cyc:  291546420 now IPC :1.53451: AVG IPC :1.64851: L2-Pf-HR :0.98590: L2-HR :0.92889: (Sim:0h32m21s) 
CPU  0 inst:  482000000 cyc:  292164840 now IPC :1.61702: AVG IPC :1.64844: L2-Pf-HR :0.98590: L2-HR :0.92889: (Sim:0h32m25s) 
CPU  0 inst:  483000002 cyc:  292853304 now IPC :1.45251: AVG IPC :1.64798: L2-Pf-HR :0.98588: L2-HR :0.92883: (Sim:0h32m29s) 
CPU  0 inst:  484000000 cyc:  293467462 now IPC :1.62824: AVG IPC :1.64794: L2-Pf-HR :0.98589: L2-HR :0.92884: (Sim:0h32m34s) 
CPU  0 inst:  485000001 cyc:  294065262 now IPC :1.67280: AVG IPC :1.64799: L2-Pf-HR :0.98588: L2-HR :0.92884: (Sim:0h32m38s) 
CPU  0 inst:  486000002 cyc:  294670745 now IPC :1.65158: AVG IPC :1.64800: L2-Pf-HR :0.98586: L2-HR :0.92879: (Sim:0h32m43s) 
CPU  0 inst:  487000001 cyc:  295268748 now IPC :1.67223: AVG IPC :1.64805: L2-Pf-HR :0.98587: L2-HR :0.92880: (Sim:0h32m47s) 
CPU  0 inst:  488000000 cyc:  296062007 now IPC :1.26062: AVG IPC :1.64700: L2-Pf-HR :0.98582: L2-HR :0.92869: (Sim:0h32m51s) 
CPU  0 inst:  489000000 cyc:  296655770 now IPC :1.68417: AVG IPC :1.64708: L2-Pf-HR :0.98584: L2-HR :0.92873: (Sim:0h32m56s) 
CPU  0 inst:  490000001 cyc:  297243937 now IPC :1.70020: AVG IPC :1.64718: L2-Pf-HR :0.98584: L2-HR :0.92875: (Sim:0h32m59s) 
CPU  0 inst:  491000003 cyc:  297793612 now IPC :1.81926: AVG IPC :1.64750: L2-Pf-HR :0.98586: L2-HR :0.92879: (Sim:0h33m2s) 
CPU  0 inst:  492000000 cyc:  298337492 now IPC :1.83864: AVG IPC :1.64785: L2-Pf-HR :0.98588: L2-HR :0.92885: (Sim:0h33m5s) 
CPU  0 inst:  493000001 cyc:  298887586 now IPC :1.81787: AVG IPC :1.64817: L2-Pf-HR :0.98588: L2-HR :0.92887: (Sim:0h33m8s) 
CPU  0 inst:  494000003 cyc:  299430028 now IPC :1.84352: AVG IPC :1.64852: L2-Pf-HR :0.98590: L2-HR :0.92892: (Sim:0h33m11s) 
CPU  0 inst:  495000000 cyc:  300077107 now IPC :1.54540: AVG IPC :1.64830: L2-Pf-HR :0.98591: L2-HR :0.92893: (Sim:0h33m15s) 
CPU  0 inst:  496000000 cyc:  300655938 now IPC :1.72762: AVG IPC :1.64845: L2-Pf-HR :0.98590: L2-HR :0.92893: (Sim:0h33m18s) 
CPU  0 inst:  497000000 cyc:  301194714 now IPC :1.85606: AVG IPC :1.64882: L2-Pf-HR :0.98591: L2-HR :0.92897: (Sim:0h33m22s) 
CPU  0 inst:  498000001 cyc:  301734812 now IPC :1.85152: AVG IPC :1.64919: L2-Pf-HR :0.98593: L2-HR :0.92901: (Sim:0h33m27s) 
CPU  0 inst:  499000001 cyc:  302274505 now IPC :1.85291: AVG IPC :1.64955: L2-Pf-HR :0.98595: L2-HR :0.92905: (Sim:0h33m31s) 
CPU  0 inst:  500000000 cyc:  303016341 now IPC :1.34801: AVG IPC :1.64881: L2-Pf-HR :0.98595: L2-HR :0.92904: (Sim:0h33m35s) 
CPU  0 inst:  501000000 cyc:  303654720 now IPC :1.56647: AVG IPC :1.64864: L2-Pf-HR :0.98590: L2-HR :0.92894: (Sim:0h33m39s) 
CPU  0 inst:  502000002 cyc:  304293613 now IPC :1.56521: AVG IPC :1.64846: L2-Pf-HR :0.98590: L2-HR :0.92894: (Sim:0h33m44s) 
CPU  0 inst:  503000002 cyc:  304983866 now IPC :1.44874: AVG IPC :1.64801: L2-Pf-HR :0.98588: L2-HR :0.92889: (Sim:0h33m48s) 
CPU  0 inst:  504000000 cyc:  305614015 now IPC :1.58692: AVG IPC :1.64788: L2-Pf-HR :0.98589: L2-HR :0.92890: (Sim:0h33m53s) 
CPU  0 inst:  505000000 cyc:  306245634 now IPC :1.58323: AVG IPC :1.64775: L2-Pf-HR :0.98590: L2-HR :0.92890: (Sim:0h33m57s) 
CPU  0 inst:  506000002 cyc:  306829689 now IPC :1.71217: AVG IPC :1.64787: L2-Pf-HR :0.98587: L2-HR :0.92885: (Sim:0h34m2s) 
CPU  0 inst:  507000001 cyc:  307411358 now IPC :1.71919: AVG IPC :1.64801: L2-Pf-HR :0.98588: L2-HR :0.92887: (Sim:0h34m6s) 
CPU  0 inst:  508000000 cyc:  308211378 now IPC :1.24997: AVG IPC :1.64697: L2-Pf-HR :0.98584: L2-HR :0.92876: (Sim:0h34m10s) 
CPU  0 inst:  509000001 cyc:  308766621 now IPC :1.80102: AVG IPC :1.64725: L2-Pf-HR :0.98585: L2-HR :0.92880: (Sim:0h34m15s) 
CPU  0 inst:  510000003 cyc:  309316237 now IPC :1.81946: AVG IPC :1.64756: L2-Pf-HR :0.98586: L2-HR :0.92882: (Sim:0h34m19s) 
CPU  0 inst:  511000000 cyc:  309863642 now IPC :1.82680: AVG IPC :1.64787: L2-Pf-HR :0.98587: L2-HR :0.92886: (Sim:0h34m23s) 
CPU  0 inst:  512000000 cyc:  310405006 now IPC :1.84719: AVG IPC :1.64822: L2-Pf-HR :0.98589: L2-HR :0.92892: (Sim:0h34m28s) 
CPU  0 inst:  513000000 cyc:  310953716 now IPC :1.82246: AVG IPC :1.64853: L2-Pf-HR :0.98589: L2-HR :0.92893: (Sim:0h34m32s) 
CPU  0 inst:  514000002 cyc:  311494928 now IPC :1.84771: AVG IPC :1.64888: L2-Pf-HR :0.98590: L2-HR :0.92898: (Sim:0h34m36s) 
CPU  0 inst:  515000002 cyc:  312143827 now IPC :1.54107: AVG IPC :1.64865: L2-Pf-HR :0.98589: L2-HR :0.92897: (Sim:0h34m41s) 
CPU  0 inst:  516000000 cyc:  312719289 now IPC :1.73773: AVG IPC :1.64882: L2-Pf-HR :0.98589: L2-HR :0.92896: (Sim:0h34m45s) 
CPU  0 inst:  517000002 cyc:  313259444 now IPC :1.85132: AVG IPC :1.64917: L2-Pf-HR :0.98590: L2-HR :0.92900: (Sim:0h34m49s) 
CPU  0 inst:  518000002 cyc:  313801887 now IPC :1.84351: AVG IPC :1.64950: L2-Pf-HR :0.98592: L2-HR :0.92904: (Sim:0h34m53s) 
CPU  0 inst:  519000000 cyc:  314344656 now IPC :1.84240: AVG IPC :1.64984: L2-Pf-HR :0.98593: L2-HR :0.92908: (Sim:0h34m58s) 
CPU  0 inst:  520000000 cyc:  315051330 now IPC :1.41508: AVG IPC :1.64931: L2-Pf-HR :0.98593: L2-HR :0.92906: (Sim:0h35m2s) 
CPU  0 inst:  521000001 cyc:  315689276 now IPC :1.56753: AVG IPC :1.64915: L2-Pf-HR :0.98589: L2-HR :0.92896: (Sim:0h35m6s) 
CPU  0 inst:  522000000 cyc:  316318108 now IPC :1.59025: AVG IPC :1.64903: L2-Pf-HR :0.98589: L2-HR :0.92896: (Sim:0h35m11s) 
CPU  0 inst:  523000000 cyc:  316998716 now IPC :1.46927: AVG IPC :1.64864: L2-Pf-HR :0.98587: L2-HR :0.92891: (Sim:0h35m15s) 
CPU  0 inst:  524000000 cyc:  317646924 now IPC :1.54271: AVG IPC :1.64842: L2-Pf-HR :0.98587: L2-HR :0.92892: (Sim:0h35m20s) 
CPU  0 inst:  525000002 cyc:  318220841 now IPC :1.74242: AVG IPC :1.64859: L2-Pf-HR :0.98587: L2-HR :0.92891: (Sim:0h35m23s) 
CPU  0 inst:  526000003 cyc:  318815965 now IPC :1.68032: AVG IPC :1.64865: L2-Pf-HR :0.98585: L2-HR :0.92887: (Sim:0h35m27s) 
CPU  0 inst:  527000001 cyc:  319411739 now IPC :1.67849: AVG IPC :1.64871: L2-Pf-HR :0.98586: L2-HR :0.92888: (Sim:0h35m32s) 
CPU  0 inst:  528000000 cyc:  320228797 now IPC :1.22390: AVG IPC :1.64762: L2-Pf-HR :0.98582: L2-HR :0.92878: (Sim:0h35m37s) 
CPU  0 inst:  529000001 cyc:  320778879 now IPC :1.81791: AVG IPC :1.64791: L2-Pf-HR :0.98582: L2-HR :0.92880: (Sim:0h35m41s) 
CPU  0 inst:  530000003 cyc:  321326378 now IPC :1.82649: AVG IPC :1.64822: L2-Pf-HR :0.98583: L2-HR :0.92882: (Sim:0h35m45s) 
CPU  0 inst:  531000000 cyc:  321874580 now IPC :1.82414: AVG IPC :1.64852: L2-Pf-HR :0.98584: L2-HR :0.92886: (Sim:0h35m50s) 
CPU  0 inst:  532000000 cyc:  322418965 now IPC :1.83694: AVG IPC :1.64884: L2-Pf-HR :0.98586: L2-HR :0.92891: (Sim:0h35m54s) 
CPU  0 inst:  533000000 cyc:  322968861 now IPC :1.81853: AVG IPC :1.64913: L2-Pf-HR :0.98586: L2-HR :0.92893: (Sim:0h35m58s) 
CPU  0 inst:  534000002 cyc:  323510480 now IPC :1.84632: AVG IPC :1.64946: L2-Pf-HR :0.98588: L2-HR :0.92897: (Sim:0h36m2s) 
CPU  0 inst:  535000001 cyc:  324168993 now IPC :1.51857: AVG IPC :1.64919: L2-Pf-HR :0.98588: L2-HR :0.92898: (Sim:0h36m7s) 
CPU  0 inst:  536000000 cyc:  324743339 now IPC :1.74111: AVG IPC :1.64936: L2-Pf-HR :0.98589: L2-HR :0.92899: (Sim:0h36m11s) 
CPU  0 inst:  537000001 cyc:  325283718 now IPC :1.85055: AVG IPC :1.64969: L2-Pf-HR :0.98590: L2-HR :0.92903: (Sim:0h36m15s) 
CPU  0 inst:  538000002 cyc:  325823719 now IPC :1.85185: AVG IPC :1.65003: L2-Pf-HR :0.98591: L2-HR :0.92907: (Sim:0h36m19s) 
CPU  0 inst:  539000003 cyc:  326363248 now IPC :1.85347: AVG IPC :1.65037: L2-Pf-HR :0.98593: L2-HR :0.92911: (Sim:0h36m23s) 
CPU  0 inst:  540000000 cyc:  327076252 now IPC :1.40251: AVG IPC :1.64982: L2-Pf-HR :0.98593: L2-HR :0.92909: (Sim:0h36m27s) 
CPU  0 inst:  541000000 cyc:  327732079 now IPC :1.52479: AVG IPC :1.64957: L2-Pf-HR :0.98589: L2-HR :0.92900: (Sim:0h36m30s) 
CPU  0 inst:  542000002 cyc:  328364300 now IPC :1.58173: AVG IPC :1.64944: L2-Pf-HR :0.98588: L2-HR :0.92898: (Sim:0h36m33s) 
CPU  0 inst:  543000003 cyc:  329049759 now IPC :1.45888: AVG IPC :1.64904: L2-Pf-HR :0.98586: L2-HR :0.92890: (Sim:0h36m37s) 
CPU  0 inst:  544000000 cyc:  329671592 now IPC :1.60814: AVG IPC :1.64897: L2-Pf-HR :0.98586: L2-HR :0.92888: (Sim:0h36m41s) 
CPU  0 inst:  545000001 cyc:  330270395 now IPC :1.67000: AVG IPC :1.64900: L2-Pf-HR :0.98585: L2-HR :0.92886: (Sim:0h36m46s) 
CPU  0 inst:  546000002 cyc:  330891542 now IPC :1.60993: AVG IPC :1.64893: L2-Pf-HR :0.98583: L2-HR :0.92879: (Sim:0h36m50s) 
CPU  0 inst:  547000002 cyc:  331492800 now IPC :1.66318: AVG IPC :1.64896: L2-Pf-HR :0.98583: L2-HR :0.92878: (Sim:0h36m54s) 
CPU  0 inst:  548000000 cyc:  332292086 now IPC :1.25111: AVG IPC :1.64800: L2-Pf-HR :0.98578: L2-HR :0.92867: (Sim:0h36m59s) 
CPU  0 inst:  549000003 cyc:  332868377 now IPC :1.73524: AVG IPC :1.64815: L2-Pf-HR :0.98579: L2-HR :0.92869: (Sim:0h37m3s) 
CPU  0 inst:  550000001 cyc:  333453248 now IPC :1.70978: AVG IPC :1.64826: L2-Pf-HR :0.98579: L2-HR :0.92871: (Sim:0h37m7s) 
CPU  0 inst:  551000003 cyc:  333998079 now IPC :1.83544: AVG IPC :1.64856: L2-Pf-HR :0.98580: L2-HR :0.92874: (Sim:0h37m11s) 
CPU  0 inst:  552000000 cyc:  334542792 now IPC :1.83582: AVG IPC :1.64887: L2-Pf-HR :0.98582: L2-HR :0.92880: (Sim:0h37m15s) 
CPU  0 inst:  553000001 cyc:  335092675 now IPC :1.81857: AVG IPC :1.64915: L2-Pf-HR :0.98582: L2-HR :0.92881: (Sim:0h37m19s) 
CPU  0 inst:  554000003 cyc:  335632866 now IPC :1.85120: AVG IPC :1.64947: L2-Pf-HR :0.98583: L2-HR :0.92886: (Sim:0h37m24s) 
CPU  0 inst:  555000001 cyc:  336294742 now IPC :1.51085: AVG IPC :1.64920: L2-Pf-HR :0.98584: L2-HR :0.92886: (Sim:0h37m28s) 
CPU  0 inst:  556000000 cyc:  336865012 now IPC :1.75355: AVG IPC :1.64938: L2-Pf-HR :0.98584: L2-HR :0.92888: (Sim:0h37m33s) 
CPU  0 inst:  557000003 cyc:  337405146 now IPC :1.85140: AVG IPC :1.64970: L2-Pf-HR :0.98586: L2-HR :0.92891: (Sim:0h37m37s) 
CPU  0 inst:  558000000 cyc:  337947174 now IPC :1.84492: AVG IPC :1.65002: L2-Pf-HR :0.98587: L2-HR :0.92895: (Sim:0h37m41s) 
CPU  0 inst:  559000003 cyc:  338486535 now IPC :1.85405: AVG IPC :1.65034: L2-Pf-HR :0.98588: L2-HR :0.92898: (Sim:0h37m46s) 
CPU  0 inst:  560000000 cyc:  339224527 now IPC :1.35502: AVG IPC :1.64970: L2-Pf-HR :0.98587: L2-HR :0.92895: (Sim:0h37m51s) 
CPU  0 inst:  561000003 cyc:  339878545 now IPC :1.52901: AVG IPC :1.64946: L2-Pf-HR :0.98584: L2-HR :0.92887: (Sim:0h37m55s) 
CPU  0 inst:  562000002 cyc:  340502758 now IPC :1.60202: AVG IPC :1.64938: L2-Pf-HR :0.98584: L2-HR :0.92888: (Sim:0h38m0s) 
CPU  0 inst:  563000001 cyc:  341186995 now IPC :1.46148: AVG IPC :1.64900: L2-Pf-HR :0.98582: L2-HR :0.92883: (Sim:0h38m4s) 
CPU  0 inst:  564000000 cyc:  341843805 now IPC :1.52251: AVG IPC :1.64876: L2-Pf-HR :0.98583: L2-HR :0.92883: (Sim:0h38m8s) 
CPU  0 inst:  565000003 cyc:  342478640 now IPC :1.57522: AVG IPC :1.64862: L2-Pf-HR :0.98582: L2-HR :0.92883: (Sim:0h38m12s) 
CPU  0 inst:  566000000 cyc:  343071718 now IPC :1.68611: AVG IPC :1.64868: L2-Pf-HR :0.98581: L2-HR :0.92879: (Sim:0h38m17s) 
CPU  0 inst:  567000002 cyc:  343636920 now IPC :1.76928: AVG IPC :1.64888: L2-Pf-HR :0.98581: L2-HR :0.92880: (Sim:0h38m21s) 
CPU  0 inst:  568000000 cyc:  344428383 now IPC :1.26348: AVG IPC :1.64799: L2-Pf-HR :0.98577: L2-HR :0.92870: (Sim:0h38m26s) 
CPU  0 inst:  569000001 cyc:  345002204 now IPC :1.74271: AVG IPC :1.64815: L2-Pf-HR :0.98579: L2-HR :0.92874: (Sim:0h38m30s) 
CPU  0 inst:  570000003 cyc:  345552535 now IPC :1.81709: AVG IPC :1.64842: L2-Pf-HR :0.98579: L2-HR :0.92876: (Sim:0h38m34s) 
CPU  0 inst:  571000001 cyc:  346101236 now IPC :1.82248: AVG IPC :1.64870: L2-Pf-HR :0.98580: L2-HR :0.92879: (Sim:0h38m39s) 
CPU  0 inst:  572000000 cyc:  346647513 now IPC :1.83057: AVG IPC :1.64899: L2-Pf-HR :0.98582: L2-HR :0.92884: (Sim:0h38m43s) 
CPU  0 inst:  573000000 cyc:  347196876 now IPC :1.82029: AVG IPC :1.64926: L2-Pf-HR :0.98582: L2-HR :0.92885: (Sim:0h38m47s) 
CPU  0 inst:  574000003 cyc:  347737182 now IPC :1.85081: AVG IPC :1.64957: L2-Pf-HR :0.98584: L2-HR :0.92890: (Sim:0h38m52s) 
CPU  0 inst:  575000002 cyc:  348403665 now IPC :1.50041: AVG IPC :1.64929: L2-Pf-HR :0.98584: L2-HR :0.92891: (Sim:0h38m56s) 
CPU  0 inst:  576000000 cyc:  348965114 now IPC :1.78110: AVG IPC :1.64950: L2-Pf-HR :0.98583: L2-HR :0.92890: (Sim:0h39m0s) 
CPU  0 inst:  577000002 cyc:  349505651 now IPC :1.85002: AVG IPC :1.64981: L2-Pf-HR :0.98585: L2-HR :0.92894: (Sim:0h39m5s) 
CPU  0 inst:  578000000 cyc:  350046307 now IPC :1.84960: AVG IPC :1.65012: L2-Pf-HR :0.98586: L2-HR :0.92897: (Sim:0h39m9s) 
CPU  0 inst:  579000000 cyc:  350586557 now IPC :1.85099: AVG IPC :1.65043: L2-Pf-HR :0.98587: L2-HR :0.92900: (Sim:0h39m13s) 
CPU  0 inst:  580000000 cyc:  351328846 now IPC :1.34718: AVG IPC :1.64979: L2-Pf-HR :0.98586: L2-HR :0.92897: (Sim:0h39m18s) 
CPU  0 inst:  581000001 cyc:  351957509 now IPC :1.59068: AVG IPC :1.64968: L2-Pf-HR :0.98582: L2-HR :0.92889: (Sim:0h39m22s) 
CPU  0 inst:  582000000 cyc:  352587844 now IPC :1.58646: AVG IPC :1.64957: L2-Pf-HR :0.98582: L2-HR :0.92889: (Sim:0h39m26s) 
CPU  0 inst:  583000000 cyc:  353266016 now IPC :1.47455: AVG IPC :1.64923: L2-Pf-HR :0.98581: L2-HR :0.92884: (Sim:0h39m31s) 
CPU  0 inst:  584000000 cyc:  353887371 now IPC :1.60939: AVG IPC :1.64916: L2-Pf-HR :0.98581: L2-HR :0.92885: (Sim:0h39m35s) 
CPU  0 inst:  585000002 cyc:  354496029 now IPC :1.64296: AVG IPC :1.64915: L2-Pf-HR :0.98581: L2-HR :0.92884: (Sim:0h39m40s) 
CPU  0 inst:  586000000 cyc:  355077815 now IPC :1.71884: AVG IPC :1.64927: L2-Pf-HR :0.98580: L2-HR :0.92881: (Sim:0h39m43s) 
CPU  0 inst:  587000003 cyc:  355653125 now IPC :1.73820: AVG IPC :1.64941: L2-Pf-HR :0.98579: L2-HR :0.92880: (Sim:0h39m46s) 
CPU  0 inst:  588000000 cyc:  356463481 now IPC :1.23402: AVG IPC :1.64846: L2-Pf-HR :0.98576: L2-HR :0.92871: (Sim:0h39m51s) 
CPU  0 inst:  589000003 cyc:  357066065 now IPC :1.65952: AVG IPC :1.64848: L2-Pf-HR :0.98577: L2-HR :0.92875: (Sim:0h39m55s) 
CPU  0 inst:  590000002 cyc:  357651328 now IPC :1.70863: AVG IPC :1.64858: L2-Pf-HR :0.98578: L2-HR :0.92877: (Sim:0h39m59s) 
CPU  0 inst:  591000000 cyc:  358197060 now IPC :1.83240: AVG IPC :1.64886: L2-Pf-HR :0.98579: L2-HR :0.92880: (Sim:0h40m3s) 
CPU  0 inst:  592000000 cyc:  358741499 now IPC :1.83675: AVG IPC :1.64915: L2-Pf-HR :0.98580: L2-HR :0.92885: (Sim:0h40m7s) 
CPU  0 inst:  593000002 cyc:  359290534 now IPC :1.82138: AVG IPC :1.64941: L2-Pf-HR :0.98580: L2-HR :0.92887: (Sim:0h40m10s) 
CPU  0 inst:  594000001 cyc:  359831375 now IPC :1.84897: AVG IPC :1.64971: L2-Pf-HR :0.98582: L2-HR :0.92891: (Sim:0h40m13s) 
CPU  0 inst:  595000002 cyc:  360495971 now IPC :1.50468: AVG IPC :1.64944: L2-Pf-HR :0.98582: L2-HR :0.92892: (Sim:0h40m16s) 
CPU  0 inst:  596000000 cyc:  361055702 now IPC :1.78657: AVG IPC :1.64966: L2-Pf-HR :0.98582: L2-HR :0.92892: (Sim:0h40m19s) 
CPU  0 inst:  597000000 cyc:  361595977 now IPC :1.85091: AVG IPC :1.64996: L2-Pf-HR :0.98583: L2-HR :0.92896: (Sim:0h40m22s) 
CPU  0 inst:  598000001 cyc:  362139148 now IPC :1.84104: AVG IPC :1.65025: L2-Pf-HR :0.98585: L2-HR :0.92899: (Sim:0h40m25s) 
CPU  0 inst:  599000000 cyc:  362679413 now IPC :1.85094: AVG IPC :1.65055: L2-Pf-HR :0.98586: L2-HR :0.92903: (Sim:0h40m29s) 
CPU  0 inst:  600000000 cyc:  363407444 now IPC :1.37357: AVG IPC :1.64999: L2-Pf-HR :0.98586: L2-HR :0.92900: (Sim:0h40m33s) 
CPU  0 inst:  601000000 cyc:  364031871 now IPC :1.60147: AVG IPC :1.64991: L2-Pf-HR :0.98582: L2-HR :0.92892: (Sim:0h40m38s) 
CPU  0 inst:  602000002 cyc:  364645867 now IPC :1.62868: AVG IPC :1.64987: L2-Pf-HR :0.98582: L2-HR :0.92892: (Sim:0h40m41s) 
CPU  0 inst:  603000002 cyc:  365283004 now IPC :1.56952: AVG IPC :1.64973: L2-Pf-HR :0.98580: L2-HR :0.92887: (Sim:0h40m44s) 
CPU  0 inst:  604000000 cyc:  365882697 now IPC :1.66752: AVG IPC :1.64976: L2-Pf-HR :0.98580: L2-HR :0.92888: (Sim:0h40m47s) 
CPU  0 inst:  605000002 cyc:  366515314 now IPC :1.58074: AVG IPC :1.64964: L2-Pf-HR :0.98580: L2-HR :0.92887: (Sim:0h40m50s) 
CPU  0 inst:  606000002 cyc:  367110928 now IPC :1.67894: AVG IPC :1.64969: L2-Pf-HR :0.98579: L2-HR :0.92884: (Sim:0h40m54s) 
CPU  0 inst:  607000002 cyc:  367690731 now IPC :1.72472: AVG IPC :1.64981: L2-Pf-HR :0.98579: L2-HR :0.92885: (Sim:0h40m58s) 
CPU  0 inst:  608000000 cyc:  368484357 now IPC :1.26004: AVG IPC :1.64896: L2-Pf-HR :0.98575: L2-HR :0.92875: (Sim:0h41m2s) 
CPU  0 inst:  609000002 cyc:  369063364 now IPC :1.72710: AVG IPC :1.64909: L2-Pf-HR :0.98576: L2-HR :0.92878: (Sim:0h41m5s) 
CPU  0 inst:  610000001 cyc:  369646949 now IPC :1.71354: AVG IPC :1.64919: L2-Pf-HR :0.98576: L2-HR :0.92880: (Sim:0h41m8s) 
CPU  0 inst:  611000003 cyc:  370196998 now IPC :1.81802: AVG IPC :1.64944: L2-Pf-HR :0.98578: L2-HR :0.92883: (Sim:0h41m13s) 
CPU  0 inst:  612000000 cyc:  370742042 now IPC :1.83471: AVG IPC :1.64971: L2-Pf-HR :0.98579: L2-HR :0.92887: (Sim:0h41m16s) 
CPU  0 inst:  613000001 cyc:  371293355 now IPC :1.81385: AVG IPC :1.64996: L2-Pf-HR :0.98580: L2-HR :0.92888: (Sim:0h41m20s) 
CPU  0 inst:  614000000 cyc:  371832768 now IPC :1.85387: AVG IPC :1.65025: L2-Pf-HR :0.98581: L2-HR :0.92893: (Sim:0h41m24s) 
CPU  0 inst:  615000003 cyc:  372502656 now IPC :1.49279: AVG IPC :1.64997: L2-Pf-HR :0.98581: L2-HR :0.92893: (Sim:0h41m29s) 
CPU  0 inst:  616000000 cyc:  373060776 now IPC :1.79172: AVG IPC :1.65018: L2-Pf-HR :0.98582: L2-HR :0.92895: (Sim:0h41m33s) 
CPU  0 inst:  617000000 cyc:  373603281 now IPC :1.84330: AVG IPC :1.65046: L2-Pf-HR :0.98583: L2-HR :0.92898: (Sim:0h41m37s) 
CPU  0 inst:  618000001 cyc:  374164374 now IPC :1.78224: AVG IPC :1.65066: L2-Pf-HR :0.98584: L2-HR :0.92902: (Sim:0h41m41s) 
CPU  0 inst:  619000002 cyc:  374705403 now IPC :1.84833: AVG IPC :1.65095: L2-Pf-HR :0.98586: L2-HR :0.92905: (Sim:0h41m46s) 
CPU  0 inst:  620000000 cyc:  375431828 now IPC :1.37660: AVG IPC :1.65042: L2-Pf-HR :0.98585: L2-HR :0.92903: (Sim:0h41m51s) 
CPU  0 inst:  621000003 cyc:  376049252 now IPC :1.61964: AVG IPC :1.65037: L2-Pf-HR :0.98582: L2-HR :0.92896: (Sim:0h41m55s) 
CPU  0 inst:  622000003 cyc:  376675031 now IPC :1.59801: AVG IPC :1.65028: L2-Pf-HR :0.98582: L2-HR :0.92896: (Sim:0h41m59s) 
CPU  0 inst:  623000001 cyc:  377356240 now IPC :1.46798: AVG IPC :1.64995: L2-Pf-HR :0.98581: L2-HR :0.92892: (Sim:0h42m4s) 
CPU  0 inst:  624000000 cyc:  378018091 now IPC :1.51091: AVG IPC :1.64970: L2-Pf-HR :0.98582: L2-HR :0.92893: (Sim:0h42m8s) 
CPU  0 inst:  625000001 cyc:  378623865 now IPC :1.65078: AVG IPC :1.64971: L2-Pf-HR :0.98581: L2-HR :0.92892: (Sim:0h42m13s) 
[...]
CPU  0 inst: 1511000003 cyc: 1872260591 now IPC :1.45295: AVG IPC :0.80640: L2-Pf-HR :0.92605: L2-HR :0.81196: (Sim:1h59m46s) 
CPU  0 inst: 1512000000 cyc: 1873069358 now IPC :1.23645: AVG IPC :0.80659: L2-Pf-HR :0.92604: L2-HR :0.81194: (Sim:1h59m50s) 
CPU  0 inst: 1513000000 cyc: 1873745000 now IPC :1.48007: AVG IPC :0.80683: L2-Pf-HR :0.92599: L2-HR :0.81186: (Sim:1h59m53s) 
CPU  0 inst: 1514000003 cyc: 1874425673 now IPC :1.46914: AVG IPC :0.80707: L2-Pf-HR :0.92594: L2-HR :0.81179: (Sim:1h59m58s) 
CPU  0 inst: 1515000002 cyc: 1875121426 now IPC :1.43729: AVG IPC :0.80730: L2-Pf-HR :0.92590: L2-HR :0.81174: (Sim:2h0m2s) 
CPU  0 inst: 1516000000 cyc: 1875890545 now IPC :1.30019: AVG IPC :0.80751: L2-Pf-HR :0.92586: L2-HR :0.81167: (Sim:2h0m7s) 
CPU  0 inst: 1517000000 cyc: 1876517769 now IPC :1.59433: AVG IPC :0.80777: L2-Pf-HR :0.92581: L2-HR :0.81160: (Sim:2h0m11s) 
CPU  0 inst: 1518000000 cyc: 1877218634 now IPC :1.42681: AVG IPC :0.80800: L2-Pf-HR :0.92576: L2-HR :0.81152: (Sim:2h0m16s) 
CPU  0 inst: 1519000003 cyc: 1877894057 now IPC :1.48056: AVG IPC :0.80824: L2-Pf-HR :0.92572: L2-HR :0.81146: (Sim:2h0m21s) 
CPU  0 inst: 1520000000 cyc: 1878661151 now IPC :1.30362: AVG IPC :0.80844: L2-Pf-HR :0.92567: L2-HR :0.81139: (Sim:2h0m25s) 
CPU  0 inst: 1521000001 cyc: 1879267339 now IPC :1.64965: AVG IPC :0.80872: L2-Pf-HR :0.92563: L2-HR :0.81132: (Sim:2h0m30s) 
CPU  0 inst: 1522000001 cyc: 1879983718 now IPC :1.39591: AVG IPC :0.80894: L2-Pf-HR :0.92557: L2-HR :0.81123: (Sim:2h0m34s) 
CPU  0 inst: 1523000000 cyc: 1880660906 now IPC :1.47669: AVG IPC :0.80918: L2-Pf-HR :0.92553: L2-HR :0.81117: (Sim:2h0m39s) 
CPU  0 inst: 1524000000 cyc: 1881423357 now IPC :1.31156: AVG IPC :0.80938: L2-Pf-HR :0.92549: L2-HR :0.81111: (Sim:2h0m43s) 
CPU  0 inst: 1525000002 cyc: 1882022683 now IPC :1.66854: AVG IPC :0.80966: L2-Pf-HR :0.92545: L2-HR :0.81105: (Sim:2h0m47s) 
CPU  0 inst: 1526000003 cyc: 1882738569 now IPC :1.39687: AVG IPC :0.80988: L2-Pf-HR :0.92539: L2-HR :0.81095: (Sim:2h0m52s) 
CPU  0 inst: 1527000000 cyc: 1883396639 now IPC :1.51959: AVG IPC :0.81013: L2-Pf-HR :0.92535: L2-HR :0.81089: (Sim:2h0m56s) 
CPU  0 inst: 1528000000 cyc: 1884024988 now IPC :1.59147: AVG IPC :0.81039: L2-Pf-HR :0.92533: L2-HR :0.81086: (Sim:2h1m0s) 
CPU  0 inst: 1529000002 cyc: 1884734424 now IPC :1.40957: AVG IPC :0.81062: L2-Pf-HR :0.92526: L2-HR :0.81077: (Sim:2h1m5s) 
CPU  0 inst: 1530000001 cyc: 1885434584 now IPC :1.42824: AVG IPC :0.81085: L2-Pf-HR :0.92520: L2-HR :0.81068: (Sim:2h1m9s) 
CPU  0 inst: 1531000003 cyc: 1886038422 now IPC :1.65608: AVG IPC :0.81112: L2-Pf-HR :0.92517: L2-HR :0.81063: (Sim:2h1m13s) 
CPU  0 inst: 1532000000 cyc: 1886685162 now IPC :1.54621: AVG IPC :0.81137: L2-Pf-HR :0.92514: L2-HR :0.81060: (Sim:2h1m18s) 
CPU  0 inst: 1533000003 cyc: 1887427199 now IPC :1.34765: AVG IPC :0.81158: L2-Pf-HR :0.92517: L2-HR :0.81064: (Sim:2h1m22s) 
CPU  0 inst: 1534000000 cyc: 1888231522 now IPC :1.24328: AVG IPC :0.81176: L2-Pf-HR :0.92517: L2-HR :0.81065: (Sim:2h1m27s) 
CPU  0 inst: 1535000000 cyc: 1888857260 now IPC :1.59811: AVG IPC :0.81202: L2-Pf-HR :0.92513: L2-HR :0.81058: (Sim:2h1m31s) 
CPU  0 inst: 1536000000 cyc: 1889591901 now IPC :1.36121: AVG IPC :0.81224: L2-Pf-HR :0.92508: L2-HR :0.81050: (Sim:2h1m36s) 
CPU  0 inst: 1537000000 cyc: 1890293058 now IPC :1.42621: AVG IPC :0.81246: L2-Pf-HR :0.92504: L2-HR :0.81044: (Sim:2h1m40s) 
CPU  0 inst: 1538000001 cyc: 1891069902 now IPC :1.28726: AVG IPC :0.81266: L2-Pf-HR :0.92499: L2-HR :0.81038: (Sim:2h1m45s) 
CPU  0 inst: 1539000003 cyc: 1891674466 now IPC :1.65409: AVG IPC :0.81293: L2-Pf-HR :0.92495: L2-HR :0.81032: (Sim:2h1m49s) 
CPU  0 inst: 1540000000 cyc: 1892397313 now IPC :1.38341: AVG IPC :0.81315: L2-Pf-HR :0.92490: L2-HR :0.81022: (Sim:2h1m53s) 
CPU  0 inst: 1541000002 cyc: 1893075544 now IPC :1.47443: AVG IPC :0.81338: L2-Pf-HR :0.92486: L2-HR :0.81016: (Sim:2h1m58s) 
CPU  0 inst: 1542000003 cyc: 1893845183 now IPC :1.29931: AVG IPC :0.81358: L2-Pf-HR :0.92482: L2-HR :0.81011: (Sim:2h2m2s) 
CPU  0 inst: 1543000003 cyc: 1894449904 now IPC :1.65366: AVG IPC :0.81385: L2-Pf-HR :0.92477: L2-HR :0.81004: (Sim:2h2m6s) 
CPU  0 inst: 1544000000 cyc: 1895168955 now IPC :1.39072: AVG IPC :0.81407: L2-Pf-HR :0.92472: L2-HR :0.80995: (Sim:2h2m11s) 
CPU  0 inst: 1545000000 cyc: 1895822168 now IPC :1.53089: AVG IPC :0.81432: L2-Pf-HR :0.92469: L2-HR :0.80990: (Sim:2h2m15s) 
CPU  0 inst: 1546000001 cyc: 1896451465 now IPC :1.58908: AVG IPC :0.81457: L2-Pf-HR :0.92466: L2-HR :0.80987: (Sim:2h2m19s) 
CPU  0 inst: 1547000002 cyc: 1897215078 now IPC :1.30957: AVG IPC :0.81477: L2-Pf-HR :0.92460: L2-HR :0.80977: (Sim:2h2m24s) 
CPU  0 inst: 1548000000 cyc: 1897932098 now IPC :1.39466: AVG IPC :0.81499: L2-Pf-HR :0.92454: L2-HR :0.80967: (Sim:2h2m28s) 
CPU  0 inst: 1549000003 cyc: 1898534423 now IPC :1.66024: AVG IPC :0.81526: L2-Pf-HR :0.92451: L2-HR :0.80963: (Sim:2h2m32s) 
CPU  0 inst: 1550000000 cyc: 1899192277 now IPC :1.52009: AVG IPC :0.81550: L2-Pf-HR :0.92448: L2-HR :0.80959: (Sim:2h2m36s) 
CPU  0 inst: 1551000001 cyc: 1899929457 now IPC :1.35652: AVG IPC :0.81571: L2-Pf-HR :0.92443: L2-HR :0.80950: (Sim:2h2m41s) 
CPU  0 inst: 1552000000 cyc: 1900641408 now IPC :1.40459: AVG IPC :0.81594: L2-Pf-HR :0.92436: L2-HR :0.80940: (Sim:2h2m45s) 
CPU  0 inst: 1553000003 cyc: 1901226932 now IPC :1.70788: AVG IPC :0.81621: L2-Pf-HR :0.92434: L2-HR :0.80936: (Sim:2h2m49s) 
CPU  0 inst: 1554000000 cyc: 1901892488 now IPC :1.50250: AVG IPC :0.81645: L2-Pf-HR :0.92431: L2-HR :0.80932: (Sim:2h2m54s) 
CPU  0 inst: 1555000000 cyc: 1902632495 now IPC :1.35134: AVG IPC :0.81666: L2-Pf-HR :0.92433: L2-HR :0.80934: (Sim:2h2m58s) 
CPU  0 inst: 1556000000 cyc: 1903434780 now IPC :1.24644: AVG IPC :0.81684: L2-Pf-HR :0.92434: L2-HR :0.80938: (Sim:2h3m3s) 
CPU  0 inst: 1557000001 cyc: 1904045142 now IPC :1.63837: AVG IPC :0.81710: L2-Pf-HR :0.92430: L2-HR :0.80932: (Sim:2h3m7s) 
CPU  0 inst: 1558000001 cyc: 1904793555 now IPC :1.33616: AVG IPC :0.81731: L2-Pf-HR :0.92425: L2-HR :0.80923: (Sim:2h3m11s) 
CPU  0 inst: 1559000001 cyc: 1905492013 now IPC :1.43173: AVG IPC :0.81753: L2-Pf-HR :0.92421: L2-HR :0.80917: (Sim:2h3m16s) 
CPU  0 inst: 1560000000 cyc: 1906262678 now IPC :1.29758: AVG IPC :0.81773: L2-Pf-HR :0.92417: L2-HR :0.80911: (Sim:2h3m20s) 
CPU  0 inst: 1561000001 cyc: 1906872868 now IPC :1.63884: AVG IPC :0.81799: L2-Pf-HR :0.92413: L2-HR :0.80905: (Sim:2h3m24s) 
CPU  0 inst: 1562000002 cyc: 1907594918 now IPC :1.38495: AVG IPC :0.81820: L2-Pf-HR :0.92408: L2-HR :0.80896: (Sim:2h3m29s) 
CPU  0 inst: 1563000002 cyc: 1908241560 now IPC :1.54645: AVG IPC :0.81845: L2-Pf-HR :0.92405: L2-HR :0.80892: (Sim:2h3m33s) 
CPU  0 inst: 1564000000 cyc: 1908876129 now IPC :1.57587: AVG IPC :0.81870: L2-Pf-HR :0.92403: L2-HR :0.80889: (Sim:2h3m37s) 
CPU  0 inst: 1565000002 cyc: 1909645098 now IPC :1.30045: AVG IPC :0.81890: L2-Pf-HR :0.92397: L2-HR :0.80879: (Sim:2h3m42s) 
CPU  0 inst: 1566000002 cyc: 1910362007 now IPC :1.39488: AVG IPC :0.81911: L2-Pf-HR :0.92391: L2-HR :0.80869: (Sim:2h3m46s) 
CPU  0 inst: 1567000000 cyc: 1910965164 now IPC :1.65794: AVG IPC :0.81938: L2-Pf-HR :0.92388: L2-HR :0.80865: (Sim:2h3m50s) 
CPU  0 inst: 1568000000 cyc: 1911623568 now IPC :1.51882: AVG IPC :0.81962: L2-Pf-HR :0.92385: L2-HR :0.80861: (Sim:2h3m55s) 
CPU  0 inst: 1569000003 cyc: 1912399063 now IPC :1.28950: AVG IPC :0.81981: L2-Pf-HR :0.92379: L2-HR :0.80852: (Sim:2h3m59s) 
CPU  0 inst: 1570000001 cyc: 1913126719 now IPC :1.37427: AVG IPC :0.82002: L2-Pf-HR :0.92373: L2-HR :0.80841: (Sim:2h4m4s) 
CPU  0 inst: 1571000002 cyc: 1913711364 now IPC :1.71044: AVG IPC :0.82029: L2-Pf-HR :0.92370: L2-HR :0.80838: (Sim:2h4m8s) 
CPU  0 inst: 1572000000 cyc: 1914384591 now IPC :1.48538: AVG IPC :0.82053: L2-Pf-HR :0.92367: L2-HR :0.80833: (Sim:2h4m12s) 
CPU  0 inst: 1573000000 cyc: 1915115875 now IPC :1.36746: AVG IPC :0.82074: L2-Pf-HR :0.92362: L2-HR :0.80825: (Sim:2h4m16s) 
CPU  0 inst: 1574000000 cyc: 1915827788 now IPC :1.40467: AVG IPC :0.82095: L2-Pf-HR :0.92356: L2-HR :0.80815: (Sim:2h4m21s) 
CPU  0 inst: 1575000003 cyc: 1916413668 now IPC :1.70684: AVG IPC :0.82122: L2-Pf-HR :0.92353: L2-HR :0.80812: (Sim:2h4m25s) 
CPU  0 inst: 1576000000 cyc: 1917078209 now IPC :1.50479: AVG IPC :0.82146: L2-Pf-HR :0.92349: L2-HR :0.80807: (Sim:2h4m29s) 
CPU  0 inst: 1577000003 cyc: 1917776582 now IPC :1.43190: AVG IPC :0.82168: L2-Pf-HR :0.92351: L2-HR :0.80809: (Sim:2h4m33s) 
CPU  0 inst: 1578000001 cyc: 1918577022 now IPC :1.24931: AVG IPC :0.82186: L2-Pf-HR :0.92354: L2-HR :0.80815: (Sim:2h4m38s) 
CPU  0 inst: 1579000002 cyc: 1919234266 now IPC :1.52151: AVG IPC :0.82210: L2-Pf-HR :0.92350: L2-HR :0.80808: (Sim:2h4m42s) 
CPU  0 inst: 1580000000 cyc: 1919984961 now IPC :1.33210: AVG IPC :0.82230: L2-Pf-HR :0.92345: L2-HR :0.80799: (Sim:2h4m46s) 
CPU  0 inst: 1581000001 cyc: 1920621926 now IPC :1.56995: AVG IPC :0.82255: L2-Pf-HR :0.92342: L2-HR :0.80795: (Sim:2h4m50s) 
CPU  0 inst: 1582000001 cyc: 1921286909 now IPC :1.50380: AVG IPC :0.82279: L2-Pf-HR :0.92340: L2-HR :0.80792: (Sim:2h4m55s) 
CPU  0 inst: 1583000003 cyc: 1922062996 now IPC :1.28852: AVG IPC :0.82297: L2-Pf-HR :0.92334: L2-HR :0.80783: (Sim:2h4m59s) 
CPU  0 inst: 1584000000 cyc: 1922787236 now IPC :1.38075: AVG IPC :0.82318: L2-Pf-HR :0.92328: L2-HR :0.80773: (Sim:2h5m4s) 
CPU  0 inst: 1585000003 cyc: 1923388539 now IPC :1.66306: AVG IPC :0.82345: L2-Pf-HR :0.92325: L2-HR :0.80769: (Sim:2h5m8s) 
CPU  0 inst: 1586000003 cyc: 1924047681 now IPC :1.51712: AVG IPC :0.82368: L2-Pf-HR :0.92322: L2-HR :0.80766: (Sim:2h5m12s) 
CPU  0 inst: 1587000001 cyc: 1924828311 now IPC :1.28101: AVG IPC :0.82387: L2-Pf-HR :0.92317: L2-HR :0.80757: (Sim:2h5m15s) 
CPU  0 inst: 1588000000 cyc: 1925555839 now IPC :1.37452: AVG IPC :0.82408: L2-Pf-HR :0.92311: L2-HR :0.80747: (Sim:2h5m18s) 
CPU  0 inst: 1589000003 cyc: 1926142460 now IPC :1.70468: AVG IPC :0.82435: L2-Pf-HR :0.92308: L2-HR :0.80744: (Sim:2h5m21s) 
CPU  0 inst: 1590000000 cyc: 1926815876 now IPC :1.48496: AVG IPC :0.82458: L2-Pf-HR :0.92305: L2-HR :0.80740: (Sim:2h5m24s) 
CPU  0 inst: 1591000002 cyc: 1927594859 now IPC :1.28373: AVG IPC :0.82476: L2-Pf-HR :0.92300: L2-HR :0.80731: (Sim:2h5m27s) 
CPU  0 inst: 1592000000 cyc: 1928324666 now IPC :1.37022: AVG IPC :0.82497: L2-Pf-HR :0.92294: L2-HR :0.80721: (Sim:2h5m30s) 
CPU  0 inst: 1593000000 cyc: 1928911611 now IPC :1.70374: AVG IPC :0.82524: L2-Pf-HR :0.92290: L2-HR :0.80717: (Sim:2h5m33s) 
CPU  0 inst: 1594000000 cyc: 1929580659 now IPC :1.49466: AVG IPC :0.82547: L2-Pf-HR :0.92288: L2-HR :0.80713: (Sim:2h5m36s) 
CPU  0 inst: 1595000000 cyc: 1930318742 now IPC :1.35486: AVG IPC :0.82567: L2-Pf-HR :0.92283: L2-HR :0.80705: (Sim:2h5m39s) 
CPU  0 inst: 1596000000 cyc: 1930947878 now IPC :1.58948: AVG IPC :0.82592: L2-Pf-HR :0.92279: L2-HR :0.80698: (Sim:2h5m43s) 
CPU  0 inst: 1597000002 cyc: 1931625490 now IPC :1.47577: AVG IPC :0.82615: L2-Pf-HR :0.92273: L2-HR :0.80691: (Sim:2h5m47s) 
CPU  0 inst: 1598000002 cyc: 1932293387 now IPC :1.49724: AVG IPC :0.82638: L2-Pf-HR :0.92270: L2-HR :0.80686: (Sim:2h5m51s) 
CPU  0 inst: 1599000000 cyc: 1932967978 now IPC :1.48238: AVG IPC :0.82661: L2-Pf-HR :0.92270: L2-HR :0.80686: (Sim:2h5m56s) 
CPU  0 inst: 1600000000 cyc: 1933651942 now IPC :1.46207: AVG IPC :0.82683: L2-Pf-HR :0.92276: L2-HR :0.80696: (Sim:2h6m0s) 
CPU  0 inst: 1601000002 cyc: 1934445006 now IPC :1.26093: AVG IPC :0.82701: L2-Pf-HR :0.92271: L2-HR :0.80688: (Sim:2h6m5s) 
CPU  0 inst: 1602000002 cyc: 1935196038 now IPC :1.33150: AVG IPC :0.82721: L2-Pf-HR :0.92265: L2-HR :0.80678: (Sim:2h6m9s) 
CPU  0 inst: 1603000000 cyc: 1935799914 now IPC :1.65597: AVG IPC :0.82747: L2-Pf-HR :0.92263: L2-HR :0.80675: (Sim:2h6m13s) 
CPU  0 inst: 1604000000 cyc: 1936483177 now IPC :1.46357: AVG IPC :0.82769: L2-Pf-HR :0.92260: L2-HR :0.80671: (Sim:2h6m18s) 
CPU  0 inst: 1605000002 cyc: 1937266787 now IPC :1.27615: AVG IPC :0.82787: L2-Pf-HR :0.92255: L2-HR :0.80663: (Sim:2h6m22s) 
CPU  0 inst: 1606000002 cyc: 1937997314 now IPC :1.36887: AVG IPC :0.82808: L2-Pf-HR :0.92249: L2-HR :0.80652: (Sim:2h6m27s) 
CPU  0 inst: 1607000001 cyc: 1938586360 now IPC :1.69766: AVG IPC :0.82834: L2-Pf-HR :0.92246: L2-HR :0.80649: (Sim:2h6m31s) 
CPU  0 inst: 1608000000 cyc: 1939259584 now IPC :1.48539: AVG IPC :0.82857: L2-Pf-HR :0.92243: L2-HR :0.80645: (Sim:2h6m34s) 
CPU  0 inst: 1609000003 cyc: 1940038590 now IPC :1.28369: AVG IPC :0.82875: L2-Pf-HR :0.92238: L2-HR :0.80637: (Sim:2h6m38s) 
CPU  0 inst: 1610000002 cyc: 1940757602 now IPC :1.39080: AVG IPC :0.82896: L2-Pf-HR :0.92231: L2-HR :0.80627: (Sim:2h6m41s) 
CPU  0 inst: 1611000003 cyc: 1941354500 now IPC :1.67533: AVG IPC :0.82922: L2-Pf-HR :0.92228: L2-HR :0.80623: (Sim:2h6m43s) 
CPU  0 inst: 1612000000 cyc: 1942028396 now IPC :1.48390: AVG IPC :0.82945: L2-Pf-HR :0.92225: L2-HR :0.80618: (Sim:2h6m46s) 
CPU  0 inst: 1613000000 cyc: 1942799621 now IPC :1.29664: AVG IPC :0.82963: L2-Pf-HR :0.92220: L2-HR :0.80612: (Sim:2h6m49s) 
CPU  0 inst: 1614000002 cyc: 1943431461 now IPC :1.58268: AVG IPC :0.82988: L2-Pf-HR :0.92215: L2-HR :0.80604: (Sim:2h6m52s) 
CPU  0 inst: 1615000003 cyc: 1944116868 now IPC :1.45899: AVG IPC :0.83010: L2-Pf-HR :0.92210: L2-HR :0.80597: (Sim:2h6m55s) 
CPU  0 inst: 1616000000 cyc: 1944789631 now IPC :1.48640: AVG IPC :0.83033: L2-Pf-HR :0.92207: L2-HR :0.80592: (Sim:2h6m58s) 
CPU  0 inst: 1617000001 cyc: 1945521286 now IPC :1.36677: AVG IPC :0.83053: L2-Pf-HR :0.92203: L2-HR :0.80586: (Sim:2h7m1s) 
CPU  0 inst: 1618000002 cyc: 1946131351 now IPC :1.63917: AVG IPC :0.83078: L2-Pf-HR :0.92199: L2-HR :0.80578: (Sim:2h7m4s) 
CPU  0 inst: 1619000000 cyc: 1946826649 now IPC :1.43823: AVG IPC :0.83100: L2-Pf-HR :0.92193: L2-HR :0.80571: (Sim:2h7m7s) 
Finished CPU 0 instr: 1617000001 cyc: 1945845900 AVG IPC: 0.83100 (Sim time: 2h7m7s)

ChampSim completed all CPUs

[ROI Statistics]
Core_0_instructions 1617000001
Core_0_cycles 1945845900
Core_0_IPC 0.83100

Core_0_branch_prediction_accuracy 99.26547
Core_0_branch_MPKI 0.21633
Core_0_average_ROB_occupancy_at_mispredict 250.53420

Core_0_L1D_total_access 419261815
Core_0_L1D_total_hit 384191544 L1D_total_Hit Ratio: 0.91635
Core_0_L1D_total_miss 35070271
Core_0_L1D_loads 375488729
Core_0_L1D_load_hit 342770511 L1D_load_Hit Ratio: 0.91286
Core_0_L1D_load_miss 32718218
Core_0_L1D_RFOs 43773086
Core_0_L1D_RFO_hit 41421033 L1D_RFO_Hit Ratio: 0.94627
Core_0_L1D_RFO_miss 2352053
Core_0_L1D_prefetches 0
Core_0_L1D_prefetch_hit 0 L1D_prefetch_Hit Ratio: -nan
Core_0_L1D_prefetch_miss 0
Core_0_L1D_writebacks 0
Core_0_L1D_writeback_hit 0 L1D_writeback_Hit Ratio: -nan
Core_0_L1D_writeback_miss 0
Core_0_L1D_prefetch_requested 0
Core_0_L1D_prefetch_issued 0
Core_0_L1D_prefetch_useful 0 L1D_Useful Ratio: -nan
Core_0_L1D_prefetch_useless 0
Core_0_L1D_prefetch_late 0
Core_0_L1D_average_miss_latency 73.23017

Core_0_L1I_total_access 395755267
Core_0_L1I_total_hit 395750357 L1I_total_Hit Ratio: 0.99999
Core_0_L1I_total_miss 4910
Core_0_L1I_loads 395755267
Core_0_L1I_load_hit 395750357 L1I_load_Hit Ratio: 0.99999
Core_0_L1I_load_miss 4910
Core_0_L1I_RFOs 0
Core_0_L1I_RFO_hit 0 L1I_RFO_Hit Ratio: -nan
Core_0_L1I_RFO_miss 0
Core_0_L1I_prefetches 0
Core_0_L1I_prefetch_hit 0 L1I_prefetch_Hit Ratio: -nan
Core_0_L1I_prefetch_miss 0
Core_0_L1I_writebacks 0
Core_0_L1I_writeback_hit 0 L1I_writeback_Hit Ratio: -nan
Core_0_L1I_writeback_miss 0
Core_0_L1I_prefetch_requested 0
Core_0_L1I_prefetch_issued 0
Core_0_L1I_prefetch_useful 0 L1I_Useful Ratio: -nan
Core_0_L1I_prefetch_useless 0
Core_0_L1I_prefetch_late 0
Core_0_L1I_average_miss_latency 336.66253

Core_0_L2C_total_access 123258570
Core_0_L2C_total_hit 99310236 L2C_total_Hit Ratio: 0.80571
Core_0_L2C_total_miss 23948334
Core_0_L2C_loads 32722841
Core_0_L2C_load_hit 17139281 L2C_load_Hit Ratio: 0.52377
Core_0_L2C_load_miss 15583560
Core_0_L2C_RFOs 2352053
Core_0_L2C_RFO_hit 162436 L2C_RFO_Hit Ratio: 0.06906
Core_0_L2C_RFO_miss 2189617
Core_0_L2C_prefetches 77234184
Core_0_L2C_prefetch_hit 71204735 L2C_prefetch_Hit Ratio: 0.92193
Core_0_L2C_prefetch_miss 6029449
Core_0_L2C_writebacks 10949492
Core_0_L2C_writeback_hit 10803784 L2C_writeback_Hit Ratio: 0.98669
Core_0_L2C_writeback_miss 145708
Core_0_L2C_prefetch_requested 247096031
Core_0_L2C_prefetch_issued 245075778
Core_0_L2C_prefetch_useful 5813933 L2C_Useful Ratio: 0.02372
Core_0_L2C_prefetch_useless 220949
Core_0_L2C_prefetch_late 3625752
Core_0_L2C_average_miss_latency 99.93316

Core_0_LLC_total_access 122814348
Core_0_LLC_total_hit 109853703 LLC_total_Hit Ratio: 0.89447
Core_0_LLC_total_miss 12960645
Core_0_LLC_loads 11957787
Core_0_LLC_load_hit 9778912 LLC_load_Hit Ratio: 0.81779
Core_0_LLC_load_miss 2178875
Core_0_LLC_RFOs 2189610
Core_0_LLC_RFO_hit 81206 LLC_RFO_Hit Ratio: 0.03709
Core_0_LLC_RFO_miss 2108404
Core_0_LLC_prefetches 98073924
Core_0_LLC_prefetch_hit 89430703 LLC_prefetch_Hit Ratio: 0.91187
Core_0_LLC_prefetch_miss 8643221
Core_0_LLC_writebacks 10593027
Core_0_LLC_writeback_hit 10562882 LLC_writeback_Hit Ratio: 0.99715
Core_0_LLC_writeback_miss 30145
Core_0_LLC_prefetch_requested 0
Core_0_LLC_prefetch_issued 0
Core_0_LLC_prefetch_useful 4417452 LLC_Useful Ratio: inf
Core_0_LLC_prefetch_useless 4227147
Core_0_LLC_prefetch_late 794886
Core_0_LLC_average_miss_latency 357.64751

Core_0_major_page_fault 0
Core_0_minor_page_fault 76848

 All Calls: 32769067
 Critical Calls: 32769067
------------------
Depth Distribution
------------------
depth 0: 0
depth 1: 30073208
depth 2: 28841825
depth 3: 27293060
depth 4: 26203820
depth 5: 24656499
depth 6: 22276348
depth 7: 18853238
depth 8: 16838005
depth 9: 13642562
depth 10: 12375554
depth 11: 9999276
depth 12: 7504858
depth 13: 4288736
depth 14: 1130205
depth 15: 1091399
depth 16: 7185
depth 17: 0
depth 18: 0
depth 19: 0
depth 20: 0
depth 21: 0
depth 22: 0
depth 23: 0
depth 24: 0
depth 25: 0
depth 26: 0
depth 27: 0
depth 28: 0
depth 29: 0
Total: 245075778
-----------------------------
-----------------------------
	Captured at Filter
-----------------------------
depth 0: 0
depth 1: 2262630
depth 2: 2180438
depth 3: 2153537
depth 4: 2084416
depth 5: 1981859
depth 6: 1845947
depth 7: 1766086
depth 8: 1649617
depth 9: 1496644
depth 10: 1324405
depth 11: 1021594
depth 12: 667688
depth 13: 385392
depth 14: 81048
depth 15: 56371
depth 16: 756
depth 17: 0
depth 18: 0
depth 19: 0
depth 20: 0
depth 21: 0
depth 22: 0
depth 23: 0
depth 24: 0
depth 25: 0
depth 26: 0
depth 27: 0
depth 28: 0
depth 29: 0
-----------------------------
-----------------------------
		Lost at Page
-----------------------------
depth 0: 0
depth 1: 684910
depth 2: 1148318
depth 3: 1495752
depth 4: 1873969
depth 5: 2279209
depth 6: 2589829
depth 7: 2711274
depth 8: 2830505
depth 9: 2630437
depth 10: 2692936
depth 11: 2453452
depth 12: 2039902
depth 13: 1298550
depth 14: 355660
depth 15: 376916
depth 16: 1136
depth 17: 0
depth 18: 0
depth 19: 0
depth 20: 0
depth 21: 0
depth 22: 0
depth 23: 0
depth 24: 0
depth 25: 0
depth 26: 0
depth 27: 0
depth 28: 0
depth 29: 0
-----------------------------
-----------------------------
	Lost due to PQ Size
-----------------------------
2020253
-----------------------------
ST read accesses: 30857431
ST write accesses: 1865410
PT read accesses: 1636328640
PT write accesses: 44169655
FILTER read accesses: 324480488
FILTER write accesses: 62881879
GHR read accesses: 171973291
GHR write accesses: 27446465
GHR counter read accesses: 1374137678
GHR counter write accesses: 71962875
ST tag read accesses: 13541044302
ST tag write accesses: 558180682
Channel_0_RQ_row_buffer_hit 6771983
Channel_0_RQ_row_buffer_miss 6155319
Channel_0_WQ_row_buffer_hit 2095769
Channel_0_WQ_row_buffer_miss 4906908
Channel_0_WQ_full 0
Channel_0_dbus_congested 10511988

avg_congested_cycle 11

EzSearch AVG IPC :0.83100: L2-Pf-HR :0.92193 : L2-HR :0.80571 Uful:0.02372
     > Finished combination: TraceType=770-tot Sim:1617000000 Prefetcher=L2spp_berti_src L1=no
