TRACE: [331000000][Pythia-70M]_[h8][s1024][d64] Warmup: 2000000 NumTraces: 331000000
L1:isb_ideal:L2:isb_ideal
*************************************************
   ChampSim Multicore Out-of-Order Simulator
   Last compiled: Oct 26 2024 14:26:55
*************************************************

trace_0 770-tot_memTraces_v3/memTraces[331000000][Pythia-70M]_[h8][s1024][d64].champsim.xz
L1D: Ideal ISB Prefetching
Ideal ISB Prefetching
MAIN.cc ln 751 stats print skipped
CPU  0 inst:    1000000 cyc:     503683 now IPC :1.98538: AVG IPC :1.98538: L2-Pf-HR :0.99256: L2-HR :0.87628: (Sim:0h0m4s) 
CPU  0 inst:    2000001 cyc:     980418 now IPC :2.09760: AVG IPC :2.03995: L2-Pf-HR :0.99151: L2-HR :0.90439: (Sim:0h0m7s) 

Warmup complete CPU  0 instructions:    2000001 cycles:     980418 (Simulation time: 0 hr 0 min 7 sec) 

CPU  0 inst:    3000000 cyc:    1749789 now IPC :1.29976: AVG IPC :1.29976: L2-Pf-HR :0.99112: L2-HR :0.93172: (Sim:0h0m10s) 
CPU  0 inst:    4000000 cyc:    2524864 now IPC :1.29020: AVG IPC :1.29496: L2-Pf-HR :0.99113: L2-HR :0.93156: (Sim:0h0m14s) 
CPU  0 inst:    5000003 cyc:    3293503 now IPC :1.30100: AVG IPC :1.29697: L2-Pf-HR :0.99107: L2-HR :0.93160: (Sim:0h0m19s) 
CPU  0 inst:    6000000 cyc:    4070368 now IPC :1.28722: AVG IPC :1.29452: L2-Pf-HR :0.99099: L2-HR :0.93174: (Sim:0h0m23s) 
CPU  0 inst:    7000000 cyc:    4986931 now IPC :1.09103: AVG IPC :1.24797: L2-Pf-HR :0.98858: L2-HR :0.93031: (Sim:0h0m27s) 
CPU  0 inst:    8000000 cyc:    5794440 now IPC :1.23838: AVG IPC :1.24636: L2-Pf-HR :0.98803: L2-HR :0.93156: (Sim:0h0m30s) 
CPU  0 inst:    9000001 cyc:    6602025 now IPC :1.23826: AVG IPC :1.24520: L2-Pf-HR :0.98762: L2-HR :0.93248: (Sim:0h0m34s) 
CPU  0 inst:   10000003 cyc:    7409495 now IPC :1.23844: AVG IPC :1.24435: L2-Pf-HR :0.98729: L2-HR :0.93316: (Sim:0h0m37s) 
CPU  0 inst:   11000001 cyc:    8212936 now IPC :1.24464: AVG IPC :1.24438: L2-Pf-HR :0.98706: L2-HR :0.93370: (Sim:0h0m40s) 
CPU  0 inst:   12000000 cyc:    9018095 now IPC :1.24199: AVG IPC :1.24414: L2-Pf-HR :0.98691: L2-HR :0.93424: (Sim:0h0m45s) 
CPU  0 inst:   13000001 cyc:    9898312 now IPC :1.13608: AVG IPC :1.23348: L2-Pf-HR :0.98665: L2-HR :0.93415: (Sim:0h0m50s) 
CPU  0 inst:   14000001 cyc:   10701015 now IPC :1.24579: AVG IPC :1.23449: L2-Pf-HR :0.98630: L2-HR :0.93430: (Sim:0h0m54s) 
CPU  0 inst:   15000001 cyc:   11503891 now IPC :1.24552: AVG IPC :1.23533: L2-Pf-HR :0.98608: L2-HR :0.93445: (Sim:0h0m59s) 
CPU  0 inst:   16000000 cyc:   12303349 now IPC :1.25085: AVG IPC :1.23643: L2-Pf-HR :0.98582: L2-HR :0.93454: (Sim:0h1m4s) 
CPU  0 inst:   17000002 cyc:   13247136 now IPC :1.05956: AVG IPC :1.22282: L2-Pf-HR :0.98499: L2-HR :0.93324: (Sim:0h1m10s) 
CPU  0 inst:   18000002 cyc:   14070473 now IPC :1.21457: AVG IPC :1.22230: L2-Pf-HR :0.98486: L2-HR :0.93305: (Sim:0h1m14s) 
CPU  0 inst:   19000001 cyc:   14895845 now IPC :1.21157: AVG IPC :1.22167: L2-Pf-HR :0.98459: L2-HR :0.93275: (Sim:0h1m19s) 
CPU  0 inst:   20000000 cyc:   15718370 now IPC :1.21577: AVG IPC :1.22134: L2-Pf-HR :0.98442: L2-HR :0.93253: (Sim:0h1m24s) 
CPU  0 inst:   21000001 cyc:   16543008 now IPC :1.21265: AVG IPC :1.22088: L2-Pf-HR :0.98430: L2-HR :0.93237: (Sim:0h1m29s) 
CPU  0 inst:   22000001 cyc:   17372356 now IPC :1.20577: AVG IPC :1.22011: L2-Pf-HR :0.98421: L2-HR :0.93226: (Sim:0h1m34s) 
CPU  0 inst:   23000003 cyc:   18297605 now IPC :1.08079: AVG IPC :1.21267: L2-Pf-HR :0.98393: L2-HR :0.93184: (Sim:0h1m40s) 
CPU  0 inst:   24000000 cyc:   19107450 now IPC :1.23480: AVG IPC :1.21366: L2-Pf-HR :0.98400: L2-HR :0.93210: (Sim:0h1m45s) 
CPU  0 inst:   25000003 cyc:   19917353 now IPC :1.23472: AVG IPC :1.21456: L2-Pf-HR :0.98407: L2-HR :0.93233: (Sim:0h1m50s) 
CPU  0 inst:   26000000 cyc:   20724380 now IPC :1.23911: AVG IPC :1.21556: L2-Pf-HR :0.98414: L2-HR :0.93254: (Sim:0h1m55s) 
CPU  0 inst:   27000002 cyc:   21534597 now IPC :1.23424: AVG IPC :1.21630: L2-Pf-HR :0.98419: L2-HR :0.93274: (Sim:0h2m0s) 
CPU  0 inst:   28000000 cyc:   22339576 now IPC :1.24227: AVG IPC :1.21728: L2-Pf-HR :0.98427: L2-HR :0.93296: (Sim:0h2m4s) 
CPU  0 inst:   29000003 cyc:   23216017 now IPC :1.14098: AVG IPC :1.21427: L2-Pf-HR :0.98427: L2-HR :0.93293: (Sim:0h2m10s) 
CPU  0 inst:   30000001 cyc:   24020664 now IPC :1.24278: AVG IPC :1.21526: L2-Pf-HR :0.98423: L2-HR :0.93300: (Sim:0h2m15s) 
CPU  0 inst:   31000001 cyc:   24822191 now IPC :1.24762: AVG IPC :1.21635: L2-Pf-HR :0.98419: L2-HR :0.93306: (Sim:0h2m20s) 
CPU  0 inst:   32000000 cyc:   25622285 now IPC :1.24985: AVG IPC :1.21744: L2-Pf-HR :0.98415: L2-HR :0.93313: (Sim:0h2m25s) 
CPU  0 inst:   33000003 cyc:   26552929 now IPC :1.07453: AVG IPC :1.21224: L2-Pf-HR :0.98380: L2-HR :0.93253: (Sim:0h2m30s) 
CPU  0 inst:   34000003 cyc:   27371682 now IPC :1.22137: AVG IPC :1.21252: L2-Pf-HR :0.98375: L2-HR :0.93241: (Sim:0h2m35s) 
CPU  0 inst:   35000002 cyc:   28192019 now IPC :1.21901: AVG IPC :1.21272: L2-Pf-HR :0.98373: L2-HR :0.93230: (Sim:0h2m40s) 
CPU  0 inst:   36000000 cyc:   29015058 now IPC :1.21501: AVG IPC :1.21279: L2-Pf-HR :0.98370: L2-HR :0.93219: (Sim:0h2m46s) 
CPU  0 inst:   37000001 cyc:   29833823 now IPC :1.22135: AVG IPC :1.21303: L2-Pf-HR :0.98364: L2-HR :0.93206: (Sim:0h2m51s) 
CPU  0 inst:   38000001 cyc:   30656495 now IPC :1.21555: AVG IPC :1.21310: L2-Pf-HR :0.98367: L2-HR :0.93204: (Sim:0h2m56s) 
CPU  0 inst:   39000003 cyc:   31582412 now IPC :1.08001: AVG IPC :1.20907: L2-Pf-HR :0.98361: L2-HR :0.93183: (Sim:0h3m1s) 
CPU  0 inst:   40000000 cyc:   32384140 now IPC :1.24730: AVG IPC :1.21005: L2-Pf-HR :0.98367: L2-HR :0.93195: (Sim:0h3m5s) 
CPU  0 inst:   41000003 cyc:   33183744 now IPC :1.25062: AVG IPC :1.21106: L2-Pf-HR :0.98372: L2-HR :0.93207: (Sim:0h3m9s) 
CPU  0 inst:   42000003 cyc:   33985581 now IPC :1.24714: AVG IPC :1.21193: L2-Pf-HR :0.98376: L2-HR :0.93216: (Sim:0h3m14s) 
CPU  0 inst:   43000000 cyc:   34784699 now IPC :1.25138: AVG IPC :1.21286: L2-Pf-HR :0.98382: L2-HR :0.93226: (Sim:0h3m19s) 
CPU  0 inst:   44000000 cyc:   35580473 now IPC :1.25664: AVG IPC :1.21387: L2-Pf-HR :0.98388: L2-HR :0.93237: (Sim:0h3m24s) 
CPU  0 inst:   45000003 cyc:   36449383 now IPC :1.15087: AVG IPC :1.21233: L2-Pf-HR :0.98392: L2-HR :0.93234: (Sim:0h3m30s) 
CPU  0 inst:   46000002 cyc:   37254721 now IPC :1.24171: AVG IPC :1.21298: L2-Pf-HR :0.98392: L2-HR :0.93237: (Sim:0h3m35s) 
CPU  0 inst:   47000000 cyc:   38057995 now IPC :1.24490: AVG IPC :1.21367: L2-Pf-HR :0.98393: L2-HR :0.93240: (Sim:0h3m40s) 
CPU  0 inst:   48000000 cyc:   38858999 now IPC :1.24843: AVG IPC :1.21441: L2-Pf-HR :0.98392: L2-HR :0.93243: (Sim:0h3m45s) 
CPU  0 inst:   49000000 cyc:   39789965 now IPC :1.07415: AVG IPC :1.21104: L2-Pf-HR :0.98372: L2-HR :0.93204: (Sim:0h3m50s) 
CPU  0 inst:   50000001 cyc:   40604354 now IPC :1.22792: AVG IPC :1.21139: L2-Pf-HR :0.98366: L2-HR :0.93191: (Sim:0h3m56s) 
CPU  0 inst:   51000000 cyc:   41420709 now IPC :1.22496: AVG IPC :1.21166: L2-Pf-HR :0.98364: L2-HR :0.93182: (Sim:0h4m1s) 
CPU  0 inst:   52000000 cyc:   42238044 now IPC :1.22349: AVG IPC :1.21190: L2-Pf-HR :0.98363: L2-HR :0.93172: (Sim:0h4m6s) 
CPU  0 inst:   53000003 cyc:   43053994 now IPC :1.22557: AVG IPC :1.21216: L2-Pf-HR :0.98361: L2-HR :0.93164: (Sim:0h4m11s) 
CPU  0 inst:   54000002 cyc:   43870655 now IPC :1.22450: AVG IPC :1.21240: L2-Pf-HR :0.98359: L2-HR :0.93155: (Sim:0h4m16s) 
CPU  0 inst:   55000003 cyc:   44802555 now IPC :1.07308: AVG IPC :1.20943: L2-Pf-HR :0.98351: L2-HR :0.93134: (Sim:0h4m22s) 
CPU  0 inst:   56000000 cyc:   45613906 now IPC :1.23251: AVG IPC :1.20985: L2-Pf-HR :0.98355: L2-HR :0.93141: (Sim:0h4m26s) 
CPU  0 inst:   57000002 cyc:   46424268 now IPC :1.23402: AVG IPC :1.21028: L2-Pf-HR :0.98359: L2-HR :0.93146: (Sim:0h4m31s) 
CPU  0 inst:   58000003 cyc:   47232101 now IPC :1.23788: AVG IPC :1.21077: L2-Pf-HR :0.98364: L2-HR :0.93152: (Sim:0h4m34s) 
CPU  0 inst:   59000001 cyc:   48044219 now IPC :1.23135: AVG IPC :1.21112: L2-Pf-HR :0.98368: L2-HR :0.93157: (Sim:0h4m39s) 
CPU  0 inst:   60000000 cyc:   48849352 now IPC :1.24203: AVG IPC :1.21164: L2-Pf-HR :0.98373: L2-HR :0.93164: (Sim:0h4m43s) 
CPU  0 inst:   61000001 cyc:   49724074 now IPC :1.14322: AVG IPC :1.21041: L2-Pf-HR :0.98376: L2-HR :0.93161: (Sim:0h4m46s) 
CPU  0 inst:   62000002 cyc:   50516981 now IPC :1.26118: AVG IPC :1.21123: L2-Pf-HR :0.98377: L2-HR :0.93161: (Sim:0h4m50s) 
CPU  0 inst:   63000003 cyc:   51306954 now IPC :1.26587: AVG IPC :1.21208: L2-Pf-HR :0.98378: L2-HR :0.93161: (Sim:0h4m53s) 
CPU  0 inst:   64000000 cyc:   52094216 now IPC :1.27022: AVG IPC :1.21298: L2-Pf-HR :0.98379: L2-HR :0.93161: (Sim:0h4m57s) 
CPU  0 inst:   65000001 cyc:   53005195 now IPC :1.09772: AVG IPC :1.21096: L2-Pf-HR :0.98365: L2-HR :0.93133: (Sim:0h5m0s) 
CPU  0 inst:   66000002 cyc:   53808984 now IPC :1.24411: AVG IPC :1.21147: L2-Pf-HR :0.98364: L2-HR :0.93126: (Sim:0h5m4s) 
CPU  0 inst:   67000001 cyc:   54614861 now IPC :1.24088: AVG IPC :1.21191: L2-Pf-HR :0.98362: L2-HR :0.93118: (Sim:0h5m8s) 
CPU  0 inst:   68000000 cyc:   55421139 now IPC :1.24027: AVG IPC :1.21233: L2-Pf-HR :0.98361: L2-HR :0.93109: (Sim:0h5m13s) 
CPU  0 inst:   69000000 cyc:   56228031 now IPC :1.23932: AVG IPC :1.21272: L2-Pf-HR :0.98359: L2-HR :0.93100: (Sim:0h5m16s) 
CPU  0 inst:   70000001 cyc:   57039230 now IPC :1.23274: AVG IPC :1.21301: L2-Pf-HR :0.98357: L2-HR :0.93092: (Sim:0h5m20s) 
CPU  0 inst:   71000000 cyc:   57962811 now IPC :1.08274: AVG IPC :1.21090: L2-Pf-HR :0.98346: L2-HR :0.93070: (Sim:0h5m24s) 
CPU  0 inst:   72000000 cyc:   58761972 now IPC :1.25131: AVG IPC :1.21146: L2-Pf-HR :0.98351: L2-HR :0.93074: (Sim:0h5m29s) 
CPU  0 inst:   73000003 cyc:   59561891 now IPC :1.25013: AVG IPC :1.21199: L2-Pf-HR :0.98353: L2-HR :0.93077: (Sim:0h5m33s) 
CPU  0 inst:   74000000 cyc:   60362686 now IPC :1.24876: AVG IPC :1.21248: L2-Pf-HR :0.98357: L2-HR :0.93080: (Sim:0h5m37s) 
CPU  0 inst:   75000002 cyc:   61159260 now IPC :1.25538: AVG IPC :1.21305: L2-Pf-HR :0.98361: L2-HR :0.93083: (Sim:0h5m41s) 
CPU  0 inst:   76000000 cyc:   61957511 now IPC :1.25274: AVG IPC :1.21357: L2-Pf-HR :0.98364: L2-HR :0.93087: (Sim:0h5m44s) 
CPU  0 inst:   77000001 cyc:   62825139 now IPC :1.15257: AVG IPC :1.21271: L2-Pf-HR :0.98368: L2-HR :0.93086: (Sim:0h5m48s) 
CPU  0 inst:   78000002 cyc:   63625908 now IPC :1.24880: AVG IPC :1.21318: L2-Pf-HR :0.98368: L2-HR :0.93086: (Sim:0h5m52s) 
CPU  0 inst:   79000001 cyc:   64422384 now IPC :1.25553: AVG IPC :1.21371: L2-Pf-HR :0.98370: L2-HR :0.93086: (Sim:0h5m57s) 
CPU  0 inst:   80000000 cyc:   65218961 now IPC :1.25537: AVG IPC :1.21422: L2-Pf-HR :0.98371: L2-HR :0.93086: (Sim:0h6m2s) 
CPU  0 inst:   81000000 cyc:   66142897 now IPC :1.08233: AVG IPC :1.21235: L2-Pf-HR :0.98357: L2-HR :0.93062: (Sim:0h6m7s) 
CPU  0 inst:   82000002 cyc:   66964052 now IPC :1.21780: AVG IPC :1.21242: L2-Pf-HR :0.98359: L2-HR :0.93058: (Sim:0h6m11s) 
CPU  0 inst:   83000000 cyc:   67788711 now IPC :1.21262: AVG IPC :1.21242: L2-Pf-HR :0.98355: L2-HR :0.93048: (Sim:0h6m15s) 
CPU  0 inst:   84000000 cyc:   68612418 now IPC :1.21402: AVG IPC :1.21244: L2-Pf-HR :0.98354: L2-HR :0.93041: (Sim:0h6m19s) 
CPU  0 inst:   85000001 cyc:   69440539 now IPC :1.20755: AVG IPC :1.21238: L2-Pf-HR :0.98352: L2-HR :0.93032: (Sim:0h6m24s) 
CPU  0 inst:   86000002 cyc:   70266986 now IPC :1.21000: AVG IPC :1.21236: L2-Pf-HR :0.98351: L2-HR :0.93026: (Sim:0h6m29s) 
CPU  0 inst:   87000001 cyc:   71191426 now IPC :1.08173: AVG IPC :1.21064: L2-Pf-HR :0.98344: L2-HR :0.93008: (Sim:0h6m33s) 
CPU  0 inst:   88000000 cyc:   72014368 now IPC :1.21515: AVG IPC :1.21069: L2-Pf-HR :0.98348: L2-HR :0.93010: (Sim:0h6m37s) 
CPU  0 inst:   89000002 cyc:   72826314 now IPC :1.23161: AVG IPC :1.21093: L2-Pf-HR :0.98351: L2-HR :0.93013: (Sim:0h6m41s) 
CPU  0 inst:   90000001 cyc:   73631042 now IPC :1.24265: AVG IPC :1.21128: L2-Pf-HR :0.98354: L2-HR :0.93015: (Sim:0h6m44s) 
CPU  0 inst:   91000000 cyc:   74436611 now IPC :1.24136: AVG IPC :1.21161: L2-Pf-HR :0.98357: L2-HR :0.93016: (Sim:0h6m48s) 
CPU  0 inst:   92000000 cyc:   75241726 now IPC :1.24206: AVG IPC :1.21194: L2-Pf-HR :0.98360: L2-HR :0.93019: (Sim:0h6m53s) 
CPU  0 inst:   93000003 cyc:   76119100 now IPC :1.13977: AVG IPC :1.21109: L2-Pf-HR :0.98363: L2-HR :0.93017: (Sim:0h6m58s) 
CPU  0 inst:   94000003 cyc:   76928168 now IPC :1.23599: AVG IPC :1.21136: L2-Pf-HR :0.98364: L2-HR :0.93017: (Sim:0h7m3s) 
CPU  0 inst:   95000000 cyc:   77733850 now IPC :1.24118: AVG IPC :1.21167: L2-Pf-HR :0.98365: L2-HR :0.93016: (Sim:0h7m8s) 
CPU  0 inst:   96000000 cyc:   78540833 now IPC :1.23918: AVG IPC :1.21196: L2-Pf-HR :0.98366: L2-HR :0.93015: (Sim:0h7m14s) 
CPU  0 inst:   97000000 cyc:   79440662 now IPC :1.11132: AVG IPC :1.21080: L2-Pf-HR :0.98356: L2-HR :0.92995: (Sim:0h7m19s) 
CPU  0 inst:   98000000 cyc:   80287543 now IPC :1.18080: AVG IPC :1.21048: L2-Pf-HR :0.98355: L2-HR :0.92987: (Sim:0h7m24s) 
CPU  0 inst:   99000003 cyc:   81107411 now IPC :1.21971: AVG IPC :1.21058: L2-Pf-HR :0.98353: L2-HR :0.92980: (Sim:0h7m30s) 
CPU  0 inst:  100000000 cyc:   81933577 now IPC :1.21041: AVG IPC :1.21058: L2-Pf-HR :0.98353: L2-HR :0.92973: (Sim:0h7m35s) 
CPU  0 inst:  101000002 cyc:   82759363 now IPC :1.21097: AVG IPC :1.21058: L2-Pf-HR :0.98351: L2-HR :0.92965: (Sim:0h7m40s) 
CPU  0 inst:  102000002 cyc:   83587341 now IPC :1.20776: AVG IPC :1.21055: L2-Pf-HR :0.98351: L2-HR :0.92959: (Sim:0h7m46s) 
CPU  0 inst:  103000003 cyc:   84427336 now IPC :1.19048: AVG IPC :1.21035: L2-Pf-HR :0.98350: L2-HR :0.92955: (Sim:0h7m51s) 
CPU  0 inst:  104000000 cyc:   85320337 now IPC :1.11982: AVG IPC :1.20939: L2-Pf-HR :0.98348: L2-HR :0.92943: (Sim:0h7m56s) 
CPU  0 inst:  105000002 cyc:   86108680 now IPC :1.26849: AVG IPC :1.20994: L2-Pf-HR :0.98350: L2-HR :0.92944: (Sim:0h8m1s) 
CPU  0 inst:  106000001 cyc:   86897457 now IPC :1.26778: AVG IPC :1.21047: L2-Pf-HR :0.98352: L2-HR :0.92945: (Sim:0h8m7s) 
CPU  0 inst:  107000001 cyc:   87678297 now IPC :1.28067: AVG IPC :1.21110: L2-Pf-HR :0.98355: L2-HR :0.92947: (Sim:0h8m12s) 
CPU  0 inst:  108000000 cyc:   88463989 now IPC :1.27276: AVG IPC :1.21166: L2-Pf-HR :0.98357: L2-HR :0.92948: (Sim:0h8m17s) 
CPU  0 inst:  109000003 cyc:   89254127 now IPC :1.26561: AVG IPC :1.21214: L2-Pf-HR :0.98359: L2-HR :0.92953: (Sim:0h8m22s) 
CPU  0 inst:  110000000 cyc:   90113067 now IPC :1.16422: AVG IPC :1.21168: L2-Pf-HR :0.98360: L2-HR :0.92946: (Sim:0h8m28s) 
CPU  0 inst:  111000002 cyc:   90904097 now IPC :1.26418: AVG IPC :1.21214: L2-Pf-HR :0.98361: L2-HR :0.92945: (Sim:0h8m33s) 
CPU  0 inst:  112000000 cyc:   91697181 now IPC :1.26090: AVG IPC :1.21257: L2-Pf-HR :0.98362: L2-HR :0.92945: (Sim:0h8m38s) 
CPU  0 inst:  113000000 cyc:   92492392 now IPC :1.25753: AVG IPC :1.21296: L2-Pf-HR :0.98363: L2-HR :0.92945: (Sim:0h8m44s) 
CPU  0 inst:  114000001 cyc:   93423641 now IPC :1.07383: AVG IPC :1.21155: L2-Pf-HR :0.98357: L2-HR :0.92925: (Sim:0h8m49s) 
CPU  0 inst:  115000000 cyc:   94236193 now IPC :1.23069: AVG IPC :1.21172: L2-Pf-HR :0.98353: L2-HR :0.92916: (Sim:0h8m54s) 
CPU  0 inst:  116000000 cyc:   95048570 now IPC :1.23096: AVG IPC :1.21189: L2-Pf-HR :0.98352: L2-HR :0.92909: (Sim:0h8m57s) 
CPU  0 inst:  117000000 cyc:   95861289 now IPC :1.23044: AVG IPC :1.21205: L2-Pf-HR :0.98351: L2-HR :0.92901: (Sim:0h9m1s) 
CPU  0 inst:  118000000 cyc:   96678812 now IPC :1.22321: AVG IPC :1.21214: L2-Pf-HR :0.98351: L2-HR :0.92896: (Sim:0h9m4s) 
CPU  0 inst:  119000003 cyc:   97498404 now IPC :1.22012: AVG IPC :1.21221: L2-Pf-HR :0.98351: L2-HR :0.92891: (Sim:0h9m8s) 
CPU  0 inst:  120000000 cyc:   98425963 now IPC :1.07810: AVG IPC :1.21093: L2-Pf-HR :0.98346: L2-HR :0.92879: (Sim:0h9m12s) 
CPU  0 inst:  121000002 cyc:   99243953 now IPC :1.22251: AVG IPC :1.21103: L2-Pf-HR :0.98348: L2-HR :0.92879: (Sim:0h9m17s) 
CPU  0 inst:  122000001 cyc:  100057547 now IPC :1.22911: AVG IPC :1.21118: L2-Pf-HR :0.98350: L2-HR :0.92880: (Sim:0h9m21s) 
CPU  0 inst:  123000002 cyc:  100870571 now IPC :1.22998: AVG IPC :1.21133: L2-Pf-HR :0.98352: L2-HR :0.92881: (Sim:0h9m25s) 
CPU  0 inst:  124000000 cyc:  101682185 now IPC :1.23211: AVG IPC :1.21150: L2-Pf-HR :0.98354: L2-HR :0.92882: (Sim:0h9m29s) 
CPU  0 inst:  125000000 cyc:  102495116 now IPC :1.23012: AVG IPC :1.21165: L2-Pf-HR :0.98356: L2-HR :0.92883: (Sim:0h9m33s) 
CPU  0 inst:  126000001 cyc:  103380465 now IPC :1.12950: AVG IPC :1.21094: L2-Pf-HR :0.98357: L2-HR :0.92880: (Sim:0h9m36s) 
CPU  0 inst:  127000002 cyc:  104186918 now IPC :1.24000: AVG IPC :1.21116: L2-Pf-HR :0.98358: L2-HR :0.92879: (Sim:0h9m40s) 
CPU  0 inst:  128000000 cyc:  104992978 now IPC :1.24060: AVG IPC :1.21139: L2-Pf-HR :0.98358: L2-HR :0.92876: (Sim:0h9m43s) 
CPU  0 inst:  129000002 cyc:  105799010 now IPC :1.24065: AVG IPC :1.21162: L2-Pf-HR :0.98358: L2-HR :0.92874: (Sim:0h9m47s) 
CPU  0 inst:  130000003 cyc:  111010809 now IPC :0.19187: AVG IPC :1.16331: L2-Pf-HR :0.98358: L2-HR :0.92325: (Sim:0h10m0s) 
CPU  0 inst:  131000002 cyc:  117401486 now IPC :0.15648: AVG IPC :1.10805: L2-Pf-HR :0.98358: L2-HR :0.91649: (Sim:0h10m21s) 
CPU  0 inst:  132000000 cyc:  123790302 now IPC :0.15652: AVG IPC :1.05855: L2-Pf-HR :0.98358: L2-HR :0.90994: (Sim:0h10m37s) 
CPU  0 inst:  133000000 cyc:  130178236 now IPC :0.15655: AVG IPC :1.01395: L2-Pf-HR :0.98358: L2-HR :0.90360: (Sim:0h10m57s) 
CPU  0 inst:  134000000 cyc:  136439398 now IPC :0.15971: AVG IPC :0.97446: L2-Pf-HR :0.98358: L2-HR :0.89767: (Sim:0h11m19s) 
CPU  0 inst:  135000000 cyc:  141908567 now IPC :0.18284: AVG IPC :0.94374: L2-Pf-HR :0.98358: L2-HR :0.89671: (Sim:0h11m30s) 
CPU  0 inst:  136000000 cyc:  147335283 now IPC :0.18427: AVG IPC :0.91558: L2-Pf-HR :0.98358: L2-HR :0.89576: (Sim:0h11m42s) 
CPU  0 inst:  137000000 cyc:  152424806 now IPC :0.19648: AVG IPC :0.89142: L2-Pf-HR :0.98358: L2-HR :0.89481: (Sim:0h11m53s) 
CPU  0 inst:  138000002 cyc:  157493751 now IPC :0.19728: AVG IPC :0.86894: L2-Pf-HR :0.98358: L2-HR :0.89386: (Sim:0h12m3s) 
CPU  0 inst:  139000000 cyc:  162462251 now IPC :0.20127: AVG IPC :0.84839: L2-Pf-HR :0.98358: L2-HR :0.89292: (Sim:0h12m14s) 
CPU  0 inst:  140000000 cyc:  167538017 now IPC :0.19701: AVG IPC :0.82854: L2-Pf-HR :0.98358: L2-HR :0.89198: (Sim:0h12m25s) 
CPU  0 inst:  141000003 cyc:  172592461 now IPC :0.19785: AVG IPC :0.80997: L2-Pf-HR :0.98358: L2-HR :0.89104: (Sim:0h12m36s) 
CPU  0 inst:  142000003 cyc:  177715708 now IPC :0.19519: AVG IPC :0.79215: L2-Pf-HR :0.98358: L2-HR :0.89011: (Sim:0h12m47s) 
CPU  0 inst:  143000000 cyc:  182635098 now IPC :0.20328: AVG IPC :0.77620: L2-Pf-HR :0.98358: L2-HR :0.88917: (Sim:0h12m57s) 
CPU  0 inst:  144000000 cyc:  187492782 now IPC :0.20586: AVG IPC :0.76134: L2-Pf-HR :0.98358: L2-HR :0.88825: (Sim:0h13m8s) 
CPU  0 inst:  145000002 cyc:  192828790 now IPC :0.18741: AVG IPC :0.74538: L2-Pf-HR :0.98358: L2-HR :0.88732: (Sim:0h13m19s) 
CPU  0 inst:  146000000 cyc:  197957177 now IPC :0.19499: AVG IPC :0.73105: L2-Pf-HR :0.98358: L2-HR :0.88640: (Sim:0h13m31s) 
CPU  0 inst:  147000000 cyc:  203100878 now IPC :0.19441: AVG IPC :0.71739: L2-Pf-HR :0.98358: L2-HR :0.88548: (Sim:0h13m42s) 
CPU  0 inst:  148000000 cyc:  208162658 now IPC :0.19756: AVG IPC :0.70469: L2-Pf-HR :0.98358: L2-HR :0.88456: (Sim:0h13m52s) 
CPU  0 inst:  149000002 cyc:  213244780 now IPC :0.19677: AVG IPC :0.69253: L2-Pf-HR :0.98358: L2-HR :0.88365: (Sim:0h14m3s) 
CPU  0 inst:  150000000 cyc:  218469205 now IPC :0.19141: AVG IPC :0.68049: L2-Pf-HR :0.98358: L2-HR :0.88274: (Sim:0h14m12s) 
CPU  0 inst:  151000000 cyc:  223624855 now IPC :0.19396: AVG IPC :0.66923: L2-Pf-HR :0.98358: L2-HR :0.88183: (Sim:0h14m20s) 
CPU  0 inst:  152000000 cyc:  228752654 now IPC :0.19502: AVG IPC :0.65855: L2-Pf-HR :0.98358: L2-HR :0.88093: (Sim:0h14m27s) 
CPU  0 inst:  153000002 cyc:  233796196 now IPC :0.19827: AVG IPC :0.64858: L2-Pf-HR :0.98358: L2-HR :0.88003: (Sim:0h14m34s) 
CPU  0 inst:  154000000 cyc:  238805348 now IPC :0.19963: AVG IPC :0.63913: L2-Pf-HR :0.98358: L2-HR :0.87913: (Sim:0h14m45s) 
CPU  0 inst:  155000000 cyc:  243663123 now IPC :0.20586: AVG IPC :0.63045: L2-Pf-HR :0.98358: L2-HR :0.87824: (Sim:0h14m55s) 
CPU  0 inst:  156000000 cyc:  248493606 now IPC :0.20702: AVG IPC :0.62219: L2-Pf-HR :0.98358: L2-HR :0.87734: (Sim:0h15m6s) 
CPU  0 inst:  157000002 cyc:  253548119 now IPC :0.19784: AVG IPC :0.61370: L2-Pf-HR :0.98358: L2-HR :0.87645: (Sim:0h15m17s) 
CPU  0 inst:  158000003 cyc:  258575673 now IPC :0.19890: AVG IPC :0.60560: L2-Pf-HR :0.98358: L2-HR :0.87557: (Sim:0h15m28s) 
CPU  0 inst:  159000003 cyc:  263358669 now IPC :0.20907: AVG IPC :0.59837: L2-Pf-HR :0.98358: L2-HR :0.87468: (Sim:0h15m39s) 
CPU  0 inst:  160000000 cyc:  268204861 now IPC :0.20635: AVG IPC :0.59126: L2-Pf-HR :0.98358: L2-HR :0.87381: (Sim:0h15m50s) 
CPU  0 inst:  161000000 cyc:  273063926 now IPC :0.20580: AVG IPC :0.58438: L2-Pf-HR :0.98358: L2-HR :0.87293: (Sim:0h16m1s) 
CPU  0 inst:  162000003 cyc:  278206697 now IPC :0.19445: AVG IPC :0.57715: L2-Pf-HR :0.98358: L2-HR :0.87205: (Sim:0h16m12s) 
CPU  0 inst:  163000003 cyc:  283138642 now IPC :0.20276: AVG IPC :0.57060: L2-Pf-HR :0.98358: L2-HR :0.87118: (Sim:0h16m23s) 
CPU  0 inst:  164000000 cyc:  288105412 now IPC :0.20134: AVG IPC :0.56421: L2-Pf-HR :0.98358: L2-HR :0.87031: (Sim:0h16m34s) 
CPU  0 inst:  165000001 cyc:  293302495 now IPC :0.19242: AVG IPC :0.55760: L2-Pf-HR :0.98358: L2-HR :0.86944: (Sim:0h16m45s) 
CPU  0 inst:  166000002 cyc:  298281718 now IPC :0.20083: AVG IPC :0.55163: L2-Pf-HR :0.98358: L2-HR :0.86858: (Sim:0h16m56s) 
CPU  0 inst:  167000001 cyc:  303523678 now IPC :0.19077: AVG IPC :0.54538: L2-Pf-HR :0.98358: L2-HR :0.86772: (Sim:0h17m8s) 
CPU  0 inst:  168000000 cyc:  308494677 now IPC :0.20117: AVG IPC :0.53981: L2-Pf-HR :0.98358: L2-HR :0.86686: (Sim:0h17m18s) 
CPU  0 inst:  169000001 cyc:  313557916 now IPC :0.19750: AVG IPC :0.53427: L2-Pf-HR :0.98358: L2-HR :0.86601: (Sim:0h17m30s) 
CPU  0 inst:  170000002 cyc:  318592076 now IPC :0.19864: AVG IPC :0.52895: L2-Pf-HR :0.98358: L2-HR :0.86515: (Sim:0h17m41s) 
CPU  0 inst:  171000000 cyc:  323483895 now IPC :0.20442: AVG IPC :0.52403: L2-Pf-HR :0.98358: L2-HR :0.86430: (Sim:0h17m51s) 
CPU  0 inst:  172000000 cyc:  328606656 now IPC :0.19521: AVG IPC :0.51888: L2-Pf-HR :0.98358: L2-HR :0.86346: (Sim:0h18m3s) 
CPU  0 inst:  173000000 cyc:  333662239 now IPC :0.19780: AVG IPC :0.51400: L2-Pf-HR :0.98358: L2-HR :0.86261: (Sim:0h18m14s) 
CPU  0 inst:  174000002 cyc:  338805256 now IPC :0.19444: AVG IPC :0.50914: L2-Pf-HR :0.98358: L2-HR :0.86177: (Sim:0h18m25s) 
CPU  0 inst:  175000000 cyc:  344003130 now IPC :0.19239: AVG IPC :0.50434: L2-Pf-HR :0.98358: L2-HR :0.86093: (Sim:0h18m36s) 
CPU  0 inst:  176000000 cyc:  349155567 now IPC :0.19408: AVG IPC :0.49975: L2-Pf-HR :0.98358: L2-HR :0.86010: (Sim:0h18m47s) 
CPU  0 inst:  177000000 cyc:  354088643 now IPC :0.20271: AVG IPC :0.49560: L2-Pf-HR :0.98358: L2-HR :0.85926: (Sim:0h18m58s) 
CPU  0 inst:  178000002 cyc:  358980032 now IPC :0.20444: AVG IPC :0.49162: L2-Pf-HR :0.98358: L2-HR :0.85843: (Sim:0h19m9s) 
CPU  0 inst:  179000003 cyc:  363749542 now IPC :0.20967: AVG IPC :0.48791: L2-Pf-HR :0.98358: L2-HR :0.85760: (Sim:0h19m19s) 
CPU  0 inst:  180000000 cyc:  368451369 now IPC :0.21268: AVG IPC :0.48439: L2-Pf-HR :0.98358: L2-HR :0.85678: (Sim:0h19m28s) 
CPU  0 inst:  181000000 cyc:  373302612 now IPC :0.20613: AVG IPC :0.48077: L2-Pf-HR :0.98358: L2-HR :0.85595: (Sim:0h19m38s) 
CPU  0 inst:  182000000 cyc:  378264602 now IPC :0.20153: AVG IPC :0.47709: L2-Pf-HR :0.98358: L2-HR :0.85513: (Sim:0h19m49s) 
CPU  0 inst:  183000000 cyc:  383535822 now IPC :0.18971: AVG IPC :0.47313: L2-Pf-HR :0.98358: L2-HR :0.85432: (Sim:0h19m59s) 
CPU  0 inst:  184000000 cyc:  388727162 now IPC :0.19263: AVG IPC :0.46938: L2-Pf-HR :0.98358: L2-HR :0.85350: (Sim:0h20m7s) 
CPU  0 inst:  185000000 cyc:  393795012 now IPC :0.19732: AVG IPC :0.46587: L2-Pf-HR :0.98358: L2-HR :0.85269: (Sim:0h20m16s) 
CPU  0 inst:  186000001 cyc:  398795179 now IPC :0.19999: AVG IPC :0.46253: L2-Pf-HR :0.98358: L2-HR :0.85187: (Sim:0h20m24s) 
CPU  0 inst:  187000002 cyc:  403659927 now IPC :0.20556: AVG IPC :0.45942: L2-Pf-HR :0.98358: L2-HR :0.85107: (Sim:0h20m32s) 
CPU  0 inst:  188000000 cyc:  408504254 now IPC :0.20643: AVG IPC :0.45642: L2-Pf-HR :0.98358: L2-HR :0.85026: (Sim:0h20m38s) 
CPU  0 inst:  189000000 cyc:  413477991 now IPC :0.20106: AVG IPC :0.45334: L2-Pf-HR :0.98358: L2-HR :0.84946: (Sim:0h20m46s) 
CPU  0 inst:  190000002 cyc:  418532979 now IPC :0.19782: AVG IPC :0.45024: L2-Pf-HR :0.98358: L2-HR :0.84866: (Sim:0h20m56s) 
CPU  0 inst:  191000000 cyc:  423542676 now IPC :0.19961: AVG IPC :0.44727: L2-Pf-HR :0.98358: L2-HR :0.84786: (Sim:0h21m7s) 
CPU  0 inst:  192000000 cyc:  428496159 now IPC :0.20188: AVG IPC :0.44443: L2-Pf-HR :0.98358: L2-HR :0.84706: (Sim:0h21m18s) 
CPU  0 inst:  193000000 cyc:  433517308 now IPC :0.19916: AVG IPC :0.44158: L2-Pf-HR :0.98358: L2-HR :0.84627: (Sim:0h21m29s) 
CPU  0 inst:  194000000 cyc:  438579142 now IPC :0.19756: AVG IPC :0.43876: L2-Pf-HR :0.98358: L2-HR :0.84548: (Sim:0h21m40s) 
CPU  0 inst:  195000002 cyc:  443504916 now IPC :0.20301: AVG IPC :0.43613: L2-Pf-HR :0.98358: L2-HR :0.84469: (Sim:0h21m51s) 
CPU  0 inst:  196000000 cyc:  448464745 now IPC :0.20162: AVG IPC :0.43353: L2-Pf-HR :0.98358: L2-HR :0.84391: (Sim:0h21m59s) 
CPU  0 inst:  197000002 cyc:  453520319 now IPC :0.19780: AVG IPC :0.43090: L2-Pf-HR :0.98358: L2-HR :0.84312: (Sim:0h22m7s) 
CPU  0 inst:  198000003 cyc:  457084213 now IPC :0.28059: AVG IPC :0.42973: L2-Pf-HR :0.98355: L2-HR :0.84285: (Sim:0h22m14s) 
CPU  0 inst:  199000000 cyc:  458099127 now IPC :0.98530: AVG IPC :0.43096: L2-Pf-HR :0.98347: L2-HR :0.84352: (Sim:0h22m20s) 
CPU  0 inst:  200000000 cyc:  459045964 now IPC :1.05615: AVG IPC :0.43225: L2-Pf-HR :0.98338: L2-HR :0.84418: (Sim:0h22m26s) 
CPU  0 inst:  201000000 cyc:  459984604 now IPC :1.06537: AVG IPC :0.43355: L2-Pf-HR :0.98324: L2-HR :0.84479: (Sim:0h22m33s) 
CPU  0 inst:  202000003 cyc:  461066011 now IPC :0.92472: AVG IPC :0.43470: L2-Pf-HR :0.98298: L2-HR :0.84525: (Sim:0h22m42s) 
CPU  0 inst:  203000002 cyc:  461989022 now IPC :1.08341: AVG IPC :0.43600: L2-Pf-HR :0.98279: L2-HR :0.84591: (Sim:0h22m50s) 
CPU  0 inst:  204000000 cyc:  462882947 now IPC :1.11866: AVG IPC :0.43732: L2-Pf-HR :0.98260: L2-HR :0.84653: (Sim:0h22m58s) 
CPU  0 inst:  205000003 cyc:  463763510 now IPC :1.13564: AVG IPC :0.43865: L2-Pf-HR :0.98241: L2-HR :0.84711: (Sim:0h23m7s) 
CPU  0 inst:  206000000 cyc:  464728929 now IPC :1.03582: AVG IPC :0.43989: L2-Pf-HR :0.98207: L2-HR :0.84751: (Sim:0h23m13s) 
CPU  0 inst:  207000002 cyc:  465681012 now IPC :1.05033: AVG IPC :0.44114: L2-Pf-HR :0.98187: L2-HR :0.84813: (Sim:0h23m19s) 
CPU  0 inst:  208000000 cyc:  466575391 now IPC :1.11809: AVG IPC :0.44244: L2-Pf-HR :0.98167: L2-HR :0.84874: (Sim:0h23m25s) 
CPU  0 inst:  209000002 cyc:  467447613 now IPC :1.14650: AVG IPC :0.44376: L2-Pf-HR :0.98147: L2-HR :0.84933: (Sim:0h23m32s) 
CPU  0 inst:  210000000 cyc:  468337577 now IPC :1.12364: AVG IPC :0.44506: L2-Pf-HR :0.98120: L2-HR :0.84982: (Sim:0h23m38s) 
CPU  0 inst:  211000003 cyc:  469326388 now IPC :1.01132: AVG IPC :0.44625: L2-Pf-HR :0.98095: L2-HR :0.85030: (Sim:0h23m44s) 
CPU  0 inst:  212000000 cyc:  470220923 now IPC :1.11790: AVG IPC :0.44753: L2-Pf-HR :0.98079: L2-HR :0.85085: (Sim:0h23m51s) 
CPU  0 inst:  213000001 cyc:  471099780 now IPC :1.13784: AVG IPC :0.44882: L2-Pf-HR :0.98061: L2-HR :0.85136: (Sim:0h23m58s) 
CPU  0 inst:  214000002 cyc:  471951093 now IPC :1.17466: AVG IPC :0.45013: L2-Pf-HR :0.98045: L2-HR :0.85187: (Sim:0h24m4s) 
CPU  0 inst:  215000002 cyc:  472934392 now IPC :1.01698: AVG IPC :0.45132: L2-Pf-HR :0.98026: L2-HR :0.85229: (Sim:0h24m11s) 
CPU  0 inst:  216000000 cyc:  473857088 now IPC :1.08378: AVG IPC :0.45255: L2-Pf-HR :0.98022: L2-HR :0.85286: (Sim:0h24m18s) 
CPU  0 inst:  217000001 cyc:  474795163 now IPC :1.06601: AVG IPC :0.45376: L2-Pf-HR :0.98015: L2-HR :0.85338: (Sim:0h24m25s) 
CPU  0 inst:  218000001 cyc:  475724172 now IPC :1.07642: AVG IPC :0.45498: L2-Pf-HR :0.98007: L2-HR :0.85388: (Sim:0h24m32s) 
CPU  0 inst:  219000000 cyc:  476690249 now IPC :1.03511: AVG IPC :0.45616: L2-Pf-HR :0.97983: L2-HR :0.85426: (Sim:0h24m39s) 
CPU  0 inst:  220000000 cyc:  477556709 now IPC :1.15412: AVG IPC :0.45743: L2-Pf-HR :0.97968: L2-HR :0.85478: (Sim:0h24m47s) 
CPU  0 inst:  221000000 cyc:  478467382 now IPC :1.09809: AVG IPC :0.45865: L2-Pf-HR :0.97951: L2-HR :0.85525: (Sim:0h24m56s) 
CPU  0 inst:  222000003 cyc:  479372777 now IPC :1.10449: AVG IPC :0.45987: L2-Pf-HR :0.97932: L2-HR :0.85568: (Sim:0h25m5s) 
CPU  0 inst:  223000002 cyc:  480287719 now IPC :1.09296: AVG IPC :0.46108: L2-Pf-HR :0.97906: L2-HR :0.85607: (Sim:0h25m14s) 
CPU  0 inst:  224000000 cyc:  481138938 now IPC :1.17478: AVG IPC :0.46235: L2-Pf-HR :0.97892: L2-HR :0.85660: (Sim:0h25m23s) 
CPU  0 inst:  225000002 cyc:  482060110 now IPC :1.08558: AVG IPC :0.46354: L2-Pf-HR :0.97876: L2-HR :0.85708: (Sim:0h25m32s) 
CPU  0 inst:  226000001 cyc:  482951014 now IPC :1.12245: AVG IPC :0.46476: L2-Pf-HR :0.97858: L2-HR :0.85752: (Sim:0h25m40s) 
CPU  0 inst:  227000003 cyc:  483852620 now IPC :1.10913: AVG IPC :0.46596: L2-Pf-HR :0.97832: L2-HR :0.85792: (Sim:0h25m49s) 
CPU  0 inst:  228000000 cyc:  484720526 now IPC :1.15220: AVG IPC :0.46719: L2-Pf-HR :0.97819: L2-HR :0.85836: (Sim:0h25m59s) 
CPU  0 inst:  229000000 cyc:  485628016 now IPC :1.10194: AVG IPC :0.46838: L2-Pf-HR :0.97804: L2-HR :0.85876: (Sim:0h26m8s) 
CPU  0 inst:  230000001 cyc:  486518905 now IPC :1.12248: AVG IPC :0.46958: L2-Pf-HR :0.97789: L2-HR :0.85916: (Sim:0h26m17s) 
CPU  0 inst:  231000002 cyc:  487384772 now IPC :1.15491: AVG IPC :0.47080: L2-Pf-HR :0.97763: L2-HR :0.85947: (Sim:0h26m25s) 
CPU  0 inst:  232000000 cyc:  488359128 now IPC :1.02632: AVG IPC :0.47191: L2-Pf-HR :0.97760: L2-HR :0.85991: (Sim:0h26m33s) 
CPU  0 inst:  233000002 cyc:  489310706 now IPC :1.05089: AVG IPC :0.47304: L2-Pf-HR :0.97758: L2-HR :0.86036: (Sim:0h26m42s) 
CPU  0 inst:  234000001 cyc:  490222165 now IPC :1.09714: AVG IPC :0.47420: L2-Pf-HR :0.97755: L2-HR :0.86080: (Sim:0h26m50s) 
CPU  0 inst:  235000000 cyc:  491150975 now IPC :1.07665: AVG IPC :0.47534: L2-Pf-HR :0.97750: L2-HR :0.86118: (Sim:0h26m59s) 
CPU  0 inst:  236000000 cyc:  492094103 now IPC :1.06030: AVG IPC :0.47647: L2-Pf-HR :0.97726: L2-HR :0.86151: (Sim:0h27m7s) 
CPU  0 inst:  237000002 cyc:  492987213 now IPC :1.11969: AVG IPC :0.47764: L2-Pf-HR :0.97711: L2-HR :0.86191: (Sim:0h27m14s) 
CPU  0 inst:  238000002 cyc:  493850543 now IPC :1.15831: AVG IPC :0.47883: L2-Pf-HR :0.97697: L2-HR :0.86230: (Sim:0h27m23s) 
CPU  0 inst:  239000003 cyc:  494709002 now IPC :1.16488: AVG IPC :0.48002: L2-Pf-HR :0.97682: L2-HR :0.86266: (Sim:0h27m31s) 
CPU  0 inst:  240000000 cyc:  495656726 now IPC :1.05516: AVG IPC :0.48112: L2-Pf-HR :0.97657: L2-HR :0.86295: (Sim:0h27m40s) 
CPU  0 inst:  241000003 cyc:  496539088 now IPC :1.13333: AVG IPC :0.48228: L2-Pf-HR :0.97642: L2-HR :0.86335: (Sim:0h27m48s) 
CPU  0 inst:  242000001 cyc:  497407779 now IPC :1.15115: AVG IPC :0.48345: L2-Pf-HR :0.97628: L2-HR :0.86375: (Sim:0h27m56s) 
CPU  0 inst:  243000001 cyc:  498257769 now IPC :1.17648: AVG IPC :0.48464: L2-Pf-HR :0.97611: L2-HR :0.86413: (Sim:0h28m4s) 
CPU  0 inst:  244000000 cyc:  499196077 now IPC :1.06575: AVG IPC :0.48573: L2-Pf-HR :0.97587: L2-HR :0.86439: (Sim:0h28m13s) 
CPU  0 inst:  245000000 cyc:  500053633 now IPC :1.16610: AVG IPC :0.48690: L2-Pf-HR :0.97575: L2-HR :0.86476: (Sim:0h28m21s) 
CPU  0 inst:  246000000 cyc:  500919513 now IPC :1.15489: AVG IPC :0.48806: L2-Pf-HR :0.97563: L2-HR :0.86512: (Sim:0h28m29s) 
CPU  0 inst:  247000000 cyc:  501773695 now IPC :1.17071: AVG IPC :0.48922: L2-Pf-HR :0.97551: L2-HR :0.86546: (Sim:0h28m37s) 
CPU  0 inst:  248000000 cyc:  502721008 now IPC :1.05562: AVG IPC :0.49029: L2-Pf-HR :0.97532: L2-HR :0.86570: (Sim:0h28m45s) 
CPU  0 inst:  249000000 cyc:  503628943 now IPC :1.10140: AVG IPC :0.49140: L2-Pf-HR :0.97530: L2-HR :0.86610: (Sim:0h28m52s) 
CPU  0 inst:  250000000 cyc:  504563078 now IPC :1.07051: AVG IPC :0.49247: L2-Pf-HR :0.97529: L2-HR :0.86647: (Sim:0h28m59s) 
CPU  0 inst:  251000003 cyc:  505478496 now IPC :1.09240: AVG IPC :0.49356: L2-Pf-HR :0.97527: L2-HR :0.86684: (Sim:0h29m7s) 
CPU  0 inst:  252000000 cyc:  506463093 now IPC :1.01564: AVG IPC :0.49458: L2-Pf-HR :0.97512: L2-HR :0.86707: (Sim:0h29m15s) 
CPU  0 inst:  253000002 cyc:  507322305 now IPC :1.16386: AVG IPC :0.49571: L2-Pf-HR :0.97500: L2-HR :0.86742: (Sim:0h29m23s) 
CPU  0 inst:  254000001 cyc:  508225824 now IPC :1.10678: AVG IPC :0.49680: L2-Pf-HR :0.97488: L2-HR :0.86776: (Sim:0h29m30s) 
CPU  0 inst:  255000001 cyc:  509091204 now IPC :1.15556: AVG IPC :0.49792: L2-Pf-HR :0.97475: L2-HR :0.86807: (Sim:0h29m37s) 
CPU  0 inst:  256000000 cyc:  509995928 now IPC :1.10531: AVG IPC :0.49900: L2-Pf-HR :0.97455: L2-HR :0.86830: (Sim:0h29m46s) 
CPU  0 inst:  257000003 cyc:  510884196 now IPC :1.12579: AVG IPC :0.50009: L2-Pf-HR :0.97438: L2-HR :0.86861: (Sim:0h29m53s) 
CPU  0 inst:  258000001 cyc:  511792377 now IPC :1.10110: AVG IPC :0.50116: L2-Pf-HR :0.97422: L2-HR :0.86893: (Sim:0h30m2s) 
CPU  0 inst:  259000003 cyc:  512669783 now IPC :1.13973: AVG IPC :0.50226: L2-Pf-HR :0.97406: L2-HR :0.86922: (Sim:0h30m10s) 
CPU  0 inst:  260000000 cyc:  513541325 now IPC :1.14739: AVG IPC :0.50335: L2-Pf-HR :0.97390: L2-HR :0.86952: (Sim:0h30m19s) 
CPU  0 inst:  261000001 cyc:  514438415 now IPC :1.11472: AVG IPC :0.50442: L2-Pf-HR :0.97370: L2-HR :0.86976: (Sim:0h30m27s) 
CPU  0 inst:  262000002 cyc:  515325783 now IPC :1.12693: AVG IPC :0.50550: L2-Pf-HR :0.97360: L2-HR :0.87005: (Sim:0h30m36s) 
CPU  0 inst:  263000001 cyc:  516211104 now IPC :1.12953: AVG IPC :0.50657: L2-Pf-HR :0.97350: L2-HR :0.87034: (Sim:0h30m44s) 
CPU  0 inst:  264000000 cyc:  517081498 now IPC :1.14890: AVG IPC :0.50765: L2-Pf-HR :0.97341: L2-HR :0.87063: (Sim:0h30m53s) 
CPU  0 inst:  265000002 cyc:  518005540 now IPC :1.08220: AVG IPC :0.50868: L2-Pf-HR :0.97328: L2-HR :0.87087: (Sim:0h31m1s) 
CPU  0 inst:  266000000 cyc:  518964540 now IPC :1.04275: AVG IPC :0.50967: L2-Pf-HR :0.97327: L2-HR :0.87118: (Sim:0h31m10s) 
CPU  0 inst:  267000001 cyc:  519915275 now IPC :1.05182: AVG IPC :0.51066: L2-Pf-HR :0.97325: L2-HR :0.87147: (Sim:0h31m19s) 
CPU  0 inst:  268000000 cyc:  520820773 now IPC :1.10436: AVG IPC :0.51170: L2-Pf-HR :0.97323: L2-HR :0.87176: (Sim:0h31m27s) 
CPU  0 inst:  269000000 cyc:  521786886 now IPC :1.03508: AVG IPC :0.51267: L2-Pf-HR :0.97307: L2-HR :0.87196: (Sim:0h31m36s) 
CPU  0 inst:  270000003 cyc:  522679702 now IPC :1.12005: AVG IPC :0.51371: L2-Pf-HR :0.97297: L2-HR :0.87225: (Sim:0h31m45s) 
CPU  0 inst:  271000000 cyc:  523573201 now IPC :1.11919: AVG IPC :0.51474: L2-Pf-HR :0.97286: L2-HR :0.87253: (Sim:0h31m53s) 
CPU  0 inst:  272000000 cyc:  524435565 now IPC :1.15960: AVG IPC :0.51580: L2-Pf-HR :0.97274: L2-HR :0.87279: (Sim:0h32m2s) 
CPU  0 inst:  273000003 cyc:  525375700 now IPC :1.06368: AVG IPC :0.51679: L2-Pf-HR :0.97255: L2-HR :0.87297: (Sim:0h32m10s) 
CPU  0 inst:  274000002 cyc:  526236239 now IPC :1.16206: AVG IPC :0.51784: L2-Pf-HR :0.97243: L2-HR :0.87326: (Sim:0h32m19s) 
CPU  0 inst:  275000002 cyc:  527130241 now IPC :1.11857: AVG IPC :0.51886: L2-Pf-HR :0.97229: L2-HR :0.87353: (Sim:0h32m27s) 
CPU  0 inst:  276000000 cyc:  527983170 now IPC :1.17243: AVG IPC :0.51992: L2-Pf-HR :0.97216: L2-HR :0.87381: (Sim:0h32m36s) 
CPU  0 inst:  277000001 cyc:  528890803 now IPC :1.10177: AVG IPC :0.52092: L2-Pf-HR :0.97196: L2-HR :0.87400: (Sim:0h32m43s) 
CPU  0 inst:  278000001 cyc:  529770205 now IPC :1.13714: AVG IPC :0.52195: L2-Pf-HR :0.97188: L2-HR :0.87428: (Sim:0h32m52s) 
CPU  0 inst:  279000002 cyc:  530657829 now IPC :1.12660: AVG IPC :0.52296: L2-Pf-HR :0.97177: L2-HR :0.87451: (Sim:0h33m1s) 
CPU  0 inst:  280000000 cyc:  531518192 now IPC :1.16230: AVG IPC :0.52400: L2-Pf-HR :0.97167: L2-HR :0.87477: (Sim:0h33m10s) 
CPU  0 inst:  281000002 cyc:  532399472 now IPC :1.13472: AVG IPC :0.52501: L2-Pf-HR :0.97155: L2-HR :0.87497: (Sim:0h33m19s) 
CPU  0 inst:  282000000 cyc:  533354430 now IPC :1.04716: AVG IPC :0.52595: L2-Pf-HR :0.97149: L2-HR :0.87520: (Sim:0h33m28s) 
CPU  0 inst:  283000001 cyc:  534284701 now IPC :1.07496: AVG IPC :0.52690: L2-Pf-HR :0.97150: L2-HR :0.87549: (Sim:0h33m37s) 
CPU  0 inst:  284000000 cyc:  535191602 now IPC :1.10266: AVG IPC :0.52788: L2-Pf-HR :0.97150: L2-HR :0.87576: (Sim:0h33m44s) 
CPU  0 inst:  285000000 cyc:  536106405 now IPC :1.09313: AVG IPC :0.52885: L2-Pf-HR :0.97150: L2-HR :0.87603: (Sim:0h33m53s) 
CPU  0 inst:  286000000 cyc:  537060633 now IPC :1.04797: AVG IPC :0.52977: L2-Pf-HR :0.97134: L2-HR :0.87619: (Sim:0h34m2s) 
CPU  0 inst:  287000002 cyc:  537946477 now IPC :1.12887: AVG IPC :0.53076: L2-Pf-HR :0.97124: L2-HR :0.87643: (Sim:0h34m11s) 
CPU  0 inst:  288000000 cyc:  538825379 now IPC :1.13778: AVG IPC :0.53175: L2-Pf-HR :0.97115: L2-HR :0.87666: (Sim:0h34m20s) 
CPU  0 inst:  289000003 cyc:  539688884 now IPC :1.15807: AVG IPC :0.53276: L2-Pf-HR :0.97106: L2-HR :0.87688: (Sim:0h34m29s) 
CPU  0 inst:  290000000 cyc:  540621817 now IPC :1.07189: AVG IPC :0.53369: L2-Pf-HR :0.97089: L2-HR :0.87704: (Sim:0h34m37s) 
CPU  0 inst:  291000003 cyc:  541490497 now IPC :1.15118: AVG IPC :0.53468: L2-Pf-HR :0.97079: L2-HR :0.87730: (Sim:0h34m46s) 
CPU  0 inst:  292000000 cyc:  542366363 now IPC :1.14172: AVG IPC :0.53566: L2-Pf-HR :0.97072: L2-HR :0.87757: (Sim:0h34m56s) 
CPU  0 inst:  293000002 cyc:  543239567 now IPC :1.14521: AVG IPC :0.53664: L2-Pf-HR :0.97064: L2-HR :0.87782: (Sim:0h35m5s) 
CPU  0 inst:  294000000 cyc:  544156038 now IPC :1.09114: AVG IPC :0.53758: L2-Pf-HR :0.97048: L2-HR :0.87799: (Sim:0h35m14s) 
CPU  0 inst:  295000001 cyc:  545017287 now IPC :1.16111: AVG IPC :0.53857: L2-Pf-HR :0.97038: L2-HR :0.87821: (Sim:0h35m23s) 
CPU  0 inst:  296000000 cyc:  545900378 now IPC :1.13239: AVG IPC :0.53953: L2-Pf-HR :0.97031: L2-HR :0.87844: (Sim:0h35m32s) 
CPU  0 inst:  297000002 cyc:  546778462 now IPC :1.13885: AVG IPC :0.54049: L2-Pf-HR :0.97023: L2-HR :0.87865: (Sim:0h35m41s) 
CPU  0 inst:  298000002 cyc:  547691432 now IPC :1.09533: AVG IPC :0.54142: L2-Pf-HR :0.97009: L2-HR :0.87879: (Sim:0h35m50s) 
CPU  0 inst:  299000000 cyc:  548603609 now IPC :1.09628: AVG IPC :0.54234: L2-Pf-HR :0.97010: L2-HR :0.87904: (Sim:0h35m58s) 
CPU  0 inst:  300000000 cyc:  549576672 now IPC :1.02768: AVG IPC :0.54320: L2-Pf-HR :0.97009: L2-HR :0.87926: (Sim:0h36m6s) 
CPU  0 inst:  301000003 cyc:  550516238 now IPC :1.06432: AVG IPC :0.54410: L2-Pf-HR :0.97007: L2-HR :0.87946: (Sim:0h36m13s) 
CPU  0 inst:  302000002 cyc:  551450691 now IPC :1.07014: AVG IPC :0.54499: L2-Pf-HR :0.96998: L2-HR :0.87962: (Sim:0h36m20s) 
CPU  0 inst:  303000001 cyc:  552354175 now IPC :1.10683: AVG IPC :0.54591: L2-Pf-HR :0.96991: L2-HR :0.87983: (Sim:0h36m26s) 
CPU  0 inst:  304000000 cyc:  553282344 now IPC :1.07739: AVG IPC :0.54680: L2-Pf-HR :0.96982: L2-HR :0.88002: (Sim:0h36m32s) 
CPU  0 inst:  305000003 cyc:  554157194 now IPC :1.14306: AVG IPC :0.54775: L2-Pf-HR :0.96972: L2-HR :0.88021: (Sim:0h36m39s) 
CPU  0 inst:  306000001 cyc:  555052253 now IPC :1.11724: AVG IPC :0.54867: L2-Pf-HR :0.96961: L2-HR :0.88037: (Sim:0h36m45s) 
CPU  0 inst:  307000000 cyc:  555956903 now IPC :1.10540: AVG IPC :0.54957: L2-Pf-HR :0.96948: L2-HR :0.88055: (Sim:0h36m52s) 
CPU  0 inst:  308000000 cyc:  556858951 now IPC :1.10859: AVG IPC :0.55048: L2-Pf-HR :0.96939: L2-HR :0.88077: (Sim:0h36m59s) 
CPU  0 inst:  309000002 cyc:  557725018 now IPC :1.15465: AVG IPC :0.55142: L2-Pf-HR :0.96929: L2-HR :0.88099: (Sim:0h37m7s) 
CPU  0 inst:  310000001 cyc:  558584069 now IPC :1.16407: AVG IPC :0.55236: L2-Pf-HR :0.96922: L2-HR :0.88122: (Sim:0h37m13s) 
CPU  0 inst:  311000001 cyc:  559525107 now IPC :1.06266: AVG IPC :0.55322: L2-Pf-HR :0.96907: L2-HR :0.88134: (Sim:0h37m20s) 
CPU  0 inst:  312000000 cyc:  560395738 now IPC :1.14859: AVG IPC :0.55415: L2-Pf-HR :0.96899: L2-HR :0.88153: (Sim:0h37m27s) 
CPU  0 inst:  313000000 cyc:  561279658 now IPC :1.13132: AVG IPC :0.55506: L2-Pf-HR :0.96890: L2-HR :0.88171: (Sim:0h37m33s) 
CPU  0 inst:  314000001 cyc:  562136498 now IPC :1.16708: AVG IPC :0.55600: L2-Pf-HR :0.96883: L2-HR :0.88191: (Sim:0h37m40s) 
CPU  0 inst:  315000002 cyc:  563110942 now IPC :1.02623: AVG IPC :0.55681: L2-Pf-HR :0.96871: L2-HR :0.88201: (Sim:0h37m47s) 
CPU  0 inst:  316000000 cyc:  564022157 now IPC :1.09743: AVG IPC :0.55769: L2-Pf-HR :0.96868: L2-HR :0.88220: (Sim:0h37m53s) 
CPU  0 inst:  317000000 cyc:  564962696 now IPC :1.06322: AVG IPC :0.55853: L2-Pf-HR :0.96865: L2-HR :0.88238: (Sim:0h38m0s) 
CPU  0 inst:  318000000 cyc:  565875367 now IPC :1.09569: AVG IPC :0.55940: L2-Pf-HR :0.96863: L2-HR :0.88255: (Sim:0h38m7s) 
CPU  0 inst:  319000001 cyc:  566855322 now IPC :1.02046: AVG IPC :0.56019: L2-Pf-HR :0.96850: L2-HR :0.88264: (Sim:0h38m13s) 
CPU  0 inst:  320000000 cyc:  567711260 now IPC :1.16831: AVG IPC :0.56111: L2-Pf-HR :0.96843: L2-HR :0.88283: (Sim:0h38m22s) 
CPU  0 inst:  321000000 cyc:  568618847 now IPC :1.10182: AVG IPC :0.56198: L2-Pf-HR :0.96834: L2-HR :0.88300: (Sim:0h38m30s) 
CPU  0 inst:  322000001 cyc:  569480445 now IPC :1.16064: AVG IPC :0.56288: L2-Pf-HR :0.96827: L2-HR :0.88318: (Sim:0h38m38s) 
CPU  0 inst:  323000000 cyc:  570425403 now IPC :1.05825: AVG IPC :0.56371: L2-Pf-HR :0.96813: L2-HR :0.88327: (Sim:0h38m45s) 
CPU  0 inst:  324000000 cyc:  571284750 now IPC :1.16367: AVG IPC :0.56461: L2-Pf-HR :0.96806: L2-HR :0.88348: (Sim:0h38m51s) 
CPU  0 inst:  325000003 cyc:  572174725 now IPC :1.12363: AVG IPC :0.56548: L2-Pf-HR :0.96800: L2-HR :0.88369: (Sim:0h38m58s) 
CPU  0 inst:  326000000 cyc:  573031659 now IPC :1.16695: AVG IPC :0.56638: L2-Pf-HR :0.96793: L2-HR :0.88389: (Sim:0h39m5s) 
CPU  0 inst:  327000002 cyc:  573919890 now IPC :1.12584: AVG IPC :0.56725: L2-Pf-HR :0.96781: L2-HR :0.88403: (Sim:0h39m12s) 
CPU  0 inst:  328000000 cyc:  574827435 now IPC :1.10187: AVG IPC :0.56810: L2-Pf-HR :0.96773: L2-HR :0.88418: (Sim:0h39m19s) 
Finished CPU 0 instr: 326000001 cyc: 573847025 AVG IPC: 0.56810 (Sim time: 0h39m19s)

ChampSim completed all CPUs

[ROI Statistics]
Core_0_instructions 326000001
Core_0_cycles 573847025
Core_0_IPC 0.56810

Core_0_branch_prediction_accuracy 99.57883
Core_0_branch_MPKI 0.12289
Core_0_average_ROB_occupancy_at_mispredict 237.39614

Core_0_L1D_total_access 98462790
Core_0_L1D_total_hit 85406117 L1D_total_Hit Ratio: 0.86739
Core_0_L1D_total_miss 13056673
Core_0_L1D_loads 89391702
Core_0_L1D_load_hit 76881343 L1D_load_Hit Ratio: 0.86005
Core_0_L1D_load_miss 12510359
Core_0_L1D_RFOs 8556371
Core_0_L1D_RFO_hit 8010057 L1D_RFO_Hit Ratio: 0.93615
Core_0_L1D_RFO_miss 546314
Core_0_L1D_prefetches 514717
Core_0_L1D_prefetch_hit 514717 L1D_prefetch_Hit Ratio: 1.00000
Core_0_L1D_prefetch_miss 0
Core_0_L1D_writebacks 0
Core_0_L1D_writeback_hit 0 L1D_writeback_Hit Ratio: -nan
Core_0_L1D_writeback_miss 0
Core_0_L1D_prefetch_requested 63560655
Core_0_L1D_prefetch_issued 18138088
Core_0_L1D_prefetch_useful 0 L1D_Useful Ratio: 0.00000
Core_0_L1D_prefetch_useless 0
Core_0_L1D_prefetch_late 0
Core_0_L1D_average_miss_latency 79.87250

Core_0_L1I_total_access 83299509
Core_0_L1I_total_hit 83294572 L1I_total_Hit Ratio: 0.99994
Core_0_L1I_total_miss 4937
Core_0_L1I_loads 83299509
Core_0_L1I_load_hit 83294572 L1I_load_Hit Ratio: 0.99994
Core_0_L1I_load_miss 4937
Core_0_L1I_RFOs 0
Core_0_L1I_RFO_hit 0 L1I_RFO_Hit Ratio: -nan
Core_0_L1I_RFO_miss 0
Core_0_L1I_prefetches 0
Core_0_L1I_prefetch_hit 0 L1I_prefetch_Hit Ratio: -nan
Core_0_L1I_prefetch_miss 0
Core_0_L1I_writebacks 0
Core_0_L1I_writeback_hit 0 L1I_writeback_Hit Ratio: -nan
Core_0_L1I_writeback_miss 0
Core_0_L1I_prefetch_requested 0
Core_0_L1I_prefetch_issued 0
Core_0_L1I_prefetch_useful 0 L1I_Useful Ratio: -nan
Core_0_L1I_prefetch_useless 0
Core_0_L1I_prefetch_late 0
Core_0_L1I_average_miss_latency 283.41584

Core_0_L2C_total_access 32165727
Core_0_L2C_total_hit 28440451 L2C_total_Hit Ratio: 0.88418
Core_0_L2C_total_miss 3725276
Core_0_L2C_loads 12515295
Core_0_L2C_load_hit 9871329 L2C_load_Hit Ratio: 0.78874
Core_0_L2C_load_miss 2643966
Core_0_L2C_RFOs 546314
Core_0_L2C_RFO_hit 21166 L2C_RFO_Hit Ratio: 0.03874
Core_0_L2C_RFO_miss 525148
Core_0_L2C_prefetches 17166538
Core_0_L2C_prefetch_hit 16612602 L2C_prefetch_Hit Ratio: 0.96773
Core_0_L2C_prefetch_miss 553936
Core_0_L2C_writebacks 1937580
Core_0_L2C_writeback_hit 1935354 L2C_writeback_Hit Ratio: 0.99885
Core_0_L2C_writeback_miss 2226
Core_0_L2C_prefetch_requested 11009435
Core_0_L2C_prefetch_issued 809411
Core_0_L2C_prefetch_useful 551856 L2C_Useful Ratio: 0.68180
Core_0_L2C_prefetch_useless 3284
Core_0_L2C_prefetch_late 2501
Core_0_L2C_average_miss_latency 236.00735

Core_0_LLC_total_access 5889661
Core_0_LLC_total_hit 3051577 LLC_total_Hit Ratio: 0.51812
Core_0_LLC_total_miss 2838084
Core_0_LLC_loads 2641465
Core_0_LLC_load_hit 385702 LLC_load_Hit Ratio: 0.14602
Core_0_LLC_load_miss 2255763
Core_0_LLC_RFOs 525148
Core_0_LLC_RFO_hit 405 LLC_RFO_Hit Ratio: 0.00077
Core_0_LLC_RFO_miss 524743
Core_0_LLC_prefetches 794515
Core_0_LLC_prefetch_hit 737029 LLC_prefetch_Hit Ratio: 0.92765
Core_0_LLC_prefetch_miss 57486
Core_0_LLC_writebacks 1928533
Core_0_LLC_writeback_hit 1928441 LLC_writeback_Hit Ratio: 0.99995
Core_0_LLC_writeback_miss 92
Core_0_LLC_prefetch_requested 0
Core_0_LLC_prefetch_issued 0
Core_0_LLC_prefetch_useful 17783 LLC_Useful Ratio: inf
Core_0_LLC_prefetch_useless 37960
Core_0_LLC_prefetch_late 36
Core_0_LLC_average_miss_latency 271.73291

Core_0_major_page_fault 0
Core_0_minor_page_fault 19454

CPU 0 L1D next line prefetcher final stats
Prefetcher final stats
Training Unit Size: 4874
Addr table size: 1166821 1166828


Triggers: 2662884
No Prediction: 1190289 44.69924
Stream end: 140996
No translation: 133164303 5000.75493
Predictions: 809411 30.39603


Stream divergence: 69662 2.61604
Stream divergence -- new stream: 0
Channel_0_RQ_row_buffer_hit 1512740
Channel_0_RQ_row_buffer_miss 1325183
Channel_0_WQ_row_buffer_hit 594742
Channel_0_WQ_row_buffer_miss 1064065
Channel_0_WQ_full 0
Channel_0_dbus_congested 1366175

avg_congested_cycle 11

EzSearch AVG IPC :0.56810: L2-Pf-HR :0.96773 : L2-HR :0.88418 Uful:0.68180
     > Finished combination: TraceType=770-tot Sim:326000000 Prefetcher=L2isb_ideal L1=isb_ideal
