TRACE: [1622000000][GPT-Neo-2_7B]_[h32][s1024][d80] Warmup: 2000000 NumTraces: 1622000000
L1:isb_ideal:L2:isb_ideal
*************************************************
   ChampSim Multicore Out-of-Order Simulator
   Last compiled: Oct 26 2024 13:18:23
*************************************************

trace_0 770-tot_memTraces_v3/memTraces[1622000000][GPT-Neo-2_7B]_[h32][s1024][d80].champsim.xz
L1D: Ideal ISB Prefetching
Ideal ISB Prefetching
MAIN.cc ln 751 stats print skipped
CPU  0 inst:    1000003 cyc:     503468 now IPC :1.98623: AVG IPC :1.98623: L2-Pf-HR :0.95150: L2-HR :0.84412: (Sim:0h0m4s) 
CPU  0 inst:    2000000 cyc:     980622 now IPC :2.09575: AVG IPC :2.03952: L2-Pf-HR :0.96916: L2-HR :0.88985: (Sim:0h0m9s) 

Warmup complete CPU  0 instructions:    2000003 cycles:     980623 (Simulation time: 0 hr 0 min 9 sec) 

CPU  0 inst:    3000003 cyc:    1709678 now IPC :1.37164: AVG IPC :1.37164: L2-Pf-HR :0.95922: L2-HR :0.91101: (Sim:0h0m14s) 
CPU  0 inst:    4000000 cyc:    2436305 now IPC :1.37622: AVG IPC :1.37392: L2-Pf-HR :0.96640: L2-HR :0.91828: (Sim:0h0m18s) 
CPU  0 inst:    5000001 cyc:    3165705 now IPC :1.37099: AVG IPC :1.37295: L2-Pf-HR :0.97236: L2-HR :0.92352: (Sim:0h0m21s) 
CPU  0 inst:    6000002 cyc:    3902485 now IPC :1.35726: AVG IPC :1.36899: L2-Pf-HR :0.96745: L2-HR :0.91915: (Sim:0h0m24s) 
CPU  0 inst:    7000003 cyc:    4640733 now IPC :1.35456: AVG IPC :1.36608: L2-Pf-HR :0.97035: L2-HR :0.92181: (Sim:0h0m27s) 
CPU  0 inst:    8000000 cyc:    5532024 now IPC :1.12196: AVG IPC :1.31827: L2-Pf-HR :0.96838: L2-HR :0.91953: (Sim:0h0m31s) 
CPU  0 inst:    9000003 cyc:    6287871 now IPC :1.32302: AVG IPC :1.31895: L2-Pf-HR :0.96994: L2-HR :0.92261: (Sim:0h0m34s) 
CPU  0 inst:   10000002 cyc:    7041687 now IPC :1.32658: AVG IPC :1.31990: L2-Pf-HR :0.97029: L2-HR :0.92419: (Sim:0h0m37s) 
CPU  0 inst:   11000001 cyc:    7793945 now IPC :1.32933: AVG IPC :1.32094: L2-Pf-HR :0.97056: L2-HR :0.92545: (Sim:0h0m40s) 
CPU  0 inst:   12000000 cyc:    8545543 now IPC :1.33050: AVG IPC :1.32189: L2-Pf-HR :0.97211: L2-HR :0.92759: (Sim:0h0m44s) 
CPU  0 inst:   13000000 cyc:    9295827 now IPC :1.33283: AVG IPC :1.32288: L2-Pf-HR :0.97186: L2-HR :0.92806: (Sim:0h0m49s) 
CPU  0 inst:   14000001 cyc:   10043852 now IPC :1.33686: AVG IPC :1.32403: L2-Pf-HR :0.97244: L2-HR :0.92913: (Sim:0h0m53s) 
CPU  0 inst:   15000003 cyc:   10793360 now IPC :1.33421: AVG IPC :1.32481: L2-Pf-HR :0.97332: L2-HR :0.93039: (Sim:0h0m58s) 
CPU  0 inst:   16000000 cyc:   11629764 now IPC :1.19559: AVG IPC :1.31466: L2-Pf-HR :0.97372: L2-HR :0.93068: (Sim:0h1m2s) 
CPU  0 inst:   17000003 cyc:   12367517 now IPC :1.35547: AVG IPC :1.31730: L2-Pf-HR :0.97435: L2-HR :0.93158: (Sim:0h1m5s) 
CPU  0 inst:   18000000 cyc:   13102468 now IPC :1.36063: AVG IPC :1.31993: L2-Pf-HR :0.97492: L2-HR :0.93237: (Sim:0h1m8s) 
CPU  0 inst:   19000001 cyc:   13836590 now IPC :1.36217: AVG IPC :1.32234: L2-Pf-HR :0.97539: L2-HR :0.93305: (Sim:0h1m12s) 
CPU  0 inst:   20000000 cyc:   14568247 now IPC :1.36676: AVG IPC :1.32473: L2-Pf-HR :0.97582: L2-HR :0.93368: (Sim:0h1m15s) 
CPU  0 inst:   21000000 cyc:   15477732 now IPC :1.09952: AVG IPC :1.31061: L2-Pf-HR :0.97385: L2-HR :0.93133: (Sim:0h1m18s) 
CPU  0 inst:   22000001 cyc:   16230493 now IPC :1.32844: AVG IPC :1.31149: L2-Pf-HR :0.97378: L2-HR :0.93117: (Sim:0h1m21s) 
CPU  0 inst:   23000001 cyc:   16986785 now IPC :1.32224: AVG IPC :1.31199: L2-Pf-HR :0.97244: L2-HR :0.92995: (Sim:0h1m25s) 
CPU  0 inst:   24000000 cyc:   17734381 now IPC :1.33762: AVG IPC :1.31314: L2-Pf-HR :0.97226: L2-HR :0.92979: (Sim:0h1m28s) 
CPU  0 inst:   25000000 cyc:   18491210 now IPC :1.32130: AVG IPC :1.31349: L2-Pf-HR :0.97211: L2-HR :0.92961: (Sim:0h1m32s) 
CPU  0 inst:   26000001 cyc:   19246408 now IPC :1.32416: AVG IPC :1.31393: L2-Pf-HR :0.97082: L2-HR :0.92846: (Sim:0h1m37s) 
CPU  0 inst:   27000002 cyc:   20005549 now IPC :1.31728: AVG IPC :1.31407: L2-Pf-HR :0.97093: L2-HR :0.92850: (Sim:0h1m42s) 
CPU  0 inst:   28000000 cyc:   20912668 now IPC :1.10239: AVG IPC :1.30443: L2-Pf-HR :0.97007: L2-HR :0.92751: (Sim:0h1m48s) 
CPU  0 inst:   29000001 cyc:   21669413 now IPC :1.32145: AVG IPC :1.30505: L2-Pf-HR :0.97044: L2-HR :0.92801: (Sim:0h1m52s) 
CPU  0 inst:   30000001 cyc:   22425754 now IPC :1.32215: AVG IPC :1.30566: L2-Pf-HR :0.97054: L2-HR :0.92826: (Sim:0h1m57s) 
CPU  0 inst:   31000002 cyc:   23177695 now IPC :1.32989: AVG IPC :1.30648: L2-Pf-HR :0.97061: L2-HR :0.92849: (Sim:0h2m2s) 
CPU  0 inst:   32000000 cyc:   23930439 now IPC :1.32847: AVG IPC :1.30720: L2-Pf-HR :0.97112: L2-HR :0.92907: (Sim:0h2m7s) 
CPU  0 inst:   33000000 cyc:   24682866 now IPC :1.32903: AVG IPC :1.30789: L2-Pf-HR :0.97103: L2-HR :0.92914: (Sim:0h2m12s) 
CPU  0 inst:   34000002 cyc:   25430207 now IPC :1.33808: AVG IPC :1.30882: L2-Pf-HR :0.97125: L2-HR :0.92947: (Sim:0h2m17s) 
CPU  0 inst:   35000001 cyc:   26181364 now IPC :1.33128: AVG IPC :1.30949: L2-Pf-HR :0.97163: L2-HR :0.92993: (Sim:0h2m22s) 
CPU  0 inst:   36000000 cyc:   27024721 now IPC :1.18574: AVG IPC :1.30548: L2-Pf-HR :0.97189: L2-HR :0.93005: (Sim:0h2m27s) 
CPU  0 inst:   37000002 cyc:   27774314 now IPC :1.33406: AVG IPC :1.30628: L2-Pf-HR :0.97220: L2-HR :0.93042: (Sim:0h2m32s) 
CPU  0 inst:   38000002 cyc:   28522639 now IPC :1.33632: AVG IPC :1.30709: L2-Pf-HR :0.97250: L2-HR :0.93076: (Sim:0h2m37s) 
CPU  0 inst:   39000002 cyc:   29267545 now IPC :1.34245: AVG IPC :1.30802: L2-Pf-HR :0.97278: L2-HR :0.93109: (Sim:0h2m42s) 
CPU  0 inst:   40000000 cyc:   30011898 now IPC :1.34345: AVG IPC :1.30893: L2-Pf-HR :0.97304: L2-HR :0.93141: (Sim:0h2m47s) 
CPU  0 inst:   41000003 cyc:   30921427 now IPC :1.09947: AVG IPC :1.30257: L2-Pf-HR :0.97228: L2-HR :0.93038: (Sim:0h2m52s) 
CPU  0 inst:   42000000 cyc:   31684314 now IPC :1.31081: AVG IPC :1.30277: L2-Pf-HR :0.97228: L2-HR :0.93031: (Sim:0h2m57s) 
CPU  0 inst:   43000000 cyc:   32442820 now IPC :1.31838: AVG IPC :1.30315: L2-Pf-HR :0.97161: L2-HR :0.92967: (Sim:0h3m2s) 
CPU  0 inst:   44000000 cyc:   33199489 now IPC :1.32158: AVG IPC :1.30358: L2-Pf-HR :0.97155: L2-HR :0.92958: (Sim:0h3m7s) 
CPU  0 inst:   45000002 cyc:   33962031 now IPC :1.31141: AVG IPC :1.30376: L2-Pf-HR :0.97147: L2-HR :0.92946: (Sim:0h3m12s) 
CPU  0 inst:   46000000 cyc:   34728709 now IPC :1.30433: AVG IPC :1.30378: L2-Pf-HR :0.97078: L2-HR :0.92881: (Sim:0h3m17s) 
CPU  0 inst:   47000003 cyc:   35496693 now IPC :1.30211: AVG IPC :1.30374: L2-Pf-HR :0.97084: L2-HR :0.92881: (Sim:0h3m22s) 
CPU  0 inst:   48000000 cyc:   36404673 now IPC :1.10134: AVG IPC :1.29855: L2-Pf-HR :0.97033: L2-HR :0.92819: (Sim:0h3m27s) 
CPU  0 inst:   49000000 cyc:   37163789 now IPC :1.31732: AVG IPC :1.29895: L2-Pf-HR :0.97053: L2-HR :0.92844: (Sim:0h3m32s) 
CPU  0 inst:   50000000 cyc:   37919558 now IPC :1.32316: AVG IPC :1.29944: L2-Pf-HR :0.97057: L2-HR :0.92853: (Sim:0h3m37s) 
CPU  0 inst:   51000001 cyc:   38672853 now IPC :1.32750: AVG IPC :1.30000: L2-Pf-HR :0.97061: L2-HR :0.92864: (Sim:0h3m42s) 
CPU  0 inst:   52000000 cyc:   39423843 now IPC :1.33157: AVG IPC :1.30062: L2-Pf-HR :0.97091: L2-HR :0.92896: (Sim:0h3m47s) 
CPU  0 inst:   53000003 cyc:   40177239 now IPC :1.32733: AVG IPC :1.30113: L2-Pf-HR :0.97087: L2-HR :0.92898: (Sim:0h3m52s) 
CPU  0 inst:   54000002 cyc:   40928330 now IPC :1.33140: AVG IPC :1.30170: L2-Pf-HR :0.97102: L2-HR :0.92918: (Sim:0h3m57s) 
CPU  0 inst:   55000001 cyc:   41682397 now IPC :1.32614: AVG IPC :1.30215: L2-Pf-HR :0.97125: L2-HR :0.92945: (Sim:0h4m2s) 
CPU  0 inst:   56000000 cyc:   42521929 now IPC :1.19114: AVG IPC :1.29991: L2-Pf-HR :0.97138: L2-HR :0.92947: (Sim:0h4m7s) 
CPU  0 inst:   57000001 cyc:   43265183 now IPC :1.34544: AVG IPC :1.30071: L2-Pf-HR :0.97158: L2-HR :0.92967: (Sim:0h4m12s) 
CPU  0 inst:   58000000 cyc:   44008730 now IPC :1.34490: AVG IPC :1.30147: L2-Pf-HR :0.97178: L2-HR :0.92988: (Sim:0h4m17s) 
CPU  0 inst:   59000002 cyc:   44749892 now IPC :1.34924: AVG IPC :1.30228: L2-Pf-HR :0.97198: L2-HR :0.93009: (Sim:0h4m22s) 
CPU  0 inst:   60000000 cyc:   45491579 now IPC :1.34827: AVG IPC :1.30305: L2-Pf-HR :0.97217: L2-HR :0.93029: (Sim:0h4m27s) 
CPU  0 inst:   61000003 cyc:   46402982 now IPC :1.09721: AVG IPC :1.29892: L2-Pf-HR :0.97163: L2-HR :0.92957: (Sim:0h4m33s) 
CPU  0 inst:   62000003 cyc:   47170227 now IPC :1.30336: AVG IPC :1.29899: L2-Pf-HR :0.97166: L2-HR :0.92953: (Sim:0h4m38s) 
CPU  0 inst:   63000002 cyc:   47938450 now IPC :1.30170: AVG IPC :1.29904: L2-Pf-HR :0.97124: L2-HR :0.92910: (Sim:0h4m43s) 
CPU  0 inst:   64000000 cyc:   48707423 now IPC :1.30043: AVG IPC :1.29906: L2-Pf-HR :0.97119: L2-HR :0.92901: (Sim:0h4m48s) 
CPU  0 inst:   65000001 cyc:   49474478 now IPC :1.30369: AVG IPC :1.29913: L2-Pf-HR :0.97117: L2-HR :0.92895: (Sim:0h4m53s) 
CPU  0 inst:   66000002 cyc:   50250502 now IPC :1.28862: AVG IPC :1.29897: L2-Pf-HR :0.97076: L2-HR :0.92854: (Sim:0h4m58s) 
CPU  0 inst:   67000003 cyc:   51024512 now IPC :1.29197: AVG IPC :1.29886: L2-Pf-HR :0.97078: L2-HR :0.92851: (Sim:0h5m3s) 
CPU  0 inst:   68000000 cyc:   51933816 now IPC :1.09974: AVG IPC :1.29531: L2-Pf-HR :0.97042: L2-HR :0.92806: (Sim:0h5m9s) 
CPU  0 inst:   69000002 cyc:   52680760 now IPC :1.33879: AVG IPC :1.29593: L2-Pf-HR :0.97058: L2-HR :0.92823: (Sim:0h5m14s) 
CPU  0 inst:   70000001 cyc:   53428840 now IPC :1.33675: AVG IPC :1.29652: L2-Pf-HR :0.97061: L2-HR :0.92829: (Sim:0h5m19s) 
CPU  0 inst:   71000002 cyc:   54173435 now IPC :1.34301: AVG IPC :1.29717: L2-Pf-HR :0.97064: L2-HR :0.92836: (Sim:0h5m24s) 
CPU  0 inst:   72000000 cyc:   54917842 now IPC :1.34335: AVG IPC :1.29781: L2-Pf-HR :0.97085: L2-HR :0.92858: (Sim:0h5m29s) 
CPU  0 inst:   73000001 cyc:   55658944 now IPC :1.34934: AVG IPC :1.29850: L2-Pf-HR :0.97082: L2-HR :0.92859: (Sim:0h5m34s) 
CPU  0 inst:   74000000 cyc:   56398695 now IPC :1.35180: AVG IPC :1.29922: L2-Pf-HR :0.97093: L2-HR :0.92872: (Sim:0h5m39s) 
CPU  0 inst:   75000000 cyc:   57142964 now IPC :1.34360: AVG IPC :1.29980: L2-Pf-HR :0.97111: L2-HR :0.92893: (Sim:0h5m44s) 
CPU  0 inst:   76000000 cyc:   57970031 now IPC :1.20909: AVG IPC :1.29849: L2-Pf-HR :0.97120: L2-HR :0.92893: (Sim:0h5m50s) 
CPU  0 inst:   77000003 cyc:   58703489 now IPC :1.36341: AVG IPC :1.29931: L2-Pf-HR :0.97136: L2-HR :0.92908: (Sim:0h5m55s) 
CPU  0 inst:   78000002 cyc:   59435484 now IPC :1.36613: AVG IPC :1.30015: L2-Pf-HR :0.97151: L2-HR :0.92922: (Sim:0h6m1s) 
CPU  0 inst:   79000003 cyc:   60165465 now IPC :1.36990: AVG IPC :1.30101: L2-Pf-HR :0.97166: L2-HR :0.92935: (Sim:0h6m6s) 
CPU  0 inst:   80000000 cyc:   60896847 now IPC :1.36727: AVG IPC :1.30182: L2-Pf-HR :0.97181: L2-HR :0.92950: (Sim:0h6m11s) 
CPU  0 inst:   81000003 cyc:   61813833 now IPC :1.09053: AVG IPC :1.29863: L2-Pf-HR :0.97144: L2-HR :0.92896: (Sim:0h6m16s) 
CPU  0 inst:   82000001 cyc:   62577100 now IPC :1.31015: AVG IPC :1.29878: L2-Pf-HR :0.97146: L2-HR :0.92894: (Sim:0h6m22s) 
CPU  0 inst:   83000001 cyc:   63345155 now IPC :1.30199: AVG IPC :1.29882: L2-Pf-HR :0.97111: L2-HR :0.92858: (Sim:0h6m27s) 
CPU  0 inst:   84000000 cyc:   64110532 now IPC :1.30654: AVG IPC :1.29891: L2-Pf-HR :0.97109: L2-HR :0.92851: (Sim:0h6m32s) 
CPU  0 inst:   85000003 cyc:   64874537 now IPC :1.30890: AVG IPC :1.29903: L2-Pf-HR :0.97111: L2-HR :0.92850: (Sim:0h6m37s) 
CPU  0 inst:   86000000 cyc:   65646821 now IPC :1.29486: AVG IPC :1.29898: L2-Pf-HR :0.97079: L2-HR :0.92816: (Sim:0h6m42s) 
CPU  0 inst:   87000000 cyc:   66423961 now IPC :1.28677: AVG IPC :1.29883: L2-Pf-HR :0.97084: L2-HR :0.92815: (Sim:0h6m47s) 
CPU  0 inst:   88000000 cyc:   67329937 now IPC :1.10378: AVG IPC :1.29617: L2-Pf-HR :0.97058: L2-HR :0.92781: (Sim:0h6m53s) 
CPU  0 inst:   89000001 cyc:   68088835 now IPC :1.31770: AVG IPC :1.29641: L2-Pf-HR :0.97070: L2-HR :0.92794: (Sim:0h6m58s) 
CPU  0 inst:   90000003 cyc:   68848340 now IPC :1.31665: AVG IPC :1.29664: L2-Pf-HR :0.97073: L2-HR :0.92798: (Sim:0h7m3s) 
CPU  0 inst:   91000003 cyc:   69605943 now IPC :1.31995: AVG IPC :1.29690: L2-Pf-HR :0.97077: L2-HR :0.92803: (Sim:0h7m8s) 
CPU  0 inst:   92000000 cyc:   70360103 now IPC :1.32597: AVG IPC :1.29721: L2-Pf-HR :0.97093: L2-HR :0.92819: (Sim:0h7m13s) 
CPU  0 inst:   93000000 cyc:   71114041 now IPC :1.32637: AVG IPC :1.29753: L2-Pf-HR :0.97091: L2-HR :0.92819: (Sim:0h7m18s) 
CPU  0 inst:   94000003 cyc:   71866017 now IPC :1.32983: AVG IPC :1.29787: L2-Pf-HR :0.97099: L2-HR :0.92829: (Sim:0h7m23s) 
CPU  0 inst:   95000002 cyc:   72616720 now IPC :1.33208: AVG IPC :1.29823: L2-Pf-HR :0.97112: L2-HR :0.92843: (Sim:0h7m28s) 
CPU  0 inst:   96000000 cyc:   73459021 now IPC :1.18722: AVG IPC :1.29694: L2-Pf-HR :0.97119: L2-HR :0.92842: (Sim:0h7m33s) 
CPU  0 inst:   97000002 cyc:   74212751 now IPC :1.32674: AVG IPC :1.29724: L2-Pf-HR :0.97131: L2-HR :0.92852: (Sim:0h7m38s) 
CPU  0 inst:   98000001 cyc:   74963923 now IPC :1.33125: AVG IPC :1.29759: L2-Pf-HR :0.97143: L2-HR :0.92862: (Sim:0h7m43s) 
CPU  0 inst:   99000002 cyc:   75713000 now IPC :1.33498: AVG IPC :1.29796: L2-Pf-HR :0.97154: L2-HR :0.92872: (Sim:0h7m48s) 
CPU  0 inst:  100000000 cyc:   76464073 now IPC :1.33143: AVG IPC :1.29830: L2-Pf-HR :0.97165: L2-HR :0.92882: (Sim:0h7m53s) 
CPU  0 inst:  101000001 cyc:   77380877 now IPC :1.09075: AVG IPC :1.29581: L2-Pf-HR :0.97133: L2-HR :0.92836: (Sim:0h7m59s) 
CPU  0 inst:  102000000 cyc:   78146484 now IPC :1.30615: AVG IPC :1.29591: L2-Pf-HR :0.97133: L2-HR :0.92832: (Sim:0h8m4s) 
CPU  0 inst:  103000003 cyc:   78913388 now IPC :1.30395: AVG IPC :1.29599: L2-Pf-HR :0.97109: L2-HR :0.92806: (Sim:0h8m9s) 
CPU  0 inst:  104000000 cyc:   79681420 now IPC :1.30203: AVG IPC :1.29605: L2-Pf-HR :0.97109: L2-HR :0.92801: (Sim:0h8m14s) 
CPU  0 inst:  105000002 cyc:   80447563 now IPC :1.30524: AVG IPC :1.29614: L2-Pf-HR :0.97107: L2-HR :0.92795: (Sim:0h8m19s) 
CPU  0 inst:  106000003 cyc:   81225917 now IPC :1.28476: AVG IPC :1.29603: L2-Pf-HR :0.97080: L2-HR :0.92766: (Sim:0h8m24s) 
CPU  0 inst:  107000000 cyc:   82000073 now IPC :1.29173: AVG IPC :1.29599: L2-Pf-HR :0.97082: L2-HR :0.92763: (Sim:0h8m30s) 
CPU  0 inst:  108000000 cyc:   82914501 now IPC :1.09358: AVG IPC :1.29373: L2-Pf-HR :0.97058: L2-HR :0.92733: (Sim:0h8m35s) 
CPU  0 inst:  109000000 cyc:   83670413 now IPC :1.32291: AVG IPC :1.29399: L2-Pf-HR :0.97068: L2-HR :0.92743: (Sim:0h8m40s) 
CPU  0 inst:  110000002 cyc:   84425028 now IPC :1.32518: AVG IPC :1.29427: L2-Pf-HR :0.97070: L2-HR :0.92744: (Sim:0h8m45s) 
CPU  0 inst:  111000000 cyc:   85180400 now IPC :1.32385: AVG IPC :1.29454: L2-Pf-HR :0.97072: L2-HR :0.92748: (Sim:0h8m50s) 
CPU  0 inst:  112000000 cyc:   85933687 now IPC :1.32752: AVG IPC :1.29483: L2-Pf-HR :0.97085: L2-HR :0.92760: (Sim:0h8m55s) 
CPU  0 inst:  113000002 cyc:   86685272 now IPC :1.33052: AVG IPC :1.29515: L2-Pf-HR :0.97083: L2-HR :0.92760: (Sim:0h9m0s) 
CPU  0 inst:  114000001 cyc:   87433612 now IPC :1.33629: AVG IPC :1.29550: L2-Pf-HR :0.97090: L2-HR :0.92767: (Sim:0h9m5s) 
CPU  0 inst:  115000000 cyc:   88188093 now IPC :1.32541: AVG IPC :1.29576: L2-Pf-HR :0.97101: L2-HR :0.92779: (Sim:0h9m10s) 
CPU  0 inst:  116000000 cyc:   89028085 now IPC :1.19049: AVG IPC :1.29476: L2-Pf-HR :0.97107: L2-HR :0.92777: (Sim:0h9m16s) 
CPU  0 inst:  117000000 cyc:   89779313 now IPC :1.33115: AVG IPC :1.29506: L2-Pf-HR :0.97117: L2-HR :0.92784: (Sim:0h9m21s) 
CPU  0 inst:  118000000 cyc:   90528364 now IPC :1.33502: AVG IPC :1.29540: L2-Pf-HR :0.97126: L2-HR :0.92791: (Sim:0h9m26s) 
CPU  0 inst:  119000000 cyc:   91275169 now IPC :1.33904: AVG IPC :1.29576: L2-Pf-HR :0.97135: L2-HR :0.92798: (Sim:0h9m31s) 
CPU  0 inst:  120000000 cyc:   92024598 now IPC :1.33435: AVG IPC :1.29608: L2-Pf-HR :0.97144: L2-HR :0.92806: (Sim:0h9m36s) 
CPU  0 inst:  121000000 cyc:   92943809 now IPC :1.08789: AVG IPC :1.29400: L2-Pf-HR :0.97118: L2-HR :0.92767: (Sim:0h9m41s) 
CPU  0 inst:  122000002 cyc:   93716007 now IPC :1.29501: AVG IPC :1.29400: L2-Pf-HR :0.97120: L2-HR :0.92764: (Sim:0h9m47s) 
CPU  0 inst:  123000002 cyc:   94491275 now IPC :1.28988: AVG IPC :1.29397: L2-Pf-HR :0.97096: L2-HR :0.92738: (Sim:0h9m52s) 
CPU  0 inst:  124000000 cyc:   95264572 now IPC :1.29316: AVG IPC :1.29396: L2-Pf-HR :0.97094: L2-HR :0.92732: (Sim:0h9m57s) 
CPU  0 inst:  125000001 cyc:   96040055 now IPC :1.28952: AVG IPC :1.29393: L2-Pf-HR :0.97094: L2-HR :0.92728: (Sim:0h10m2s) 
CPU  0 inst:  126000002 cyc:   96819495 now IPC :1.28297: AVG IPC :1.29384: L2-Pf-HR :0.97073: L2-HR :0.92705: (Sim:0h10m7s) 
CPU  0 inst:  127000001 cyc:   97599318 now IPC :1.28234: AVG IPC :1.29375: L2-Pf-HR :0.97075: L2-HR :0.92702: (Sim:0h10m12s) 
CPU  0 inst:  128000000 cyc:   98510839 now IPC :1.09707: AVG IPC :1.29191: L2-Pf-HR :0.97056: L2-HR :0.92676: (Sim:0h10m18s) 
CPU  0 inst:  129000002 cyc:   99259361 now IPC :1.33597: AVG IPC :1.29224: L2-Pf-HR :0.97064: L2-HR :0.92683: (Sim:0h10m22s) 
CPU  0 inst:  130000000 cyc:  100011180 now IPC :1.33010: AVG IPC :1.29253: L2-Pf-HR :0.97066: L2-HR :0.92685: (Sim:0h10m26s) 
CPU  0 inst:  131000000 cyc:  100759923 now IPC :1.33557: AVG IPC :1.29285: L2-Pf-HR :0.97069: L2-HR :0.92687: (Sim:0h10m30s) 
CPU  0 inst:  132000000 cyc:  101508008 now IPC :1.33675: AVG IPC :1.29318: L2-Pf-HR :0.97080: L2-HR :0.92697: (Sim:0h10m33s) 
CPU  0 inst:  133000001 cyc:  102255487 now IPC :1.33783: AVG IPC :1.29351: L2-Pf-HR :0.97078: L2-HR :0.92695: (Sim:0h10m37s) 
CPU  0 inst:  134000003 cyc:  102997713 now IPC :1.34730: AVG IPC :1.29390: L2-Pf-HR :0.97085: L2-HR :0.92701: (Sim:0h10m40s) 
CPU  0 inst:  135000000 cyc:  103748111 now IPC :1.33262: AVG IPC :1.29418: L2-Pf-HR :0.97094: L2-HR :0.92710: (Sim:0h10m44s) 
CPU  0 inst:  136000000 cyc:  104587584 now IPC :1.19122: AVG IPC :1.29335: L2-Pf-HR :0.97098: L2-HR :0.92706: (Sim:0h10m49s) 
CPU  0 inst:  137000003 cyc:  105338947 now IPC :1.33092: AVG IPC :1.29362: L2-Pf-HR :0.97106: L2-HR :0.92711: (Sim:0h10m55s) 
CPU  0 inst:  138000001 cyc:  106086394 now IPC :1.33788: AVG IPC :1.29393: L2-Pf-HR :0.97113: L2-HR :0.92715: (Sim:0h11m0s) 
CPU  0 inst:  139000003 cyc:  106832222 now IPC :1.34079: AVG IPC :1.29426: L2-Pf-HR :0.97121: L2-HR :0.92720: (Sim:0h11m4s) 
CPU  0 inst:  140000000 cyc:  107582575 now IPC :1.33270: AVG IPC :1.29454: L2-Pf-HR :0.97128: L2-HR :0.92725: (Sim:0h11m9s) 
CPU  0 inst:  141000002 cyc:  108498645 now IPC :1.09162: AVG IPC :1.29281: L2-Pf-HR :0.97107: L2-HR :0.92691: (Sim:0h11m14s) 
CPU  0 inst:  142000002 cyc:  109264441 now IPC :1.30583: AVG IPC :1.29290: L2-Pf-HR :0.97108: L2-HR :0.92687: (Sim:0h11m20s) 
CPU  0 inst:  143000000 cyc:  110035975 now IPC :1.29612: AVG IPC :1.29292: L2-Pf-HR :0.97090: L2-HR :0.92667: (Sim:0h11m25s) 
CPU  0 inst:  144000000 cyc:  110800448 now IPC :1.30809: AVG IPC :1.29303: L2-Pf-HR :0.97090: L2-HR :0.92661: (Sim:0h11m30s) 
CPU  0 inst:  145000003 cyc:  111570455 now IPC :1.29869: AVG IPC :1.29307: L2-Pf-HR :0.97090: L2-HR :0.92658: (Sim:0h11m35s) 
CPU  0 inst:  146000000 cyc:  112347049 now IPC :1.28767: AVG IPC :1.29303: L2-Pf-HR :0.97071: L2-HR :0.92636: (Sim:0h11m41s) 
CPU  0 inst:  147000000 cyc:  113120467 now IPC :1.29296: AVG IPC :1.29303: L2-Pf-HR :0.97071: L2-HR :0.92632: (Sim:0h11m46s) 
CPU  0 inst:  148000000 cyc:  114037729 now IPC :1.09020: AVG IPC :1.29138: L2-Pf-HR :0.97056: L2-HR :0.92609: (Sim:0h11m52s) 
CPU  0 inst:  149000000 cyc:  114799208 now IPC :1.31323: AVG IPC :1.29153: L2-Pf-HR :0.97062: L2-HR :0.92615: (Sim:0h11m57s) 
CPU  0 inst:  150000000 cyc:  115559719 now IPC :1.31491: AVG IPC :1.29168: L2-Pf-HR :0.97063: L2-HR :0.92616: (Sim:0h12m2s) 
CPU  0 inst:  151000001 cyc:  116320319 now IPC :1.31475: AVG IPC :1.29184: L2-Pf-HR :0.97064: L2-HR :0.92617: (Sim:0h12m7s) 
CPU  0 inst:  152000000 cyc:  117077394 now IPC :1.32087: AVG IPC :1.29203: L2-Pf-HR :0.97074: L2-HR :0.92625: (Sim:0h12m12s) 
CPU  0 inst:  153000000 cyc:  117834678 now IPC :1.32051: AVG IPC :1.29221: L2-Pf-HR :0.97072: L2-HR :0.92623: (Sim:0h12m17s) 
CPU  0 inst:  154000002 cyc:  118587254 now IPC :1.32877: AVG IPC :1.29244: L2-Pf-HR :0.97077: L2-HR :0.92628: (Sim:0h12m22s) 
CPU  0 inst:  155000003 cyc:  119344842 now IPC :1.31998: AVG IPC :1.29262: L2-Pf-HR :0.97084: L2-HR :0.92635: (Sim:0h12m28s) 
CPU  0 inst:  156000000 cyc:  120161440 now IPC :1.22459: AVG IPC :1.29215: L2-Pf-HR :0.97088: L2-HR :0.92631: (Sim:0h12m33s) 
CPU  0 inst:  157000002 cyc:  120894080 now IPC :1.36493: AVG IPC :1.29260: L2-Pf-HR :0.97095: L2-HR :0.92634: (Sim:0h12m38s) 
CPU  0 inst:  158000003 cyc:  121624851 now IPC :1.36842: AVG IPC :1.29306: L2-Pf-HR :0.97101: L2-HR :0.92638: (Sim:0h12m43s) 
CPU  0 inst:  159000002 cyc:  122353470 now IPC :1.37246: AVG IPC :1.29353: L2-Pf-HR :0.97107: L2-HR :0.92641: (Sim:0h12m48s) 
CPU  0 inst:  160000000 cyc:  123089140 now IPC :1.35930: AVG IPC :1.29393: L2-Pf-HR :0.97113: L2-HR :0.92645: (Sim:0h12m54s) 
CPU  0 inst:  161000001 cyc:  124007782 now IPC :1.08856: AVG IPC :1.29240: L2-Pf-HR :0.97093: L2-HR :0.92613: (Sim:0h12m59s) 
CPU  0 inst:  162000003 cyc:  124777851 now IPC :1.29859: AVG IPC :1.29244: L2-Pf-HR :0.97094: L2-HR :0.92609: (Sim:0h13m5s) 
CPU  0 inst:  163000002 cyc:  125548458 now IPC :1.29768: AVG IPC :1.29247: L2-Pf-HR :0.97079: L2-HR :0.92591: (Sim:0h13m10s) 
CPU  0 inst:  164000000 cyc:  126322867 now IPC :1.29130: AVG IPC :1.29246: L2-Pf-HR :0.97078: L2-HR :0.92585: (Sim:0h13m15s) 
CPU  0 inst:  165000001 cyc:  127095768 now IPC :1.29383: AVG IPC :1.29247: L2-Pf-HR :0.97077: L2-HR :0.92581: (Sim:0h13m20s) 
CPU  0 inst:  166000003 cyc:  127881319 now IPC :1.27299: AVG IPC :1.29235: L2-Pf-HR :0.97061: L2-HR :0.92560: (Sim:0h13m24s) 
CPU  0 inst:  167000003 cyc:  128661742 now IPC :1.28136: AVG IPC :1.29228: L2-Pf-HR :0.97061: L2-HR :0.92556: (Sim:0h13m28s) 
CPU  0 inst:  168000000 cyc:  129574784 now IPC :1.09524: AVG IPC :1.29088: L2-Pf-HR :0.97046: L2-HR :0.92535: (Sim:0h13m32s) 
CPU  0 inst:  169000003 cyc:  130332266 now IPC :1.32017: AVG IPC :1.29105: L2-Pf-HR :0.97052: L2-HR :0.92539: (Sim:0h13m36s) 
CPU  0 inst:  170000002 cyc:  131092921 now IPC :1.31466: AVG IPC :1.29119: L2-Pf-HR :0.97053: L2-HR :0.92539: (Sim:0h13m40s) 
CPU  0 inst:  171000000 cyc:  131850737 now IPC :1.31958: AVG IPC :1.29136: L2-Pf-HR :0.97054: L2-HR :0.92539: (Sim:0h13m44s) 
CPU  0 inst:  172000000 cyc:  132605738 now IPC :1.32450: AVG IPC :1.29155: L2-Pf-HR :0.97062: L2-HR :0.92546: (Sim:0h13m49s) 
CPU  0 inst:  173000002 cyc:  133361586 now IPC :1.32302: AVG IPC :1.29173: L2-Pf-HR :0.97059: L2-HR :0.92543: (Sim:0h13m54s) 
CPU  0 inst:  174000000 cyc:  134113396 now IPC :1.33012: AVG IPC :1.29194: L2-Pf-HR :0.97064: L2-HR :0.92546: (Sim:0h13m59s) 
CPU  0 inst:  175000001 cyc:  134871186 now IPC :1.31963: AVG IPC :1.29210: L2-Pf-HR :0.97070: L2-HR :0.92552: (Sim:0h14m4s) 
CPU  0 inst:  176000000 cyc:  135709797 now IPC :1.19245: AVG IPC :1.29148: L2-Pf-HR :0.97073: L2-HR :0.92547: (Sim:0h14m10s) 
CPU  0 inst:  177000000 cyc:  136461303 now IPC :1.33066: AVG IPC :1.29170: L2-Pf-HR :0.97078: L2-HR :0.92549: (Sim:0h14m15s) 
CPU  0 inst:  178000001 cyc:  137210460 now IPC :1.33484: AVG IPC :1.29193: L2-Pf-HR :0.97083: L2-HR :0.92551: (Sim:0h14m20s) 
CPU  0 inst:  179000000 cyc:  137959056 now IPC :1.33583: AVG IPC :1.29217: L2-Pf-HR :0.97088: L2-HR :0.92552: (Sim:0h14m26s) 
CPU  0 inst:  180000000 cyc:  138709852 now IPC :1.33192: AVG IPC :1.29239: L2-Pf-HR :0.97093: L2-HR :0.92555: (Sim:0h14m31s) 
CPU  0 inst:  181000003 cyc:  139627250 now IPC :1.09004: AVG IPC :1.29105: L2-Pf-HR :0.97073: L2-HR :0.92524: (Sim:0h14m37s) 
CPU  0 inst:  182000001 cyc:  140394035 now IPC :1.30414: AVG IPC :1.29112: L2-Pf-HR :0.97072: L2-HR :0.92519: (Sim:0h14m42s) 
CPU  0 inst:  183000003 cyc:  141166865 now IPC :1.29395: AVG IPC :1.29114: L2-Pf-HR :0.97057: L2-HR :0.92501: (Sim:0h14m47s) 
CPU  0 inst:  184000000 cyc:  141940541 now IPC :1.29253: AVG IPC :1.29115: L2-Pf-HR :0.97057: L2-HR :0.92496: (Sim:0h14m52s) 
CPU  0 inst:  185000000 cyc:  142708417 now IPC :1.30229: AVG IPC :1.29121: L2-Pf-HR :0.97053: L2-HR :0.92489: (Sim:0h14m56s) 
CPU  0 inst:  186000001 cyc:  143487733 now IPC :1.28318: AVG IPC :1.29116: L2-Pf-HR :0.97039: L2-HR :0.92471: (Sim:0h14m59s) 
CPU  0 inst:  187000001 cyc:  144266005 now IPC :1.28490: AVG IPC :1.29113: L2-Pf-HR :0.97040: L2-HR :0.92467: (Sim:0h15m3s) 
CPU  0 inst:  188000000 cyc:  145185906 now IPC :1.08707: AVG IPC :1.28983: L2-Pf-HR :0.97023: L2-HR :0.92445: (Sim:0h15m8s) 
CPU  0 inst:  189000003 cyc:  145949353 now IPC :1.30985: AVG IPC :1.28993: L2-Pf-HR :0.97029: L2-HR :0.92449: (Sim:0h15m11s) 
CPU  0 inst:  190000001 cyc:  146711831 now IPC :1.31151: AVG IPC :1.29005: L2-Pf-HR :0.97029: L2-HR :0.92448: (Sim:0h15m16s) 
CPU  0 inst:  191000003 cyc:  147474352 now IPC :1.31144: AVG IPC :1.29016: L2-Pf-HR :0.97030: L2-HR :0.92448: (Sim:0h15m20s) 
CPU  0 inst:  192000000 cyc:  148232670 now IPC :1.31870: AVG IPC :1.29030: L2-Pf-HR :0.97037: L2-HR :0.92453: (Sim:0h15m24s) 
CPU  0 inst:  193000000 cyc:  148993150 now IPC :1.31496: AVG IPC :1.29043: L2-Pf-HR :0.97034: L2-HR :0.92450: (Sim:0h15m28s) 
CPU  0 inst:  194000000 cyc:  149745023 now IPC :1.33001: AVG IPC :1.29063: L2-Pf-HR :0.97038: L2-HR :0.92453: (Sim:0h15m31s) 
CPU  0 inst:  195000003 cyc:  150506105 now IPC :1.31392: AVG IPC :1.29075: L2-Pf-HR :0.97044: L2-HR :0.92457: (Sim:0h15m36s) 
CPU  0 inst:  196000000 cyc:  151346677 now IPC :1.18966: AVG IPC :1.29018: L2-Pf-HR :0.97045: L2-HR :0.92451: (Sim:0h15m40s) 
CPU  0 inst:  197000003 cyc:  152097723 now IPC :1.33148: AVG IPC :1.29039: L2-Pf-HR :0.97049: L2-HR :0.92451: (Sim:0h15m44s) 
CPU  0 inst:  198000001 cyc:  152841708 now IPC :1.34411: AVG IPC :1.29065: L2-Pf-HR :0.97053: L2-HR :0.92452: (Sim:0h15m48s) 
CPU  0 inst:  199000003 cyc:  153587755 now IPC :1.34040: AVG IPC :1.29090: L2-Pf-HR :0.97057: L2-HR :0.92452: (Sim:0h15m51s) 
CPU  0 inst:  200000000 cyc:  154339639 now IPC :1.32999: AVG IPC :1.29109: L2-Pf-HR :0.97061: L2-HR :0.92454: (Sim:0h15m56s) 
CPU  0 inst:  201000003 cyc:  155252823 now IPC :1.09507: AVG IPC :1.28993: L2-Pf-HR :0.97043: L2-HR :0.92425: (Sim:0h16m0s) 
CPU  0 inst:  202000002 cyc:  156020221 now IPC :1.30310: AVG IPC :1.28999: L2-Pf-HR :0.97043: L2-HR :0.92421: (Sim:0h16m4s) 
CPU  0 inst:  203000001 cyc:  156795702 now IPC :1.28952: AVG IPC :1.28999: L2-Pf-HR :0.97030: L2-HR :0.92404: (Sim:0h16m9s) 
CPU  0 inst:  204000000 cyc:  157565826 now IPC :1.29849: AVG IPC :1.29003: L2-Pf-HR :0.97030: L2-HR :0.92399: (Sim:0h16m13s) 
CPU  0 inst:  205000001 cyc:  158343680 now IPC :1.28559: AVG IPC :1.29001: L2-Pf-HR :0.97026: L2-HR :0.92392: (Sim:0h16m17s) 
CPU  0 inst:  206000000 cyc:  159123649 now IPC :1.28210: AVG IPC :1.28997: L2-Pf-HR :0.97014: L2-HR :0.92375: (Sim:0h16m21s) 
CPU  0 inst:  207000000 cyc:  159903437 now IPC :1.28240: AVG IPC :1.28993: L2-Pf-HR :0.97015: L2-HR :0.92372: (Sim:0h16m24s) 
CPU  0 inst:  208000000 cyc:  160823886 now IPC :1.08643: AVG IPC :1.28876: L2-Pf-HR :0.97000: L2-HR :0.92351: (Sim:0h16m29s) 
CPU  0 inst:  209000000 cyc:  161580453 now IPC :1.32176: AVG IPC :1.28892: L2-Pf-HR :0.97005: L2-HR :0.92355: (Sim:0h16m34s) 
CPU  0 inst:  210000003 cyc:  162340933 now IPC :1.31496: AVG IPC :1.28904: L2-Pf-HR :0.97005: L2-HR :0.92353: (Sim:0h16m37s) 
CPU  0 inst:  211000001 cyc:  163095120 now IPC :1.32593: AVG IPC :1.28921: L2-Pf-HR :0.97006: L2-HR :0.92353: (Sim:0h16m41s) 
CPU  0 inst:  212000000 cyc:  163849385 now IPC :1.32579: AVG IPC :1.28938: L2-Pf-HR :0.97012: L2-HR :0.92357: (Sim:0h16m45s) 
CPU  0 inst:  213000003 cyc:  164603519 now IPC :1.32603: AVG IPC :1.28955: L2-Pf-HR :0.97010: L2-HR :0.92353: (Sim:0h16m49s) 
CPU  0 inst:  214000002 cyc:  165350887 now IPC :1.33803: AVG IPC :1.28977: L2-Pf-HR :0.97013: L2-HR :0.92355: (Sim:0h16m53s) 
CPU  0 inst:  215000002 cyc:  166109215 now IPC :1.31869: AVG IPC :1.28990: L2-Pf-HR :0.97018: L2-HR :0.92360: (Sim:0h16m57s) 
CPU  0 inst:  216000000 cyc:  166946334 now IPC :1.19457: AVG IPC :1.28942: L2-Pf-HR :0.97020: L2-HR :0.92354: (Sim:0h17m1s) 
CPU  0 inst:  217000001 cyc:  167697498 now IPC :1.33127: AVG IPC :1.28961: L2-Pf-HR :0.97024: L2-HR :0.92353: (Sim:0h17m7s) 
CPU  0 inst:  218000002 cyc:  168445976 now IPC :1.33605: AVG IPC :1.28982: L2-Pf-HR :0.97027: L2-HR :0.92353: (Sim:0h17m12s) 
CPU  0 inst:  219000000 cyc:  169191840 now IPC :1.34072: AVG IPC :1.29004: L2-Pf-HR :0.97030: L2-HR :0.92353: (Sim:0h17m17s) 
CPU  0 inst:  220000000 cyc:  169947746 now IPC :1.32292: AVG IPC :1.29019: L2-Pf-HR :0.97033: L2-HR :0.92353: (Sim:0h17m23s) 
CPU  0 inst:  221000001 cyc:  170860542 now IPC :1.09554: AVG IPC :1.28915: L2-Pf-HR :0.97019: L2-HR :0.92328: (Sim:0h17m29s) 
CPU  0 inst:  222000001 cyc:  171631885 now IPC :1.29644: AVG IPC :1.28918: L2-Pf-HR :0.97019: L2-HR :0.92324: (Sim:0h17m34s) 
CPU  0 inst:  223000001 cyc:  172402938 now IPC :1.29693: AVG IPC :1.28921: L2-Pf-HR :0.97006: L2-HR :0.92307: (Sim:0h17m39s) 
CPU  0 inst:  224000000 cyc:  173173677 now IPC :1.29745: AVG IPC :1.28925: L2-Pf-HR :0.97005: L2-HR :0.92302: (Sim:0h17m44s) 
CPU  0 inst:  225000000 cyc:  173950796 now IPC :1.28680: AVG IPC :1.28924: L2-Pf-HR :0.97003: L2-HR :0.92296: (Sim:0h17m50s) 
CPU  0 inst:  226000002 cyc:  174729196 now IPC :1.28469: AVG IPC :1.28922: L2-Pf-HR :0.96990: L2-HR :0.92280: (Sim:0h17m55s) 
CPU  0 inst:  227000000 cyc:  175505631 now IPC :1.28794: AVG IPC :1.28921: L2-Pf-HR :0.96990: L2-HR :0.92276: (Sim:0h18m1s) 
CPU  0 inst:  228000000 cyc:  176428783 now IPC :1.08325: AVG IPC :1.28813: L2-Pf-HR :0.96978: L2-HR :0.92257: (Sim:0h18m7s) 
CPU  0 inst:  229000003 cyc:  177192085 now IPC :1.31010: AVG IPC :1.28822: L2-Pf-HR :0.96982: L2-HR :0.92260: (Sim:0h18m12s) 
CPU  0 inst:  230000000 cyc:  177953047 now IPC :1.31412: AVG IPC :1.28834: L2-Pf-HR :0.96982: L2-HR :0.92258: (Sim:0h18m17s) 
CPU  0 inst:  231000000 cyc:  178713522 now IPC :1.31497: AVG IPC :1.28845: L2-Pf-HR :0.96982: L2-HR :0.92257: (Sim:0h18m23s) 
CPU  0 inst:  232000000 cyc:  179474038 now IPC :1.31490: AVG IPC :1.28856: L2-Pf-HR :0.96988: L2-HR :0.92261: (Sim:0h18m28s) 
CPU  0 inst:  233000000 cyc:  180231757 now IPC :1.31975: AVG IPC :1.28869: L2-Pf-HR :0.96985: L2-HR :0.92257: (Sim:0h18m34s) 
CPU  0 inst:  234000001 cyc:  180984664 now IPC :1.32819: AVG IPC :1.28886: L2-Pf-HR :0.96988: L2-HR :0.92259: (Sim:0h18m39s) 
CPU  0 inst:  235000000 cyc:  181746715 now IPC :1.31225: AVG IPC :1.28896: L2-Pf-HR :0.96993: L2-HR :0.92262: (Sim:0h18m45s) 
CPU  0 inst:  236000000 cyc:  182583917 now IPC :1.19445: AVG IPC :1.28852: L2-Pf-HR :0.96994: L2-HR :0.92257: (Sim:0h18m50s) 
CPU  0 inst:  237000000 cyc:  183339587 now IPC :1.32333: AVG IPC :1.28867: L2-Pf-HR :0.96998: L2-HR :0.92256: (Sim:0h18m56s) 
CPU  0 inst:  238000002 cyc:  184088603 now IPC :1.33509: AVG IPC :1.28886: L2-Pf-HR :0.97001: L2-HR :0.92256: (Sim:0h19m1s) 
CPU  0 inst:  239000002 cyc:  184839543 now IPC :1.33166: AVG IPC :1.28903: L2-Pf-HR :0.97004: L2-HR :0.92256: (Sim:0h19m7s) 
CPU  0 inst:  240000000 cyc:  185594661 now IPC :1.32429: AVG IPC :1.28918: L2-Pf-HR :0.97007: L2-HR :0.92256: (Sim:0h19m12s) 
CPU  0 inst:  241000003 cyc:  186511692 now IPC :1.09048: AVG IPC :1.28819: L2-Pf-HR :0.96992: L2-HR :0.92231: (Sim:0h19m18s) 
CPU  0 inst:  242000000 cyc:  187283319 now IPC :1.29596: AVG IPC :1.28823: L2-Pf-HR :0.96991: L2-HR :0.92227: (Sim:0h19m24s) 
CPU  0 inst:  243000002 cyc:  188053369 now IPC :1.29862: AVG IPC :1.28827: L2-Pf-HR :0.96979: L2-HR :0.92211: (Sim:0h19m29s) 
CPU  0 inst:  244000000 cyc:  188821688 now IPC :1.30154: AVG IPC :1.28832: L2-Pf-HR :0.96979: L2-HR :0.92207: (Sim:0h19m34s) 
CPU  0 inst:  245000002 cyc:  189598637 now IPC :1.28709: AVG IPC :1.28832: L2-Pf-HR :0.96976: L2-HR :0.92201: (Sim:0h19m40s) 
CPU  0 inst:  246000000 cyc:  190377734 now IPC :1.28353: AVG IPC :1.28830: L2-Pf-HR :0.96965: L2-HR :0.92186: (Sim:0h19m45s) 
CPU  0 inst:  247000001 cyc:  191155389 now IPC :1.28592: AVG IPC :1.28829: L2-Pf-HR :0.96966: L2-HR :0.92183: (Sim:0h19m50s) 
CPU  0 inst:  248000000 cyc:  192076801 now IPC :1.08529: AVG IPC :1.28731: L2-Pf-HR :0.96954: L2-HR :0.92164: (Sim:0h19m56s) 
CPU  0 inst:  249000001 cyc:  192839774 now IPC :1.31066: AVG IPC :1.28740: L2-Pf-HR :0.96957: L2-HR :0.92166: (Sim:0h20m2s) 
CPU  0 inst:  250000001 cyc:  193603478 now IPC :1.30941: AVG IPC :1.28749: L2-Pf-HR :0.96957: L2-HR :0.92164: (Sim:0h20m7s) 
CPU  0 inst:  251000002 cyc:  194366417 now IPC :1.31072: AVG IPC :1.28758: L2-Pf-HR :0.96958: L2-HR :0.92163: (Sim:0h20m13s) 
CPU  0 inst:  252000000 cyc:  195125623 now IPC :1.31716: AVG IPC :1.28770: L2-Pf-HR :0.96962: L2-HR :0.92166: (Sim:0h20m18s) 
CPU  0 inst:  253000002 cyc:  195884729 now IPC :1.31734: AVG IPC :1.28781: L2-Pf-HR :0.96960: L2-HR :0.92163: (Sim:0h20m23s) 
CPU  0 inst:  254000003 cyc:  196640443 now IPC :1.32325: AVG IPC :1.28795: L2-Pf-HR :0.96963: L2-HR :0.92164: (Sim:0h20m28s) 
CPU  0 inst:  255000000 cyc:  197402334 now IPC :1.31252: AVG IPC :1.28804: L2-Pf-HR :0.96967: L2-HR :0.92167: (Sim:0h20m32s) 
CPU  0 inst:  256000000 cyc:  198232653 now IPC :1.20436: AVG IPC :1.28769: L2-Pf-HR :0.96967: L2-HR :0.92161: (Sim:0h20m37s) 
CPU  0 inst:  257000002 cyc:  198981836 now IPC :1.33479: AVG IPC :1.28787: L2-Pf-HR :0.96970: L2-HR :0.92160: (Sim:0h20m42s) 
CPU  0 inst:  258000000 cyc:  199726303 now IPC :1.34324: AVG IPC :1.28808: L2-Pf-HR :0.96973: L2-HR :0.92159: (Sim:0h20m48s) 
CPU  0 inst:  259000001 cyc:  200470432 now IPC :1.34385: AVG IPC :1.28829: L2-Pf-HR :0.96975: L2-HR :0.92158: (Sim:0h20m53s) 
CPU  0 inst:  260000000 cyc:  201238812 now IPC :1.30144: AVG IPC :1.28834: L2-Pf-HR :0.96978: L2-HR :0.92157: (Sim:0h20m59s) 
CPU  0 inst:  261000002 cyc:  202139884 now IPC :1.10979: AVG IPC :1.28754: L2-Pf-HR :0.96964: L2-HR :0.92135: (Sim:0h21m5s) 
CPU  0 inst:  262000003 cyc:  202912789 now IPC :1.29382: AVG IPC :1.28756: L2-Pf-HR :0.96963: L2-HR :0.92130: (Sim:0h21m10s) 
CPU  0 inst:  263000000 cyc:  203686947 now IPC :1.29172: AVG IPC :1.28758: L2-Pf-HR :0.96951: L2-HR :0.92115: (Sim:0h21m16s) 
CPU  0 inst:  264000000 cyc:  204457843 now IPC :1.29719: AVG IPC :1.28761: L2-Pf-HR :0.96951: L2-HR :0.92110: (Sim:0h21m21s) 
CPU  0 inst:  265000002 cyc:  205232941 now IPC :1.29016: AVG IPC :1.28762: L2-Pf-HR :0.96948: L2-HR :0.92104: (Sim:0h21m27s) 
CPU  0 inst:  266000003 cyc:  206013088 now IPC :1.28181: AVG IPC :1.28760: L2-Pf-HR :0.96937: L2-HR :0.92090: (Sim:0h21m31s) 
CPU  0 inst:  267000000 cyc:  206794303 now IPC :1.28005: AVG IPC :1.28757: L2-Pf-HR :0.96937: L2-HR :0.92086: (Sim:0h21m34s) 
CPU  0 inst:  268000000 cyc:  207717792 now IPC :1.08285: AVG IPC :1.28666: L2-Pf-HR :0.96925: L2-HR :0.92068: (Sim:0h21m38s) 
CPU  0 inst:  269000000 cyc:  208485365 now IPC :1.30281: AVG IPC :1.28672: L2-Pf-HR :0.96928: L2-HR :0.92069: (Sim:0h21m43s) 
CPU  0 inst:  270000003 cyc:  209251131 now IPC :1.30589: AVG IPC :1.28679: L2-Pf-HR :0.96927: L2-HR :0.92066: (Sim:0h21m48s) 
CPU  0 inst:  271000001 cyc:  210015689 now IPC :1.30794: AVG IPC :1.28687: L2-Pf-HR :0.96928: L2-HR :0.92065: (Sim:0h21m53s) 
CPU  0 inst:  272000000 cyc:  210779207 now IPC :1.30973: AVG IPC :1.28695: L2-Pf-HR :0.96932: L2-HR :0.92067: (Sim:0h21m58s) 
CPU  0 inst:  273000001 cyc:  211540136 now IPC :1.31418: AVG IPC :1.28705: L2-Pf-HR :0.96929: L2-HR :0.92063: (Sim:0h22m4s) 
CPU  0 inst:  274000002 cyc:  212299613 now IPC :1.31670: AVG IPC :1.28715: L2-Pf-HR :0.96932: L2-HR :0.92064: (Sim:0h22m9s) 
CPU  0 inst:  275000002 cyc:  213068256 now IPC :1.30099: AVG IPC :1.28720: L2-Pf-HR :0.96935: L2-HR :0.92066: (Sim:0h22m14s) 
CPU  0 inst:  276000000 cyc:  213901907 now IPC :1.19954: AVG IPC :1.28686: L2-Pf-HR :0.96936: L2-HR :0.92060: (Sim:0h22m18s) 
CPU  0 inst:  277000001 cyc:  214657102 now IPC :1.32416: AVG IPC :1.28699: L2-Pf-HR :0.96938: L2-HR :0.92058: (Sim:0h22m22s) 
CPU  0 inst:  278000003 cyc:  215407709 now IPC :1.33226: AVG IPC :1.28715: L2-Pf-HR :0.96941: L2-HR :0.92057: (Sim:0h22m26s) 
CPU  0 inst:  279000000 cyc:  216158544 now IPC :1.33185: AVG IPC :1.28731: L2-Pf-HR :0.96943: L2-HR :0.92056: (Sim:0h22m31s) 
CPU  0 inst:  280000000 cyc:  216946521 now IPC :1.26907: AVG IPC :1.28724: L2-Pf-HR :0.96945: L2-HR :0.92053: (Sim:0h22m36s) 
CPU  0 inst:  281000000 cyc:  217827659 now IPC :1.13490: AVG IPC :1.28662: L2-Pf-HR :0.96932: L2-HR :0.92031: (Sim:0h22m41s) 
CPU  0 inst:  282000002 cyc:  218592865 now IPC :1.30684: AVG IPC :1.28669: L2-Pf-HR :0.96930: L2-HR :0.92025: (Sim:0h22m44s) 
CPU  0 inst:  283000000 cyc:  219361003 now IPC :1.30185: AVG IPC :1.28675: L2-Pf-HR :0.96920: L2-HR :0.92009: (Sim:0h22m49s) 
CPU  0 inst:  284000000 cyc:  220127281 now IPC :1.30501: AVG IPC :1.28681: L2-Pf-HR :0.96919: L2-HR :0.92004: (Sim:0h22m55s) 
CPU  0 inst:  285000003 cyc:  220894590 now IPC :1.30326: AVG IPC :1.28687: L2-Pf-HR :0.96916: L2-HR :0.91997: (Sim:0h23m0s) 
CPU  0 inst:  286000002 cyc:  221670327 now IPC :1.28910: AVG IPC :1.28687: L2-Pf-HR :0.96907: L2-HR :0.91983: (Sim:0h23m5s) 
CPU  0 inst:  287000003 cyc:  222437746 now IPC :1.30307: AVG IPC :1.28693: L2-Pf-HR :0.96907: L2-HR :0.91978: (Sim:0h23m11s) 
CPU  0 inst:  288000000 cyc:  223355294 now IPC :1.08986: AVG IPC :1.28612: L2-Pf-HR :0.96897: L2-HR :0.91961: (Sim:0h23m15s) 
CPU  0 inst:  289000001 cyc:  224107269 now IPC :1.32983: AVG IPC :1.28627: L2-Pf-HR :0.96899: L2-HR :0.91962: (Sim:0h23m19s) 
CPU  0 inst:  290000001 cyc:  224861343 now IPC :1.32613: AVG IPC :1.28640: L2-Pf-HR :0.96899: L2-HR :0.91958: (Sim:0h23m23s) 
CPU  0 inst:  291000003 cyc:  225609743 now IPC :1.33619: AVG IPC :1.28657: L2-Pf-HR :0.96898: L2-HR :0.91956: (Sim:0h23m28s) 
CPU  0 inst:  292000000 cyc:  226359797 now IPC :1.33323: AVG IPC :1.28672: L2-Pf-HR :0.96902: L2-HR :0.91957: (Sim:0h23m33s) 
CPU  0 inst:  293000001 cyc:  227112324 now IPC :1.32886: AVG IPC :1.28686: L2-Pf-HR :0.96899: L2-HR :0.91952: (Sim:0h23m39s) 
CPU  0 inst:  294000001 cyc:  227853375 now IPC :1.34943: AVG IPC :1.28707: L2-Pf-HR :0.96901: L2-HR :0.91952: (Sim:0h23m44s) 
CPU  0 inst:  295000001 cyc:  228606914 now IPC :1.32707: AVG IPC :1.28720: L2-Pf-HR :0.96903: L2-HR :0.91953: (Sim:0h23m50s) 
CPU  0 inst:  296000000 cyc:  229443792 now IPC :1.19492: AVG IPC :1.28686: L2-Pf-HR :0.96904: L2-HR :0.91946: (Sim:0h23m55s) 
CPU  0 inst:  297000003 cyc:  230198387 now IPC :1.32522: AVG IPC :1.28699: L2-Pf-HR :0.96905: L2-HR :0.91944: (Sim:0h24m1s) 
CPU  0 inst:  298000000 cyc:  230948720 now IPC :1.33274: AVG IPC :1.28714: L2-Pf-HR :0.96907: L2-HR :0.91942: (Sim:0h24m5s) 
CPU  0 inst:  299000003 cyc:  231699934 now IPC :1.33118: AVG IPC :1.28728: L2-Pf-HR :0.96909: L2-HR :0.91940: (Sim:0h24m9s) 
CPU  0 inst:  300000000 cyc:  232498942 now IPC :1.25155: AVG IPC :1.28716: L2-Pf-HR :0.96910: L2-HR :0.91936: (Sim:0h24m13s) 
CPU  0 inst:  301000003 cyc:  233368322 now IPC :1.15025: AVG IPC :1.28664: L2-Pf-HR :0.96898: L2-HR :0.91916: (Sim:0h24m17s) 
CPU  0 inst:  302000003 cyc:  234140877 now IPC :1.29441: AVG IPC :1.28667: L2-Pf-HR :0.96896: L2-HR :0.91911: (Sim:0h24m21s) 
CPU  0 inst:  303000001 cyc:  234915943 now IPC :1.29021: AVG IPC :1.28668: L2-Pf-HR :0.96885: L2-HR :0.91895: (Sim:0h24m25s) 
CPU  0 inst:  304000000 cyc:  235691970 now IPC :1.28861: AVG IPC :1.28669: L2-Pf-HR :0.96884: L2-HR :0.91890: (Sim:0h24m29s) 
CPU  0 inst:  305000002 cyc:  236467715 now IPC :1.28909: AVG IPC :1.28669: L2-Pf-HR :0.96882: L2-HR :0.91883: (Sim:0h24m33s) 
CPU  0 inst:  306000001 cyc:  237252163 now IPC :1.27478: AVG IPC :1.28666: L2-Pf-HR :0.96872: L2-HR :0.91869: (Sim:0h24m37s) 
CPU  0 inst:  307000002 cyc:  238035488 now IPC :1.27661: AVG IPC :1.28662: L2-Pf-HR :0.96872: L2-HR :0.91865: (Sim:0h24m41s) 
CPU  0 inst:  308000000 cyc:  238965734 now IPC :1.07498: AVG IPC :1.28579: L2-Pf-HR :0.96863: L2-HR :0.91849: (Sim:0h24m45s) 
CPU  0 inst:  309000003 cyc:  239727396 now IPC :1.31292: AVG IPC :1.28588: L2-Pf-HR :0.96865: L2-HR :0.91849: (Sim:0h24m49s) 
CPU  0 inst:  310000000 cyc:  240489335 now IPC :1.31244: AVG IPC :1.28597: L2-Pf-HR :0.96864: L2-HR :0.91845: (Sim:0h24m53s) 
CPU  0 inst:  311000002 cyc:  241249968 now IPC :1.31470: AVG IPC :1.28606: L2-Pf-HR :0.96864: L2-HR :0.91843: (Sim:0h24m58s) 
CPU  0 inst:  312000000 cyc:  242007700 now IPC :1.31973: AVG IPC :1.28616: L2-Pf-HR :0.96867: L2-HR :0.91844: (Sim:0h25m3s) 
CPU  0 inst:  313000002 cyc:  242767734 now IPC :1.31573: AVG IPC :1.28626: L2-Pf-HR :0.96865: L2-HR :0.91839: (Sim:0h25m6s) 
CPU  0 inst:  314000003 cyc:  243520383 now IPC :1.32864: AVG IPC :1.28639: L2-Pf-HR :0.96866: L2-HR :0.91838: (Sim:0h25m10s) 
CPU  0 inst:  315000003 cyc:  244286399 now IPC :1.30546: AVG IPC :1.28645: L2-Pf-HR :0.96868: L2-HR :0.91839: (Sim:0h25m15s) 
CPU  0 inst:  316000000 cyc:  245102047 now IPC :1.22602: AVG IPC :1.28625: L2-Pf-HR :0.96869: L2-HR :0.91833: (Sim:0h25m20s) 
CPU  0 inst:  317000000 cyc:  245841582 now IPC :1.35220: AVG IPC :1.28644: L2-Pf-HR :0.96870: L2-HR :0.91830: (Sim:0h25m26s) 
CPU  0 inst:  318000000 cyc:  246576659 now IPC :1.36040: AVG IPC :1.28667: L2-Pf-HR :0.96872: L2-HR :0.91828: (Sim:0h25m31s) 
CPU  0 inst:  319000000 cyc:  247311339 now IPC :1.36114: AVG IPC :1.28689: L2-Pf-HR :0.96873: L2-HR :0.91826: (Sim:0h25m37s) 
CPU  0 inst:  320000000 cyc:  248113214 now IPC :1.24708: AVG IPC :1.28676: L2-Pf-HR :0.96875: L2-HR :0.91822: (Sim:0h25m43s) 
CPU  0 inst:  321000001 cyc:  248975676 now IPC :1.15947: AVG IPC :1.28632: L2-Pf-HR :0.96864: L2-HR :0.91803: (Sim:0h25m48s) 
CPU  0 inst:  322000003 cyc:  249745943 now IPC :1.29825: AVG IPC :1.28635: L2-Pf-HR :0.96864: L2-HR :0.91798: (Sim:0h25m54s) 
CPU  0 inst:  323000000 cyc:  250526450 now IPC :1.28121: AVG IPC :1.28634: L2-Pf-HR :0.96855: L2-HR :0.91784: (Sim:0h25m59s) 
CPU  0 inst:  324000000 cyc:  251300329 now IPC :1.29219: AVG IPC :1.28636: L2-Pf-HR :0.96854: L2-HR :0.91778: (Sim:0h26m4s) 
CPU  0 inst:  325000000 cyc:  252076891 now IPC :1.28773: AVG IPC :1.28636: L2-Pf-HR :0.96851: L2-HR :0.91771: (Sim:0h26m9s) 
CPU  0 inst:  326000002 cyc:  252863228 now IPC :1.27172: AVG IPC :1.28631: L2-Pf-HR :0.96843: L2-HR :0.91757: (Sim:0h26m15s) 
CPU  0 inst:  327000003 cyc:  253644059 now IPC :1.28069: AVG IPC :1.28630: L2-Pf-HR :0.96842: L2-HR :0.91752: (Sim:0h26m20s) 
CPU  0 inst:  328000000 cyc:  254568643 now IPC :1.08156: AVG IPC :1.28555: L2-Pf-HR :0.96833: L2-HR :0.91735: (Sim:0h26m26s) 
CPU  0 inst:  329000002 cyc:  255335459 now IPC :1.30410: AVG IPC :1.28561: L2-Pf-HR :0.96836: L2-HR :0.91735: (Sim:0h26m32s) 
CPU  0 inst:  330000003 cyc:  256100461 now IPC :1.30719: AVG IPC :1.28567: L2-Pf-HR :0.96834: L2-HR :0.91731: (Sim:0h26m37s) 
CPU  0 inst:  331000000 cyc:  256862188 now IPC :1.31280: AVG IPC :1.28575: L2-Pf-HR :0.96834: L2-HR :0.91728: (Sim:0h26m42s) 
CPU  0 inst:  332000000 cyc:  257619807 now IPC :1.31992: AVG IPC :1.28585: L2-Pf-HR :0.96837: L2-HR :0.91728: (Sim:0h26m47s) 
CPU  0 inst:  333000001 cyc:  258381076 now IPC :1.31360: AVG IPC :1.28593: L2-Pf-HR :0.96834: L2-HR :0.91723: (Sim:0h26m52s) 
CPU  0 inst:  334000001 cyc:  259138854 now IPC :1.31965: AVG IPC :1.28603: L2-Pf-HR :0.96835: L2-HR :0.91722: (Sim:0h26m56s) 
CPU  0 inst:  335000001 cyc:  259914260 now IPC :1.28965: AVG IPC :1.28604: L2-Pf-HR :0.96837: L2-HR :0.91721: (Sim:0h27m0s) 
CPU  0 inst:  336000000 cyc:  260736649 now IPC :1.21597: AVG IPC :1.28582: L2-Pf-HR :0.96837: L2-HR :0.91715: (Sim:0h27m4s) 
CPU  0 inst:  337000000 cyc:  261492052 now IPC :1.32380: AVG IPC :1.28593: L2-Pf-HR :0.96838: L2-HR :0.91713: (Sim:0h27m7s) 
CPU  0 inst:  338000002 cyc:  262242904 now IPC :1.33182: AVG IPC :1.28606: L2-Pf-HR :0.96840: L2-HR :0.91710: (Sim:0h27m11s) 
CPU  0 inst:  339000001 cyc:  262996177 now IPC :1.32754: AVG IPC :1.28618: L2-Pf-HR :0.96841: L2-HR :0.91708: (Sim:0h27m15s) 
CPU  0 inst:  340000000 cyc:  263826532 now IPC :1.20430: AVG IPC :1.28592: L2-Pf-HR :0.96842: L2-HR :0.91702: (Sim:0h27m21s) 
CPU  0 inst:  341000000 cyc:  264662066 now IPC :1.19684: AVG IPC :1.28564: L2-Pf-HR :0.96831: L2-HR :0.91685: (Sim:0h27m24s) 
CPU  0 inst:  342000002 cyc:  265425151 now IPC :1.31047: AVG IPC :1.28571: L2-Pf-HR :0.96829: L2-HR :0.91678: (Sim:0h27m28s) 
CPU  0 inst:  343000002 cyc:  266188970 now IPC :1.30921: AVG IPC :1.28578: L2-Pf-HR :0.96820: L2-HR :0.91664: (Sim:0h27m32s) 
CPU  0 inst:  344000000 cyc:  266949270 now IPC :1.31527: AVG IPC :1.28587: L2-Pf-HR :0.96819: L2-HR :0.91658: (Sim:0h27m36s) 
CPU  0 inst:  345000003 cyc:  267711070 now IPC :1.31268: AVG IPC :1.28594: L2-Pf-HR :0.96817: L2-HR :0.91651: (Sim:0h27m40s) 
CPU  0 inst:  346000001 cyc:  268486863 now IPC :1.28900: AVG IPC :1.28595: L2-Pf-HR :0.96808: L2-HR :0.91638: (Sim:0h27m44s) 
CPU  0 inst:  347000002 cyc:  269253455 now IPC :1.30448: AVG IPC :1.28600: L2-Pf-HR :0.96807: L2-HR :0.91633: (Sim:0h27m50s) 
CPU  0 inst:  348000000 cyc:  270174623 now IPC :1.08558: AVG IPC :1.28532: L2-Pf-HR :0.96799: L2-HR :0.91617: (Sim:0h27m56s) 
CPU  0 inst:  349000001 cyc:  270938721 now IPC :1.30873: AVG IPC :1.28538: L2-Pf-HR :0.96801: L2-HR :0.91616: (Sim:0h28m1s) 
CPU  0 inst:  350000001 cyc:  271706777 now IPC :1.30199: AVG IPC :1.28543: L2-Pf-HR :0.96799: L2-HR :0.91612: (Sim:0h28m7s) 
CPU  0 inst:  351000003 cyc:  272470539 now IPC :1.30931: AVG IPC :1.28550: L2-Pf-HR :0.96798: L2-HR :0.91608: (Sim:0h28m12s) 
CPU  0 inst:  352000000 cyc:  273231330 now IPC :1.31442: AVG IPC :1.28558: L2-Pf-HR :0.96801: L2-HR :0.91608: (Sim:0h28m18s) 
CPU  0 inst:  353000003 cyc:  273996904 now IPC :1.30621: AVG IPC :1.28564: L2-Pf-HR :0.96798: L2-HR :0.91603: (Sim:0h28m23s) 
CPU  0 inst:  354000003 cyc:  274752098 now IPC :1.32416: AVG IPC :1.28574: L2-Pf-HR :0.96799: L2-HR :0.91601: (Sim:0h28m28s) 
CPU  0 inst:  355000003 cyc:  275535381 now IPC :1.27668: AVG IPC :1.28572: L2-Pf-HR :0.96800: L2-HR :0.91599: (Sim:0h28m31s) 
CPU  0 inst:  356000000 cyc:  276349669 now IPC :1.22806: AVG IPC :1.28555: L2-Pf-HR :0.96800: L2-HR :0.91593: (Sim:0h28m35s) 
CPU  0 inst:  357000003 cyc:  277107093 now IPC :1.32027: AVG IPC :1.28564: L2-Pf-HR :0.96801: L2-HR :0.91590: (Sim:0h28m39s) 
CPU  0 inst:  358000001 cyc:  277858672 now IPC :1.33053: AVG IPC :1.28576: L2-Pf-HR :0.96801: L2-HR :0.91587: (Sim:0h28m43s) 
CPU  0 inst:  359000001 cyc:  278612814 now IPC :1.32601: AVG IPC :1.28587: L2-Pf-HR :0.96802: L2-HR :0.91584: (Sim:0h28m47s) 
CPU  0 inst:  360000000 cyc:  279458315 now IPC :1.18273: AVG IPC :1.28556: L2-Pf-HR :0.96802: L2-HR :0.91577: (Sim:0h28m52s) 
CPU  0 inst:  361000003 cyc:  280284826 now IPC :1.20991: AVG IPC :1.28534: L2-Pf-HR :0.96793: L2-HR :0.91561: (Sim:0h28m58s) 
CPU  0 inst:  362000003 cyc:  281052670 now IPC :1.30235: AVG IPC :1.28538: L2-Pf-HR :0.96791: L2-HR :0.91554: (Sim:0h29m4s) 
CPU  0 inst:  363000001 cyc:  281825144 now IPC :1.29454: AVG IPC :1.28541: L2-Pf-HR :0.96782: L2-HR :0.91540: (Sim:0h29m10s) 
CPU  0 inst:  364000000 cyc:  282587542 now IPC :1.31165: AVG IPC :1.28548: L2-Pf-HR :0.96780: L2-HR :0.91533: (Sim:0h29m15s) 
CPU  0 inst:  365000002 cyc:  283360932 now IPC :1.29301: AVG IPC :1.28550: L2-Pf-HR :0.96777: L2-HR :0.91526: (Sim:0h29m20s) 
CPU  0 inst:  366000002 cyc:  284142709 now IPC :1.27914: AVG IPC :1.28548: L2-Pf-HR :0.96769: L2-HR :0.91512: (Sim:0h29m26s) 
CPU  0 inst:  367000000 cyc:  284909798 now IPC :1.30363: AVG IPC :1.28553: L2-Pf-HR :0.96768: L2-HR :0.91506: (Sim:0h29m32s) 
CPU  0 inst:  368000000 cyc:  285829808 now IPC :1.08694: AVG IPC :1.28489: L2-Pf-HR :0.96760: L2-HR :0.91491: (Sim:0h29m38s) 
CPU  0 inst:  369000003 cyc:  286579124 now IPC :1.33455: AVG IPC :1.28502: L2-Pf-HR :0.96762: L2-HR :0.91489: (Sim:0h29m43s) 
CPU  0 inst:  370000000 cyc:  287331174 now IPC :1.32969: AVG IPC :1.28514: L2-Pf-HR :0.96760: L2-HR :0.91485: (Sim:0h29m49s) 
CPU  0 inst:  371000002 cyc:  288077447 now IPC :1.33999: AVG IPC :1.28528: L2-Pf-HR :0.96760: L2-HR :0.91481: (Sim:0h29m54s) 
CPU  0 inst:  372000000 cyc:  288822004 now IPC :1.34308: AVG IPC :1.28543: L2-Pf-HR :0.96762: L2-HR :0.91481: (Sim:0h29m59s) 
CPU  0 inst:  373000002 cyc:  289569964 now IPC :1.33697: AVG IPC :1.28556: L2-Pf-HR :0.96759: L2-HR :0.91475: (Sim:0h30m5s) 
CPU  0 inst:  374000001 cyc:  290307999 now IPC :1.35495: AVG IPC :1.28574: L2-Pf-HR :0.96759: L2-HR :0.91473: (Sim:0h30m10s) 
CPU  0 inst:  375000002 cyc:  291093323 now IPC :1.27336: AVG IPC :1.28571: L2-Pf-HR :0.96759: L2-HR :0.91469: (Sim:0h30m16s) 
CPU  0 inst:  376000000 cyc:  291899512 now IPC :1.24040: AVG IPC :1.28558: L2-Pf-HR :0.96759: L2-HR :0.91464: (Sim:0h30m21s) 
CPU  0 inst:  377000000 cyc:  292656195 now IPC :1.32156: AVG IPC :1.28568: L2-Pf-HR :0.96760: L2-HR :0.91461: (Sim:0h30m27s) 
CPU  0 inst:  378000003 cyc:  293410326 now IPC :1.32603: AVG IPC :1.28578: L2-Pf-HR :0.96760: L2-HR :0.91458: (Sim:0h30m32s) 
CPU  0 inst:  379000002 cyc:  294164615 now IPC :1.32575: AVG IPC :1.28588: L2-Pf-HR :0.96761: L2-HR :0.91455: (Sim:0h30m38s) 
CPU  0 inst:  380000000 cyc:  295022546 now IPC :1.16559: AVG IPC :1.28553: L2-Pf-HR :0.96760: L2-HR :0.91446: (Sim:0h30m43s) 
CPU  0 inst:  381000001 cyc:  295843295 now IPC :1.21840: AVG IPC :1.28534: L2-Pf-HR :0.96752: L2-HR :0.91432: (Sim:0h30m49s) 
CPU  0 inst:  382000002 cyc:  296618488 now IPC :1.29000: AVG IPC :1.28536: L2-Pf-HR :0.96750: L2-HR :0.91425: (Sim:0h30m53s) 
CPU  0 inst:  383000002 cyc:  297402781 now IPC :1.27503: AVG IPC :1.28533: L2-Pf-HR :0.96742: L2-HR :0.91411: (Sim:0h30m58s) 
CPU  0 inst:  384000000 cyc:  298173817 now IPC :1.29695: AVG IPC :1.28536: L2-Pf-HR :0.96740: L2-HR :0.91405: (Sim:0h31m4s) 
CPU  0 inst:  385000000 cyc:  298954450 now IPC :1.28101: AVG IPC :1.28535: L2-Pf-HR :0.96738: L2-HR :0.91397: (Sim:0h31m8s) 
CPU  0 inst:  386000002 cyc:  299740329 now IPC :1.27246: AVG IPC :1.28531: L2-Pf-HR :0.96730: L2-HR :0.91384: (Sim:0h31m12s) 
CPU  0 inst:  387000003 cyc:  300521943 now IPC :1.27941: AVG IPC :1.28530: L2-Pf-HR :0.96729: L2-HR :0.91378: (Sim:0h31m17s) 
CPU  0 inst:  388000000 cyc:  301451812 now IPC :1.07542: AVG IPC :1.28465: L2-Pf-HR :0.96721: L2-HR :0.91362: (Sim:0h31m24s) 
CPU  0 inst:  389000002 cyc:  302211172 now IPC :1.31690: AVG IPC :1.28473: L2-Pf-HR :0.96722: L2-HR :0.91361: (Sim:0h31m29s) 
CPU  0 inst:  390000001 cyc:  302973254 now IPC :1.31219: AVG IPC :1.28480: L2-Pf-HR :0.96721: L2-HR :0.91356: (Sim:0h31m35s) 
CPU  0 inst:  391000000 cyc:  303733692 now IPC :1.31503: AVG IPC :1.28488: L2-Pf-HR :0.96720: L2-HR :0.91352: (Sim:0h31m40s) 
CPU  0 inst:  392000000 cyc:  304487637 now IPC :1.32636: AVG IPC :1.28498: L2-Pf-HR :0.96722: L2-HR :0.91351: (Sim:0h31m46s) 
CPU  0 inst:  393000001 cyc:  305247714 now IPC :1.31566: AVG IPC :1.28506: L2-Pf-HR :0.96720: L2-HR :0.91346: (Sim:0h31m51s) 
CPU  0 inst:  394000003 cyc:  306000248 now IPC :1.32885: AVG IPC :1.28516: L2-Pf-HR :0.96720: L2-HR :0.91343: (Sim:0h31m57s) 
CPU  0 inst:  395000003 cyc:  306806893 now IPC :1.23970: AVG IPC :1.28504: L2-Pf-HR :0.96720: L2-HR :0.91339: (Sim:0h32m3s) 
CPU  0 inst:  396000000 cyc:  307594636 now IPC :1.26945: AVG IPC :1.28500: L2-Pf-HR :0.96720: L2-HR :0.91334: (Sim:0h32m8s) 
CPU  0 inst:  397000003 cyc:  308341592 now IPC :1.33877: AVG IPC :1.28513: L2-Pf-HR :0.96721: L2-HR :0.91331: (Sim:0h32m14s) 
CPU  0 inst:  398000001 cyc:  309086637 now IPC :1.34220: AVG IPC :1.28527: L2-Pf-HR :0.96721: L2-HR :0.91327: (Sim:0h32m19s) 
CPU  0 inst:  399000000 cyc:  309829702 now IPC :1.34578: AVG IPC :1.28542: L2-Pf-HR :0.96721: L2-HR :0.91324: (Sim:0h32m25s) 
CPU  0 inst:  400000000 cyc:  310684855 now IPC :1.16938: AVG IPC :1.28510: L2-Pf-HR :0.96720: L2-HR :0.91315: (Sim:0h32m31s) 
CPU  0 inst:  401000000 cyc:  311502201 now IPC :1.22347: AVG IPC :1.28493: L2-Pf-HR :0.96712: L2-HR :0.91302: (Sim:0h32m36s) 
CPU  0 inst:  402000001 cyc:  312275000 now IPC :1.29400: AVG IPC :1.28496: L2-Pf-HR :0.96710: L2-HR :0.91294: (Sim:0h32m42s) 
CPU  0 inst:  403000001 cyc:  313056777 now IPC :1.27914: AVG IPC :1.28494: L2-Pf-HR :0.96702: L2-HR :0.91280: (Sim:0h32m47s) 
CPU  0 inst:  404000000 cyc:  313827532 now IPC :1.29743: AVG IPC :1.28497: L2-Pf-HR :0.96700: L2-HR :0.91273: (Sim:0h32m53s) 
CPU  0 inst:  405000003 cyc:  314603162 now IPC :1.28928: AVG IPC :1.28498: L2-Pf-HR :0.96697: L2-HR :0.91266: (Sim:0h32m58s) 
CPU  0 inst:  406000001 cyc:  315394162 now IPC :1.26422: AVG IPC :1.28493: L2-Pf-HR :0.96690: L2-HR :0.91253: (Sim:0h33m4s) 
CPU  0 inst:  407000001 cyc:  316171770 now IPC :1.28600: AVG IPC :1.28493: L2-Pf-HR :0.96688: L2-HR :0.91247: (Sim:0h33m9s) 
CPU  0 inst:  408000000 cyc:  317096278 now IPC :1.08166: AVG IPC :1.28434: L2-Pf-HR :0.96682: L2-HR :0.91232: (Sim:0h33m16s) 
CPU  0 inst:  409000000 cyc:  317865202 now IPC :1.30052: AVG IPC :1.28438: L2-Pf-HR :0.96683: L2-HR :0.91231: (Sim:0h33m21s) 
CPU  0 inst:  410000001 cyc:  318633003 now IPC :1.30242: AVG IPC :1.28442: L2-Pf-HR :0.96681: L2-HR :0.91226: (Sim:0h33m27s) 
CPU  0 inst:  411000000 cyc:  319401302 now IPC :1.30158: AVG IPC :1.28446: L2-Pf-HR :0.96680: L2-HR :0.91222: (Sim:0h33m32s) 
CPU  0 inst:  412000000 cyc:  320163958 now IPC :1.31121: AVG IPC :1.28453: L2-Pf-HR :0.96682: L2-HR :0.91221: (Sim:0h33m37s) 
CPU  0 inst:  413000003 cyc:  320932854 now IPC :1.30057: AVG IPC :1.28457: L2-Pf-HR :0.96679: L2-HR :0.91215: (Sim:0h33m43s) 
CPU  0 inst:  414000002 cyc:  321688943 now IPC :1.32259: AVG IPC :1.28466: L2-Pf-HR :0.96679: L2-HR :0.91212: (Sim:0h33m48s) 
CPU  0 inst:  415000001 cyc:  322513430 now IPC :1.21287: AVG IPC :1.28447: L2-Pf-HR :0.96679: L2-HR :0.91207: (Sim:0h33m54s) 
CPU  0 inst:  416000000 cyc:  323298469 now IPC :1.27382: AVG IPC :1.28445: L2-Pf-HR :0.96679: L2-HR :0.91204: (Sim:0h33m58s) 
CPU  0 inst:  417000001 cyc:  324053321 now IPC :1.32476: AVG IPC :1.28454: L2-Pf-HR :0.96680: L2-HR :0.91201: (Sim:0h34m2s) 
CPU  0 inst:  418000003 cyc:  324803625 now IPC :1.33280: AVG IPC :1.28465: L2-Pf-HR :0.96680: L2-HR :0.91198: (Sim:0h34m7s) 
CPU  0 inst:  419000001 cyc:  325557220 now IPC :1.32697: AVG IPC :1.28475: L2-Pf-HR :0.96681: L2-HR :0.91195: (Sim:0h34m12s) 
CPU  0 inst:  420000000 cyc:  326422492 now IPC :1.15570: AVG IPC :1.28441: L2-Pf-HR :0.96680: L2-HR :0.91187: (Sim:0h34m18s) 
CPU  0 inst:  421000002 cyc:  327239283 now IPC :1.22431: AVG IPC :1.28426: L2-Pf-HR :0.96672: L2-HR :0.91174: (Sim:0h34m23s) 
CPU  0 inst:  422000003 cyc:  328018900 now IPC :1.28268: AVG IPC :1.28425: L2-Pf-HR :0.96670: L2-HR :0.91167: (Sim:0h34m27s) 
CPU  0 inst:  423000001 cyc:  328805460 now IPC :1.27136: AVG IPC :1.28422: L2-Pf-HR :0.96661: L2-HR :0.91153: (Sim:0h34m31s) 
CPU  0 inst:  424000000 cyc:  329583069 now IPC :1.28599: AVG IPC :1.28423: L2-Pf-HR :0.96659: L2-HR :0.91147: (Sim:0h34m35s) 
CPU  0 inst:  425000002 cyc:  330364361 now IPC :1.27993: AVG IPC :1.28422: L2-Pf-HR :0.96656: L2-HR :0.91140: (Sim:0h34m38s) 
CPU  0 inst:  426000003 cyc:  331159183 now IPC :1.25814: AVG IPC :1.28415: L2-Pf-HR :0.96649: L2-HR :0.91127: (Sim:0h34m42s) 
CPU  0 inst:  427000000 cyc:  331937555 now IPC :1.28473: AVG IPC :1.28416: L2-Pf-HR :0.96648: L2-HR :0.91121: (Sim:0h34m46s) 
CPU  0 inst:  428000000 cyc:  332864891 now IPC :1.07836: AVG IPC :1.28358: L2-Pf-HR :0.96641: L2-HR :0.91107: (Sim:0h34m51s) 
CPU  0 inst:  429000003 cyc:  333627624 now IPC :1.31108: AVG IPC :1.28364: L2-Pf-HR :0.96642: L2-HR :0.91105: (Sim:0h34m55s) 
CPU  0 inst:  430000002 cyc:  334397423 now IPC :1.29904: AVG IPC :1.28368: L2-Pf-HR :0.96640: L2-HR :0.91100: (Sim:0h35m0s) 
CPU  0 inst:  431000001 cyc:  335164040 now IPC :1.30443: AVG IPC :1.28373: L2-Pf-HR :0.96640: L2-HR :0.91096: (Sim:0h35m6s) 
CPU  0 inst:  432000000 cyc:  335921493 now IPC :1.32021: AVG IPC :1.28381: L2-Pf-HR :0.96641: L2-HR :0.91095: (Sim:0h35m11s) 
CPU  0 inst:  433000002 cyc:  336686554 now IPC :1.30709: AVG IPC :1.28386: L2-Pf-HR :0.96638: L2-HR :0.91089: (Sim:0h35m17s) 
CPU  0 inst:  434000001 cyc:  337442180 now IPC :1.32340: AVG IPC :1.28395: L2-Pf-HR :0.96639: L2-HR :0.91086: (Sim:0h35m22s) 
CPU  0 inst:  435000001 cyc:  338253203 now IPC :1.23301: AVG IPC :1.28383: L2-Pf-HR :0.96638: L2-HR :0.91080: (Sim:0h35m28s) 
CPU  0 inst:  436000000 cyc:  339034288 now IPC :1.28027: AVG IPC :1.28382: L2-Pf-HR :0.96638: L2-HR :0.91077: (Sim:0h35m34s) 
CPU  0 inst:  437000000 cyc:  339784000 now IPC :1.33385: AVG IPC :1.28393: L2-Pf-HR :0.96638: L2-HR :0.91074: (Sim:0h35m40s) 
CPU  0 inst:  438000001 cyc:  340534551 now IPC :1.33236: AVG IPC :1.28404: L2-Pf-HR :0.96638: L2-HR :0.91071: (Sim:0h35m45s) 
CPU  0 inst:  439000000 cyc:  341284787 now IPC :1.33291: AVG IPC :1.28415: L2-Pf-HR :0.96639: L2-HR :0.91068: (Sim:0h35m49s) 
CPU  0 inst:  440000000 cyc:  342149335 now IPC :1.15667: AVG IPC :1.28382: L2-Pf-HR :0.96637: L2-HR :0.91060: (Sim:0h35m54s) 
CPU  0 inst:  441000001 cyc:  342967142 now IPC :1.22278: AVG IPC :1.28368: L2-Pf-HR :0.96630: L2-HR :0.91047: (Sim:0h35m58s) 
CPU  0 inst:  442000002 cyc:  343745999 now IPC :1.28393: AVG IPC :1.28368: L2-Pf-HR :0.96628: L2-HR :0.91040: (Sim:0h36m3s) 
CPU  0 inst:  443000002 cyc:  344536526 now IPC :1.26498: AVG IPC :1.28363: L2-Pf-HR :0.96620: L2-HR :0.91026: (Sim:0h36m8s) 
CPU  0 inst:  444000000 cyc:  345310878 now IPC :1.29140: AVG IPC :1.28365: L2-Pf-HR :0.96619: L2-HR :0.91020: (Sim:0h36m14s) 
CPU  0 inst:  445000000 cyc:  346097542 now IPC :1.27119: AVG IPC :1.28362: L2-Pf-HR :0.96615: L2-HR :0.91011: (Sim:0h36m19s) 
CPU  0 inst:  446000001 cyc:  346888600 now IPC :1.26413: AVG IPC :1.28358: L2-Pf-HR :0.96608: L2-HR :0.90998: (Sim:0h36m24s) 
CPU  0 inst:  447000003 cyc:  347673440 now IPC :1.27415: AVG IPC :1.28356: L2-Pf-HR :0.96606: L2-HR :0.90992: (Sim:0h36m28s) 
CPU  0 inst:  448000000 cyc:  348608662 now IPC :1.06926: AVG IPC :1.28298: L2-Pf-HR :0.96599: L2-HR :0.90977: (Sim:0h36m32s) 
CPU  0 inst:  449000001 cyc:  349375574 now IPC :1.30393: AVG IPC :1.28303: L2-Pf-HR :0.96600: L2-HR :0.90974: (Sim:0h36m36s) 
CPU  0 inst:  450000002 cyc:  350147552 now IPC :1.29537: AVG IPC :1.28305: L2-Pf-HR :0.96598: L2-HR :0.90969: (Sim:0h36m42s) 
CPU  0 inst:  451000000 cyc:  350910857 now IPC :1.31009: AVG IPC :1.28311: L2-Pf-HR :0.96597: L2-HR :0.90965: (Sim:0h36m47s) 
CPU  0 inst:  452000000 cyc:  351673068 now IPC :1.31197: AVG IPC :1.28318: L2-Pf-HR :0.96598: L2-HR :0.90963: (Sim:0h36m53s) 
CPU  0 inst:  453000000 cyc:  352442390 now IPC :1.29985: AVG IPC :1.28321: L2-Pf-HR :0.96595: L2-HR :0.90956: (Sim:0h36m59s) 
CPU  0 inst:  454000001 cyc:  353201811 now IPC :1.31679: AVG IPC :1.28328: L2-Pf-HR :0.96595: L2-HR :0.90953: (Sim:0h37m4s) 
CPU  0 inst:  455000003 cyc:  354027531 now IPC :1.21107: AVG IPC :1.28312: L2-Pf-HR :0.96594: L2-HR :0.90947: (Sim:0h37m10s) 
CPU  0 inst:  456000000 cyc:  354812356 now IPC :1.27417: AVG IPC :1.28310: L2-Pf-HR :0.96594: L2-HR :0.90943: (Sim:0h37m16s) 
CPU  0 inst:  457000002 cyc:  355569391 now IPC :1.32095: AVG IPC :1.28318: L2-Pf-HR :0.96594: L2-HR :0.90940: (Sim:0h37m20s) 
CPU  0 inst:  458000000 cyc:  356324598 now IPC :1.32414: AVG IPC :1.28326: L2-Pf-HR :0.96594: L2-HR :0.90937: (Sim:0h37m24s) 
CPU  0 inst:  459000003 cyc:  357080355 now IPC :1.32318: AVG IPC :1.28335: L2-Pf-HR :0.96594: L2-HR :0.90934: (Sim:0h37m28s) 
CPU  0 inst:  460000000 cyc:  357947758 now IPC :1.15286: AVG IPC :1.28303: L2-Pf-HR :0.96593: L2-HR :0.90925: (Sim:0h37m34s) 
CPU  0 inst:  461000001 cyc:  358752927 now IPC :1.24198: AVG IPC :1.28294: L2-Pf-HR :0.96586: L2-HR :0.90913: (Sim:0h37m40s) 
CPU  0 inst:  462000001 cyc:  359524043 now IPC :1.29682: AVG IPC :1.28297: L2-Pf-HR :0.96584: L2-HR :0.90905: (Sim:0h37m44s) 
CPU  0 inst:  463000001 cyc:  360306656 now IPC :1.27777: AVG IPC :1.28296: L2-Pf-HR :0.96576: L2-HR :0.90891: (Sim:0h37m48s) 
CPU  0 inst:  464000000 cyc:  361072851 now IPC :1.30515: AVG IPC :1.28300: L2-Pf-HR :0.96574: L2-HR :0.90884: (Sim:0h37m52s) 
CPU  0 inst:  465000003 cyc:  361848488 now IPC :1.28927: AVG IPC :1.28302: L2-Pf-HR :0.96571: L2-HR :0.90876: (Sim:0h37m57s) 
CPU  0 inst:  466000000 cyc:  362636626 now IPC :1.26881: AVG IPC :1.28299: L2-Pf-HR :0.96565: L2-HR :0.90864: (Sim:0h38m2s) 
CPU  0 inst:  467000000 cyc:  363412277 now IPC :1.28924: AVG IPC :1.28300: L2-Pf-HR :0.96564: L2-HR :0.90858: (Sim:0h38m8s) 
CPU  0 inst:  468000000 cyc:  364339749 now IPC :1.07820: AVG IPC :1.28248: L2-Pf-HR :0.96557: L2-HR :0.90843: (Sim:0h38m15s) 
CPU  0 inst:  469000000 cyc:  365103647 now IPC :1.30908: AVG IPC :1.28253: L2-Pf-HR :0.96557: L2-HR :0.90841: (Sim:0h38m19s) 
CPU  0 inst:  470000002 cyc:  365871725 now IPC :1.30195: AVG IPC :1.28257: L2-Pf-HR :0.96555: L2-HR :0.90835: (Sim:0h38m24s) 
CPU  0 inst:  471000002 cyc:  366637655 now IPC :1.30560: AVG IPC :1.28262: L2-Pf-HR :0.96554: L2-HR :0.90830: (Sim:0h38m30s) 
CPU  0 inst:  472000000 cyc:  367396591 now IPC :1.31763: AVG IPC :1.28270: L2-Pf-HR :0.96555: L2-HR :0.90828: (Sim:0h38m35s) 
CPU  0 inst:  473000003 cyc:  368161943 now IPC :1.30659: AVG IPC :1.28275: L2-Pf-HR :0.96552: L2-HR :0.90821: (Sim:0h38m41s) 
CPU  0 inst:  474000002 cyc:  368923293 now IPC :1.31346: AVG IPC :1.28281: L2-Pf-HR :0.96552: L2-HR :0.90818: (Sim:0h38m46s) 
CPU  0 inst:  475000001 cyc:  369748882 now IPC :1.21126: AVG IPC :1.28265: L2-Pf-HR :0.96551: L2-HR :0.90812: (Sim:0h38m52s) 
CPU  0 inst:  476000000 cyc:  370527172 now IPC :1.28487: AVG IPC :1.28265: L2-Pf-HR :0.96551: L2-HR :0.90808: (Sim:0h38m58s) 
CPU  0 inst:  477000000 cyc:  371281634 now IPC :1.32545: AVG IPC :1.28274: L2-Pf-HR :0.96551: L2-HR :0.90805: (Sim:0h39m3s) 
CPU  0 inst:  478000003 cyc:  372034704 now IPC :1.32790: AVG IPC :1.28283: L2-Pf-HR :0.96551: L2-HR :0.90802: (Sim:0h39m8s) 
CPU  0 inst:  479000001 cyc:  372787032 now IPC :1.32920: AVG IPC :1.28293: L2-Pf-HR :0.96552: L2-HR :0.90799: (Sim:0h39m13s) 
CPU  0 inst:  480000000 cyc:  373659580 now IPC :1.14607: AVG IPC :1.28261: L2-Pf-HR :0.96550: L2-HR :0.90791: (Sim:0h39m19s) 
CPU  0 inst:  481000003 cyc:  374468850 now IPC :1.23569: AVG IPC :1.28250: L2-Pf-HR :0.96542: L2-HR :0.90777: (Sim:0h39m25s) 
CPU  0 inst:  482000003 cyc:  375242553 now IPC :1.29249: AVG IPC :1.28252: L2-Pf-HR :0.96541: L2-HR :0.90770: (Sim:0h39m30s) 
CPU  0 inst:  483000002 cyc:  376025629 now IPC :1.27701: AVG IPC :1.28251: L2-Pf-HR :0.96533: L2-HR :0.90757: (Sim:0h39m36s) 
CPU  0 inst:  484000000 cyc:  376797391 now IPC :1.29573: AVG IPC :1.28254: L2-Pf-HR :0.96531: L2-HR :0.90750: (Sim:0h39m42s) 
CPU  0 inst:  485000001 cyc:  377572786 now IPC :1.28967: AVG IPC :1.28255: L2-Pf-HR :0.96527: L2-HR :0.90742: (Sim:0h39m47s) 
CPU  0 inst:  486000002 cyc:  378365737 now IPC :1.26111: AVG IPC :1.28251: L2-Pf-HR :0.96521: L2-HR :0.90729: (Sim:0h39m53s) 
CPU  0 inst:  487000000 cyc:  379147214 now IPC :1.27963: AVG IPC :1.28250: L2-Pf-HR :0.96519: L2-HR :0.90723: (Sim:0h39m59s) 
CPU  0 inst:  488000000 cyc:  380073258 now IPC :1.07986: AVG IPC :1.28201: L2-Pf-HR :0.96511: L2-HR :0.90708: (Sim:0h40m5s) 
CPU  0 inst:  489000000 cyc:  380836387 now IPC :1.31039: AVG IPC :1.28207: L2-Pf-HR :0.96512: L2-HR :0.90705: (Sim:0h40m10s) 
CPU  0 inst:  490000001 cyc:  381606653 now IPC :1.29825: AVG IPC :1.28210: L2-Pf-HR :0.96510: L2-HR :0.90700: (Sim:0h40m16s) 
CPU  0 inst:  491000003 cyc:  382368364 now IPC :1.31284: AVG IPC :1.28216: L2-Pf-HR :0.96509: L2-HR :0.90695: (Sim:0h40m21s) 
CPU  0 inst:  492000000 cyc:  383125596 now IPC :1.32060: AVG IPC :1.28224: L2-Pf-HR :0.96510: L2-HR :0.90693: (Sim:0h40m27s) 
CPU  0 inst:  493000001 cyc:  383893862 now IPC :1.30163: AVG IPC :1.28227: L2-Pf-HR :0.96507: L2-HR :0.90686: (Sim:0h40m33s) 
CPU  0 inst:  494000000 cyc:  384649831 now IPC :1.32280: AVG IPC :1.28235: L2-Pf-HR :0.96507: L2-HR :0.90683: (Sim:0h40m38s) 
CPU  0 inst:  495000000 cyc:  385471325 now IPC :1.21729: AVG IPC :1.28222: L2-Pf-HR :0.96505: L2-HR :0.90677: (Sim:0h40m44s) 
CPU  0 inst:  496000000 cyc:  386249617 now IPC :1.28486: AVG IPC :1.28222: L2-Pf-HR :0.96506: L2-HR :0.90674: (Sim:0h40m49s) 
CPU  0 inst:  497000000 cyc:  386999818 now IPC :1.33298: AVG IPC :1.28232: L2-Pf-HR :0.96506: L2-HR :0.90671: (Sim:0h40m53s) 
CPU  0 inst:  498000001 cyc:  387751566 now IPC :1.33023: AVG IPC :1.28241: L2-Pf-HR :0.96506: L2-HR :0.90668: (Sim:0h40m57s) 
CPU  0 inst:  499000001 cyc:  388501903 now IPC :1.33273: AVG IPC :1.28251: L2-Pf-HR :0.96506: L2-HR :0.90664: (Sim:0h41m1s) 
CPU  0 inst:  500000000 cyc:  389374063 now IPC :1.14658: AVG IPC :1.28220: L2-Pf-HR :0.96504: L2-HR :0.90656: (Sim:0h41m6s) 
CPU  0 inst:  501000000 cyc:  390185228 now IPC :1.23279: AVG IPC :1.28210: L2-Pf-HR :0.96498: L2-HR :0.90644: (Sim:0h41m12s) 
CPU  0 inst:  502000002 cyc:  390963464 now IPC :1.28496: AVG IPC :1.28211: L2-Pf-HR :0.96496: L2-HR :0.90636: (Sim:0h41m18s) 
CPU  0 inst:  503000003 cyc:  391754659 now IPC :1.26391: AVG IPC :1.28207: L2-Pf-HR :0.96489: L2-HR :0.90623: (Sim:0h41m23s) 
CPU  0 inst:  504000000 cyc:  392535391 now IPC :1.28085: AVG IPC :1.28207: L2-Pf-HR :0.96487: L2-HR :0.90616: (Sim:0h41m28s) 
CPU  0 inst:  505000000 cyc:  393316553 now IPC :1.28014: AVG IPC :1.28206: L2-Pf-HR :0.96484: L2-HR :0.90609: (Sim:0h41m32s) 
CPU  0 inst:  506000002 cyc:  394113016 now IPC :1.25555: AVG IPC :1.28201: L2-Pf-HR :0.96477: L2-HR :0.90596: (Sim:0h41m38s) 
CPU  0 inst:  507000001 cyc:  394897199 now IPC :1.27521: AVG IPC :1.28200: L2-Pf-HR :0.96475: L2-HR :0.90590: (Sim:0h41m44s) 
CPU  0 inst:  508000000 cyc:  395831249 now IPC :1.07061: AVG IPC :1.28150: L2-Pf-HR :0.96469: L2-HR :0.90575: (Sim:0h41m50s) 
CPU  0 inst:  509000001 cyc:  396594896 now IPC :1.30951: AVG IPC :1.28155: L2-Pf-HR :0.96469: L2-HR :0.90573: (Sim:0h41m56s) 
CPU  0 inst:  510000000 cyc:  397367977 now IPC :1.29352: AVG IPC :1.28157: L2-Pf-HR :0.96467: L2-HR :0.90567: (Sim:0h42m2s) 
CPU  0 inst:  511000000 cyc:  398134467 now IPC :1.30465: AVG IPC :1.28162: L2-Pf-HR :0.96466: L2-HR :0.90563: (Sim:0h42m8s) 
CPU  0 inst:  512000000 cyc:  398894248 now IPC :1.31617: AVG IPC :1.28169: L2-Pf-HR :0.96467: L2-HR :0.90561: (Sim:0h42m13s) 
CPU  0 inst:  513000000 cyc:  399662484 now IPC :1.30168: AVG IPC :1.28172: L2-Pf-HR :0.96464: L2-HR :0.90555: (Sim:0h42m17s) 
CPU  0 inst:  514000002 cyc:  400422618 now IPC :1.31556: AVG IPC :1.28179: L2-Pf-HR :0.96464: L2-HR :0.90552: (Sim:0h42m21s) 
CPU  0 inst:  515000002 cyc:  401247654 now IPC :1.21207: AVG IPC :1.28164: L2-Pf-HR :0.96463: L2-HR :0.90546: (Sim:0h42m27s) 
CPU  0 inst:  516000000 cyc:  402020243 now IPC :1.29435: AVG IPC :1.28167: L2-Pf-HR :0.96463: L2-HR :0.90543: (Sim:0h42m31s) 
CPU  0 inst:  517000002 cyc:  402773561 now IPC :1.32746: AVG IPC :1.28175: L2-Pf-HR :0.96464: L2-HR :0.90540: (Sim:0h42m37s) 
CPU  0 inst:  518000002 cyc:  403524980 now IPC :1.33082: AVG IPC :1.28185: L2-Pf-HR :0.96464: L2-HR :0.90537: (Sim:0h42m42s) 
CPU  0 inst:  519000000 cyc:  404277926 now IPC :1.32811: AVG IPC :1.28193: L2-Pf-HR :0.96464: L2-HR :0.90535: (Sim:0h42m48s) 
CPU  0 inst:  520000000 cyc:  405149946 now IPC :1.14676: AVG IPC :1.28164: L2-Pf-HR :0.96462: L2-HR :0.90526: (Sim:0h42m53s) 
CPU  0 inst:  521000003 cyc:  405965399 now IPC :1.22632: AVG IPC :1.28153: L2-Pf-HR :0.96456: L2-HR :0.90514: (Sim:0h42m58s) 
CPU  0 inst:  522000000 cyc:  406744673 now IPC :1.28324: AVG IPC :1.28153: L2-Pf-HR :0.96454: L2-HR :0.90507: (Sim:0h43m4s) 
CPU  0 inst:  523000000 cyc:  407538146 now IPC :1.26028: AVG IPC :1.28149: L2-Pf-HR :0.96447: L2-HR :0.90495: (Sim:0h43m9s) 
CPU  0 inst:  524000000 cyc:  408317280 now IPC :1.28348: AVG IPC :1.28150: L2-Pf-HR :0.96446: L2-HR :0.90488: (Sim:0h43m15s) 
CPU  0 inst:  525000002 cyc:  409099391 now IPC :1.27859: AVG IPC :1.28149: L2-Pf-HR :0.96442: L2-HR :0.90480: (Sim:0h43m21s) 
CPU  0 inst:  526000003 cyc:  409897267 now IPC :1.25333: AVG IPC :1.28143: L2-Pf-HR :0.96436: L2-HR :0.90468: (Sim:0h43m27s) 
CPU  0 inst:  527000001 cyc:  410683644 now IPC :1.27165: AVG IPC :1.28142: L2-Pf-HR :0.96434: L2-HR :0.90462: (Sim:0h43m32s) 
CPU  0 inst:  528000000 cyc:  411612214 now IPC :1.07692: AVG IPC :1.28095: L2-Pf-HR :0.96427: L2-HR :0.90448: (Sim:0h43m39s) 
CPU  0 inst:  529000001 cyc:  412366703 now IPC :1.32540: AVG IPC :1.28104: L2-Pf-HR :0.96428: L2-HR :0.90446: (Sim:0h43m44s) 
CPU  0 inst:  530000003 cyc:  413126918 now IPC :1.31542: AVG IPC :1.28110: L2-Pf-HR :0.96426: L2-HR :0.90440: (Sim:0h43m50s) 
CPU  0 inst:  531000000 cyc:  413881542 now IPC :1.32516: AVG IPC :1.28118: L2-Pf-HR :0.96424: L2-HR :0.90436: (Sim:0h43m56s) 
CPU  0 inst:  532000000 cyc:  414635874 now IPC :1.32568: AVG IPC :1.28126: L2-Pf-HR :0.96425: L2-HR :0.90433: (Sim:0h44m1s) 
CPU  0 inst:  533000000 cyc:  415392987 now IPC :1.32081: AVG IPC :1.28133: L2-Pf-HR :0.96422: L2-HR :0.90427: (Sim:0h44m7s) 
CPU  0 inst:  534000002 cyc:  416138840 now IPC :1.34075: AVG IPC :1.28144: L2-Pf-HR :0.96421: L2-HR :0.90424: (Sim:0h44m13s) 
CPU  0 inst:  535000001 cyc:  416968108 now IPC :1.20588: AVG IPC :1.28129: L2-Pf-HR :0.96421: L2-HR :0.90418: (Sim:0h44m18s) 
CPU  0 inst:  536000000 cyc:  417741990 now IPC :1.29219: AVG IPC :1.28131: L2-Pf-HR :0.96421: L2-HR :0.90415: (Sim:0h44m24s) 
CPU  0 inst:  537000001 cyc:  418492908 now IPC :1.33170: AVG IPC :1.28140: L2-Pf-HR :0.96421: L2-HR :0.90413: (Sim:0h44m29s) 
CPU  0 inst:  538000002 cyc:  419246077 now IPC :1.32772: AVG IPC :1.28148: L2-Pf-HR :0.96421: L2-HR :0.90410: (Sim:0h44m34s) 
CPU  0 inst:  539000003 cyc:  419998973 now IPC :1.32821: AVG IPC :1.28157: L2-Pf-HR :0.96421: L2-HR :0.90407: (Sim:0h44m40s) 
CPU  0 inst:  540000000 cyc:  420875533 now IPC :1.14082: AVG IPC :1.28127: L2-Pf-HR :0.96419: L2-HR :0.90399: (Sim:0h44m45s) 
CPU  0 inst:  541000000 cyc:  421681867 now IPC :1.24018: AVG IPC :1.28119: L2-Pf-HR :0.96413: L2-HR :0.90387: (Sim:0h44m51s) 
CPU  0 inst:  542000003 cyc:  422454558 now IPC :1.29418: AVG IPC :1.28122: L2-Pf-HR :0.96411: L2-HR :0.90380: (Sim:0h44m56s) 
CPU  0 inst:  543000003 cyc:  423240245 now IPC :1.27277: AVG IPC :1.28120: L2-Pf-HR :0.96404: L2-HR :0.90368: (Sim:0h45m1s) 
CPU  0 inst:  544000000 cyc:  424016870 now IPC :1.28762: AVG IPC :1.28121: L2-Pf-HR :0.96403: L2-HR :0.90362: (Sim:0h45m5s) 
CPU  0 inst:  545000001 cyc:  424793279 now IPC :1.28798: AVG IPC :1.28123: L2-Pf-HR :0.96400: L2-HR :0.90354: (Sim:0h45m9s) 
CPU  0 inst:  546000002 cyc:  425589639 now IPC :1.25571: AVG IPC :1.28118: L2-Pf-HR :0.96394: L2-HR :0.90342: (Sim:0h45m14s) 
CPU  0 inst:  547000002 cyc:  426366267 now IPC :1.28762: AVG IPC :1.28119: L2-Pf-HR :0.96392: L2-HR :0.90336: (Sim:0h45m18s) 
CPU  0 inst:  548000000 cyc:  427291928 now IPC :1.08031: AVG IPC :1.28075: L2-Pf-HR :0.96386: L2-HR :0.90322: (Sim:0h45m23s) 
CPU  0 inst:  549000003 cyc:  428045330 now IPC :1.32732: AVG IPC :1.28084: L2-Pf-HR :0.96387: L2-HR :0.90320: (Sim:0h45m28s) 
CPU  0 inst:  550000001 cyc:  428805669 now IPC :1.31520: AVG IPC :1.28090: L2-Pf-HR :0.96385: L2-HR :0.90314: (Sim:0h45m34s) 
CPU  0 inst:  551000003 cyc:  429561327 now IPC :1.32335: AVG IPC :1.28097: L2-Pf-HR :0.96384: L2-HR :0.90310: (Sim:0h45m39s) 
CPU  0 inst:  552000000 cyc:  430310482 now IPC :1.33483: AVG IPC :1.28107: L2-Pf-HR :0.96384: L2-HR :0.90308: (Sim:0h45m45s) 
CPU  0 inst:  553000001 cyc:  431065710 now IPC :1.32410: AVG IPC :1.28114: L2-Pf-HR :0.96382: L2-HR :0.90302: (Sim:0h45m51s) 
CPU  0 inst:  554000003 cyc:  431817024 now IPC :1.33100: AVG IPC :1.28123: L2-Pf-HR :0.96382: L2-HR :0.90299: (Sim:0h45m56s) 
CPU  0 inst:  555000001 cyc:  432641261 now IPC :1.21324: AVG IPC :1.28110: L2-Pf-HR :0.96381: L2-HR :0.90293: (Sim:0h46m2s) 
CPU  0 inst:  556000000 cyc:  433399517 now IPC :1.31881: AVG IPC :1.28117: L2-Pf-HR :0.96381: L2-HR :0.90290: (Sim:0h46m8s) 
CPU  0 inst:  557000003 cyc:  434137789 now IPC :1.35452: AVG IPC :1.28129: L2-Pf-HR :0.96381: L2-HR :0.90288: (Sim:0h46m14s) 
CPU  0 inst:  558000000 cyc:  434877665 now IPC :1.35157: AVG IPC :1.28141: L2-Pf-HR :0.96381: L2-HR :0.90286: (Sim:0h46m20s) 
CPU  0 inst:  559000003 cyc:  435614243 now IPC :1.35763: AVG IPC :1.28154: L2-Pf-HR :0.96381: L2-HR :0.90283: (Sim:0h46m25s) 
CPU  0 inst:  560000000 cyc:  436482674 now IPC :1.15150: AVG IPC :1.28128: L2-Pf-HR :0.96379: L2-HR :0.90275: (Sim:0h46m30s) 
CPU  0 inst:  561000003 cyc:  437288843 now IPC :1.24044: AVG IPC :1.28120: L2-Pf-HR :0.96373: L2-HR :0.90263: (Sim:0h46m34s) 
CPU  0 inst:  562000002 cyc:  438056353 now IPC :1.30291: AVG IPC :1.28124: L2-Pf-HR :0.96371: L2-HR :0.90257: (Sim:0h46m39s) 
CPU  0 inst:  563000001 cyc:  438842972 now IPC :1.27126: AVG IPC :1.28122: L2-Pf-HR :0.96364: L2-HR :0.90244: (Sim:0h46m44s) 
CPU  0 inst:  564000000 cyc:  439617162 now IPC :1.29167: AVG IPC :1.28124: L2-Pf-HR :0.96362: L2-HR :0.90237: (Sim:0h46m50s) 
CPU  0 inst:  565000003 cyc:  440394442 now IPC :1.28654: AVG IPC :1.28125: L2-Pf-HR :0.96359: L2-HR :0.90229: (Sim:0h46m55s) 
CPU  0 inst:  566000000 cyc:  441182428 now IPC :1.26905: AVG IPC :1.28123: L2-Pf-HR :0.96353: L2-HR :0.90218: (Sim:0h47m1s) 
CPU  0 inst:  567000002 cyc:  441965162 now IPC :1.27758: AVG IPC :1.28122: L2-Pf-HR :0.96351: L2-HR :0.90211: (Sim:0h47m7s) 
CPU  0 inst:  568000000 cyc:  442887956 now IPC :1.08366: AVG IPC :1.28081: L2-Pf-HR :0.96344: L2-HR :0.90198: (Sim:0h47m13s) 
CPU  0 inst:  569000001 cyc:  443641323 now IPC :1.32738: AVG IPC :1.28089: L2-Pf-HR :0.96345: L2-HR :0.90196: (Sim:0h47m18s) 
CPU  0 inst:  570000000 cyc:  444402235 now IPC :1.31421: AVG IPC :1.28095: L2-Pf-HR :0.96343: L2-HR :0.90191: (Sim:0h47m24s) 
CPU  0 inst:  571000001 cyc:  445158006 now IPC :1.32315: AVG IPC :1.28102: L2-Pf-HR :0.96342: L2-HR :0.90187: (Sim:0h47m30s) 
CPU  0 inst:  572000000 cyc:  445911065 now IPC :1.32792: AVG IPC :1.28110: L2-Pf-HR :0.96342: L2-HR :0.90185: (Sim:0h47m36s) 
CPU  0 inst:  573000000 cyc:  446669468 now IPC :1.31856: AVG IPC :1.28116: L2-Pf-HR :0.96339: L2-HR :0.90179: (Sim:0h47m41s) 
CPU  0 inst:  574000003 cyc:  447416651 now IPC :1.33836: AVG IPC :1.28126: L2-Pf-HR :0.96339: L2-HR :0.90176: (Sim:0h47m47s) 
CPU  0 inst:  575000002 cyc:  448249218 now IPC :1.20110: AVG IPC :1.28111: L2-Pf-HR :0.96339: L2-HR :0.90171: (Sim:0h47m53s) 
CPU  0 inst:  576000000 cyc:  448997860 now IPC :1.33575: AVG IPC :1.28120: L2-Pf-HR :0.96339: L2-HR :0.90169: (Sim:0h47m58s) 
CPU  0 inst:  577000002 cyc:  449733363 now IPC :1.35962: AVG IPC :1.28133: L2-Pf-HR :0.96339: L2-HR :0.90166: (Sim:0h48m4s) 
CPU  0 inst:  578000000 cyc:  450467786 now IPC :1.36161: AVG IPC :1.28146: L2-Pf-HR :0.96339: L2-HR :0.90164: (Sim:0h48m9s) 
CPU  0 inst:  579000000 cyc:  451202420 now IPC :1.36122: AVG IPC :1.28159: L2-Pf-HR :0.96339: L2-HR :0.90161: (Sim:0h48m15s) 
CPU  0 inst:  580000000 cyc:  452070849 now IPC :1.15150: AVG IPC :1.28134: L2-Pf-HR :0.96337: L2-HR :0.90153: (Sim:0h48m21s) 
CPU  0 inst:  581000001 cyc:  452879238 now IPC :1.23703: AVG IPC :1.28126: L2-Pf-HR :0.96332: L2-HR :0.90143: (Sim:0h48m26s) 
CPU  0 inst:  582000000 cyc:  453656260 now IPC :1.28696: AVG IPC :1.28127: L2-Pf-HR :0.96329: L2-HR :0.90136: (Sim:0h48m32s) 
CPU  0 inst:  583000000 cyc:  454449504 now IPC :1.26065: AVG IPC :1.28123: L2-Pf-HR :0.96322: L2-HR :0.90124: (Sim:0h48m37s) 
CPU  0 inst:  584000000 cyc:  455229153 now IPC :1.28263: AVG IPC :1.28124: L2-Pf-HR :0.96321: L2-HR :0.90118: (Sim:0h48m43s) 
CPU  0 inst:  585000002 cyc:  456005729 now IPC :1.28771: AVG IPC :1.28125: L2-Pf-HR :0.96317: L2-HR :0.90111: (Sim:0h48m49s) 
CPU  0 inst:  586000000 cyc:  456801796 now IPC :1.25617: AVG IPC :1.28120: L2-Pf-HR :0.96312: L2-HR :0.90100: (Sim:0h48m54s) 
CPU  0 inst:  587000003 cyc:  457588084 now IPC :1.27180: AVG IPC :1.28119: L2-Pf-HR :0.96311: L2-HR :0.90094: (Sim:0h49m0s) 
CPU  0 inst:  588000000 cyc:  458517818 now IPC :1.07557: AVG IPC :1.28077: L2-Pf-HR :0.96305: L2-HR :0.90082: (Sim:0h49m6s) 
CPU  0 inst:  589000003 cyc:  459279481 now IPC :1.31292: AVG IPC :1.28082: L2-Pf-HR :0.96305: L2-HR :0.90080: (Sim:0h49m12s) 
CPU  0 inst:  590000002 cyc:  460046906 now IPC :1.30306: AVG IPC :1.28086: L2-Pf-HR :0.96303: L2-HR :0.90075: (Sim:0h49m18s) 
CPU  0 inst:  591000000 cyc:  460810085 now IPC :1.31031: AVG IPC :1.28091: L2-Pf-HR :0.96302: L2-HR :0.90071: (Sim:0h49m21s) 
CPU  0 inst:  592000000 cyc:  461567689 now IPC :1.31995: AVG IPC :1.28097: L2-Pf-HR :0.96303: L2-HR :0.90069: (Sim:0h49m25s) 
CPU  0 inst:  593000002 cyc:  462333032 now IPC :1.30661: AVG IPC :1.28102: L2-Pf-HR :0.96300: L2-HR :0.90064: (Sim:0h49m29s) 
CPU  0 inst:  594000001 cyc:  463085376 now IPC :1.32918: AVG IPC :1.28109: L2-Pf-HR :0.96300: L2-HR :0.90061: (Sim:0h49m33s) 
CPU  0 inst:  595000002 cyc:  463913119 now IPC :1.20811: AVG IPC :1.28096: L2-Pf-HR :0.96300: L2-HR :0.90056: (Sim:0h49m39s) 
CPU  0 inst:  596000000 cyc:  464660244 now IPC :1.33846: AVG IPC :1.28106: L2-Pf-HR :0.96300: L2-HR :0.90054: (Sim:0h49m45s) 
CPU  0 inst:  597000000 cyc:  465395498 now IPC :1.36007: AVG IPC :1.28118: L2-Pf-HR :0.96300: L2-HR :0.90052: (Sim:0h49m50s) 
CPU  0 inst:  598000001 cyc:  466130419 now IPC :1.36069: AVG IPC :1.28131: L2-Pf-HR :0.96300: L2-HR :0.90050: (Sim:0h49m56s) 
CPU  0 inst:  599000000 cyc:  466865438 now IPC :1.36051: AVG IPC :1.28143: L2-Pf-HR :0.96300: L2-HR :0.90048: (Sim:0h50m1s) 
CPU  0 inst:  600000000 cyc:  467737969 now IPC :1.14609: AVG IPC :1.28118: L2-Pf-HR :0.96298: L2-HR :0.90039: (Sim:0h50m8s) 
CPU  0 inst:  601000000 cyc:  468543361 now IPC :1.24163: AVG IPC :1.28111: L2-Pf-HR :0.96292: L2-HR :0.90029: (Sim:0h50m13s) 
CPU  0 inst:  602000003 cyc:  469319863 now IPC :1.28783: AVG IPC :1.28112: L2-Pf-HR :0.96290: L2-HR :0.90023: (Sim:0h50m19s) 
CPU  0 inst:  603000003 cyc:  470107560 now IPC :1.26952: AVG IPC :1.28110: L2-Pf-HR :0.96284: L2-HR :0.90011: (Sim:0h50m24s) 
CPU  0 inst:  604000000 cyc:  470888877 now IPC :1.27989: AVG IPC :1.28110: L2-Pf-HR :0.96282: L2-HR :0.90006: (Sim:0h50m30s) 
CPU  0 inst:  605000002 cyc:  471676383 now IPC :1.26983: AVG IPC :1.28108: L2-Pf-HR :0.96279: L2-HR :0.89998: (Sim:0h50m36s) 
CPU  0 inst:  606000002 cyc:  472469708 now IPC :1.26052: AVG IPC :1.28105: L2-Pf-HR :0.96273: L2-HR :0.89988: (Sim:0h50m42s) 
CPU  0 inst:  607000002 cyc:  473255017 now IPC :1.27338: AVG IPC :1.28103: L2-Pf-HR :0.96272: L2-HR :0.89983: (Sim:0h50m47s) 
CPU  0 inst:  608000000 cyc:  474188165 now IPC :1.07164: AVG IPC :1.28062: L2-Pf-HR :0.96265: L2-HR :0.89969: (Sim:0h50m53s) 
CPU  0 inst:  609000002 cyc:  474953312 now IPC :1.30694: AVG IPC :1.28066: L2-Pf-HR :0.96265: L2-HR :0.89968: (Sim:0h50m59s) 
CPU  0 inst:  610000001 cyc:  475724922 now IPC :1.29599: AVG IPC :1.28069: L2-Pf-HR :0.96263: L2-HR :0.89963: (Sim:0h51m4s) 
CPU  0 inst:  611000003 cyc:  476491632 now IPC :1.30428: AVG IPC :1.28073: L2-Pf-HR :0.96263: L2-HR :0.89960: (Sim:0h51m10s) 
CPU  0 inst:  612000000 cyc:  477253718 now IPC :1.31218: AVG IPC :1.28078: L2-Pf-HR :0.96263: L2-HR :0.89958: (Sim:0h51m15s) 
CPU  0 inst:  613000001 cyc:  478019657 now IPC :1.30559: AVG IPC :1.28082: L2-Pf-HR :0.96260: L2-HR :0.89952: (Sim:0h51m21s) 
CPU  0 inst:  614000000 cyc:  478776301 now IPC :1.32162: AVG IPC :1.28088: L2-Pf-HR :0.96260: L2-HR :0.89950: (Sim:0h51m27s) 
CPU  0 inst:  615000003 cyc:  479614285 now IPC :1.19334: AVG IPC :1.28073: L2-Pf-HR :0.96259: L2-HR :0.89945: (Sim:0h51m34s) 
CPU  0 inst:  616000000 cyc:  480366878 now IPC :1.32874: AVG IPC :1.28080: L2-Pf-HR :0.96260: L2-HR :0.89943: (Sim:0h51m39s) 
CPU  0 inst:  617000000 cyc:  481106597 now IPC :1.35186: AVG IPC :1.28091: L2-Pf-HR :0.96260: L2-HR :0.89941: (Sim:0h51m45s) 
CPU  0 inst:  618000001 cyc:  481844955 now IPC :1.35436: AVG IPC :1.28103: L2-Pf-HR :0.96260: L2-HR :0.89939: (Sim:0h51m50s) 
CPU  0 inst:  619000002 cyc:  482581922 now IPC :1.35691: AVG IPC :1.28114: L2-Pf-HR :0.96260: L2-HR :0.89937: (Sim:0h51m56s) 
CPU  0 inst:  620000000 cyc:  483454357 now IPC :1.14621: AVG IPC :1.28090: L2-Pf-HR :0.96258: L2-HR :0.89929: (Sim:0h52m2s) 
CPU  0 inst:  621000003 cyc:  484251635 now IPC :1.25427: AVG IPC :1.28085: L2-Pf-HR :0.96252: L2-HR :0.89919: (Sim:0h52m8s) 
CPU  0 inst:  622000002 cyc:  485024433 now IPC :1.29400: AVG IPC :1.28088: L2-Pf-HR :0.96250: L2-HR :0.89913: (Sim:0h52m14s) 
CPU  0 inst:  623000001 cyc:  485814302 now IPC :1.26603: AVG IPC :1.28085: L2-Pf-HR :0.96244: L2-HR :0.89902: (Sim:0h52m19s) 
CPU  0 inst:  624000000 cyc:  486593798 now IPC :1.28288: AVG IPC :1.28085: L2-Pf-HR :0.96242: L2-HR :0.89896: (Sim:0h52m25s) 
CPU  0 inst:  625000001 cyc:  487375460 now IPC :1.27933: AVG IPC :1.28085: L2-Pf-HR :0.96239: L2-HR :0.89889: (Sim:0h52m31s) 
CPU  0 inst:  626000000 cyc:  488169927 now IPC :1.25870: AVG IPC :1.28082: L2-Pf-HR :0.96234: L2-HR :0.89879: (Sim:0h52m37s) 
CPU  0 inst:  627000000 cyc:  488956143 now IPC :1.27192: AVG IPC :1.28080: L2-Pf-HR :0.96232: L2-HR :0.89874: (Sim:0h52m42s) 
[...]
CPU  0 inst: 1497000001 cyc: 2342251350 now IPC :1.28261: AVG IPC :0.63854: L2-Pf-HR :0.88951: L2-HR :0.76055: (Sim:2h39m35s) 
CPU  0 inst: 1498000002 cyc: 2343144945 now IPC :1.11908: AVG IPC :0.63873: L2-Pf-HR :0.88942: L2-HR :0.76045: (Sim:2h39m43s) 
CPU  0 inst: 1499000003 cyc: 2343797649 now IPC :1.53209: AVG IPC :0.63897: L2-Pf-HR :0.88932: L2-HR :0.76038: (Sim:2h39m49s) 
CPU  0 inst: 1500000000 cyc: 2344641906 now IPC :1.18447: AVG IPC :0.63917: L2-Pf-HR :0.88924: L2-HR :0.76029: (Sim:2h39m56s) 
CPU  0 inst: 1501000003 cyc: 2345411008 now IPC :1.30022: AVG IPC :0.63939: L2-Pf-HR :0.88915: L2-HR :0.76022: (Sim:2h40m3s) 
CPU  0 inst: 1502000000 cyc: 2346296481 now IPC :1.12934: AVG IPC :0.63957: L2-Pf-HR :0.88906: L2-HR :0.76011: (Sim:2h40m10s) 
CPU  0 inst: 1503000003 cyc: 2346915423 now IPC :1.61567: AVG IPC :0.63983: L2-Pf-HR :0.88897: L2-HR :0.76005: (Sim:2h40m16s) 
CPU  0 inst: 1504000000 cyc: 2347776816 now IPC :1.16091: AVG IPC :0.64002: L2-Pf-HR :0.88887: L2-HR :0.75995: (Sim:2h40m23s) 
CPU  0 inst: 1505000003 cyc: 2348547224 now IPC :1.29802: AVG IPC :0.64024: L2-Pf-HR :0.88879: L2-HR :0.75988: (Sim:2h40m30s) 
CPU  0 inst: 1506000000 cyc: 2349432639 now IPC :1.12941: AVG IPC :0.64042: L2-Pf-HR :0.88870: L2-HR :0.75978: (Sim:2h40m37s) 
CPU  0 inst: 1507000001 cyc: 2350054930 now IPC :1.60697: AVG IPC :0.64068: L2-Pf-HR :0.88861: L2-HR :0.75972: (Sim:2h40m43s) 
CPU  0 inst: 1508000000 cyc: 2350915334 now IPC :1.16224: AVG IPC :0.64087: L2-Pf-HR :0.88852: L2-HR :0.75962: (Sim:2h40m50s) 
CPU  0 inst: 1509000002 cyc: 2351657462 now IPC :1.34748: AVG IPC :0.64109: L2-Pf-HR :0.88843: L2-HR :0.75955: (Sim:2h40m57s) 
CPU  0 inst: 1510000000 cyc: 2352354168 now IPC :1.43532: AVG IPC :0.64133: L2-Pf-HR :0.88835: L2-HR :0.75948: (Sim:2h41m4s) 
CPU  0 inst: 1511000003 cyc: 2353051005 now IPC :1.43506: AVG IPC :0.64156: L2-Pf-HR :0.88831: L2-HR :0.75949: (Sim:2h41m10s) 
CPU  0 inst: 1512000000 cyc: 2354021502 now IPC :1.03040: AVG IPC :0.64172: L2-Pf-HR :0.88826: L2-HR :0.75944: (Sim:2h41m17s) 
CPU  0 inst: 1513000002 cyc: 2354789509 now IPC :1.30207: AVG IPC :0.64194: L2-Pf-HR :0.88818: L2-HR :0.75935: (Sim:2h41m23s) 
CPU  0 inst: 1514000003 cyc: 2355613879 now IPC :1.21305: AVG IPC :0.64214: L2-Pf-HR :0.88811: L2-HR :0.75928: (Sim:2h41m29s) 
CPU  0 inst: 1515000003 cyc: 2356441264 now IPC :1.20863: AVG IPC :0.64234: L2-Pf-HR :0.88804: L2-HR :0.75920: (Sim:2h41m36s) 
CPU  0 inst: 1516000000 cyc: 2357351604 now IPC :1.09849: AVG IPC :0.64251: L2-Pf-HR :0.88796: L2-HR :0.75910: (Sim:2h41m43s) 
CPU  0 inst: 1517000000 cyc: 2358008399 now IPC :1.52255: AVG IPC :0.64276: L2-Pf-HR :0.88786: L2-HR :0.75903: (Sim:2h41m48s) 
CPU  0 inst: 1518000000 cyc: 2358861050 now IPC :1.17281: AVG IPC :0.64295: L2-Pf-HR :0.88777: L2-HR :0.75894: (Sim:2h41m55s) 
CPU  0 inst: 1519000000 cyc: 2359638643 now IPC :1.28602: AVG IPC :0.64316: L2-Pf-HR :0.88769: L2-HR :0.75886: (Sim:2h42m2s) 
CPU  0 inst: 1520000000 cyc: 2360529856 now IPC :1.12207: AVG IPC :0.64334: L2-Pf-HR :0.88760: L2-HR :0.75876: (Sim:2h42m9s) 
CPU  0 inst: 1521000001 cyc: 2361165645 now IPC :1.57285: AVG IPC :0.64359: L2-Pf-HR :0.88751: L2-HR :0.75870: (Sim:2h42m14s) 
CPU  0 inst: 1522000001 cyc: 2362020621 now IPC :1.16962: AVG IPC :0.64378: L2-Pf-HR :0.88741: L2-HR :0.75860: (Sim:2h42m21s) 
CPU  0 inst: 1523000003 cyc: 2362788413 now IPC :1.30244: AVG IPC :0.64400: L2-Pf-HR :0.88733: L2-HR :0.75852: (Sim:2h42m28s) 
CPU  0 inst: 1524000000 cyc: 2363667242 now IPC :1.13787: AVG IPC :0.64418: L2-Pf-HR :0.88725: L2-HR :0.75843: (Sim:2h42m33s) 
CPU  0 inst: 1525000002 cyc: 2364289194 now IPC :1.60784: AVG IPC :0.64444: L2-Pf-HR :0.88715: L2-HR :0.75836: (Sim:2h42m38s) 
CPU  0 inst: 1526000003 cyc: 2365140366 now IPC :1.17485: AVG IPC :0.64463: L2-Pf-HR :0.88706: L2-HR :0.75826: (Sim:2h42m43s) 
CPU  0 inst: 1527000002 cyc: 2365864109 now IPC :1.38170: AVG IPC :0.64485: L2-Pf-HR :0.88697: L2-HR :0.75819: (Sim:2h42m49s) 
CPU  0 inst: 1528000000 cyc: 2366556058 now IPC :1.44519: AVG IPC :0.64509: L2-Pf-HR :0.88689: L2-HR :0.75813: (Sim:2h42m55s) 
CPU  0 inst: 1529000002 cyc: 2367411578 now IPC :1.16888: AVG IPC :0.64528: L2-Pf-HR :0.88680: L2-HR :0.75804: (Sim:2h43m3s) 
CPU  0 inst: 1530000002 cyc: 2368268515 now IPC :1.16695: AVG IPC :0.64546: L2-Pf-HR :0.88670: L2-HR :0.75793: (Sim:2h43m11s) 
CPU  0 inst: 1531000003 cyc: 2368886855 now IPC :1.61723: AVG IPC :0.64572: L2-Pf-HR :0.88662: L2-HR :0.75788: (Sim:2h43m17s) 
CPU  0 inst: 1532000000 cyc: 2369637224 now IPC :1.33267: AVG IPC :0.64594: L2-Pf-HR :0.88654: L2-HR :0.75782: (Sim:2h43m24s) 
CPU  0 inst: 1533000003 cyc: 2370403124 now IPC :1.30566: AVG IPC :0.64615: L2-Pf-HR :0.88649: L2-HR :0.75780: (Sim:2h43m32s) 
CPU  0 inst: 1534000002 cyc: 2371348890 now IPC :1.05734: AVG IPC :0.64631: L2-Pf-HR :0.88646: L2-HR :0.75776: (Sim:2h43m40s) 
CPU  0 inst: 1535000000 cyc: 2372036283 now IPC :1.45477: AVG IPC :0.64655: L2-Pf-HR :0.88638: L2-HR :0.75769: (Sim:2h43m46s) 
CPU  0 inst: 1536000000 cyc: 2372947120 now IPC :1.09789: AVG IPC :0.64672: L2-Pf-HR :0.88630: L2-HR :0.75760: (Sim:2h43m54s) 
CPU  0 inst: 1537000000 cyc: 2373780027 now IPC :1.20061: AVG IPC :0.64692: L2-Pf-HR :0.88623: L2-HR :0.75752: (Sim:2h44m1s) 
CPU  0 inst: 1538000001 cyc: 2374683545 now IPC :1.10679: AVG IPC :0.64709: L2-Pf-HR :0.88616: L2-HR :0.75742: (Sim:2h44m10s) 
CPU  0 inst: 1539000003 cyc: 2375327427 now IPC :1.55308: AVG IPC :0.64734: L2-Pf-HR :0.88607: L2-HR :0.75736: (Sim:2h44m16s) 
CPU  0 inst: 1540000000 cyc: 2376189644 now IPC :1.15980: AVG IPC :0.64752: L2-Pf-HR :0.88597: L2-HR :0.75726: (Sim:2h44m24s) 
CPU  0 inst: 1541000002 cyc: 2376970528 now IPC :1.28060: AVG IPC :0.64773: L2-Pf-HR :0.88589: L2-HR :0.75718: (Sim:2h44m31s) 
CPU  0 inst: 1542000000 cyc: 2377852463 now IPC :1.13387: AVG IPC :0.64791: L2-Pf-HR :0.88581: L2-HR :0.75709: (Sim:2h44m39s) 
CPU  0 inst: 1543000003 cyc: 2378492862 now IPC :1.56153: AVG IPC :0.64816: L2-Pf-HR :0.88572: L2-HR :0.75703: (Sim:2h44m45s) 
CPU  0 inst: 1544000000 cyc: 2379342642 now IPC :1.17677: AVG IPC :0.64835: L2-Pf-HR :0.88563: L2-HR :0.75693: (Sim:2h44m53s) 
CPU  0 inst: 1545000002 cyc: 2380051678 now IPC :1.41037: AVG IPC :0.64857: L2-Pf-HR :0.88554: L2-HR :0.75686: (Sim:2h45m0s) 
CPU  0 inst: 1546000001 cyc: 2380741201 now IPC :1.45028: AVG IPC :0.64880: L2-Pf-HR :0.88547: L2-HR :0.75680: (Sim:2h45m6s) 
CPU  0 inst: 1547000001 cyc: 2381611551 now IPC :1.14896: AVG IPC :0.64899: L2-Pf-HR :0.88537: L2-HR :0.75670: (Sim:2h45m14s) 
CPU  0 inst: 1548000000 cyc: 2382466544 now IPC :1.16960: AVG IPC :0.64917: L2-Pf-HR :0.88527: L2-HR :0.75659: (Sim:2h45m22s) 
CPU  0 inst: 1549000003 cyc: 2383084982 now IPC :1.61698: AVG IPC :0.64943: L2-Pf-HR :0.88519: L2-HR :0.75655: (Sim:2h45m28s) 
CPU  0 inst: 1550000001 cyc: 2383837293 now IPC :1.32923: AVG IPC :0.64964: L2-Pf-HR :0.88511: L2-HR :0.75648: (Sim:2h45m35s) 
CPU  0 inst: 1551000002 cyc: 2384728656 now IPC :1.12188: AVG IPC :0.64982: L2-Pf-HR :0.88502: L2-HR :0.75637: (Sim:2h45m43s) 
CPU  0 inst: 1552000000 cyc: 2385587545 now IPC :1.16429: AVG IPC :0.65000: L2-Pf-HR :0.88493: L2-HR :0.75626: (Sim:2h45m51s) 
CPU  0 inst: 1553000003 cyc: 2386192654 now IPC :1.65260: AVG IPC :0.65026: L2-Pf-HR :0.88485: L2-HR :0.75622: (Sim:2h45m57s) 
CPU  0 inst: 1554000000 cyc: 2386960032 now IPC :1.30313: AVG IPC :0.65047: L2-Pf-HR :0.88477: L2-HR :0.75615: (Sim:2h46m4s) 
CPU  0 inst: 1555000000 cyc: 2387727090 now IPC :1.30368: AVG IPC :0.65068: L2-Pf-HR :0.88472: L2-HR :0.75612: (Sim:2h46m12s) 
CPU  0 inst: 1556000000 cyc: 2388665778 now IPC :1.06532: AVG IPC :0.65084: L2-Pf-HR :0.88468: L2-HR :0.75610: (Sim:2h46m20s) 
CPU  0 inst: 1557000001 cyc: 2389349465 now IPC :1.46266: AVG IPC :0.65107: L2-Pf-HR :0.88461: L2-HR :0.75603: (Sim:2h46m26s) 
CPU  0 inst: 1558000002 cyc: 2390280678 now IPC :1.07387: AVG IPC :0.65124: L2-Pf-HR :0.88453: L2-HR :0.75593: (Sim:2h46m34s) 
CPU  0 inst: 1559000001 cyc: 2391110996 now IPC :1.20436: AVG IPC :0.65143: L2-Pf-HR :0.88446: L2-HR :0.75585: (Sim:2h46m42s) 
CPU  0 inst: 1560000000 cyc: 2392018269 now IPC :1.10220: AVG IPC :0.65160: L2-Pf-HR :0.88439: L2-HR :0.75576: (Sim:2h46m50s) 
CPU  0 inst: 1561000001 cyc: 2392668042 now IPC :1.53900: AVG IPC :0.65184: L2-Pf-HR :0.88430: L2-HR :0.75570: (Sim:2h46m56s) 
CPU  0 inst: 1562000002 cyc: 2393541452 now IPC :1.14494: AVG IPC :0.65202: L2-Pf-HR :0.88421: L2-HR :0.75560: (Sim:2h47m4s) 
CPU  0 inst: 1563000002 cyc: 2394241967 now IPC :1.42752: AVG IPC :0.65225: L2-Pf-HR :0.88413: L2-HR :0.75554: (Sim:2h47m9s) 
CPU  0 inst: 1564000000 cyc: 2394951043 now IPC :1.41028: AVG IPC :0.65247: L2-Pf-HR :0.88405: L2-HR :0.75548: (Sim:2h47m14s) 
CPU  0 inst: 1565000002 cyc: 2395849526 now IPC :1.11299: AVG IPC :0.65265: L2-Pf-HR :0.88395: L2-HR :0.75537: (Sim:2h47m19s) 
CPU  0 inst: 1566000002 cyc: 2396716743 now IPC :1.15311: AVG IPC :0.65283: L2-Pf-HR :0.88386: L2-HR :0.75526: (Sim:2h47m24s) 
CPU  0 inst: 1567000001 cyc: 2397332030 now IPC :1.62526: AVG IPC :0.65308: L2-Pf-HR :0.88378: L2-HR :0.75522: (Sim:2h47m28s) 
CPU  0 inst: 1568000000 cyc: 2398086805 now IPC :1.32490: AVG IPC :0.65329: L2-Pf-HR :0.88370: L2-HR :0.75515: (Sim:2h47m32s) 
CPU  0 inst: 1569000003 cyc: 2398978996 now IPC :1.12084: AVG IPC :0.65346: L2-Pf-HR :0.88361: L2-HR :0.75504: (Sim:2h47m37s) 
CPU  0 inst: 1570000002 cyc: 2399848243 now IPC :1.15042: AVG IPC :0.65364: L2-Pf-HR :0.88351: L2-HR :0.75493: (Sim:2h47m43s) 
CPU  0 inst: 1571000002 cyc: 2400451256 now IPC :1.65834: AVG IPC :0.65389: L2-Pf-HR :0.88343: L2-HR :0.75489: (Sim:2h47m48s) 
CPU  0 inst: 1572000000 cyc: 2401218413 now IPC :1.30351: AVG IPC :0.65410: L2-Pf-HR :0.88335: L2-HR :0.75482: (Sim:2h47m55s) 
CPU  0 inst: 1573000000 cyc: 2402110884 now IPC :1.12048: AVG IPC :0.65428: L2-Pf-HR :0.88326: L2-HR :0.75472: (Sim:2h48m3s) 
CPU  0 inst: 1574000000 cyc: 2402980470 now IPC :1.14997: AVG IPC :0.65445: L2-Pf-HR :0.88317: L2-HR :0.75461: (Sim:2h48m11s) 
CPU  0 inst: 1575000000 cyc: 2403586611 now IPC :1.64978: AVG IPC :0.65471: L2-Pf-HR :0.88308: L2-HR :0.75456: (Sim:2h48m17s) 
CPU  0 inst: 1576000000 cyc: 2404354509 now IPC :1.30226: AVG IPC :0.65491: L2-Pf-HR :0.88300: L2-HR :0.75449: (Sim:2h48m24s) 
CPU  0 inst: 1577000001 cyc: 2405075218 now IPC :1.38752: AVG IPC :0.65513: L2-Pf-HR :0.88295: L2-HR :0.75446: (Sim:2h48m31s) 
CPU  0 inst: 1578000003 cyc: 2406006991 now IPC :1.07322: AVG IPC :0.65529: L2-Pf-HR :0.88292: L2-HR :0.75446: (Sim:2h48m40s) 
CPU  0 inst: 1579000001 cyc: 2406740327 now IPC :1.36363: AVG IPC :0.65551: L2-Pf-HR :0.88285: L2-HR :0.75439: (Sim:2h48m46s) 
CPU  0 inst: 1580000000 cyc: 2407677659 now IPC :1.06686: AVG IPC :0.65567: L2-Pf-HR :0.88277: L2-HR :0.75428: (Sim:2h48m54s) 
CPU  0 inst: 1581000001 cyc: 2408377531 now IPC :1.42883: AVG IPC :0.65590: L2-Pf-HR :0.88270: L2-HR :0.75423: (Sim:2h49m0s) 
CPU  0 inst: 1582000001 cyc: 2409160514 now IPC :1.27717: AVG IPC :0.65610: L2-Pf-HR :0.88264: L2-HR :0.75416: (Sim:2h49m7s) 
CPU  0 inst: 1583000000 cyc: 2410070827 now IPC :1.09852: AVG IPC :0.65626: L2-Pf-HR :0.88255: L2-HR :0.75405: (Sim:2h49m15s) 
CPU  0 inst: 1584000000 cyc: 2410950076 now IPC :1.13733: AVG IPC :0.65644: L2-Pf-HR :0.88246: L2-HR :0.75394: (Sim:2h49m23s) 
CPU  0 inst: 1585000003 cyc: 2411582453 now IPC :1.58134: AVG IPC :0.65668: L2-Pf-HR :0.88238: L2-HR :0.75390: (Sim:2h49m27s) 
CPU  0 inst: 1586000000 cyc: 2412345046 now IPC :1.31131: AVG IPC :0.65689: L2-Pf-HR :0.88230: L2-HR :0.75383: (Sim:2h49m32s) 
CPU  0 inst: 1587000001 cyc: 2413254557 now IPC :1.09949: AVG IPC :0.65706: L2-Pf-HR :0.88221: L2-HR :0.75373: (Sim:2h49m37s) 
CPU  0 inst: 1588000000 cyc: 2414130720 now IPC :1.14134: AVG IPC :0.65723: L2-Pf-HR :0.88212: L2-HR :0.75362: (Sim:2h49m42s) 
CPU  0 inst: 1589000003 cyc: 2414740645 now IPC :1.63955: AVG IPC :0.65748: L2-Pf-HR :0.88204: L2-HR :0.75358: (Sim:2h49m45s) 
CPU  0 inst: 1590000001 cyc: 2415506610 now IPC :1.30554: AVG IPC :0.65769: L2-Pf-HR :0.88197: L2-HR :0.75351: (Sim:2h49m50s) 
CPU  0 inst: 1591000002 cyc: 2416399893 now IPC :1.11947: AVG IPC :0.65786: L2-Pf-HR :0.88188: L2-HR :0.75341: (Sim:2h49m55s) 
CPU  0 inst: 1592000000 cyc: 2417269861 now IPC :1.14947: AVG IPC :0.65803: L2-Pf-HR :0.88179: L2-HR :0.75330: (Sim:2h50m0s) 
CPU  0 inst: 1593000000 cyc: 2417880449 now IPC :1.63777: AVG IPC :0.65828: L2-Pf-HR :0.88170: L2-HR :0.75325: (Sim:2h50m6s) 
CPU  0 inst: 1594000003 cyc: 2418643706 now IPC :1.31018: AVG IPC :0.65849: L2-Pf-HR :0.88163: L2-HR :0.75318: (Sim:2h50m12s) 
CPU  0 inst: 1595000003 cyc: 2419539828 now IPC :1.11592: AVG IPC :0.65866: L2-Pf-HR :0.88154: L2-HR :0.75309: (Sim:2h50m19s) 
CPU  0 inst: 1596000000 cyc: 2420187339 now IPC :1.54437: AVG IPC :0.65889: L2-Pf-HR :0.88145: L2-HR :0.75301: (Sim:2h50m25s) 
CPU  0 inst: 1597000002 cyc: 2421025171 now IPC :1.19356: AVG IPC :0.65908: L2-Pf-HR :0.88136: L2-HR :0.75293: (Sim:2h50m32s) 
CPU  0 inst: 1598000002 cyc: 2421791962 now IPC :1.30414: AVG IPC :0.65928: L2-Pf-HR :0.88129: L2-HR :0.75286: (Sim:2h50m38s) 
CPU  0 inst: 1599000000 cyc: 2422486749 now IPC :1.43929: AVG IPC :0.65951: L2-Pf-HR :0.88122: L2-HR :0.75282: (Sim:2h50m44s) 
CPU  0 inst: 1600000000 cyc: 2423190706 now IPC :1.42054: AVG IPC :0.65973: L2-Pf-HR :0.88120: L2-HR :0.75286: (Sim:2h50m51s) 
CPU  0 inst: 1601000002 cyc: 2424158668 now IPC :1.03310: AVG IPC :0.65988: L2-Pf-HR :0.88114: L2-HR :0.75276: (Sim:2h50m58s) 
CPU  0 inst: 1602000000 cyc: 2425102313 now IPC :1.05972: AVG IPC :0.66003: L2-Pf-HR :0.88105: L2-HR :0.75264: (Sim:2h51m5s) 
CPU  0 inst: 1603000000 cyc: 2425762338 now IPC :1.51509: AVG IPC :0.66027: L2-Pf-HR :0.88099: L2-HR :0.75260: (Sim:2h51m11s) 
CPU  0 inst: 1604000000 cyc: 2426579063 now IPC :1.22440: AVG IPC :0.66046: L2-Pf-HR :0.88093: L2-HR :0.75253: (Sim:2h51m17s) 
CPU  0 inst: 1605000002 cyc: 2427489579 now IPC :1.09828: AVG IPC :0.66062: L2-Pf-HR :0.88084: L2-HR :0.75242: (Sim:2h51m24s) 
CPU  0 inst: 1606000002 cyc: 2428373704 now IPC :1.13106: AVG IPC :0.66079: L2-Pf-HR :0.88075: L2-HR :0.75231: (Sim:2h51m31s) 
CPU  0 inst: 1607000001 cyc: 2428996939 now IPC :1.60453: AVG IPC :0.66103: L2-Pf-HR :0.88067: L2-HR :0.75227: (Sim:2h51m37s) 
CPU  0 inst: 1608000000 cyc: 2429772719 now IPC :1.28902: AVG IPC :0.66123: L2-Pf-HR :0.88059: L2-HR :0.75220: (Sim:2h51m41s) 
CPU  0 inst: 1609000003 cyc: 2430675104 now IPC :1.10818: AVG IPC :0.66140: L2-Pf-HR :0.88051: L2-HR :0.75210: (Sim:2h51m49s) 
CPU  0 inst: 1610000002 cyc: 2431542085 now IPC :1.15343: AVG IPC :0.66158: L2-Pf-HR :0.88042: L2-HR :0.75199: (Sim:2h51m55s) 
CPU  0 inst: 1611000003 cyc: 2432162559 now IPC :1.61167: AVG IPC :0.66182: L2-Pf-HR :0.88033: L2-HR :0.75194: (Sim:2h51m59s) 
CPU  0 inst: 1612000000 cyc: 2432934497 now IPC :1.29544: AVG IPC :0.66202: L2-Pf-HR :0.88026: L2-HR :0.75187: (Sim:2h52m3s) 
CPU  0 inst: 1613000000 cyc: 2433817126 now IPC :1.13298: AVG IPC :0.66219: L2-Pf-HR :0.88018: L2-HR :0.75178: (Sim:2h52m8s) 
CPU  0 inst: 1614000001 cyc: 2434469350 now IPC :1.53322: AVG IPC :0.66242: L2-Pf-HR :0.88008: L2-HR :0.75170: (Sim:2h52m11s) 
CPU  0 inst: 1615000003 cyc: 2435299497 now IPC :1.20461: AVG IPC :0.66261: L2-Pf-HR :0.88000: L2-HR :0.75162: (Sim:2h52m16s) 
CPU  0 inst: 1616000000 cyc: 2436067705 now IPC :1.30173: AVG IPC :0.66281: L2-Pf-HR :0.87992: L2-HR :0.75154: (Sim:2h52m20s) 
CPU  0 inst: 1617000001 cyc: 2436955470 now IPC :1.12643: AVG IPC :0.66298: L2-Pf-HR :0.87984: L2-HR :0.75145: (Sim:2h52m25s) 
CPU  0 inst: 1618000003 cyc: 2437586472 now IPC :1.58478: AVG IPC :0.66322: L2-Pf-HR :0.87975: L2-HR :0.75138: (Sim:2h52m29s) 
CPU  0 inst: 1619000001 cyc: 2438442648 now IPC :1.16798: AVG IPC :0.66339: L2-Pf-HR :0.87966: L2-HR :0.75128: (Sim:2h52m33s) 
Finished CPU 0 instr: 1617000002 cyc: 2437462026 AVG IPC: 0.66339 (Sim time: 2h52m33s)

ChampSim completed all CPUs

[ROI Statistics]
Core_0_instructions 1617000002
Core_0_cycles 2437462026
Core_0_IPC 0.66339

Core_0_branch_prediction_accuracy 99.26547
Core_0_branch_MPKI 0.21633
Core_0_average_ROB_occupancy_at_mispredict 250.44969

Core_0_L1D_total_access 421143665
Core_0_L1D_total_hit 386095913 L1D_total_Hit Ratio: 0.91678
Core_0_L1D_total_miss 35047752
Core_0_L1D_loads 375038876
Core_0_L1D_load_hit 342335064 L1D_load_Hit Ratio: 0.91280
Core_0_L1D_load_miss 32703812
Core_0_L1D_RFOs 43823613
Core_0_L1D_RFO_hit 41479673 L1D_RFO_Hit Ratio: 0.94651
Core_0_L1D_RFO_miss 2343940
Core_0_L1D_prefetches 2281176
Core_0_L1D_prefetch_hit 2281176 L1D_prefetch_Hit Ratio: 1.00000
Core_0_L1D_prefetch_miss 0
Core_0_L1D_writebacks 0
Core_0_L1D_writeback_hit 0 L1D_writeback_Hit Ratio: -nan
Core_0_L1D_writeback_miss 0
Core_0_L1D_prefetch_requested 125333973
Core_0_L1D_prefetch_issued 57565367
Core_0_L1D_prefetch_useful 0 L1D_Useful Ratio: 0.00000
Core_0_L1D_prefetch_useless 0
Core_0_L1D_prefetch_late 0
Core_0_L1D_average_miss_latency 117.82438

Core_0_L1I_total_access 398204814
Core_0_L1I_total_hit 398199908 L1I_total_Hit Ratio: 0.99999
Core_0_L1I_total_miss 4906
Core_0_L1I_loads 398204814
Core_0_L1I_load_hit 398199908 L1I_load_Hit Ratio: 0.99999
Core_0_L1I_load_miss 4906
Core_0_L1I_RFOs 0
Core_0_L1I_RFO_hit 0 L1I_RFO_Hit Ratio: -nan
Core_0_L1I_RFO_miss 0
Core_0_L1I_prefetches 0
Core_0_L1I_prefetch_hit 0 L1I_prefetch_Hit Ratio: -nan
Core_0_L1I_prefetch_miss 0
Core_0_L1I_writebacks 0
Core_0_L1I_writeback_hit 0 L1I_writeback_Hit Ratio: -nan
Core_0_L1I_writeback_miss 0
Core_0_L1I_prefetch_requested 0
Core_0_L1I_prefetch_issued 0
Core_0_L1I_prefetch_useful 0 L1I_Useful Ratio: -nan
Core_0_L1I_prefetch_useless 0
Core_0_L1I_prefetch_late 0
Core_0_L1I_average_miss_latency 276.30147

Core_0_L2C_total_access 95417362
Core_0_L2C_total_hit 71685566 L2C_total_Hit Ratio: 0.75128
Core_0_L2C_total_miss 23731796
Core_0_L2C_loads 32708561
Core_0_L2C_load_hit 17256632 L2C_load_Hit Ratio: 0.52759
Core_0_L2C_load_miss 15451929
Core_0_L2C_RFOs 2343940
Core_0_L2C_RFO_hit 153940 L2C_RFO_Hit Ratio: 0.06568
Core_0_L2C_RFO_miss 2190000
Core_0_L2C_prefetches 49415385
Core_0_L2C_prefetch_hit 43468658 L2C_prefetch_Hit Ratio: 0.87966
Core_0_L2C_prefetch_miss 5946727
Core_0_L2C_writebacks 10949476
Core_0_L2C_writeback_hit 10806336 L2C_writeback_Hit Ratio: 0.98693
Core_0_L2C_writeback_miss 143140
Core_0_L2C_prefetch_requested 51124556
Core_0_L2C_prefetch_issued 7705144
Core_0_L2C_prefetch_useful 5945514 L2C_Useful Ratio: 0.77163
Core_0_L2C_prefetch_useless 5627
Core_0_L2C_prefetch_late 1313584
Core_0_L2C_average_miss_latency 162.90795

Core_0_LLC_total_access 38159761
Core_0_LLC_total_hit 26294096 LLC_total_Hit Ratio: 0.68905
Core_0_LLC_total_miss 11865665
Core_0_LLC_loads 14138314
Core_0_LLC_load_hit 4770963 LLC_load_Hit Ratio: 0.33745
Core_0_LLC_load_miss 9367351
Core_0_LLC_RFOs 2190000
Core_0_LLC_RFO_hit 83780 LLC_RFO_Hit Ratio: 0.03826
Core_0_LLC_RFO_miss 2106220
Core_0_LLC_prefetches 11241369
Core_0_LLC_prefetch_hit 10849452 LLC_prefetch_Hit Ratio: 0.96514
Core_0_LLC_prefetch_miss 391917
Core_0_LLC_writebacks 10590078
Core_0_LLC_writeback_hit 10589901 LLC_writeback_Hit Ratio: 0.99998
Core_0_LLC_writeback_miss 177
Core_0_LLC_prefetch_requested 0
Core_0_LLC_prefetch_issued 0
Core_0_LLC_prefetch_useful 138316 LLC_Useful Ratio: inf
Core_0_LLC_prefetch_useless 250802
Core_0_LLC_prefetch_late 1390
Core_0_LLC_average_miss_latency 267.89346

Core_0_major_page_fault 0
Core_0_minor_page_fault 76848

CPU 0 L1D next line prefetcher final stats
Prefetcher final stats
Training Unit Size: 4781
Addr table size: 4843872 4843875


Triggers: 15469723
No Prediction: 5210080 33.67921
Stream end: 4916545
No translation: 635155216 4105.79566
Predictions: 7705144 49.80790


Stream divergence: 1008784 6.52102
Stream divergence -- new stream: 0
Channel_0_RQ_row_buffer_hit 6263807
Channel_0_RQ_row_buffer_miss 5599644
Channel_0_WQ_row_buffer_hit 2463114
Channel_0_WQ_row_buffer_miss 4410836
Channel_0_WQ_full 0
Channel_0_dbus_congested 6279110

avg_congested_cycle 11

EzSearch AVG IPC :0.66339: L2-Pf-HR :0.87966 : L2-HR :0.75128 Uful:0.77163
     > Finished combination: TraceType=770-tot Sim:1617000000 Prefetcher=L2isb_ideal L1=isb_ideal
