TRACE: [409000000][GPT-Neo_2_7B]_[h32][s512][d80] Warmup: 2000000 NumTraces: 409000000
L1:no:L2:spp_berti_src
Initialize SIGNATURE TABLE
ST_SET: 1
ST_WAY: 256
ST_TAG_BIT: 16
ST_TAG_MASK: ffff

Initialize PATTERN TABLE
PT_SET: 512
PT_WAY: 4
SIG_DELTA_BIT: 7
C_SIG_BIT: 4
C_DELTA_BIT: 4

Initialize PREFETCH FILTER
FILTER_SET: 1024
*************************************************
   ChampSim Multicore Out-of-Order Simulator
   Last compiled: Oct 20 2024 04:17:22
*************************************************

trace_0 770-tot_memTraces_v3/memTraces[409000000][GPT-Neo_2_7B]_[h32][s512][d80].champsim.xz
ST_WAYS: 256
PT_SETS: 512
MAIN.cc ln 751 stats print skipped
CPU  0 inst:    1000003 cyc:     502355 now IPC :1.99063: AVG IPC :1.99063: L2-Pf-HR :0.96668: L2-HR :0.84686: (Sim:0h0m4s) 
CPU  0 inst:    2000001 cyc:     978377 now IPC :2.10074: AVG IPC :2.04420: L2-Pf-HR :0.96876: L2-HR :0.87409: (Sim:0h0m9s) 

Warmup complete CPU  0 instructions:    2000001 cycles:     978377 (Simulation time: 0 hr 0 min 9 sec) 

CPU  0 inst:    3000000 cyc:    1582512 now IPC :1.65526: AVG IPC :1.65526: L2-Pf-HR :0.98044: L2-HR :0.90655: (Sim:0h0m13s) 
CPU  0 inst:    4000000 cyc:    2220924 now IPC :1.56639: AVG IPC :1.60960: L2-Pf-HR :0.98342: L2-HR :0.91227: (Sim:0h0m17s) 
CPU  0 inst:    5000002 cyc:    2788409 now IPC :1.76216: AVG IPC :1.65743: L2-Pf-HR :0.98433: L2-HR :0.91587: (Sim:0h0m21s) 
CPU  0 inst:    6000002 cyc:    3493535 now IPC :1.41819: AVG IPC :1.59036: L2-Pf-HR :0.98449: L2-HR :0.90906: (Sim:0h0m25s) 
CPU  0 inst:    7000002 cyc:    4111046 now IPC :1.61940: AVG IPC :1.59608: L2-Pf-HR :0.98371: L2-HR :0.90843: (Sim:0h0m29s) 
CPU  0 inst:    8000000 cyc:    4722976 now IPC :1.63417: AVG IPC :1.60231: L2-Pf-HR :0.98326: L2-HR :0.90849: (Sim:0h0m34s) 
CPU  0 inst:    9000003 cyc:    5359528 now IPC :1.57097: AVG IPC :1.59775: L2-Pf-HR :0.98363: L2-HR :0.91039: (Sim:0h0m38s) 
CPU  0 inst:   10000001 cyc:    6005646 now IPC :1.54770: AVG IPC :1.59132: L2-Pf-HR :0.98397: L2-HR :0.91134: (Sim:0h0m42s) 
CPU  0 inst:   11000002 cyc:    6752676 now IPC :1.33864: AVG IPC :1.55863: L2-Pf-HR :0.98412: L2-HR :0.90914: (Sim:0h0m46s) 
CPU  0 inst:   12000000 cyc:    7376622 now IPC :1.60270: AVG IPC :1.56293: L2-Pf-HR :0.98407: L2-HR :0.90924: (Sim:0h0m51s) 
CPU  0 inst:   13000002 cyc:    8004258 now IPC :1.59328: AVG IPC :1.56564: L2-Pf-HR :0.98381: L2-HR :0.90905: (Sim:0h0m55s) 
CPU  0 inst:   14000001 cyc:    8624589 now IPC :1.61204: AVG IPC :1.56940: L2-Pf-HR :0.98392: L2-HR :0.90969: (Sim:0h0m59s) 
CPU  0 inst:   15000001 cyc:    9273699 now IPC :1.54057: AVG IPC :1.56715: L2-Pf-HR :0.98416: L2-HR :0.91074: (Sim:0h1m3s) 
CPU  0 inst:   16000000 cyc:   10025908 now IPC :1.32942: AVG IPC :1.54738: L2-Pf-HR :0.98434: L2-HR :0.90933: (Sim:0h1m7s) 
CPU  0 inst:   17000002 cyc:   10640075 now IPC :1.62822: AVG IPC :1.55252: L2-Pf-HR :0.98442: L2-HR :0.90962: (Sim:0h1m12s) 
CPU  0 inst:   18000002 cyc:   11257017 now IPC :1.62090: AVG IPC :1.55663: L2-Pf-HR :0.98466: L2-HR :0.91019: (Sim:0h1m16s) 
CPU  0 inst:   19000003 cyc:   11887934 now IPC :1.58500: AVG IPC :1.55827: L2-Pf-HR :0.98442: L2-HR :0.91002: (Sim:0h1m20s) 
CPU  0 inst:   20000000 cyc:   12545550 now IPC :1.52064: AVG IPC :1.55613: L2-Pf-HR :0.98449: L2-HR :0.91072: (Sim:0h1m24s) 
CPU  0 inst:   21000000 cyc:   13287707 now IPC :1.34742: AVG IPC :1.54354: L2-Pf-HR :0.98444: L2-HR :0.90980: (Sim:0h1m29s) 
CPU  0 inst:   22000001 cyc:   13910793 now IPC :1.60492: AVG IPC :1.54650: L2-Pf-HR :0.98475: L2-HR :0.91039: (Sim:0h1m33s) 
CPU  0 inst:   23000001 cyc:   14526611 now IPC :1.62386: AVG IPC :1.55002: L2-Pf-HR :0.98474: L2-HR :0.91050: (Sim:0h1m37s) 
CPU  0 inst:   24000000 cyc:   15144439 now IPC :1.61857: AVG IPC :1.55301: L2-Pf-HR :0.98484: L2-HR :0.91079: (Sim:0h1m41s) 
CPU  0 inst:   25000003 cyc:   15809695 now IPC :1.50319: AVG IPC :1.55077: L2-Pf-HR :0.98507: L2-HR :0.91157: (Sim:0h1m45s) 
CPU  0 inst:   26000000 cyc:   16540514 now IPC :1.36832: AVG IPC :1.54220: L2-Pf-HR :0.98502: L2-HR :0.91079: (Sim:0h1m50s) 
CPU  0 inst:   27000001 cyc:   17174474 now IPC :1.57739: AVG IPC :1.54358: L2-Pf-HR :0.98503: L2-HR :0.91092: (Sim:0h1m54s) 
CPU  0 inst:   28000000 cyc:   17804362 now IPC :1.58758: AVG IPC :1.54523: L2-Pf-HR :0.98493: L2-HR :0.91087: (Sim:0h1m58s) 
CPU  0 inst:   29000001 cyc:   18427292 now IPC :1.60532: AVG IPC :1.54737: L2-Pf-HR :0.98482: L2-HR :0.91073: (Sim:0h2m2s) 
CPU  0 inst:   30000002 cyc:   19094720 now IPC :1.49829: AVG IPC :1.54557: L2-Pf-HR :0.98498: L2-HR :0.91136: (Sim:0h2m6s) 
CPU  0 inst:   31000000 cyc:   19822508 now IPC :1.37402: AVG IPC :1.53894: L2-Pf-HR :0.98489: L2-HR :0.91064: (Sim:0h2m11s) 
CPU  0 inst:   32000000 cyc:   20451430 now IPC :1.59002: AVG IPC :1.54059: L2-Pf-HR :0.98501: L2-HR :0.91089: (Sim:0h2m15s) 
CPU  0 inst:   33000000 cyc:   21077628 now IPC :1.59694: AVG IPC :1.54235: L2-Pf-HR :0.98489: L2-HR :0.91078: (Sim:0h2m19s) 
CPU  0 inst:   34000002 cyc:   21695577 now IPC :1.61826: AVG IPC :1.54461: L2-Pf-HR :0.98477: L2-HR :0.91069: (Sim:0h2m23s) 
CPU  0 inst:   35000000 cyc:   22367403 now IPC :1.48848: AVG IPC :1.54285: L2-Pf-HR :0.98478: L2-HR :0.91096: (Sim:0h2m27s) 
CPU  0 inst:   36000000 cyc:   23094984 now IPC :1.37442: AVG IPC :1.53731: L2-Pf-HR :0.98474: L2-HR :0.91040: (Sim:0h2m32s) 
CPU  0 inst:   37000003 cyc:   23726491 now IPC :1.58352: AVG IPC :1.53859: L2-Pf-HR :0.98487: L2-HR :0.91070: (Sim:0h2m36s) 
CPU  0 inst:   38000000 cyc:   24345119 now IPC :1.61648: AVG IPC :1.54065: L2-Pf-HR :0.98485: L2-HR :0.91073: (Sim:0h2m40s) 
CPU  0 inst:   39000001 cyc:   24971915 now IPC :1.59542: AVG IPC :1.54208: L2-Pf-HR :0.98484: L2-HR :0.91075: (Sim:0h2m44s) 
CPU  0 inst:   40000000 cyc:   25646935 now IPC :1.48144: AVG IPC :1.54042: L2-Pf-HR :0.98501: L2-HR :0.91124: (Sim:0h2m49s) 
CPU  0 inst:   41000001 cyc:   26358494 now IPC :1.40537: AVG IPC :1.53664: L2-Pf-HR :0.98494: L2-HR :0.91070: (Sim:0h2m53s) 
CPU  0 inst:   42000002 cyc:   26997950 now IPC :1.56383: AVG IPC :1.53730: L2-Pf-HR :0.98510: L2-HR :0.91103: (Sim:0h2m58s) 
CPU  0 inst:   43000003 cyc:   27610864 now IPC :1.63155: AVG IPC :1.53947: L2-Pf-HR :0.98516: L2-HR :0.91116: (Sim:0h3m2s) 
CPU  0 inst:   44000000 cyc:   28221745 now IPC :1.63698: AVG IPC :1.54166: L2-Pf-HR :0.98526: L2-HR :0.91139: (Sim:0h3m5s) 
CPU  0 inst:   45000002 cyc:   28898333 now IPC :1.47801: AVG IPC :1.54012: L2-Pf-HR :0.98522: L2-HR :0.91147: (Sim:0h3m8s) 
CPU  0 inst:   46000000 cyc:   29582832 now IPC :1.46092: AVG IPC :1.53822: L2-Pf-HR :0.98514: L2-HR :0.91101: (Sim:0h3m11s) 
CPU  0 inst:   47000002 cyc:   30246658 now IPC :1.50642: AVG IPC :1.53750: L2-Pf-HR :0.98526: L2-HR :0.91123: (Sim:0h3m13s) 
CPU  0 inst:   48000000 cyc:   30871097 now IPC :1.60143: AVG IPC :1.53884: L2-Pf-HR :0.98520: L2-HR :0.91119: (Sim:0h3m16s) 
CPU  0 inst:   49000003 cyc:   31493814 now IPC :1.60587: AVG IPC :1.54020: L2-Pf-HR :0.98521: L2-HR :0.91124: (Sim:0h3m19s) 
CPU  0 inst:   50000002 cyc:   32169228 now IPC :1.48057: AVG IPC :1.53891: L2-Pf-HR :0.98523: L2-HR :0.91144: (Sim:0h3m22s) 
CPU  0 inst:   51000003 cyc:   32761826 now IPC :1.68749: AVG IPC :1.54168: L2-Pf-HR :0.98519: L2-HR :0.91170: (Sim:0h3m24s) 
CPU  0 inst:   52000000 cyc:   33520664 now IPC :1.31780: AVG IPC :1.53646: L2-Pf-HR :0.98518: L2-HR :0.91116: (Sim:0h3m27s) 
CPU  0 inst:   53000001 cyc:   34142624 now IPC :1.60782: AVG IPC :1.53780: L2-Pf-HR :0.98520: L2-HR :0.91124: (Sim:0h3m30s) 
CPU  0 inst:   54000003 cyc:   34765541 now IPC :1.60535: AVG IPC :1.53905: L2-Pf-HR :0.98511: L2-HR :0.91116: (Sim:0h3m32s) 
CPU  0 inst:   55000002 cyc:   35441628 now IPC :1.47910: AVG IPC :1.53787: L2-Pf-HR :0.98508: L2-HR :0.91122: (Sim:0h3m35s) 
CPU  0 inst:   56000000 cyc:   36029705 now IPC :1.70045: AVG IPC :1.54060: L2-Pf-HR :0.98508: L2-HR :0.91144: (Sim:0h3m38s) 
CPU  0 inst:   57000001 cyc:   36782209 now IPC :1.32890: AVG IPC :1.53615: L2-Pf-HR :0.98508: L2-HR :0.91104: (Sim:0h3m41s) 
CPU  0 inst:   58000001 cyc:   37403691 now IPC :1.60906: AVG IPC :1.53739: L2-Pf-HR :0.98508: L2-HR :0.91107: (Sim:0h3m44s) 
CPU  0 inst:   59000001 cyc:   38022089 now IPC :1.61708: AVG IPC :1.53872: L2-Pf-HR :0.98513: L2-HR :0.91119: (Sim:0h3m46s) 
CPU  0 inst:   60000000 cyc:   38699104 now IPC :1.47707: AVG IPC :1.53762: L2-Pf-HR :0.98516: L2-HR :0.91133: (Sim:0h3m50s) 
CPU  0 inst:   61000000 cyc:   39287920 now IPC :1.69832: AVG IPC :1.54009: L2-Pf-HR :0.98518: L2-HR :0.91154: (Sim:0h3m54s) 
CPU  0 inst:   62000000 cyc:   40041732 now IPC :1.32659: AVG IPC :1.53597: L2-Pf-HR :0.98516: L2-HR :0.91113: (Sim:0h3m58s) 
CPU  0 inst:   63000003 cyc:   40663016 now IPC :1.60957: AVG IPC :1.53712: L2-Pf-HR :0.98510: L2-HR :0.91105: (Sim:0h4m2s) 
CPU  0 inst:   64000000 cyc:   41276827 now IPC :1.62916: AVG IPC :1.53852: L2-Pf-HR :0.98504: L2-HR :0.91103: (Sim:0h4m7s) 
CPU  0 inst:   65000003 cyc:   41916934 now IPC :1.56224: AVG IPC :1.53889: L2-Pf-HR :0.98498: L2-HR :0.91108: (Sim:0h4m11s) 
CPU  0 inst:   66000003 cyc:   42558686 now IPC :1.55823: AVG IPC :1.53919: L2-Pf-HR :0.98499: L2-HR :0.91120: (Sim:0h4m14s) 
CPU  0 inst:   67000003 cyc:   43307324 now IPC :1.33576: AVG IPC :1.53559: L2-Pf-HR :0.98503: L2-HR :0.91096: (Sim:0h4m16s) 
CPU  0 inst:   68000000 cyc:   43921287 now IPC :1.62876: AVG IPC :1.53692: L2-Pf-HR :0.98513: L2-HR :0.91113: (Sim:0h4m19s) 
CPU  0 inst:   69000000 cyc:   44539486 now IPC :1.61760: AVG IPC :1.53807: L2-Pf-HR :0.98512: L2-HR :0.91115: (Sim:0h4m24s) 
CPU  0 inst:   70000002 cyc:   45161384 now IPC :1.60798: AVG IPC :1.53905: L2-Pf-HR :0.98514: L2-HR :0.91125: (Sim:0h4m27s) 
CPU  0 inst:   71000000 cyc:   45814476 now IPC :1.53117: AVG IPC :1.53894: L2-Pf-HR :0.98508: L2-HR :0.91131: (Sim:0h4m30s) 
CPU  0 inst:   72000000 cyc:   46564747 now IPC :1.33285: AVG IPC :1.53555: L2-Pf-HR :0.98509: L2-HR :0.91106: (Sim:0h4m33s) 
CPU  0 inst:   73000003 cyc:   47174362 now IPC :1.64038: AVG IPC :1.53693: L2-Pf-HR :0.98515: L2-HR :0.91119: (Sim:0h4m36s) 
CPU  0 inst:   74000001 cyc:   47793105 now IPC :1.61618: AVG IPC :1.53798: L2-Pf-HR :0.98514: L2-HR :0.91121: (Sim:0h4m39s) 
CPU  0 inst:   75000000 cyc:   48416140 now IPC :1.60504: AVG IPC :1.53886: L2-Pf-HR :0.98507: L2-HR :0.91115: (Sim:0h4m41s) 
CPU  0 inst:   76000000 cyc:   49073099 now IPC :1.52217: AVG IPC :1.53863: L2-Pf-HR :0.98510: L2-HR :0.91132: (Sim:0h4m44s) 
CPU  0 inst:   77000001 cyc:   49817707 now IPC :1.34299: AVG IPC :1.53565: L2-Pf-HR :0.98510: L2-HR :0.91106: (Sim:0h4m47s) 
CPU  0 inst:   78000003 cyc:   50446974 now IPC :1.58915: AVG IPC :1.53633: L2-Pf-HR :0.98506: L2-HR :0.91102: (Sim:0h4m50s) 
CPU  0 inst:   79000002 cyc:   51067165 now IPC :1.61240: AVG IPC :1.53727: L2-Pf-HR :0.98499: L2-HR :0.91095: (Sim:0h4m53s) 
CPU  0 inst:   80000000 cyc:   51691581 now IPC :1.60149: AVG IPC :1.53806: L2-Pf-HR :0.98499: L2-HR :0.91099: (Sim:0h4m55s) 
CPU  0 inst:   81000003 cyc:   52358817 now IPC :1.49872: AVG IPC :1.53755: L2-Pf-HR :0.98502: L2-HR :0.91115: (Sim:0h4m58s) 
CPU  0 inst:   82000001 cyc:   53089646 now IPC :1.36831: AVG IPC :1.53518: L2-Pf-HR :0.98502: L2-HR :0.91094: (Sim:0h5m1s) 
CPU  0 inst:   83000002 cyc:   53712749 now IPC :1.60487: AVG IPC :1.53600: L2-Pf-HR :0.98499: L2-HR :0.91092: (Sim:0h5m4s) 
CPU  0 inst:   84000000 cyc:   54332461 now IPC :1.61365: AVG IPC :1.53690: L2-Pf-HR :0.98500: L2-HR :0.91097: (Sim:0h5m6s) 
CPU  0 inst:   85000000 cyc:   54958193 now IPC :1.59813: AVG IPC :1.53761: L2-Pf-HR :0.98495: L2-HR :0.91092: (Sim:0h5m9s) 
CPU  0 inst:   86000000 cyc:   55622113 now IPC :1.50621: AVG IPC :1.53723: L2-Pf-HR :0.98496: L2-HR :0.91101: (Sim:0h5m12s) 
CPU  0 inst:   87000000 cyc:   56354288 now IPC :1.36579: AVG IPC :1.53496: L2-Pf-HR :0.98496: L2-HR :0.91081: (Sim:0h5m15s) 
CPU  0 inst:   88000000 cyc:   56993018 now IPC :1.56561: AVG IPC :1.53531: L2-Pf-HR :0.98496: L2-HR :0.91085: (Sim:0h5m18s) 
CPU  0 inst:   89000001 cyc:   57614814 now IPC :1.60825: AVG IPC :1.53611: L2-Pf-HR :0.98495: L2-HR :0.91086: (Sim:0h5m21s) 
CPU  0 inst:   90000003 cyc:   58223919 now IPC :1.64176: AVG IPC :1.53724: L2-Pf-HR :0.98494: L2-HR :0.91087: (Sim:0h5m23s) 
CPU  0 inst:   91000001 cyc:   58894487 now IPC :1.49127: AVG IPC :1.53671: L2-Pf-HR :0.98488: L2-HR :0.91088: (Sim:0h5m27s) 
CPU  0 inst:   92000000 cyc:   59622282 now IPC :1.37401: AVG IPC :1.53469: L2-Pf-HR :0.98485: L2-HR :0.91066: (Sim:0h5m31s) 
CPU  0 inst:   93000001 cyc:   60247459 now IPC :1.59955: AVG IPC :1.53537: L2-Pf-HR :0.98487: L2-HR :0.91071: (Sim:0h5m35s) 
CPU  0 inst:   94000003 cyc:   60874291 now IPC :1.59533: AVG IPC :1.53600: L2-Pf-HR :0.98483: L2-HR :0.91069: (Sim:0h5m40s) 
CPU  0 inst:   95000002 cyc:   61490364 now IPC :1.62318: AVG IPC :1.53689: L2-Pf-HR :0.98482: L2-HR :0.91070: (Sim:0h5m42s) 
CPU  0 inst:   96000000 cyc:   62163801 now IPC :1.48492: AVG IPC :1.53631: L2-Pf-HR :0.98485: L2-HR :0.91082: (Sim:0h5m46s) 
CPU  0 inst:   97000002 cyc:   62874663 now IPC :1.40675: AVG IPC :1.53483: L2-Pf-HR :0.98479: L2-HR :0.91058: (Sim:0h5m49s) 
CPU  0 inst:   98000000 cyc:   63521779 now IPC :1.54531: AVG IPC :1.53493: L2-Pf-HR :0.98485: L2-HR :0.91068: (Sim:0h5m53s) 
CPU  0 inst:   99000000 cyc:   64141661 now IPC :1.61321: AVG IPC :1.53570: L2-Pf-HR :0.98481: L2-HR :0.91064: (Sim:0h5m58s) 
CPU  0 inst:  100000000 cyc:   64775720 now IPC :1.57714: AVG IPC :1.53611: L2-Pf-HR :0.98477: L2-HR :0.91063: (Sim:0h6m2s) 
CPU  0 inst:  101000003 cyc:   65448803 now IPC :1.48571: AVG IPC :1.53559: L2-Pf-HR :0.98474: L2-HR :0.91065: (Sim:0h6m5s) 
CPU  0 inst:  102000001 cyc:   66139764 now IPC :1.44726: AVG IPC :1.53465: L2-Pf-HR :0.98469: L2-HR :0.91046: (Sim:0h6m8s) 
CPU  0 inst:  103000000 cyc:   66802357 now IPC :1.50922: AVG IPC :1.53440: L2-Pf-HR :0.98471: L2-HR :0.91052: (Sim:0h6m11s) 
CPU  0 inst:  104000000 cyc:   67418978 now IPC :1.62174: AVG IPC :1.53521: L2-Pf-HR :0.98474: L2-HR :0.91058: (Sim:0h6m14s) 
CPU  0 inst:  105000000 cyc:   68040723 now IPC :1.60838: AVG IPC :1.53588: L2-Pf-HR :0.98476: L2-HR :0.91063: (Sim:0h6m18s) 
CPU  0 inst:  106000001 cyc:   68720689 now IPC :1.47066: AVG IPC :1.53523: L2-Pf-HR :0.98472: L2-HR :0.91063: (Sim:0h6m22s) 
CPU  0 inst:  107000000 cyc:   69307186 now IPC :1.70504: AVG IPC :1.53669: L2-Pf-HR :0.98471: L2-HR :0.91077: (Sim:0h6m26s) 
CPU  0 inst:  108000000 cyc:   70063825 now IPC :1.32163: AVG IPC :1.53433: L2-Pf-HR :0.98470: L2-HR :0.91048: (Sim:0h6m31s) 
CPU  0 inst:  109000002 cyc:   70689493 now IPC :1.59829: AVG IPC :1.53491: L2-Pf-HR :0.98466: L2-HR :0.91044: (Sim:0h6m35s) 
CPU  0 inst:  110000001 cyc:   71305673 now IPC :1.62290: AVG IPC :1.53568: L2-Pf-HR :0.98466: L2-HR :0.91048: (Sim:0h6m39s) 
CPU  0 inst:  111000002 cyc:   71984764 now IPC :1.47256: AVG IPC :1.53507: L2-Pf-HR :0.98465: L2-HR :0.91050: (Sim:0h6m43s) 
CPU  0 inst:  112000000 cyc:   72574804 now IPC :1.69480: AVG IPC :1.53639: L2-Pf-HR :0.98465: L2-HR :0.91060: (Sim:0h6m48s) 
CPU  0 inst:  113000002 cyc:   73338687 now IPC :1.30910: AVG IPC :1.53399: L2-Pf-HR :0.98464: L2-HR :0.91037: (Sim:0h6m52s) 
CPU  0 inst:  114000003 cyc:   73964464 now IPC :1.59801: AVG IPC :1.53454: L2-Pf-HR :0.98461: L2-HR :0.91034: (Sim:0h6m56s) 
CPU  0 inst:  115000003 cyc:   74590880 now IPC :1.59638: AVG IPC :1.53507: L2-Pf-HR :0.98457: L2-HR :0.91030: (Sim:0h6m59s) 
CPU  0 inst:  116000000 cyc:   75268825 now IPC :1.47504: AVG IPC :1.53452: L2-Pf-HR :0.98457: L2-HR :0.91034: (Sim:0h7m4s) 
CPU  0 inst:  117000001 cyc:   75865487 now IPC :1.67599: AVG IPC :1.53564: L2-Pf-HR :0.98455: L2-HR :0.91044: (Sim:0h7m8s) 
CPU  0 inst:  118000001 cyc:   76622693 now IPC :1.32064: AVG IPC :1.53349: L2-Pf-HR :0.98455: L2-HR :0.91025: (Sim:0h7m13s) 
CPU  0 inst:  119000001 cyc:   77240707 now IPC :1.61809: AVG IPC :1.53418: L2-Pf-HR :0.98456: L2-HR :0.91026: (Sim:0h7m17s) 
CPU  0 inst:  120000000 cyc:   77866813 now IPC :1.59717: AVG IPC :1.53469: L2-Pf-HR :0.98452: L2-HR :0.91024: (Sim:0h7m20s) 
CPU  0 inst:  121000003 cyc:   78508145 now IPC :1.55926: AVG IPC :1.53489: L2-Pf-HR :0.98452: L2-HR :0.91031: (Sim:0h7m24s) 
CPU  0 inst:  122000000 cyc:   79147321 now IPC :1.56451: AVG IPC :1.53514: L2-Pf-HR :0.98453: L2-HR :0.91038: (Sim:0h7m28s) 
CPU  0 inst:  123000000 cyc:   79898208 now IPC :1.33176: AVG IPC :1.53320: L2-Pf-HR :0.98452: L2-HR :0.91020: (Sim:0h7m32s) 
CPU  0 inst:  124000000 cyc:   80520932 now IPC :1.60585: AVG IPC :1.53377: L2-Pf-HR :0.98451: L2-HR :0.91019: (Sim:0h7m36s) 
CPU  0 inst:  125000001 cyc:   81140830 now IPC :1.61317: AVG IPC :1.53438: L2-Pf-HR :0.98452: L2-HR :0.91022: (Sim:0h7m41s) 
CPU  0 inst:  126000000 cyc:   81769138 now IPC :1.59157: AVG IPC :1.53483: L2-Pf-HR :0.98451: L2-HR :0.91025: (Sim:0h7m45s) 
CPU  0 inst:  127000000 cyc:   82416588 now IPC :1.54452: AVG IPC :1.53491: L2-Pf-HR :0.98450: L2-HR :0.91031: (Sim:0h7m49s) 
CPU  0 inst:  128000000 cyc:   83166700 now IPC :1.33313: AVG IPC :1.53306: L2-Pf-HR :0.98450: L2-HR :0.91015: (Sim:0h7m53s) 
CPU  0 inst:  129000001 cyc:   83776850 now IPC :1.63894: AVG IPC :1.53384: L2-Pf-HR :0.98451: L2-HR :0.91018: (Sim:0h7m56s) 
CPU  0 inst:  130000002 cyc:   84396616 now IPC :1.61351: AVG IPC :1.53444: L2-Pf-HR :0.98448: L2-HR :0.91016: (Sim:0h7m59s) 
CPU  0 inst:  131000003 cyc:   85019557 now IPC :1.60529: AVG IPC :1.53496: L2-Pf-HR :0.98445: L2-HR :0.91016: (Sim:0h8m3s) 
CPU  0 inst:  132000000 cyc:   85674384 now IPC :1.52712: AVG IPC :1.53490: L2-Pf-HR :0.98445: L2-HR :0.91023: (Sim:0h8m7s) 
CPU  0 inst:  133000003 cyc:   86417810 now IPC :1.34513: AVG IPC :1.53325: L2-Pf-HR :0.98445: L2-HR :0.91008: (Sim:0h8m11s) 
CPU  0 inst:  134000003 cyc:   87038450 now IPC :1.61124: AVG IPC :1.53381: L2-Pf-HR :0.98446: L2-HR :0.91011: (Sim:0h8m15s) 
CPU  0 inst:  135000000 cyc:   87659330 now IPC :1.61061: AVG IPC :1.53436: L2-Pf-HR :0.98449: L2-HR :0.91016: (Sim:0h8m19s) 
CPU  0 inst:  136000000 cyc:   88270041 now IPC :1.63744: AVG IPC :1.53508: L2-Pf-HR :0.98450: L2-HR :0.91021: (Sim:0h8m24s) 
CPU  0 inst:  137000000 cyc:   88932107 now IPC :1.51042: AVG IPC :1.53490: L2-Pf-HR :0.98449: L2-HR :0.91026: (Sim:0h8m28s) 
CPU  0 inst:  138000002 cyc:   89673366 now IPC :1.34906: AVG IPC :1.53334: L2-Pf-HR :0.98448: L2-HR :0.91011: (Sim:0h8m32s) 
CPU  0 inst:  139000003 cyc:   90298065 now IPC :1.60077: AVG IPC :1.53382: L2-Pf-HR :0.98452: L2-HR :0.91019: (Sim:0h8m36s) 
CPU  0 inst:  140000000 cyc:   90922802 now IPC :1.60067: AVG IPC :1.53428: L2-Pf-HR :0.98453: L2-HR :0.91022: (Sim:0h8m40s) 
CPU  0 inst:  141000000 cyc:   91551950 now IPC :1.58945: AVG IPC :1.53466: L2-Pf-HR :0.98450: L2-HR :0.91020: (Sim:0h8m45s) 
CPU  0 inst:  142000000 cyc:   92223341 now IPC :1.48945: AVG IPC :1.53433: L2-Pf-HR :0.98449: L2-HR :0.91024: (Sim:0h8m49s) 
CPU  0 inst:  143000003 cyc:   92950622 now IPC :1.37499: AVG IPC :1.53307: L2-Pf-HR :0.98448: L2-HR :0.91011: (Sim:0h8m53s) 
CPU  0 inst:  144000000 cyc:   93595970 now IPC :1.54955: AVG IPC :1.53319: L2-Pf-HR :0.98453: L2-HR :0.91020: (Sim:0h8m57s) 
CPU  0 inst:  145000002 cyc:   94217543 now IPC :1.60882: AVG IPC :1.53369: L2-Pf-HR :0.98456: L2-HR :0.91027: (Sim:0h9m1s) 
CPU  0 inst:  146000000 cyc:   94836158 now IPC :1.61651: AVG IPC :1.53424: L2-Pf-HR :0.98455: L2-HR :0.91028: (Sim:0h9m5s) 
CPU  0 inst:  147000000 cyc:   95508190 now IPC :1.48802: AVG IPC :1.53391: L2-Pf-HR :0.98457: L2-HR :0.91038: (Sim:0h9m10s) 
CPU  0 inst:  148000000 cyc:   96235251 now IPC :1.37540: AVG IPC :1.53270: L2-Pf-HR :0.98456: L2-HR :0.91023: (Sim:0h9m14s) 
CPU  0 inst:  149000003 cyc:   96872510 now IPC :1.56923: AVG IPC :1.53294: L2-Pf-HR :0.98457: L2-HR :0.91027: (Sim:0h9m18s) 
CPU  0 inst:  150000003 cyc:   97486772 now IPC :1.62797: AVG IPC :1.53355: L2-Pf-HR :0.98455: L2-HR :0.91026: (Sim:0h9m22s) 
CPU  0 inst:  151000003 cyc:   98101777 now IPC :1.62600: AVG IPC :1.53413: L2-Pf-HR :0.98452: L2-HR :0.91024: (Sim:0h9m26s) 
CPU  0 inst:  152000000 cyc:   98770748 now IPC :1.49483: AVG IPC :1.53386: L2-Pf-HR :0.98453: L2-HR :0.91030: (Sim:0h9m31s) 
CPU  0 inst:  153000001 cyc:   99488555 now IPC :1.39313: AVG IPC :1.53284: L2-Pf-HR :0.98449: L2-HR :0.91015: (Sim:0h9m35s) 
CPU  0 inst:  154000001 cyc:  100137560 now IPC :1.54082: AVG IPC :1.53289: L2-Pf-HR :0.98453: L2-HR :0.91023: (Sim:0h9m39s) 
CPU  0 inst:  155000001 cyc:  100749048 now IPC :1.63536: AVG IPC :1.53352: L2-Pf-HR :0.98456: L2-HR :0.91028: (Sim:0h9m43s) 
CPU  0 inst:  156000000 cyc:  101361769 now IPC :1.63206: AVG IPC :1.53412: L2-Pf-HR :0.98456: L2-HR :0.91030: (Sim:0h9m47s) 
CPU  0 inst:  157000001 cyc:  102039452 now IPC :1.47562: AVG IPC :1.53373: L2-Pf-HR :0.98456: L2-HR :0.91035: (Sim:0h9m52s) 
CPU  0 inst:  158000003 cyc:  102727370 now IPC :1.45366: AVG IPC :1.53318: L2-Pf-HR :0.98452: L2-HR :0.91022: (Sim:0h9m56s) 
CPU  0 inst:  159000001 cyc:  103390155 now IPC :1.50878: AVG IPC :1.53303: L2-Pf-HR :0.98456: L2-HR :0.91027: (Sim:0h10m0s) 
CPU  0 inst:  160000000 cyc:  104009326 now IPC :1.61506: AVG IPC :1.53352: L2-Pf-HR :0.98454: L2-HR :0.91027: (Sim:0h10m4s) 
CPU  0 inst:  161000001 cyc:  104634979 now IPC :1.59833: AVG IPC :1.53391: L2-Pf-HR :0.98452: L2-HR :0.91025: (Sim:0h10m8s) 
CPU  0 inst:  162000002 cyc:  105311705 now IPC :1.47770: AVG IPC :1.53355: L2-Pf-HR :0.98451: L2-HR :0.91027: (Sim:0h10m12s) 
CPU  0 inst:  163000000 cyc:  105906699 now IPC :1.68069: AVG IPC :1.53438: L2-Pf-HR :0.98451: L2-HR :0.91037: (Sim:0h10m16s) 
CPU  0 inst:  164000000 cyc:  112059142 now IPC :0.16254: AVG IPC :1.45840: L2-Pf-HR :0.98421: L2-HR :0.90373: (Sim:0h10m30s) 
CPU  0 inst:  165000001 cyc:  118642616 now IPC :0.15190: AVG IPC :1.38530: L2-Pf-HR :0.98388: L2-HR :0.89708: (Sim:0h10m45s) 
CPU  0 inst:  166000001 cyc:  125230355 now IPC :0.15180: AVG IPC :1.31990: L2-Pf-HR :0.98355: L2-HR :0.89065: (Sim:0h11m0s) 
CPU  0 inst:  167000000 cyc:  131817644 now IPC :0.15181: AVG IPC :1.26109: L2-Pf-HR :0.98323: L2-HR :0.88443: (Sim:0h11m15s) 
CPU  0 inst:  168000000 cyc:  137749655 now IPC :0.16858: AVG IPC :1.21371: L2-Pf-HR :0.98285: L2-HR :0.87950: (Sim:0h11m28s) 
CPU  0 inst:  169000000 cyc:  141440904 now IPC :0.27091: AVG IPC :1.18893: L2-Pf-HR :0.98220: L2-HR :0.87861: (Sim:0h11m37s) 
CPU  0 inst:  170000000 cyc:  145125836 now IPC :0.27138: AVG IPC :1.16547: L2-Pf-HR :0.98155: L2-HR :0.87771: (Sim:0h11m46s) 
CPU  0 inst:  171000000 cyc:  148804331 now IPC :0.27185: AVG IPC :1.14324: L2-Pf-HR :0.98090: L2-HR :0.87683: (Sim:0h11m54s) 
CPU  0 inst:  172000000 cyc:  152485273 now IPC :0.27167: AVG IPC :1.12206: L2-Pf-HR :0.98025: L2-HR :0.87594: (Sim:0h12m3s) 
CPU  0 inst:  173000002 cyc:  156166820 now IPC :0.27163: AVG IPC :1.10189: L2-Pf-HR :0.97960: L2-HR :0.87506: (Sim:0h12m11s) 
CPU  0 inst:  174000002 cyc:  159848725 now IPC :0.27160: AVG IPC :1.08264: L2-Pf-HR :0.97895: L2-HR :0.87418: (Sim:0h12m20s) 
CPU  0 inst:  175000001 cyc:  163527689 now IPC :0.27182: AVG IPC :1.06429: L2-Pf-HR :0.97830: L2-HR :0.87331: (Sim:0h12m29s) 
CPU  0 inst:  176000000 cyc:  167207594 now IPC :0.27175: AVG IPC :1.04675: L2-Pf-HR :0.97765: L2-HR :0.87244: (Sim:0h12m37s) 
CPU  0 inst:  177000000 cyc:  170887738 now IPC :0.27173: AVG IPC :1.02996: L2-Pf-HR :0.97701: L2-HR :0.87157: (Sim:0h12m46s) 
CPU  0 inst:  178000000 cyc:  174569681 now IPC :0.27160: AVG IPC :1.01388: L2-Pf-HR :0.97636: L2-HR :0.87071: (Sim:0h12m55s) 
CPU  0 inst:  179000000 cyc:  178251262 now IPC :0.27162: AVG IPC :0.99846: L2-Pf-HR :0.97572: L2-HR :0.86985: (Sim:0h13m3s) 
CPU  0 inst:  180000000 cyc:  181931729 now IPC :0.27170: AVG IPC :0.98368: L2-Pf-HR :0.97507: L2-HR :0.86900: (Sim:0h13m12s) 
CPU  0 inst:  181000002 cyc:  185612903 now IPC :0.27165: AVG IPC :0.96948: L2-Pf-HR :0.97443: L2-HR :0.86814: (Sim:0h13m21s) 
CPU  0 inst:  182000002 cyc:  189293087 now IPC :0.27173: AVG IPC :0.95585: L2-Pf-HR :0.97379: L2-HR :0.86730: (Sim:0h13m30s) 
CPU  0 inst:  183000002 cyc:  192971761 now IPC :0.27184: AVG IPC :0.94274: L2-Pf-HR :0.97315: L2-HR :0.86645: (Sim:0h13m39s) 
CPU  0 inst:  184000000 cyc:  196650021 now IPC :0.27187: AVG IPC :0.93013: L2-Pf-HR :0.97251: L2-HR :0.86561: (Sim:0h13m48s) 
CPU  0 inst:  185000000 cyc:  200328033 now IPC :0.27189: AVG IPC :0.91799: L2-Pf-HR :0.97187: L2-HR :0.86477: (Sim:0h13m57s) 
CPU  0 inst:  186000002 cyc:  204011555 now IPC :0.27148: AVG IPC :0.90626: L2-Pf-HR :0.97123: L2-HR :0.86394: (Sim:0h14m6s) 
CPU  0 inst:  187000000 cyc:  207693787 now IPC :0.27157: AVG IPC :0.89495: L2-Pf-HR :0.97059: L2-HR :0.86311: (Sim:0h14m15s) 
CPU  0 inst:  188000000 cyc:  211374199 now IPC :0.27171: AVG IPC :0.88405: L2-Pf-HR :0.96995: L2-HR :0.86228: (Sim:0h14m23s) 
CPU  0 inst:  189000002 cyc:  215054932 now IPC :0.27169: AVG IPC :0.87352: L2-Pf-HR :0.96932: L2-HR :0.86146: (Sim:0h14m32s) 
CPU  0 inst:  190000002 cyc:  218735295 now IPC :0.27171: AVG IPC :0.86335: L2-Pf-HR :0.96868: L2-HR :0.86064: (Sim:0h14m41s) 
CPU  0 inst:  191000002 cyc:  222416739 now IPC :0.27163: AVG IPC :0.85351: L2-Pf-HR :0.96805: L2-HR :0.85982: (Sim:0h14m49s) 
CPU  0 inst:  192000000 cyc:  226095552 now IPC :0.27183: AVG IPC :0.84400: L2-Pf-HR :0.96741: L2-HR :0.85901: (Sim:0h14m58s) 
CPU  0 inst:  193000001 cyc:  229772948 now IPC :0.27193: AVG IPC :0.83481: L2-Pf-HR :0.96678: L2-HR :0.85820: (Sim:0h15m7s) 
CPU  0 inst:  194000000 cyc:  233449381 now IPC :0.27200: AVG IPC :0.82591: L2-Pf-HR :0.96615: L2-HR :0.85739: (Sim:0h15m16s) 
CPU  0 inst:  195000001 cyc:  237130162 now IPC :0.27168: AVG IPC :0.81727: L2-Pf-HR :0.96552: L2-HR :0.85659: (Sim:0h15m24s) 
CPU  0 inst:  196000000 cyc:  240812804 now IPC :0.27154: AVG IPC :0.80889: L2-Pf-HR :0.96488: L2-HR :0.85578: (Sim:0h15m33s) 
CPU  0 inst:  197000002 cyc:  244489291 now IPC :0.27200: AVG IPC :0.80079: L2-Pf-HR :0.96426: L2-HR :0.85499: (Sim:0h15m42s) 
CPU  0 inst:  198000002 cyc:  248170015 now IPC :0.27169: AVG IPC :0.79291: L2-Pf-HR :0.96363: L2-HR :0.85419: (Sim:0h15m50s) 
CPU  0 inst:  199000002 cyc:  251852847 now IPC :0.27153: AVG IPC :0.78525: L2-Pf-HR :0.96300: L2-HR :0.85340: (Sim:0h15m59s) 
CPU  0 inst:  200000000 cyc:  255532651 now IPC :0.27175: AVG IPC :0.77783: L2-Pf-HR :0.96237: L2-HR :0.85262: (Sim:0h16m8s) 
CPU  0 inst:  201000001 cyc:  259211985 now IPC :0.27179: AVG IPC :0.77062: L2-Pf-HR :0.96175: L2-HR :0.85183: (Sim:0h16m17s) 
CPU  0 inst:  202000000 cyc:  262891047 now IPC :0.27181: AVG IPC :0.76361: L2-Pf-HR :0.96112: L2-HR :0.85105: (Sim:0h16m26s) 
CPU  0 inst:  203000002 cyc:  266570190 now IPC :0.27180: AVG IPC :0.75680: L2-Pf-HR :0.96050: L2-HR :0.85027: (Sim:0h16m34s) 
CPU  0 inst:  204000000 cyc:  270250649 now IPC :0.27170: AVG IPC :0.75017: L2-Pf-HR :0.95987: L2-HR :0.84950: (Sim:0h16m43s) 
CPU  0 inst:  205000002 cyc:  273931127 now IPC :0.27170: AVG IPC :0.74372: L2-Pf-HR :0.95925: L2-HR :0.84873: (Sim:0h16m52s) 
CPU  0 inst:  206000002 cyc:  277611640 now IPC :0.27170: AVG IPC :0.73744: L2-Pf-HR :0.95863: L2-HR :0.84796: (Sim:0h17m1s) 
CPU  0 inst:  207000002 cyc:  281290266 now IPC :0.27184: AVG IPC :0.73133: L2-Pf-HR :0.95801: L2-HR :0.84719: (Sim:0h17m9s) 
CPU  0 inst:  208000000 cyc:  284971117 now IPC :0.27168: AVG IPC :0.72537: L2-Pf-HR :0.95739: L2-HR :0.84643: (Sim:0h17m18s) 
CPU  0 inst:  209000001 cyc:  288649970 now IPC :0.27182: AVG IPC :0.71957: L2-Pf-HR :0.95677: L2-HR :0.84567: (Sim:0h17m27s) 
CPU  0 inst:  210000000 cyc:  292326245 now IPC :0.27201: AVG IPC :0.71392: L2-Pf-HR :0.95615: L2-HR :0.84491: (Sim:0h17m35s) 
CPU  0 inst:  211000000 cyc:  296006157 now IPC :0.27175: AVG IPC :0.70841: L2-Pf-HR :0.95553: L2-HR :0.84416: (Sim:0h17m44s) 
CPU  0 inst:  212000000 cyc:  299684172 now IPC :0.27189: AVG IPC :0.70303: L2-Pf-HR :0.95491: L2-HR :0.84341: (Sim:0h17m53s) 
CPU  0 inst:  213000002 cyc:  303364771 now IPC :0.27170: AVG IPC :0.69778: L2-Pf-HR :0.95430: L2-HR :0.84266: (Sim:0h18m1s) 
CPU  0 inst:  214000000 cyc:  307044388 now IPC :0.27177: AVG IPC :0.69266: L2-Pf-HR :0.95368: L2-HR :0.84192: (Sim:0h18m10s) 
CPU  0 inst:  215000000 cyc:  310724226 now IPC :0.27175: AVG IPC :0.68766: L2-Pf-HR :0.95306: L2-HR :0.84118: (Sim:0h18m19s) 
CPU  0 inst:  216000000 cyc:  314404203 now IPC :0.27174: AVG IPC :0.68278: L2-Pf-HR :0.95245: L2-HR :0.84044: (Sim:0h18m28s) 
CPU  0 inst:  217000001 cyc:  318084978 now IPC :0.27168: AVG IPC :0.67801: L2-Pf-HR :0.95184: L2-HR :0.83970: (Sim:0h18m36s) 
CPU  0 inst:  218000000 cyc:  321766514 now IPC :0.27163: AVG IPC :0.67334: L2-Pf-HR :0.95122: L2-HR :0.83897: (Sim:0h18m45s) 
CPU  0 inst:  219000000 cyc:  325446811 now IPC :0.27172: AVG IPC :0.66879: L2-Pf-HR :0.95061: L2-HR :0.83824: (Sim:0h18m54s) 
CPU  0 inst:  220000000 cyc:  329127000 now IPC :0.27173: AVG IPC :0.66433: L2-Pf-HR :0.95000: L2-HR :0.83751: (Sim:0h19m3s) 
CPU  0 inst:  221000001 cyc:  332807923 now IPC :0.27167: AVG IPC :0.65998: L2-Pf-HR :0.94939: L2-HR :0.83679: (Sim:0h19m11s) 
CPU  0 inst:  222000002 cyc:  336487230 now IPC :0.27179: AVG IPC :0.65572: L2-Pf-HR :0.94878: L2-HR :0.83606: (Sim:0h19m20s) 
CPU  0 inst:  223000002 cyc:  340166536 now IPC :0.27179: AVG IPC :0.65156: L2-Pf-HR :0.94817: L2-HR :0.83535: (Sim:0h19m29s) 
CPU  0 inst:  224000000 cyc:  343842506 now IPC :0.27204: AVG IPC :0.64749: L2-Pf-HR :0.94757: L2-HR :0.83463: (Sim:0h19m38s) 
CPU  0 inst:  225000002 cyc:  347522938 now IPC :0.27171: AVG IPC :0.64350: L2-Pf-HR :0.94696: L2-HR :0.83392: (Sim:0h19m47s) 
CPU  0 inst:  226000000 cyc:  351204086 now IPC :0.27165: AVG IPC :0.63959: L2-Pf-HR :0.94635: L2-HR :0.83321: (Sim:0h19m55s) 
CPU  0 inst:  227000000 cyc:  354886699 now IPC :0.27155: AVG IPC :0.63576: L2-Pf-HR :0.94575: L2-HR :0.83250: (Sim:0h20m3s) 
CPU  0 inst:  228000000 cyc:  358567505 now IPC :0.27168: AVG IPC :0.63201: L2-Pf-HR :0.94514: L2-HR :0.83179: (Sim:0h20m8s) 
CPU  0 inst:  229000001 cyc:  362250186 now IPC :0.27154: AVG IPC :0.62834: L2-Pf-HR :0.94454: L2-HR :0.83109: (Sim:0h20m14s) 
CPU  0 inst:  230000002 cyc:  365927848 now IPC :0.27191: AVG IPC :0.62474: L2-Pf-HR :0.94394: L2-HR :0.83039: (Sim:0h20m20s) 
CPU  0 inst:  231000002 cyc:  369605738 now IPC :0.27190: AVG IPC :0.62122: L2-Pf-HR :0.94333: L2-HR :0.82969: (Sim:0h20m25s) 
CPU  0 inst:  232000000 cyc:  373286940 now IPC :0.27165: AVG IPC :0.61777: L2-Pf-HR :0.94273: L2-HR :0.82900: (Sim:0h20m31s) 
CPU  0 inst:  233000003 cyc:  374608799 now IPC :0.75651: AVG IPC :0.61826: L2-Pf-HR :0.94281: L2-HR :0.82889: (Sim:0h20m34s) 
CPU  0 inst:  234000000 cyc:  375285327 now IPC :1.47813: AVG IPC :0.61981: L2-Pf-HR :0.94327: L2-HR :0.82973: (Sim:0h20m37s) 
CPU  0 inst:  235000002 cyc:  376004912 now IPC :1.38969: AVG IPC :0.62129: L2-Pf-HR :0.94346: L2-HR :0.83004: (Sim:0h20m40s) 
CPU  0 inst:  236000000 cyc:  376623108 now IPC :1.61761: AVG IPC :0.62293: L2-Pf-HR :0.94390: L2-HR :0.83087: (Sim:0h20m43s) 
CPU  0 inst:  237000002 cyc:  377260643 now IPC :1.56854: AVG IPC :0.62453: L2-Pf-HR :0.94430: L2-HR :0.83151: (Sim:0h20m46s) 
CPU  0 inst:  238000003 cyc:  378022268 now IPC :1.31298: AVG IPC :0.62592: L2-Pf-HR :0.94454: L2-HR :0.83188: (Sim:0h20m49s) 
CPU  0 inst:  239000001 cyc:  378595850 now IPC :1.74343: AVG IPC :0.62762: L2-Pf-HR :0.94490: L2-HR :0.83261: (Sim:0h20m51s) 
CPU  0 inst:  240000000 cyc:  379307781 now IPC :1.40463: AVG IPC :0.62908: L2-Pf-HR :0.94515: L2-HR :0.83299: (Sim:0h20m54s) 
CPU  0 inst:  241000003 cyc:  379859987 now IPC :1.81092: AVG IPC :0.63080: L2-Pf-HR :0.94546: L2-HR :0.83363: (Sim:0h20m57s) 
CPU  0 inst:  242000000 cyc:  380523281 now IPC :1.50762: AVG IPC :0.63234: L2-Pf-HR :0.94581: L2-HR :0.83420: (Sim:0h21m1s) 
CPU  0 inst:  243000002 cyc:  381098286 now IPC :1.73912: AVG IPC :0.63401: L2-Pf-HR :0.94625: L2-HR :0.83506: (Sim:0h21m4s) 
CPU  0 inst:  244000000 cyc:  381836977 now IPC :1.35374: AVG IPC :0.63541: L2-Pf-HR :0.94642: L2-HR :0.83530: (Sim:0h21m7s) 
CPU  0 inst:  245000003 cyc:  382464148 now IPC :1.59447: AVG IPC :0.63698: L2-Pf-HR :0.94680: L2-HR :0.83606: (Sim:0h21m10s) 
CPU  0 inst:  246000002 cyc:  383116861 now IPC :1.53207: AVG IPC :0.63851: L2-Pf-HR :0.94695: L2-HR :0.83630: (Sim:0h21m13s) 
CPU  0 inst:  247000001 cyc:  383711672 now IPC :1.68120: AVG IPC :0.64013: L2-Pf-HR :0.94730: L2-HR :0.83701: (Sim:0h21m16s) 
CPU  0 inst:  248000000 cyc:  384318903 now IPC :1.64682: AVG IPC :0.64173: L2-Pf-HR :0.94763: L2-HR :0.83758: (Sim:0h21m18s) 
CPU  0 inst:  249000000 cyc:  385077706 now IPC :1.31787: AVG IPC :0.64306: L2-Pf-HR :0.94786: L2-HR :0.83792: (Sim:0h21m21s) 
CPU  0 inst:  250000000 cyc:  385649508 now IPC :1.74886: AVG IPC :0.64471: L2-Pf-HR :0.94817: L2-HR :0.83855: (Sim:0h21m24s) 
CPU  0 inst:  251000002 cyc:  386367863 now IPC :1.39207: AVG IPC :0.64610: L2-Pf-HR :0.94842: L2-HR :0.83894: (Sim:0h21m27s) 
CPU  0 inst:  252000000 cyc:  386919268 now IPC :1.81355: AVG IPC :0.64777: L2-Pf-HR :0.94867: L2-HR :0.83949: (Sim:0h21m29s) 
CPU  0 inst:  253000001 cyc:  387575175 now IPC :1.52461: AVG IPC :0.64926: L2-Pf-HR :0.94899: L2-HR :0.84002: (Sim:0h21m32s) 
CPU  0 inst:  254000002 cyc:  388151221 now IPC :1.73597: AVG IPC :0.65087: L2-Pf-HR :0.94936: L2-HR :0.84078: (Sim:0h21m35s) 
CPU  0 inst:  255000003 cyc:  388878376 now IPC :1.37522: AVG IPC :0.65223: L2-Pf-HR :0.94951: L2-HR :0.84099: (Sim:0h21m37s) 
CPU  0 inst:  256000000 cyc:  389503306 now IPC :1.60017: AVG IPC :0.65375: L2-Pf-HR :0.94985: L2-HR :0.84167: (Sim:0h21m40s) 
CPU  0 inst:  257000001 cyc:  390153633 now IPC :1.53769: AVG IPC :0.65523: L2-Pf-HR :0.95000: L2-HR :0.84190: (Sim:0h21m43s) 
CPU  0 inst:  258000000 cyc:  390750517 now IPC :1.67537: AVG IPC :0.65679: L2-Pf-HR :0.95030: L2-HR :0.84253: (Sim:0h21m46s) 
CPU  0 inst:  259000002 cyc:  391350659 now IPC :1.66628: AVG IPC :0.65835: L2-Pf-HR :0.95058: L2-HR :0.84302: (Sim:0h21m48s) 
CPU  0 inst:  260000000 cyc:  392103758 now IPC :1.32784: AVG IPC :0.65964: L2-Pf-HR :0.95080: L2-HR :0.84334: (Sim:0h21m51s) 
CPU  0 inst:  261000000 cyc:  392680348 now IPC :1.73433: AVG IPC :0.66122: L2-Pf-HR :0.95103: L2-HR :0.84384: (Sim:0h21m54s) 
CPU  0 inst:  262000000 cyc:  393398259 now IPC :1.39293: AVG IPC :0.66256: L2-Pf-HR :0.95126: L2-HR :0.84418: (Sim:0h21m56s) 
CPU  0 inst:  263000002 cyc:  393950868 now IPC :1.80960: AVG IPC :0.66417: L2-Pf-HR :0.95144: L2-HR :0.84462: (Sim:0h21m59s) 
CPU  0 inst:  264000000 cyc:  394593109 now IPC :1.55704: AVG IPC :0.66563: L2-Pf-HR :0.95172: L2-HR :0.84513: (Sim:0h22m2s) 
CPU  0 inst:  265000002 cyc:  395177901 now IPC :1.71001: AVG IPC :0.66717: L2-Pf-HR :0.95202: L2-HR :0.84576: (Sim:0h22m4s) 
CPU  0 inst:  266000000 cyc:  395908430 now IPC :1.36887: AVG IPC :0.66847: L2-Pf-HR :0.95212: L2-HR :0.84592: (Sim:0h22m7s) 
CPU  0 inst:  267000003 cyc:  396535148 now IPC :1.59562: AVG IPC :0.66994: L2-Pf-HR :0.95238: L2-HR :0.84648: (Sim:0h22m10s) 
CPU  0 inst:  268000000 cyc:  397188653 now IPC :1.53021: AVG IPC :0.67136: L2-Pf-HR :0.95251: L2-HR :0.84666: (Sim:0h22m13s) 
CPU  0 inst:  269000003 cyc:  397787880 now IPC :1.66882: AVG IPC :0.67287: L2-Pf-HR :0.95277: L2-HR :0.84722: (Sim:0h22m15s) 
CPU  0 inst:  270000003 cyc:  398389574 now IPC :1.66197: AVG IPC :0.67436: L2-Pf-HR :0.95301: L2-HR :0.84765: (Sim:0h22m18s) 
CPU  0 inst:  271000001 cyc:  399131774 now IPC :1.34734: AVG IPC :0.67562: L2-Pf-HR :0.95319: L2-HR :0.84798: (Sim:0h22m21s) 
CPU  0 inst:  272000000 cyc:  399710858 now IPC :1.72686: AVG IPC :0.67715: L2-Pf-HR :0.95337: L2-HR :0.84840: (Sim:0h22m23s) 
CPU  0 inst:  273000002 cyc:  400387677 now IPC :1.47750: AVG IPC :0.67850: L2-Pf-HR :0.95361: L2-HR :0.84888: (Sim:0h22m27s) 
CPU  0 inst:  274000002 cyc:  400980217 now IPC :1.68765: AVG IPC :0.68000: L2-Pf-HR :0.95372: L2-HR :0.84909: (Sim:0h22m31s) 
CPU  0 inst:  275000003 cyc:  401573549 now IPC :1.68540: AVG IPC :0.68149: L2-Pf-HR :0.95398: L2-HR :0.84967: (Sim:0h22m35s) 
CPU  0 inst:  276000000 cyc:  402185797 now IPC :1.63332: AVG IPC :0.68294: L2-Pf-HR :0.95421: L2-HR :0.85011: (Sim:0h22m39s) 
CPU  0 inst:  277000001 cyc:  402943305 now IPC :1.32012: AVG IPC :0.68414: L2-Pf-HR :0.95430: L2-HR :0.85024: (Sim:0h22m43s) 
CPU  0 inst:  278000003 cyc:  403568618 now IPC :1.59920: AVG IPC :0.68556: L2-Pf-HR :0.95454: L2-HR :0.85077: (Sim:0h22m47s) 
CPU  0 inst:  279000003 cyc:  404229485 now IPC :1.51316: AVG IPC :0.68692: L2-Pf-HR :0.95463: L2-HR :0.85092: (Sim:0h22m51s) 
CPU  0 inst:  280000000 cyc:  404798192 now IPC :1.75837: AVG IPC :0.68843: L2-Pf-HR :0.95487: L2-HR :0.85147: (Sim:0h22m55s) 
CPU  0 inst:  281000003 cyc:  405439225 now IPC :1.55999: AVG IPC :0.68981: L2-Pf-HR :0.95506: L2-HR :0.85180: (Sim:0h23m0s) 
CPU  0 inst:  282000003 cyc:  406084725 now IPC :1.54919: AVG IPC :0.69118: L2-Pf-HR :0.95529: L2-HR :0.85231: (Sim:0h23m4s) 
CPU  0 inst:  283000002 cyc:  406757450 now IPC :1.48649: AVG IPC :0.69250: L2-Pf-HR :0.95538: L2-HR :0.85247: (Sim:0h23m8s) 
CPU  0 inst:  284000000 cyc:  407382090 now IPC :1.60092: AVG IPC :0.69389: L2-Pf-HR :0.95562: L2-HR :0.85301: (Sim:0h23m12s) 
CPU  0 inst:  285000001 cyc:  408030763 now IPC :1.54161: AVG IPC :0.69524: L2-Pf-HR :0.95568: L2-HR :0.85308: (Sim:0h23m16s) 
CPU  0 inst:  286000000 cyc:  408618989 now IPC :1.70003: AVG IPC :0.69669: L2-Pf-HR :0.95590: L2-HR :0.85358: (Sim:0h23m20s) 
CPU  0 inst:  287000000 cyc:  409226501 now IPC :1.64606: AVG IPC :0.69810: L2-Pf-HR :0.95609: L2-HR :0.85395: (Sim:0h23m24s) 
CPU  0 inst:  288000000 cyc:  409990686 now IPC :1.30858: AVG IPC :0.69925: L2-Pf-HR :0.95619: L2-HR :0.85410: (Sim:0h23m29s) 
CPU  0 inst:  289000001 cyc:  410575615 now IPC :1.70961: AVG IPC :0.70069: L2-Pf-HR :0.95642: L2-HR :0.85463: (Sim:0h23m33s) 
CPU  0 inst:  290000000 cyc:  411280320 now IPC :1.41903: AVG IPC :0.70192: L2-Pf-HR :0.95650: L2-HR :0.85472: (Sim:0h23m37s) 
CPU  0 inst:  291000001 cyc:  411839448 now IPC :1.78850: AVG IPC :0.70340: L2-Pf-HR :0.95669: L2-HR :0.85519: (Sim:0h23m41s) 
CPU  0 inst:  292000000 cyc:  412487315 now IPC :1.54353: AVG IPC :0.70472: L2-Pf-HR :0.95687: L2-HR :0.85550: (Sim:0h23m45s) 
CPU  0 inst:  293000003 cyc:  413061715 now IPC :1.74095: AVG IPC :0.70617: L2-Pf-HR :0.95712: L2-HR :0.85606: (Sim:0h23m49s) 
CPU  0 inst:  294000002 cyc:  413806356 now IPC :1.34293: AVG IPC :0.70732: L2-Pf-HR :0.95716: L2-HR :0.85613: (Sim:0h23m53s) 
CPU  0 inst:  295000003 cyc:  414426762 now IPC :1.61185: AVG IPC :0.70867: L2-Pf-HR :0.95737: L2-HR :0.85660: (Sim:0h23m57s) 
CPU  0 inst:  296000000 cyc:  415075981 now IPC :1.54031: AVG IPC :0.70998: L2-Pf-HR :0.95743: L2-HR :0.85670: (Sim:0h24m2s) 
CPU  0 inst:  297000003 cyc:  415671394 now IPC :1.67951: AVG IPC :0.71137: L2-Pf-HR :0.95761: L2-HR :0.85712: (Sim:0h24m6s) 
CPU  0 inst:  298000000 cyc:  416280597 now IPC :1.64148: AVG IPC :0.71273: L2-Pf-HR :0.95779: L2-HR :0.85747: (Sim:0h24m10s) 
CPU  0 inst:  299000000 cyc:  417043989 now IPC :1.30994: AVG IPC :0.71383: L2-Pf-HR :0.95787: L2-HR :0.85759: (Sim:0h24m14s) 
CPU  0 inst:  300000000 cyc:  417621307 now IPC :1.73215: AVG IPC :0.71524: L2-Pf-HR :0.95804: L2-HR :0.85802: (Sim:0h24m18s) 
CPU  0 inst:  301000002 cyc:  418326534 now IPC :1.41799: AVG IPC :0.71643: L2-Pf-HR :0.95813: L2-HR :0.85813: (Sim:0h24m22s) 
CPU  0 inst:  302000003 cyc:  418876504 now IPC :1.81828: AVG IPC :0.71788: L2-Pf-HR :0.95828: L2-HR :0.85851: (Sim:0h24m26s) 
CPU  0 inst:  303000003 cyc:  419531995 now IPC :1.52557: AVG IPC :0.71914: L2-Pf-HR :0.95844: L2-HR :0.85880: (Sim:0h24m30s) 
CPU  0 inst:  304000000 cyc:  420105991 now IPC :1.74217: AVG IPC :0.72054: L2-Pf-HR :0.95866: L2-HR :0.85931: (Sim:0h24m34s) 
CPU  0 inst:  305000001 cyc:  420840740 now IPC :1.36101: AVG IPC :0.72167: L2-Pf-HR :0.95872: L2-HR :0.85938: (Sim:0h24m38s) 
CPU  0 inst:  306000001 cyc:  421467572 now IPC :1.59532: AVG IPC :0.72297: L2-Pf-HR :0.95890: L2-HR :0.85979: (Sim:0h24m42s) 
CPU  0 inst:  307000001 cyc:  422114107 now IPC :1.54671: AVG IPC :0.72423: L2-Pf-HR :0.95894: L2-HR :0.85987: (Sim:0h24m47s) 
CPU  0 inst:  308000000 cyc:  422710803 now IPC :1.67589: AVG IPC :0.72558: L2-Pf-HR :0.95911: L2-HR :0.86026: (Sim:0h24m51s) 
CPU  0 inst:  309000000 cyc:  423316935 now IPC :1.64981: AVG IPC :0.72690: L2-Pf-HR :0.95926: L2-HR :0.86055: (Sim:0h24m55s) 
CPU  0 inst:  310000002 cyc:  424064717 now IPC :1.33729: AVG IPC :0.72798: L2-Pf-HR :0.95935: L2-HR :0.86068: (Sim:0h24m59s) 
CPU  0 inst:  311000001 cyc:  424636103 now IPC :1.75013: AVG IPC :0.72936: L2-Pf-HR :0.95950: L2-HR :0.86104: (Sim:0h25m3s) 
CPU  0 inst:  312000000 cyc:  425355176 now IPC :1.39068: AVG IPC :0.73048: L2-Pf-HR :0.95958: L2-HR :0.86119: (Sim:0h25m7s) 
CPU  0 inst:  313000003 cyc:  425908035 now IPC :1.80878: AVG IPC :0.73189: L2-Pf-HR :0.95969: L2-HR :0.86148: (Sim:0h25m11s) 
CPU  0 inst:  314000000 cyc:  426567866 now IPC :1.51553: AVG IPC :0.73310: L2-Pf-HR :0.95984: L2-HR :0.86176: (Sim:0h25m15s) 
CPU  0 inst:  315000000 cyc:  427144258 now IPC :1.73493: AVG IPC :0.73446: L2-Pf-HR :0.96004: L2-HR :0.86222: (Sim:0h25m19s) 
CPU  0 inst:  316000000 cyc:  427871334 now IPC :1.37537: AVG IPC :0.73555: L2-Pf-HR :0.96010: L2-HR :0.86230: (Sim:0h25m23s) 
CPU  0 inst:  317000003 cyc:  428497187 now IPC :1.59782: AVG IPC :0.73681: L2-Pf-HR :0.96027: L2-HR :0.86270: (Sim:0h25m27s) 
CPU  0 inst:  318000000 cyc:  429143961 now IPC :1.54613: AVG IPC :0.73803: L2-Pf-HR :0.96032: L2-HR :0.86279: (Sim:0h25m31s) 
CPU  0 inst:  319000000 cyc:  429738182 now IPC :1.68288: AVG IPC :0.73934: L2-Pf-HR :0.96049: L2-HR :0.86319: (Sim:0h25m35s) 
CPU  0 inst:  320000000 cyc:  430347473 now IPC :1.64125: AVG IPC :0.74062: L2-Pf-HR :0.96063: L2-HR :0.86346: (Sim:0h25m39s) 
CPU  0 inst:  321000002 cyc:  431098176 now IPC :1.33209: AVG IPC :0.74165: L2-Pf-HR :0.96072: L2-HR :0.86359: (Sim:0h25m44s) 
CPU  0 inst:  322000003 cyc:  431673981 now IPC :1.73670: AVG IPC :0.74298: L2-Pf-HR :0.96083: L2-HR :0.86389: (Sim:0h25m47s) 
CPU  0 inst:  323000001 cyc:  432395668 now IPC :1.38564: AVG IPC :0.74406: L2-Pf-HR :0.96093: L2-HR :0.86405: (Sim:0h25m52s) 
CPU  0 inst:  324000000 cyc:  432948206 now IPC :1.80983: AVG IPC :0.74542: L2-Pf-HR :0.96103: L2-HR :0.86432: (Sim:0h25m56s) 
CPU  0 inst:  325000003 cyc:  433603698 now IPC :1.52558: AVG IPC :0.74660: L2-Pf-HR :0.96117: L2-HR :0.86459: (Sim:0h26m0s) 
CPU  0 inst:  326000000 cyc:  434179578 now IPC :1.73647: AVG IPC :0.74792: L2-Pf-HR :0.96134: L2-HR :0.86500: (Sim:0h26m4s) 
CPU  0 inst:  327000000 cyc:  434920824 now IPC :1.34908: AVG IPC :0.74895: L2-Pf-HR :0.96137: L2-HR :0.86503: (Sim:0h26m8s) 
CPU  0 inst:  328000000 cyc:  435547394 now IPC :1.59599: AVG IPC :0.75017: L2-Pf-HR :0.96152: L2-HR :0.86539: (Sim:0h26m12s) 
CPU  0 inst:  329000003 cyc:  436198528 now IPC :1.53579: AVG IPC :0.75134: L2-Pf-HR :0.96156: L2-HR :0.86545: (Sim:0h26m16s) 
CPU  0 inst:  330000000 cyc:  436793591 now IPC :1.68049: AVG IPC :0.75261: L2-Pf-HR :0.96169: L2-HR :0.86580: (Sim:0h26m21s) 
CPU  0 inst:  331000000 cyc:  437394368 now IPC :1.66451: AVG IPC :0.75387: L2-Pf-HR :0.96181: L2-HR :0.86604: (Sim:0h26m25s) 
CPU  0 inst:  332000000 cyc:  438147937 now IPC :1.32702: AVG IPC :0.75486: L2-Pf-HR :0.96191: L2-HR :0.86618: (Sim:0h26m29s) 
CPU  0 inst:  333000003 cyc:  438726212 now IPC :1.72929: AVG IPC :0.75614: L2-Pf-HR :0.96201: L2-HR :0.86645: (Sim:0h26m33s) 
CPU  0 inst:  334000002 cyc:  439419033 now IPC :1.44337: AVG IPC :0.75723: L2-Pf-HR :0.96212: L2-HR :0.86667: (Sim:0h26m37s) 
CPU  0 inst:  335000002 cyc:  439993380 now IPC :1.74111: AVG IPC :0.75852: L2-Pf-HR :0.96218: L2-HR :0.86684: (Sim:0h26m41s) 
CPU  0 inst:  336000000 cyc:  440599718 now IPC :1.64924: AVG IPC :0.75974: L2-Pf-HR :0.96232: L2-HR :0.86720: (Sim:0h26m44s) 
CPU  0 inst:  337000000 cyc:  441195554 now IPC :1.67831: AVG IPC :0.76099: L2-Pf-HR :0.96245: L2-HR :0.86747: (Sim:0h26m46s) 
CPU  0 inst:  338000003 cyc:  441945470 now IPC :1.33349: AVG IPC :0.76196: L2-Pf-HR :0.96247: L2-HR :0.86748: (Sim:0h26m49s) 
CPU  0 inst:  339000001 cyc:  442572633 now IPC :1.59448: AVG IPC :0.76314: L2-Pf-HR :0.96259: L2-HR :0.86779: (Sim:0h26m52s) 
CPU  0 inst:  340000000 cyc:  443220092 now IPC :1.54450: AVG IPC :0.76429: L2-Pf-HR :0.96263: L2-HR :0.86784: (Sim:0h26m55s) 
CPU  0 inst:  341000001 cyc:  443788838 now IPC :1.75826: AVG IPC :0.76556: L2-Pf-HR :0.96277: L2-HR :0.86821: (Sim:0h26m57s) 
CPU  0 inst:  342000001 cyc:  444414721 now IPC :1.59774: AVG IPC :0.76674: L2-Pf-HR :0.96287: L2-HR :0.86838: (Sim:0h27m0s) 
CPU  0 inst:  343000002 cyc:  445102860 now IPC :1.45320: AVG IPC :0.76780: L2-Pf-HR :0.96299: L2-HR :0.86864: (Sim:0h27m3s) 
CPU  0 inst:  344000000 cyc:  445736470 now IPC :1.57825: AVG IPC :0.76896: L2-Pf-HR :0.96304: L2-HR :0.86876: (Sim:0h27m6s) 
CPU  0 inst:  345000002 cyc:  446373881 now IPC :1.56885: AVG IPC :0.77010: L2-Pf-HR :0.96318: L2-HR :0.86910: (Sim:0h27m10s) 
CPU  0 inst:  346000002 cyc:  447009410 now IPC :1.57349: AVG IPC :0.77125: L2-Pf-HR :0.96319: L2-HR :0.86911: (Sim:0h27m14s) 
CPU  0 inst:  347000001 cyc:  447597376 now IPC :1.70078: AVG IPC :0.77247: L2-Pf-HR :0.96332: L2-HR :0.86942: (Sim:0h27m18s) 
CPU  0 inst:  348000000 cyc:  448205597 now IPC :1.64414: AVG IPC :0.77366: L2-Pf-HR :0.96342: L2-HR :0.86963: (Sim:0h27m22s) 
CPU  0 inst:  349000003 cyc:  448970920 now IPC :1.30664: AVG IPC :0.77457: L2-Pf-HR :0.96345: L2-HR :0.86967: (Sim:0h27m27s) 
CPU  0 inst:  350000002 cyc:  449555054 now IPC :1.71193: AVG IPC :0.77579: L2-Pf-HR :0.96358: L2-HR :0.87001: (Sim:0h27m31s) 
CPU  0 inst:  351000000 cyc:  450251721 now IPC :1.43540: AVG IPC :0.77681: L2-Pf-HR :0.96360: L2-HR :0.87000: (Sim:0h27m35s) 
CPU  0 inst:  352000000 cyc:  450815458 now IPC :1.77388: AVG IPC :0.77806: L2-Pf-HR :0.96371: L2-HR :0.87030: (Sim:0h27m39s) 
CPU  0 inst:  353000001 cyc:  451456768 now IPC :1.55931: AVG IPC :0.77917: L2-Pf-HR :0.96380: L2-HR :0.87047: (Sim:0h27m43s) 
CPU  0 inst:  354000000 cyc:  452033333 now IPC :1.73441: AVG IPC :0.78039: L2-Pf-HR :0.96395: L2-HR :0.87084: (Sim:0h27m47s) 
CPU  0 inst:  355000000 cyc:  452778213 now IPC :1.34250: AVG IPC :0.78132: L2-Pf-HR :0.96397: L2-HR :0.87084: (Sim:0h27m51s) 
CPU  0 inst:  356000000 cyc:  453400485 now IPC :1.60701: AVG IPC :0.78246: L2-Pf-HR :0.96409: L2-HR :0.87114: (Sim:0h27m55s) 
CPU  0 inst:  357000000 cyc:  454054538 now IPC :1.52893: AVG IPC :0.78353: L2-Pf-HR :0.96411: L2-HR :0.87117: (Sim:0h28m0s) 
CPU  0 inst:  358000002 cyc:  454651289 now IPC :1.67574: AVG IPC :0.78471: L2-Pf-HR :0.96423: L2-HR :0.87145: (Sim:0h28m4s) 
CPU  0 inst:  359000002 cyc:  455261804 now IPC :1.63796: AVG IPC :0.78585: L2-Pf-HR :0.96433: L2-HR :0.87165: (Sim:0h28m8s) 
CPU  0 inst:  360000000 cyc:  456022483 now IPC :1.31461: AVG IPC :0.78674: L2-Pf-HR :0.96437: L2-HR :0.87171: (Sim:0h28m12s) 
CPU  0 inst:  361000000 cyc:  456602780 now IPC :1.72326: AVG IPC :0.78793: L2-Pf-HR :0.96448: L2-HR :0.87201: (Sim:0h28m16s) 
CPU  0 inst:  362000003 cyc:  457313097 now IPC :1.40783: AVG IPC :0.78889: L2-Pf-HR :0.96453: L2-HR :0.87205: (Sim:0h28m20s) 
CPU  0 inst:  363000003 cyc:  457867637 now IPC :1.80330: AVG IPC :0.79013: L2-Pf-HR :0.96462: L2-HR :0.87231: (Sim:0h28m24s) 
CPU  0 inst:  364000000 cyc:  458524191 now IPC :1.52310: AVG IPC :0.79118: L2-Pf-HR :0.96471: L2-HR :0.87247: (Sim:0h28m28s) 
CPU  0 inst:  365000003 cyc:  459101496 now IPC :1.73219: AVG IPC :0.79236: L2-Pf-HR :0.96484: L2-HR :0.87282: (Sim:0h28m32s) 
CPU  0 inst:  366000000 cyc:  459838837 now IPC :1.35622: AVG IPC :0.79327: L2-Pf-HR :0.96487: L2-HR :0.87285: (Sim:0h28m37s) 
CPU  0 inst:  367000000 cyc:  460468275 now IPC :1.58872: AVG IPC :0.79436: L2-Pf-HR :0.96498: L2-HR :0.87311: (Sim:0h28m41s) 
CPU  0 inst:  368000000 cyc:  461126065 now IPC :1.52024: AVG IPC :0.79540: L2-Pf-HR :0.96499: L2-HR :0.87312: (Sim:0h28m45s) 
CPU  0 inst:  369000001 cyc:  461724319 now IPC :1.67153: AVG IPC :0.79653: L2-Pf-HR :0.96509: L2-HR :0.87338: (Sim:0h28m49s) 
CPU  0 inst:  370000003 cyc:  462336747 now IPC :1.63285: AVG IPC :0.79764: L2-Pf-HR :0.96518: L2-HR :0.87356: (Sim:0h28m53s) 
CPU  0 inst:  371000002 cyc:  463086221 now IPC :1.33427: AVG IPC :0.79851: L2-Pf-HR :0.96520: L2-HR :0.87361: (Sim:0h28m58s) 
CPU  0 inst:  372000000 cyc:  463660783 now IPC :1.74045: AVG IPC :0.79968: L2-Pf-HR :0.96530: L2-HR :0.87386: (Sim:0h29m2s) 
CPU  0 inst:  373000003 cyc:  464376873 now IPC :1.39648: AVG IPC :0.80061: L2-Pf-HR :0.96534: L2-HR :0.87391: (Sim:0h29m5s) 
CPU  0 inst:  374000002 cyc:  464928906 now IPC :1.81148: AVG IPC :0.80181: L2-Pf-HR :0.96541: L2-HR :0.87413: (Sim:0h29m8s) 
CPU  0 inst:  375000001 cyc:  465589986 now IPC :1.51267: AVG IPC :0.80282: L2-Pf-HR :0.96549: L2-HR :0.87429: (Sim:0h29m11s) 
CPU  0 inst:  376000000 cyc:  466166675 now IPC :1.73404: AVG IPC :0.80398: L2-Pf-HR :0.96561: L2-HR :0.87459: (Sim:0h29m13s) 
CPU  0 inst:  377000000 cyc:  466891827 now IPC :1.37902: AVG IPC :0.80487: L2-Pf-HR :0.96562: L2-HR :0.87460: (Sim:0h29m17s) 
CPU  0 inst:  378000003 cyc:  467517449 now IPC :1.59841: AVG IPC :0.80593: L2-Pf-HR :0.96572: L2-HR :0.87486: (Sim:0h29m21s) 
CPU  0 inst:  379000003 cyc:  468164109 now IPC :1.54641: AVG IPC :0.80696: L2-Pf-HR :0.96574: L2-HR :0.87488: (Sim:0h29m25s) 
CPU  0 inst:  380000000 cyc:  468755432 now IPC :1.69112: AVG IPC :0.80808: L2-Pf-HR :0.96583: L2-HR :0.87513: (Sim:0h29m29s) 
CPU  0 inst:  381000002 cyc:  469361039 now IPC :1.65124: AVG IPC :0.80917: L2-Pf-HR :0.96591: L2-HR :0.87529: (Sim:0h29m34s) 
CPU  0 inst:  382000003 cyc:  470111999 now IPC :1.33163: AVG IPC :0.81000: L2-Pf-HR :0.96595: L2-HR :0.87535: (Sim:0h29m38s) 
CPU  0 inst:  383000003 cyc:  470689130 now IPC :1.73271: AVG IPC :0.81114: L2-Pf-HR :0.96602: L2-HR :0.87555: (Sim:0h29m42s) 
CPU  0 inst:  384000000 cyc:  471403938 now IPC :1.39897: AVG IPC :0.81203: L2-Pf-HR :0.96607: L2-HR :0.87563: (Sim:0h29m46s) 
CPU  0 inst:  385000002 cyc:  471957812 now IPC :1.80547: AVG IPC :0.81320: L2-Pf-HR :0.96613: L2-HR :0.87582: (Sim:0h29m50s) 
CPU  0 inst:  386000002 cyc:  472616967 now IPC :1.51709: AVG IPC :0.81418: L2-Pf-HR :0.96621: L2-HR :0.87598: (Sim:0h29m54s) 
CPU  0 inst:  387000001 cyc:  473192557 now IPC :1.73735: AVG IPC :0.81531: L2-Pf-HR :0.96633: L2-HR :0.87628: (Sim:0h29m58s) 
CPU  0 inst:  388000000 cyc:  473918048 now IPC :1.37838: AVG IPC :0.81617: L2-Pf-HR :0.96634: L2-HR :0.87628: (Sim:0h30m3s) 
CPU  0 inst:  389000001 cyc:  474544522 now IPC :1.59624: AVG IPC :0.81720: L2-Pf-HR :0.96643: L2-HR :0.87652: (Sim:0h30m7s) 
CPU  0 inst:  390000003 cyc:  475195077 now IPC :1.53715: AVG IPC :0.81819: L2-Pf-HR :0.96646: L2-HR :0.87654: (Sim:0h30m11s) 
CPU  0 inst:  391000002 cyc:  475790217 now IPC :1.68028: AVG IPC :0.81927: L2-Pf-HR :0.96655: L2-HR :0.87679: (Sim:0h30m15s) 
CPU  0 inst:  392000000 cyc:  476396503 now IPC :1.64938: AVG IPC :0.82033: L2-Pf-HR :0.96662: L2-HR :0.87695: (Sim:0h30m19s) 
CPU  0 inst:  393000000 cyc:  477140893 now IPC :1.34338: AVG IPC :0.82115: L2-Pf-HR :0.96667: L2-HR :0.87702: (Sim:0h30m23s) 
CPU  0 inst:  394000001 cyc:  477719648 now IPC :1.72785: AVG IPC :0.82225: L2-Pf-HR :0.96673: L2-HR :0.87719: (Sim:0h30m27s) 
CPU  0 inst:  395000003 cyc:  478432930 now IPC :1.40197: AVG IPC :0.82311: L2-Pf-HR :0.96679: L2-HR :0.87728: (Sim:0h30m31s) 
CPU  0 inst:  396000000 cyc:  478986434 now IPC :1.80667: AVG IPC :0.82425: L2-Pf-HR :0.96684: L2-HR :0.87744: (Sim:0h30m35s) 
CPU  0 inst:  397000003 cyc:  479613329 now IPC :1.59517: AVG IPC :0.82526: L2-Pf-HR :0.96693: L2-HR :0.87766: (Sim:0h30m39s) 
CPU  0 inst:  398000002 cyc:  480193708 now IPC :1.72301: AVG IPC :0.82635: L2-Pf-HR :0.96703: L2-HR :0.87789: (Sim:0h30m43s) 
CPU  0 inst:  399000001 cyc:  480941409 now IPC :1.33743: AVG IPC :0.82715: L2-Pf-HR :0.96702: L2-HR :0.87787: (Sim:0h30m48s) 
CPU  0 inst:  400000000 cyc:  481569522 now IPC :1.59207: AVG IPC :0.82815: L2-Pf-HR :0.96711: L2-HR :0.87809: (Sim:0h30m52s) 
CPU  0 inst:  401000002 cyc:  482224016 now IPC :1.52790: AVG IPC :0.82910: L2-Pf-HR :0.96712: L2-HR :0.87810: (Sim:0h30m56s) 
CPU  0 inst:  402000002 cyc:  482814667 now IPC :1.69305: AVG IPC :0.83016: L2-Pf-HR :0.96720: L2-HR :0.87834: (Sim:0h31m0s) 
CPU  0 inst:  403000000 cyc:  483429989 now IPC :1.62516: AVG IPC :0.83117: L2-Pf-HR :0.96727: L2-HR :0.87847: (Sim:0h31m4s) 
CPU  0 inst:  404000000 cyc:  484151590 now IPC :1.38581: AVG IPC :0.83200: L2-Pf-HR :0.96733: L2-HR :0.87858: (Sim:0h31m8s) 
CPU  0 inst:  405000001 cyc:  484751410 now IPC :1.66717: AVG IPC :0.83304: L2-Pf-HR :0.96737: L2-HR :0.87870: (Sim:0h31m12s) 
CPU  0 inst:  406000000 cyc:  485416471 now IPC :1.50362: AVG IPC :0.83396: L2-Pf-HR :0.96746: L2-HR :0.87892: (Sim:0h31m17s) 
Finished CPU 0 instr: 404000003 cyc: 484438095 AVG IPC: 0.83396 (Sim time: 0h31m17s)

ChampSim completed all CPUs

[ROI Statistics]
Core_0_instructions 404000003
Core_0_cycles 484438095
Core_0_IPC 0.83396

Core_0_branch_prediction_accuracy 98.90148
Core_0_branch_MPKI 0.32729
Core_0_average_ROB_occupancy_at_mispredict 248.07921

Core_0_L1D_total_access 104826193
Core_0_L1D_total_hit 96189373 L1D_total_Hit Ratio: 0.91761
Core_0_L1D_total_miss 8636820
Core_0_L1D_loads 93624318
Core_0_L1D_load_hit 85597996 L1D_load_Hit Ratio: 0.91427
Core_0_L1D_load_miss 8026322
Core_0_L1D_RFOs 11201875
Core_0_L1D_RFO_hit 10591377 L1D_RFO_Hit Ratio: 0.94550
Core_0_L1D_RFO_miss 610498
Core_0_L1D_prefetches 0
Core_0_L1D_prefetch_hit 0 L1D_prefetch_Hit Ratio: -nan
Core_0_L1D_prefetch_miss 0
Core_0_L1D_writebacks 0
Core_0_L1D_writeback_hit 0 L1D_writeback_Hit Ratio: -nan
Core_0_L1D_writeback_miss 0
Core_0_L1D_prefetch_requested 0
Core_0_L1D_prefetch_issued 0
Core_0_L1D_prefetch_useful 0 L1D_Useful Ratio: -nan
Core_0_L1D_prefetch_useless 0
Core_0_L1D_prefetch_late 0
Core_0_L1D_average_miss_latency 76.57495

Core_0_L1I_total_access 97381674
Core_0_L1I_total_hit 97376799 L1I_total_Hit Ratio: 0.99995
Core_0_L1I_total_miss 4875
Core_0_L1I_loads 97381674
Core_0_L1I_load_hit 97376799 L1I_load_Hit Ratio: 0.99995
Core_0_L1I_load_miss 4875
Core_0_L1I_RFOs 0
Core_0_L1I_RFO_hit 0 L1I_RFO_Hit Ratio: -nan
Core_0_L1I_RFO_miss 0
Core_0_L1I_prefetches 0
Core_0_L1I_prefetch_hit 0 L1I_prefetch_Hit Ratio: -nan
Core_0_L1I_prefetch_miss 0
Core_0_L1I_writebacks 0
Core_0_L1I_writeback_hit 0 L1I_writeback_Hit Ratio: -nan
Core_0_L1I_writeback_miss 0
Core_0_L1I_prefetch_requested 0
Core_0_L1I_prefetch_issued 0
Core_0_L1I_prefetch_useful 0 L1I_Useful Ratio: -nan
Core_0_L1I_prefetch_useless 0
Core_0_L1I_prefetch_late 0
Core_0_L1I_average_miss_latency 314.63282

Core_0_L2C_total_access 34924221
Core_0_L2C_total_hit 30695668 L2C_total_Hit Ratio: 0.87892
Core_0_L2C_total_miss 4228553
Core_0_L2C_loads 8031130
Core_0_L2C_load_hit 5119491 L2C_load_Hit Ratio: 0.63746
Core_0_L2C_load_miss 2911639
Core_0_L2C_RFOs 610498
Core_0_L2C_RFO_hit 71058 L2C_RFO_Hit Ratio: 0.11639
Core_0_L2C_RFO_miss 539440
Core_0_L2C_prefetches 23428846
Core_0_L2C_prefetch_hit 22666490 L2C_prefetch_Hit Ratio: 0.96746
Core_0_L2C_prefetch_miss 762356
Core_0_L2C_writebacks 2853747
Core_0_L2C_writeback_hit 2838629 L2C_writeback_Hit Ratio: 0.99470
Core_0_L2C_writeback_miss 15118
Core_0_L2C_prefetch_requested 49474610
Core_0_L2C_prefetch_issued 46678391
Core_0_L2C_prefetch_useful 713749 L2C_Useful Ratio: 0.01529
Core_0_L2C_prefetch_useless 51911
Core_0_L2C_prefetch_late 350562
Core_0_L2C_average_miss_latency 137.20672

Core_0_LLC_total_access 15449721
Core_0_LLC_total_hit 12491566 LLC_total_Hit Ratio: 0.80853
Core_0_LLC_total_miss 2958155
Core_0_LLC_loads 2561089
Core_0_LLC_load_hit 1796795 LLC_load_Hit Ratio: 0.70157
Core_0_LLC_load_miss 764294
Core_0_LLC_RFOs 539440
Core_0_LLC_RFO_hit 14527 LLC_RFO_Hit Ratio: 0.02693
Core_0_LLC_RFO_miss 524913
Core_0_LLC_prefetches 9942971
Core_0_LLC_prefetch_hit 8278355 LLC_prefetch_Hit Ratio: 0.83258
Core_0_LLC_prefetch_miss 1664616
Core_0_LLC_writebacks 2406221
Core_0_LLC_writeback_hit 2401889 LLC_writeback_Hit Ratio: 0.99820
Core_0_LLC_writeback_miss 4332
Core_0_LLC_prefetch_requested 0
Core_0_LLC_prefetch_issued 0
Core_0_LLC_prefetch_useful 1014859 LLC_Useful Ratio: inf
Core_0_LLC_prefetch_useless 654810
Core_0_LLC_prefetch_late 322083
Core_0_LLC_average_miss_latency 294.18268

Core_0_major_page_fault 0
Core_0_minor_page_fault 22520

 All Calls: 8073127
 Critical Calls: 8073127
------------------
Depth Distribution
------------------
depth 0: 0
depth 1: 7080263
depth 2: 6823683
depth 3: 6507769
depth 4: 6234767
depth 5: 5627134
depth 6: 4399848
depth 7: 3213162
depth 8: 2393760
depth 9: 1752290
depth 10: 1189280
depth 11: 738508
depth 12: 421039
depth 13: 196840
depth 14: 50610
depth 15: 49330
depth 16: 108
depth 17: 0
depth 18: 0
depth 19: 0
depth 20: 0
depth 21: 0
depth 22: 0
depth 23: 0
depth 24: 0
depth 25: 0
depth 26: 0
depth 27: 0
depth 28: 0
depth 29: 0
Total: 46678391
-----------------------------
-----------------------------
	Captured at Filter
-----------------------------
depth 0: 0
depth 1: 470192
depth 2: 466796
depth 3: 492331
depth 4: 410206
depth 5: 384151
depth 6: 315156
depth 7: 207335
depth 8: 131172
depth 9: 77219
depth 10: 36543
depth 11: 15961
depth 12: 6154
depth 13: 1317
depth 14: 197
depth 15: 228
depth 16: 3
depth 17: 0
depth 18: 0
depth 19: 0
depth 20: 0
depth 21: 0
depth 22: 0
depth 23: 0
depth 24: 0
depth 25: 0
depth 26: 0
depth 27: 0
depth 28: 0
depth 29: 0
-----------------------------
-----------------------------
		Lost at Page
-----------------------------
depth 0: 0
depth 1: 187088
depth 2: 285176
depth 3: 390220
depth 4: 464982
depth 5: 548029
depth 6: 572985
depth 7: 520963
depth 8: 450653
depth 9: 372772
depth 10: 274487
depth 11: 182357
depth 12: 110626
depth 13: 52646
depth 14: 14204
depth 15: 15211
depth 16: 5
depth 17: 0
depth 18: 0
depth 19: 0
depth 20: 0
depth 21: 0
depth 22: 0
depth 23: 0
depth 24: 0
depth 25: 0
depth 26: 0
depth 27: 0
depth 28: 0
depth 29: 0
-----------------------------
-----------------------------
	Lost due to PQ Size
-----------------------------
2796219
-----------------------------
ST read accesses: 7962236
ST write accesses: 68894
PT read accesses: 324690671
PT write accesses: 11913283
FILTER read accesses: 64561667
FILTER write accesses: 13302782
GHR read accesses: 26528904
GHR write accesses: 4433176
GHR counter read accesses: 274431828
GHR counter write accesses: 17377764
ST tag read accesses: 3179379792
ST tag write accesses: 74121483
Channel_0_RQ_row_buffer_hit 1391756
Channel_0_RQ_row_buffer_miss 1561783
Channel_0_WQ_row_buffer_hit 498448
Channel_0_WQ_row_buffer_miss 1165907
Channel_0_WQ_full 0
Channel_0_dbus_congested 2403188

avg_congested_cycle 11

EzSearch AVG IPC :0.83396: L2-Pf-HR :0.96746 : L2-HR :0.87892 Uful:0.01529
     > Finished combination: TraceType=770-tot Sim:404000000 Prefetcher=L2spp_berti_src L1=no
