TRACE: [151000000]_FE_[OPT-6_7B]_[h32]_[s256]_[d128] Warmup: 2000000 NumTraces: 151000000
L1:isb_ideal:L2:isb_ideal
*************************************************
   ChampSim Multicore Out-of-Order Simulator
   Last compiled: Oct 26 2024 14:33:25
*************************************************

trace_0 770-tot_memTraces_v3/memTraces[151000000]_FE_[OPT-6_7B]_[h32]_[s256]_[d128].champsim.xz
L1D: Ideal ISB Prefetching
Ideal ISB Prefetching
MAIN.cc ln 751 stats print skipped
CPU  0 inst:    1000001 cyc:     505418 now IPC :1.97856: AVG IPC :1.97856: L2-Pf-HR :0.92528: L2-HR :0.83204: (Sim:0h0m5s) 
CPU  0 inst:    2000002 cyc:     983815 now IPC :2.09032: AVG IPC :2.03290: L2-Pf-HR :0.92654: L2-HR :0.86916: (Sim:0h0m9s) 

Warmup complete CPU  0 instructions:    2000002 cycles:     983815 (Simulation time: 0 hr 0 min 9 sec) 

CPU  0 inst:    3000000 cyc:    1754668 now IPC :1.29726: AVG IPC :1.29726: L2-Pf-HR :0.90613: L2-HR :0.87173: (Sim:0h0m14s) 
CPU  0 inst:    4000000 cyc:    2418210 now IPC :1.50706: AVG IPC :1.39431: L2-Pf-HR :0.91765: L2-HR :0.88746: (Sim:0h0m19s) 
CPU  0 inst:    5000000 cyc:    3173824 now IPC :1.32343: AVG IPC :1.36986: L2-Pf-HR :0.91570: L2-HR :0.88423: (Sim:0h0m24s) 
CPU  0 inst:    6000000 cyc:    3848139 now IPC :1.48299: AVG IPC :1.39649: L2-Pf-HR :0.91880: L2-HR :0.88835: (Sim:0h0m28s) 
CPU  0 inst:    7000000 cyc:    4614531 now IPC :1.30482: AVG IPC :1.37714: L2-Pf-HR :0.91619: L2-HR :0.88519: (Sim:0h0m33s) 
CPU  0 inst:    8000000 cyc:    5292452 now IPC :1.47510: AVG IPC :1.39255: L2-Pf-HR :0.91842: L2-HR :0.88825: (Sim:0h0m37s) 
CPU  0 inst:    9000001 cyc:    6107678 now IPC :1.22665: AVG IPC :1.36616: L2-Pf-HR :0.91736: L2-HR :0.88629: (Sim:0h0m42s) 
CPU  0 inst:   10000000 cyc:    6798574 now IPC :1.44739: AVG IPC :1.37581: L2-Pf-HR :0.91955: L2-HR :0.88896: (Sim:0h0m47s) 
CPU  0 inst:   11000000 cyc:    7612156 now IPC :1.22913: AVG IPC :1.35781: L2-Pf-HR :0.91859: L2-HR :0.88753: (Sim:0h0m52s) 
CPU  0 inst:   12000000 cyc:    8314472 now IPC :1.42386: AVG IPC :1.36413: L2-Pf-HR :0.91991: L2-HR :0.88913: (Sim:0h0m56s) 
CPU  0 inst:   13000003 cyc:    9125703 now IPC :1.23270: AVG IPC :1.35104: L2-Pf-HR :0.91902: L2-HR :0.88793: (Sim:0h1m1s) 
CPU  0 inst:   14000001 cyc:    9813203 now IPC :1.45454: AVG IPC :1.35910: L2-Pf-HR :0.92012: L2-HR :0.88939: (Sim:0h1m6s) 
CPU  0 inst:   15000002 cyc:   10639999 now IPC :1.20949: AVG IPC :1.34629: L2-Pf-HR :0.91941: L2-HR :0.88825: (Sim:0h1m11s) 
CPU  0 inst:   16000000 cyc:   11328672 now IPC :1.45207: AVG IPC :1.35333: L2-Pf-HR :0.92017: L2-HR :0.88936: (Sim:0h1m15s) 
CPU  0 inst:   17000002 cyc:   12142278 now IPC :1.22910: AVG IPC :1.34427: L2-Pf-HR :0.91963: L2-HR :0.88856: (Sim:0h1m20s) 
CPU  0 inst:   18000003 cyc:   12844390 now IPC :1.42428: AVG IPC :1.34901: L2-Pf-HR :0.92033: L2-HR :0.88943: (Sim:0h1m25s) 
CPU  0 inst:   19000000 cyc:   13660124 now IPC :1.22589: AVG IPC :1.34108: L2-Pf-HR :0.91974: L2-HR :0.88865: (Sim:0h1m29s) 
CPU  0 inst:   20000000 cyc:   14362934 now IPC :1.42286: AVG IPC :1.34538: L2-Pf-HR :0.92019: L2-HR :0.88933: (Sim:0h1m32s) 
CPU  0 inst:   21000003 cyc:   15180253 now IPC :1.22352: AVG IPC :1.33836: L2-Pf-HR :0.91970: L2-HR :0.88864: (Sim:0h1m37s) 
CPU  0 inst:   22000001 cyc:   15869629 now IPC :1.45058: AVG IPC :1.34356: L2-Pf-HR :0.92034: L2-HR :0.88950: (Sim:0h1m40s) 
CPU  0 inst:   23000002 cyc:   16685338 now IPC :1.22593: AVG IPC :1.33745: L2-Pf-HR :0.91965: L2-HR :0.88867: (Sim:0h1m44s) 
CPU  0 inst:   24000000 cyc:   17381696 now IPC :1.43604: AVG IPC :1.34164: L2-Pf-HR :0.92026: L2-HR :0.88947: (Sim:0h1m47s) 
CPU  0 inst:   25000001 cyc:   18193495 now IPC :1.23183: AVG IPC :1.33646: L2-Pf-HR :0.91976: L2-HR :0.88884: (Sim:0h1m50s) 
CPU  0 inst:   26000002 cyc:   18896178 now IPC :1.42312: AVG IPC :1.33986: L2-Pf-HR :0.92015: L2-HR :0.88940: (Sim:0h1m53s) 
CPU  0 inst:   27000000 cyc:   19704154 now IPC :1.23766: AVG IPC :1.33545: L2-Pf-HR :0.91985: L2-HR :0.88896: (Sim:0h1m56s) 
CPU  0 inst:   28000000 cyc:   20398741 now IPC :1.43970: AVG IPC :1.33918: L2-Pf-HR :0.92007: L2-HR :0.88942: (Sim:0h1m59s) 
CPU  0 inst:   29000002 cyc:   21215480 now IPC :1.22438: AVG IPC :1.33454: L2-Pf-HR :0.91994: L2-HR :0.88907: (Sim:0h2m2s) 
CPU  0 inst:   30000001 cyc:   21912614 now IPC :1.43444: AVG IPC :1.33787: L2-Pf-HR :0.92005: L2-HR :0.88941: (Sim:0h2m5s) 
CPU  0 inst:   31000002 cyc:   22618436 now IPC :1.41679: AVG IPC :1.34044: L2-Pf-HR :0.92045: L2-HR :0.89003: (Sim:0h2m8s) 
CPU  0 inst:   32000000 cyc:   23429110 now IPC :1.23354: AVG IPC :1.33658: L2-Pf-HR :0.91990: L2-HR :0.88928: (Sim:0h2m12s) 
CPU  0 inst:   33000002 cyc:   24125472 now IPC :1.43604: AVG IPC :1.33958: L2-Pf-HR :0.92037: L2-HR :0.88991: (Sim:0h2m15s) 
CPU  0 inst:   34000002 cyc:   24936337 now IPC :1.23325: AVG IPC :1.33598: L2-Pf-HR :0.91997: L2-HR :0.88935: (Sim:0h2m18s) 
CPU  0 inst:   35000003 cyc:   25636491 now IPC :1.42826: AVG IPC :1.33860: L2-Pf-HR :0.92037: L2-HR :0.88983: (Sim:0h2m21s) 
CPU  0 inst:   36000000 cyc:   26456448 now IPC :1.21957: AVG IPC :1.33477: L2-Pf-HR :0.92010: L2-HR :0.88943: (Sim:0h2m25s) 
CPU  0 inst:   37000002 cyc:   27147793 now IPC :1.44646: AVG IPC :1.33772: L2-Pf-HR :0.92034: L2-HR :0.88983: (Sim:0h2m28s) 
CPU  0 inst:   38000000 cyc:   27972436 now IPC :1.21264: AVG IPC :1.33390: L2-Pf-HR :0.92004: L2-HR :0.88938: (Sim:0h2m32s) 
CPU  0 inst:   39000001 cyc:   28662471 now IPC :1.44920: AVG IPC :1.33677: L2-Pf-HR :0.92030: L2-HR :0.88977: (Sim:0h2m37s) 
CPU  0 inst:   40000000 cyc:   29475014 now IPC :1.23070: AVG IPC :1.33375: L2-Pf-HR :0.92001: L2-HR :0.88940: (Sim:0h2m42s) 
CPU  0 inst:   41000003 cyc:   30176203 now IPC :1.42615: AVG IPC :1.33596: L2-Pf-HR :0.92027: L2-HR :0.88973: (Sim:0h2m46s) 
CPU  0 inst:   42000002 cyc:   30988467 now IPC :1.23113: AVG IPC :1.33313: L2-Pf-HR :0.92006: L2-HR :0.88942: (Sim:0h2m51s) 
CPU  0 inst:   43000003 cyc:   31680979 now IPC :1.44402: AVG IPC :1.33563: L2-Pf-HR :0.92030: L2-HR :0.88978: (Sim:0h2m56s) 
CPU  0 inst:   44000000 cyc:   32505802 now IPC :1.21238: AVG IPC :1.33240: L2-Pf-HR :0.92007: L2-HR :0.88942: (Sim:0h3m1s) 
CPU  0 inst:   45000001 cyc:   33197252 now IPC :1.44624: AVG IPC :1.33485: L2-Pf-HR :0.92027: L2-HR :0.88974: (Sim:0h3m5s) 
CPU  0 inst:   46000000 cyc:   34010284 now IPC :1.22996: AVG IPC :1.33226: L2-Pf-HR :0.92007: L2-HR :0.88945: (Sim:0h3m10s) 
CPU  0 inst:   47000000 cyc:   34709858 now IPC :1.42944: AVG IPC :1.33428: L2-Pf-HR :0.92025: L2-HR :0.88971: (Sim:0h3m15s) 
CPU  0 inst:   48000000 cyc:   35524510 now IPC :1.22752: AVG IPC :1.33176: L2-Pf-HR :0.92001: L2-HR :0.88939: (Sim:0h3m20s) 
CPU  0 inst:   49000000 cyc:   36214967 now IPC :1.44832: AVG IPC :1.33405: L2-Pf-HR :0.92025: L2-HR :0.88972: (Sim:0h3m24s) 
CPU  0 inst:   50000002 cyc:   37037729 now IPC :1.21542: AVG IPC :1.33134: L2-Pf-HR :0.91993: L2-HR :0.88930: (Sim:0h3m29s) 
CPU  0 inst:   51000000 cyc:   37728118 now IPC :1.44846: AVG IPC :1.33354: L2-Pf-HR :0.92012: L2-HR :0.88958: (Sim:0h3m34s) 
CPU  0 inst:   52000000 cyc:   38541010 now IPC :1.23018: AVG IPC :1.33130: L2-Pf-HR :0.91996: L2-HR :0.88934: (Sim:0h3m39s) 
CPU  0 inst:   53000001 cyc:   39240227 now IPC :1.43017: AVG IPC :1.33311: L2-Pf-HR :0.92012: L2-HR :0.88956: (Sim:0h3m43s) 
CPU  0 inst:   54000000 cyc:   40052365 now IPC :1.23132: AVG IPC :1.33099: L2-Pf-HR :0.91997: L2-HR :0.88932: (Sim:0h3m48s) 
CPU  0 inst:   55000001 cyc:   40742205 now IPC :1.44961: AVG IPC :1.33305: L2-Pf-HR :0.92014: L2-HR :0.88959: (Sim:0h3m53s) 
CPU  0 inst:   56000000 cyc:   41565776 now IPC :1.21422: AVG IPC :1.33064: L2-Pf-HR :0.91998: L2-HR :0.88931: (Sim:0h3m58s) 
CPU  0 inst:   57000003 cyc:   42251992 now IPC :1.45727: AVG IPC :1.33275: L2-Pf-HR :0.92019: L2-HR :0.88960: (Sim:0h4m2s) 
CPU  0 inst:   58000002 cyc:   43065967 now IPC :1.22854: AVG IPC :1.33073: L2-Pf-HR :0.92001: L2-HR :0.88934: (Sim:0h4m7s) 
CPU  0 inst:   59000002 cyc:   43766246 now IPC :1.42800: AVG IPC :1.33232: L2-Pf-HR :0.92014: L2-HR :0.88953: (Sim:0h4m12s) 
CPU  0 inst:   60000000 cyc:   44578528 now IPC :1.23110: AVG IPC :1.33044: L2-Pf-HR :0.91998: L2-HR :0.88932: (Sim:0h4m17s) 
CPU  0 inst:   61000001 cyc:   45270681 now IPC :1.44477: AVG IPC :1.33222: L2-Pf-HR :0.92013: L2-HR :0.88954: (Sim:0h4m21s) 
CPU  0 inst:   62000003 cyc:   46088626 now IPC :1.22258: AVG IPC :1.33024: L2-Pf-HR :0.92006: L2-HR :0.88936: (Sim:0h4m27s) 
CPU  0 inst:   63000000 cyc:   46784584 now IPC :1.43686: AVG IPC :1.33186: L2-Pf-HR :0.92006: L2-HR :0.88946: (Sim:0h4m31s) 
CPU  0 inst:   64000000 cyc:   47557495 now IPC :1.29381: AVG IPC :1.33122: L2-Pf-HR :0.92012: L2-HR :0.88948: (Sim:0h4m36s) 
CPU  0 inst:   65000003 cyc:   48299084 now IPC :1.34846: AVG IPC :1.33149: L2-Pf-HR :0.92010: L2-HR :0.88946: (Sim:0h4m41s) 
CPU  0 inst:   66000000 cyc:   48997985 now IPC :1.43081: AVG IPC :1.33294: L2-Pf-HR :0.92026: L2-HR :0.88974: (Sim:0h4m45s) 
CPU  0 inst:   67000001 cyc:   54705734 now IPC :0.17520: AVG IPC :1.20993: L2-Pf-HR :0.92028: L2-HR :0.87798: (Sim:0h5m5s) 
CPU  0 inst:   68000000 cyc:   60186754 now IPC :0.18245: AVG IPC :1.11481: L2-Pf-HR :0.92028: L2-HR :0.87349: (Sim:0h5m18s) 
CPU  0 inst:   69000001 cyc:   65445288 now IPC :0.19017: AVG IPC :1.03938: L2-Pf-HR :0.92028: L2-HR :0.87165: (Sim:0h5m29s) 
CPU  0 inst:   70000001 cyc:   70487706 now IPC :0.19832: AVG IPC :0.97836: L2-Pf-HR :0.92028: L2-HR :0.86983: (Sim:0h5m40s) 
CPU  0 inst:   71000001 cyc:   75486916 now IPC :0.20003: AVG IPC :0.92614: L2-Pf-HR :0.92028: L2-HR :0.86802: (Sim:0h5m50s) 
CPU  0 inst:   72000000 cyc:   80442516 now IPC :0.20179: AVG IPC :0.88096: L2-Pf-HR :0.92028: L2-HR :0.86623: (Sim:0h6m1s) 
CPU  0 inst:   73000001 cyc:   85390804 now IPC :0.20209: AVG IPC :0.84116: L2-Pf-HR :0.92028: L2-HR :0.86444: (Sim:0h6m11s) 
CPU  0 inst:   74000001 cyc:   90426481 now IPC :0.19858: AVG IPC :0.80498: L2-Pf-HR :0.92028: L2-HR :0.86267: (Sim:0h6m22s) 
CPU  0 inst:   75000001 cyc:   95390560 now IPC :0.20145: AVG IPC :0.77325: L2-Pf-HR :0.92028: L2-HR :0.86091: (Sim:0h6m32s) 
CPU  0 inst:   76000000 cyc:  100313550 now IPC :0.20313: AVG IPC :0.74499: L2-Pf-HR :0.92028: L2-HR :0.85916: (Sim:0h6m42s) 
CPU  0 inst:   77000001 cyc:  105320023 now IPC :0.19974: AVG IPC :0.71883: L2-Pf-HR :0.92028: L2-HR :0.85742: (Sim:0h6m53s) 
CPU  0 inst:   78000001 cyc:  110337523 now IPC :0.19930: AVG IPC :0.69499: L2-Pf-HR :0.92028: L2-HR :0.85569: (Sim:0h7m3s) 
CPU  0 inst:   79000001 cyc:  115404829 now IPC :0.19734: AVG IPC :0.67295: L2-Pf-HR :0.92028: L2-HR :0.85397: (Sim:0h7m14s) 
CPU  0 inst:   80000000 cyc:  120384716 now IPC :0.20081: AVG IPC :0.65326: L2-Pf-HR :0.92028: L2-HR :0.85227: (Sim:0h7m24s) 
CPU  0 inst:   81000001 cyc:  125330004 now IPC :0.20221: AVG IPC :0.63532: L2-Pf-HR :0.92028: L2-HR :0.85058: (Sim:0h7m35s) 
CPU  0 inst:   82000001 cyc:  130390850 now IPC :0.19760: AVG IPC :0.61820: L2-Pf-HR :0.92028: L2-HR :0.84889: (Sim:0h7m45s) 
CPU  0 inst:   83000001 cyc:  135439307 now IPC :0.19808: AVG IPC :0.60243: L2-Pf-HR :0.92028: L2-HR :0.84722: (Sim:0h7m56s) 
CPU  0 inst:   84000000 cyc:  139682259 now IPC :0.23568: AVG IPC :0.59121: L2-Pf-HR :0.92011: L2-HR :0.84503: (Sim:0h8m6s) 
CPU  0 inst:   85000001 cyc:  140383026 now IPC :1.42701: AVG IPC :0.59541: L2-Pf-HR :0.91975: L2-HR :0.84560: (Sim:0h8m11s) 
CPU  0 inst:   86000002 cyc:  141292496 now IPC :1.09954: AVG IPC :0.59868: L2-Pf-HR :0.91879: L2-HR :0.84538: (Sim:0h8m17s) 
CPU  0 inst:   87000003 cyc:  141968221 now IPC :1.47989: AVG IPC :0.60290: L2-Pf-HR :0.91829: L2-HR :0.84576: (Sim:0h8m22s) 
CPU  0 inst:   88000000 cyc:  142835006 now IPC :1.15369: AVG IPC :0.60627: L2-Pf-HR :0.91736: L2-HR :0.84551: (Sim:0h8m28s) 
CPU  0 inst:   89000003 cyc:  143566528 now IPC :1.36702: AVG IPC :0.61017: L2-Pf-HR :0.91671: L2-HR :0.84555: (Sim:0h8m33s) 
CPU  0 inst:   90000002 cyc:  144250327 now IPC :1.46242: AVG IPC :0.61424: L2-Pf-HR :0.91618: L2-HR :0.84578: (Sim:0h8m38s) 
CPU  0 inst:   91000001 cyc:  145107221 now IPC :1.16700: AVG IPC :0.61753: L2-Pf-HR :0.91531: L2-HR :0.84527: (Sim:0h8m44s) 
CPU  0 inst:   92000000 cyc:  145753966 now IPC :1.54620: AVG IPC :0.62168: L2-Pf-HR :0.91490: L2-HR :0.84552: (Sim:0h8m49s) 
CPU  0 inst:   93000003 cyc:  146618586 now IPC :1.15658: AVG IPC :0.62485: L2-Pf-HR :0.91402: L2-HR :0.84504: (Sim:0h8m55s) 
CPU  0 inst:   94000001 cyc:  147261407 now IPC :1.55564: AVG IPC :0.62894: L2-Pf-HR :0.91372: L2-HR :0.84541: (Sim:0h9m0s) 
CPU  0 inst:   95000003 cyc:  148106747 now IPC :1.18296: AVG IPC :0.63212: L2-Pf-HR :0.91280: L2-HR :0.84497: (Sim:0h9m6s) 
CPU  0 inst:   96000000 cyc:  148776525 now IPC :1.49303: AVG IPC :0.63603: L2-Pf-HR :0.91250: L2-HR :0.84526: (Sim:0h9m11s) 
CPU  0 inst:   97000001 cyc:  149616501 now IPC :1.19051: AVG IPC :0.63916: L2-Pf-HR :0.91158: L2-HR :0.84474: (Sim:0h9m17s) 
CPU  0 inst:   98000002 cyc:  150265037 now IPC :1.54194: AVG IPC :0.64308: L2-Pf-HR :0.91127: L2-HR :0.84498: (Sim:0h9m22s) 
CPU  0 inst:   99000000 cyc:  151118707 now IPC :1.17141: AVG IPC :0.64609: L2-Pf-HR :0.91036: L2-HR :0.84445: (Sim:0h9m28s) 
CPU  0 inst:  100000000 cyc:  151763126 now IPC :1.55179: AVG IPC :0.64996: L2-Pf-HR :0.91008: L2-HR :0.84473: (Sim:0h9m33s) 
CPU  0 inst:  101000002 cyc:  152637271 now IPC :1.14398: AVG IPC :0.65280: L2-Pf-HR :0.90922: L2-HR :0.84427: (Sim:0h9m38s) 
CPU  0 inst:  102000001 cyc:  153258099 now IPC :1.61075: AVG IPC :0.65671: L2-Pf-HR :0.90906: L2-HR :0.84472: (Sim:0h9m43s) 
CPU  0 inst:  103000000 cyc:  154121834 now IPC :1.15776: AVG IPC :0.65954: L2-Pf-HR :0.90836: L2-HR :0.84447: (Sim:0h9m49s) 
CPU  0 inst:  104000000 cyc:  154758018 now IPC :1.57187: AVG IPC :0.66331: L2-Pf-HR :0.90822: L2-HR :0.84488: (Sim:0h9m54s) 
CPU  0 inst:  105000000 cyc:  155618667 now IPC :1.16191: AVG IPC :0.66609: L2-Pf-HR :0.90760: L2-HR :0.84465: (Sim:0h10m0s) 
CPU  0 inst:  106000000 cyc:  156259496 now IPC :1.56048: AVG IPC :0.66978: L2-Pf-HR :0.90740: L2-HR :0.84498: (Sim:0h10m5s) 
CPU  0 inst:  107000002 cyc:  157112856 now IPC :1.17184: AVG IPC :0.67252: L2-Pf-HR :0.90673: L2-HR :0.84470: (Sim:0h10m11s) 
CPU  0 inst:  108000000 cyc:  157746531 now IPC :1.57809: AVG IPC :0.67618: L2-Pf-HR :0.90640: L2-HR :0.84493: (Sim:0h10m16s) 
CPU  0 inst:  109000000 cyc:  158533648 now IPC :1.27046: AVG IPC :0.67915: L2-Pf-HR :0.90585: L2-HR :0.84477: (Sim:0h10m21s) 
CPU  0 inst:  110000002 cyc:  159244725 now IPC :1.40632: AVG IPC :0.68242: L2-Pf-HR :0.90539: L2-HR :0.84473: (Sim:0h10m27s) 
CPU  0 inst:  111000003 cyc:  159893843 now IPC :1.54055: AVG IPC :0.68592: L2-Pf-HR :0.90509: L2-HR :0.84491: (Sim:0h10m32s) 
CPU  0 inst:  112000000 cyc:  160748063 now IPC :1.17066: AVG IPC :0.68851: L2-Pf-HR :0.90449: L2-HR :0.84450: (Sim:0h10m38s) 
CPU  0 inst:  113000000 cyc:  161391051 now IPC :1.55524: AVG IPC :0.69199: L2-Pf-HR :0.90426: L2-HR :0.84471: (Sim:0h10m43s) 
CPU  0 inst:  114000000 cyc:  162248201 now IPC :1.16666: AVG IPC :0.69451: L2-Pf-HR :0.90365: L2-HR :0.84431: (Sim:0h10m49s) 
CPU  0 inst:  115000003 cyc:  162887563 now IPC :1.56406: AVG IPC :0.69795: L2-Pf-HR :0.90350: L2-HR :0.84460: (Sim:0h10m54s) 
CPU  0 inst:  116000000 cyc:  163734227 now IPC :1.18110: AVG IPC :0.70046: L2-Pf-HR :0.90288: L2-HR :0.84426: (Sim:0h11m0s) 
CPU  0 inst:  117000001 cyc:  164386836 now IPC :1.53231: AVG IPC :0.70378: L2-Pf-HR :0.90272: L2-HR :0.84450: (Sim:0h11m5s) 
CPU  0 inst:  118000002 cyc:  165241236 now IPC :1.17041: AVG IPC :0.70621: L2-Pf-HR :0.90208: L2-HR :0.84413: (Sim:0h11m11s) 
CPU  0 inst:  119000001 cyc:  165890093 now IPC :1.54117: AVG IPC :0.70949: L2-Pf-HR :0.90195: L2-HR :0.84439: (Sim:0h11m16s) 
CPU  0 inst:  120000000 cyc:  166748325 now IPC :1.16518: AVG IPC :0.71185: L2-Pf-HR :0.90135: L2-HR :0.84406: (Sim:0h11m22s) 
CPU  0 inst:  121000002 cyc:  167394399 now IPC :1.54781: AVG IPC :0.71510: L2-Pf-HR :0.90127: L2-HR :0.84439: (Sim:0h11m27s) 
CPU  0 inst:  122000002 cyc:  168237617 now IPC :1.18593: AVG IPC :0.71747: L2-Pf-HR :0.90072: L2-HR :0.84417: (Sim:0h11m33s) 
CPU  0 inst:  123000002 cyc:  168880558 now IPC :1.55535: AVG IPC :0.72068: L2-Pf-HR :0.90069: L2-HR :0.84451: (Sim:0h11m38s) 
CPU  0 inst:  124000000 cyc:  169745333 now IPC :1.15637: AVG IPC :0.72291: L2-Pf-HR :0.90019: L2-HR :0.84426: (Sim:0h11m44s) 
CPU  0 inst:  125000000 cyc:  170387309 now IPC :1.55769: AVG IPC :0.72608: L2-Pf-HR :0.90009: L2-HR :0.84452: (Sim:0h11m48s) 
CPU  0 inst:  126000002 cyc:  171240726 now IPC :1.17176: AVG IPC :0.72831: L2-Pf-HR :0.89963: L2-HR :0.84428: (Sim:0h11m52s) 
CPU  0 inst:  127000003 cyc:  171884428 now IPC :1.55352: AVG IPC :0.73142: L2-Pf-HR :0.89949: L2-HR :0.84448: (Sim:0h11m55s) 
CPU  0 inst:  128000000 cyc:  172738150 now IPC :1.17134: AVG IPC :0.73361: L2-Pf-HR :0.89905: L2-HR :0.84424: (Sim:0h12m0s) 
CPU  0 inst:  129000002 cyc:  173372774 now IPC :1.57574: AVG IPC :0.73671: L2-Pf-HR :0.89885: L2-HR :0.84442: (Sim:0h12m5s) 
CPU  0 inst:  130000003 cyc:  174123390 now IPC :1.33224: AVG IPC :0.73929: L2-Pf-HR :0.89853: L2-HR :0.84436: (Sim:0h12m10s) 
CPU  0 inst:  131000002 cyc:  174864162 now IPC :1.34994: AVG IPC :0.74189: L2-Pf-HR :0.89818: L2-HR :0.84426: (Sim:0h12m14s) 
CPU  0 inst:  132000000 cyc:  175504024 now IPC :1.56283: AVG IPC :0.74490: L2-Pf-HR :0.89799: L2-HR :0.84442: (Sim:0h12m19s) 
CPU  0 inst:  133000000 cyc:  176369394 now IPC :1.15558: AVG IPC :0.74693: L2-Pf-HR :0.89754: L2-HR :0.84408: (Sim:0h12m23s) 
CPU  0 inst:  134000001 cyc:  177008951 now IPC :1.56358: AVG IPC :0.74989: L2-Pf-HR :0.89741: L2-HR :0.84424: (Sim:0h12m26s) 
CPU  0 inst:  135000002 cyc:  177873901 now IPC :1.15614: AVG IPC :0.75188: L2-Pf-HR :0.89693: L2-HR :0.84391: (Sim:0h12m32s) 
CPU  0 inst:  136000000 cyc:  178514022 now IPC :1.56220: AVG IPC :0.75480: L2-Pf-HR :0.89683: L2-HR :0.84412: (Sim:0h12m37s) 
CPU  0 inst:  137000000 cyc:  179362653 now IPC :1.17837: AVG IPC :0.75682: L2-Pf-HR :0.89637: L2-HR :0.84382: (Sim:0h12m43s) 
CPU  0 inst:  138000001 cyc:  180014071 now IPC :1.53511: AVG IPC :0.75965: L2-Pf-HR :0.89630: L2-HR :0.84404: (Sim:0h12m48s) 
CPU  0 inst:  139000003 cyc:  180867872 now IPC :1.17124: AVG IPC :0.76160: L2-Pf-HR :0.89583: L2-HR :0.84377: (Sim:0h12m54s) 
CPU  0 inst:  140000000 cyc:  181512717 now IPC :1.55076: AVG IPC :0.76442: L2-Pf-HR :0.89580: L2-HR :0.84403: (Sim:0h13m0s) 
CPU  0 inst:  141000001 cyc:  182374746 now IPC :1.16005: AVG IPC :0.76630: L2-Pf-HR :0.89537: L2-HR :0.84380: (Sim:0h13m6s) 
CPU  0 inst:  142000003 cyc:  182996245 now IPC :1.60902: AVG IPC :0.76918: L2-Pf-HR :0.89535: L2-HR :0.84411: (Sim:0h13m11s) 
CPU  0 inst:  143000001 cyc:  183866176 now IPC :1.14951: AVG IPC :0.77099: L2-Pf-HR :0.89493: L2-HR :0.84385: (Sim:0h13m15s) 
CPU  0 inst:  144000000 cyc:  184506789 now IPC :1.56100: AVG IPC :0.77375: L2-Pf-HR :0.89491: L2-HR :0.84409: (Sim:0h13m19s) 
CPU  0 inst:  145000000 cyc:  185364268 now IPC :1.16621: AVG IPC :0.77557: L2-Pf-HR :0.89452: L2-HR :0.84384: (Sim:0h13m23s) 
CPU  0 inst:  146000001 cyc:  186017648 now IPC :1.53050: AVG IPC :0.77824: L2-Pf-HR :0.89447: L2-HR :0.84403: (Sim:0h13m27s) 
CPU  0 inst:  147000003 cyc:  186869455 now IPC :1.17398: AVG IPC :0.78005: L2-Pf-HR :0.89410: L2-HR :0.84379: (Sim:0h13m31s) 
CPU  0 inst:  148000000 cyc:  187526848 now IPC :1.52116: AVG IPC :0.78266: L2-Pf-HR :0.89402: L2-HR :0.84395: (Sim:0h13m35s) 
Finished CPU 0 instr: 146000003 cyc: 186543049 AVG IPC: 0.78266 (Sim time: 0h13m35s)

ChampSim completed all CPUs

[ROI Statistics]
Core_0_instructions 146000003
Core_0_cycles 186543049
Core_0_IPC 0.78266

Core_0_branch_prediction_accuracy 97.68931
Core_0_branch_MPKI 0.56912
Core_0_average_ROB_occupancy_at_mispredict 232.66688

Core_0_L1D_total_access 36745035
Core_0_L1D_total_hit 33594951 L1D_total_Hit Ratio: 0.91427
Core_0_L1D_total_miss 3150084
Core_0_L1D_loads 33163309
Core_0_L1D_load_hit 30173436 L1D_load_Hit Ratio: 0.90984
Core_0_L1D_load_miss 2989873
Core_0_L1D_RFOs 3140612
Core_0_L1D_RFO_hit 2980401 L1D_RFO_Hit Ratio: 0.94899
Core_0_L1D_RFO_miss 160211
Core_0_L1D_prefetches 441114
Core_0_L1D_prefetch_hit 441114 L1D_prefetch_Hit Ratio: 1.00000
Core_0_L1D_prefetch_miss 0
Core_0_L1D_writebacks 0
Core_0_L1D_writeback_hit 0 L1D_writeback_Hit Ratio: -nan
Core_0_L1D_writeback_miss 0
Core_0_L1D_prefetch_requested 17071341
Core_0_L1D_prefetch_issued 11657441
Core_0_L1D_prefetch_useful 0 L1D_Useful Ratio: 0.00000
Core_0_L1D_prefetch_useless 0
Core_0_L1D_prefetch_late 0
Core_0_L1D_average_miss_latency 108.28743

Core_0_L1I_total_access 32653980
Core_0_L1I_total_hit 32649156 L1I_total_Hit Ratio: 0.99985
Core_0_L1I_total_miss 4824
Core_0_L1I_loads 32653980
Core_0_L1I_load_hit 32649156 L1I_load_Hit Ratio: 0.99985
Core_0_L1I_load_miss 4824
Core_0_L1I_RFOs 0
Core_0_L1I_RFO_hit 0 L1I_RFO_Hit Ratio: -nan
Core_0_L1I_RFO_miss 0
Core_0_L1I_prefetches 0
Core_0_L1I_prefetch_hit 0 L1I_prefetch_Hit Ratio: -nan
Core_0_L1I_prefetch_miss 0
Core_0_L1I_writebacks 0
Core_0_L1I_writeback_hit 0 L1I_writeback_Hit Ratio: -nan
Core_0_L1I_writeback_miss 0
Core_0_L1I_prefetch_requested 0
Core_0_L1I_prefetch_issued 0
Core_0_L1I_prefetch_useful 0 L1I_Useful Ratio: -nan
Core_0_L1I_prefetch_useless 0
Core_0_L1I_prefetch_late 0
Core_0_L1I_average_miss_latency 258.74813

Core_0_L2C_total_access 14027486
Core_0_L2C_total_hit 11838489 L2C_total_Hit Ratio: 0.84395
Core_0_L2C_total_miss 2188997
Core_0_L2C_loads 2994426
Core_0_L2C_load_hit 2042953 L2C_load_Hit Ratio: 0.68225
Core_0_L2C_load_miss 951473
Core_0_L2C_RFOs 160211
Core_0_L2C_RFO_hit 15112 L2C_RFO_Hit Ratio: 0.09433
Core_0_L2C_RFO_miss 145099
Core_0_L2C_prefetches 10111127
Core_0_L2C_prefetch_hit 9039512 L2C_prefetch_Hit Ratio: 0.89402
Core_0_L2C_prefetch_miss 1071615
Core_0_L2C_writebacks 761722
Core_0_L2C_writeback_hit 740912 L2C_writeback_Hit Ratio: 0.97268
Core_0_L2C_writeback_miss 20810
Core_0_L2C_prefetch_requested 2865977
Core_0_L2C_prefetch_issued 217982
Core_0_L2C_prefetch_useful 1082215 L2C_Useful Ratio: 4.96470
Core_0_L2C_prefetch_useless 331
Core_0_L2C_prefetch_late 26882
Core_0_L2C_average_miss_latency 150.27605

Core_0_LLC_total_access 2943279
Core_0_LLC_total_hit 2032545 LLC_total_Hit Ratio: 0.69057
Core_0_LLC_total_miss 910734
Core_0_LLC_loads 924583
Core_0_LLC_load_hit 146210 LLC_load_Hit Ratio: 0.15814
Core_0_LLC_load_miss 778373
Core_0_LLC_RFOs 145099
Core_0_LLC_RFO_hit 13429 LLC_RFO_Hit Ratio: 0.09255
Core_0_LLC_RFO_miss 131670
Core_0_LLC_prefetches 1140219
Core_0_LLC_prefetch_hit 1140122 LLC_prefetch_Hit Ratio: 0.99991
Core_0_LLC_prefetch_miss 97
Core_0_LLC_writebacks 733378
Core_0_LLC_writeback_hit 732784 LLC_writeback_Hit Ratio: 0.99919
Core_0_LLC_writeback_miss 594
Core_0_LLC_prefetch_requested 0
Core_0_LLC_prefetch_issued 0
Core_0_LLC_prefetch_useful 15 LLC_Useful Ratio: inf
Core_0_LLC_prefetch_useless 81
Core_0_LLC_prefetch_late 0
Core_0_LLC_average_miss_latency 288.82372

Core_0_major_page_fault 0
Core_0_minor_page_fault 9156

CPU 0 L1D next line prefetcher final stats
Prefetcher final stats
Training Unit Size: 4608
Addr table size: 516016 516022


Triggers: 965752
No Prediction: 541396 56.05953
Stream end: 84221
No translation: 82558359 8548.60865
Predictions: 217982 22.57122


Stream divergence: 34848 3.60838
Stream divergence -- new stream: 0
Channel_0_RQ_row_buffer_hit 537556
Channel_0_RQ_row_buffer_miss 372584
Channel_0_WQ_row_buffer_hit 227055
Channel_0_WQ_row_buffer_miss 224875
Channel_0_WQ_full 0
Channel_0_dbus_congested 379683

avg_congested_cycle 11

EzSearch AVG IPC :0.78266: L2-Pf-HR :0.89402 : L2-HR :0.84395 Uful:4.96470
     > Finished combination: TraceType=770-tot Sim:146000000 Prefetcher=L2isb_ideal L1=isb_ideal
